#------------------------------------------------------------------------------
#$Date: 2019-11-25 22:30:06 +0200 (Mon, 25 Nov 2019) $
#$Revision: 241967 $
#$URL: file:///home/coder/svn-repositories/cod/cif/4/13/18/4131837.cif $
#------------------------------------------------------------------------------
#
# This file is available in the Crystallography Open Database (COD),
# http://www.crystallography.net/
#
# All data on this site have been placed in the public domain by the
# contributors.
#
data_4131837
loop_
_publ_author_name
'Yan, Yong'
'O'Connor, Alice E'
'Kanthasamy, Gopikkaa'
'Atkinson, George'
'Allan, David R.'
'Blake, Alexander J.'
'Schr\"oder, Martin'
_publ_section_title
;
 Unusual and Tunable Negative Linear Compressibility in the Metal-Organic
 Framework MFM-133(M) (M = Zr, Hf).
;
_journal_issue                   11
_journal_name_full               'Journal of the American Chemical Society'
_journal_page_first              3952
_journal_page_last               3958
_journal_paper_doi               10.1021/jacs.7b11747
_journal_volume                  140
_journal_year                    2018
_chemical_formula_moiety         'C88 H72 Hf6 O32'
_chemical_formula_sum            'C88 H72 Hf6 O32'
_chemical_formula_weight         1372.15
_space_group_crystal_system      tetragonal
_space_group_IT_number           128
_space_group_name_Hall           '-P 4 2n'
_space_group_name_H-M_alt        'P 4/m n c'
_atom_sites_solution_hydrogens   geom
_audit_creation_date             2017-03-19
_audit_creation_method
;
Olex2 1.2
(compiled 2015.09.30 svn.r3233 for OlexSys, GUI svn.r5103)
;
_cell_angle_alpha                90
_cell_angle_beta                 90
_cell_angle_gamma                90
_cell_formula_units_Z            2
_cell_length_a                   19.3430(8)
_cell_length_b                   19.3430(8)
_cell_length_c                   32.3072(19)
_cell_measurement_reflns_used    3188
_cell_measurement_temperature    293(2)
_cell_measurement_theta_max      13.5910
_cell_measurement_theta_min      3.9330
_cell_volume                     12087.8(10)
_computing_cell_refinement       'CrysAlisPro 1.171.38.41 (Rigaku OD, 2015)'
_computing_data_collection       'CrysAlisPro 1.171.38.41 (Rigaku OD, 2015)'
_computing_data_reduction        'CrysAlisPro 1.171.38.41 (Rigaku OD, 2015)'
_computing_molecular_graphics    'Olex2 (Dolomanov et al., 2009)'
_computing_publication_material  'Olex2 (Dolomanov et al., 2009)'
_computing_structure_refinement  'ShelXL (Sheldrick, 2015)'
_diffrn_ambient_temperature      293(2)
_diffrn_detector                 'CCD plate'
_diffrn_detector_area_resol_mean 16.1592
_diffrn_detector_type            Eos
_diffrn_measured_fraction_theta_full 0.896
_diffrn_measured_fraction_theta_max 0.896
_diffrn_measurement_details
;
List of Runs (angles in degrees, time in seconds):

  # Type    Start    End  Width  t~exp~   \w     \q     \k     \f   Frames
--------------------------------------------------------------------------
  1  \w      5.00  61.00   1.00   90.00    --   26.49   0.00 150.00   56
  2  \w     -5.00  41.00   1.00   90.00    --   26.49 -53.00  17.00   46
  3  \w    -49.00 -17.00   1.00   90.00    --   26.49 134.00 123.00   32
  4  \w    -30.00   6.00   1.00   90.00    --   26.49  39.00 -12.00   36
  5  \w    -25.00  14.00   1.00   90.00    --   26.49  13.00  -3.00   39
  6  \w     12.00  67.00   1.00   90.00    --   26.49 -97.00-143.00   55
  7  \w    -28.00 -17.00   1.00   90.00    --   26.49  97.00 -35.00   11
  8  \w    -57.00  -2.00   1.00   90.00    --  -28.05  53.00 -17.00   55
  9  \w      2.00  15.00   1.00   90.00    --  -28.05 -81.00  29.00   13
 10  \w      7.00  26.00   1.00   90.00    --  -28.05 -97.00  35.00   19
 11  \w    -12.00  13.00   1.00   90.00    --  -28.05 -53.00  17.00   25
 12  \w     -5.00  27.00   1.00   90.00    --  -28.05 -97.00-143.00   32
 13  \w    -20.00   8.00   1.00   90.00    --   26.49  81.00 151.00   28
 14  \w     -6.00  52.00   1.00   90.00    --   26.49 -37.00-180.00   58
 15  \w    -29.00 -17.00   1.00   90.00    --   26.49  97.00 -35.00   12
 16  \w     20.00  70.00   1.00   90.00    --   26.49-114.00  44.00   50
 17  \w    -52.00  -1.00   1.00   90.00    --  -28.05  39.00 167.00   51
 18  \w    -20.00  28.00   1.00   90.00    --  -28.05 -39.00  12.00   48
 19  \w    -28.00  18.00   1.00   90.00    --  -28.05 -39.00-167.00   46
 20  \w     23.00  37.00   1.00   90.00    --  -28.05-114.00  44.00   14
;
_diffrn_measurement_device       'four-circle diffractometer'
_diffrn_measurement_device_type  'SuperNova, Single source at offset, Eos'
_diffrn_measurement_method       '\w scans'
_diffrn_orient_matrix_type
'CrysAlisPro convention (1999,Acta A55,543-557)'
_diffrn_orient_matrix_UB_11      0.0012616000
_diffrn_orient_matrix_UB_12      0.0317492000
_diffrn_orient_matrix_UB_13      -0.0108043000
_diffrn_orient_matrix_UB_21      0.0350508000
_diffrn_orient_matrix_UB_22      -0.0064139000
_diffrn_orient_matrix_UB_23      -0.0053549000
_diffrn_orient_matrix_UB_31      -0.0109367000
_diffrn_orient_matrix_UB_32      -0.0170028000
_diffrn_orient_matrix_UB_33      -0.0183604000
_diffrn_radiation_monochromator  mirror
_diffrn_radiation_probe          x-ray
_diffrn_radiation_type           MoK\a
_diffrn_radiation_wavelength     0.71073
_diffrn_reflns_av_R_equivalents  0.325
_diffrn_reflns_av_unetI/netI     0.107
_diffrn_reflns_Laue_measured_fraction_full 0.896
_diffrn_reflns_Laue_measured_fraction_max 0.896
_diffrn_reflns_limit_h_max       12
_diffrn_reflns_limit_h_min       -12
_diffrn_reflns_limit_k_max       10
_diffrn_reflns_limit_k_min       -10
_diffrn_reflns_limit_l_max       20
_diffrn_reflns_limit_l_min       -21
_diffrn_reflns_number            18036
_diffrn_reflns_point_group_measured_fraction_full 0.896
_diffrn_reflns_point_group_measured_fraction_max 0.896
_diffrn_reflns_theta_full        13.698
_diffrn_reflns_theta_max         13.698
_diffrn_reflns_theta_min         4.067
_diffrn_source                   'micro-focus sealed X-ray tube'
_diffrn_source_type              'SuperNova (Mo) X-ray Source'
_exptl_absorpt_coefficient_mu    2.597
_exptl_absorpt_correction_T_max  0.844
_exptl_absorpt_correction_T_min  0.813
_exptl_absorpt_correction_type   gaussian
_exptl_absorpt_process_details
;
CrysAlisPro 1.171.38.41 (Rigaku Oxford Diffraction, 2015)
Numerical absorption correction based on gaussian integration over
			a multifaceted crystal model
Empirical absorption correction using spherical harmonics,
 implemented in SCALE3 ABSPACK scaling algorithm.
;
_exptl_crystal_density_diffrn    0.754
_exptl_crystal_description       tablet
_exptl_crystal_F_000             2592
_exptl_crystal_size_max          0.111
_exptl_crystal_size_mid          0.089
_exptl_crystal_size_min          0.052
_refine_diff_density_max         1.175
_refine_diff_density_min         -0.897
_refine_diff_density_rms         0.181
_refine_ls_extinction_method     none
_refine_ls_goodness_of_fit_ref   1.073
_refine_ls_hydrogen_treatment    constr
_refine_ls_matrix_type           full
_refine_ls_number_parameters     73
_refine_ls_number_reflns         878
_refine_ls_number_restraints     73
_refine_ls_restrained_S_all      5.157
_refine_ls_R_factor_all          0.1321
_refine_ls_R_factor_gt           0.1086
_refine_ls_shift/su_max          0.097
_refine_ls_shift/su_mean         0.007
_refine_ls_structure_factor_coef Fsqd
_refine_ls_weighting_details
'w=1/[\s^2^(Fo^2^)+(0.1936P)^2^+458.5110P] where P=(Fo^2^+2Fc^2^)/3'
_refine_ls_weighting_scheme      calc
_refine_ls_wR_factor_gt          0.2772
_refine_ls_wR_factor_ref         0.3039
_reflns_Friedel_coverage         0.000
_reflns_number_gt                687
_reflns_number_total             878
_reflns_threshold_expression     'I > 2\s(I)'
_cod_data_source_file            HfMOF_All.cif
_cod_data_source_block           hfmof_10.0kbar
_cod_original_cell_volume        12087.8(12)
_cod_database_code               4131837
_chemical_oxdiff_formula         'C88 H72 Hf6 O32'
_chemical_oxdiff_usercomment     'HFMOF at 10.0 kbar 14/12/2015'
_shelx_space_group_comment
;
The symmetry employed for this shelxl refinement is uniquely defined
by the following loop, which should always be used as a source of
symmetry information in preference to the above space-group names.
They are only intended as comments.
;
_reflns_odcompleteness_completeness 14.80
_reflns_odcompleteness_iscentric 1
_reflns_odcompleteness_theta     26.32
_olex2_refinement_description
;
1. Fixed Uiso
 At 1.2 times of:
  All C(H) groups
 At 1.5 times of:
  All C(H,H,H) groups
2. Restrained distances
 O13-C12
 1.41 with sigma of 0.01
 C12-O1
 1.41 with sigma of 0.01
 C6-C12 = C9-C3
 1.41 with sigma of 0.02
 C6-C12 = C9-C3
 1.41 with sigma of 0.01
 C9-C3 = C6-C12
 1.41 with sigma of 0.01
 Hf1-O13 = Hf2-O1
 2.11 with sigma of 0.02
 O1-C12 = O13-C12
 1.41 with sigma of 0.02
 C9-C15 = C9-C10
 1.41 with sigma of 0.02
 C10-C11 = C16-C17
 1.45 with sigma of 0.005
 C4-C5 = C7-C8
 1.39 with sigma of 0.01
 C6-C12 \\sim C9-C3
 with sigma of 0.01
 C9-C3 \\sim C6-C12
 with sigma of 0.01
 C11-C10 \\sim C16-C15 \\sim C17-C15
 with sigma of 0.01
 C9-C17 \\sim C15-C17 \\sim C9-C11 \\sim C11-C9D
 with sigma of 0.005
 C3-C7 \\sim C8-C6 \\sim C7-C5 \\sim C6-C4 \\sim C5-C3 \\sim C4-C8
 with sigma of 0.01
3. Restrained planarity
 C12, C6, C5, C4, C3, C9, C8, C7
 with sigma of 0.01
 C9, C3, C8, C7, C6, C12, C5, C4
 with sigma of 0.01
 C9, C3, C8, C4
 with sigma of 0.01
 C17, C15, C16, C10, C9, C11
 with sigma of 0.01
4. Rigid bond restraints
 C6, Hf2, Hf1, C8, C3, C5, C4, C7, C9, C10, C11, C12, C15, C16, C17, O1, O4,
 O13, O19, O20
 with sigma for 1-2 distances of 0.01 and sigma for 1-3 distances of 0.01
5. Uiso/Uaniso restraints and constraints
C6 \\sim Hf2 \\sim Hf1 \\sim C8 \\sim C3 \\sim C5 \\sim C4 \\sim C7 \\sim C9
\\sim C10 \\sim C11 \\sim C12 \\sim C15 \\sim C16 \\sim C17 \\sim O1 \\sim O4
\\sim O13 \\sim O19 \\sim O20: within 1.7A with sigma of 0.04 and sigma for
terminal atoms of 0.08
6. Others
 Fixed Sof: C15D(0.00001) C9D(0.00001)
 Fixed Uiso: C15D(0.05) C9D(0.05)
7.a Aromatic/amide H refined with riding coordinates:
 C4(H4), C5(H5), C7(H7), C8(H8)
7.b Fitted hexagon refined as free rotating group:
 C9(C16,C15,C15D,C9D,C10)
7.c Idealised Me refined as rotating group:
 C17(H,HA,HB)
;
_shelx_res_file
;
    hfmof@9.4kbar.res created by SHELXL-2014/7

TITL HFMOF@9 in P4/mnc
REM P4/mnc (#128 in standard setting)
REM EXTI 0.0000(5)
CELL 0.71073 19.342983 19.342983 32.307165 90 90 90
ZERR 4 0.000814 0.000814 0.001884 0 0 0
LATT 1
SYMM -X,-Y,+Z
SYMM -Y,+X,+Z
SYMM +Y,-X,+Z
SYMM 0.5-X,0.5+Y,0.5-Z
SYMM 0.5+X,0.5-Y,0.5-Z
SYMM 0.5+Y,0.5+X,0.5-Z
SYMM 0.5-Y,0.5-X,0.5-Z
SFAC C H Hf O
UNIT 184 112 12 64
DFIX 1.41 0.01 O13 C12
DFIX 1.41 0.01 C12 O1
DFIX 1.41 C6 C12 C9 C3
DFIX 1.41 0.01 C6 C12 C9 C3
DFIX 1.41 0.01 C9 C3 C6 C12
DFIX 2.11 Hf1 O13 Hf2 O1
DFIX 1.41 O1 C12 O13 C12
DFIX 1.41 C9 C15 C9 C10
DFIX 1.45 0.005 C10 C11 C16 C17
DFIX 1.39 0.01 C4 C5 C7 C8
SADI 0.01 C6 C12 C9 C3
SADI 0.01 C9 C3 C6 C12
SADI 0.01 C11 C10 C16 C15 C17 C15
SADI 0.005 C9 C17 C15 C17 C9 C11 C11 C9D
SADI 0.01 C3 C7 C8 C6 C7 C5 C6 C4 C5 C3 C4 C8
FLAT 0.01 C12 C6 C5 C4 C3 C9 C8 C7
FLAT 0.01 C9 C3 C8 C7 C6 C12 C5 C4
FLAT 0.01 C9 C3 C8 C4
FLAT 0.01 C17 C15 C16 C10 C9 C11
DELU C6 Hf2 Hf1 C8 C3 C5 C4 C7 C9 C10 C11 C12 C15 C16 C17 O1 O4 O13 O19 O20
SIMU 0.04 0.08 1.7 C6 Hf2 Hf1 C8 C3 C5 C4 C7 C9 C10 C11 C12 C15 C16 C17 O1 =
 O4 O13 O19 O20

L.S. 6
PLAN  9
MPLA 6 C3 C4 C5 C6 C7 C8
MPLA 4 C9 C10 C15 C16
CONN 1 0 C17
FREE C17 C15D
FREE C17 C15
CONN 0 C15D
CONN 0 C9D
BIND Hf1 Hf2
BIND C16 C17
DAMP 6000 3
BOND
MORE -1
BOND $H
CONF
fmap 2
acta 52
OMIT -4 52
OMIT 1 2 6
OMIT 2 5 3
OMIT 0 5 5
OMIT 3 5 2
OMIT 1 3 7
REM <olex2.extras>
REM <HklSrc "%.\\HFMOF@9.4kbar.hkl">
REM </olex2.extras>

WGHT    0.193600  458.511017
FVAR       0.14150
HF1   3   -0.041439    0.121781    0.000000    10.50000    0.07939    0.06013 =
         0.02080    0.00000    0.00000    0.00575
HF2   3    0.000000    0.000000    0.075718    10.25000    0.05955    0.05955 =
         0.01884    0.00000    0.00000    0.00000
O1    4   -0.025587    0.090414    0.110008    11.00000    0.05595
O4    4   -0.078782    0.038986    0.036673    11.00000    0.11460
O13   4   -0.058366    0.168324    0.059956    11.00000    0.07535
O19   4   -0.145664    0.159662    0.000000    10.50000    0.05639
O20   4    0.015818    0.221213    0.000000    10.50000    0.05741
C3    1   -0.068748    0.312552    0.193094    11.00000    0.07473
C4    1   -0.087982    0.327520    0.151130    11.00000    0.11978
SPEC 0.3
AFIX  43
H4    2   -0.103592    0.371160    0.143474    11.00000   -1.20000
AFIX   0
C5    1   -0.082412    0.274346    0.122334    11.00000    0.12669
AFIX  43
H5    2   -0.094690    0.283390    0.095034    11.00000   -1.20000
AFIX   0
C6    1   -0.060010    0.210120    0.132088    11.00000    0.09335
C7    1   -0.040688    0.194913    0.174225    11.00000    0.10438
AFIX  43
H7    2   -0.025124    0.151243    0.181855    11.00000   -1.20000
AFIX   0
C8    1   -0.046212    0.247898    0.202913    11.00000    0.09571
AFIX  43
H8    2   -0.033925    0.238856    0.230212    11.00000   -1.20000
AFIX  66
C9    1   -0.074925    0.367653    0.221687    11.00000    0.05481
C16   1   -0.024098    0.418452    0.221659    11.00000    0.06315
C15   1   -0.027343    0.472635    0.249980    10.50000    0.05745
C15D  1   -0.081415    0.475890    0.278166    10.00001   10.05000
C9D   1   -0.132242    0.425091    0.278194    10.00001   10.05000
C10   1   -0.128998    0.370991    0.249993    10.50000    0.05929
AFIX   0
C11   1   -0.181607    0.318393    0.250000    10.50000    0.09687
C12   1   -0.054344    0.156055    0.102866    11.00000    0.07910
C17   1    0.030860    0.421873    0.196238    11.00000    0.13331
AFIX 137
H     2    0.060591    0.383000    0.201183    11.00000   -1.50000
HA    2    0.055813    0.463905    0.201383    11.00000   -1.50000
HB    2    0.015404    0.421155    0.168004    11.00000   -1.50000
AFIX   0
HKLF 4

REM  HFMOF@9 in P4/mnc
REM R1 =  0.1086 for     687 Fo > 4sig(Fo)  and  0.1321 for all     878 data
REM     73 parameters refined using     73 restraints

END

WGHT      0.1925    477.6409

REM Highest difference peak  1.175,  deepest hole -0.897,  1-sigma level  0.181
Q1    1   0.0000  0.0000  0.2047  10.25000  0.05    1.18
Q2    1  -0.0459  0.0905  0.0000  10.50000  0.05    1.09
Q3    1  -0.2135  0.1090  0.0833  11.00000  0.05    0.89
Q4    1  -0.0604  0.1311  0.0000  10.50000  0.05    0.88
Q5    1  -0.0071  0.2830  0.3219  11.00000  0.05    0.84
Q6    1   0.0693  0.1833  0.0000  10.50000  0.05    0.74
Q7    1  -0.0400  0.0617  0.0000  10.50000  0.05    0.73
Q8    1  -0.0712  0.1572  0.0784  11.00000  0.05    0.72
Q9    1  -0.0452  0.1921  0.0000  10.50000  0.05    0.69
;
_shelx_res_checksum              76408
_shelx_hkl_file
;
   0   0 -11-109.780 467.607  16
   0  -1  -7 819.026 255.191  16
   0   1   7 524.904 191.971  10
   0   1   7 500.359 182.154   9
   0  -1  -8 3.09039 42.1237   2
   0  -1  -8-58.3872 184.479   6
   0   1   8-51.1949 90.2744  11
   0   1   8-10.6745 103.559   9
   0   1   8-34.0816 50.5427  10
   0  -1  -8 65.8334 114.195  16
   0  -1  -9 5052.60 585.740   2
   0  -1  -9 5603.43 632.059  17
   0  -1  -9 4301.13 727.677  16
   0  -1 -10-59.5805 161.236  17
  -1   0 -10-174.113 537.156  16
   0  -1 -10-10.6083 83.0697  16
   0  -1 -10 53.8444 94.6576   2
   0  -1 -11 7398.99 1135.12  16
   0  -1 -11 8007.74 844.460  17
  -1   0 -11 5208.72 1268.63  16
   0  -1 -11 8639.45 868.898   2
   0  -1 -12 43.8731 123.770   2
  -1   0 -12 31.1378 104.372  16
   0  -1 -12 32.3099 203.880  16
   0  -1 -13 6613.00 814.629   2
   0  -1 -13 6077.31 1135.58  16
   0  -1 -14 370.380 340.958   2
   0  -1 -14 777.135 545.492  16
   0  -1 -15 6672.96 1240.82  16
   0  -1 -15 6721.14 857.772   2
   0  -1 -16 726.062 276.419   2
   0  -1 -16 1175.71 622.846  16
   0  -1 -17 3204.30 607.881   2
   0  -1 -17 3771.41 989.516  16
   0  -1 -18 160.681 206.301  16
   0  -1 -18 140.938 194.352   2
   0  -1 -19 790.350 528.404  16
  -1  -1  -6 446.550 155.444  16
   1   1   7-168.428 131.004  20
  -1   1   7-62.5206 28.3767  10
  -1  -1  -7-14.7880 63.7898   6
  -1  -1  -7-28.0147 54.0315  16
  -1   1   7-106.720 89.3320   9
   1  -1  -7-0.37908 59.2225  16
   1  -1  -7 6.74594 2.76597   2
  -1   1   7-15.4168 50.9773  11
   1   1   7 37.9826 55.3259  10
   1  -1  -8 1794.50 324.723   2
  -1   1   8 721.270 241.454   9
  -1   1   8 624.364 225.873  10
  -1   1   8 900.240 234.562  11
  -1  -1  -8 1581.60 390.082  16
   1   1   8 534.746 190.365  10
  -1  -1  -8 773.222 301.764   6
   1   1   8 634.058 171.587   9
   1  -1  -8 1896.85 332.738  17
   1  -1  -8 1366.75 375.083  16
  -1   1   8 1075.53 237.554  18
  -1  -1  -9 101.099 163.054  16
  -1   1   9 13.4338 48.9143  18
   1  -1  -9 17.7994 69.0959  16
   1  -1  -9-12.8972 59.2445  17
  -1  -1  -9-15.1450 56.6235   2
  -1   1   9-108.755 156.768   9
  -1   1   9-34.1883 124.770  11
   1  -1  -9-8.19463 39.5489   2
  -1  -1  -9-101.278 160.887   6
  -1   1  10 1142.96 264.738  18
  -1  -1 -10 3588.67 719.060  16
   1  -1 -10 4783.08 617.170  17
  -1  -1 -10 1104.04 377.216   6
   1  -1 -10 3128.47 691.349  16
   1  -1 -10 4062.70 567.039   2
  -1  -1 -10 4606.27 596.255   2
   1  -1 -11-17.6832 29.0090  17
   1  -1 -11 25.5039 52.2148   2
  -1  -1 -11 44.3010 120.705  16
  -1  -1 -11-319.246 377.110   6
   1  -1 -11 2.69678 113.550  16
  -1  -1 -11-28.2408 101.542   2
  -1  -1 -12 5390.36 1017.80  16
   1  -1 -12 4613.91 952.649  16
   1  -1 -12 6380.66 771.417  17
   1  -1 -12 5255.97 716.717   2
  -1  -1 -12 5911.17 733.532   2
   1  -1 -13-39.5697 149.471  17
   1  -1 -13 30.0449 305.968  16
   1  -1 -13 36.1681 184.954   2
  -1  -1 -13 126.394 124.935  16
  -1  -1 -13-55.6681 69.1530   2
  -1  -1 -14 4628.96 1015.28  16
   1  -1 -14 4132.50 954.207  16
   1  -1 -14 4425.05 694.620   2
  -1  -1 -14 4745.48 695.004   2
  -1  -1 -15 52.7508 115.328   2
  -1  -1 -15 312.705 295.471  16
  -1  -1 -16 3798.93 968.303  16
   1  -1 -16 3194.75 888.641  16
   1  -1 -16 2688.44 551.470   2
  -1  -1 -16 3365.04 611.878   2
  -1  -1 -17-30.1192 56.8103  16
  -1  -1 -17 181.840 197.346   2
  -1  -1 -18 1380.21 406.078   2
   1  -1 -18 1065.70 532.642  16
  -1  -1 -18 1501.87 755.790  16
   1  -1 -18 1188.14 393.258   2
   1  -1 -19 99.4742 366.167  16
  -1  -1 -19 285.817 319.614  16
  -2   0   6 237.356 97.7946  18
   0  -2  -6 503.995 146.723  16
  -2   0  -6 245.821 143.584   6
   2   0  -6 708.210 224.652  17
  -2   0  -7-8.74087 167.728  16
   0   2   7 17.7447 47.3595  20
   0  -2  -7-1.72305 4.86513   2
   2   0  -7-0.27058 53.2128  17
  -2   0  -7-56.7300 229.742   6
   0  -2  -7 3.20000 8.21012  16
  -2   0  -8 15.0768 218.295  16
   0  -2  -8 117.064 110.395   6
   0   2   8 59.7953 52.9941  11
   0  -2  -8 108.841 89.3344  16
   2   0  -8 83.1031 52.7769  17
   0   2   8 152.563 103.453  10
   0   2   8 120.473 67.5471   7
   0  -2  -8 81.6200 50.4681   2
   0   2   8 12.8169 88.7078  15
   0   2   8 55.3127 103.135  20
   0  -2  -9-39.5981 63.5787  16
   0   2   9 116.971 118.276   9
   0   2   9 62.2658 136.948  10
  -2   0  -9-110.285 434.623  16
   0  -2  -9 1.03843 80.1187   2
   0  -2  -9 2.94594 48.5834  17
   0   2   9 64.9083 83.8539  11
   0   2   9-4.36920 44.8615  20
   0   2   9 11.6868 41.4318  18
   0  -2  -9 0.48009 120.864   6
   0   2  10 1867.68 326.159  11
  -2   0 -10 2424.99 788.067  16
   0   2  10 1555.11 359.803  10
   0  -2 -10 1462.09 444.512   6
   0  -2 -10 2767.84 397.292   2
   0   2  10 1762.32 372.926   9
   0   2  10 1756.74 285.753  18
   0  -2 -10 2418.87 465.321  16
   0  -2 -10 2937.12 395.032  17
   0   2  10 1731.57 458.482  20
   0   2  11-30.8279 75.8383  11
   0  -2 -11 7.20762 50.3664   6
   0   2  11-31.3643 74.0904  10
  -2   0 -11 6.12736 142.709  16
   0  -2 -11 36.7031 86.5865   2
   0  -2 -11-53.0974 85.7491  16
   0   2  11-153.252 151.616  20
   0   2  11-6.87793 51.7186   9
   0   2  11 37.0742 19.9642  18
   0  -2 -11 22.9953 40.1266  17
  -2   0 -12 1854.83 701.445  16
   0  -2 -12 803.012 303.057   6
   0  -2 -12 3045.63 481.891  17
   0   2  12 912.425 306.935  10
   0   2  12 905.120 296.930   9
   0  -2 -12 2547.04 562.364  16
   0   2  12 1251.25 279.682  11
   0   2  12 881.626 236.517  18
   0  -2 -12 2798.23 458.221   2
   0  -2 -13 65.0461 92.3994   2
   0  -2 -13-49.3751 81.4172  17
   0  -2 -13-124.999 164.671  16
  -2   0 -13-5.65427 207.014  16
   0  -2 -13-179.889 312.165   6
   0   2  13-139.837 239.920   9
   0  -2 -14 2273.03 595.135  16
   0  -2 -14 2894.69 498.528  17
   0  -2 -14 2623.16 499.245   2
   0  -2 -15-321.531 174.214  17
   0  -2 -15 57.8888 136.908   2
   0  -2 -15 53.6603 169.191  16
   0  -2 -16 662.339 339.367  16
   0  -2 -16 964.589 325.808   2
   0  -2 -17-8.00714 103.900   2
   0  -2 -17-45.9973 47.8186  16
   0  -2 -18 293.708 229.106  16
   0  -2 -18 211.267 154.382   2
   0  -2 -19 29.6709 117.138   2
   0  -2 -19 45.5891 47.5645  16
   0  -2 -20 36.8986 119.076   2
   0  -2 -20-156.257 293.412  16
   0  -2 -21-7.96186 10.8399   2
   0  -2 -21 115.132 139.186  16
  -2   1   6 60.4881 60.3214  11
   1  -2  -6 48.2442 38.2766  16
   2  -1  -6 57.4361 25.0049  17
  -1  -2  -6 71.5391 56.6511   6
   2   1   6 37.2150 49.9614  15
  -2  -1  -6 38.8877 6.91681  16
   1  -2  -6 52.0717 44.7685   2
  -2  -1  -6 13.1853 22.5712   6
  -2   1   6 23.7626 29.6978  18
  -2   1   6 34.5393 23.4371   9
  -1  -2  -6 46.5332 55.8217  16
   2   1   6 8.92942 75.6959   7
   2  -1  -6 37.3305 15.8318   2
  -2   1   7 131.073 76.8830  18
  -2   1   7 105.956 62.4940   9
   1   2   7 164.401 96.6667  20
  -1   2   7 161.171 72.1171  11
   1  -2  -7 148.746 84.2116  16
  -1   2   7 200.343 120.710  20
  -2  -1  -7 175.783 126.855   6
   1   2   7 292.843 164.119   7
  -1  -2  -7 224.146 113.440   6
   2   1   7 125.502 6.56610  10
   2   1   7-31.8839 94.5279  20
   2  -1  -7 183.785 92.4013   2
  -2  -1  -7 190.100 103.742  16
  -2   1   7 147.164 87.0535  11
   2  -1  -7 188.710 139.530  16
  -2   1   7 111.358 83.4759  10
   2  -1  -7 207.602 106.424  17
  -1   2   7 162.270 62.6427  18
   1  -2  -7 158.332 84.9159  17
   1  -2  -7 194.661 88.3595   2
  -1  -2  -7 154.132 98.1050  16
   1   2   7 228.515 133.515  15
  -1  -2  -8 125.673 65.7150   2
  -1  -2  -8 114.243 56.4806   6
  -2   1   8 14.5376 32.7070   9
  -2   1   8 96.5115 56.2020  11
   2  -1  -8 149.592 111.580  17
   2  -1  -8 109.593 109.151  16
   1   2   8 113.779 102.339   7
   1  -2  -8 149.401 74.4474  17
  -1   2   8 105.313 124.922  20
   1  -2  -8 102.018 68.4824   2
   2  -1  -8 96.6192 86.2490   2
  -1   2   8 126.555 91.9244  10
  -2  -1  -8 93.7619 88.1286   6
   1   2   8 177.821 115.795  10
   1  -2  -8 121.625 94.9961  16
  -1   2   8 123.480 64.4796  18
   1   2   8 45.2012 68.8145  20
  -2   1   8 96.9829 73.4454  18
  -2  -1  -8 37.8990 113.427   8
  -1  -2  -8 148.621 99.5187  16
   1   2   8 126.652 91.8979  15
  -2  -1  -8 108.977 129.999  16
  -1   2   8 136.054 82.8521  11
  -1   2   9 7.52606 69.2401  10
   1  -2  -9-5.08226 51.6944  17
   1  -2  -9 40.0954 75.5023   2
   2  -1  -9 1.69413 19.4335  17
   1   2   9 20.7585 77.6310  10
  -2   1   9 45.5620 52.8843   1
   1   2   9 15.9904 36.0246  11
   1  -2  -9-39.9243 94.9902   6
   2  -1  -9-10.9704 42.2849  16
  -1  -2  -9-14.4164 15.5064   2
  -1   2   9 62.6300 117.785   9
   1   2   9 49.8320 88.1349   9
  -1   2   9 11.9833 26.7388  11
  -2  -1  -9 22.5649 80.8257   6
  -2  -1  -9 54.3701 155.199  16
  -1  -2  -9 83.9102 106.696   6
   1   2   9-281.039 191.357  15
   1   2   9-46.0492 94.4354  20
   1  -2  -9 20.7083 56.6807  16
  -2   1   9 7.81963 21.0888  18
  -1   2   9-109.063 147.108  20
  -2   1   9-62.8514 168.316   9
   1   2   9-340.568 217.388   7
  -2  -1  -9-87.1332 161.343   8
   2  -1  -9 2.04778 24.5800   2
  -2   1   9-43.4857 102.230  11
  -1  -2  -9 8.98110 27.2896  16
  -1   2   9-7.92720 40.6109  18
  -2   1  10-16.8119 59.8855  18
  -2  -1 -10 39.5562 58.5231   2
   1  -2 -10 3.03090 39.6670  16
  -2   1  10-9.03428 90.4709   1
   2  -1 -10 4.41616 40.9966   2
   1  -2 -10 21.3023 41.7082  17
  -1  -2 -10 0.79332 37.0065  16
   2  -1 -10 43.9014 83.0516  17
  -1   2  10 42.1543 18.2496  10
  -1   2  10-115.521 193.554  20
  -1  -2 -10 27.3541 58.2624   2
  -1  -2 -10 18.0589 44.4096  17
  -1   2  10 8.50785 70.5794   9
   1   2  10 48.0224 72.3461  10
  -2  -1 -10 119.583 163.875  16
   1   2  10-49.5384 67.6301  11
   1  -2 -10 39.6747 98.9220   2
  -2  -1 -10 45.6863 72.5815   6
  -1  -2 -10 49.6823 10.7606   6
   1  -2 -10 17.1007 46.7794   6
   1   2  10-1.62815 112.245  20
   1   2  10-36.1285 83.1090   9
  -1   2  10 14.3236 14.4864  18
  -1   2  10-6.55575 43.3378  11
  -2   1  10-17.2602 130.722  11
   2  -1 -10 133.483 186.802  16
  -1  -2 -11 1908.34 341.910   2
   1   2  11 831.024 264.240  10
   2  -1 -11 1527.75 516.089  16
  -1  -2 -11 2348.23 398.647  17
   1  -2 -11 1795.57 356.042   2
  -1  -2 -11 1167.51 379.688   6
   1  -2 -11 1612.74 328.531  17
   1   2  11 1098.71 242.970  11
   1   2  11 531.779 117.962  18
  -1   2  11 1052.26 276.480  11
  -1  -2 -11 1649.30 432.658  16
   1   2  11 712.405 282.287  20
   2  -1 -11 2005.15 417.947  17
   1   2  11 874.947 277.914   9
  -1   2  11 1025.32 323.430   9
   1  -2 -11-57.3073 222.854   6
  -2   1  11 461.496 162.784  18
  -1   2  11 947.437 323.714  10
  -2   1  11 571.590 158.216   1
  -1   2  11 1061.17 246.969  18
  -2  -1 -11 944.160 328.572   6
   1  -2 -11 1683.49 420.876  16
  -2  -1 -11 2167.64 402.371   2
   2  -1 -11 1721.05 406.959   2
  -2  -1 -11 1983.20 579.599  16
  -1  -2 -12-5.22018 89.3758   8
   1  -2 -12 26.6229 106.818  16
   2  -1 -12 173.487 215.308  17
   1   2  12-56.0377 120.109   9
   1  -2 -12 47.4954 73.7279  17
  -1   2  12 75.0267 170.998  10
   2  -1 -12 36.5814 152.277   2
   1   2  12-50.6059 20.0233  10
  -2  -1 -12-236.655 311.301   6
  -2  -1 -12 195.685 283.198  16
  -1   2  12-34.7652 70.8420   9
   2  -1 -12 271.794 335.445  16
  -2  -1 -12-14.1121 89.1624   2
  -1   2  12-86.1042 107.211  11
  -1  -2 -12 100.224 93.6588  16
  -1  -2 -12-3.80885 31.0640   2
  -1  -2 -12 32.0347 20.8654  17
   1  -2 -12 54.7483 97.9226   2
  -1  -2 -12-233.605 190.989   6
  -1   2  12 7.29381 13.1215  18
  -2   1  12-133.724 198.068   1
  -1   2  13 711.998 189.969   1
  -1  -2 -13 2417.84 436.302   2
  -1   2  13 812.755 211.650  18
   1  -2 -13 1452.11 474.258  16
  -2  -1 -13 2315.84 679.738  16
   1   2  13 346.697 163.242   9
  -2  -1 -13 2289.74 460.006   2
   1  -2 -13 2369.16 432.076  17
  -1   2  13 679.308 234.130  11
   2  -1 -13 1927.05 441.905   2
   2  -1 -13 2234.94 450.285  17
  -1  -2 -13 1457.07 381.853   8
  -1   2  13 495.110 238.741   9
  -1  -2 -13 1739.82 551.929   6
  -1  -2 -13 2389.94 577.699  16
  -1  -2 -13 2459.65 447.376  17
   1  -2 -13 2048.38 424.704   2
   2  -1 -13 1818.84 623.239  16
  -2  -1 -14 227.256 267.799  16
  -1   2  14-128.855 200.025  18
  -1   2  14 19.6130 57.2357   1
  -1  -2 -14-49.8746 61.2377   2
   1  -2 -14 72.0872 195.429  16
   2  -1 -14 216.064 215.322   2
   2  -1 -14 50.4314 107.913  17
  -1  -2 -14-427.392 260.665   8
   1  -2 -14 9.46592 43.0337   2
   1  -2 -14 57.4615 114.439  17
  -1  -2 -14-14.0761 150.568  16
   2  -1 -14 66.6653 261.674  16
  -2  -1 -14-73.1244 93.5404   2
  -2  -1 -15 711.377 243.467   2
   2  -1 -15 702.828 284.828   2
   1  -2 -15 728.380 275.111  17
   1  -2 -15 852.454 399.076  16
  -1  -2 -15 829.926 262.271   2
  -1   2  15 148.551 94.5898   1
  -1  -2 -15 284.043 112.559   8
   2  -1 -15 562.249 366.760  16
  -1  -2 -15 512.381 303.642  16
   1  -2 -15 820.804 299.776   2
  -2  -1 -15 821.398 395.194  16
  -1  -2 -16-24.8864 111.630   2
   1  -2 -16 25.1371 16.6080   2
   2  -1 -16 152.095 213.808   2
   1  -2 -16 334.825 294.071  16
   2  -1 -16 484.028 387.995  16
  -1  -2 -16-335.569 323.463   8
  -2  -1 -16 170.919 195.000  16
  -2  -1 -16 14.5698 78.5518   2
  -1  -2 -16 194.632 227.933  16
   1  -2 -16 138.845 115.934  17
  -2  -1 -17 217.870 320.224  16
  -2  -1 -17 205.676 201.431   2
   1  -2 -17-45.2061 196.011  17
  -1  -2 -17 189.062 156.797   2
  -1  -2 -17 372.444 335.906  16
   1  -2 -17-94.3859 107.675  16
   2  -1 -17 155.994 143.935   2
   2  -1 -17 135.255 302.740  16
   1  -2 -17 21.3842 27.9808   2
  -1  -2 -17 79.9684 77.7312   8
   1  -2 -18 0.68976 102.028  16
   2  -1 -18 189.912 267.787  16
   2  -1 -18 98.7567 185.993   2
  -1  -2 -18 93.5114 140.946   2
  -1  -2 -18 156.400 267.444  16
  -2  -1 -18 335.388 360.033  16
   1  -2 -18 55.3879 86.3891   2
   1  -2 -19 126.081 130.717   2
  -2  -1 -19 66.9317 391.834  16
  -1  -2 -19 244.958 252.264  16
  -1  -2 -19-29.7972 125.583   2
   1  -2 -19-80.3732 238.843  16
   1  -2 -20-277.526 291.407  16
  -1  -2 -20 44.1367 160.687   2
  -1  -2 -20 113.328 179.297  16
   1  -2 -20 32.9654 139.936   2
  -1  -2 -21-269.400 352.613  16
   1  -2 -21 127.744 18.1280  16
   1  -2 -21 36.8600 137.165   2
  -1  -2 -21 133.301 166.234   2
  -2  -2  -5 28.2860 42.1960   6
  -2  -2  -5 6.79267 38.9564  16
   2   2   5 19.8622 38.1869   3
   2  -2  -5 4.01199 32.3303   2
   2   2   5 20.3967 49.4570  12
  -2   2   6 4848.05 449.156  11
   2  -2  -6 3992.40 386.095  16
   2  -2  -6 4134.79 415.718  17
  -2  -2  -6 4831.08 457.007   6
   2  -2  -6 4337.69 422.212   2
  -2   2   6 3848.63 348.072  18
  -2  -2  -6 4762.00 483.516  16
   2   2   7 126.659 105.001  15
   2  -2  -7 18.8188 31.0651   2
   2   2   7 10.8552 50.6617  20
  -2   2   7-1.56475 39.9403  11
  -2  -2  -7 28.4423 33.3175  16
  -2  -2  -7-19.8196 60.8067   6
   2  -2  -7-27.0902 50.3760  16
  -2   2   7-14.4178 2.60408  18
  -2   2   7 101.757 108.717  20
   2  -2  -7-3.75913 25.9989  17
   2   2   8 202.054 115.747  10
   2  -2  -8 107.696 89.0533  16
  -2   2   8 63.4227 44.7874  20
   2   2   8 89.2530 132.511   7
  -2  -2  -8 193.819 94.9856   6
  -2  -2  -8 225.708 136.293  16
  -2   2   8 52.3974 59.6714  11
   2   2   8 190.129 136.323  20
  -2   2   8 149.020 74.4323  18
   2  -2  -8 108.480 71.8839   2
   2   2   8 186.106 142.682  15
  -2   2   8 153.504 107.971  10
   2  -2  -8 156.929 85.6661  17
  -2   2   9 3.53051 132.593  20
  -2   2   9 10.6323 34.2776  18
   2   2   9-29.7078 15.8997  20
  -2  -2  -9-14.9456 23.6440  16
   2   2   9 27.0833 73.5744   9
  -2   2   9 64.0634 100.878  10
   2   2   9-31.3643 35.1169   7
   2  -2  -9 7.51401 20.7784   2
  -2   2   9 95.6559 124.085   9
   2  -2  -9 23.0311 76.1625  17
  -2  -2  -9-8.82188 23.2103   8
  -2  -2  -9-28.6478 31.0338   2
  -2   2   9 12.1019 36.9639  11
  -2  -2  -9 19.0139 19.1447   6
   2  -2  -9-10.3503 38.2826  16
   2   2   9-31.2505 63.3892  10
   2   2   9-11.1044 114.377  15
  -2   2  10 100.610 92.3656  11
  -2  -2 -10 88.7825 67.5333   2
   2   2  10 16.5335 83.6079  20
   2   2  10 12.3388 59.5646   7
   2   2  10 131.655 136.750  10
   2  -2 -10 54.8491 75.3785  17
   2  -2 -10 34.6248 57.4394  16
  -2   2  10 70.0996 55.5916   1
  -2  -2 -10 67.4163 20.2972   8
   2  -2 -10 17.5701 68.8470   2
  -2  -2 -10 127.997 117.858  16
  -2  -2 -10 94.1240 137.646   6
  -2   2  10 143.589 155.813  10
  -2   2  10-247.237 194.928  20
  -2   2  10 26.7979 40.6935   9
   2   2  10-16.4377 65.5717   9
   2   2  10-23.7543 152.160  15
  -2   2  10 29.0492 53.6401  18
   2   2  10-28.8931 103.884  11
   2  -2 -11-32.1308 77.5485  16
  -2   2  11-0.44972 119.463   9
  -2  -2 -11 28.8833 36.7364   8
  -2   2  11-11.1842 46.4977  11
   2  -2 -11-2.90633 16.1591  17
   2   2  11-9.42291 35.4686   9
  -2   2  11 28.3906 63.0669   1
   2   2  11-8.55156 152.738  20
  -2   2  11-6.33751 29.5747  18
   2  -2 -11 15.0474 70.5177   2
  -2  -2 -11 24.6449 61.8547  16
  -2  -2 -11 60.0374 67.7395   6
   2   2  11 30.0211 32.5812  10
  -2   2  11 100.830 175.812  10
  -2  -2 -11-27.3832 25.9934   2
   2  -2 -12 886.294 279.087   2
   2  -2 -12 804.182 315.243  16
  -2  -2 -12 774.498 326.784   6
  -2   2  12 200.734 55.2601   9
  -2  -2 -12 895.222 228.623   2
  -2  -2 -12 853.801 238.520   8
   2   2  12 132.866 28.9458   9
   2   2  12 229.468 182.198  10
  -2  -2 -12 913.348 335.808  16
  -2   2  12 375.967 140.694   1
  -2   2  12 524.891 217.531  11
   2  -2 -12 691.824 222.272  17
  -2   2  12 403.372 244.410  10
  -2   2  12 466.692 162.254  18
  -2   2  13-96.4847 189.711   9
  -2  -2 -13-19.1521 58.0923   8
   2  -2 -13-98.6718 148.179   2
   2  -2 -13-58.6291 54.1422  17
  -2  -2 -13-14.7110 153.071   6
   2  -2 -13 26.2203 162.604  16
  -2   2  13-60.1023 98.3537  18
  -2  -2 -13-38.7515 19.8396  16
  -2  -2 -13 75.2858 11.0512   2
  -2   2  13-7.92999 56.9205   1
  -2   2  13-87.2016 137.227  11
   2  -2 -14 395.395 234.744   2
  -2  -2 -14 450.265 236.431   8
   2  -2 -14 379.342 173.321  17
  -2   2  14 25.1585 133.928  11
  -2   2  14 94.4622 52.5280  18
   2  -2 -14 522.203 299.181  16
  -2  -2 -14 461.632 287.071  16
  -2  -2 -14 285.495 210.435   6
  -2  -2 -14 646.923 208.691   2
  -2   2  14 111.993 76.6437   1
  -2  -2 -15 104.531 155.892  16
  -2  -2 -15-355.638 341.692   6
   2  -2 -15-131.596 136.990   2
  -2   2  15-93.0695 191.320  18
  -2  -2 -15 73.2567 101.952   8
   2  -2 -15 76.5077 92.2939  17
  -2   2  15 34.3004 54.7534   1
  -2  -2 -15-26.9499 45.9780   2
   2  -2 -15 86.1618 119.884  16
  -2  -2 -16 57.4283 136.540   8
  -2  -2 -16 83.3955 104.753  16
  -2  -2 -16 75.6342 132.607   2
   2  -2 -16 80.8838 57.6434   2
  -2   2  16-32.0851 46.9868   1
   2  -2 -16 172.199 150.966  17
   2  -2 -16 3.42710 142.854  16
   2  -2 -17 6.06819 71.2047  16
   2  -2 -17 4.20302 115.253   2
  -2  -2 -17 28.5860 108.925  16
  -2  -2 -17 148.094 233.609   8
   2  -2 -17-115.022 182.577  17
  -2  -2 -17 96.5660 138.295   2
   2  -2 -18 559.811 317.343  16
   2  -2 -18 420.497 214.446   2
  -2  -2 -18 730.349 317.627   2
   2  -2 -18 231.055 138.492  17
  -2  -2 -18 192.879 165.061   8
  -2  -2 -18 379.245 362.255  16
   2  -2 -19 149.585 107.515  16
   2  -2 -19-30.5672 77.9269   2
  -2  -2 -19-159.557 229.139  16
  -2  -2 -19-138.663 140.299   2
  -2  -2 -20 810.251 349.408   2
   2  -2 -20 364.197 246.825  16
   2  -2 -20 682.234 312.036   2
  -2  -2 -20 846.871 522.216  16
  -3   0   5 25.4619 84.4046  11
   0  -3  -5 53.4887 34.3319  16
  -3   0   5 60.9887 51.5755   1
   0   3   5 105.230 84.3093  13
   0   3   5 48.6296 43.5767   3
  -3   0   5 46.8722 55.0855  18
  -3   0  -5 81.5345 78.9740   6
   3   0  -5 65.1089 46.3423   2
  -3   0  -5 72.3057 61.5119   8
   3   0  -5 122.301 70.8753  17
  -3   0   6 13.2411 27.8016   1
   0   3   6-15.3673 14.3865  13
   3   0  -6-5.47715 18.5631  17
  -3   0   6-15.1916 83.0919  18
  -3   0  -6 71.0929 97.5990  16
  -3   0  -6-26.4231 155.325  14
  -3   0  -6 11.7591 67.6781   6
   0  -3  -6-3.18164 12.8217  16
   0  -3  -6-35.2235 72.6153   2
   3   0  -6-20.6248 81.2659   2
   0   3   6 16.1736 36.0924   3
  -3   0  -7 1614.63 416.503   6
  -3   0   7 1394.53 298.043  18
   3   0  -7 3851.55 564.778  17
   0   3   7 2588.71 314.489   3
  -3   0   7 2397.25 451.348   1
   0  -3  -7 2740.58 386.206  16
   0  -3  -7 2721.73 342.098   6
   0  -3  -7 2753.73 431.222   2
   0   3   7 2393.87 335.451  13
   0   3   7 2577.82 271.159  12
   3   0  -7 3163.18 489.933   2
  -3   0  -7 2268.75 616.281  16
   0  -3  -8 8.24212 41.9311  17
   0   3   8 12.2649 38.5409  18
   0   3   8 6.03566 18.9369   3
  -3   0  -8-34.4520 148.299   6
   0   3   8 30.5539 31.8926  12
   0  -3  -8-12.3266 45.3102  16
   3   0  -8 47.2191 102.201  17
   0  -3  -8 8.58472 45.7431   6
   3   0  -8-70.4162 129.614   2
   0  -3  -8 42.3661 70.4977   2
  -3   0  -8-124.771 190.021  16
   0  -3  -9 19.0707 18.7616   2
   0   3   9 26.2400 30.1549  11
   3   0  -9-14.9324 127.944   2
  -3   0  -9-30.2611 47.8300  16
  -3   0  -9-194.206 272.890   6
   0  -3  -9-15.7038 58.0235   6
   0  -3  -9-18.8893 29.3600  16
   0   3   9 100.544 163.462   7
   0   3   9 63.0473 88.8844  15
   0  -3  -9 11.4621 35.5746  17
   0   3   9 8.43126 15.1155  18
   3   0  -9 10.6935 24.8868  17
   0   3  10 32.6425 91.2248  15
   3   0 -10-68.6383 146.134   2
   0   3  10-3.72213 18.2012  18
  -3   0 -10-0.66843 177.357  16
   0   3  10-13.7750 25.4313  11
   0   3  10 76.0942 109.583   7
   3   0 -10-32.7687 99.3357  17
   0  -3 -10 22.4104 40.3061  17
   0  -3 -10 25.8314 73.7996   6
   0  -3 -10-63.5149 87.3658   2
   0   3  10 16.7544 38.7646  20
   0  -3 -10-3.72051 45.0216  16
   0   3  11-52.9293 157.521   7
   0   3  11 65.6954 111.296  10
   3   0 -11-35.4503 170.091  17
  -3   0 -11-94.3470 177.899  16
   0  -3 -11 3.68913 56.9215   2
   0   3  11 31.0184 30.1228  11
   0   3  11-105.695 185.111  15
   0  -3 -11-1.42336 42.9964  16
   3   0 -11-33.5507 134.897   2
   0  -3 -11 34.2690 53.0054  17
   0   3  11 22.0239 22.0768  18
   0  -3 -11 59.8740 116.571   6
   0   3  11 102.573 88.3916  20
   3   0 -12-64.3761 133.888   2
   0  -3 -12 44.3560 77.5304  17
   0  -3 -12 22.9987 24.0643  16
   0  -3 -12 78.4727 102.193   2
   0   3  12 106.629 173.426   9
   0   3  12-51.9992 115.312  20
   0   3  12-9.40331 18.5659  18
   0   3  12-19.5892 126.151  10
  -3   0 -12 45.6080 48.6267  16
   0   3  12-40.0672 30.7151  11
   0  -3 -12 61.7488 104.369   6
   0   3  13 258.344 25.9525  20
   0  -3 -13 528.971 231.047  16
   0   3  13 328.704 126.146  18
   0  -3 -13 264.960 72.2280   6
   0  -3 -13 550.637 180.336  17
  -3   0 -13 663.895 530.423  16
   0   3  13 339.282 141.295  11
   0   3  13 153.346 106.492  10
   0   3  13 338.369 200.047   9
   0  -3 -13 434.533 188.704   2
   0   3  14 97.7705 142.463   9
   0   3  14-237.918 314.591  20
  -3   0 -14 61.6461 71.1024  16
   0   3  14-21.7141 53.1089  18
   0  -3 -14-6.25922 32.7646   2
   0  -3 -14 88.2155 106.996   6
   0   3  14-17.2895 33.6847  10
   0  -3 -14 16.7939 146.527  16
   0   3  14-52.5043 92.1239  11
   0  -3 -14-22.3096 46.2926  17
   0  -3 -15 183.867 173.451  16
   0  -3 -15 241.640 118.231   8
   0   3  15 83.6139 27.5710   9
   0  -3 -15 235.434 152.588   2
   0   3  15 13.9875 104.040  18
   0   3  15 67.0242 62.4828  11
   0  -3 -15 351.318 189.993  17
   0   3  15 90.9535 158.587  10
   0  -3 -15 223.939 251.438   6
   0   3  16-8.71648 18.9243  10
   0  -3 -16-1.24240 109.016   2
   0  -3 -16-401.915 313.956   6
   0   3  16-111.243 225.174   9
   0  -3 -16-48.5314 122.426  17
   0   3  16-116.258 201.035  18
   0   3  16-119.859 210.489  11
   0  -3 -16-39.4922 59.7872  16
   0  -3 -17 227.891 190.082  16
   0  -3 -17 129.426 125.223   2
   0  -3 -17 344.757 186.524  17
   0  -3 -18 125.791 143.171   2
   0  -3 -18 46.1773 100.178  16
   0  -3 -18 149.800 13.3081  17
   0  -3 -19 907.064 436.470  16
   0  -3 -19 563.322 175.760  17
   0  -3 -19 910.561 391.118   2
   0  -3 -20 120.134 141.039  16
   0  -3 -20 171.524 228.904   2
   3  -1  -4 322.528 99.1622   2
   1   3   4 369.130 131.918   3
  -1   3   4 433.686 180.428  13
  -3  -1  -4 305.691 108.383   6
   1   3   5 390.446 125.877   3
  -3  -1  -5 479.168 153.041   6
   1   3   5 472.207 180.969  13
   1  -3  -5 265.512 122.826  16
  -1  -3  -5 427.376 164.216  16
  -1  -3  -5 348.840 119.034   6
  -1   3   5 453.989 153.934  13
  -3   1   5 517.371 154.803  11
   3   1   5 392.849 173.786   7
   3  -1  -5 354.435 121.217  17
   3   1   5 494.462 199.041  15
  -3   1   5 366.760 112.687  18
  -3  -1  -5 418.355 143.800   8
  -3   1   5 367.017 113.469   1
   1  -3  -5 253.843 126.141   2
   3  -1  -5 429.176 128.820   2
  -3   1   6 909.773 189.321  18
  -3   1   6 918.094 191.472   1
   1  -3  -6 905.883 215.648  16
  -1   3   6 1031.98 210.732  18
  -1  -3  -6 1081.22 214.486   6
   3   1   6 472.759 206.280   4
   3  -1  -6 1060.14 219.525   2
   1   3   6 1007.36 198.451   3
   1  -3  -6 878.356 234.665  17
  -3  -1  -6 1046.77 260.294   6
   3   1   6 1126.83 322.507   7
   3  -1  -6 1279.14 252.307  17
  -1  -3  -6 1054.11 254.795  16
   1  -3  -6 891.341 246.294   2
  -3  -1  -6 1085.34 249.993  16
   3   1   6 887.108 279.214  15
  -1   3   6 999.973 222.318  13
   1   3   6 963.362 171.118  12
  -1   3   6 965.280 177.790   3
  -3  -1  -6 1102.14 258.184   8
   1   3   6 1055.22 248.729  13
  -3   1   6 719.456 240.250   9
   3   1   6 778.663 230.108  20
  -3   1   6 1076.99 234.750  11
   3   1   7 133.554 115.976  15
   1  -3  -7 304.839 135.021  16
  -1  -3  -7 289.611 149.224   2
   1   3   7 294.868 99.3402  12
   3  -1  -7 383.356 148.763  17
  -1  -3  -7 310.580 117.743   6
  -3  -1  -7 371.243 174.270  14
  -1  -3  -7 312.148 135.996  16
  -1   3   7 263.876 93.4177   3
  -1   3   7 279.852 93.9670  18
   3   1   7 190.094 109.812   7
  -3  -1  -7 294.014 133.802  16
  -1   3   7 265.388 117.822  13
   1   3   7 211.799 113.377  13
   3  -1  -7 343.109 161.573  16
   3   1   7 209.998 154.594  10
  -3   1   7 214.992 102.416  18
   1  -3  -7 272.662 125.570  17
  -3  -1  -7 363.536 169.619   8
  -3   1   7 303.041 121.703   1
   3  -1  -7 296.401 122.723   2
  -3   1   7 229.760 109.372  11
   1  -3  -7 296.165 125.671   2
   1   3   7 265.195 108.501   3
  -3  -1  -7 278.569 128.535   6
  -3   1   7 270.521 164.894  10
  -3   1   7 205.303 129.995   9
   1   3   8 795.039 192.253   3
  -1   3   8 883.665 182.948  18
   3  -1  -8 1067.39 205.087   5
   1   3   8 747.347 176.291  12
   3  -1  -8 995.923 249.363   2
  -1  -3  -8 855.674 239.479  16
  -3   1   8 897.557 245.991  11
  -3   1   8 733.528 206.464   1
  -1  -3  -8 977.491 250.877   2
   3  -1  -8 848.592 285.923  16
  -3   1   8 321.807 64.6223   9
  -3  -1  -8 865.951 278.553  16
   3  -1  -8 996.644 255.734  17
   1  -3  -8 947.113 243.133   2
  -3  -1  -8 935.510 303.119   6
  -1  -3  -8 932.181 231.760   6
  -1   3   8 757.460 180.518   3
  -3  -1  -8 877.032 288.615   8
   1  -3  -8 769.480 193.318  17
  -3   1   8 698.658 198.734  18
   1  -3  -8 845.140 225.837  16
  -3  -1  -8 856.939 350.763  14
   1  -3  -8 840.105 198.783   6
  -1   3   9 257.309 101.156  18
   1  -3  -9 290.514 134.001   6
  -1   3   9 353.446 199.053  15
  -1   3   9 364.814 146.042  11
  -3  -1  -9 353.496 190.692  16
  -3   1   9 253.510 132.127  11
   1   3   9 374.828 114.345  11
  -1  -3  -9 397.210 163.304   2
  -3   1   9 262.002 123.659   1
   1  -3  -9 282.780 147.564  16
  -3  -1  -9 307.330 186.187   6
  -1  -3  -9 338.660 153.113   6
   3  -1  -9 318.057 207.651  16
  -3  -1  -9 106.862 289.085  14
   1  -3  -9 277.254 153.793   2
  -3  -1  -9 422.541 204.570   8
  -1  -3  -9 412.319 180.724  16
   3  -1  -9 387.784 168.531  17
   1  -3  -9 315.991 139.393  17
  -3   1   9 260.683 136.837  18
   3  -1  -9 467.466 188.022   2
  -1   3   9 440.215 221.412   7
  -3  -1 -10 54.7413 105.539   6
  -3   1  10-12.4684 14.9420   1
   1  -3 -10 64.6293 79.6919   2
  -3   1  10-10.7345 87.5848  11
   1  -3 -10 35.2087 44.9842  16
   3  -1 -10 49.7148 58.2243  17
  -1  -3 -10 61.5453 52.0973   2
  -3  -1 -10 37.9585 24.3436  16
  -1  -3 -10 27.1644 27.5116  17
   1   3  10 252.557 211.953  15
   1  -3 -10 7.90223 102.937   6
  -1   3  10 32.9397 34.4660  11
  -1   3  10 60.0813 116.914  10
  -3  -1 -10-31.5308 61.1340   8
   3  -1 -10 100.122 116.985   2
   1   3  10 80.1161 55.6136  11
  -1   3  10 45.4443 112.364   7
   1   3  10 130.355 146.026  20
   1   3  10 174.901 129.000   7
  -1   3  10 53.0353 63.0535  20
  -3   1  10-3.14534 49.6823  18
  -1   3  10 76.9616 58.7520  18
   1   3  10 6.48800 33.0025  18
   3  -1 -10 59.2943 132.890  16
  -1   3  10-76.2011 150.249  15
   1  -3 -10 23.1154 29.5895  17
  -1  -3 -10 87.0411 96.8706   6
  -1  -3 -10 42.6841 90.5720  16
   3  -1 -11 65.7376 107.626   2
   1   3  11 98.6903 137.256  20
  -3  -1 -11 100.971 145.848  16
  -1   3  11 46.2090 158.973  20
  -3   1  11-47.4219 94.1453  18
   3  -1 -11 64.1790 167.797  16
   1   3  11 92.0674 141.715   7
  -3   1  11 30.3602 23.0672   1
   1  -3 -11 40.1905 48.0480  16
  -1  -3 -11 44.8849 70.5284   2
   3  -1 -11 27.6997 59.6406  17
  -1  -3 -11 12.4168 45.8298  17
  -1   3  11-24.8349 58.3139  18
  -1  -3 -11 195.379 150.126  16
  -3  -1 -11-135.826 179.403   2
   1   3  11-33.0566 83.3819  10
   1   3  11 102.170 137.063  15
  -1   3  11 56.9637 124.797  10
   1  -3 -11-23.4920 61.3578   6
   1  -3 -11 29.3058 81.6713   2
  -1   3  11 26.7202 16.8645  11
  -3  -1 -11 70.2004 124.844   8
   1   3  11 3.10239 21.7082  11
   1   3  11 14.0171 11.2414  18
  -1  -3 -11-43.8624 54.2957   6
  -3  -1 -11 67.2014 50.7098   6
   1  -3 -11 44.1838 52.5531  17
  -1   3  12 65.2286 100.257  10
  -1   3  12 105.707 77.3322  11
   1   3  12 111.146 135.110  20
   1   3  12 122.143 77.9289  18
  -1  -3 -12 98.3538 23.1769   2
  -3  -1 -12 2.26156 154.061   8
  -1   3  12 146.931 87.0678  18
  -3   1  12 67.2190 57.0709   1
  -1  -3 -12 77.4777 60.0845   8
  -3   1  12-123.896 162.125  18
  -1  -3 -12 134.098 85.7590  16
   3  -1 -12 236.868 173.078  17
   1   3  12 57.4621 88.0691  15
  -3  -1 -12-116.360 267.852   6
   1  -3 -12 163.400 142.139   6
   1   3  12 165.406 143.235   9
  -3  -1 -12 67.6085 117.100   2
   1   3  12 124.683 164.425  10
  -1  -3 -12 167.936 86.9313  17
  -3  -1 -12 24.7865 98.9036  16
   3  -1 -12 172.147 143.060   2
   1   3  12 130.855 92.8720  11
   3  -1 -12 141.102 169.355  16
  -1   3  12 175.741 151.713   9
  -1  -3 -12 95.9384 87.6985   6
   1   3  12 122.278 177.326   7
   1  -3 -12 164.629 93.1383  17
   1  -3 -12 126.905 69.7266  16
   1  -3 -12 139.009 103.966   2
  -1   3  12 148.730 181.254  20
  -1  -3 -13-132.885 123.756   2
  -1  -3 -13 4.73102 88.1088  17
   1  -3 -13 46.0830 91.4456  16
   1   3  13 19.4953 73.8637  18
   1   3  13-103.439 133.346  10
  -1   3  13-11.8354 68.2555  18
   1   3  13-23.0602 199.081  20
   3  -1 -13 54.0258 60.0063  17
   1   3  13 4.95949 22.2390   9
  -3  -1 -13-192.391 313.101   8
  -3  -1 -13-52.5765 96.2909   2
  -1   3  13-74.5259 89.8377  11
  -1  -3 -13-30.6019 84.5063  16
  -1  -3 -13-128.937 98.6797   8
  -3  -1 -13 164.436 239.937  16
   1  -3 -13-41.6264 16.4105   2
  -1   3  13 18.8987 25.0844   9
  -3  -1 -13-422.296 429.713   6
   3  -1 -13 217.468 197.165  16
  -3   1  13-53.7175 71.0219   1
   1  -3 -13 143.496 359.345   6
   1   3  13-48.8005 98.1489  11
  -1   3  13-82.2115 166.688  20
  -1   3  13 12.9127 41.5484  10
  -1  -3 -13-60.6002 55.1649   6
   3  -1 -13-17.7580 114.815   2
   1  -3 -13 76.4028 98.7274  17
   1  -3 -14 361.959 163.305  17
  -1   3  14-459.423 305.292  20
  -1  -3 -14 486.543 171.663  17
  -1   3  14 124.818 70.3816   1
   3  -1 -14 245.102 164.282   2
  -1  -3 -14 498.417 151.722   8
  -1   3  14 114.305 134.182  10
  -3   1  14 110.164 83.2093   1
   1   3  14 19.4817 122.618  18
  -1  -3 -14 360.058 255.383   6
  -1   3  14 195.534 119.197  11
   1  -3 -14-247.086 367.005   6
  -1   3  14 189.808 154.003   9
  -1  -3 -14 386.636 202.026  16
  -1  -3 -14 411.182 187.284   2
   1   3  14 286.248 240.204  10
   1   3  14 93.4600 89.9905   9
   1   3  14 102.815 142.326  20
  -1   3  14 194.255 110.505  18
   1  -3 -14 301.028 191.954  16
  -3  -1 -14 506.590 177.970   2
  -3  -1 -14 180.579 291.275  16
   3  -1 -14 489.991 242.175  17
   1  -3 -14 381.827 212.332   2
   1   3  14 74.1160 83.3310  11
   3  -1 -14 451.797 299.041  16
   1  -3 -15-322.326 481.589   6
  -1  -3 -15 129.449 128.634   6
  -1   3  15 210.771 122.459  18
  -1  -3 -15 437.127 241.376  16
  -1  -3 -15 437.000 190.445  17
  -3   1  15 30.2975 76.2373   1
   1  -3 -15 358.581 182.281   2
  -1  -3 -15 342.222 131.669   8
   3  -1 -15 575.982 363.705  16
   1   3  15 62.6712 20.1336   9
  -1   3  15 328.237 269.273  10
  -3  -1 -15 431.894 351.186  16
   3  -1 -15 313.296 196.352   2
   1  -3 -15 305.024 177.815  17
  -1   3  15 221.179 142.632  11
   1   3  15 88.1401 102.078  11
  -1  -3 -15 446.546 182.178   2
   3  -1 -15 335.061 136.057  17
  -1   3  15-22.1061 153.236   9
   1  -3 -15 404.889 277.676  16
  -3  -1 -15 452.168 204.633   2
   1   3  15 240.453 190.587  10
   3  -1 -16 34.0957 213.688  16
   1  -3 -16 69.4464 124.116  16
  -1  -3 -16 108.440 55.3199   2
  -1  -3 -16 26.8362 79.3362  17
   1   3  16-45.2769 124.746  10
  -1   3  16 82.4931 103.426  10
  -1   3  16-87.1004 129.468  11
   3  -1 -16 59.2610 157.957   2
   1  -3 -16 100.106 110.083  17
   1   3  16-229.393 258.371   9
  -3  -1 -16 103.429 233.926  16
  -1  -3 -16 0.51619 88.4754   6
  -1   3  16-10.1815 74.4986  18
  -1   3  16-112.275 242.856   9
   1  -3 -16 70.1157 99.2025   2
  -1  -3 -16 181.449 157.580   8
  -3  -1 -16 6.63402 28.8211   2
  -1  -3 -16 97.8720 126.173  16
  -1  -3 -17 474.016 320.441  16
  -1  -3 -17 269.919 244.337   2
  -3  -1 -17 327.943 199.471   2
   3  -1 -17 97.0155 127.759   2
  -3  -1 -17 434.484 354.542  16
   3  -1 -17-43.1710 123.486  16
  -1  -3 -17-170.823 368.737   6
  -1   3  17-29.8522 168.988  18
   1  -3 -17 194.092 145.810   2
   1  -3 -17 237.176 144.570  17
  -1  -3 -17 143.469 79.8862  17
   1  -3 -17 151.006 145.193  16
  -1   3  17-353.097 241.084   9
   1  -3 -18 901.718 409.415  16
   3  -1 -18 692.411 308.069   2
   1  -3 -18 1038.64 360.779   2
  -1  -3 -18 1190.09 405.370   2
  -3  -1 -18 1175.72 570.238  16
  -1  -3 -18-388.067 701.849   6
   1  -3 -18 953.014 306.009  17
   3  -1 -18 986.883 504.198  16
  -1  -3 -18 858.305 426.122  16
  -3  -1 -19 250.780 351.826  16
   1  -3 -19 53.7728 83.8788  17
  -1  -3 -19 131.447 268.647  16
   1  -3 -19-232.650 294.703  16
   1  -3 -19 220.785 230.802   2
   3  -1 -19 163.027 185.097   2
  -1  -3 -19 300.147 310.618   2
  -1  -3 -20 1438.13 448.870   2
   1  -3 -20 1088.53 414.429   2
   1  -3 -20 709.618 135.085  17
  -1  -3 -20 1305.77 580.295  16
  -3  -1 -20 1381.02 804.424  16
   1  -3 -20 940.775 449.548  16
   2   3   3 269.148 132.253   3
  -2   3   3 379.932 202.133  13
   3  -2  -3 239.552 124.055   2
  -3  -2  -3 331.264 111.018   6
  -2  -3  -3 140.549 50.0112   6
   3  -2  -4 123.308 81.7973  17
  -2   3   4 95.9318 92.5943  13
   2   3   4 135.779 70.5707  12
   3   2   4 113.094 59.0176   3
  -2   3   4 119.932 68.0191  18
   2  -3  -4 17.4352 86.4897   2
  -3   2   4 113.702 79.7863   1
  -3   2   4 87.7336 56.6189  18
   3  -2  -4 132.871 79.9671   2
  -3  -2  -4 136.671 68.7678   6
   3   2   4 103.288 55.1351  12
   2   3   4 124.514 68.2890   3
  -2  -3  -4 105.324 65.4388   6
  -2  -3  -5 1026.00 281.562  16
  -3  -2  -5 1110.50 231.848  16
   2   3   5 1073.65 219.034   3
  -3   2   5 921.674 189.012  18
   3  -2  -5 830.724 219.982  17
   2  -3  -5 652.715 203.295   2
  -2  -3  -5 993.420 211.792   6
   3  -2  -5 793.439 192.641   2
   2   3   5 949.224 181.722  12
  -3  -2  -5 1033.58 208.271   6
   2  -3  -5 641.302 237.606  17
  -3  -2  -5 899.094 166.729   8
  -3   2   5 877.157 212.030   1
   2  -3  -5 815.520 210.558  16
   3   2   5 850.705 178.947   3
   3   2   5 726.025 174.141  12
  -2   3   5 1088.05 263.657  18
  -2   3   5 1119.90 236.594  13
  -3  -2  -6 406.709 115.021   8
   3  -2  -6 415.061 134.153   2
  -3  -2  -6 466.086 152.054   6
  -3  -2  -6 417.254 142.158  16
  -2  -3  -6 439.278 139.508   6
  -2   3   6 394.648 133.515  13
  -2  -3  -6 400.108 154.973  16
   2   3   6 332.225 159.420  13
   2   3   6 332.489 120.276   3
  -2   3   6 361.270 107.601   3
  -2   3   6 387.780 136.895  18
   2  -3  -6 366.073 166.455  17
   3   2   6 344.098 114.165   4
   2  -3  -6 349.686 141.126  16
  -3   2   6 353.393 118.547  18
  -3   2   6 255.142 110.624   1
  -3   2   6 416.350 147.025  11
   2   3   6 388.397 115.435  12
   3  -2  -6 248.250 124.872  17
   2  -3  -6 344.556 162.575   2
  -3   2   7 4536.39 640.470  20
   2  -3  -7 3736.97 485.574  17
   2  -3  -7 4014.18 496.138   2
  -3   2   7 4318.94 537.063  10
  -3  -2  -7 4385.20 406.738  14
  -3  -2  -7 4301.09 420.063   8
   3  -2  -7 4082.20 463.832  17
  -2   3   7 3973.75 358.658   3
  -3   2   7 3729.52 410.701   1
   2  -3  -7 3746.05 429.740  16
   3   2   7 4171.31 531.905  20
  -3  -2  -7 4719.56 530.070  16
   2   3   7 3458.24 400.074   3
   3  -2  -7 3816.33 406.277  16
  -3  -2  -7 4759.09 516.075   6
   3   2   7 3401.58 390.804  10
   2   3   7 3741.96 386.796  12
  -2  -3  -7 4398.24 531.730  16
  -2   3   7 3728.40 419.940  13
   3   2   7 3649.88 503.928   4
   3  -2  -7 3977.86 442.323   2
  -2  -3  -7 4564.29 476.344   6
  -3   2   7 3575.57 388.480  18
  -3   2   7 4288.21 483.638  11
   2   3   7 3384.81 439.445  13
  -2   3   7 3836.69 410.882  18
   2  -3  -8-12.1598 29.4915   2
   3   2   8 39.7268 7.35228  10
   3   2   8 0.04895 108.747   7
  -3  -2  -8 31.0148 52.1793  16
  -2  -3  -8 14.4188 3.25659   8
  -2   3   8 12.4361 37.5235   3
   3  -2  -8 18.0523 16.9277  17
   3   2   8 66.7620 135.928  15
  -3   2   8-1.83348 33.5678  18
  -3   2   8-70.2501 132.266  20
  -3  -2  -8-27.6345 25.0310  14
   3  -2  -8-6.29769 27.7969  16
   2   3   8 8.57194 54.0887  12
   3   2   8 28.6299 80.9132   9
  -3   2   8 41.0800 76.0223  10
  -3   2   8-53.0007 58.3779   1
  -2  -3  -8 6.33303 46.5123   6
  -3   2   8 134.857 158.976   9
  -2  -3  -8-36.7733 85.1715  16
   2   3   8 35.8879 60.1519   3
   3   2   8-54.8767 167.619   4
   3   2   8-3.59042 35.9395  19
   2  -3  -8 39.7191 58.4422  16
   2  -3  -8 30.2324 47.1645  17
  -2   3   8-9.12716 45.5124  18
  -3  -2  -8-3.33587 58.9697   6
   3  -2  -8-3.13455 33.6714   2
  -3   2   8-4.18020 36.1839  11
   3   2   8 39.9802 95.0408  20
  -3  -2  -8-20.8786 58.0915   8
   2   3   8 42.1615 79.1634  13
  -2  -3  -9 734.820 228.185  16
  -3   2   9 615.293 180.899   1
  -2   3   9 578.639 157.276  18
  -3   2   9 651.135 245.309  10
  -2   3   9 938.727 322.064  20
   3   2   9 601.927 275.835  15
  -2   3   9 990.837 327.780   7
  -2   3   9 472.421 171.364   1
   3  -2  -9 578.994 199.903  16
  -3  -2  -9 693.536 192.186   8
   3   2   9 329.054 116.946  19
  -3   2   9 582.338 175.689  18
   2  -3  -9 665.230 210.679  16
   3  -2  -9 735.154 215.554   2
  -3   2   9 768.513 223.672  11
   3   2   9 625.744 192.562   9
   3   2   9 778.219 297.111   7
   3   2   9 623.542 203.767  10
   2  -3  -9 710.443 210.710   2
  -2  -3  -9 930.356 254.666   6
   3  -2  -9 753.049 217.282  17
   3   2   9 644.159 246.120  20
  -2  -3  -9 882.103 222.215   2
   2   3   9 780.056 151.589  11
  -3  -2  -9 818.873 245.572  14
  -3  -2  -9 787.639 265.026   6
  -3   2   9 789.726 287.223   9
   3  -2  -9 728.782 165.466   5
  -3   2   9 551.435 247.995  20
   2  -3  -9 759.885 213.619  17
  -2   3   9 720.078 211.463  11
  -3  -2  -9 772.076 253.884  16
  -2  -3  -9 719.123 155.762   8
  -2   3   9 890.885 289.666  15
   3   2  10 241.173 129.376   9
   3   2  10 308.018 147.147  10
   2  -3 -10 375.973 155.795  16
   3   2  10 272.686 185.664  15
   2  -3 -10 215.584 167.025   6
  -2  -3 -10 589.475 184.797   2
  -3  -2 -10 432.656 167.623   8
  -3   2  10 255.894 184.154  10
  -2   3  10 361.876 186.845  20
   2   3  10 431.917 192.496  10
   2   3  10 521.766 264.521   7
  -2   3  10 485.638 173.215  11
   3   2  10 323.631 125.896   7
   3  -2 -10 509.106 186.958   2
   2   3  10 612.270 274.010  15
   2   3  10 530.561 224.392  20
  -2  -3 -10 430.708 179.236  16
   3  -2 -10 447.250 165.819  17
  -3   2  10 358.544 204.701   9
   2  -3 -10 447.978 184.718   2
  -2  -3 -10 434.681 130.692   8
   3   2  10 445.918 199.639  20
  -2   3  10 370.182 126.756  18
  -3  -2 -10 479.186 223.480   6
  -2  -3 -10 369.567 148.547   6
  -2   3  10 426.698 220.569  10
  -3  -2 -10 419.895 198.288  16
  -3   2  10 356.993 169.133  11
   3  -2 -10 463.285 203.124  16
  -2   3  10 294.760 133.473   1
   3  -2 -10 496.222 143.368   5
  -3  -2 -10 602.194 245.239  14
   2  -3 -10 419.347 162.803  17
  -3   2  10 282.876 129.983   1
   2   3  10 489.448 132.997  11
  -3   2  10 396.125 158.803  18
  -3   2  11 40.0728 71.6972  11
  -3   2  11-4.43516 79.8412   9
   3   2  11-42.3142 122.629   9
  -3   2  11-4.30161 25.0843  10
  -3  -2 -11 63.5876 77.4355   8
  -2   3  11 92.6278 79.5535  11
  -3  -2 -11 99.9055 88.4933  16
   2   3  11 137.866 221.509  15
   3   2  11 3.98403 161.305  20
  -3   2  11 53.9610 51.1542   1
   2  -3 -11 84.7078 80.1804  16
  -3  -2 -11 7.55117 160.117  14
   2   3  11 103.414 193.162   7
  -3  -2 -11 173.778 98.3870   2
  -2   3  11 51.9842 62.5895   1
   3  -2 -11 77.7170 66.8594   5
  -2  -3 -11 109.163 199.011   6
   2  -3 -11 73.0624 20.7719   6
  -2   3  11 69.1582 75.3010  18
   3  -2 -11 57.9941 77.8783   2
  -2  -3 -11 81.5870 137.803  16
  -2   3  11 75.6124 114.382  10
  -2  -3 -11 60.4925 77.3448   2
   3  -2 -11 178.084 144.945  16
  -2   3  11 7.41871 54.6220  20
  -3  -2 -11 127.953 155.844   6
   3   2  11-83.2097 119.666  10
   2  -3 -11 46.4777 45.1019  17
   3  -2 -11 141.833 126.160  17
   2   3  11 113.119 250.653  20
  -3   2  11 1.85499 37.0770  18
  -2  -3 -11 98.7859 69.0941  17
   2   3  11 65.2358 73.3384  11
   2   3  11 88.9149 104.855   9
   2  -3 -11 107.541 94.4051   2
  -2  -3 -11 65.8467 86.6304   8
   2   3  11 183.946 207.242  10
  -2  -3 -12 93.3308 84.2616   2
   2   3  12 21.8161 18.4704  15
  -3  -2 -12 81.9237 80.0392   2
   2   3  12-17.2375 85.6427  20
  -3   2  12 109.385 73.0235   1
  -3   2  12-140.203 197.826   9
   2   3  12 35.9289 179.372   7
   3  -2 -12 54.8876 56.9354   5
   2  -3 -12 55.3232 86.6433  16
   2   3  12-8.10949 60.2810  18
  -3   2  12 18.2009 53.1904  11
   2   3  12 78.6762 55.6204  11
  -3  -2 -12 95.4609 151.816  16
   2  -3 -12-10.9618 63.9748   2
   2   3  12 110.175 133.503   9
   3  -2 -12 39.5557 73.5546   2
   2  -3 -12 73.9075 90.6866  17
   3  -2 -12-6.88012 126.517  16
   3  -2 -12 42.6078 24.4146  17
   3   2  12-38.2258 126.630  10
  -3  -2 -12 45.2047 160.309   6
   2   3  12-74.9434 103.519  10
  -2   3  12-15.5620 110.474  20
  -2   3  12 37.2377 83.8410   9
  -2  -3 -12 37.0228 13.5188   8
  -3   2  12-9.51642 18.9059  18
  -3   2  12-163.829 193.196  10
   2  -3 -12 79.5744 185.076   6
  -2  -3 -12 64.7173 39.3217  17
  -2  -3 -12 111.441 102.709   6
  -2  -3 -12 157.902 152.707  16
  -2   3  12-34.3761 46.3694  18
  -2   3  12 42.0242 68.9256  10
  -2   3  12 41.4680 56.9366   1
  -3  -2 -12 55.6528 90.2900   8
  -2   3  12 30.9756 41.8181  11
   2  -3 -13 152.476 174.723   2
   2  -3 -13 380.357 200.063  17
   2  -3 -13 110.078 153.920  16
  -2  -3 -13 588.282 436.576   6
  -3  -2 -13 386.167 292.825  16
   3  -2 -13 207.264 107.878  16
  -2  -3 -13 210.851 238.894   2
  -2  -3 -13 376.816 237.474   8
  -3   2  13 61.5938 51.3967  18
  -3  -2 -13 196.253 141.305   6
   2   3  13 581.748 384.677  10
  -3   2  13 156.109 122.868   1
   3  -2 -13 123.989 79.5950   5
  -3  -2 -13-185.360 128.314   8
  -3  -2 -13 158.325 137.701   2
  -2   3  13 144.416 136.157  11
  -3   2  13-28.4410 304.922   9
  -2   3  13 135.954 102.645   1
   2   3  13-88.8960 214.427  20
  -2   3  13 116.032 108.886  18
  -3   2  13 45.5545 59.5315  11
   3  -2 -13 25.4880 37.8435  17
   3  -2 -13 132.488 130.826   2
  -2   3  13 126.737 124.668   9
  -2   3  13-171.417 304.245  20
  -2  -3 -13 980.942 426.246  16
   2   3  13 505.767 317.842   9
   2   3  13 93.1710 132.283  11
  -2   3  13 105.905 209.260  10
   2   3  14 275.409 241.693  20
   2  -3 -14 171.733 140.921  17
  -2  -3 -14 73.0567 43.1694  17
  -2  -3 -14 39.2826 79.7057   2
  -3  -2 -14 135.589 146.704   8
   3  -2 -14 28.0868 39.3590   5
   2   3  14-125.251 151.162  11
  -2  -3 -14-15.4760 95.9401  16
  -3  -2 -14 101.184 88.4766   2
  -3  -2 -14 225.666 221.124  16
   2  -3 -14 16.2971 18.4803  16
  -2   3  14 55.9748 131.532   9
   2   3  14 44.5227 84.8565   9
   2  -3 -14-53.1298 89.2135   2
  -2  -3 -14 10.9892 42.8026   8
  -3   2  14 58.4279 78.0691   1
  -2   3  14 29.3906 40.2619  18
  -2  -3 -14 56.1763 80.6052   6
  -2   3  14-6.47394 3.78915   1
  -3   2  14-82.9693 178.357  11
   2   3  14 14.4386 51.0761  19
   3  -2 -14 75.1732 89.7202  17
  -3  -2 -14-11.7069 112.202   6
   3  -2 -14 52.7826 120.337  16
  -2   3  14 69.8532 94.8065  11
   2   3  14 128.859 175.558  10
   3  -2 -14 171.887 154.789   2
  -2   3  14 83.8044 227.176  10
  -3   2  14-29.9736 62.9218  18
  -3  -2 -15-106.726 60.7430   8
  -3   2  15 62.9070 97.2493   1
  -3  -2 -15-14.0694 106.591  16
  -3  -2 -15-160.919 93.4480   6
  -2  -3 -15-116.500 128.609  16
  -2  -3 -15-214.141 170.543  17
  -2   3  15 27.2562 64.7237   1
   2  -3 -15 148.076 150.530   2
  -2   3  15-0.37660 65.3327  18
  -2  -3 -15-5.31269 53.3665   2
   2   3  15 20.5889 87.2759  10
  -2  -3 -15 21.4564 119.646   6
   3  -2 -15 4.32485 46.3778   2
   2   3  15-107.866 169.922   9
  -2   3  15 13.2645 48.2426  11
  -2  -3 -15-69.4503 105.652   8
  -3   2  15-88.1501 158.372  18
   3  -2 -15 27.6140 64.2512   5
  -2   3  15 103.908 201.352  10
   2  -3 -15 26.6316 80.5328  17
   3  -2 -15-146.452 141.013  16
  -3  -2 -15-175.162 127.854   2
   2  -3 -15 93.5342 102.571  16
  -2   3  15 32.8129 104.611   9
   3  -2 -15 65.1160 112.481  17
   2  -3 -16 484.375 228.160   2
  -2   3  16 152.996 35.9391  10
   2   3  16 64.3622 113.374  10
   3  -2 -16 508.385 268.770   2
  -3   2  16 42.5063 62.1830   1
  -3   2  16-86.1233 243.110  18
  -2  -3 -16 761.031 254.086   2
  -3  -2 -16 57.5847 230.864   6
  -2  -3 -16 586.590 216.305   8
  -3  -2 -16 851.667 262.334   2
  -3  -2 -16 432.817 227.745   8
   2   3  16-8.84731 244.156   9
  -2  -3 -16 169.656 97.3592   6
  -2   3  16 232.241 117.494  11
  -2   3  16 288.560 154.309  18
   3  -2 -16 390.052 282.943  16
   2  -3 -16 579.159 291.082  16
  -2  -3 -16 661.273 308.834  16
  -3  -2 -16 866.115 410.150  16
   2  -3 -16 626.520 237.326  17
  -2   3  16 64.2703 166.896   9
   3  -2 -16 574.112 247.671  17
   2  -3 -17 1451.45 387.649  17
   2  -3 -17 1240.09 399.942   2
  -2   3  17-396.154 264.908   9
   3  -2 -17 1299.40 416.661   2
   3  -2 -17 1227.02 366.270  17
  -2   3  17 299.708 71.9731  18
  -3  -2 -17 984.501 433.502  16
   2  -3 -17 993.455 417.165  16
  -2  -3 -17 1222.45 360.695   2
  -2  -3 -17 1264.12 475.743  16
  -2  -3 -17 741.718 410.247   6
  -3  -2 -17 192.418 384.814   6
  -3  -2 -17 1664.69 412.803   2
   3  -2 -17 1426.48 544.944  16
  -3  -2 -17 765.426 323.263   8
   2  -3 -18 340.223 288.026  16
  -2  -3 -18 100.621 247.422  16
  -2  -3 -18 195.472 189.566   2
   2  -3 -18 244.897 183.654   2
  -3  -2 -18 85.1606 159.312   2
  -2   3  18-86.0761 174.649  18
  -2  -3 -18-330.084 429.854   6
  -3  -2 -18 57.6065 177.453  16
   3  -2 -18 116.648 200.488   2
   2  -3 -18 20.3072 43.0630  17
   3  -2 -18 54.4120 80.0808  16
  -3  -2 -18 139.830 213.051   8
   3  -2 -18-2.73944 147.790  17
  -3  -2 -19 3010.93 581.069   2
   2  -3 -19 2194.20 500.521  17
   2  -3 -19 2373.84 595.301   2
   3  -2 -19 2354.31 593.513   2
  -2  -3 -19 738.642 398.919   6
  -2  -3 -19 2279.15 736.159  16
   3  -2 -19 1798.46 432.185  17
   2  -3 -19 2621.53 727.584  16
   3  -2 -19 1858.22 627.307  16
  -3  -2 -19 1945.73 543.404   8
  -3  -2 -19 2451.19 780.477  16
  -2  -3 -19 2756.26 584.370   2
   3  -2 -20-49.8479 211.754  16
   2  -3 -20 82.2434 160.269  16
   2  -3 -20-31.7928 105.222   2
  -2  -3 -20 274.419 190.917   2
   3  -2 -20 46.0874 35.9628   2
   2  -3 -20-7.58434 140.284  17
  -2  -3 -20 306.678 315.793  16
  -3  -2 -20 94.3964 214.797  16
  -3  -2 -20 14.4056 30.9124   2
  -3  -3  -2 49.3260 39.3391   8
   3   3   2 85.2936 66.4996  12
  -3  -3  -3 1.77668 25.1903   8
  -3   3   3 13.0793 103.656   1
   3   3   3-30.2741 33.4858   3
  -3   3   3-23.0465 25.7289  13
   3   3   3 14.8979 39.8055  12
  -3  -3  -3-14.5961 59.9528   6
  -3  -3  -3-5.90887 43.6147  14
   3   3   4 2291.48 304.838  12
  -3   3   4 1616.11 446.127   1
  -3  -3  -4 2322.28 335.612   6
   3   3   4 2751.85 391.805   3
  -3   3   4 2682.71 453.819  18
  -3  -3  -4 2291.43 306.871  14
  -3   3   4 2760.55 413.052  13
   3  -3  -4 1216.51 306.621   2
  -3  -3  -4 1940.04 271.740   8
   3   3   5 1.27079 20.8209   4
  -3   3   5 22.1464 41.6773  18
  -3   3   5 59.0473 67.3741  13
  -3   3   5-12.3577 123.093   1
   3   3   5 12.3827 35.6044  12
  -3  -3  -5 7.80777 24.7883  14
   3  -3  -5 63.2795 94.7180   2
  -3  -3  -5-6.45508 24.4189   8
   3  -3  -5-54.7394 118.603  17
  -3  -3  -5-23.9928 112.495  16
   3   3   5 22.1264 45.7598   3
   3  -3  -5-32.2750 102.988  16
  -3  -3  -5 20.5751 56.0521   6
  -3   3   6 1509.14 267.847  13
   3   3   6 1617.06 264.162  12
   3  -3  -6 1392.24 319.102  17
   3  -3  -6 1555.51 322.754   2
  -3  -3  -6 1620.49 233.172   8
  -3  -3  -6 1988.77 313.192   6
  -3  -3  -6 1799.94 238.451  14
  -3  -3  -6 1939.51 381.336  16
  -3   3   6 1960.44 327.747  18
   3  -3  -6 1422.37 264.551  16
   3   3   6 1548.52 333.399  13
   3   3   6 1593.77 275.326   3
   3   3   6 1697.87 236.740   4
  -3   3   6 1787.07 432.153   1
   3  -3  -7 22.6088 28.0289  17
   3   3   7 7.02981 33.4793   3
   3   3   7 16.9067 75.7236  12
  -3  -3  -7-43.6722 53.4118   6
   3   3   7 20.3402 27.2027   4
  -3   3   7-4.68256 40.2180  18
  -3   3   7 1.55681 22.9609   3
  -3  -3  -7 26.4583 38.9157  14
  -3  -3  -7 32.9019 84.7214  16
  -3   3   7-16.2706 88.1138   1
   3  -3  -7-29.9935 58.7552   2
   3  -3  -7 9.53950 30.3824  16
   3   3   7-14.3084 72.7963  13
  -3  -3  -7-9.74273 30.4354   8
  -3   3   7 28.5514 47.5758  13
   3   3   8 3226.14 403.419  12
   3   3   8 4000.57 461.186   4
   3  -3  -8 3756.75 515.473   2
   3   3   8 3182.74 439.372  13
  -3   3   8 5207.97 587.516  11
  -3   3   8 3597.05 519.917   1
  -3  -3  -8 4743.95 530.009   6
  -3  -3  -8 3896.97 387.373   8
  -3  -3  -8 4223.08 373.107  14
   3   3   8 3236.85 421.427   3
   3  -3  -8 4154.46 526.066  17
   3  -3  -8 3783.34 442.119  16
  -3   3   8 3827.51 436.496  18
  -3  -3  -8 4885.25 605.354  16
   3   3   8 4036.37 376.784  19
  -3   3   8 4054.38 368.981   3
   3  -3  -9 12.5577 36.9357   2
  -3   3   9 14.7415 35.9893  18
  -3  -3  -9 18.8488 45.7527  16
   3  -3  -9 16.9376 55.8836  16
  -3   3   9 40.3443 67.1150  11
   3   3   9 21.3206 106.952   4
  -3   3   9 8.87747 38.3569   1
  -3  -3  -9 27.1517 50.9447   6
   3  -3  -9 21.0544 16.6028  17
  -3   3   9 62.3375 103.465  20
  -3  -3  -9-7.65444 42.1365   8
   3   3   9 7.05870 29.5149  19
  -3  -3  -9 15.1639 40.8838  14
  -3   3  10 260.088 123.999  18
  -3  -3 -10 392.804 194.121  16
  -3  -3 -10 314.405 156.384   6
  -3   3  10 312.612 225.252  20
   3   3  10 233.745 135.627  10
  -3  -3 -10 394.764 131.353  14
   3  -3 -10 281.612 151.580   2
  -3   3  10 240.946 126.101   1
  -3   3  10 280.489 144.417  11
   3   3  10 276.325 128.637  20
  -3  -3 -10 285.046 96.5593   8
   3  -3 -10 291.901 132.340   5
   3  -3 -10 294.506 151.234  17
   3   3  10 265.052 92.8827  19
   3   3  10 121.100 114.817   4
   3   3  10 514.512 290.285   7
   3   3  10 296.147 209.118  15
   3  -3 -10 296.829 163.197  16
  -3  -3 -10 505.196 182.448   2
  -3   3  10 238.936 182.014  10
  -3   3  11 24.7300 62.4872  18
  -3  -3 -11-61.5851 87.6169  16
   3  -3 -11 66.2017 105.940  17
  -3  -3 -11-32.4528 22.9805   8
   3   3  11 104.809 168.868   7
   3   3  11 20.5893 68.4919  10
   3   3  11 96.5043 114.160   9
  -3   3  11 92.9352 136.332  11
   3  -3 -11 27.3751 56.1255   5
  -3   3  11-19.1474 17.0052   1
   3  -3 -11-25.1523 11.7290   2
  -3  -3 -11-26.6181 63.7649   2
  -3  -3 -11 3.90474 54.1582  14
   3   3  11-27.5708 53.3054  11
   3   3  11 49.8994 125.195  20
  -3   3  11 38.8826 136.090   9
   3   3  11-78.7960 153.153  15
   3  -3 -11-182.575 251.906   6
  -3  -3 -11 22.6396 34.0041   6
  -3   3  11-1.43430 28.0779  10
   3   3  11-3.26667 21.2809  19
  -3   3  11-36.9278 41.4178  20
   3  -3 -11-19.9900 23.1911  16
  -3   3  12 142.333 106.610  11
   3   3  12 176.640 213.654  15
  -3  -3 -12 155.195 148.920   6
   3   3  12 107.300 42.2933  19
  -3  -3 -12 18.6417 144.315  14
   3   3  12 57.9771 72.7711  10
   3   3  12 115.706 129.839   9
   3   3  12-40.8429 18.0447  20
  -3  -3 -12 99.9739 73.7553  16
   3  -3 -12 149.021 111.333   2
   3  -3 -12 189.849 107.553  17
  -3   3  12 132.976 150.601  10
  -3   3  12-85.8428 211.966  20
   3  -3 -12 100.532 58.6198  16
  -3   3  12 121.121 103.933  18
  -3   3  12 357.338 243.512   9
  -3  -3 -12 163.471 90.5102   8
   3   3  12-9.52777 168.202   7
   3   3  12-20.2894 112.430  11
  -3   3  12 105.485 103.391   1
   3  -3 -12 171.695 107.269   5
  -3  -3 -12 133.624 59.7117   2
   3   3  13-240.052 235.328  20
   3  -3 -13-103.169 103.678  16
  -3  -3 -13 167.864 161.673   8
   3   3  13-537.425 329.994   7
  -3   3  13-70.1097 70.0161  11
  -3  -3 -13 245.178 196.168   2
   3  -3 -13-22.5750 78.7157  17
  -3  -3 -13 7.57281 133.788  16
  -3  -3 -13 258.839 392.403  14
  -3   3  13-104.587 107.996  18
   3   3  13-436.984 365.001  15
   3   3  13-31.4830 39.0096  19
   3   3  13-112.997 115.453   9
   3   3  13 115.742 200.606  10
  -3  -3 -13 53.0670 200.691   6
  -3   3  13-277.502 363.419  20
   3  -3 -13-20.7711 36.1127   2
  -3   3  13 6.31667 43.9503   1
   3  -3 -13-58.0438 66.6450   5
  -3   3  13-27.7916 98.3514   9
  -3   3  13-3.66259 140.237  10
   3   3  14-25.6737 171.517  20
   3  -3 -14 89.8055 84.8188  16
   3  -3 -14 132.090 125.410  17
  -3  -3 -14 136.973 139.993  16
  -3   3  14-68.3045 152.353  10
  -3  -3 -14 243.515 130.290   2
  -3  -3 -14 145.193 163.720   6
  -3   3  14 3.78701 84.1344   9
   3  -3 -14 119.543 73.5802   5
  -3  -3 -14 62.5185 35.9303   8
  -3   3  14 142.471 118.208  11
   3   3  14 91.2338 74.4089   9
   3   3  14 37.3698 59.4507  19
  -3   3  14 106.086 99.6524  18
   3  -3 -14 134.612 90.0528   2
  -3   3  14 6.19272 51.6413   1
   3   3  14 41.3985 108.036  10
  -3   3  15-62.7483 106.723  11
  -3  -3 -15 24.9946 71.6453   8
  -3  -3 -15 37.6153 71.5515   2
   3  -3 -15-53.1673 104.381   2
  -3   3  15-42.6300 94.7803   1
   3  -3 -15-45.7118 138.812  16
   3  -3 -15 57.8624 115.288  17
   3   3  15 53.1630 130.926  10
  -3   3  15 25.6745 54.8835  18
  -3  -3 -15 27.9373 110.771   6
  -3   3  15 204.651 210.508  10
  -3   3  15-24.4865 164.217   9
  -3  -3 -15-73.5845 168.314  16
   3   3  15-175.834 224.115   9
   3  -3 -16 638.845 272.342   2
  -3  -3 -16 411.017 254.520   6
  -3  -3 -16 948.726 258.756   2
  -3   3  16 260.506 140.361  11
  -3   3  16 148.542 237.776   9
  -3   3  16 390.662 183.932  18
   3  -3 -16 667.290 317.927  16
  -3  -3 -16 715.622 261.567   8
   3  -3 -16 599.459 248.583  17
  -3  -3 -16 760.764 348.099  16
   3  -3 -17 98.5279 122.227  17
   3  -3 -17-134.324 177.363   2
  -3   3  17-497.941 310.677   9
  -3  -3 -17-96.2673 59.1562   6
  -3  -3 -17 19.8491 57.2537   2
  -3  -3 -17 39.3498 141.449   8
  -3   3  17-87.2057 110.894  18
   3  -3 -17 76.0123 191.863  16
  -3  -3 -17 46.6294 162.598  16
  -3   3  17 11.3179 113.542  11
  -3  -3 -18 2930.35 562.936   2
   3  -3 -18 2438.88 669.135  16
  -3  -3 -18 2207.57 730.506   6
  -3  -3 -18 2554.16 741.001  16
   3  -3 -18 2913.41 648.292   2
  -3   3  18 615.245 222.942  18
   3  -3 -18 2678.81 560.366  17
  -3  -3 -19 163.921 232.525  16
   3  -3 -19-1.37563 72.6506  17
  -3  -3 -19 197.279 190.947   2
  -3  -3 -19-598.906 535.223   6
  -3   3  19-306.943 332.731  18
   3  -3 -19-177.916 264.675  16
   3  -3 -19-21.1728 163.591   2
  -3  -3 -20 3801.35 943.346  16
   3  -3 -20 2870.56 817.234  16
  -3  -3 -20 1198.22 220.576   6
   3  -3 -20 3254.15 639.946  17
   3  -3 -20 3297.62 737.164   2
   4   0   0 829.792 174.606   4
   4   0   0 804.954 169.714   5
  -4   0   0 932.635 189.892   1
  -4   0   0 911.825 181.811  14
  -4   0   1-0.26092 29.1921   1
  -4   0  -1-18.9899 35.1960  14
   4   0   1 4.71791 22.5641   4
  -4   0   1-1.86683 23.3388  14
   4   0   1 8.69026 34.5640   5
   4   0  -1-1.93387 21.1244   4
   4   0   1 5.47384 43.0224  19
   4   0  -1-14.1390 10.7914   5
  -4   0  -2 35.0197 54.8865   8
  -4   0  -2 11.3529 16.0708  14
  -4   0   2 14.7991 33.1321  14
  -4   0   2 36.9193 46.5599   1
   4   0  -2 40.5783 47.2081   5
   4   0   2-14.5621 51.1247   5
   4   0   2 3.58666 21.3018  19
   4   0   2 24.0482 41.4233   4
   4   0   3-52.1400 91.1766   4
   4   0  -3 7.54249 25.7067   5
   4   0   3 23.3388 40.3745   5
  -4   0   3-16.0366 25.4778   1
  -4   0  -3 40.7041 13.9598  14
  -4   0  -3-29.5952 59.8259   8
   4   0  -4 2347.00 311.038   5
  -4   0  -4 2339.21 439.603   8
  -4   0   4 2232.90 326.326   1
  -4   0  -4 2117.67 411.602  14
   4   0  -4 2542.14 382.022  17
   4   0   4 744.489 263.823   4
   0   4   4 857.545 276.861  13
   0   4   4 1833.64 368.477   3
  -4   0  -4 1999.75 369.481   6
  -4   0   4 2048.14 377.617  11
   4   0  -4 2596.23 340.923   2
  -4   0   4 2160.53 324.479  18
  -4   0  -5 5.94808 68.9863   8
  -4   0   5 16.9710 63.4598  18
  -4   0  -5-18.8486 59.9788   6
  -4   0   5-14.7604 48.8729   1
   0  -4  -5-19.4200 77.1701   6
  -4   0   5-25.9096 95.8528  11
   0   4   5 15.2504 36.2976  13
  -4   0  -5 60.4401 90.2770  14
   4   0  -5-16.7752 41.8657   5
   0   4   5 18.1855 50.1129   3
   0   4   5-20.0108 38.8481  12
   4   0  -5-36.8153 60.8688  17
   4   0  -5-4.13282 35.2127   2
  -4   0  -6 677.843 257.685   6
   0   4   6 904.949 294.063  13
   0   4   6 854.624 212.174   3
   4   0  -6 932.822 252.518   2
  -4   0   6 753.883 224.117  18
   0   4   6 841.322 179.362  12
   4   0  -6 1014.07 277.878  17
  -4   0  -6 864.228 344.344  14
   4   0  -6 937.868 212.123   5
   0  -4  -6 461.334 161.769  16
  -4   0  -6 718.732 286.511  16
   0  -4  -6 645.382 189.087   6
  -4   0  -6 606.750 255.111   8
  -4   0   6 644.468 212.416   1
   0   4   7 16.7635 26.4646  12
  -4   0   7-22.8573 99.1293  18
   4   0  -7-22.4015 32.5476   2
   0   4   7-30.0817 39.6958  18
  -4   0  -7 11.2894 14.1647   6
   0  -4  -7-9.83049 28.3014   6
   0   4   7 6.55990 76.7559  13
   0  -4  -7 1.27049 82.8602  16
   0   4   7 18.5005 24.6128   3
  -4   0  -7 4.52466 135.396  16
   4   0  -7 23.2532 59.1928  17
  -4   0  -7-68.1131 300.107  14
  -4   0   7 0.13590 57.2704   1
  -4   0  -7 32.9031 32.8892   8
  -4   0   8 2904.95 510.889   1
   0   4   8 3348.92 400.667   3
  -4   0  -8 2793.10 643.784   8
   0   4   8 3214.23 341.170  12
   0   4   8 3638.45 415.859  18
   0  -4  -8 3263.53 422.034   6
  -4   0  -8 3680.67 745.992  16
   4   0  -8 4781.36 662.794  17
   0  -4  -8 2962.47 463.993  17
   0   4   8 3132.17 473.253  13
  -4   0  -8 2456.12 572.794   6
   0  -4  -8 2348.66 518.921   2
  -4   0   8 1471.89 340.096  18
   0  -4  -8 2995.26 474.501  16
   4   0  -8 4261.48 594.241   2
  -4   0  -9-185.832 248.655   6
  -4   0  -9-48.5463 89.3075  16
   0  -4  -9 37.0085 60.5397   6
   4   0  -9-58.9175 109.974  17
   0   4   9-89.4059 64.5482  13
   0  -4  -9-52.3044 83.2202  17
   0   4   9-2.92227 39.2568   3
  -4   0   9-51.7620 110.931   1
   4   0  -9-49.2634 99.3256   2
  -4   0   9-43.3195 92.4884  14
   0   4   9 36.1222 47.5456  18
   0  -4  -9 33.4593 117.987   2
  -4   0   9-127.363 175.977  18
   0  -4  -9-52.8331 94.6930  16
   0   4   9-20.2317 43.4071  12
   0   4  10 8.51487 25.8560  12
  -4   0 -10-155.022 339.220   6
  -4   0 -10-102.366 162.947  16
   0  -4 -10 114.578 94.7634   2
   0  -4 -10 41.1282 33.5117   6
   0   4  10 72.2250 106.657  13
   0  -4 -10 28.8556 41.8441  16
   4   0 -10 169.229 130.481   2
   0  -4 -10 20.9738 44.5844  17
  -4   0  10 21.3476 47.8508   1
   0   4  10 45.0840 35.3115  18
   4   0 -10 43.0734 93.6717  17
   0   4  10 40.0126 60.8045   3
   4   0 -11-10.4451 49.7022   2
   0   4  11 46.7989 74.6568   3
   0  -4 -11 86.2840 101.757   2
  -4   0  11-108.491 243.425   1
   0  -4 -11 3.23769 61.4348  16
   0  -4 -11 37.0295 62.0383  17
   4   0 -11-7.78077 122.504  17
   0   4  11 4.33492 45.5020  12
   0   4  11 102.407 140.359  15
  -4   0 -11 15.0105 130.067  16
   0   4  11-25.6707 44.4888  11
   0  -4 -11 2.38006 30.1097   6
   0   4  11 27.2905 33.3858  18
   0   4  12 90.4997 65.7073  18
   0   4  12 85.1523 99.7579  12
   0  -4 -12-11.8098 44.6549   2
   0   4  12-40.4287 34.3506  20
   0   4  12 91.5785 179.283   7
   0  -4 -12 19.0876 72.4534  16
  -4   0 -12-106.366 307.696  16
   0   4  12 96.5037 94.7561  11
   0  -4 -12 10.2177 51.6390   6
   4   0 -12-240.814 161.230  17
   0   4  12 46.4955 146.261  15
   4   0 -12 16.1632 21.9904   2
   0  -4 -12 128.368 86.9359  17
   4   0 -13 47.5186 101.597   2
   0   4  13 215.965 386.615  15
   0   4  13 552.629 437.698   7
   0  -4 -13 935.505 475.730   2
   0   4  13 904.567 425.536  10
  -4   0 -13-228.607 398.262  16
   0   4  13 794.210 460.907  20
   0  -4 -13 388.496 292.540  17
   0   4  13 158.640 148.561  18
   0  -4 -13 1105.12 405.721  16
  -4   0 -14-260.435 276.576  16
   0   4  14 184.923 212.340   9
   0   4  14 128.130 86.6703  11
   0   4  14 124.233 81.8998  18
   0  -4 -14 29.5783 154.387   6
   0  -4 -14 60.7505 43.5648   2
   0   4  14 46.0624 221.589  15
   0   4  14-22.0249 28.4423  10
   0   4  14-144.251 238.765   7
   0   4  14 29.8666 86.5751  20
   0  -4 -14 162.287 151.165  16
   0  -4 -14 110.595 59.4874  17
   0  -4 -15-21.8974 57.4018  16
   0   4  15-72.1298 178.964  20
   0   4  15 40.7037 93.3200  11
   0  -4 -15 31.4306 80.1532  17
   0  -4 -15-56.3376 46.3878   2
   0   4  15 83.1866 98.2450  18
  -4   0 -15-6.16543 169.311  16
   0   4  15 121.671 209.709   9
   0   4  15-57.7263 77.3550  10
   0  -4 -15-10.6105 100.729   6
   0   4  16 75.6343 106.778  18
   0   4  16-12.7686 58.1375   9
   0  -4 -16-38.9003 109.420   2
   0   4  16-20.8955 48.9773  10
   0  -4 -16-73.2904 241.165   6
   0  -4 -16 7.61453 103.712  17
   0   4  16-79.7026 144.336  20
   0  -4 -16 125.757 128.442  16
   0   4  16 53.6188 100.974  11
   0  -4 -17-99.1511 278.577   6
   0   4  17-139.813 292.075  20
   0  -4 -17 92.6051 42.1063  17
   0   4  17 45.2205 50.4075  11
   0   4  17 106.909 28.6045  18
   0  -4 -17 42.3270 153.986  16
   0   4  17 140.240 217.066  10
   0   4  17 118.123 105.400   9
   0  -4 -17 60.1662 149.852   2
   0  -4 -18 1888.45 414.820  17
   0  -4 -18 846.970 426.384   6
   0   4  18 622.780 188.263  18
   0  -4 -18 1342.13 513.954  16
   0   4  18 752.495 335.482   9
   0   4  18 589.012 377.247  10
   0   4  18 533.888 205.307  11
   0  -4 -18 1861.60 519.637   2
   0   4  19 194.006 165.008  10
   0   4  19 161.736 179.804   9
   0   4  19 128.186 101.330  11
   0  -4 -19 419.341 262.931   2
   0  -4 -19 297.000 189.120  16
   0  -4 -19 327.327 166.660  17
   0  -4 -20 2405.84 503.483  17
   0  -4 -20 1927.46 672.184  16
   0  -4 -20 2018.70 604.398   2
   4  -1   0 1466.98 330.909   4
   4   1   0 2263.87 269.738   4
   4   1   0 2304.90 263.467  19
  -4  -1   0 2619.33 295.444  14
   4   1   0 2444.82 276.353   5
   4  -1   0 1735.90 368.083   5
  -4  -1   0 2566.26 294.211   1
  -4   1   0 3111.72 485.379   1
  -4   1   0 2370.57 416.851  14
   4   1  -1 140.514 67.4836   5
   4   1  -1 130.616 61.0160  19
   4  -1  -1 116.929 80.1178   5
   4  -1   1 43.0558 108.693   5
  -4  -1  -1 109.804 59.1700   8
  -4   1   1 154.525 100.288   1
   4   1  -1 115.795 57.7139   4
  -4  -1   1 154.034 82.7059   1
  -4  -1  -1 156.009 70.5906  14
   4  -1   1 15.6013 125.189   4
   4   1   1 162.232 78.9120  19
  -4   1   1 157.329 102.592  14
  -4  -1   1 164.430 80.8436  14
   4   1   1 143.430 73.1525   4
   4   1   1 151.913 68.9833   5
  -4   1  -1 122.085 104.840  14
  -4   1  -1 264.194 180.670   1
  -4  -1   2 126.015 85.9580   1
  -4  -1  -2 156.144 71.2984  14
   4  -1  -2 111.076 78.5960   5
  -4  -1  -2 143.894 75.3522   8
   4   1  -2 152.662 69.9798  19
  -4  -1   2 110.413 62.7817  14
  -4   1  -2 80.2996 66.9457   8
   4   1   2 96.4067 50.5805   5
  -4   1  -2 175.142 133.920   1
   4   1   2 101.474 60.1313  19
   4   1  -2 136.765 59.4263   5
  -4   1   2 134.967 85.1200   1
   4   1   2 117.106 69.3093   4
  -4   1  -2 192.651 172.194  14
  -4  -1  -3 505.712 131.301   6
  -4   1  -3 390.282 249.797  14
  -4   1   3 437.464 119.892  18
   4  -1  -3 421.353 134.012   5
  -4  -1  -3 519.068 140.972   8
  -4   1   3 492.245 152.850   1
  -4  -1   3 442.274 141.709  14
  -4   1  -3 1.45479 114.111   1
   4   1  -3 646.757 167.064  19
  -4  -1   3 498.646 179.740   1
   4  -1  -3 295.488 120.002  17
   4   1   3 444.872 133.410   4
   4   1   3 360.461 126.612  19
  -4  -1  -3 459.890 130.926  14
   4  -1  -3 411.819 115.306   2
   1   4   4 23.9370 35.6475   3
   4  -1  -4-5.93874 26.8249   2
  -4   1   4 4.98975 31.6620  11
  -4   1  -4-135.046 248.243  14
   4   1   4 14.9224 43.1974  19
  -1   4   4-114.349 152.223  13
  -4  -1   4 20.0242 33.6247  14
  -4   1   4 5.08023 34.0882   1
   4   1   4 10.9196 41.7279   4
  -4  -1  -4-13.0012 29.5827  14
   4   1  -4-13.4769 74.9346  17
  -4  -1  -4-2.88736 25.5450   6
  -4  -1   4-15.7474 119.924   1
   1   4   4 22.9388 49.2254  12
  -4  -1  -4-8.08329 19.3991   8
   4  -1  -4 8.16756 20.9612  17
  -4   1   4 24.8066 38.5272  18
   4  -1  -4 14.6989 39.4179   5
  -4  -1   5 1952.89 364.852  14
   4   1   5 1803.24 319.702  19
  -1   4   5 3630.48 616.077  13
   4   1   5 3018.76 490.956   7
  -1   4   5 3009.10 425.099   3
   4   1   5 2322.78 409.863   4
   4   1   5 2941.54 482.083  15
  -4  -1  -5 3142.48 390.584  14
  -4   1   5 3123.14 401.281  11
  -4  -1  -5 3199.16 409.563   8
   4  -1  -5 2597.04 320.103   5
   4  -1  -5 2698.61 332.834   2
   4  -1  -5 2677.98 377.718  17
   4   1  -5 2194.95 435.222  17
   1   4   5 3413.71 464.398   3
  -4   1   5 2583.34 346.206   1
  -4   1   5 2643.60 324.918  18
  -4  -1  -5 3268.75 411.792   6
  -4   1   5 3213.77 471.826   9
  -1  -4  -5 1540.41 302.711   6
   1   4   5 3083.20 374.154  12
   1   4   5 2234.27 522.031  13
  -4  -1  -6 848.842 233.860  14
  -1  -4  -6 609.688 182.846   6
  -1   4   6 821.834 199.142   3
   1   4   6 895.167 217.855   3
   4   1   6 360.946 162.298   4
   4  -1  -6 807.502 221.581  17
   1   4   6 737.078 172.749  12
   4  -1  -6 760.290 193.472   2
  -4  -1  -6 957.887 228.914  16
   4   1   6 688.653 263.355   7
  -1   4   6 643.661 170.334  18
  -1  -4  -6 503.667 178.567  16
  -1   4   6 817.387 263.808  13
  -4   1   6 853.142 219.536  11
  -4  -1  -6 783.615 223.902   6
  -4   1   6 730.467 188.636  18
  -4   1   6 694.900 190.469   1
   4   1   6 507.488 174.309  20
   1  -4  -6 421.172 148.526  16
   4   1   6 673.785 260.574  15
   4  -1  -6 743.519 171.628   5
  -4   1   6 517.226 213.288   9
  -4  -1  -6 940.739 253.257   8
   1   4   6 788.867 269.866  13
  -1   4   7 2302.39 322.814   3
  -1  -4  -7 2160.00 347.333   6
   1  -4  -7 1399.98 356.457   2
  -4   1   7 2193.26 336.808  18
   4  -1  -7 2395.17 375.001   2
   1  -4  -7 1885.81 375.592  16
   1  -4  -7 1574.70 411.676  17
  -4   1   7 2313.84 352.997   1
  -4  -1  -7 2561.89 426.909  16
   4  -1  -7 2286.77 375.568  16
   1   4   7 2349.06 344.876   3
   1   4   7 2373.44 306.900  12
   4   1   7 1467.34 392.649   7
   4   1   7 1512.52 401.119  15
  -4  -1  -7 2805.45 487.031  14
   4  -1  -7 2777.00 419.626  17
  -4   1   7 2360.15 399.748  11
  -1   4   7 2616.36 427.822  18
   4  -1  -7 2693.70 337.975   5
  -1  -4  -7 2316.55 444.138  16
  -4  -1  -7 2487.34 441.834   6
  -4  -1  -7 2549.87 447.149   8
  -4   1   7 1635.56 427.375   9
   1   4   7 2688.05 488.537  13
   1  -4  -7 2052.78 314.604   6
  -1   4   7 2565.13 425.459  13
   4   1   8-338.855 222.478   7
  -4   1   8 119.897 84.5785  18
   1   4   8 142.111 73.1921  12
   1  -4  -8 202.912 110.810   6
   4  -1  -8 212.022 114.655   2
  -4  -1  -8 254.263 143.283  14
   1  -4  -8 71.5229 103.993   2
   4  -1  -8 194.710 153.816  16
   4  -1  -8 151.448 100.631  17
  -4  -1  -8 217.826 151.453   6
  -4   1   8 177.570 107.779   1
  -1  -4  -8-23.0346 252.724   2
   4   1   8 14.9745 127.049  15
  -1  -4  -8 167.199 106.738   6
  -4   1   8-99.6110 291.886   9
  -1   4   8 137.266 104.053  13
   4  -1  -8 232.396 113.689   5
  -1   4   8 124.876 59.2786  12
   1   4   8 217.350 117.487  13
  -4  -1  -8 204.723 147.250   8
  -1  -4  -8 117.403 120.772  16
  -1   4   8 154.833 80.6319   3
   1   4   8 166.504 92.8583   3
  -4   1   8 121.884 80.0222  11
  -1   4   8 266.561 124.933  18
  -1  -4  -8 138.937 80.9848  17
   1  -4  -8 179.671 121.738  16
  -4  -1  -8 157.961 128.597  16
   1  -4  -8 130.586 107.434  17
  -1   4   9 677.291 209.292  13
  -1   4   9 730.536 188.774  18
  -1   4   9 727.918 157.640  12
   4  -1  -9 925.551 322.188  16
  -4   1   9 687.586 218.796  18
  -4  -1  -9 1043.01 400.984  14
   1  -4  -9 867.526 285.267   2
  -1  -4  -9 906.434 243.254   6
  -4  -1  -9 966.182 318.792   8
   1   4   9 687.949 226.027  13
  -1  -4  -9 757.035 259.391  16
   1   4   9 772.063 184.341  12
  -1  -4  -9 758.516 181.661  17
   1  -4  -9 780.474 236.207  17
   4  -1  -9 921.275 222.498   5
  -4  -1  -9 975.386 315.077  16
  -1  -4  -9 644.010 282.896   2
  -4   1   9 693.016 247.177  11
   1   4   9 732.151 206.780   3
  -1   4   9 707.665 176.230   3
  -4  -1  -9 761.646 267.199   6
   1   4   9 787.924 157.468  18
   1  -4  -9 809.950 218.486   6
   1  -4  -9 736.218 230.822  16
   4  -1  -9 1065.08 288.420  17
   4  -1  -9 944.132 275.041   2
  -4   1   9 678.620 206.307   1
  -4  -1 -10 781.688 306.721  16
   1  -4 -10 497.387 180.593  17
  -4  -1 -10 315.204 208.575  14
   1   4  10 497.358 175.510   3
  -1  -4 -10 671.407 265.003   2
  -1  -4 -10 589.408 148.644  17
   4  -1 -10 499.778 187.373   2
   1  -4 -10 518.911 203.943   6
   4  -1 -10 651.289 236.679  17
  -1  -4 -10 495.731 201.169  16
   1  -4 -10 543.623 204.484  16
   1   4  10 436.249 195.056  13
  -1   4  10 476.361 135.576  12
  -4   1  10 379.897 173.700   1
  -1   4  10 497.850 159.735   3
   1   4  10 531.119 157.481  12
  -4  -1 -10 593.167 257.335   6
  -4   1  10 277.722 151.052  18
   1   4  10 546.374 126.870  18
  -1   4  10 434.409 168.841  13
  -1   4  10 467.476 150.871  18
  -1  -4 -10 472.535 184.890   6
  -4  -1 -10 498.702 258.650   8
   4  -1 -10 588.593 267.137  16
   1  -4 -10 477.089 218.426   2
   4  -1 -10 574.521 175.221   5
  -4   1  10 242.504 126.480  11
  -1   4  11 104.502 132.853  15
  -1  -4 -11 44.6100 43.5518  17
  -1   4  11 10.5622 17.8545  18
  -1   4  11 53.2062 73.2511   3
   1   4  11 65.3569 77.0682   3
   4  -1 -11-43.6462 54.0086   2
   1   4  11 28.5096 43.5732  18
   1  -4 -11 3.27405 44.2146   2
  -4   1  11-71.5311 191.208  11
   4  -1 -11-36.6288 110.041   5
  -4   1  11-7.09944 47.3347  18
   1  -4 -11 45.0615 55.2435  16
   4  -1 -11 85.7069 179.672  16
  -1   4  11 20.4732 23.6522  11
  -1  -4 -11 25.5845 70.2416  16
   1  -4 -11 81.1498 119.181   6
   1   4  11 62.5356 72.2533  12
  -4   1  11-8.31357 58.1653   1
   1   4  11 12.3702 30.6561  11
  -1   4  11 17.1693 42.4157  12
   1  -4 -11 36.6256 55.4259  17
  -1  -4 -11 26.6611 105.067   2
  -4  -1 -11 57.7971 92.4286  16
  -4  -1 -11 31.2705 125.242   6
  -1   4  11-24.8326 96.3436   7
   1   4  11 47.7676 119.253  13
   4  -1 -11 70.5844 114.857  17
  -1  -4 -11 33.5375 47.8049   6
  -4  -1 -11-89.7970 140.848   2
  -4  -1 -11 49.0489 86.9594   8
   4  -1 -12 82.6806 105.187  17
  -1   4  12 93.0640 115.672  12
   1  -4 -12-18.8457 46.4681  17
   1   4  12 214.332 198.071  15
  -4  -1 -12-37.3286 171.122  16
  -1  -4 -12 0.17174 70.2183  16
  -4  -1 -12 97.7027 136.144   6
  -1   4  12 114.234 90.2647  11
  -4  -1 -12-109.830 181.599   2
  -1   4  12 53.0683 73.8502  18
   1  -4 -12 36.8411 124.813   6
   1   4  12 85.9347 156.881  20
   4  -1 -12-44.3603 144.488   5
   1  -4 -12 153.496 168.679   2
  -1   4  12 243.568 240.639   7
   4  -1 -12 131.984 143.920   2
  -4   1  12-49.9673 82.5278   1
  -1  -4 -12 85.2507 71.6685  17
   1   4  12 103.245 104.845  12
  -4  -1 -12 118.606 186.399   8
   1   4  12 52.6736 103.263   7
  -1  -4 -12 130.499 128.920   6
   1   4  12 109.708 84.7418  11
   4  -1 -12 188.289 246.363  16
   1  -4 -12-7.65239 45.5043  16
  -4   1  12-81.3193 184.319  18
  -1  -4 -12 189.867 163.780   2
   1   4  12 53.1720 44.5847  18
  -1   4  12 147.742 186.415  20
  -1   4  12 106.307 105.411   3
  -1  -4 -12 23.0909 19.0828   8
  -1   4  12 164.380 243.119  15
  -4  -1 -13 141.774 164.770  16
  -4  -1 -13-78.6792 179.671   2
   1   4  13 380.950 472.657  15
  -4  -1 -13 68.0125 80.6464   8
   4  -1 -13 35.8918 175.232  16
  -1   4  13 116.451 151.832  18
  -1   4  13 14.6486 174.891  15
  -1  -4 -13 1189.88 539.524   6
   1   4  13 822.803 559.573  20
  -4   1  13-230.992 207.624  18
  -1   4  13 270.754 175.187  11
   1  -4 -13 155.350 178.148  17
   4  -1 -13 2.81742 40.6899   2
  -1   4  13 324.054 372.181  10
   1  -4 -13 122.394 139.318   2
  -4   1  13-23.2570 40.7417   1
  -4  -1 -13-202.202 319.739   6
   1  -4 -13 124.530 187.589  16
   4  -1 -13 120.302 131.106  17
  -1   4  13-66.6587 204.392   7
  -1   4  13 608.196 393.925  20
  -1  -4 -13 815.169 471.133  16
   1  -4 -13 688.994 379.607   6
   1   4  13 552.320 513.958   7
  -1  -4 -13 880.280 474.204   2
   1   4  14 188.629 32.9911  15
   1   4  14 670.422 379.529  20
  -1  -4 -14 644.343 253.016   2
  -4  -1 -14 181.416 155.183   6
  -1   4  14 251.450 201.096  20
  -1  -4 -14 534.336 246.610  16
   1   4  14 340.372 188.805  10
   4  -1 -14 732.819 382.525  16
  -4  -1 -14 830.400 248.842   2
   1  -4 -14 461.358 143.754   6
  -1   4  14 472.199 174.034  11
  -1   4  14 452.530 254.355  10
   1   4  14 411.816 245.239   9
   1   4  14 76.3810 116.451   7
  -1   4  14 368.272 257.419   9
  -4   1  14 179.489 126.330   1
  -4  -1 -14 317.090 147.827   8
   4  -1 -14 684.389 280.773  17
   4  -1 -14 605.517 263.162   2
   1   4  14 454.366 143.453  18
   1  -4 -14 550.105 194.499  17
   1   4  14 455.420 158.445  11
  -4  -1 -14 318.590 216.413  16
  -1   4  14 417.270 158.423  18
   1  -4 -14 528.110 256.221   2
   1  -4 -14 646.287 274.176  16
  -1  -4 -14 777.230 334.565   6
  -1  -4 -14 518.301 164.918  17
  -1  -4 -14 570.244 141.221   8
   1   4  15 90.8937 81.7907  18
   1  -4 -15-8.21423 10.9605  17
   1   4  15 78.6928 109.775  20
   4  -1 -15 101.662 134.052  17
   1  -4 -15-21.6492 84.2488   2
   4  -1 -15-23.3318 81.9072  16
   1   4  15 39.7059 132.844  10
  -1  -4 -15 67.9209 129.916  16
  -4  -1 -15 111.018 202.636   8
   4  -1 -15-49.8138 78.9821   2
  -1   4  15 106.044 102.702  11
   1   4  15-512.507 495.874   7
  -1  -4 -15 115.605 86.7525   6
  -4   1  15 95.8886 106.871   1
   1   4  15-458.991 450.847  15
   1   4  15 83.1934 96.2835  11
  -1   4  15 178.002 216.274   9
  -1  -4 -15 48.3574 80.7877  17
   1  -4 -15-87.7299 134.414   6
  -1  -4 -15 120.143 129.686   2
  -1   4  15 2.06164 31.8414  18
  -4  -1 -15 119.732 242.239  16
  -1   4  15 192.249 180.946  10
  -1   4  15-3.27129 171.406  20
  -4  -1 -15 55.3929 39.4746   2
   1  -4 -15-14.6531 51.4579  16
   1   4  15 110.844 150.919   9
  -4  -1 -16 498.142 349.522  16
   1  -4 -16 568.299 373.169   6
  -1   4  16 278.828 189.422  11
  -1   4  16 490.022 237.754   9
  -1   4  16 449.834 275.101  10
   1  -4 -16 577.100 297.136   2
   1  -4 -16 533.825 263.969  16
  -1  -4 -16 605.177 352.542   6
   4  -1 -16 716.780 392.661  16
   1   4  16 326.917 145.346  11
   4  -1 -16 571.811 273.253   2
  -1   4  16 228.070 72.6951  20
  -1  -4 -16 414.309 230.219   2
   1   4  16 366.190 242.746   9
   4  -1 -16 433.428 173.775  17
  -1  -4 -16 660.222 294.369  16
  -4  -1 -16 527.710 197.959   2
  -4  -1 -16 43.5692 209.314   8
   1   4  16 312.240 254.580  10
   1   4  16 293.959 239.151  20
   1   4  16 261.057 136.277  18
   1  -4 -16 654.266 243.091  17
  -1  -4 -16 640.645 214.042  17
  -1   4  16 568.114 208.773  18
  -4   1  16 151.783 123.189   1
   4  -1 -17 482.909 216.840  17
   1   4  17 731.884 412.187  10
  -1  -4 -17 1129.11 468.228  16
  -1   4  17 228.428 62.1535   9
   1  -4 -17 954.137 390.674  16
  -1   4  17 157.295 53.5680  10
   1   4  17 66.7908 90.1130  18
  -1  -4 -17 684.153 367.882   6
  -4   1  17 120.318 159.016   1
   1   4  17 453.009 240.184  11
   4  -1 -17 550.369 253.265   2
   1  -4 -17 818.502 255.389  17
   1  -4 -17 820.172 318.675   2
  -4  -1 -17 356.888 136.851   8
  -1  -4 -17 1174.53 330.110  17
  -4  -1 -17 1323.53 573.959  16
  -1   4  17 377.272 189.074  11
   1   4  17 336.708 308.676   9
  -4  -1 -17 938.965 302.073   2
  -1  -4 -17 1085.81 412.209   2
   1   4  17 207.480 216.311  20
   1  -4 -17-24.2205 292.372   6
   4  -1 -17 605.443 344.161  16
  -1   4  17 463.790 189.038  18
  -1   4  18 635.319 239.859  18
   1   4  18 330.326 177.296  11
   1   4  18 728.992 394.412  10
  -4  -1 -18 1079.44 377.567   2
   1  -4 -18 712.717 331.927   2
  -4  -1 -18 202.284 204.123   8
  -1   4  18 457.301 303.764  10
   4  -1 -18 763.194 330.792   2
  -1  -4 -18 1006.28 405.399   2
  -1  -4 -18 734.068 347.076   6
  -1   4  18 540.457 242.294  11
  -4  -1 -18 369.754 180.539  16
   1  -4 -18-515.667 565.757   6
   1   4  18 349.726 230.182   9
  -1   4  18 497.791 237.545   9
   1  -4 -18 966.493 406.404  16
   1  -4 -18 839.808 266.639  17
  -1  -4 -18 873.398 455.488  16
  -1  -4 -18 1054.83 335.986  17
   4  -1 -18 954.576 531.746  16
  -1  -4 -19 2170.16 656.911  16
  -1   4  19 468.537 140.398   9
  -1   4  19 654.000 246.012  11
  -1   4  19 509.221 162.039  18
  -1   4  19 547.168 388.257  10
  -1  -4 -19 1482.26 595.035   6
   1  -4 -19 1930.96 585.859  16
  -4  -1 -19 1259.77 390.421   8
  -4  -1 -19 1905.74 653.607  16
   1  -4 -19 2827.32 573.033  17
   1   4  19 347.932 171.882   9
  -1  -4 -19 2065.21 556.057   2
   1  -4 -19 2385.93 618.724   2
   4  -1 -19 1887.58 495.776   2
   1   4  19 230.843 212.019  10
   1  -4 -20 469.123 361.970  16
  -1  -4 -20 222.934 316.631  16
  -4  -1 -20 153.179 389.549  16
  -1  -4 -20-169.039 435.755   6
  -1   4  20-305.813 245.970   9
   1  -4 -20 221.803 214.769  17
  -1  -4 -20 313.084 278.839   2
   1  -4 -20 118.793 155.449   2
  -4   2   0 92.9562 98.8059   1
  -4  -2   0 291.281 102.180   1
   4   2   0 308.872 105.073  19
  -4  -2   0 242.095 108.573  14
  -4  -2   0 215.542 101.433   8
  -4  -2  -1 1406.67 253.946   6
  -4   2  -1 312.517 147.202   1
  -4   2   1 253.860 147.776  14
  -4  -2  -1 1434.97 242.686  14
   4   2  -1 1684.79 284.079  19
  -4   2   1 1814.95 465.757   1
   4   2   1 1566.94 234.803   5
   4   2   1 1493.59 228.010  19
  -4  -2   1 1174.22 303.865   8
  -4  -2   1 1032.89 233.242  14
  -4   2   1 1490.57 332.203  18
  -4  -2  -1 1317.12 223.685   8
   4   2   2 422.346 129.077  12
  -4   2   2 480.289 199.176   1
  -4  -2  -2 439.158 127.770  14
  -4   2   2 154.591 164.844  14
   4  -2  -2 232.443 103.013   2
   4   2   2 380.779 115.263  19
   4   2   2 456.370 123.337   4
   4   2   2 411.709 113.116   5
  -4  -2   2 265.821 102.179  14
  -4   2   2 445.632 175.884  18
  -4  -2  -2 393.548 124.175   8
   4  -2  -2 217.526 126.261   5
   4  -2  -2 300.789 158.156  17
  -4  -2  -2 450.145 137.764   6
   4   2   3 1424.76 224.584   4
   4   2   3 1409.97 217.236  19
  -4   2   3 1726.27 373.651   1
   4   2   3 1419.91 227.151  12
   4  -2  -3 1143.96 306.384   5
   4  -2  -3 1225.61 259.951   2
  -4   2   3 1658.01 298.894  18
  -4  -2  -3 1775.22 262.260   6
  -4  -2  -3 1507.23 227.990  14
  -4  -2  -3 1398.67 222.516   8
   4  -2  -3 1016.72 274.381  17
   4   2   3 1506.26 205.096   5
  -4   2   4 1390.51 309.189   1
   4  -2  -4 1142.74 239.865   2
  -2   4   4 1438.83 425.354  13
  -4   2   4 1323.90 248.488  18
   2   4   4 1437.22 279.696  12
   4  -2  -4 1101.18 275.945   5
  -4  -2  -4 1540.01 249.987   6
   4   2   4 1156.59 214.978  12
   4  -2  -4 1160.83 274.312  17
  -4   2   4 1384.84 213.359  13
   4   2   4 1347.60 219.664  19
   4   2   4 1337.79 223.298   4
  -4  -2  -4 1470.56 227.918  14
   2   4   4 1418.89 351.130   3
  -4  -2  -4 1231.63 206.943   8
   4   2   4 1179.65 218.006   3
  -2   4   5 32.6403 30.8372   3
   2   4   5 46.1839 33.2472  12
  -4   2   5 42.0123 34.6956  18
  -4  -2  -5 47.2191 56.8406  16
   4   2   5 25.6989 79.3830  12
  -4  -2  -5 65.6502 56.4361   6
   4   2   5 33.7533 61.2716  19
  -2   4   5 51.5682 68.4861  13
  -4   2   5 17.7000 20.5333   1
   4   2   5 33.1790 51.5747   3
   2   4   5 34.0858 46.9614   3
   4  -2  -5 34.7745 58.6064   2
   2   4   5-70.9259 190.539  13
  -2  -4  -5 34.0251 59.3000   6
   4  -2  -5 96.6168 81.0018   5
  -4  -2  -5 45.2316 54.2695  14
   4  -2  -5 39.6656 41.2377  17
  -4  -2  -5 66.3654 49.0758   8
   4   2   5 49.4736 38.9263   4
  -2  -4  -6 3178.57 582.046  16
  -4  -2  -6 4011.92 396.332  14
  -2  -4  -6 3223.82 450.614   8
   4  -2  -6 3585.67 442.134   5
   2   4   6 4459.72 513.893   3
   4   2   6 3638.79 452.398   4
  -4   2   6 3871.25 415.611  18
   4   2   6 3340.42 378.969  19
   2   4   6 4079.73 417.854  12
   4  -2  -6 3390.44 452.015  17
  -2   4   6 4478.84 476.778   3
  -4  -2  -6 4575.98 488.323   6
   4  -2  -6 3578.55 421.721   2
  -2   4   6 4599.17 602.670  13
  -4  -2  -6 4939.08 548.335  16
  -2   4   6 4390.69 608.409  18
  -4  -2  -6 4193.88 427.022   8
   2   4   6 3219.68 638.818  13
  -2  -4  -6 3386.60 448.184   6
  -4   2   6 4749.20 526.993  11
  -4   2   6 3574.55 454.945   1
  -4  -2  -7 335.958 121.499   8
  -4  -2  -7 405.077 168.091  16
  -2   4   7 357.967 125.121   3
   4  -2  -7 327.448 121.240  16
  -4   2   7 297.025 125.919  18
   2   4   7 316.462 121.015   3
   4  -2  -7 253.274 140.330  17
   2  -4  -7 213.161 133.865  16
   2   4   7 351.115 128.309  12
   4  -2  -7 247.200 126.136   5
   4   2   7 331.311 167.509  20
  -4   2   7 342.807 166.837  10
  -4   2   7 287.721 130.257  11
  -4  -2  -7 358.611 132.032  14
   2  -4  -7 337.801 177.687  17
  -2   4   7 362.674 165.584  13
  -4   2   7 258.444 98.6965  20
   4  -2  -7 280.611 135.678   2
   2  -4  -7 189.303 105.750   2
   4   2   7 282.008 162.735   4
   4   2   7 184.554 81.1858  19
  -4  -2  -7 408.107 155.560   6
  -2   4   7-72.7224 174.508   1
   2   4   7 320.698 185.036  13
  -2  -4  -7 316.107 139.633   6
  -2  -4  -7 286.724 142.738  16
   4   2   7 317.805 122.021  10
  -2   4   7 347.373 148.833  18
  -2  -4  -7 326.889 119.008   8
  -4   2   7 233.200 124.248   1
   4   2   8 2038.60 473.378   7
   2  -4  -8 1613.85 270.867   6
  -4   2   8 1879.44 314.622  18
  -2   4   8 1908.94 350.047  13
   2  -4  -8 1529.21 364.504  17
  -4  -2  -8 2382.37 400.472   6
   2   4   8 1942.45 293.749  12
  -2   4   8 191.066 126.626   1
  -4   2   8 1738.62 495.477  20
  -4   2   8 2203.92 388.890  11
   4   2   8 1739.14 296.257   9
  -2  -4  -8 1868.92 274.175   8
   4  -2  -8 1849.28 303.155  16
   4  -2  -8 2141.63 320.987   5
   2  -4  -8 1538.10 371.393   2
  -4  -2  -8 2186.68 358.181   8
  -2  -4  -8 2005.77 426.547  16
   4   2   8 2285.38 497.749  15
   2   4   8 1936.69 330.992   3
  -2   4   8 2205.59 370.596  18
  -4   2   8 1866.31 406.278  10
   4   2   8 1472.64 284.684  10
  -2   4   8 2012.47 298.482   3
  -4   2   8 2079.31 444.458   9
   4  -2  -8 2032.57 351.425   2
  -4   2   8 1731.38 326.567   1
   4   2   8 1843.82 374.826  20
   2  -4  -8 1703.75 340.513  16
  -2  -4  -8 2110.57 363.506   6
   2   4   8 2044.62 429.630  13
   4  -2  -8 2061.65 368.483  17
  -4  -2  -8 2219.01 354.176  14
   4   2   8 1622.47 400.832   4
  -4  -2  -8 2409.70 410.725  16
   4   2   8 1317.02 271.655  19
  -4   2   9 352.200 158.714   1
  -4  -2  -9 375.728 173.275  16
  -4  -2  -9 399.325 154.490   8
  -4  -2  -9 364.875 188.562   6
   4  -2  -9 323.374 125.154   5
   2   4   9 279.144 117.452   3
   2  -4  -9 321.038 164.662  17
   2   4   9 334.136 171.326  13
  -2   4   9 331.241 119.654   3
   2  -4  -9 343.570 176.484   2
  -2  -4  -9 335.512 115.687   8
  -2   4   9 337.317 138.855  18
  -4   2   9 324.119 181.445  10
  -4   2   9 385.687 165.488  11
   4  -2  -9 378.806 162.847   2
  -2   4   9 34.5511 110.847   1
  -2  -4  -9 47.0666 193.684   2
   2   4   9 273.338 106.175  12
   4  -2  -9 220.855 98.8131  16
  -2  -4  -9 387.674 178.116  16
   4   2   9 263.671 157.338  20
   4   2   9 273.833 118.165   9
  -2  -4  -9 323.494 144.704   6
   4   2   9 217.054 107.456  10
   4   2   9 37.6580 179.081   4
   2  -4  -9 299.381 142.334   6
  -2   4   9 312.706 99.6853  12
   2  -4  -9 378.372 165.417  16
  -2   4   9 287.871 145.190  13
   4   2   9 238.702 175.946   7
  -4  -2  -9 388.312 163.105  14
   4  -2  -9 374.018 170.016  17
  -4   2   9 366.020 224.311   9
   4   2   9 374.954 225.542  15
   4   2   9 191.931 97.1319  19
  -4   2   9 267.964 110.753  18
   2  -4 -10 620.945 214.618   6
   4  -2 -10 794.557 248.491  17
  -4   2  10 618.990 202.575  18
  -2   4  10 682.918 142.786  12
   4   2  10 295.089 102.591   9
  -4   2  10 540.006 270.468   9
   2  -4 -10 635.602 249.560   2
  -2   4  10 385.686 186.281   1
   2   4  10 602.588 174.832  12
   4   2  10 406.462 234.924   7
  -2  -4 -10 845.722 251.102   6
   2   4  10 546.374 181.621   3
  -4   2  10 610.928 199.574   1
  -4  -2 -10 885.283 289.078   6
  -2  -4 -10 837.310 262.249  16
   2   4  10 500.487 185.673  13
   2  -4 -10 619.150 217.216  17
  -2  -4 -10 711.569 233.192   2
   2  -4 -10 695.232 235.754  16
  -4  -2 -10 724.389 221.788   8
   4   2  10 335.526 148.904  19
   4  -2 -10 838.841 205.374   5
  -4   2  10 594.200 262.700  10
  -2  -4 -10 796.968 152.640  17
  -2  -4 -10 722.721 158.813   8
  -2   4  10 621.225 215.134  13
   4  -2 -10 694.697 224.593   2
   4   2  10 436.521 178.945  20
   4   2  10 329.309 145.719  10
  -4   2  10 638.433 223.514  11
  -2   4  10 627.466 189.699  18
  -2   4  10 573.353 167.334   3
   4   2  10 522.177 253.202  15
  -4  -2 -10 815.880 274.315  14
   4  -2 -10 678.744 231.846  16
  -4  -2 -10 785.000 271.760  16
   4  -2 -11 1077.60 237.576   5
   2   4  11 724.791 224.655   3
  -4   2  11 716.175 224.257  18
  -2   4  11 925.126 222.654  18
   4   2  11 472.185 151.284   7
  -2  -4 -11 1423.37 373.555   2
  -2   4  11 1130.68 401.869  15
  -4   2  11 860.076 286.079  11
   4   2  11 394.809 139.043  15
   4  -2 -11 935.162 274.993   2
   4  -2 -11 1134.04 308.236  17
   4   2  11 257.097 159.203  10
   2  -4 -11 878.361 269.959  16
  -4  -2 -11 1262.20 424.639  14
  -2  -4 -11 1150.87 330.613  16
  -2  -4 -11 1043.27 184.823  17
   2   4  11 792.431 219.824  12
  -4   2  11 586.327 264.588   9
  -2   4  11 970.581 226.756   3
  -2   4  11 1078.78 289.489  11
   2   4  11 993.346 199.021  11
   4  -2 -11 974.470 290.092  16
  -4  -2 -11 1067.28 346.575   6
  -4  -2 -11 1071.45 294.355   8
  -2  -4 -11 1084.09 195.987   8
  -4   2  11 544.202 298.168  10
  -2   4  11 843.890 172.155  12
  -2   4  11 502.934 246.141   1
   2  -4 -11 986.528 317.580   2
  -4   2  11 751.511 237.682   1
   2   4  11 627.048 218.950  13
  -4  -2 -11 938.198 320.121  16
  -2  -4 -11 1157.31 293.511   6
  -2   4  11 1288.88 412.328   7
   2   4  11 892.079 151.364  18
   2  -4 -11 1058.02 267.650  17
   2  -4 -11 631.861 234.839   6
  -4  -2 -12 35.8035 127.694  16
  -2   4  12-46.7471 171.114  15
  -4  -2 -12 119.022 92.1131   2
  -4   2  12 0.69783 39.2821  11
   4  -2 -12-51.8943 49.9520   2
  -2   4  12-51.1328 196.987   1
   4  -2 -12-26.1354 62.5993   5
   2  -4 -12 85.1105 185.816  16
  -2   4  12 42.5190 313.667  20
   2  -4 -12 21.1426 194.748   2
  -2   4  12-154.710 192.384   7
   2  -4 -12 186.388 432.634   6
  -4  -2 -12 22.5128 168.923   6
  -2   4  12-42.7103 37.9000   3
  -4  -2 -12-3.29359 49.3735   8
  -4   2  12 9.72046 22.7060   1
   4  -2 -12 38.5251 93.0216  17
  -2   4  12 64.9911 113.997  18
  -4   2  12 28.5121 58.9157  18
  -4   2  12-160.749 241.700   9
  -2   4  12 24.7245 120.240  11
   2   4  12 401.319 666.146   7
   4  -2 -12 27.7449 69.9535  16
   2   4  12 522.011 611.538  15
  -4  -2 -12 70.9352 295.311  14
  -2   4  12 28.0624 92.9213  12
   2  -4 -12 89.5199 235.558  17
   4  -2 -13 492.768 213.529  17
   4  -2 -13 594.686 186.460   5
   2  -4 -13 527.669 199.541  17
   2   4  13 544.799 164.765  18
   2  -4 -13 511.380 241.213  16
  -2   4  13 438.538 266.624  10
  -2  -4 -13 712.232 178.719   8
   4  -2 -13 524.751 231.097   2
  -4  -2 -13 884.929 209.583   2
  -2  -4 -13 947.390 221.105  17
   2   4  13 476.114 328.008  15
  -2   4  13 288.931 179.492   1
  -4  -2 -13 529.743 231.347   8
   2   4  13 685.117 337.961   7
  -4  -2 -13 634.734 338.008   6
   2   4  13 652.142 303.389  10
   2  -4 -13 390.443 133.915   2
  -2   4  13 448.424 160.840  12
  -2   4  13 679.935 376.053  20
   2  -4 -13 305.688 215.557   6
  -4   2  13 308.642 161.665  18
   4  -2 -13 527.354 252.121  16
  -2  -4 -13 1018.94 352.374   6
  -2  -4 -13 844.004 297.631   2
  -2   4  13 559.961 213.986  11
  -4   2  13 263.005 129.569  11
   2   4  13 559.124 301.124  20
  -4   2  13-207.966 315.086   9
  -2   4  13 458.074 172.043  18
   2   4  13 659.094 207.488  11
  -4  -2 -13 561.675 263.073  16
  -2  -4 -13 789.387 301.869  16
  -4   2  13 239.702 152.347   1
  -2  -4 -14 98.6607 76.1452   8
  -2  -4 -14 243.707 167.638   2
   2   4  14 86.2844 27.4630  20
   2  -4 -14 121.738 162.737  16
  -4   2  14-21.9719 18.8906   1
   4  -2 -14 94.7215 127.098   2
  -4  -2 -14 71.9642 46.0166   2
   2   4  14 30.5949 44.1918  11
   4  -2 -14-15.5616 68.3147  16
  -4   2  14-148.954 166.899  11
   2  -4 -14 39.9071 54.4241  17
   2   4  14 52.4589 117.505   9
  -4  -2 -14 153.621 196.273  16
   4  -2 -14-61.2767 60.9192   5
   2   4  14 129.620 174.854   7
  -2  -4 -14-23.8630 58.0405  17
   2   4  14 2.99760 139.037  10
  -2  -4 -14 46.7618 143.126  16
   2   4  14-87.3055 196.525  15
  -2   4  14 189.688 181.461   1
  -2   4  14 189.182 208.351   9
  -4  -2 -14 79.7193 106.023   6
  -4  -2 -14 11.1715 120.751   8
  -2   4  14 21.2056 81.2918  18
   2  -4 -14-23.3586 197.161   6
  -2   4  14 33.2533 46.9083  11
  -2   4  14 42.1763 77.6137  10
   2  -4 -14-32.7728 86.3956   2
  -2  -4 -14-130.068 138.014   6
   2   4  14 6.59527 27.0982  18
  -4   2  14 54.9354 88.6538  18
   4  -2 -14-22.1020 92.9572  17
  -2   4  14 63.6654 190.472  20
   4  -2 -15 836.615 314.728  17
  -4   2  15 93.4664 89.2605  11
  -2  -4 -15 882.743 219.230   8
  -4   2  15 245.043 160.153  18
   2  -4 -15 805.981 338.212   2
  -4  -2 -15 990.145 392.358  16
  -2  -4 -15 900.036 369.084   6
   2  -4 -15 73.9251 157.223   6
  -4  -2 -15 825.415 294.481   8
  -4  -2 -15 768.291 404.480   6
  -2   4  15 838.600 368.749  10
  -4  -2 -15 1169.92 286.326   2
   2   4  15 496.166 260.311   9
  -2   4  15 390.290 328.400  20
  -2  -4 -15 998.893 249.603  17
  -2  -4 -15 1024.87 358.118  16
  -4   2  15 254.794 151.330   1
   4  -2 -15 906.238 239.974   5
  -2   4  15 610.441 309.143   9
  -2   4  15 466.982 178.732  18
   2   4  15 248.334 171.219  10
   2   4  15 598.965 202.030  11
   2   4  15 434.983 153.428  18
   2   4  15 672.377 389.622  20
   4  -2 -15 598.505 289.781  16
   2   4  15-180.833 321.744   7
   2  -4 -15 658.688 288.527  16
  -2   4  15 529.041 213.555  11
   4  -2 -15 697.837 317.845   2
   2  -4 -15 847.352 263.260  17
  -2  -4 -15 897.605 297.128   2
   2   4  15 172.542 144.909  15
   2  -4 -16 129.845 77.1370  17
   2   4  16 77.9052 51.1060  11
  -4   2  16 57.7554 102.018   1
  -2  -4 -16 175.760 152.312  16
  -2   4  16 55.0899 157.228   9
  -2   4  16 172.850 174.432  11
  -2   4  16 106.620 169.447  20
   4  -2 -16 229.701 158.974  17
  -4  -2 -16 106.127 81.4940   6
   4  -2 -16 134.012 113.211   5
  -4  -2 -16 277.005 279.776  16
   2  -4 -16 110.976 111.105   2
  -2  -4 -16 202.554 159.341  17
   2   4  16 85.8150 65.8582  20
   2  -4 -16-397.863 522.877   6
   2   4  16 56.3161 150.056  10
  -4  -2 -16 142.443 103.820   2
  -2   4  16-17.4785 85.6978  10
  -4   2  16-78.7800 187.161  18
   4  -2 -16 177.591 211.985   2
   4  -2 -16 99.6641 86.8360  16
  -2  -4 -16 165.952 189.316   6
  -4  -2 -16 208.331 185.691   8
  -2  -4 -16 276.109 191.231   2
  -2   4  16 161.419 146.089  18
   2   4  16 89.9917 157.516   9
   2  -4 -16 143.626 81.1204  16
   4  -2 -17 1333.61 417.863   2
  -4  -2 -17 1291.86 549.406  16
  -2  -4 -17 1186.08 434.069  16
  -4  -2 -17 1512.07 378.847   2
  -2  -4 -17 1483.00 404.631   2
   2   4  17 410.676 160.268  20
   2  -4 -17 1420.17 382.735  17
   2   4  17 516.180 179.805  11
  -2   4  17 854.584 323.767  11
   2  -4 -17 1649.78 501.516   2
  -4  -2 -17 1521.56 480.742   8
   2   4  17 505.673 292.522   9
   2  -4 -17 1150.42 430.075  16
  -2   4  17 681.095 371.286   9
  -4   2  17 15.1639 148.109  18
  -4   2  17 412.925 210.435   1
  -2  -4 -17 1362.71 528.175   6
   4  -2 -17 1261.47 380.907  17
   2   4  17 506.504 279.449  10
  -2   4  17 968.446 277.235  18
  -2   4  17 633.572 405.106  10
   4  -2 -17 1180.49 476.098  16
  -4  -2 -17 939.624 355.659   6
  -4  -2 -18 1654.83 481.369   6
  -2  -4 -18 2893.81 781.649   6
  -2   4  18 1463.53 364.668  18
  -4  -2 -18 2785.71 783.704  16
   4  -2 -18 2994.15 607.839  17
   2   4  18 638.620 295.187   9
   2  -4 -18 3117.19 685.210   2
  -2   4  18 1158.74 467.131   9
   4  -2 -18 2509.21 591.111   2
   2   4  18 1097.46 455.913  10
   2  -4 -18 2867.04 700.210  16
  -2  -4 -18 3203.18 623.679   2
   2  -4 -18 2758.41 547.029  17
  -2   4  18 1491.32 414.065  11
  -4  -2 -18 2720.59 623.343   8
  -2   4  18 1296.74 549.671  10
  -2  -4 -18 2644.45 696.241  16
   4  -2 -18 2261.56 682.379  16
  -2   4  19 60.2995 98.8684   9
  -2  -4 -19 389.517 337.772  16
  -2   4  19 320.948 211.106  18
   2   4  19-101.542 339.342   9
  -2   4  19 310.385 183.840  11
   4  -2 -19 368.810 155.689  17
   4  -2 -19 605.908 322.588   2
   2   4  19 209.441 181.404  10
   4  -2 -19 777.409 395.062  16
  -2  -4 -19 627.864 393.229   6
  -4  -2 -19 411.264 319.057  16
  -4  -2 -19 540.224 280.404   8
   2  -4 -19 1768.52 509.842  17
  -2   4  19 314.767 152.012  10
   2  -4 -19 1570.00 548.637  16
   2  -4 -19 1931.32 606.442   2
  -2  -4 -19 913.338 403.697   2
   4  -2 -20 2204.05 591.861   2
   4  -2 -20 2383.72 689.212  16
  -4  -2 -20 2355.75 787.288  16
  -2  -4 -20 1115.74 483.397   6
  -2  -4 -20 2836.63 623.234   2
  -2   4  20 536.522 148.570  18
   2  -4 -20 2768.53 693.305   2
   2  -4 -20 2385.12 701.399  16
  -2   4  20 121.402 197.915   9
  -2  -4 -20 2486.32 739.709  16
   4  -2 -20 2172.71 473.714  17
  -2   4  20 678.317 200.987  11
   2  -4 -20 2767.50 569.913  17
  -4  -3  -1 18.9273 32.1210   8
   4   3   1 123.260 81.5581  19
  -4  -3  -1 53.9332 49.9242  14
  -4   3   2 732.120 275.153   1
   4   3   2 1645.03 306.783  12
  -4  -3  -2 1407.99 282.027  14
   4   3   2 1814.11 292.373  19
  -4  -3  -2 1055.85 255.777   6
  -4  -3  -2 1434.42 283.740   8
   4   3   3 132.984 94.8639   3
  -4   3   3 50.9040 96.5947   1
  -4  -3  -3 143.743 95.9652   6
  -4   3   3 146.010 143.559  13
   3   4   3 105.455 68.7964  12
   4   3   3 154.103 71.5774  12
  -4   3   3 67.3925 18.7720  18
  -4  -3  -3 132.272 69.3383   8
  -4  -3  -3 135.089 79.6933  14
   4   3   3 142.075 87.8214  19
  -4   3   4 1088.86 261.523  13
   4   3   4 1008.43 197.447  19
   3   4   4 1019.63 305.522   3
  -4  -3  -4 924.573 217.861   6
  -4   3   4 1230.62 329.268  18
  -4   3   4 1066.80 378.749   1
   4  -3  -4 407.716 132.015   2
  -3   4   4 1012.37 334.687  13
   3   4   4 1105.71 245.153  12
  -3  -4  -4 553.155 188.612   6
  -3  -4  -4 666.692 224.338   8
   4   3   4 1012.41 254.810   3
   4   3   4 989.596 209.617  12
   4   3   4 890.995 162.885   5
   4  -3  -4 374.162 190.337  17
  -4  -3  -4 909.557 197.770  14
   4   3   4 901.101 186.143   4
  -4  -3  -4 951.994 205.748   8
  -4   3   5 3063.00 399.988  13
   3   4   5 3377.16 413.519  12
  -3  -4  -5 2237.07 386.904   6
  -4   3   5 3105.31 606.623   1
   4   3   5 3065.34 345.265   4
  -3  -4  -5 2346.53 378.035  14
  -3   4   5 3892.64 595.197  13
   4   3   5 2838.80 362.199  12
  -4   3   5 3517.28 485.183  18
  -4  -3  -5 3278.31 574.936  16
  -3   4   5 2962.36 530.404  18
   4  -3  -5 2058.04 439.226  17
   4   3   5 3192.15 424.579   3
   3   4   5 3693.58 483.727  19
   4   3   5 3130.47 343.270  19
   4  -3  -5 2093.01 397.163   2
  -4  -3  -5 2802.47 338.431   8
  -3  -4  -5 2395.86 390.190   8
  -4  -3  -5 3011.09 397.583   6
   3   4   5 3638.18 525.060   3
  -4  -3  -5 3272.65 362.271  14
   4   3   6 5.39347 32.2387   4
  -4   3   6 13.1302 61.6699   1
  -3  -4  -6 32.6754 76.7059  14
  -4  -3  -6 5.57477 13.2105   6
   3   4   6-16.8818 38.3018   3
  -4  -3  -6 57.6088 93.9515  16
  -3   4   6-121.690 213.783   1
   4  -3  -6-20.8883 43.9404  16
   4  -3  -6 11.4442 68.9163   2
   4   3   6-0.75166 95.1286  13
  -3   4   6 70.5434 82.2702  18
  -3   4   6-21.9839 54.9006  13
   4   3   6 2.87021 46.2207   3
   3   4   6-13.7032 31.6259  19
  -4  -3  -6 2.78033 22.4800   8
  -3  -4  -6-132.992 253.665  16
   3   4   6 75.2715 104.774  13
  -3  -4  -6 28.3296 43.1025   6
   3  -4  -6 62.4900 75.5689   2
   3   4   6 14.0344 72.8967  12
   3   4   6-34.9823 68.1511   4
   4   3   6 11.8724 31.2428  12
   4   3   6 33.5152 46.9758  19
  -4  -3  -6 12.5329 32.1162  14
  -3  -4  -6 5.44471 44.3376   8
  -4   3   6-5.87690 30.4564  13
   3  -4  -6 67.4068 101.292  17
  -3   4   6 10.5590 19.8392   3
   4  -3  -6-62.8613 104.308  17
  -4   3   6-2.45468 28.3609  18
   4  -3  -6-39.6693 96.5725   5
  -3  -4  -7 4713.40 716.508  16
   3   4   7 4450.12 524.289   3
   4  -3  -7 3993.33 519.655   2
   4  -3  -7 3695.87 428.094  16
  -4  -3  -7 4220.99 428.665   8
  -3  -4  -7 3903.31 423.642   8
   3  -4  -7 2593.92 435.930  16
   4   3   7 4187.31 452.848   4
   4   3   7 3365.89 443.521   3
  -3  -4  -7 4295.30 525.222   6
  -4   3   7 4246.16 615.083   1
   4   3   7 3781.44 446.570  12
   3   4   7 3743.25 683.245  13
  -3   4   7 4568.67 544.994  13
  -4   3   7 4056.37 440.560  13
  -3   4   7 2264.03 547.213   1
   3  -4  -7 2888.68 562.513  17
   4  -3  -7 3304.36 540.835   5
  -4   3   7 4908.29 534.962  18
  -4  -3  -7 5744.26 695.569  16
  -3   4   7 4681.49 461.101   3
   3   4   7 4583.93 405.317   4
   3   4   7 5680.41 511.279  19
  -4  -3  -7 4980.11 536.119   6
  -3  -4  -7 4787.85 442.174  14
   3   4   7 4201.19 457.822  12
   3  -4  -7 2810.80 513.632   2
  -4  -3  -7 4480.18 413.899  14
  -3   4   7 5029.70 613.896  18
   4   3   7 4146.30 407.489  19
   4   3   7 3535.06 523.334  13
   4  -3  -7 3896.12 554.496  17
   3   4   8 1087.29 210.924  19
   4   3   8 677.256 222.877  13
  -3  -4  -8 955.609 208.776   8
  -4  -3  -8 874.057 201.005   8
   4   3   8 843.417 231.196   4
  -4   3   8 1048.71 276.462  11
   3   4   8 790.415 195.884  12
   4  -3  -8 822.051 246.549  17
  -3  -4  -8 958.138 186.633  14
   3   4   8 891.721 187.553   4
   3   4   8 884.572 281.936  13
   3  -4  -8 663.613 216.228  16
  -3  -4  -8 926.561 293.919  16
  -3   4   8 897.942 250.674  18
   4   3   8 730.345 205.217   3
  -4   3   8 1260.36 398.637  20
  -3   4   8 623.862 266.034   1
  -3   4   8 818.879 186.959   3
   4   3   8 732.434 216.783  12
  -4   3   8 791.432 252.929   1
   4   3   8 733.173 182.308  19
  -4   3   8 851.915 165.824   3
   3  -4  -8 682.140 272.678  17
   4  -3  -8 851.268 245.789   5
   3  -4  -8 769.257 278.627   2
  -4   3   8 828.144 215.816  18
  -4  -3  -8 986.635 251.309   6
  -3   4   8 889.969 236.187  13
  -3  -4  -8 940.135 251.432   6
   4  -3  -8 784.851 199.800  16
  -4  -3  -8 1016.78 199.856  14
   4  -3  -8 756.159 247.347   2
   3   4   8 936.662 241.002   3
  -4  -3  -8 961.364 280.047  16
  -3  -4  -9 1992.83 441.849  16
  -4   3   9 1474.07 344.667   1
   3   4   9 1675.98 326.937   3
   4  -3  -9 1683.10 357.982  17
   4  -3  -9 1633.25 347.441   5
  -4  -3  -9 2010.85 381.804   6
   4   3   9 1406.75 251.135  19
   4   3   9 1233.78 296.427  13
   4   3   9 1461.35 346.228   4
  -3  -4  -9 1808.26 249.149  14
  -4  -3  -9 2264.92 439.195  16
   3   4   9 1842.63 294.285   4
  -4   3   9 1998.68 388.974  11
  -3   4   9 1610.35 263.338   3
  -4   3   9 2192.27 543.254  20
  -3   4   9 1951.02 355.961  18
  -4  -3  -9 1854.40 296.076  14
   4  -3  -9 1557.06 337.814   2
  -3   4   9 1456.52 449.341   1
   3  -4  -9 1482.71 317.340  16
   3   4   9 1951.62 279.987  19
  -4   3   9 1589.85 310.809  18
   4  -3  -9 1443.53 289.359  16
  -3   4   9 1592.70 317.708  13
   3  -4  -9 1574.25 363.930   2
   3  -4  -9 1688.99 381.075  17
   4   3   9 1632.34 381.572  20
   3   4   9 1531.98 377.788  13
   3   4   9 1562.05 290.561  12
  -3  -4  -9 1759.59 274.594   8
  -4  -3  -9 1698.82 290.274   8
  -3  -4  -9 2002.94 368.767   6
  -4   3   9 1683.62 244.860   3
  -3  -4 -10 198.657 152.116   6
   3   4  10 25.2845 78.1889  13
  -3   4  10 361.535 238.412   7
  -3  -4 -10 260.685 188.932  16
   4  -3 -10 163.930 98.3650  17
  -4   3  10 140.803 101.679  18
  -3   4  10 101.538 99.0419  13
   4   3  10 122.029 102.015  10
  -3  -4 -10 216.594 111.149   8
   4   3  10 173.093 141.657   7
   4  -3 -10 72.1329 60.6513   2
   4   3  10 166.868 156.760   4
   4   3  10 45.3250 57.7655  19
  -4  -3 -10 35.4255 87.1473  16
   4   3  10 107.664 121.659  15
  -3   4  10 99.6212 69.1705   3
   3   4  10 62.2258 87.4190   3
  -3   4  10 117.361 111.464  15
  -4   3  10 180.600 148.707  11
  -3   4  10 103.531 99.2012  18
   3   4  10 104.385 59.3679  19
   3  -4 -10 48.6665 67.4045  16
  -4   3  10 83.3713 76.9906  10
   4  -3 -10 134.333 106.939   5
  -4  -3 -10 274.067 164.088   6
   3  -4 -10 145.043 105.146  17
   4   3  10 155.872 150.159  20
  -3  -4 -10-275.576 373.150   2
  -3  -4 -10 161.332 81.6108  14
   3  -4 -10 96.7714 88.6122   2
  -4   3  10 148.030 119.623   1
  -4  -3 -10 92.9267 52.3810   8
  -4  -3 -10 140.153 81.6288  14
   3   4  10 95.1618 56.2126  11
   4  -3 -10 61.3613 42.5094  16
   3   4  10 148.778 108.042  12
   3   4  10 192.613 110.680   4
  -3   4  10 94.5966 87.4914   1
   3  -4 -10 86.5971 127.309   6
  -4   3  10 189.548 214.680  20
   3   4  11 263.903 150.940   3
   4   3  11 265.049 170.822   9
   4  -3 -11 291.582 161.639  17
  -3   4  11 179.201 45.3935   7
  -3   4  11 211.201 146.778  11
   3   4  11 259.451 85.7714   4
   3   4  11 174.958 69.9515  19
   4  -3 -11 193.301 146.138   2
  -4  -3 -11 315.196 136.406   8
   3  -4 -11 231.394 125.528  16
  -4   3  11 181.323 102.687  18
   4   3  11 191.765 179.568   7
  -4  -3 -11 300.148 156.215  14
   4  -3 -11 227.985 139.253  16
  -3  -4 -11 321.713 184.229  16
  -3   4  11 142.324 62.0005   3
  -3  -4 -11 142.285 153.716   2
  -4  -3 -11 276.293 156.893   6
  -4   3  11 61.5479 82.4251   9
  -4   3  11 161.131 132.477   1
   3   4  11 230.084 146.361  12
  -3   4  11 131.687 48.3153  12
   4   3  11 285.371 176.556  20
   3   4  11 204.740 70.3930  11
  -4   3  11 244.813 162.155  11
  -4  -3 -11 230.127 160.518  16
   4  -3 -11 90.0979 35.4035   5
  -3  -4 -11 230.072 168.086   6
  -4   3  11 172.142 133.397  10
  -4  -3 -11 416.480 163.524   2
  -3   4  11 112.477 72.7264  15
  -4   3  11 362.291 268.583  20
   3   4  11 309.476 189.912  13
  -3   4  11 249.882 137.848  18
  -3  -4 -11 297.111 107.078   8
   3  -4 -11 89.3541 83.5225  17
  -3   4  11 159.800 122.464   1
   4   3  11 286.984 176.808  10
   4   3  11 212.665 93.5720  19
   3  -4 -11 276.123 171.475   2
   3  -4 -11 146.739 44.6409   6
  -3   4  11 352.372 262.508  20
  -3  -4 -11 313.178 108.965  14
   4   3  11 224.021 139.165  15
  -4   3  12 543.030 221.126  11
  -3   4  12 697.072 356.179   1
  -4  -3 -12 1071.59 361.053  16
  -4   3  12 539.990 310.407   9
  -4  -3 -12 1508.04 332.214   8
   4   3  12 632.344 357.967   7
  -4  -3 -12 1268.02 390.997  14
   4   3  12 869.502 408.329  20
   4   3  12 1036.17 469.201  15
  -4  -3 -12 936.270 336.118   6
  -3   4  12 562.017 169.373   3
   4  -3 -12 748.812 287.484   2
   3  -4 -12 724.614 342.284   2
   3  -4 -12 678.928 262.018  16
   4  -3 -12 698.436 237.103   5
  -4   3  12 350.600 152.579   1
   4  -3 -12 1013.97 318.729  17
   3  -4 -12 1417.18 520.966   5
  -3   4  12 1529.63 502.703  10
  -4  -3 -12 1296.75 265.537   2
   3  -4 -12 1101.34 374.935  17
  -4   3  12 347.418 162.843  20
  -4   3  12 376.263 153.450  18
  -3   4  12 594.047 249.489  11
  -3   4  12 614.546 215.585  18
  -3   4  12 729.496 448.156  20
   4   3  12 1082.69 244.850  19
   3  -4 -12 1409.81 606.900   6
   4  -3 -12 480.352 211.528  16
  -4   3  12 320.310 227.967  10
  -3   4  12 600.135 168.246  12
  -4  -3 -13-58.6296 122.644   6
   4  -3 -13 60.1573 98.8390  17
   4  -3 -13 99.7511 103.770   2
  -3   4  13 67.8557 74.5913  11
   4   3  13-19.0594 58.2219   9
  -3   4  13 95.1998 75.9805  12
  -3  -4 -13 80.5144 62.0345   8
  -3   4  13 11.1657 53.0347  10
   4  -3 -13-43.2245 71.2654   5
   3  -4 -13-74.4000 121.434  17
   3  -4 -13 12.4899 31.2023   2
   3   4  13 44.5776 62.0084  18
  -4  -3 -13 31.9423 69.7481   8
  -4  -3 -13-31.6884 111.104  16
   3  -4 -13-35.7441 71.6609  16
  -4   3  13 55.6126 63.2805  18
   4   3  13 42.0480 9.40692   7
   4   3  13-27.3484 94.6224  10
  -3  -4 -13-63.9590 104.800   6
   4  -3 -13-55.6943 126.457  16
   3   4  13-20.0321 55.4794   7
   4   3  13 118.068 155.007  15
   3  -4 -13 59.4439 136.667   6
   3   4  13 60.6548 49.9935  19
   4   3  13-145.677 201.575  20
  -4   3  13 191.585 209.765   9
   3   4  13 103.429 59.0585  11
  -3  -4 -13-24.3300 49.3183  17
  -4   3  13-95.7349 128.589  10
  -4   3  13 56.7890 73.8868   1
   3   4  13 69.8737 179.356  20
  -3  -4 -13-4.63573 93.6671  16
  -3  -4 -13 65.5519 131.921  14
  -3   4  13 26.6732 23.1388  18
  -4  -3 -13-157.985 171.815  14
  -3   4  13-80.6608 201.282  20
   3   4  13 30.8019 170.273  15
  -3   4  13 88.2893 102.054   1
   3   4  13-10.1876 79.7265  10
  -3  -4 -13-9.71244 41.7118   2
  -4   3  13 25.0072 78.3750  11
  -4  -3 -13 11.6092 42.5914   2
   4   3  13 8.28801 19.3736  19
   3  -4 -13-27.5881 120.870   5
   4  -3 -14 496.413 246.412  16
  -4  -3 -14 459.719 250.043   6
   4  -3 -14 676.364 265.834  17
   3  -4 -14 327.927 181.175  16
  -3  -4 -14 474.558 217.664   2
  -4  -3 -14 599.989 224.561   8
   4   3  14-131.805 270.110  15
  -3  -4 -14 524.039 172.463   8
  -4  -3 -14 673.043 190.849   2
  -4   3  14 182.583 132.504   1
   4  -3 -14 320.792 160.769   2
   4   3  14-13.8738 214.246   9
   4   3  14 165.547 136.075  19
   4  -3 -14 293.423 134.837   5
  -3  -4 -14 705.434 293.681   6
   4   3  14 166.654 131.576  10
   3  -4 -14 461.666 233.907   2
  -3   4  14 367.658 228.592  10
   4   3  14-114.651 307.337   7
  -3  -4 -14 532.185 278.467  16
  -3  -4 -14 362.001 199.407  14
  -3   4  14 254.796 150.106   1
  -3   4  14 384.065 303.828  20
   3   4  14 470.559 241.419   9
  -4  -3 -14 250.597 112.901  16
  -4  -3 -14 195.804 113.893  14
  -3   4  14 436.950 229.275  11
   3  -4 -14 459.657 189.627  17
   3   4  14 198.302 149.159  20
  -3   4  14 381.934 273.498   9
   3   4  14 393.584 198.652  10
  -4   3  14 309.585 216.056   9
  -3   4  14 264.840 130.116  18
  -3  -4 -14 785.272 201.073  17
  -4   3  14 324.667 155.452  18
   3   4  14 613.020 355.286   7
  -4   3  14 473.369 250.566  11
  -4   3  14 341.360 270.431  10
   3   4  14 391.632 144.379  11
   3   4  14 446.718 320.194  15
   4   3  14 44.9841 79.9614  20
   3  -4 -14-9.17945 187.191   6
  -4  -3 -15-26.8119 87.2801   6
  -3   4  15 44.1657 147.665  10
  -4   3  15 17.2650 23.9816  11
   3   4  15 27.7837 39.5846  20
   3  -4 -15-9.99877 142.915  16
  -4  -3 -15 23.8874 69.5913   2
  -3   4  15 9.75983 29.8648  11
  -3  -4 -15 67.6127 92.2398   8
   3  -4 -15-391.184 485.356   6
  -3  -4 -15-68.5201 95.9803   6
   3  -4 -15 22.5318 62.3800  17
   4   3  15-96.6173 164.288  10
   3   4  15 43.2427 149.288  10
  -3  -4 -15 7.98219 127.053  16
   3   4  15-126.995 141.300  11
  -3   4  15 148.568 220.002   9
   4  -3 -15 23.8107 87.3042  16
  -3   4  15-33.8738 83.9474  18
   3   4  15-707.870 410.166   7
   4  -3 -15 61.0661 70.3907  17
  -4   3  15 1.09821 92.2463   1
  -3   4  15-165.607 396.002  20
  -4   3  15-0.07919 62.5387  18
   4  -3 -15-57.0180 35.7275   5
  -3  -4 -15 22.6986 52.0042   2
   4   3  15 39.8070 101.785  19
   3   4  15-28.1877 108.941   9
   3  -4 -15 43.3255 111.847   2
  -4  -3 -15-64.9699 92.6772  16
  -4   3  15-132.678 254.136   9
  -4  -3 -15-17.8088 54.8764   8
   3   4  15-185.451 280.727  15
  -4   3  15-34.1854 198.547  10
   4  -3 -15-80.8210 156.657   2
  -3  -4 -16 278.956 182.253   2
   3   4  16-71.5293 115.560  20
   3  -4 -16 112.240 65.1950  16
  -3   4  16 102.015 85.7643  18
   3  -4 -16 81.1291 45.1432  17
  -4   3  16 33.5604 95.1209   1
  -4  -3 -16 308.948 164.930   2
   3   4  16-395.266 469.002  15
  -3  -4 -16 291.375 248.632   6
  -3   4  16 53.7547 52.7621   9
  -3  -4 -16 225.060 138.535   8
  -4   3  16 8.09543 62.6342  11
   3   4  16-119.232 180.477  11
  -3  -4 -16 155.881 178.127  16
   3   4  16-272.515 399.906   7
  -4  -3 -16 130.686 90.7664  16
  -3   4  16 252.128 263.212  10
  -4  -3 -16 96.2270 86.5630   8
  -4   3  16-473.453 307.513   9
  -4  -3 -16 13.3806 66.0299   6
   3   4  16 149.717 179.136  10
  -3   4  16 44.0274 47.7491  11
   3  -4 -16 233.539 177.313   2
  -4   3  16 122.472 116.681  18
   3   4  16-22.2164 80.5897   9
   4  -3 -16 145.864 111.265  16
   4  -3 -16 135.362 139.845  17
   4  -3 -16 103.039 126.246   2
   3  -4 -17 1450.07 380.337  17
   3  -4 -17 1715.28 496.904   2
  -3   4  17 954.504 360.078  11
  -3   4  17 763.569 405.612   9
  -3  -4 -17 2057.07 477.740   2
   4  -3 -17 1705.15 469.182   2
  -4   3  17 881.246 311.737  18
   4  -3 -17 1502.69 419.075  17
   3   4  17 505.262 276.893   9
  -4  -3 -17 1631.12 528.815  16
  -3   4  17 718.794 414.723  10
  -4   3  17 678.646 310.844  11
   4  -3 -17 1530.74 519.068  16
  -3  -4 -17 1668.11 541.896  16
  -3   4  17 989.731 288.642  18
  -3  -4 -17 1478.58 536.262   6
   3  -4 -17 1279.57 448.060  16
   3   4  17 459.413 266.083  10
  -4  -3 -17 1343.26 487.809   6
   3   4  17 518.569 301.939  20
  -4  -3 -17 1438.28 385.180   8
  -4   3  18 391.592 170.503  18
  -3  -4 -18 1307.64 516.294  16
   4  -3 -18 966.101 355.479  17
   3  -4 -18 739.289 278.851  17
  -4  -3 -18 973.512 473.046  16
   4  -3 -18 1015.06 454.928  16
  -4  -3 -18 955.414 444.707   6
   3   4  18 84.7981 182.052   9
   3   4  18 129.900 113.717  10
  -4  -3 -18 827.941 330.968   8
   3  -4 -18 856.329 385.448   2
  -3   4  18 510.006 222.594  11
  -4   3  18 29.4032 207.411  11
  -3  -4 -18 1328.31 386.675   2
   4  -3 -18 901.930 355.595   2
  -3  -4 -18 848.649 386.314   6
  -3   4  18 504.812 203.655  18
  -3   4  18 281.824 153.380  10
   3  -4 -18 863.564 391.577  16
  -3   4  18 110.038 97.8473   9
  -3   4  19 1548.27 395.843  18
   3  -4 -19 3629.69 755.285   2
  -4  -3 -19 2432.99 710.623   6
   3  -4 -19 2489.46 671.815  16
  -3   4  19 979.357 369.952   9
   4  -3 -19 3158.57 722.624   2
   4  -3 -19 2771.65 758.822  16
  -3   4  19 1511.49 388.040  11
   4  -3 -19 3187.98 649.126  17
   3  -4 -19 2993.89 600.969  17
  -4   3  19 791.551 211.378  18
  -3  -4 -19 2938.47 823.899   6
  -4  -3 -19 3795.94 880.769  16
  -3  -4 -19 3303.45 779.123  16
  -4  -4  -3-54.9632 159.220   8
   4   4   3-13.5045 64.0086  12
  -4  -4  -3-62.4957 165.569   6
  -4   4   4 376.195 209.568  13
  -4  -4  -4 184.384 125.881  14
   4   4   4 383.371 206.638   3
  -4  -4  -4 144.282 94.0705   6
   4   4   4 318.649 138.148  12
   4   4   4 335.070 149.351  19
  -4   4   4-37.6967 180.395   1
  -4   4   4 117.334 84.9381  18
  -4  -4  -4 198.893 123.788   8
  -4   4   5 11.3851 90.5938  13
  -4   4   5 36.5625 110.032  18
   4   4   5-49.3798 68.5678   3
  -4  -4  -5-19.3010 39.9573  14
   4   4   5-18.6467 45.9932  19
  -4  -4  -5-3.73241 25.5181   8
  -4   4   5-32.7340 137.007   1
   4   4   5 24.2937 69.4547  12
  -4  -4  -5-2.33910 47.9560   6
  -4   4   6 3130.91 477.243  13
  -4  -4  -6 2577.86 366.244  14
  -4   4   6 2427.52 394.422   3
   4   4   6 2721.83 383.658  12
   4  -4  -6 1403.09 367.784   2
   4   4   6 2695.42 348.952   4
  -4   4   6 2326.92 590.684   1
   4   4   6-11.7456 198.132  13
   4  -4  -6 965.326 326.619  17
  -4  -4  -6 2370.94 352.828   8
  -4  -4  -6 2590.19 411.316   6
   4   4   6 3149.03 395.355  19
  -4   4   6 3000.98 517.607  18
   4   4   6 2923.96 464.566   3
  -4   4   7 0.87176 19.2271   3
   4  -4  -7-41.3312 106.047   2
   4   4   7-15.7396 33.3019   3
  -4   4   7 45.1002 56.8401   1
  -4  -4  -7 26.1784 49.2538   6
  -4  -4  -7-83.5413 187.716  16
   4   4   7 21.5685 49.7600  12
   4   4   7 22.9019 43.8545  13
   4   4   7-1.70098 54.2856  19
  -4   4   7 30.5569 84.3962  18
  -4   4   7 12.4670 38.2957  13
  -4  -4  -7-23.2371 33.3194  14
   4   4   7-32.8765 60.9991   4
   4  -4  -7-73.2117 123.293  17
   4  -4  -7-64.4884 150.015  16
  -4  -4  -7-5.37722 9.58549   8
  -4   4   8 2930.47 428.865  13
  -4  -4  -8 3292.36 477.453   6
  -4  -4  -8 3110.98 363.520  14
   4   4   8 2388.68 539.761  13
  -4  -4  -8 3000.69 389.176   8
  -4   4   8 2812.16 629.173   1
   4   4   8 3089.23 388.376   4
   4  -4  -8 2300.40 456.700   2
  -4  -4  -8 3637.87 634.391  16
   4  -4  -8 2276.60 480.715  17
   4   4   8 3413.81 395.028  19
   4   4   8 2731.12 400.134  12
  -4   4   8 3406.79 500.077  18
   4   4   8 2730.82 436.522   3
   4  -4  -8 2236.91 397.565  16
  -4   4   8 3099.65 364.813   3
   4   4   9 1.70670 25.0502  12
   4  -4  -9-32.0596 78.5369  16
   4  -4  -9 39.8284 69.2933  17
  -4   4   9 18.5116 56.1163  13
   4   4   9-26.5519 83.4317  13
   4  -4  -9 55.8344 112.945   2
   4   4   9-41.0539 64.1831   3
  -4   4   9 31.1322 69.5230  18
  -4  -4  -9 62.2764 57.5972  14
   4   4   9-43.3803 72.1946   4
   4   4   9-0.80140 32.7801  19
  -4   4   9-8.94486 48.7268   1
  -4  -4  -9 10.3578 96.7468  16
  -4  -4  -9-30.4274 79.5682   6
  -4  -4  -9 20.4740 65.1881   8
  -4   4   9 29.9272 30.9339   3
  -4   4  10 1174.97 277.415  18
  -4   4  10 1044.35 272.434  13
  -4  -4 -10 1202.77 234.712   8
   4   4  10 970.618 266.085   3
  -4  -4 -10 1242.59 311.329   6
  -4  -4 -10 1625.28 417.802  16
   4   4  10 933.145 295.609  13
   4  -4 -10 1242.88 338.733   2
   4   4  10 847.049 229.674  12
   4  -4 -10 1016.93 318.394  17
  -4   4  10 1171.47 384.812   1
  -4   4  10 1687.67 406.714  11
  -4  -4 -10 1240.14 231.428  14
   4   4  10 1311.26 244.611  19
  -4   4  10 1146.44 222.840   3
   4  -4 -10 1112.69 290.079  16
   4   4  10 1197.30 279.504   4
   4   4  11 938.398 294.697   4
   4  -4 -11 212.848 79.8744  16
  -4   4  11 311.426 234.842   1
  -4   4  11 534.037 397.160  20
   4  -4 -11 331.856 224.517   2
  -4  -4 -11 531.045 209.487   6
  -4   4  11 360.737 151.884  13
   4   4  11 647.663 175.436  11
   4  -4 -11 364.213 244.426   5
  -4   4  11 333.345 180.321  11
  -4  -4 -11 241.275 107.896  14
  -4  -4 -11 211.430 147.348  16
  -4   4  11 190.073 126.685  18
  -4   4  11 88.4843 46.8623   3
  -4   4  12 92.0834 82.7253   3
   4   4  12 54.6694 130.910  13
  -4   4  12 163.739 187.543  20
   4   4  12 47.2024 70.5914  19
   4   4  12 114.807 156.190  15
   4  -4 -12-149.586 128.191   6
  -4   4  12 139.892 176.529   1
   4   4  12 24.1373 106.574  12
  -4  -4 -12 83.4787 61.1315   6
  -4  -4 -12 139.495 182.135  16
   4   4  12-2.23397 85.2604  20
   4  -4 -12 79.6112 110.744  16
  -4  -4 -12 111.642 82.6802   2
   4  -4 -12 136.972 112.302   2
   4   4  12 29.2065 94.6972  10
  -4   4  12 101.331 95.5667  18
  -4  -4 -12 150.141 125.812  14
   4   4  12 94.9496 104.926   3
   4   4  12 60.8775 11.5025  11
  -4  -4 -12 68.3523 70.7065   8
   4   4  12-77.5815 158.726   4
   4  -4 -12 16.0509 35.1285  17
  -4   4  12 87.0062 52.8403  10
  -4   4  12 202.555 91.6874  11
   4  -4 -12 1.28658 65.7433   5
   4   4  12 147.790 217.307   7
   4   4  13 240.604 246.075   7
  -4   4  13 74.5503 110.922   1
   4   4  13 26.6301 25.0917  11
   4   4  13 114.001 163.914   9
  -4  -4 -13-9.61525 31.9097   8
  -4  -4 -13 1.94061 93.6423   2
   4   4  13 99.3258 123.851  13
  -4   4  13 169.332 182.128  10
  -4  -4 -13-49.6806 76.8138  14
   4   4  13 170.203 148.842  12
   4  -4 -13-46.6282 89.6590   5
  -4   4  13 94.0374 210.760  20
  -4   4  13 46.4727 121.226  11
  -4   4  13-5.58406 20.6702  18
   4   4  13 96.1073 146.434  20
   4   4  13 26.7270 33.2282  19
   4  -4 -13-31.4309 101.665   2
  -4  -4 -13 4.97243 58.5362  16
   4   4  13 93.0778 219.182  15
   4   4  13 19.5864 94.4082  10
   4  -4 -13-56.7149 92.1983  17
   4  -4 -13 23.5557 88.5334  16
  -4   4  13 58.3797 77.4289   3
  -4  -4 -13 131.156 152.740   6
  -4   4  14-2.39779 54.6616   1
   4  -4 -14 68.7884 95.2118   5
  -4   4  14 115.319 106.053  11
   4   4  14-64.0377 64.8106  10
   4  -4 -14 55.6425 102.617  16
   4  -4 -14 113.342 153.009   2
  -4   4  14 88.1029 89.3215  18
  -4  -4 -14 90.8886 95.6183   8
   4   4  14-90.7148 182.598   7
  -4  -4 -14 340.441 236.428   2
  -4  -4 -14 134.797 160.611   6
  -4   4  14 22.1175 253.987  10
  -4   4  14 190.594 252.925   9
   4   4  14 76.6493 108.597  15
  -4  -4 -14-140.423 134.975  16
  -4   4  14 99.3248 324.654  20
  -4  -4 -14 136.904 104.274  14
   4   4  14 35.4404 77.8381  11
   4  -4 -14 47.1493 77.4792  17
   4   4  14 79.8590 161.652  20
   4   4  14 36.7275 65.8456  19
   4   4  14 143.221 135.465   9
   4  -4 -15-60.7639 49.8116  17
   4   4  15-23.4328 200.602  15
   4  -4 -15-7.38923 119.609   2
  -4  -4 -15-172.632 129.216   2
  -4   4  15 92.7754 185.897   9
   4  -4 -15 18.6592 44.9912  16
   4   4  15-66.6109 153.600   9
  -4  -4 -15-290.791 202.299  16
   4   4  15-51.2192 90.3563  10
  -4   4  15-53.9497 81.6310  11
  -4   4  15-44.4343 116.068   1
  -4   4  15-173.950 446.076  20
   4   4  15-144.078 155.818  20
   4   4  15-51.1491 261.180   7
  -4   4  15-54.1687 74.6098  18
  -4  -4 -15 19.2636 101.665   6
  -4  -4 -15-19.0007 8.24469   8
  -4   4  15-32.6825 105.136  10
   4  -4 -16 259.807 178.796  17
   4   4  16 136.873 72.9621  10
   4   4  16 182.200 121.809   9
   4  -4 -16 288.010 226.431  16
  -4  -4 -16 248.449 147.249   8
   4   4  16 32.1502 133.346  20
  -4   4  16 27.2515 217.016  10
  -4   4  16 127.292 123.512  18
   4   4  16-3.37470 322.202  15
  -4   4  16 337.249 343.326   9
  -4  -4 -16 200.646 188.925   6
   4  -4 -16 181.345 187.425   2
  -4   4  16 221.603 185.070  11
  -4  -4 -16 308.772 228.121  16
   4   4  16-29.4631 332.232   7
   4   4  17 25.0668 73.8290  10
  -4   4  17-6.99867 118.509  11
   4   4  17-325.399 208.034   9
   4  -4 -17-25.8259 116.631  16
  -4  -4 -17-124.555 134.624   8
   4  -4 -17 31.0088 142.843  17
   4   4  17-546.607 332.642  20
  -4   4  17 139.370 241.672  10
   4  -4 -17-119.003 218.766   2
  -4  -4 -17 90.1874 173.120   6
  -4   4  17 39.9685 142.248  18
  -4  -4 -17-60.3978 187.761  16
  -4   4  17-94.9498 193.862   9
   4   4  18 491.461 167.751   9
   4  -4 -18 2159.17 586.972  16
  -4  -4 -18 3100.51 761.081  16
  -4   4  18 1783.39 444.177  18
  -4  -4 -18 2533.67 716.016   6
   4   4  18 827.435 325.293  10
   4  -4 -18 2706.25 660.173   2
  -4   4  18 1871.89 516.219  11
  -4   4  18 704.931 192.437  10
   4  -4 -18 3040.25 627.288  17
  -4   4  18 742.510 104.762   9
  -4  -4 -19-3.66813 52.6565  16
   4  -4 -19 5.18993 73.7481  17
  -4   4  19-16.7018 123.070  18
   4  -4 -19 87.8365 176.885   2
  -4   4  19-34.8316 140.875  11
   4  -4 -19-31.9871 127.330  16
  -4  -4 -19-26.1233 64.1352   6
  -5   0   0 5.88460 23.1151   8
   5   0   0-1.28230 16.8611   4
  -5   0   0-8.85229 26.9060  14
   5   0   0 36.1982 45.8945  19
   5   0   0-2.60647 33.2475   5
  -5   0   0 3.54232 21.6752   1
  -5   0   1 354.207 124.400   1
  -5   0  -1 313.107 127.246   1
   5   0  -1 321.589 126.502  19
  -5   0   1 394.478 116.450   8
  -5   0  -1 492.095 148.695   8
   5   0  -1 320.854 116.214   4
   5   0   1 300.378 133.425   5
   5   0   1 320.028 138.901   4
   5   0  -1 306.601 116.516   5
   5   0   1 238.464 107.791  19
  -5   0   1 400.917 134.984  14
  -5   0  -1 432.238 152.173  14
   5   0   2-27.2841 32.1208   7
  -5   0   2-25.3645 18.2107  14
  -5   0   2 3.52254 34.9859   8
   5   0  -2-17.1051 37.5291   4
   5   0   2-9.49455 44.5545   4
   5   0  -2 3.50404 4.74363  19
  -5   0  -2-32.5179 34.8629  14
   5   0   2 12.8966 46.6940  19
   5   0   2-52.3436 62.4717  15
   5   0  -2-12.1254 9.64070  17
  -5   0   2 29.0689 54.3971   1
  -5   0  -2 6.97586 22.0477   6
   5   0   2-1.13968 31.4113   5
  -5   0  -2 10.7128 13.4825   8
   5   0  -2-2.04121 19.5642   5
  -5   0   2-6.77987 44.4924  18
  -5   0  -2-33.1376 18.4396   1
   5   0  -3 21.2572 37.8500   4
   5   0   3 15.5974 62.7421   4
  -5   0  -3 13.8850 88.0278   1
   5   0   3 9.49454 55.6796  15
  -5   0  -3 0.99095 60.6492   6
  -5   0  -3 9.60643 37.7256  14
  -5   0   3-17.3619 47.1938  18
   5   0   3 3.82169 100.112   5
  -5   0   3 9.11767 22.1787  14
   5   0   3-28.7625 70.6060   7
   5   0  -3 4.04889 5.83384  19
  -5   0   3 29.0496 48.6318  11
  -5   0  -3 42.2309 54.5810   8
  -5   0   3-2.50063 38.2520   8
   5   0  -3 24.4931 33.9616   5
   5   0  -3-5.78339 17.8566   2
  -5   0   3 63.5480 59.3571   1
   5   0  -3 3.50275 37.2298  17
   5   0   4 16.4146 53.2509   4
  -5   0   4 103.794 72.6571   1
   5   0   4 22.6978 51.6886   7
   5   0   4 75.4471 121.289  15
  -5   0   4 73.4367 105.022  18
   5   0  -4 108.191 130.176  17
  -5   0  -4 59.8648 85.7495  14
  -5   0  -4 25.2886 91.2287   8
   5   0   4 23.8050 157.633   5
   5   0  -4 104.373 86.6646   2
  -5   0   4 139.831 140.394  11
  -5   0   4 80.8675 62.9762  14
   5   0  -4 28.1635 52.9408  19
  -5   0  -4 37.7243 44.7403   6
   5   0  -4 56.9400 96.7390   5
   5   0  -4 43.3332 77.2403   4
  -5   0  -4 43.8960 114.675   1
   5   0  -5 14.3192 49.1908   4
  -5   0  -5 67.8226 33.2074   6
   5   0  -5 110.664 65.2555  19
  -5   0   5 104.700 85.4712   1
  -5   0   5 109.312 71.4354  14
  -5   0   5 137.641 109.812  18
  -5   0   5 78.5644 19.4171  11
   5   0  -5 92.6470 38.8360   5
   5   0  -5 107.537 90.9555  17
  -5   0  -5 53.2593 31.3850   1
  -5   0  -5 109.289 116.963  14
  -5   0  -5 169.233 172.685   8
   5   0  -5 121.332 93.8366   2
   0   5   5-113.313 265.895  13
  -5   0   6-11.2382 36.0368  18
  -5   0   6 61.8222 55.0067  14
  -5   0  -6-61.3699 62.2224  16
   5   0  -6 89.0343 86.4761   5
  -5   0  -6-12.1209 73.6291   6
   5   0  -6 119.581 84.1602   2
   0   5   6 47.1280 50.1912  13
   0  -5  -6-100.408 166.080   6
   5   0  -6 130.067 78.5809  19
   0   5   6-1.16332 63.2558   3
  -5   0   6-95.9276 174.675  11
   5   0  -6 76.4268 96.6496  17
  -5   0  -6 5.23862 49.1180   8
  -5   0  -6-70.6036 139.497  14
  -5   0   6 83.6966 70.9660   1
   0   5   7 4886.04 511.279  12
  -5   0   7 3286.91 514.855  18
  -5   0  -7 3862.66 650.697   6
   0   5   7 5190.65 589.509   3
  -5   0   7 4089.09 453.203  14
  -5   0  -7 4575.96 699.258  16
   5   0  -7 5509.06 646.116   2
  -5   0  -7 4937.56 849.195   8
  -5   0   7 4273.48 580.015   1
  -5   0  -7 5115.79 888.048  14
   5   0  -7 5686.31 598.400   5
   0  -5  -7 2354.87 422.166   6
   5   0  -7 5629.83 719.525  17
   0   5   7 5164.89 808.318  13
   0  -5  -8-83.8142 157.910  16
   0   5   8-36.0329 104.484  13
  -5   0  -8-3.54964 138.825  16
  -5   0  -8-56.3941 229.201  14
   0   5   8-22.4916 45.0900  12
   5   0  -8 8.13716 28.5873   2
  -5   0  -8 1.73182 91.1009   8
   0   5   8-54.6488 70.6120   3
   0  -5  -8 10.5696 22.7305   6
  -5   0  -8 210.854 217.821   6
   0   5   8-5.86562 16.9065  18
  -5   0   8-55.1375 97.0147  18
   5   0  -8 7.33565 84.4130   5
   5   0  -8-12.3192 83.5940  17
  -5   0   8 21.0006 29.2073  14
  -5   0   8 38.7229 76.9161   1
  -5   0  -9 462.937 214.222   6
   0  -5  -9 619.584 243.771  16
   0   5   9 752.299 279.452  13
   0   5   9 619.944 167.432  12
  -5   0   9 260.515 56.1210  18
   0  -5  -9 586.801 248.971  17
   5   0  -9 904.838 300.204   2
  -5   0  -9 529.884 239.656   8
   5   0  -9 821.402 303.107  17
   0  -5  -9 585.684 207.099   6
  -5   0   9 498.944 233.769   1
   0   5   9 651.684 201.057   3
  -5   0   9 587.557 187.789  14
   0   5   9 762.634 244.194  18
  -5   0  -9 867.331 312.110  16
  -5   0  10-33.2890 59.1263   1
   0  -5 -10-66.2034 77.0325  17
  -5   0  10-149.955 186.287  18
  -5   0 -10-23.0803 132.517   6
   5   0 -10 92.8567 124.340   2
   0   5  10 9.01750 58.3536   3
   5   0 -10-29.1103 42.0915  17
   0  -5 -10-48.9760 68.8921  16
   5   0 -10-162.947 312.800  16
   0  -5 -10-337.964 370.679   2
   0   5  10 17.4784 18.0979  13
  -5   0  10-20.4906 68.6235  14
  -5   0 -10-120.285 173.895  16
   0   5  10-15.7082 43.8441  12
  -5   0 -10-12.4070 79.9295   8
   0  -5 -10-22.5027 39.6545   6
   0   5  10-7.78111 56.4245  18
   0   5  11-9.40422 42.5676  12
   0   5  11 15.8744 31.6544  18
  -5   0  11 102.260 113.327   1
  -5   0 -11-195.096 230.583  16
   5   0 -11 49.1317 122.659  17
   0  -5 -11 21.2884 48.3042   6
  -5   0  11 32.2334 79.3088  14
  -5   0 -11 58.2351 206.674   8
   0   5  11 45.9540 46.3152  13
  -5   0 -11-161.157 331.384   6
   0  -5 -11-82.2981 181.487   2
   0  -5 -11-88.5556 75.4480  17
   0  -5 -11-39.5041 101.169  16
   5   0 -11-5.64238 14.4088   2
   0   5  11-4.97968 32.7745   3
   5   0 -11-156.169 246.220  16
  -5   0 -12-320.496 543.082   8
   0   5  12 146.095 161.082   3
   0   5  12 32.2166 138.020  12
  -5   0 -12 26.3312 180.793  16
   0   5  12-70.6713 67.7586  18
   5   0 -12-76.8203 161.726  17
   0  -5 -12-23.8196 94.8203  16
  -5   0  12-9.02018 124.306   1
   0   5  12-3.86343 207.994  13
   0  -5 -12-4.35843 133.318   2
   5   0 -12 38.6577 86.5651   2
   0  -5 -12-21.4902 67.5885  17
   0  -5 -12 125.861 154.090   6
   0   5  13 1045.17 254.239  11
  -5   0 -13 389.691 152.749   8
   0   5  13 806.865 207.218  12
   0   5  13 1223.09 473.713  15
   5   0 -13 924.132 313.652  17
  -5   0 -13 1459.95 593.240  16
   5   0 -13 1080.79 362.898   2
   0   5  13 783.352 241.593   3
   0  -5 -13 1334.08 414.296   2
   0  -5 -13 1099.86 347.032  16
   0  -5 -13 884.343 226.188  17
   0   5  13 891.966 202.161  18
   0   5  13 584.668 248.062  13
   0  -5 -13 938.214 283.671   6
   0   5  14 4.09009 29.6139  12
   0   5  14 69.4626 30.2924  15
   0   5  14 25.4232 76.9169  13
   0  -5 -14-5.05861 116.498   6
   0   5  14 61.3146 110.652   3
   0  -5 -14-4.00537 70.1218   2
   0  -5 -14-28.4970 45.3037  17
   0   5  14 9.51695 142.638  20
   0  -5 -14-36.3692 54.2950  16
   0   5  14 276.879 356.855   7
   0   5  14-59.8381 102.708  11
  -5   0 -14-174.175 257.832  16
   0   5  14 53.9022 68.7458  18
   5   0 -14 125.868 146.131   2
   0   5  15 306.257 180.292  11
   0  -5 -15 124.675 91.5716  17
   0   5  15 88.7063 85.6732  20
  -5   0 -15 276.692 352.888  16
   0  -5 -15 67.0730 135.018   2
   0   5  15 25.0465 95.3122  15
   0   5  15 99.1286 172.491  13
   0  -5 -15 95.5600 125.985   6
   0   5  15 69.4158 112.661   3
   0   5  15-86.5529 145.092   7
   0  -5 -15 126.690 106.908  16
   0   5  15 206.336 118.817  18
   0   5  15-9.32749 58.7925  10
   0   5  15 199.722 141.371  12
   0   5  16 134.384 192.407  10
   0   5  16-204.333 363.413   7
   0   5  16 29.0214 77.1694  18
   0  -5 -16-12.4627 97.8801  16
   0   5  16-261.259 405.210  15
   0   5  16 98.9334 134.090  12
   0  -5 -16 141.375 233.248   2
   0   5  16 150.266 191.807   9
   0   5  16 140.516 152.429   3
   0  -5 -16 108.193 153.964   6
   0  -5 -16-51.1999 84.6032  17
   0   5  16 38.5720 137.367  11
   0   5  16 198.974 267.917  20
   0   5  17 124.872 155.817  12
   0   5  17 76.3021 84.8935  18
   0   5  17 274.841 253.816  10
   0   5  17 415.727 300.646  20
   0   5  17 302.631 214.153   3
   0  -5 -17 74.7770 139.781  16
   0  -5 -17 78.8690 171.832   6
   0   5  17 142.571 148.661  11
   0  -5 -17 343.544 251.242   2
   0  -5 -17 254.623 182.838  17
   0   5  17 276.747 273.752   9
   0   5  18 252.097 234.948   9
   0   5  18 137.949 119.779  20
   0  -5 -18 5.03293 171.951   2
   0   5  18 386.073 246.424  11
   0   5  18 261.877 188.778  12
   0  -5 -18-46.0050 314.907   6
   0  -5 -18 101.067 98.8241  17
   0   5  18 171.567 108.033  18
   0   5  18 81.0719 130.911  10
   0  -5 -18 297.930 237.456  16
   0   5  19 907.391 421.197  10
   0  -5 -19 2105.15 468.112  17
   0   5  19 491.164 302.197  20
   0   5  19 992.995 418.555   9
   0   5  19 1361.82 385.127  11
   0   5  19 1217.46 333.222  18
   0  -5 -19 1962.84 607.794   2
   0  -5 -19 979.370 557.873   6
   0  -5 -19 1867.08 607.850  16
   5   1   0 309.654 118.301  19
  -5  -1   0 310.770 106.628   8
   5  -1   0 200.454 149.629   4
  -5   1   0 408.205 194.986   1
  -5   1   0 374.802 171.062  14
   5   1   0 373.391 125.547   4
   5  -1   0 203.301 130.027   5
  -5   1   0 332.066 157.709   8
   5   1   0 234.301 97.5426   5
  -5  -1   0 334.630 111.795   1
  -5  -1   0 317.102 120.311  14
  -5   1   1 3617.68 482.953   1
  -5   1   1 3430.38 367.869  18
  -5   1   1 3385.52 395.061   8
  -5  -1   1 3374.37 383.917  14
  -5  -1  -1 3108.08 361.256  14
   5  -1  -1 2296.31 357.659  17
  -5   1   1 3021.85 455.491  14
   5   1  -1 2984.47 343.903   4
   5  -1   1 1485.64 374.471   5
   5  -1  -1 2216.98 387.289   5
   5   1   1 2775.29 330.755   5
   5   1  -1 3110.75 360.710   5
   5   1   1 3088.04 362.177   4
  -5  -1   1 3059.84 345.690   8
   5  -1  -1 2304.99 371.287  19
  -5  -1  -1 3035.49 343.302   1
  -5  -1   1 3206.11 389.524   1
   5  -1   1 1328.05 359.290   4
   5  -1  -1 2201.89 372.896   4
  -5   1  -1 3843.67 627.806   1
  -5  -1  -1 3410.85 326.020   6
  -5  -1  -1 2936.40 333.945   8
  -5   1  -1 2897.88 524.465  14
  -5   1  -1 3640.03 539.699   8
   5   1  -1 3085.26 343.217  19
   5   1   1 2934.43 346.598  19
   5   1   2 51.2905 63.8876  19
   5   1  -2 37.2572 42.1334   4
  -5   1   2 77.2639 64.7933  18
   5   1  -2-25.8857 101.768  17
  -5  -1   2 68.7468 68.5648   1
  -5   1   2 81.4591 79.2382  14
  -5  -1  -2 18.1430 14.7744  14
  -5   1  -2 50.5243 92.2957   8
  -5  -1   2 36.0869 28.4303  14
   5  -1  -2 2.95469 43.1192  17
  -5  -1   2-11.1725 73.2851  18
   5   1   2 23.6229 30.7027  12
  -5  -1  -2 36.8048 36.3277   1
   5  -1  -2 38.4217 36.6779   5
  -5   1   2 110.174 75.2818   1
  -5   1  -2 48.5986 73.7585  14
  -5  -1   2 37.3085 32.0124   8
  -5  -1  -2 51.7419 53.3429   6
   5   1  -2 46.2630 40.6506   5
   5  -1  -2 12.8636 30.3250  19
   5   1  -2 18.3905 21.6882  19
   5  -1  -2 42.1380 45.6733   4
   5   1   2 42.2380 53.2461   4
   5   1   2 64.7393 55.7442   5
  -5  -1  -2 38.4935 52.0720   8
  -5   1  -2 67.0809 51.5799   1
   5  -1  -2 58.6562 52.7494   2
  -5   1   3 52.9931 65.0018  11
  -5   1  -3-65.4550 198.256   6
  -5  -1   3-23.6166 42.0599   1
   5   1  -3 11.9549 34.3853  19
  -5  -1  -3 4.21620 14.3055  14
  -5  -1   3-26.5418 154.427  18
   5   1   3-7.55289 25.9430   5
   5  -1  -3 34.5074 44.6245   4
  -5  -1   3-0.44244 3.17159   8
  -5  -1  -3 26.0190 40.0529   8
   5  -1  -3-22.9181 43.9988  17
  -5   1  -3 61.0537 150.094   1
  -5   1  -3 25.0441 47.4390   8
   5  -1  -3 20.9692 44.1874   5
   5   1  -3-3.79184 35.1487   5
  -5  -1  -3-12.5527 31.4355   6
   5   1   3 23.6311 22.2729  19
  -5   1  -3 53.3034 125.641  14
  -5   1   3-15.0101 45.4589  18
  -5  -1  -3 14.1556 19.6010   1
   5  -1  -3 4.25278 32.1500  19
  -5  -1   3 18.7791 52.2230  14
   5   1   3 26.5892 65.0747  12
  -5   1   3 15.8198 37.4405   1
   5   1  -3 26.8066 49.4224  17
   5  -1  -3 21.2126 36.4124   2
  -5   1   3 23.5321 31.2785  14
   5   1  -3-40.4090 90.5813   2
   5   1   3-5.90932 33.8583   4
  -5   1   4 1083.91 220.460  18
   5  -1  -4 965.168 197.127   2
  -5  -1  -4 1078.25 223.267   6
  -5   1   4 835.756 212.667  14
  -5  -1   4 887.645 225.406  14
   5  -1  -4 903.679 216.924   5
  -5   1   4 937.555 224.172   1
  -5  -1  -4 1007.67 224.552  14
   5  -1  -4 844.864 183.785  19
   5   1   4 734.725 205.377  19
   5   1   4 711.048 200.737   5
   5  -1  -4 802.293 211.816  17
  -5  -1  -4 1324.33 277.468   1
   5  -1  -4 763.549 176.172   4
  -5   1  -4 1114.52 441.967  14
  -5   1   4 1176.37 262.328  11
   5   1  -4 1007.81 266.041   2
  -5   1  -4 144.549 72.4311   1
   5   1  -4 1170.44 260.162   5
  -5  -1   4 1027.63 275.965   1
   5   1   4 695.969 212.677   4
  -5   1  -4 418.749 126.683   6
   5   1  -4 1135.09 245.121  19
  -5  -1  -4 1010.46 224.952   8
  -5   1  -4 1109.15 397.226   8
   5   1  -4 812.343 286.248  17
  -5  -1   5 396.431 163.377  14
   5   1   5 389.062 190.754   7
  -5   1  -5 207.592 153.805   8
   1   5   5 443.754 193.635   3
  -5  -1   5 468.007 219.993   1
  -1   5   5 95.5441 177.043  13
  -5  -1  -5 481.160 158.723   8
  -5   1  -5 16.4398 192.030   6
   5  -1  -5 422.251 133.528   4
  -5  -1  -5 449.341 158.323  14
   5  -1  -5 403.639 120.931  19
   5   1   5 351.352 177.940   4
   5   1  -5 376.452 193.853  17
  -5  -1  -5 438.435 151.636   6
   5   1   5 266.324 145.158   5
   5   1   5 426.584 192.843  15
  -5   1   5 521.540 172.415  11
  -5   1   5 361.697 136.409  18
   5  -1  -5 403.870 147.587   5
  -5   1  -5 361.400 126.177  14
  -5   1   5 242.640 116.174  14
   5  -1  -5 364.829 133.170   2
   5   1   5 207.899 110.052  19
  -5   1   5 390.907 139.417   1
   5  -1  -5 363.777 153.953  17
  -5   1   5 352.390 165.835   9
  -5  -1  -5 561.240 196.823   1
  -5  -1  -6 2625.01 522.552   1
  -5   1   6 2214.93 318.572  14
  -5   1   6 1824.43 428.656   9
   5   1   6 1203.10 303.265  19
  -5  -1  -6 2674.94 434.723   8
  -5  -1  -6 2909.91 415.446  16
  -5   1   6 2246.24 347.762  18
   5   1  -6 2588.90 523.711  17
  -5  -1   6 2031.57 385.174  14
  -5  -1  -6 2644.42 416.854  14
   5   1   6 1225.77 345.688   4
  -1   5   6 2876.39 613.630  13
   5  -1  -6 2334.53 298.125   4
  -1  -5  -6 796.109 235.630   6
   5  -1  -6 2497.91 299.032  19
   1   5   6 1445.56 440.553  13
   5  -1  -6 2404.63 398.289  17
   1   5   6 2601.67 395.345  12
  -5   1   6 2240.86 367.403   1
  -5   1   6 2731.96 434.164  11
  -1   5   6 2375.78 422.654   3
  -5  -1   6 1865.21 467.305   1
   5  -1  -6 2302.28 345.155   2
   5   1   6 1799.75 424.802  15
   5   1   6 1073.16 301.263   5
   1   5   6 2866.65 479.521   3
  -5  -1  -6 2735.82 426.904   6
   5   1   6 1402.77 343.404  20
   5   1   6 1985.59 444.131   7
   5  -1  -6 2386.60 345.910   5
   1   5   7 296.095 210.595  13
  -1   5   7 345.906 159.127  13
   5  -1  -7 289.520 152.850  17
  -1   5   7 385.101 162.694   3
  -5  -1  -7 263.208 135.867   6
  -1  -5  -7 167.017 106.670   6
  -5  -1  -7 342.684 183.203  14
  -5   1   7 254.983 102.892  14
   5  -1  -7 350.416 125.789  19
  -5  -1   7 249.927 143.658  14
   5   1  -7 128.400 112.024  17
   5  -1  -7 428.880 151.758   5
   1   5   7 318.033 128.451  12
  -5   1   7 66.3939 168.207   9
  -5   1   7 343.588 165.963  11
  -5   1   7 287.616 131.729   1
   1  -5  -7 128.686 86.9159   6
  -5  -1   7 93.8988 82.4418   1
   5   1   7 108.799 12.2914  15
  -5  -1  -7 412.160 171.224  16
   5  -1  -7 292.573 129.905   2
   1   5   7 268.431 141.394   3
   5   1   7 216.362 119.559   7
  -5   1   7 256.307 121.243  18
  -5  -1  -7 327.574 157.889   8
  -1   5   7 195.487 82.6609  12
   5   1   7 40.4430 175.034   4
   5  -1  -7 317.197 112.569   4
   5  -1  -8 2897.92 482.645  17
   5   1   8 1177.52 395.479   7
   1   5   8 2369.48 341.214  12
  -5  -1  -8 3145.46 517.742  16
  -1  -5  -8 2060.92 389.418   6
   5   1   8 1030.36 365.276  15
  -5  -1  -8 3044.97 567.356  14
  -5  -1  -8 2748.97 493.189   6
  -5   1   8 2286.74 313.398  14
   1   5   8 2897.17 435.400   3
  -1  -5  -8 1717.88 441.867  16
   1   5   8 2681.23 590.497  13
  -1   5   8 2802.22 522.169  13
  -1   5   8 2669.64 398.881   3
   5   1  -8 2309.59 499.532  17
   5  -1  -8 2447.71 408.151  16
   5  -1  -8 3108.04 462.346  19
   1  -5  -8 1500.43 378.973  16
  -5   1   8 2304.47 409.913   1
  -5   1   8 2395.75 459.809  11
   5  -1  -8 2635.89 316.444   4
  -5   1   8 2243.27 387.493  18
  -5  -1  -8 3011.68 533.295   8
  -1   5   8 2723.48 504.554  18
  -1   5   8 3100.45 388.537  12
   5  -1  -8 2892.06 444.433   2
   5  -1  -8 3093.48 412.072   5
   1  -5  -8 1874.34 351.721   6
  -1  -5  -9 656.275 246.066  16
  -5  -1  -9 966.201 310.656  16
  -5   1   9 758.788 181.620  14
   1  -5  -9 517.598 218.669  16
  -5  -1  -9 1181.60 389.601  14
  -1   5   9 918.353 286.157  13
   5  -1  -9 996.630 297.419  16
   1   5   9 794.106 221.568   3
  -1  -5  -9 817.765 229.183   6
  -1   5   9 991.644 244.517   3
  -5   1   9 823.608 254.669   1
   1   5   9 1011.90 218.551  12
  -1   5   9 957.835 275.166  18
   1  -5  -9 265.817 137.738   2
  -5   1   9 875.563 293.270  11
   1   5   9 1062.77 353.922  13
   1  -5  -9 756.872 217.316   6
   5  -1  -9 1116.85 258.487   5
   1   5   9 1003.87 260.925  18
  -5   1   9 790.034 246.112  18
  -5  -1  -9 921.532 310.388   6
  -1   5   9 962.005 206.137  12
  -5  -1  -9 1020.56 329.510   8
   5  -1  -9 924.489 197.088   4
  -1  -5  -9 910.343 311.958  17
   5  -1  -9 1093.10 290.612   2
   5  -1  -9 1048.60 303.190  17
   1  -5  -9 495.900 211.056  17
   1   5  10 168.655 140.505  13
  -5  -1 -10 56.5933 67.1343   6
  -1   5  10 138.799 77.0257  12
   5  -1 -10 125.544 19.7164  17
   1   5  10 132.548 50.3778  18
  -1  -5 -10 180.461 118.442  17
  -5  -1 -10 282.478 172.291  16
   5  -1 -10 127.941 95.8093   2
  -5  -1 -10 111.557 168.740  14
   5  -1 -10 156.848 123.129   5
  -5   1  10 142.309 80.9182  14
  -1   5  10 126.339 68.5877   3
   5  -1 -10 117.983 108.341  16
  -1  -5 -10 124.173 98.5027   6
   1   5  10 33.3611 6.89019   3
  -5   1  10 80.3611 92.4060   1
  -5  -1 -10 195.003 184.359   8
   1  -5 -10 127.522 117.483  17
  -5   1  10 58.6814 10.9203  18
   1  -5 -10 133.257 63.8210   2
   1   5  10 169.407 93.7012  12
  -1   5  10 173.097 118.050  18
   1  -5 -10 99.8696 94.7002  16
  -1   5  10 122.960 106.484  13
  -5   1  10 28.5257 95.9710  11
  -1  -5 -10 156.843 153.776  16
   1  -5 -10 103.829 62.7528   6
   5  -1 -11 560.108 269.849  16
  -5  -1 -11 357.433 182.104  16
  -5   1  11 128.998 83.5608  11
  -1   5  11 429.697 159.818   3
   1  -5 -11 133.599 50.6431   2
  -1   5  11 390.012 195.793  13
   5  -1 -11 555.892 230.278   2
  -5  -1 -11 284.650 380.005  14
  -5   1  11 313.555 129.139  14
   1   5  11 289.243 161.911  13
  -1  -5 -11 423.884 139.981  17
   1  -5 -11 416.918 192.689   6
   5  -1 -11 589.133 198.951   5
  -1  -5 -11 621.413 218.560   6
   1   5  11 413.236 126.911  18
  -1   5  11 467.381 146.288  12
   1  -5 -11 307.518 155.971  16
  -1  -5 -11 419.972 190.503  16
  -5   1  11 228.666 150.194   1
   1   5  11 447.565 147.091  12
  -1  -5 -11 190.907 261.583   2
  -5  -1 -11 442.991 240.191   8
  -1  -5 -11 513.011 173.273   8
   5  -1 -11 680.572 257.958  17
  -5  -1 -11 491.456 259.131   6
  -1   5  11 428.129 169.513  18
   1   5  11 400.574 159.941   3
   1  -5 -11 405.702 200.988  17
  -5   1  11 342.709 182.318  18
  -1  -5 -12 298.384 173.661  17
  -1  -5 -12 353.908 163.602   8
   5  -1 -12 104.295 77.1547   5
   5  -1 -12 125.557 95.7254  17
  -5  -1 -12 83.0638 79.9355  16
  -5  -1 -12 68.3452 124.140   8
  -1  -5 -12-75.6094 133.134   2
   1   5  12 341.322 251.169  13
   1  -5 -12-27.2622 86.3274  16
  -1  -5 -12 252.802 200.121  16
  -5   1  12-8.11605 105.906  18
   5  -1 -12 12.4896 85.0338   2
   5  -1 -12 201.914 174.480  16
   1  -5 -12 240.444 155.914   6
  -1   5  12 139.983 128.513   3
  -1  -5 -12 132.514 104.728   6
  -5   1  12 75.3227 64.7477  14
   1  -5 -12-139.792 175.733   2
  -5   1  12 99.8464 94.9754   1
  -1   5  12 119.508 179.656  13
  -5  -1 -12 44.0186 135.150   6
  -5  -1 -12-151.987 194.825   2
   1   5  12 195.332 196.176  12
  -1   5  12 117.115 101.688  12
   1   5  12 230.413 242.794   3
  -1   5  12 84.8179 91.3092  18
   1   5  12 92.9532 71.0419  18
   1  -5 -12 78.5523 136.850  17
   1  -5 -13 684.750 238.045  17
  -5  -1 -13 874.575 375.548   8
   5  -1 -13 943.952 280.776   5
  -5  -1 -13 606.736 327.251   6
  -1   5  13 1000.78 446.319   7
  -1  -5 -13 844.794 195.719   8
  -1   5  13 591.708 179.663  12
   5  -1 -13 810.143 382.491  16
   5  -1 -13 811.443 299.112   2
  -1   5  13 657.401 204.236  18
   1  -5 -13 571.054 244.541   6
   1   5  13 603.361 228.780   3
  -1   5  13 835.892 271.856  11
  -5   1  13 310.251 132.140  14
  -1   5  13 497.781 185.575   3
  -5  -1 -13 1111.89 227.030   2
   1   5  13 734.551 179.217  18
   1   5  13 568.050 186.672  12
   1   5  13 580.147 249.685  13
  -1  -5 -13 609.627 313.313   2
  -1  -5 -13 850.614 300.048  16
   1   5  13 676.555 207.544  11
  -5  -1 -13 813.127 374.125  16
  -1   5  13 844.632 396.249  15
   1  -5 -13 731.192 263.045   2
  -1   5  13 615.556 225.363  13
   1  -5 -13 678.759 268.512  16
  -5   1  13 413.575 211.228   1
   5  -1 -13 814.623 306.748  17
  -1  -5 -13 881.000 310.158   6
  -1  -5 -13 722.322 189.983  17
  -5   1  13 78.8352 55.2016  18
   1  -5 -14 577.267 206.299  17
   1  -5 -14 605.693 277.342   6
  -1   5  14 935.672 456.732  15
  -1  -5 -14 656.017 291.398  16
   5  -1 -14 603.365 257.005   2
   1   5  14 921.557 460.518   7
   1  -5 -14 648.596 290.884  16
  -1   5  14 806.877 424.447  20
   1   5  14 771.020 236.497  11
   5  -1 -14 715.952 393.070  16
   1   5  14 660.248 280.712  13
  -5  -1 -14 453.523 179.601   6
  -5  -1 -14 1304.87 301.069   2
   1   5  14 765.548 372.633  20
  -1   5  14 571.299 228.242   3
  -1   5  14 473.581 235.722  13
   1   5  14 552.121 209.220  12
  -5  -1 -14 677.996 362.361   8
  -1   5  14 834.318 271.585  11
   1   5  14 605.226 171.754  18
   1  -5 -14 957.511 363.835   2
   5  -1 -14 810.875 326.134  17
  -1   5  14 550.632 177.901  12
   1   5  14 772.908 425.119  15
  -1  -5 -14 796.667 285.133   6
  -1  -5 -14 812.734 295.335   2
  -5  -1 -14 651.025 337.316  16
   1   5  14 401.333 180.370   3
   5  -1 -14 939.957 289.082   5
  -1   5  14 504.873 180.886  18
  -1   5  14 876.486 430.659   7
  -5   1  14 64.4441 189.407  18
  -5   1  14 303.489 199.300   1
  -1  -5 -14 733.774 209.114  17
  -1   5  15 641.529 210.765  18
   5  -1 -15 732.548 225.057   5
  -5   1  15 50.6166 82.5001   1
   1   5  15 629.149 219.274  11
   1   5  15 533.689 276.804  15
  -1  -5 -15 628.437 322.479   2
   5  -1 -15 505.636 208.520   2
  -1   5  15 65.7414 140.242   7
  -1  -5 -15 630.937 279.764  16
  -1  -5 -15 761.721 215.796  17
   1  -5 -15 339.141 188.601   6
   5  -1 -15 838.657 323.934  17
  -1   5  15 911.982 459.653  20
   1  -5 -15 874.883 347.671   2
  -1   5  15 430.576 256.878  13
   1   5  15 371.228 177.959  13
  -1   5  15 348.204 181.148   3
   1   5  15 880.476 436.333  20
   1   5  15 631.095 257.404   3
  -1   5  15 488.286 317.822  15
  -1   5  15 559.886 183.758  12
   5  -1 -15 674.910 350.123  16
  -1   5  15 832.161 281.984  11
   1  -5 -15 631.784 232.060  17
  -1  -5 -15 717.695 314.505   6
  -1   5  15 667.030 326.874  10
  -5  -1 -15 872.387 429.404   8
   1  -5 -15 517.249 277.459  16
  -5  -1 -15 188.551 205.054   6
  -5  -1 -15 575.343 297.301  16
   1   5  15 518.265 161.278  18
  -5  -1 -15 1070.85 296.412   2
   1   5  15 564.322 211.699  12
   1   5  15 314.430 188.477  10
   1   5  15 1053.69 525.596   7
  -1  -5 -16 80.4513 101.872  17
   1   5  16 137.158 176.436   3
   1   5  16 89.3311 157.341  15
  -1   5  16 261.990 263.370  20
   5  -1 -16 299.407 261.894  16
  -5  -1 -16 175.632 239.412  16
  -1   5  16 201.148 191.387  10
   1   5  16 229.402 299.453  20
   5  -1 -16 124.051 129.264   2
  -1   5  16 191.447 153.584   3
  -1  -5 -16 25.7753 104.792   6
  -1   5  16 63.5073 69.6237  18
  -1   5  16 415.788 301.718   9
   1   5  16 153.581 217.353  13
   1  -5 -16 116.259 165.715   2
   1  -5 -16 30.9866 163.164   6
   1  -5 -16-19.5618 43.2128  16
   1   5  16 226.229 197.602  10
  -5   1  16 54.3638 135.121   1
  -5  -1 -16 289.848 289.142   8
  -1   5  16 17.3831 82.2577  11
   1   5  16 78.2053 130.854  11
  -1   5  16 149.996 137.270  12
  -1  -5 -16 138.529 180.489  16
  -1  -5 -16-16.9689 145.763   2
   5  -1 -16-402.377 192.272   5
   5  -1 -16 9.01428 26.0871  17
   1   5  16 114.788 223.032   9
   1   5  16 77.3460 106.459  18
   1   5  16 203.793 139.509  12
   1   5  16-16.5896 186.463   7
   1  -5 -16 93.5006 91.2207  17
   5  -1 -17 486.070 316.512  16
  -1   5  17 658.046 230.689  18
  -1   5  17 981.496 445.918   9
   1   5  17 499.421 261.411   3
   5  -1 -17 666.314 270.547  17
  -5   1  17 140.504 164.419   1
  -5  -1 -17 1106.50 518.615  16
   1  -5 -17 447.673 204.997   6
   1  -5 -17 846.722 305.359  17
   1   5  17 576.972 339.559   9
   5  -1 -17 783.851 345.239   2
  -1   5  17 527.717 386.711  20
  -1  -5 -17 770.983 391.448  16
  -1   5  17 475.862 279.943  10
   1   5  17 642.191 266.162  12
   1  -5 -17 694.189 332.692   2
  -1  -5 -17 591.703 323.383   6
   1   5  17 612.797 326.672  20
  -1   5  17 496.678 209.606  12
  -1   5  17 511.061 231.116  11
   1   5  17 529.245 240.915  11
   1   5  17-214.662 448.347  15
  -1  -5 -17 843.494 395.023   2
   1   5  17 213.799 198.299  10
  -1   5  17 567.929 270.004   3
   1   5  17 94.8329 320.125   7
  -5  -1 -17 604.582 356.059   8
   1   5  17 524.804 206.842  18
   1  -5 -17 631.880 322.598  16
  -1  -5 -17 876.854 265.196  17
  -5   1  18 369.081 257.050   1
  -1  -5 -18 793.568 363.662  16
   1  -5 -18 745.928 308.072  16
  -5  -1 -18 1190.21 515.141  16
   5  -1 -18 766.681 443.080  16
   1  -5 -18 955.363 385.143   2
  -1   5  18 608.195 320.645   9
  -1  -5 -18 392.914 246.717   6
   1   5  18 627.396 400.989  20
   1   5  18 809.522 459.502  10
  -5  -1 -18 595.053 297.853   8
  -1   5  18 562.149 225.094  18
   1  -5 -18 207.629 159.044   6
  -1   5  18 687.881 281.283  11
   1   5  18 863.724 324.407  11
  -1   5  18 410.904 271.705  10
   1   5  18 809.261 395.215   9
   5  -1 -18 499.187 230.611  17
  -1   5  18 253.863 189.430  20
  -1  -5 -18 1068.56 423.322   2
   5  -1 -18 723.968 321.686   2
   1  -5 -18 1073.53 317.249  17
   1   5  18 789.225 330.579  12
  -1   5  18 663.342 253.670  12
   1  -5 -19 927.618 316.378  17
  -1  -5 -19 826.549 391.970  16
   1  -5 -19 653.941 456.745   6
  -1   5  19 607.244 292.849  11
   5  -1 -19 661.038 420.972  16
   1   5  19 37.9420 143.591  20
  -5  -1 -19 448.461 340.071  16
   1   5  19 442.407 354.506  10
   5  -1 -19 327.328 211.149   2
   1   5  19 621.798 377.850   9
  -1   5  19 732.161 356.222  10
   1   5  19 457.346 283.481  11
   1  -5 -19 949.492 428.945  16
  -1   5  19 568.602 294.631  20
  -5  -1 -19 420.846 110.356   8
  -1   5  19 924.506 400.474   9
   1  -5 -19 622.836 369.535   2
  -1   5  19 603.624 241.784  18
  -1  -5 -19 882.071 435.478   2
  -1  -5 -19 365.170 317.682   6
  -5   2   0 3538.03 748.582  14
  -5  -2   0 4839.55 489.607  14
  -5  -2   0 4818.92 525.329   6
  -5  -2   0 5107.74 528.535   1
   5   2   0 5258.77 489.487   4
   5   2   0 5383.88 501.085   5
  -5  -2   0 4549.25 472.809   8
   5   2   0 4316.12 540.293  12
   5   2   0 5494.38 484.648  19
  -5   2   0 5385.99 652.575  18
  -5   2   0 5780.59 892.077   1
  -5   2   1 272.812 135.671  14
  -5   2   1 558.384 215.276   8
  -5  -2  -1 532.603 151.512   6
   5   2   1 475.732 138.111  19
  -5  -2  -1 581.866 165.941  14
  -5   2  -1 205.895 149.298  14
   5   2  -1 536.602 154.580  19
  -5  -2   1 465.700 176.765   1
   5   2   1 442.196 142.765   4
  -5   2   1 485.421 255.331   1
   5   2   1 555.601 155.511   5
  -5  -2   1 411.232 159.630   8
   5   2   1 438.663 152.968  12
  -5   2  -1 339.242 102.446   8
  -5  -2   1 447.347 154.788  14
  -5  -2  -1 491.467 139.176   1
  -5  -2  -1 547.471 155.708   8
  -5   2   1 624.999 215.049  18
  -5   2  -1 345.518 194.916   1
   5  -2  -1 270.134 178.443  17
   5  -2  -2 680.834 213.036   4
   5  -2  -2 1151.86 277.459   2
   5   2   2 2205.68 302.842  19
  -5  -2  -2 2568.02 337.011   6
  -5   2   2 1577.97 418.768  14
  -5  -2   2 1639.87 323.174  14
  -5  -2  -2 2250.92 294.000   1
  -5   2  -2 606.940 184.061   1
   5   2   2 2296.32 326.625  12
   5   2   2 2161.48 285.012   5
  -5   2   2 2616.71 506.277   1
  -5  -2   2 1444.61 391.281   8
  -5  -2  -2 2009.68 291.870   8
   5   2  -2 2769.00 386.608  19
   5  -2  -2 1313.42 330.391  17
  -5  -2  -2 2415.36 322.644  14
   5  -2  -2 1447.66 380.447   5
  -5  -2   2 2003.08 414.692   1
  -5   2   2 2701.15 412.559  18
   5   2   2 2165.75 305.661   4
  -5  -2  -3 3309.64 378.325   6
  -5   2   3 3085.55 417.718  18
   5   2   3 2881.44 392.335   3
  -5  -2  -3 2838.92 348.182   8
   5   2   3 2879.88 357.902   4
  -5   2   3 2373.47 497.377  14
  -5  -2   3 2131.13 380.533  14
  -5  -2  -3 2966.14 358.890  14
   5  -2  -3 1947.99 385.203  17
   5   2   3 2876.03 356.790  12
   5  -2  -3 2199.51 362.330   2
   5   2   3 2858.52 342.897  19
   5  -2  -3 2025.61 419.233   5
  -5  -2  -3 2955.31 317.842   1
   5  -2  -3 1909.85 345.147  19
   5   2   3 2897.33 332.629   5
   5  -2  -3 1718.41 361.941   4
  -5   2   3 3252.15 523.160   1
   5  -2  -4 691.686 195.506   2
  -5  -2  -4 1047.83 219.777  14
   5   2   4 979.505 211.951   4
  -5  -2  -4 980.912 185.151   1
  -5  -2  -4 1105.99 227.842   6
   5   2   4 922.286 209.090  19
   5   2   4 771.482 185.840  12
  -5   2   4 1044.81 282.845   1
   5  -2  -4 709.184 188.187  19
   5  -2  -4 719.361 218.843   5
  -5  -2  -4 1023.29 211.583   8
   5   2   4 848.210 199.701   3
   5  -2  -4 655.283 208.617  17
   5   2   4 917.139 194.445   5
  -5   2   4 1054.63 239.426  18
  -5   2   4 939.762 182.273  13
  -5   2   4 853.729 294.653  14
   5  -2  -4 743.247 236.836   4
   2   5   5 1786.83 344.482  12
  -5   2   5 1041.68 313.679  14
  -5   2   5 1650.80 290.563  18
  -5  -2  -5 1718.86 294.049   6
   5  -2  -5 1185.93 289.257  17
  -5  -2  -5 1469.13 265.266   8
   5  -2  -5 1218.84 262.392   2
   5  -2  -5 1309.89 310.661   5
  -5  -2  -5 1601.73 265.087  14
   5   2   5 1212.61 246.981   3
  -5  -2  -5 2224.83 394.108  16
   2   5   5 1804.82 420.543   3
  -2   5   5 1496.86 423.809  13
   5   2   5 1182.13 239.437  19
   5   2   5 1182.16 249.296  12
  -5   2   5 1428.59 319.314   1
   5  -2  -5 1378.81 237.804  19
   5   2   5 1361.88 251.895   5
   5   2   5 1446.94 280.239   4
  -5   2   5 2175.37 378.255  11
   5  -2  -5 1108.53 255.374   4
   5  -2  -6 1484.32 230.599  19
  -5   2   6 1386.38 318.652   1
   2   5   6 301.052 77.8254  13
  -2   5   6 1339.91 305.877   3
  -5  -2  -6 1653.53 305.393   6
   2   5   6 1874.07 395.534   3
  -5   2   6 1048.52 304.888  14
  -2   5   6 1717.17 462.628  13
   5  -2  -6 1330.25 298.277   5
   2   5   6 1744.02 318.698  12
   5  -2  -6 1351.16 270.451   2
  -5   2   6 1854.85 354.628  11
  -5  -2  -6 2076.36 370.297  16
   5   2   6 1168.33 253.733   3
  -5  -2  -6 1640.66 282.928  14
  -5   2   6 1652.09 345.895  10
   5   2   6 1407.37 302.123  20
  -2  -5  -6 634.752 224.086   6
   5  -2  -6 1256.54 257.191   4
   5   2   6 1054.41 237.113  19
  -5   2   6 1625.61 301.508  18
   5   2   6 1259.44 287.389   4
  -5  -2  -6 1605.87 294.551   8
   5   2   6 1345.91 280.465   5
   5  -2  -6 1267.04 294.700  17
  -5  -2  -7 4136.73 476.818  14
   5   2   7 3808.62 626.047  15
   5  -2  -7 3138.99 449.588   5
   5  -2  -7 3988.55 361.817  19
  -5  -2  -7 4352.48 529.306   6
  -2   5   7 4205.61 532.839   3
  -2  -5  -7 2630.75 443.372   6
   2  -5  -7 1619.88 326.964   6
   2   5   7 4246.18 558.690   3
   5  -2  -7 3392.26 494.673  17
   5  -2  -7 3437.36 361.507  16
  -5   2   7 2901.98 465.515  14
   5   2   7 3045.06 479.729  20
   5   2   7 2431.24 385.847  19
   2   5   7 3044.42 688.817  13
   5   2   7 2830.11 483.523   4
   5   2   7 3013.62 494.692   5
   2   5   7 4099.30 470.474  12
  -5   2   7 3463.72 494.698   1
  -5   2   7 4532.57 572.295  11
   5  -2  -7 3324.17 387.902   4
  -5   2   7 3838.30 464.756  18
   5   2   7 2762.51 362.840  10
  -5   2   7 4075.85 610.271  10
  -2   5   7 3892.93 623.795  18
  -5   2   7 4513.24 660.283   9
  -2   5   7 4614.33 697.266  13
  -5  -2  -7 3875.46 476.304   8
   5  -2  -7 3638.12 470.269   2
  -5   2   7 3546.46 665.503  20
  -5  -2  -7 5018.96 594.809  16
  -5  -2  -8 1332.42 297.049   8
  -2  -5  -8 767.295 282.816  16
  -2   5   8 1326.63 351.357  13
  -2   5   8 1283.42 357.975  18
   5   2   8 1224.93 375.366   7
  -5  -2  -8 1497.29 326.935   6
  -2  -5  -8 1015.47 270.181   6
  -2   5   8 1093.66 257.686   3
   5   2   8 1096.90 349.188  15
  -2   5   8 1213.61 273.973  12
   5   2   8 931.537 319.502   4
  -5   2   8 1084.06 256.018  18
   5  -2  -8 1073.48 297.808  17
   5  -2  -8 1015.21 206.754   4
   2  -5  -8 738.985 218.265   6
  -5   2   8 1226.60 387.266   9
   2   5   8 1227.72 295.978   3
   5  -2  -8 1007.78 216.166  16
   2   5   8 1437.67 466.633  13
   5  -2  -8 1102.88 265.617   2
   2   5   8 1123.39 244.298  12
   5  -2  -8 1045.79 265.064   5
  -2  -5  -8 465.985 172.207   8
  -5   2   8 967.131 264.840   1
  -5   2   8 1234.48 302.815  11
   5   2   8 837.065 228.435  10
   5   2   8 903.795 284.312  20
  -5   2   8 814.911 229.819  14
  -5   2   8 1102.48 369.696  10
  -5  -2  -8 1122.05 265.553  14
  -5  -2  -8 1392.40 321.292  16
   5   2   8 676.517 205.594  19
   2  -5  -8 558.368 303.816  17
   5  -2  -9 1221.61 280.694   5
   5  -2  -9 1364.04 331.401  17
  -5  -2  -9 1534.26 356.357   6
  -5   2   9 1146.06 271.355  18
   2   5   9 1451.96 429.307  13
   2  -5  -9 1026.94 246.794   6
  -5  -2  -9 1665.03 376.186  16
  -2   5   9 1338.56 279.342   3
  -2  -5  -9 1130.00 360.076  16
   2   5   9 1295.54 296.783   3
   5   2   9 857.979 331.392  15
  -2   5   9 1616.53 365.618  18
  -5  -2  -9 1476.85 333.531  14
   2   5   9 1306.47 258.165  12
  -2  -5  -9 1337.09 252.795  14
  -5   2   9 1112.64 279.420   1
   5  -2  -9 1109.15 258.012  16
  -2   5   9 1180.57 323.371  13
   5  -2  -9 1423.98 232.939   4
  -5   2   9 1058.90 377.457   9
  -2   5   9 1348.26 248.976  12
  -2  -5  -9 1155.68 281.965   6
  -5  -2  -9 1457.85 324.784   8
  -2  -5  -9 1304.25 315.035   8
   5  -2  -9 1238.95 300.628   2
  -5   2   9 1331.89 346.360  11
   5   2   9 644.035 249.270   4
   2   5   9 1494.57 296.924  18
   2  -5  -9 613.010 218.745   2
   5   2   9 654.775 208.950  10
   2  -5  -9 867.623 344.312  17
   5   2   9 639.638 217.392  19
   5   2   9 584.263 180.059   9
   5   2   9 1045.20 365.338   7
   5   2   9 793.991 298.225  20
  -5   2   9 979.590 366.002  10
   2  -5  -9 871.668 278.060  16
   2   5   9 1485.60 214.608   4
  -5   2   9 769.183 224.754  14
  -5   2  10 1168.80 419.139   9
  -2  -5 -10 1657.83 415.566  16
  -5  -2 -10 1807.89 413.278  16
   5   2  10 804.544 315.503   7
  -2   5  10 1646.94 256.363  12
  -2  -5 -10 1525.96 340.653   6
  -5  -2 -10 1659.15 345.580   8
   5   2  10 860.591 316.826  15
  -2   5  10 1407.24 282.300   3
   5   2  10 801.390 313.481  20
  -2   5  10 1521.64 335.763  18
   2   5  10 1424.77 304.680   3
  -5  -2 -10 1831.69 419.857  14
  -5   2  10 899.583 234.081  14
   5  -2 -10 1654.62 244.240   4
  -2  -5 -10 1505.04 225.798  14
  -2  -5 -10 1709.50 313.346  17
   2  -5 -10 1064.60 342.317   2
   2  -5 -10 947.945 237.498   6
   5   2  10 691.050 219.406  19
  -2   5  10 1478.44 366.197  13
   5   2  10 644.151 185.284  10
  -5   2  10 1569.70 385.417  11
   5  -2 -10 1649.29 319.723   5
   5  -2 -10 1515.52 355.560   2
   2   5  10 1518.97 397.695  13
   2   5  10 1491.74 275.856  12
  -5   2  10 1232.52 318.781   1
  -5   2  10 784.605 359.277  10
   5  -2 -10 1386.86 318.462  16
   2  -5 -10 1157.97 350.403  17
   2   5  10 1838.34 251.732   4
   2   5  10 1542.16 242.771  18
  -2  -5 -10 1570.23 303.505   8
  -5   2  10 1266.99 301.980  18
   2  -5 -10 1194.43 327.567  16
   5  -2 -10 1703.82 387.991  17
  -5  -2 -10 1795.44 415.847   6
  -2  -5 -11 178.295 178.815   8
  -5  -2 -11 237.837 291.631  16
   2  -5 -11-6.37622 53.1836   6
   5  -2 -11 35.5517 67.8654  16
   5  -2 -11 49.1930 54.0366   4
   2   5  11 116.779 128.392   4
  -5  -2 -11 91.6802 292.289  14
   5   2  11 70.5209 156.358  19
  -5   2  11 37.7939 64.7054  14
  -5  -2 -11 264.685 301.460   6
  -2  -5 -11 325.353 214.080   6
   2   5  11 329.349 195.811   3
  -2  -5 -11 61.0749 80.0931  14
  -2   5  11 94.5172 100.876  18
  -2   5  11 141.901 121.317  12
  -5   2  11 33.7204 100.007   1
   5   2  11-794.931 373.091   7
  -5   2  11 9.52724 64.7547  11
   5  -2 -11-11.0680 46.0439   5
  -2   5  11 134.907 143.861   3
   2   5  11 140.804 356.964  13
   2  -5 -11 87.4112 206.598   2
  -5   2  11-68.5187 135.633   9
   2   5  11 53.5382 58.4895  18
   5  -2 -11 28.9607 47.3798  17
  -2  -5 -11 198.650 175.979  17
   2   5  11 254.744 174.134  12
  -2   5  11 143.341 192.493  13
  -5   2  11 72.0315 84.4574  18
   5   2  11-232.562 322.299  15
  -5  -2 -11 29.0777 188.700   8
   2  -5 -11 118.728 177.456  17
  -2  -5 -11 122.491 235.267  16
   2  -5 -11 4.20799 95.1624  16
   5  -2 -11-38.1464 89.5211   2
   2  -5 -12 1901.19 437.857  16
  -2  -5 -12 2139.39 256.190  14
   2   5  12 1536.70 388.318  13
  -5  -2 -12 2891.28 585.918  16
   5  -2 -12 2320.98 497.844  16
  -5   2  12 1496.54 365.454   1
  -5  -2 -12 2689.09 503.306   8
  -5  -2 -12 2456.13 548.533   6
  -2  -5 -12 2507.09 473.757   6
  -2   5  12 1785.27 385.916  13
  -2   5  12 2067.94 366.798  18
  -2   5  12 2931.13 639.505  15
   2   5  12 1649.93 351.043   3
   2  -5 -12 1925.38 426.110  17
   2  -5 -12 1477.27 340.648   6
   2   5  12 2318.28 337.474  11
  -2  -5 -12 2417.04 323.743  17
  -2   5  12 2217.57 309.377  12
   2   5  12 2640.34 421.660   4
  -2  -5 -12 2281.46 341.151   8
   5  -2 -12 2576.91 493.715   2
  -5   2  12 1800.82 453.448  11
  -2   5  12 1976.75 350.869   3
  -5   2  12 1453.42 368.188  18
   2  -5 -12 2024.57 478.453   2
  -2   5  12-175.224 280.655   1
  -2  -5 -12 1663.88 368.940   2
   5  -2 -12 2435.43 308.554   4
   5   2  12 529.485 227.650  19
  -5  -2 -12 2466.12 642.263  14
   5  -2 -12 2650.94 416.712   5
   2   5  12 1808.05 246.988  18
   2   5  12 1672.66 312.302  12
  -2  -5 -12 2324.48 508.433  16
  -5   2  12 960.769 345.625   9
   5  -2 -12 2426.57 491.730  17
   2  -5 -13 277.402 156.267  17
  -5  -2 -13 284.666 204.046   6
  -5  -2 -13 430.127 195.654   8
  -2  -5 -13 474.662 240.584  16
  -2  -5 -13 185.476 160.378   2
  -2   5  13 446.075 309.840  15
  -5  -2 -13 538.104 276.536  16
   2  -5 -13 371.951 207.374   2
  -2   5  13 325.588 124.461  12
   2   5  13 309.400 166.052   3
  -2   5  13 307.967 171.145  13
   2   5  13 124.858 152.955  13
   2  -5 -13 408.379 227.146  16
   5  -2 -13 427.343 202.912   2
   2  -5 -13 249.538 149.400   6
   2   5  13 293.467 133.041  12
  -2   5  13 388.958 173.390  18
  -5   2  13 132.088 112.037   1
  -2   5  13 506.153 215.834  11
   5  -2 -13 359.850 223.217  16
   2   5  13 343.535 134.323  11
  -5   2  13 110.671 68.3594  11
  -2   5  13-75.2885 189.352   1
  -2  -5 -13 502.981 228.529   6
  -2   5  13 560.381 388.266   7
  -2  -5 -13 532.276 167.510   8
   5  -2 -13 416.767 227.251  17
  -2  -5 -13 436.062 142.339  17
   2   5  13 365.742 117.490  18
  -5   2  13 359.033 176.267  18
  -5  -2 -13 215.228 194.881  14
   5  -2 -13 453.138 127.605   4
  -5  -2 -13 602.615 160.873   2
   5  -2 -13 460.129 187.487   5
  -2   5  13 299.510 127.381   3
  -5   2  14 632.934 237.753   1
  -2  -5 -14 1322.33 260.923  17
   2   5  14 861.471 261.141  12
  -2  -5 -14 1348.22 408.214  16
   5  -2 -14 1185.69 377.203   2
   5  -2 -14 1124.47 368.930  16
  -2  -5 -14 1340.61 395.399   6
  -5   2  14 566.462 258.043  11
   5  -2 -14 1315.92 309.470   5
   2  -5 -14 1119.12 309.865  17
   2   5  14 1048.56 447.467  15
  -5  -2 -14 1037.72 382.229   6
   5  -2 -14 1458.48 390.487  17
  -2   5  14 984.229 274.020   3
  -5  -2 -14 1249.75 371.814   8
   2  -5 -14 730.545 275.556   6
   2   5  14 658.426 283.092  13
  -2   5  14 844.040 325.733  13
  -5   2  14 738.065 278.522  18
  -5  -2 -14 1302.95 441.129  16
  -2  -5 -14 1296.79 428.055   2
  -2   5  14 1074.85 236.350  12
  -5  -2 -14 1786.01 303.524   2
   2   5  14 976.402 200.752  18
   2   5  14 1256.56 272.221  11
  -2   5  14 1157.02 334.205  11
  -2   5  14 968.737 456.062  20
   2   5  14 738.971 260.398   3
  -2  -5 -14 1278.51 253.538   8
   2   5  14 1367.28 570.882   7
   2  -5 -14 853.963 337.289   2
   2   5  14 1134.72 457.402  20
  -2   5  14 829.159 308.272   7
   2  -5 -14 1170.64 359.295  16
  -2   5  14 1046.12 278.876  18
  -2   5  14 1198.03 497.745  15
  -2   5  15 214.446 153.041   3
   2  -5 -15 40.7922 60.4973  16
   5  -2 -15 88.5928 115.267   5
  -5  -2 -15-79.1321 174.927   8
  -5  -2 -15 109.743 127.433  16
   2   5  15 96.9392 50.4411  15
  -5  -2 -15 11.9361 103.915   6
   2   5  15 159.340 94.4717  20
  -2  -5 -15 34.1797 82.5842   6
  -2   5  15-58.0611 65.8585  10
   2   5  15 118.726 161.703  13
   2   5  15 79.8848 85.1590  12
  -2   5  15 184.059 179.858  13
   2   5  15 131.710 137.070   3
  -2  -5 -15 126.072 94.3335   2
  -2  -5 -15 80.4457 64.0351  17
  -2   5  15 20.2646 20.1227  12
   2  -5 -15-33.2445 194.145   6
  -2   5  15 89.1370 136.367  11
   2   5  15-43.7217 43.1204  11
  -2   5  15-17.6777 93.8691  20
  -5   2  15-116.254 220.352  11
   2  -5 -15 12.2398 91.2806  17
   5  -2 -15 49.8609 34.8067  16
  -2  -5 -15 79.6542 99.5852  16
   2   5  15 117.183 168.864   7
  -5   2  15 32.0407 75.9056   1
   2   5  15 123.345 163.050  10
  -2   5  15 39.0809 104.086  18
   5  -2 -15 97.9694 103.589  17
   2  -5 -15 176.064 212.523   2
  -5   2  15 0.22979 45.1398  18
   5  -2 -15 126.979 138.428   2
   2   5  16 1437.68 519.643  20
   2   5  16 1103.89 540.853   7
  -2  -5 -16 1827.33 528.701  16
  -5  -2 -16 2032.01 631.902  16
   5  -2 -16 1481.47 520.839  16
   2   5  16 1510.13 612.548  15
   5  -2 -16 2278.26 508.055  17
  -2   5  16 1166.82 499.876  20
   2  -5 -16 543.349 172.016   6
  -5  -2 -16 1581.77 526.986   6
   2   5  16 1487.55 342.755  11
  -2  -5 -16 1608.56 487.461   6
   5  -2 -16 2005.65 406.607   5
   2   5  16 914.532 349.389  13
   2   5  16 1218.99 335.878  12
   2   5  16 1148.84 365.428   3
  -2   5  16 1388.12 309.505  12
  -2   5  16 1199.83 465.689  10
   5  -2 -16 2185.03 536.724   2
  -2   5  16 1356.94 380.877  11
   2  -5 -16 1632.12 395.726  17
  -2   5  16 1121.40 332.357   3
   2  -5 -16 1564.82 454.292  16
   2   5  16 989.234 352.268  10
  -2   5  16 1533.02 548.080   9
   2   5  16 1383.07 453.586   9
  -2  -5 -16 1959.48 523.620   2
  -5   2  16 672.263 266.118  18
   2  -5 -16 1809.40 501.814   2
  -2   5  16 1492.71 341.491  18
  -5   2  16 452.926 233.290   1
  -5  -2 -16 1694.38 457.915   8
   2  -5 -17 551.729 227.915  17
  -5  -2 -17 378.189 40.3449   6
   5  -2 -17 846.577 373.147  17
  -2  -5 -17 524.872 271.688   2
  -2   5  17 344.662 219.887   3
  -5  -2 -17 911.393 407.351  16
  -5  -2 -17 535.816 289.632   8
  -2  -5 -17 497.257 317.313  16
   5  -2 -17 590.007 307.697   2
   2  -5 -17 236.784 241.652   6
  -2  -5 -17 669.208 405.158   6
   2   5  17 353.421 214.252  12
   2   5  17 337.578 249.826   9
   2   5  17 393.280 237.323  10
  -2   5  17 352.269 149.313  18
   2   5  17 517.457 345.940  20
  -2   5  17 475.447 227.289  12
   5  -2 -17 674.960 359.619  16
  -5   2  17-96.4337 83.1048  18
  -2   5  17 710.529 384.966   9
  -2   5  17 358.581 205.136  11
   2   5  17 497.427 204.592  11
  -2   5  17 317.023 261.694  20
  -2   5  17 316.409 143.799  10
  -5   2  17 112.412 139.003   1
   2   5  17 135.649 209.857   7
   2  -5 -17 502.511 300.973  16
   2  -5 -17 566.009 331.553   2
   2   5  17-178.984 340.911  15
   2   5  17 372.568 271.530   3
   2  -5 -18 1327.16 393.859  17
   5  -2 -18 1089.00 375.270   2
  -5  -2 -18 1913.58 631.104  16
  -5  -2 -18 751.878 221.459   6
   2  -5 -18 997.040 421.717   2
  -2  -5 -18 1290.12 526.448  16
  -2  -5 -18 1578.45 491.328   2
  -5   2  18 174.920 138.482   1
   5  -2 -18 1401.18 409.595  17
   2  -5 -18 1024.20 412.814  16
   2  -5 -18-174.043 154.241   6
   2   5  18 1021.64 378.619  12
   2   5  18 654.387 397.832  20
  -2   5  18 792.029 297.257   3
  -2   5  18 1170.21 393.019  11
   2   5  18 765.536 255.632  11
  -5  -2 -18 1173.61 452.343   8
  -2   5  18 1153.02 507.302  10
  -2   5  18 800.640 413.037   9
   2   5  18 615.483 330.407   9
   2   5  18 638.359 336.833  10
  -2  -5 -18 1602.23 547.347   6
  -2   5  18 830.903 272.909  18
   5  -2 -18 1422.51 510.642  16
  -2   5  18 598.231 251.516  20
   2  -5 -19 1823.47 574.660  16
   2   5  19 911.436 497.259  20
  -2  -5 -19 2633.00 735.347  16
   5  -2 -19 2002.36 624.735  16
   2   5  19 938.509 381.464   9
  -5  -2 -19 2350.63 609.186   8
  -2  -5 -19 2091.40 694.452   6
   2  -5 -19 2831.24 721.581   2
   2  -5 -19 2313.97 515.242  17
  -2  -5 -19 3055.63 708.283   2
  -2   5  19 1445.90 381.574  18
  -5  -2 -19 2936.82 819.381  16
  -2   5  19 1592.34 467.148  11
   2   5  19 998.747 311.917  11
   5  -2 -19 2123.98 563.341   2
  -2   5  19 1100.66 524.446  10
  -2   5  19 1329.22 530.438   9
   5  -2 -19 2450.15 589.700  17
   2   5  19 1177.19 483.277  10
  -5  -3   0 8.93032 39.6880  14
  -5   3   0-175.743 224.972   1
   5   3   0 19.3148 48.9925  19
  -5  -3   0-51.3786 143.963   8
  -5   3   1 766.044 298.452   1
  -5  -3  -1 1064.71 300.398   6
  -5  -3  -1 1269.25 278.487  14
   5   3   1 2024.18 328.430  19
   5   3   1 1434.90 335.701  12
  -5  -3  -1 1396.28 317.718   1
  -5  -3  -1 1300.61 295.359   8
  -5   3   2 330.036 234.995   1
  -5  -3  -2 244.703 106.010   8
  -5  -3  -2 315.399 149.035  14
  -5   3   2 377.072 167.772  18
  -5  -3  -2 377.237 162.707   6
   5   3   2 350.931 152.379  12
  -5  -3  -2 384.388 145.304   1
   5   3   2 427.516 149.852  19
   5   3   2 303.427 106.782   5
   5   3   3 2523.02 509.443   3
   5   3   3 2619.61 328.151   5
   5   3   3 2378.62 342.627   4
  -5  -3  -3 2283.41 368.888   6
   5   3   3 2506.34 377.583  12
   5  -3  -3 739.318 300.219  17
  -5  -3  -3 2364.61 351.868  14
  -5  -3  -3 2265.18 337.858   8
  -5  -3  -3 2360.05 324.786   1
  -5   3   3 2741.48 497.682  13
  -5   3   3 2765.44 500.065  18
  -5   3   3 2576.65 595.720   1
   5   3   3 2456.15 337.052  19
   5  -3  -4 249.279 150.760   2
  -5   3   4 641.238 310.817   1
   5   3   4 448.987 145.812   4
  -5  -3  -4 567.667 182.506   6
   5   3   4 560.567 218.860   3
   5   3   4 546.709 168.485  12
   5   3   4 590.701 149.743   5
  -5  -3  -4 596.636 155.629   1
   5   3   4 599.433 168.556  19
  -5  -3  -4 600.904 177.637  14
  -5  -3  -4 518.291 177.398   8
  -5   3   4 580.908 217.353  18
  -5   3   4 559.436 199.451  13
   5  -3  -4 207.466 142.086  17
  -5   3   5 1281.64 307.263  18
   3   5   5 1007.66 325.099   3
  -5  -3  -5 1065.47 243.302   6
  -5   3   5-240.828 354.618  14
  -3  -5  -5 252.429 121.513   6
  -5   3   5 1033.12 339.030   1
   5   3   5 948.251 238.444   3
   5   3   5 923.024 220.574  12
  -5   3   5 1171.72 253.280  13
  -3   5   5 915.402 336.021  13
   3   5   5 1240.17 286.525  12
   5  -3  -5 547.541 199.035   5
   5   3   5 1087.77 228.972   4
   5  -3  -5 667.896 193.226  19
   5  -3  -5 665.957 230.608   2
  -5  -3  -5 890.767 206.006   8
  -5  -3  -5 1038.67 223.988  14
   5   3   5 975.313 195.651   5
  -5  -3  -5 986.766 297.692  16
   5  -3  -5 613.191 252.586  17
   5   3   5 1038.68 223.712  19
   5  -3  -6 2360.77 353.884  16
   5   3   6 3386.19 400.005  19
   3   5   6 4169.81 627.530   3
  -5   3   6 3639.75 418.270  13
  -5  -3  -6 3883.98 478.881   6
  -3   5   6 2837.72 535.896  18
  -3  -5  -6 1904.94 393.968   6
  -5   3   6 3826.31 633.361   1
   5  -3  -6 2676.84 353.879  19
  -5   3   6 85.2849 213.940  14
   5   3   6 3372.17 426.823   4
   5   3   6 3492.27 360.713   5
   5   3   6 3196.50 421.722  12
   3   5   6 4136.59 506.496  12
   5  -3  -6 2448.67 494.762   5
  -5  -3  -6 4595.55 698.512  16
   5  -3  -6 2679.22 437.107   2
   5  -3  -6 2429.29 464.561  17
  -5  -3  -6 3398.23 392.414  14
   5   3   6 3185.25 454.380   3
  -5   3   6 3770.71 500.255  18
  -3   5   6 4118.87 682.118  13
  -5  -3  -6 3345.33 406.794   8
   5  -3  -7 1148.82 232.871  16
  -5   3   7 1323.26 261.563  13
  -5  -3  -7 1249.35 257.324   8
  -5  -3  -7 1919.06 427.234  16
  -3   5   7 1356.13 308.515   3
  -5  -3  -7 1569.46 308.069   6
  -3  -5  -7 1135.56 306.353   6
   3   5   7 1764.72 384.321   3
   5   3   7 1013.86 260.260   3
  -5  -3  -7 1486.59 265.739  14
  -3  -5  -7 983.263 288.940  14
  -5   3   7-21.2331 193.308  14
  -3  -5  -7 982.163 285.693   8
  -5   3   7 1468.51 380.520   1
   5   3   7 1278.63 232.984   5
  -5   3   7 1445.17 310.750  18
   5   3   7 1351.29 291.084   4
   5   3   7 1059.26 258.493  12
   3   5   7 1383.64 283.104  12
   5  -3  -7 1164.23 292.657   2
   5  -3  -7 923.730 314.086   5
  -3   5   7 1768.44 419.885  13
   5   3   7 1273.31 255.020  19
   5   3   7 693.328 234.763  13
  -3   5   7 1315.55 368.959  18
   5  -3  -7 1111.71 306.164  17
   3   5   7 419.069 209.528  13
  -5  -3  -8 3040.22 408.438   8
  -5   3   8 4464.15 730.405  20
  -3  -5  -8 2140.68 520.506  16
   5   3   8 1938.64 388.688  13
  -3  -5  -8 2465.96 436.551   6
  -3   5   8 3571.85 470.184   3
   3  -5  -8 1903.83 316.222   6
   3   5   8 3499.67 522.363   3
  -5   3   8 2932.40 294.464   3
   5  -3  -8 2791.80 497.551  17
  -5  -3  -8 3233.16 400.753  14
  -3  -5  -8 3073.30 436.048  14
   3  -5  -8 1460.08 432.324  17
   5  -3  -8 2667.73 367.598  16
   5  -3  -8 2740.65 448.370   2
   3  -5  -8 1196.09 343.964   2
   3   5   8 2916.56 704.396  13
  -3   5   8 3051.82 529.046  13
   5   3   8 2597.46 399.145   5
   5   3   8 2261.77 384.545  12
   5   3   8 2507.76 362.641  19
  -5   3   8 3988.80 592.799  11
  -5   3   8 3006.19 537.809   1
   3   5   8 3341.94 437.064  12
  -3   5   8 3417.99 568.215  18
   5   3   8 2707.58 437.939   4
  -5  -3  -8 4307.09 632.628  16
  -3  -5  -8 2726.54 440.807   8
  -5   3   8 3079.94 441.569  18
   3   5   8 3250.75 374.241   4
   5   3   8 2238.33 388.744   3
   5  -3  -8 2712.08 500.705   5
  -5  -3  -8 3481.05 478.443   6
  -5   3   9 2263.30 600.386  20
   5   3   9 1212.06 258.666  19
   5  -3  -9 1498.81 290.076  16
  -5  -3  -9 2274.36 477.116  16
   3  -5  -9 881.754 271.927  16
  -3   5   9 1748.05 310.698   3
  -5  -3  -9 2133.78 407.709   6
   3  -5  -9 1193.24 249.758   6
  -3   5   9 2000.67 420.339  18
  -3  -5  -9 1677.57 368.175   6
  -3  -5  -9 1564.88 319.671   8
   3   5   9 1972.75 373.691   3
  -5   3   9 1711.17 237.405   3
  -5  -3  -9 1989.42 332.317  14
   5   3   9 1122.30 286.403   3
   3   5   9 2098.63 286.739   4
   5   3   9 1505.99 373.125  20
  -3   5   9 1822.31 384.442  13
  -3   5   9-103.960 240.584   1
   3   5   9 1805.20 524.449  13
   5   3   9 1317.68 343.919   4
  -3  -5  -9 1393.01 407.209  16
   5  -3  -9 1360.33 337.789   5
   5   3   9 1160.38 291.693  12
  -5   3   9 1507.07 371.280   1
   5  -3  -9 1602.61 355.335   2
  -5   3   9 1948.66 420.013  11
   3  -5  -9 1026.31 336.409  17
  -5   3   9 1676.08 339.807  18
   5   3   9 1212.70 270.770  10
   3  -5  -9 847.468 295.683   2
  -5   3   9 1925.67 470.824  10
   5   3   9 1013.17 274.717  13
   3   5   9 1829.30 322.437  12
   3   5   9 2213.03 406.797  19
   5  -3  -9 1560.19 371.124  17
  -5  -3  -9 1867.38 332.009   8
   5   3   9 1667.38 398.796   5
  -3  -5  -9 1747.33 287.081  14
  -3  -5 -10 572.395 158.371   8
   3   5  10 586.110 162.033   4
   3   5  10 439.510 185.948   3
  -3  -5 -10 453.063 135.085  14
  -5   3  10 425.448 129.692   3
  -5  -3 -10 501.543 211.597  16
   5   3  10 380.480 227.841   7
  -3  -5 -10 429.498 115.864  17
   3  -5 -10 212.376 70.9555   2
   5   3  10 278.931 136.493  13
  -5   3  10 601.863 272.003  20
  -5  -3 -10 477.474 155.708  14
  -3   5  10 589.937 198.367  18
   3  -5 -10 230.015 107.792   6
  -3  -5 -10 414.429 217.017  16
  -3   5  10 479.279 175.275   3
   5  -3 -10 354.350 131.861  16
  -3   5  10-212.773 302.998   1
   3   5  10 463.287 227.697  13
  -5  -3 -10 462.038 173.325   8
   3   5  10 477.582 155.473  12
  -3   5  10 510.241 151.466  12
   5   3  10 331.832 191.147  20
   5   3  10 237.170 130.945  19
   5  -3 -10 363.499 172.420   5
  -5   3  10 272.234 155.097   1
  -5   3  10 352.188 210.391  10
  -5   3  10 393.130 176.210  18
  -3   5  10 476.214 210.923  13
   5   3  10 215.741 129.636   4
   5   3  10 399.296 228.682  15
  -5   3  10 574.567 236.359  11
   5  -3 -10 399.163 188.608  17
  -3  -5 -10 459.742 179.139   6
   5   3  10 365.887 181.302  10
   5   3  10 386.085 165.464   9
   3   5  10 506.090 173.150  19
   3  -5 -10 299.354 139.654  17
   5  -3 -10 414.541 195.183   2
  -5   3  10 458.362 260.536   9
  -5  -3 -10 622.595 248.615   6
   3  -5 -10 393.445 174.863  16
  -3   5  11 1770.81 346.126   3
   3  -5 -11 886.529 253.328   6
   3  -5 -11 1390.68 402.795  16
  -3  -5 -11 1678.78 467.701  16
  -5  -3 -11 1811.23 467.685  16
  -3  -5 -11 1615.13 385.200   6
  -5  -3 -11 1606.02 412.794   6
   5  -3 -11 1183.47 302.839  16
   5   3  11 1153.39 434.457  15
   3   5  11 1768.82 387.759   3
   5   3  11 520.981 348.220   4
  -5  -3 -11 1812.15 413.464  14
   3   5  11 1405.12 194.615  18
  -5   3  11 1245.22 437.281   9
  -5  -3 -11 1926.15 383.712   8
   3   5  11 2376.36 566.085  13
  -3   5  11 1713.09 416.147  13
   3   5  11 1682.40 324.219  12
   5   3  11 1454.17 368.907   9
   5  -3 -11 1239.73 357.239   2
  -3   5  11 1759.84 303.917  12
  -3  -5 -11 1521.29 236.517  14
  -3   5  11 639.237 442.730   1
   3   5  11 2054.83 344.294  19
  -3   5  11 1651.32 397.170  18
  -5   3  11 1516.95 377.868  11
   5  -3 -11 1134.75 306.084   5
   5   3  11 1097.76 401.663  10
  -5   3  11 1121.97 390.956  10
   3  -5 -11 1186.25 444.341   2
  -5   3  11 1054.77 395.998  20
  -3  -5 -11 1803.38 306.023   8
   5  -3 -11 1366.09 357.860  17
   5   3  11 1235.50 403.994  20
   3   5  11 2150.83 363.790   4
  -5   3  11 1155.47 292.725  18
   5   3  11 1398.01 503.971   7
  -5   3  11 942.541 315.291   1
  -3  -5 -11 1782.67 248.615  17
   3  -5 -11 1363.27 432.114  17
  -3   5  12 56.7235 48.4729  12
   3   5  12 105.064 70.6299  11
  -5   3  12-18.9952 66.6935   9
  -3   5  12 39.0123 42.6117  15
  -3  -5 -12 115.060 115.675  16
  -5  -3 -12 106.159 161.485  16
  -5  -3 -12 125.437 112.803   2
   5   3  12-34.3663 131.447  20
   5   3  12-153.960 243.630  15
   3  -5 -12 25.9806 48.7395  17
  -3  -5 -12 68.8802 81.9703  14
  -3   5  12-112.862 140.037  13
  -3   5  12 60.6118 155.102   1
   3  -5 -12 24.3252 62.9568  16
   3   5  12 105.508 77.4471   3
  -3  -5 -12 121.702 66.3953  17
   3   5  12 90.8397 64.1646  19
  -3   5  12 63.5169 41.9615   3
  -5   3  12-77.2740 42.2817  10
   3   5  12 72.8445 62.2084  12
  -5   3  12 131.832 106.780  18
  -3  -5 -12 71.6527 83.5352   8
   5  -3 -12 103.126 104.207  17
  -3   5  12 43.3383 70.7834  11
   5  -3 -12 47.1653 50.4757   5
  -5   3  12 101.436 120.314  11
   3   5  12 159.703 148.531   4
   5   3  12 16.7336 77.0170  10
   5  -3 -12 9.43482 81.8598   2
  -5  -3 -12 112.324 112.635   8
  -5  -3 -12 38.3511 55.8560  14
   3   5  12 40.2878 32.4468  18
   3  -5 -12 125.316 142.820   2
  -5   3  12 53.6345 85.0670   1
   5   3  12 98.2587 109.670   9
   3  -5 -12 55.5163 87.0387   6
  -3   5  12-32.9793 115.148  18
   5   3  12 48.8858 82.4084  19
  -3  -5 -12 133.966 103.005   6
  -3   5  12 4.46567 57.7095   7
   3   5  12 53.8966 72.3881  13
   5   3  12 39.5855 189.277   7
  -5  -3 -12 60.8750 139.070   6
   5  -3 -12 54.4633 71.1503  16
  -3   5  13 1757.17 396.555  13
  -5  -3 -13 2845.85 571.147   6
   5   3  13 756.703 228.695   9
   3  -5 -13 2249.81 466.794  16
  -3  -5 -13 2356.73 550.398  16
   3  -5 -13 916.255 297.314   6
  -5  -3 -13 3058.64 619.932  16
   5  -3 -13 2072.63 433.549  16
   5   3  13 1161.17 438.547  15
  -3   5  13 2096.22 376.634   3
  -5  -3 -13 3124.13 640.966  14
  -3  -5 -13 1529.54 373.437   2
  -3  -5 -13 2352.29 337.170  14
   5   3  13 1020.37 260.108  19
  -3   5  13 2033.30 674.095  15
   5  -3 -13 2570.01 454.480   5
   3   5  13 1852.73 443.618  13
  -3   5  13 2202.63 307.013  12
   5  -3 -13 2489.38 497.652  17
  -5   3  13 1668.91 403.525   1
   5   3  13 1012.46 343.116  10
  -3  -5 -13 2744.86 546.443   6
   3  -5 -13 1846.68 482.995   2
   5  -3 -13 2492.51 519.029   2
   3   5  13 2442.06 346.348  11
  -5   3  13 2230.30 508.316  11
  -3   5  13 2928.60 751.266  20
  -5  -3 -13 3332.31 461.975   2
  -5  -3 -13 2860.64 479.413   8
  -3  -5 -13 2540.72 311.719  17
  -3  -5 -13 2536.31 381.269   8
  -3   5  13 2658.86 541.628  11
   5   3  13 1297.11 390.201  20
  -3   5  13 2033.93 649.855   7
  -3   5  13 2222.77 415.397  18
   3   5  13 1489.11 345.169   3
   5   3  13 1203.90 436.695   7
  -5   3  13 1874.27 649.070  10
   3   5  13 1666.07 351.206  12
  -5   3  13 1780.69 600.135   9
  -5   3  13 1820.25 392.762  18
   3  -5 -13 2116.88 450.307  17
  -3   5  13 771.286 355.292   1
   3  -5 -14 183.959 135.846  17
   3  -5 -14 107.289 102.612  16
  -3   5  14 272.055 108.094  12
  -3  -5 -14 157.118 119.263  16
  -5  -3 -14 360.731 234.429  16
  -3   5  14 173.107 242.305  20
   5   3  14-131.682 326.703  15
  -5   3  14-161.340 281.576  10
  -5  -3 -14 182.636 144.707   6
  -5  -3 -14 286.009 173.531  14
   5  -3 -14 196.302 144.754  17
   3   5  14 238.664 241.164  15
  -5   3  14 104.080 125.142   1
  -5   3  14 112.321 120.172   9
   5   3  14 67.8228 94.7982  19
  -3  -5 -14 216.875 94.7291   8
  -3   5  14 244.289 129.076   3
  -3   5  14 317.424 202.703  13
   3   5  14 191.657 226.820   7
  -3  -5 -14 110.811 133.927   2
   3   5  14 108.582 97.1362  12
   5  -3 -14 287.783 169.171   2
   3  -5 -14 223.341 169.709   6
  -3   5  14 207.563 136.590  18
  -3   5  14 270.204 191.229  11
   3   5  14 298.215 119.860  11
   5  -3 -14 283.163 174.604   5
   3   5  14 7.03487 65.4795  13
  -3  -5 -14 258.394 148.683   6
  -5   3  14 109.196 80.3593  11
   3   5  14 446.858 288.553  20
   3  -5 -14 187.759 103.358   2
   5   3  14 275.730 242.372  10
  -5   3  14 103.829 112.034  18
  -5  -3 -14 358.911 180.027   8
   5  -3 -14 252.093 142.727  16
   5   3  14-92.0167 273.219   7
   3   5  14 188.265 146.368   3
   3  -5 -15 573.287 263.833  16
  -5   3  15-28.6745 242.001   9
   5  -3 -15 464.907 247.054  17
   5  -3 -15 460.769 229.678   2
   3   5  15 615.720 398.146   7
  -5   3  15 273.340 190.673   1
  -5   3  15 410.715 224.335  11
  -5  -3 -15 631.446 342.186  14
   5  -3 -15 533.156 269.410  16
  -5  -3 -15 481.556 222.381  16
  -3  -5 -15 545.391 299.891  16
  -3   5  15 765.669 438.450  20
  -5   3  15 283.312 152.399  18
   3   5  15 474.307 276.754  15
   5   3  15 305.500 170.844  19
   3   5  15 570.816 272.921  13
  -3   5  15 421.029 250.460  13
   3   5  15 473.233 252.516  10
  -3   5  15 418.032 184.163   3
  -5  -3 -15 477.557 308.102   6
  -3   5  15 540.147 325.906  10
   3  -5 -15 684.714 324.685   2
  -3   5  15 560.232 245.795  11
   5  -3 -15 787.693 279.423   5
   3   5  15 361.444 173.925  12
   3   5  15 601.369 308.782  20
   3   5  15 362.401 226.227   3
  -3   5  15 597.954 243.200  18
  -3  -5 -15 1072.65 442.694   2
   3  -5 -15 333.796 181.620  17
  -3  -5 -15 824.693 345.810   6
  -3  -5 -15 659.773 204.156   8
  -5  -3 -15 740.302 274.269   8
   3   5  15 512.141 172.027  11
   3  -5 -15 52.1710 82.6372   6
  -3   5  16 146.127 154.994  10
   5  -3 -16 37.3260 86.7339  17
   5  -3 -16 131.330 128.817   2
   3   5  16 115.760 79.3225  15
   3  -5 -16 93.3399 136.935  16
  -3   5  16 101.894 200.345  20
  -5  -3 -16-10.2234 169.527   6
  -3  -5 -16-13.8023 87.1883   6
   3   5  16-216.171 330.001   7
  -3  -5 -16 43.0203 139.065  16
   3  -5 -16 189.311 135.556  17
   3   5  16 125.732 151.156  13
  -3   5  16 43.4327 66.5581   3
   3   5  16 127.276 112.132  12
   3   5  16 154.213 178.802   3
  -3   5  16 141.266 76.0778  18
  -5   3  16-360.940 520.484   9
  -3   5  16 404.053 422.436   9
  -3   5  16 136.564 142.370  11
   3   5  16 260.567 153.719  11
  -5   3  16 55.9227 151.794  11
   3   5  16 147.374 252.023  20
  -5  -3 -16 266.278 182.041   8
   3   5  16 195.290 207.981  10
  -3  -5 -16 168.651 116.532   2
  -5   3  16 208.842 167.857  18
   3   5  16 142.455 224.225   9
   3  -5 -16 244.944 178.452   2
  -5   3  16-30.5096 140.381   1
   5  -3 -16 183.227 177.947  16
  -5  -3 -16-45.0466 128.286  16
  -3  -5 -17 1243.61 449.099   6
   5  -3 -17 1589.21 441.974  17
  -5  -3 -17 1824.78 614.970  16
  -3  -5 -17 1735.92 561.216  16
  -3   5  17 905.632 452.265  10
  -3  -5 -17 2028.96 539.941   2
   3  -5 -17 1373.41 487.965   2
   3   5  17 749.039 357.018  13
   3   5  17 598.218 358.592  15
   3  -5 -17 1116.68 416.327  16
   3   5  17 755.578 366.594  20
   3   5  17 640.336 325.243   3
   3   5  17 659.128 283.906  12
  -3   5  17 805.277 277.632   3
   3   5  17 575.636 300.811   7
   5  -3 -17 1455.01 434.053   2
  -3   5  17 1138.55 462.158   9
  -3   5  17 1418.27 429.452  11
   3   5  17 881.256 348.136   9
  -5   3  17 675.624 307.378  11
   3   5  17 786.495 322.554  10
  -3   5  17 1071.04 354.106  20
  -5  -3 -17 1270.84 381.424   8
  -3   5  17 1064.58 319.616  18
   3  -5 -17 1298.87 382.296  17
  -5  -3 -17 1110.46 459.196   6
   5  -3 -17 1555.68 490.129  16
  -5   3  17 645.787 266.664  18
  -5   3  17 638.151 291.934   1
  -3   5  18 1342.95 599.460  10
  -5  -3 -18 1270.12 496.136   6
   3   5  18 607.253 319.446  10
  -5  -3 -18 1242.75 495.831  16
  -5   3  18 699.771 303.219  18
   3   5  18-124.516 472.067  15
   3   5  18 121.603 480.334   7
   3  -5 -18 1510.66 406.382  17
   3   5  18 915.379 368.144   9
   3   5  18 482.661 259.070   3
   3  -5 -18 1049.10 409.712  16
   3   5  18 649.973 299.871  12
  -3   5  18 813.445 260.467  18
  -5  -3 -18 1505.15 393.247   8
  -3   5  18 1013.41 367.431  11
  -5   3  18 89.4526 185.055  11
  -3   5  18 990.041 320.963  20
  -3  -5 -18 1822.65 564.622  16
   5  -3 -18 1741.29 531.270   2
  -3   5  18 638.280 183.581   3
  -3   5  18 1051.38 488.400   9
   5  -3 -18 1752.46 552.932  16
   3  -5 -18 1671.54 544.935   2
   3   5  18 843.077 385.371  20
   5  -3 -18 1712.51 502.092  17
  -3  -5 -18 1805.15 587.924   6
   3  -5 -19 1266.62 401.963  17
  -3   5  19 722.912 431.502   9
  -3  -5 -19 1384.49 539.043  16
  -5  -3 -19 1042.35 483.282   6
   5  -3 -19 1466.81 485.664   2
  -5  -3 -19 1920.53 520.315   8
  -3   5  19 1085.89 408.833  11
   3   5  19 375.349 274.256  20
  -3   5  19 700.570 441.399  10
   3   5  19 682.724 348.175   9
  -5  -3 -19 1732.33 574.341  16
   3   5  19 545.807 345.229  10
  -3  -5 -19 1358.44 538.505   6
   3  -5 -19 1295.69 482.051   2
   5  -3 -19 1289.97 444.448  16
   3  -5 -19 1151.60 446.305  16
  -3   5  19 830.222 307.246  18
   5  -3 -19 1609.10 471.937  17
  -5  -4  -2 279.600 117.295   8
   5   4   2 810.173 239.579  19
  -5  -4  -3 286.396 156.178   8
  -5  -4  -3 268.683 144.440  14
   5   4   3 454.777 174.285  19
  -5  -4  -3 231.647 127.886   6
   5   4   3 434.213 187.337  12
  -5   4   3 101.619 129.583   1
  -5   4   4 208.474 105.067  18
  -5  -4  -4 255.592 127.455   8
   5   4   4 308.158 186.525   3
  -5  -4  -4 216.109 113.523   6
  -5  -4  -4 204.307 123.208  14
  -5   4   4 486.235 237.235  13
  -4  -5  -4 41.6994 123.551   6
  -5   4   4 57.6979 139.216   1
   5   4   4 321.893 140.450  12
   4   5   4 378.448 151.101  12
   5   4   4 429.380 159.002  19
  -4  -5  -5 329.441 121.786   8
   5   4   5 925.439 225.446  19
  -5  -4  -5 527.012 172.192   8
  -5  -4  -5 697.582 180.154   1
  -5  -4  -5 705.604 206.122  14
   4   5   5 882.675 248.901  12
  -5   4   5 894.327 283.041  18
  -5   4   5 822.203 265.475  13
  -4   5   5 699.218 280.305  13
   4   5   5 795.626 294.184   3
  -4  -5  -5 340.456 176.384   6
   5   4   5 810.836 187.411   5
   5   4   5 864.117 216.348   4
  -5   4   5 625.448 286.784   1
   5   4   5 848.276 287.133   3
   5   4   5 787.287 216.973  12
   5  -4  -5 164.041 149.763  17
  -5  -4  -5 629.474 218.975   6
  -4  -5  -6 484.084 196.955   8
  -4  -5  -6 413.895 185.407   6
   4   5   6 932.034 255.326  12
  -5  -4  -6 663.544 190.666  14
   4   5   6 725.117 282.789   3
  -5   4   6 689.510 226.073  13
  -4   5   6 785.083 287.320  18
   5   4   6 830.804 258.847   3
  -4   5   6 638.952 253.222  13
   5   4   6 716.432 215.140  12
   5   4   6 686.841 167.015   5
   5   4   6 785.900 201.596   4
   5   4   6 921.591 230.545  19
  -5  -4  -6 694.366 218.914   6
  -4  -5  -6 362.530 195.237  14
  -5   4   6 805.489 268.623  18
   5  -4  -6 314.954 121.370   2
   5  -4  -6 468.585 252.660  17
  -5  -4  -6 677.788 200.120   8
  -5   4   6 732.334 321.067   1
  -4   5   7 2754.30 537.439  18
  -5   4   7 2762.39 421.905   3
  -4  -5  -7 2144.35 412.200   8
   5   4   7 2774.73 382.237  19
   5  -4  -7 1566.01 432.818  17
  -5  -4  -7 2803.90 445.715   6
   4   5   7 2711.24 378.438   4
   4   5   7-49.8147 240.207  13
  -4  -5  -7 2035.94 395.916   6
  -5  -4  -7 2900.34 626.169  16
  -4  -5  -7 2427.35 417.124  14
  -5   4   7 2610.84 416.596  13
   5   4   7 2682.62 460.646   3
   5   4   7 2514.31 394.025  12
  -5   4   7 2537.93 596.677   1
   4   5   7 2706.26 408.652  12
   5  -4  -7 1454.33 377.557   2
  -5  -4  -7 2494.09 374.657   8
   5   4   7 2673.06 317.158   5
   5  -4  -7 1383.94 280.721  19
   5   4   7 2590.79 370.431   4
  -4   5   7 3046.80 534.018  13
  -5   4   7 2705.30 477.939  18
   4   5   7 3653.92 541.933  19
   4   5   7 3006.78 521.357   3
   4  -5  -7 592.246 266.612  17
  -5  -4  -7 2651.59 373.086  14
   5  -4  -8 75.0781 34.8011  16
  -5   4   8 238.439 199.876   1
   5   4   8 244.090 112.012  19
  -4  -5  -8 182.607 103.467   6
  -5  -4  -8 288.914 174.939  16
  -5  -4  -8 238.424 112.271   8
  -4   5   8 232.013 119.656   3
  -5   4   8 307.403 127.691   3
  -5  -4  -8 269.722 117.995  14
   4   5   8 269.124 147.618   3
   4   5   8 186.519 145.556  13
  -4   5   8 215.812 122.645  13
  -5   4   8 195.210 101.931  13
   5   4   8 176.769 80.7844  12
   4   5   8 260.999 125.127  12
   5   4   8 228.875 117.074   3
   5  -4  -8 195.717 156.111  17
  -5   4   8 253.849 124.392  18
   5   4   8 241.908 96.7770   5
   4   5   8 371.700 160.490  19
   4  -5  -8-30.9771 174.202   2
  -4  -5  -8 198.530 108.836  14
   5   4   8 228.907 108.467   4
  -4   5   8-41.2271 204.898   1
   5  -4  -8 120.113 53.0055   2
  -4   5   8 242.578 157.955  18
   5   4   8 34.9642 67.3341  13
  -4  -5  -8 209.151 124.006   8
   4  -5  -8 88.3566 52.9716  17
  -5  -4  -8 193.021 109.263   6
   4   5   8 281.142 128.226   4
  -4  -5  -9 1503.51 299.575   8
  -5  -4  -9 1757.59 460.139  16
   5  -4  -9 1107.46 353.460  17
  -5  -4  -9 1639.35 369.527   6
  -4   5   9 1513.25 294.726   3
   4   5   9 1558.99 350.553   3
   5   4   9 1088.90 284.789   3
   4  -5  -9 1052.56 389.129  17
  -4  -5  -9 1400.73 264.955  14
   4   5   9 1739.36 330.038  19
  -4  -5  -9 1243.62 382.163  16
  -4  -5  -9 1440.01 341.114   6
   5  -4  -9 1033.51 275.927  16
  -5   4   9 1443.75 308.095  13
  -4   5   9 748.778 321.715   1
   5   4   9 1169.68 290.808  12
   4   5   9 1396.05 287.633  12
   4   5   9 1246.58 422.432  13
   5  -4  -9 668.375 220.395   5
  -5   4   9 1690.40 373.336  18
   5  -4  -9 1187.90 331.624   2
  -5  -4  -9 1513.31 275.361  14
   4   5   9 1628.51 291.851   4
  -4   5   9 1312.19 333.618  13
   5   4   9 1023.46 357.131  13
   5   4   9 1544.26 285.194  19
   5   4   9 1276.86 293.327   4
  -4   5   9 1416.18 353.818  18
  -5   4   9 1561.22 264.070   3
   5   4   9 1265.73 238.344   5
   4  -5  -9 783.182 290.594   2
  -5   4   9 1373.40 447.539   1
   4  -5  -9 679.553 189.067  16
  -5  -4  -9 1391.68 282.595   8
  -5  -4 -10 1550.02 508.707  16
  -5   4  10 1545.95 459.201  11
   4   5  10 1282.40 270.897  19
  -5  -4 -10 1121.45 254.680  14
  -4   5  10 1249.01 330.022  13
   4   5  10 1031.03 269.253  12
  -4  -5 -10 1097.81 382.260  16
   5  -4 -10 734.176 266.880  16
  -5  -4 -10 1243.42 341.473   6
   4  -5 -10 862.456 356.377  17
  -4   5  10 1209.82 279.217   3
   5   4  10 1752.25 553.019  13
   4  -5 -10 468.884 219.415   2
   4   5  10 998.791 283.722   3
   5   4  10 1158.23 351.160   5
  -5   4  10 957.062 421.735   1
  -4  -5 -10 981.576 285.663   6
   5  -4 -10 812.286 357.295   5
  -5  -4 -10 1402.12 322.192   8
  -4  -5 -10 1062.43 246.695   8
   5  -4 -10 769.723 300.541   2
  -4   5  10 360.158 196.830   1
  -4  -5 -10 920.635 207.338  14
   5  -4 -10 1045.48 374.813  17
   4   5  10 954.797 220.128   4
  -4   5  10 1011.39 299.607  18
  -5   4  10 1118.45 327.888  18
   4  -5 -10 516.485 152.179   6
   4   5  10 909.140 406.983  13
  -5   4  10 1733.10 584.884  20
   4  -5 -10 435.252 143.733  16
   4   5  11-31.4932 70.1733   4
   5   4  11 4.87382 47.5435  13
  -5   4  11 15.1823 79.1923  18
   5   4  11 38.8485 70.4211   3
   5  -4 -11 132.872 147.846   2
  -5  -4 -11 83.8877 62.4816  16
  -4   5  11-29.3813 52.1887  13
   4   5  11 36.7946 42.0539   3
   5   4  11-6.89924 85.5453  20
   4  -5 -11 151.846 83.1307   6
  -4   5  11 7.45372 118.040  15
  -5  -4 -11 67.5251 103.670   6
   5  -4 -11 37.4611 85.4044  16
  -4  -5 -11 2.24535 41.3750  14
  -5   4  11 60.0666 86.6671   1
  -5   4  11-144.867 137.629  20
   4  -5 -11-4.68040 23.3559   2
  -4   5  11 15.1200 10.9741  12
   4  -5 -11 124.121 154.454  17
  -4   5  11 49.5031 56.4083   3
  -5   4  11-16.5395 29.1056  13
   5   4  11-93.6636 223.433   5
   5   4  11 37.2933 73.9575  12
   4   5  11 67.4665 86.8748  12
   5  -4 -11-48.3882 164.201   5
  -4  -5 -11 57.4388 109.008   6
   4   5  11-4.03566 32.0583  19
  -5   4  11-12.4111 48.9596  11
  -5  -4 -11 8.32957 55.0412  14
   5  -4 -11-15.1198 85.1898  17
  -4   5  11 112.668 115.691   7
  -4   5  11-0.97297 54.3754  18
   4   5  11 89.6381 173.788  13
   5   4  11 11.5462 30.7943  19
   5   4  11-38.8764 107.687   4
  -4  -5 -11-43.0896 125.825  16
  -4  -5 -11 27.4953 57.0327   8
  -5   4  11 25.5441 28.5173   3
   4  -5 -11 96.4669 119.399  16
  -4   5  11-26.6664 116.150   1
  -5  -4 -11 88.3347 80.9497   8
   4   5  12 410.688 204.966  13
   5   4  12 397.402 141.922  19
  -4  -5 -12 464.031 232.993  16
  -5  -4 -12 548.886 249.717  16
   4   5  12 598.470 183.201  19
   5   4  12 671.349 343.487   7
   5   4  12 510.379 255.163  20
   5   4  12 534.899 294.798  15
   4  -5 -12 141.239 123.216   6
  -5   4  12 730.410 429.524  20
  -5  -4 -12 545.910 181.434  14
  -4  -5 -12 497.442 149.110  14
  -5  -4 -12 695.875 278.600   6
  -5   4  12 490.683 260.831   1
   5  -4 -12 481.085 202.191  16
   5   4  12 336.177 174.725  10
  -4   5  12 497.781 171.862   3
   5   4  12 247.207 119.835  13
  -4   5  12 403.228 194.073  13
   5   4  12 325.417 178.580  12
   4   5  12 213.572 115.159  12
   4   5  12 402.374 144.588   4
   5  -4 -12 542.055 282.351   5
   4  -5 -12 332.992 188.370   2
  -4   5  12 710.694 301.184  11
   4   5  12 549.725 148.695  11
  -5   4  12 506.227 228.374  11
  -5   4  12 632.924 391.206  10
  -5  -4 -12 474.714 182.022   8
   5  -4 -12 453.305 209.434  17
  -4  -5 -12 543.921 223.181   6
  -4   5  12 390.407 175.353  18
  -5   4  12 472.402 158.236   3
  -4  -5 -12 594.586 197.851   8
   5   4  12 327.309 201.985   4
   4  -5 -12 313.600 194.152  17
   5  -4 -12 312.464 182.144   2
   4   5  12 209.837 117.095   3
  -5   4  12 425.890 204.841  18
   5   4  12 271.287 177.395   3
   4  -5 -12 320.594 163.598  16
  -4   5  12 404.242 330.774   1
   5   4  13 364.496 214.569  20
   4   5  13 506.981 197.760   4
  -4   5  13 438.962 264.009   1
   5  -4 -13 370.525 184.299  16
  -5  -4 -13 620.925 283.892  16
   4  -5 -13 315.107 195.891  16
  -4  -5 -13 530.072 177.582   8
   4  -5 -13 507.505 239.622  17
   5   4  13 405.111 301.332  15
  -4  -5 -13 617.869 243.045   6
   5   4  13 364.019 159.947  19
   5   4  13 401.537 227.586  13
   5   4  13 456.841 306.716   7
  -4   5  13 528.973 183.936   3
   5  -4 -13 296.999 185.760  17
   4   5  13 319.931 208.524  13
  -4   5  13 464.155 219.707  13
   4   5  13 290.953 171.762   3
  -5   4  13 614.194 202.948   3
   5   4  13 310.721 204.212  12
   4   5  13 273.653 117.696  12
   5   4  13 257.061 206.054   3
  -4  -5 -13 764.810 305.158  16
   5  -4 -13 554.826 304.442   5
  -5  -4 -13 497.987 217.642   6
  -4   5  13 249.910 266.772  20
  -4   5  13 494.151 262.448  11
   4   5  13 551.287 152.980  11
  -5   4  13 483.082 240.554  11
  -5  -4 -13 597.929 233.847  14
  -5   4  13 597.375 350.910  10
  -5   4  13 239.931 129.715  20
  -4   5  13 422.120 179.172  18
   5   4  13 570.659 249.407   9
   5   4  13 187.908 120.112  10
  -5   4  13 685.648 409.586   9
   5   4  13 1.27488 246.768   4
  -4  -5 -13 438.404 145.907  14
   4  -5 -13 400.395 204.217   2
  -5   4  13 515.775 260.265   1
   4   5  13 375.714 136.714  19
  -5   4  13 546.520 222.377  18
  -5  -4 -13 528.630 205.968   8
   5  -4 -13 456.113 236.024   2
   5   4  14 234.313 143.482  10
   5  -4 -14 530.770 256.521  17
  -5   4  14 281.655 293.587  10
  -4   5  14 460.313 223.632  11
  -4   5  14 328.901 175.138  18
   4  -5 -14 197.101 140.721  17
  -4  -5 -14 552.445 312.747  16
  -5  -4 -14 604.092 303.342  16
   5  -4 -14 446.519 218.321  16
   4   5  14 670.338 379.658   7
   4   5  14 299.127 232.627  20
  -4  -5 -14 487.918 182.306   8
   4   5  14 264.598 222.623  15
   4   5  14 308.658 177.172   3
  -4   5  14 414.172 388.146  20
  -5  -4 -14 420.254 232.467   6
   5   4  14 243.941 126.407  19
  -5   4  14 587.004 378.797   9
   5   4  14 313.781 247.392  15
  -4   5  14 265.208 137.587   3
   4   5  14 277.772 196.111  13
  -4   5  14 302.173 198.967  13
   5   4  14 120.717 114.616  13
  -5   4  14 117.658 114.074   1
  -5   4  14 326.589 148.330   3
   4   5  14 229.904 157.744  12
   5  -4 -14 314.830 206.947   5
   5   4  14 232.439 189.663   9
  -5   4  14 404.781 225.685  11
   5  -4 -14 494.056 267.776   2
  -5  -4 -14 402.854 181.957   8
   4   5  14 366.434 241.753  10
  -4   5  14 484.272 283.275  10
  -5   4  14-61.1122 331.058  20
   5   4  14 255.800 257.447   7
  -4  -5 -14 594.398 248.059   6
   5   4  14 232.454 213.347  20
   4  -5 -14 422.065 240.362   2
  -5  -4 -14 497.082 234.360  14
  -5   4  14 268.173 149.653  18
  -4   5  14 136.859 189.498   1
   4  -5 -14 327.780 191.064  16
   4  -5 -15 42.4303 33.8482  17
  -4  -5 -15 158.438 148.770   6
   5  -4 -15-58.4498 45.3723  17
   4  -5 -15 1.93907 77.9861   2
   4   5  15 76.1304 192.049  15
   4   5  15 6.11579 54.0236  10
  -4   5  15-92.3493 250.022  20
   5   4  15-5.71521 108.906   7
  -5  -4 -15 164.059 165.165  16
   4   5  15 93.8595 84.3356   3
   5   4  15-183.216 260.385  15
  -4  -5 -15 98.5816 139.751  16
  -4   5  15 89.2307 199.738  11
  -5  -4 -15 21.0392 66.6049   6
  -5  -4 -15 287.632 203.075  14
  -4   5  15 59.9016 83.1568   3
   5   4  15 72.6041 115.906   9
  -5   4  15 158.868 161.284  10
   5   4  15 91.0223 154.545  10
  -4   5  15 118.392 172.571  13
   4   5  15 164.120 163.150  12
   4   5  15 241.939 282.186   7
  -5   4  15 3.88506 121.584   1
  -4   5  15 117.027 197.117  10
  -5   4  15-89.1287 52.4291   9
   5  -4 -15 20.0114 104.361  16
   4  -5 -15 42.9161 78.0192  16
   5   4  15 33.7730 128.669  20
  -4   5  15 129.269 144.537  18
  -5  -4 -15 66.5458 49.9399   8
  -5   4  15 89.0872 120.480  18
   4   5  15 41.4485 138.463  20
   5  -4 -15-48.7817 133.095   2
  -5   4  15-6.90441 55.2040  11
  -4  -5 -15 29.8315 38.9639   8
   4   5  15-47.2523 83.5712  13
   4   5  16 180.831 181.014  20
   5  -4 -16 157.512 102.934  17
   5   4  16-124.055 267.247   7
   5   4  16-155.962 348.177  15
   4   5  16 166.135 172.413   9
   4   5  16 51.4497 218.652  15
   4   5  16 86.7576 52.3226  10
  -5  -4 -16 522.124 322.813   6
  -4  -5 -16 209.069 192.938   6
  -5   4  16 12.8168 47.7281   1
  -5   4  16 301.314 332.817   9
   4   5  16 143.679 91.5079   7
   5   4  16 111.361 150.527  10
   4  -5 -16 158.587 174.576   2
   4   5  16 170.655 147.676  13
   4   5  16 11.1240 46.1399   3
   4   5  16 197.236 167.696  12
  -4   5  16 425.965 340.982   9
  -4   5  16 165.285 101.945  18
   5   4  16-17.8230 219.268   9
  -4   5  16 66.4974 100.748  11
  -5   4  16 103.296 130.734  11
  -5  -4 -16 403.970 189.689   8
  -4   5  16 194.215 283.615  10
  -4   5  16 253.537 69.1584  20
   5   4  16-56.0112 159.961  20
  -4   5  16 204.217 154.900   3
  -5   4  16 163.852 120.398  18
  -5   4  16 183.122 287.507  10
   4  -5 -16 277.714 207.894  16
  -4  -5 -16 270.300 226.706  16
   5  -4 -16 299.381 164.624  16
  -5  -4 -16 322.548 219.853  16
  -4  -5 -16 269.690 148.211   8
   5  -4 -16 96.5126 111.857   2
   4  -5 -16 264.349 197.428  17
   5  -4 -17 551.117 353.003  16
  -4  -5 -17 392.382 237.689  16
   4  -5 -17 353.889 215.921  16
   4   5  17 88.0357 315.584  15
   5   4  17 302.052 216.094  10
  -5  -4 -17 934.225 441.594   6
  -4  -5 -17 519.237 206.282   6
   5   4  17-35.3671 267.813   9
   4   5  17 332.854 224.711   3
  -5  -4 -17 704.019 347.586  16
  -4   5  17 403.392 203.672  18
   4   5  17-58.7279 107.086  13
   4  -5 -17 606.357 310.467  17
  -4   5  17 493.653 249.467   3
   4   5  17 166.201 111.158  12
   4  -5 -17 371.256 119.084   2
  -5   4  17 395.864 239.506   9
  -4   5  17 760.876 485.541   9
  -4   5  17 262.212 382.647  10
  -4   5  17-119.172 512.578  20
  -4   5  17 483.660 245.728  11
   4   5  17 316.572 189.147   9
  -5   4  17 566.387 349.108  11
   4   5  17 398.588 253.533  10
  -5   4  17 88.3633 151.513  10
  -5  -4 -17 593.944 248.122   8
   4   5  17 340.553 286.005  20
   5  -4 -17 612.105 306.762  17
   4   5  17 252.593 98.8767   7
  -5   4  17 510.517 273.610  18
   5  -4 -17 407.351 247.687   2
  -5  -4 -18 353.344 338.330  16
   4   5  18-0.42918 350.508   7
  -4  -5 -18 409.487 313.353  16
   4  -5 -18 60.5095 175.181  16
   5  -4 -18 25.9121 29.8195  16
   4   5  18-101.260 393.628  15
  -5  -4 -18 425.664 309.642   6
  -4   5  18 421.059 309.302   9
   4  -5 -18 367.101 241.073  17
  -5   4  18 241.527 123.329  18
  -4   5  18 619.263 476.516  10
   4   5  18 338.755 262.681  13
   4   5  18 415.060 275.822  12
  -4   5  18 325.419 252.590   3
   4   5  18 100.242 163.888   3
  -4  -5 -18 160.184 199.016   6
  -4   5  18 276.493 89.9577  11
  -5   4  18-170.390 391.547   9
  -5   4  18 14.5235 51.7975  11
   4   5  18-204.553 327.612  20
   4   5  18 175.887 105.742  10
  -4   5  18 220.176 162.084  18
   5  -4 -18 302.394 80.0151   2
   4   5  18 245.344 195.915   9
   5  -4 -18 261.078 123.675  17
   4  -5 -18 118.009 79.4174   2
  -5  -4 -18 338.787 196.500   8
  -5  -5  -4 70.3352 170.005   8
  -5  -5  -4 148.412 58.3727   6
  -5  -5  -5-25.8775 112.005   8
   5   5   5-0.24434 61.0091   3
   5   5   5-45.9537 121.168  19
  -5   5   5-57.3022 109.702  18
  -5  -5  -5 40.7047 81.0005   6
   5   5   5-5.49992 26.1346  12
  -5  -5  -5-17.6182 68.0896  14
  -5   5   5-67.7955 160.867  13
  -5   5   6 487.219 206.335  18
   5   5   6 780.905 223.696   4
  -5  -5  -6 461.117 182.598  14
  -5   5   6 953.943 318.085  13
  -5  -5  -6 371.396 182.160   6
   5   5   6 796.107 235.258  12
   5   5   6 751.848 280.934   3
  -5   5   6 141.647 104.735   1
  -5  -5  -6 532.268 211.253   8
   5  -5  -6 40.9521 92.2334  17
   5   5   6 908.336 263.911  19
  -5   5   7-130.351 228.112   1
  -5  -5  -7 29.3326 62.0238   8
   5   5   7 19.4598 55.0573   4
  -5   5   7 0.95763 27.6486  13
  -5   5   7 137.056 138.432  18
  -5  -5  -7 29.5646 9.20646  14
   5   5   7-4.35987 22.6036   5
   5   5   7 20.8553 82.0133  12
   5   5   7-40.6858 67.8240   3
   5   5   7 27.8770 44.3028  19
   5  -5  -7-85.6359 164.431  17
  -5  -5  -7-46.2407 64.2835   6
  -5   5   8 2140.97 440.303  13
  -5   5   8 1742.09 372.991   3
   5   5   8 2096.36 442.221   3
  -5  -5  -8 2010.74 351.969  14
  -5   5   8 1317.57 479.775   1
   5   5   8 2666.18 419.871  19
   5   5   8 2169.81 291.086   5
  -5  -5  -8 1648.43 380.875   6
  -5  -5  -8 1772.16 353.948   8
   5   5   8 2070.57 354.210   4
   5  -5  -8 505.666 75.2371   2
  -5   5   8 2294.72 491.393  18
   5   5   8 2097.97 377.236  12
   5  -5  -8 837.504 375.908  17
  -5   5   9-10.2582 56.9468  13
  -5  -5  -9-1.11317 70.0685   8
   5   5   9 41.9252 30.8526   4
   5  -5  -9-128.151 198.971   2
  -5   5   9-55.2741 79.0528   3
  -5   5   9 1.39779 85.3977  18
  -5  -5  -9-89.0391 129.320   6
  -5  -5  -9 9.18684 30.0790  14
   5   5   9 15.7683 57.0999  19
  -5  -5  -9-255.867 357.851  16
   5   5   9 6.60537 68.1430  12
   5   5   9-5.06463 27.9524   5
   5   5   9-27.9080 97.6529  13
  -5   5   9-54.0543 32.5849   1
   5   5   9 5.36135 55.7256   3
   5  -5  -9-118.347 124.408  17
  -5  -5 -10 50.4350 64.4923   8
  -5   5  10 175.638 257.687   1
   5   5  10 37.5194 204.671  13
   5  -5 -10-163.882 186.266  16
  -5  -5 -10-97.7352 200.957  16
   5  -5 -10 5.11961 142.931  17
  -5   5  10 36.7234 53.2681   3
   5   5  10 1.32430 32.4064  12
   5   5  10 70.8730 75.4809   5
  -5   5  10 59.2494 103.908  18
   5  -5 -10 19.4581 94.2531   2
   5   5  10 45.4540 56.7657  19
  -5   5  10 73.0670 80.1987  13
   5   5  10-41.3949 66.3339   3
  -5  -5 -10 31.4878 37.5108   6
  -5  -5 -10-1.86024 17.5610  14
   5   5  10 38.2482 23.8020   4
   5  -5 -11-28.2441 48.4177  17
  -5   5  11 108.490 215.553   1
  -5  -5 -11 43.9884 76.9448   8
   5  -5 -11 22.3210 29.9425  16
   5   5  11 41.0323 48.0036  19
  -5  -5 -11-54.6186 46.6841  14
  -5  -5 -11 31.9231 85.6809   6
  -5   5  11 23.5687 40.2087   3
   5   5  11 33.9483 87.2144   3
   5   5  11-21.7737 58.2816  13
   5   5  11 16.0662 42.6779  12
   5   5  11 17.2450 11.9498   4
  -5  -5 -11 56.0594 177.797  16
  -5   5  11-16.6484 58.2070  18
  -5   5  11 2.53478 51.5116  13
   5  -5 -11 126.309 153.499   2
  -5  -5 -12 291.880 134.952   8
  -5  -5 -12 228.287 157.075   6
  -5  -5 -12 259.778 183.199  16
  -5   5  12 219.884 146.144  18
   5  -5 -12 124.185 109.879  16
  -5   5  12 542.663 297.540  20
  -5   5  12 270.684 126.830   3
  -5  -5 -12 298.053 116.903  14
   5   5  12 176.716 119.482   3
   5   5  12 222.605 195.191  13
  -5   5  12 282.255 182.663  13
   5   5  12 232.467 140.268  12
   5  -5 -12 267.634 154.031  17
  -5   5  12 498.235 309.575  11
   5   5  12 247.235 109.627  19
  -5   5  12 127.066 115.612   1
   5  -5 -12 267.511 198.040   2
   5   5  12 332.189 184.115   4
  -5  -5 -13-0.26130 56.7522   8
   5   5  13 150.702 155.704  20
  -5   5  13-103.634 240.366  20
   5  -5 -13-122.727 143.511  16
   5   5  13 55.9760 79.4724  13
  -5   5  13-96.7747 91.2379   3
  -5  -5 -13-7.78230 64.4543   6
  -5   5  13-9.32124 41.6764  13
   5   5  13 16.7874 27.9016  12
   5  -5 -13-25.0501 16.3270  17
  -5   5  13 92.1989 138.767   1
  -5  -5 -13-199.902 215.558  16
  -5  -5 -13-81.1527 119.185  14
  -5   5  13 9.45445 77.0050  11
   5  -5 -13-21.9920 74.6930   2
   5   5  13-74.5290 88.1658  19
   5   5  13 4.43038 120.975   4
   5   5  13-3.96444 103.797   3
  -5   5  13 84.7381 124.934  18
  -5  -5 -14 654.873 218.984   8
  -5  -5 -14 725.085 339.412  16
  -5   5  14 630.160 369.591   1
   5   5  14 646.392 353.907  15
   5   5  14 395.534 216.410   4
   5   5  14 525.522 313.065  20
  -5   5  14 560.548 183.482   3
  -5   5  14 741.476 436.215  20
  -5   5  14 626.324 268.247  13
   5   5  14 375.831 211.210  12
  -5   5  14 689.469 324.702  11
   5  -5 -14 582.356 255.702  16
   5  -5 -14 529.507 272.478  17
  -5   5  14 1058.22 491.727  10
  -5   5  14 663.799 265.030  18
   5  -5 -14 689.263 328.634   2
   5   5  14 406.055 299.810   7
   5   5  14 1502.34 560.358  13
   5   5  14 551.145 250.931  10
   5   5  14 350.735 213.191   3
  -5  -5 -15 32.9138 59.8454   8
  -5  -5 -15-130.822 169.907  16
   5   5  15 36.1697 249.948   7
  -5   5  15 162.850 194.442   1
   5   5  15 80.4077 190.484  15
  -5   5  15-10.3384 153.628  10
   5   5  15 70.8617 111.375  10
  -5   5  15-34.9711 70.2214   3
  -5   5  15 71.9949 120.714  13
   5   5  15 46.5264 50.8752   3
   5   5  15 43.0465 117.305  12
   5   5  15-38.0975 100.533  20
  -5   5  15 32.5037 137.911  11
   5   5  15-14.0066 59.0906  13
   5  -5 -15 32.5751 88.8422  16
  -5   5  15 256.361 319.714   9
   5   5  15 26.0486 67.8369   9
  -5   5  15 5.39412 94.9998  18
   5  -5 -15 76.8164 146.998  17
  -5  -5 -15-112.355 155.657   6
   5  -5 -15-92.1383 208.803   2
  -5   5  15 293.412 334.683  20
   5  -5 -16-96.8684 129.071  16
  -5  -5 -16 133.359 113.457  16
   5   5  16 142.287 282.597   7
  -5  -5 -16 110.394 159.503   8
   5   5  16-266.412 284.342  15
  -5   5  16 383.461 420.102   9
   5  -5 -16 112.026 188.350  17
   5   5  16-114.242 110.201  13
  -5   5  16 26.9635 120.974   3
  -5   5  16 165.331 190.754  13
   5   5  16-105.159 39.6357   3
   5   5  16-2.74306 99.6136  12
  -5   5  16 188.479 207.312  11
   5   5  16 42.5761 114.232  20
   5   5  16 22.1392 117.245  10
  -5   5  16 398.747 306.969  10
  -5   5  16-231.077 511.236  20
   5   5  16 191.188 192.055   9
  -5  -5 -16 2.74748 59.6507   6
   5  -5 -16-37.1152 102.211   2
  -5   5  16 175.886 175.380  18
  -5  -5 -17 117.707 144.850   8
   5   5  17-16.1654 82.5643   7
  -5  -5 -17 57.2514 171.748  16
   5  -5 -17 269.026 325.496   2
  -5   5  17 820.093 700.615  10
   5   5  17 32.3149 231.511  15
   5   5  17 39.6667 99.5972  10
   5   5  17-1.63087 10.0617  13
  -5   5  17 76.8636 160.791   3
   5   5  17-165.095 147.155  12
   5   5  17 92.3206 132.365   3
   5   5  17 162.739 229.147  20
   5  -5 -17 435.555 398.101  17
   5   5  17 46.4228 119.599   9
  -5   5  17-58.1548 145.884  11
  -5   5  17 170.581 249.570  18
   5  -5 -17 405.457 303.073  16
  -5   5  17 282.158 477.933   9
  -5  -5 -17 110.761 231.159   6
   5   5  18 478.114 289.428  10
   6   0   0 179.223 89.2271  17
  -6   0   0 308.837 118.957   8
  -6   0   0 282.264 127.911  14
   6   0   0 246.021 116.367  19
   6   0   0 246.781 107.147   5
  -6   0   0 340.397 146.377   1
  -6   0   0 301.923 108.502  18
   6   0   0 273.627 123.058   4
   6   0  -1-4.11211 57.7420  17
  -6   0   1 52.1735 75.7174  18
   6   0   1-0.17390 26.6289   7
   6   0  -1-8.95330 29.8714  19
   6   0   1 83.0020 107.514  15
  -6   0  -1-5.88602 7.40427   6
  -6   0  -1-13.2570 30.4796  14
  -6   0   1 23.6724 17.9280  14
   6   0   1 75.2737 79.2756  12
  -6   0   1 8.45740 23.4771   8
  -6   0   1 17.9301 21.3860   1
   6   0  -1 2.67500 41.3316   4
  -6   0  -1 9.86670 48.9202   1
   6   0   1-3.04133 52.6837   5
   6   0  -1-10.3123 18.1609   5
   6   0   1 20.8898 47.7651   4
   6   0   1 14.6385 60.5661  19
  -6   0  -1 15.5427 35.9039   8
  -6   0   2 313.823 119.960   8
   6   0  -2 214.514 118.516   4
   6   0  -2 277.773 106.257   2
  -6   0   2 338.550 140.364   1
   6   0   2 361.302 168.794   7
  -6   0   2 297.639 122.944  18
   6   0   2 351.555 160.802  15
  -6   0  -2 336.100 160.176  14
   6   0   2 221.590 121.638  19
  -6   0   2 287.192 122.878  14
  -6   0  -2 352.631 142.535   6
   6   0   2 229.236 126.267   5
  -6   0   2 392.614 156.382  11
  -6   0  -2 389.922 191.637   1
   6   0  -2 236.475 108.386   5
   6   0  -2 279.659 110.774  19
   6   0  -2 228.201 119.465  17
   6   0   2 242.261 162.504   4
  -6   0  -2 338.459 140.344   8
  -6   0   3 35.0776 50.8883   8
   6   0  -3 26.5366 72.8745  17
   6   0   3 3.49624 81.1336   7
  -6   0  -3-32.0286 105.095   1
   6   0  -3 18.9159 50.8478   2
   6   0   3 53.5430 60.7592  19
   6   0   3-25.9662 118.452  15
  -6   0  -3 4.81172 40.8573  14
  -6   0   3-31.3386 42.8916  14
  -6   0  -3 62.5729 84.2456   6
   6   0  -3 22.3114 51.5628  19
  -6   0   3 70.3985 79.7562   1
  -6   0   3 1.19596 30.8762  11
   6   0  -3-24.5389 46.1164   5
  -6   0  -3 3.81798 15.6842   8
   6   0   3 2.82411 65.1872   5
   6   0  -3-20.5158 26.9487   4
   6   0   3-1.36606 43.5552   4
  -6   0   3-4.23870 33.5454  18
   6   0  -4 14.1757 39.3699   5
  -6   0   4 58.9013 68.0224   8
  -6   0  -4-72.7850 120.744   1
   6   0  -4 12.8542 50.4323   4
   6   0   4-200.110 190.969   7
   6   0  -4 31.2905 29.5213  17
  -6   0   4-16.8326 38.1231   1
   6   0   4-126.743 148.134  15
  -6   0  -4-31.1147 60.9846  14
  -6   0   4 24.3293 38.1132  18
   6   0   4-0.62352 69.2854   5
   6   0  -4 2.42658 20.0612   2
  -6   0  -4-53.4018 70.0781   6
  -6   0  -4 120.315 91.8439   8
  -6   0   4-10.3962 62.5344  11
   6   0  -4 9.68986 47.2284  19
   6   0   4 15.1887 39.3164   4
  -6   0   4-33.3377 53.6939  14
   6   0   4-58.2062 89.6409  19
   6   0   5-77.8751 121.413   4
   6   0  -5 42.9417 109.265   4
  -6   0   5 108.800 131.725   8
  -6   0  -5 46.3649 105.578   6
  -6   0  -5 8.95280 62.1911  14
  -6   0   5 154.713 108.945  14
   6   0  -5 63.4929 67.6944  17
  -6   0   5-13.0405 71.9108  11
   6   0  -5 209.065 132.406   5
  -6   0  -5 2.12384 78.5701   1
  -6   0   5 13.1968 79.8337  18
  -6   0  -5 63.4362 94.1717   8
   6   0  -5 124.472 114.421   2
   6   0  -5 18.2427 98.5140  19
  -6   0   5 83.9555 112.258   1
   6   0  -6 840.359 275.229  17
  -6   0   6 490.701 197.878   8
  -6   0   6 763.098 249.849  18
  -6   0  -6 825.212 300.053  14
  -6   0  -6 479.027 189.816   1
  -6   0   6 805.813 216.199  14
  -6   0  -6 779.172 287.047   6
  -6   0   6 759.887 248.464   1
   6   0  -6 944.843 251.735   2
  -6   0   6 518.669 203.461  11
   6   0  -6 803.265 202.004   4
   6   0  -6 891.814 217.210  19
  -6   0  -6 818.593 249.765  16
   6   0  -6 926.361 249.409   5
  -6   0  -6 993.011 334.120   8
   0  -6  -7-350.060 174.699   6
   6   0  -7-43.4394 81.8976   4
  -6   0  -7 79.1731 76.5250  16
   6   0  -7 9.27955 30.8201  19
  -6   0  -7-9.56807 41.9975   6
   0   6   7 1.48453 53.5810   3
  -6   0  -7 42.3028 102.956  14
   6   0  -7-13.4746 45.7871   2
  -6   0   7 8.63014 87.6718  18
   0   6   7-83.4048 267.754  13
  -6   0   7-19.8641 42.6892   1
   6   0  -7 52.2750 55.2643  17
  -6   0  -7 44.9297 105.605   8
   6   0  -7 9.80760 43.6232   5
  -6   0   7-15.2169 29.5892  14
  -6   0   8 386.467 189.385   1
   0   6   8 388.399 231.608  13
  -6   0  -8 500.362 299.171   8
  -6   0  -8 707.316 301.994  16
   6   0  -8 78.4791 122.255  16
  -6   0  -8 595.694 275.653   6
   0   6   8 578.101 215.483   3
  -6   0  -8 780.740 386.434  14
  -6   0   8 367.573 165.611  14
   0  -6  -8 177.925 138.068   6
   0   6   8 543.458 184.559  12
   6   0  -8 509.071 193.656   2
   6   0  -8 653.117 262.252  17
   6   0  -8 661.032 230.329   5
  -6   0   8 226.429 137.962  18
  -6   0  -9-120.025 305.032  14
   0   6   9-128.288 197.018  18
  -6   0  -9 1.30440 81.6034   6
  -6   0   9 14.5641 33.5471  14
  -6   0  -9-11.3358 39.4342  16
   6   0  -9-37.4745 99.8312  16
   6   0  -9 5.05445 48.7681   2
   6   0  -9-29.3379 83.2578  17
   0   6   9-23.1186 39.6180   3
  -6   0   9 74.3882 105.382   1
   6   0  -9 61.6200 54.1049   5
   0   6   9-63.4619 45.4827  12
  -6   0  -9-0.15200 66.9549   8
   0  -6  -9-81.2662 111.395   6
  -6   0   9-76.8578 145.816  18
   0   6   9 84.9252 144.757  13
  -6   0 -10 45.0039 120.969  16
   6   0 -10-150.690 204.318  16
  -6   0 -10 44.5491 66.4377   6
  -6   0 -10 18.4946 105.735   8
   0   6  10 25.6970 31.0703   3
  -6   0  10 42.3385 42.8523   1
   0  -6 -10 60.2484 107.348   6
   0   6  10 51.2578 153.540  13
   6   0 -10-8.75568 107.630  17
   0   6  10 42.1553 34.1637  12
   0   6  10 78.7132 84.5922  18
   6   0 -10 66.5030 66.6853   5
   0  -6 -10 187.160 189.339  17
   6   0 -10 71.9374 61.2916   2
  -6   0  10 46.2073 75.2757  14
   0  -6 -10-217.057 325.335  16
   6   0 -11-124.129 213.293   5
   6   0 -11 34.4699 92.1416  17
   0   6  11 14.5035 105.547  13
  -6   0 -11-15.9567 54.5860  16
   6   0 -11-137.130 219.361  16
  -6   0 -11-157.463 250.722   6
   0   6  11 14.2421 43.8872  12
   0   6  11 27.9947 14.2485   3
   6   0 -11-88.8107 95.6994   2
   0  -6 -11-56.1495 100.411   6
  -6   0  11 59.4060 132.854   1
   0  -6 -11-103.730 200.913  16
   0   6  11-98.1607 96.5609  18
  -6   0 -11 29.5606 209.442   8
  -6   0  11-24.6351 44.4387  14
   0  -6 -11 2.58249 73.3544  17
   6   0 -12 4014.83 697.253   5
   0  -6 -12 1973.16 493.013  16
  -6   0 -12 2750.23 704.674  16
   0  -6 -12 1836.58 415.435   6
  -6   0 -12 1397.47 411.383   6
   6   0 -12 948.466 360.722  16
   0   6  12 2326.74 424.516   3
  -6   0  12 1337.32 322.152  14
   6   0 -12 2475.56 529.791   2
   0   6  12 2020.25 476.763  13
   0   6  12 2271.14 361.165  12
   0   6  12 2442.78 399.863  18
  -6   0 -12 2048.41 643.127   8
  -6   0  12 864.178 359.318   1
   6   0 -12 2911.36 604.862  17
   0  -6 -12 1952.35 437.202  17
   6   0 -13-65.5719 152.920  17
   0  -6 -13 67.8238 146.227  16
  -6   0 -13 50.8983 152.923  16
   0   6  13-18.5618 64.1463  18
   0  -6 -13 1.04065 56.2067  17
   0  -6 -13 99.7962 138.774   6
  -6   0  13 125.874 132.174  14
  -6   0 -13-54.1667 269.993   8
   0   6  13 39.4737 70.5358  12
   0  -6 -13-256.937 319.750   2
   6   0 -13 89.5448 110.750   2
   0   6  13 105.743 145.970  13
   0   6  13-64.8039 110.224   3
  -6   0  13 47.4548 90.8806   1
   0  -6 -14 531.876 227.734  17
  -6   0 -14 356.567 234.591   8
   0  -6 -14 549.462 266.691  16
   0   6  14 408.230 178.717   3
  -6   0 -14 456.345 321.388  16
   0   6  14 499.300 170.880  18
   0  -6 -14 647.001 255.198   6
   6   0 -14 844.175 325.326   2
   0   6  14 563.949 194.090  12
  -6   0  14 185.582 196.590   1
   0   6  14 448.560 237.843  13
   6   0 -14 519.274 210.879  17
   0   6  14 897.942 295.813  11
   0  -6 -14 328.184 122.259   2
   0  -6 -15 3.82097 66.7710  17
  -6   0 -15 0.94492 126.721   8
   0  -6 -15 60.6744 65.6548  16
   0   6  15 195.004 235.707   7
  -6   0 -15-37.6889 116.623  16
   0   6  15 84.9216 191.183  15
   0  -6 -15 224.183 235.753   6
   0   6  15-83.2575 16.1676  13
   0   6  15-52.1841 58.8806  12
   0   6  15-28.8981 57.5564  11
   0  -6 -15-33.3466 124.993   2
   0   6  15 94.5419 145.496   3
   6   0 -15 1.32429 108.767   2
   0   6  15 17.9554 87.4361  18
  -6   0 -16 7.56997 177.502   8
   0  -6 -16 111.994 111.367  17
   0   6  16 88.2612 93.6452   3
   0   6  16 129.840 87.8407  18
   0  -6 -16 125.829 149.438   6
  -6   0 -16 325.202 464.553  16
   0   6  16-3.80239 121.234  15
   0  -6 -16 81.4298 100.993  16
   0   6  16 63.6286 60.8499  13
   0   6  16 52.9909 16.8341  12
   0   6  16 405.710 372.220   7
   0   6  16-129.578 147.326  11
   0   6  16 220.395 270.635  20
   0  -6 -16 28.4193 145.322   2
   0  -6 -17-26.9186 105.909  17
   0   6  17 144.167 120.317   7
   0   6  17-37.8265 246.609  15
   0  -6 -17 51.7736 102.113   6
   0   6  17 62.0234 101.901  10
   0   6  17 37.0899 60.7451   3
   0   6  17 17.3216 63.8507  12
   0   6  17 2.85181 111.037  11
   0   6  17 283.100 324.621  20
   0  -6 -17 23.9316 94.6947  16
   0  -6 -17 47.2368 226.346   2
   0   6  17 56.6902 54.8033  13
   0   6  17 65.7741 103.725  18
   0  -6 -18 582.643 308.091   6
   0  -6 -18 369.730 175.329  17
   0   6  18-113.826 290.743   7
   0  -6 -18 393.086 286.189  16
   0   6  18-408.556 561.904  15
   0   6  18 140.495 123.714  13
   0   6  18 243.743 134.265   3
   0   6  18 579.638 363.410   9
   0   6  18 357.156 188.303  12
   0   6  18 245.950 150.613  11
   0   6  18 277.316 268.731  10
   0  -6 -18 529.410 313.423   2
   0   6  18 128.596 129.080  20
   0   6  18 307.389 168.272  18
   0  -6 -19 84.2572 119.957  17
   0  -6 -19 202.424 194.474  16
   0  -6 -19 63.5404 279.076   6
   0  -6 -19 22.6064 236.478   2
   0   6  19 389.528 274.288   3
   0   6  19 214.356 168.633  12
   0   6  19 337.648 316.899   9
   0   6  19 51.0102 92.7590  11
   0   6  19 124.381 208.716  10
   0   6  19 164.069 305.645  20
  -6   1   0 2869.06 521.741  14
  -6  -1   0 3331.99 334.234   6
  -6  -1   0 3493.86 421.306  14
   6   1   0 3012.80 376.769  19
  -6   1   0 4233.51 592.739   1
   6   1   0 2973.35 377.514   5
   6   1   0 2779.45 376.406  12
   6  -1   0 2226.53 443.954   5
  -6  -1   0 3059.40 392.032   1
  -6   1   0 3749.17 503.828   8
   6  -1   0 1891.89 388.164  19
  -6   1   0 3774.76 423.961  18
   6  -1   0 1908.13 397.640   4
   6   1   0 3110.87 395.501   4
  -6  -1   0 3053.13 376.245   8
   6  -1   0 1936.56 352.301  17
   6   1   1 509.381 166.962   4
   6  -1  -1 497.068 196.879  19
   6   1   1 618.323 170.480  12
   6  -1   1 380.830 164.331  17
  -6  -1  -1 623.464 180.281  14
  -6  -1  -1 642.794 155.075   6
  -6  -1   1 716.636 157.131   6
  -6   1  -1 795.430 286.182   1
  -6   1  -1 595.051 251.106  14
  -6   1   1 579.468 213.262  14
   6  -1   1 313.637 190.717   4
  -6   1  -1 881.566 214.429  18
   6  -1  -1 384.959 157.438  17
  -6  -1  -1 586.224 169.920   1
  -6   1   1 641.701 215.785   1
   6   1  -1 647.611 182.706   5
   6  -1   1 471.196 181.170   5
  -6  -1   1 612.522 181.141   1
   6  -1  -1 450.055 178.489   5
   6   1  -1 589.863 171.072   4
   6   1   1 533.181 164.091  19
  -6   1   1 725.467 200.242   8
   6  -1  -1 457.097 161.909   4
   6   1   1 538.567 166.292   5
   6   1  -1 576.013 226.676  17
   6   1  -1 562.980 161.814  19
   6  -1  -1 490.721 155.410   2
  -6  -1   1 620.745 188.017  14
  -6  -1  -1 633.336 170.132   8
  -6   1  -1 677.231 238.873   8
  -6   1  -1 469.895 180.780   6
  -6  -1   1 642.433 226.062  18
  -6  -1   1 595.802 162.740   8
  -6   1   1 668.482 184.117  18
   6   1   2 499.535 177.252   4
  -6   1  -2 802.674 331.018   1
   6   1  -2 523.553 224.381  17
  -6   1   2 901.334 213.821  11
  -6   1  -2 899.298 314.928   8
  -6  -1  -2 584.021 150.492   6
   6  -1  -2 528.055 151.266   2
  -6  -1  -2 653.436 191.823  14
   6  -1  -2 409.078 156.987  19
  -6  -1   2 523.244 177.262  14
  -6   1  -2 695.509 288.698  14
   6   1  -2 578.388 164.798  19
   6  -1  -2 448.256 153.405  17
  -6   1   2 726.130 188.152  18
   6   1  -2 614.209 182.035   5
   6  -1   2 159.714 130.558   5
  -6  -1  -2 544.979 168.044   1
   6   1   2 486.779 150.117  12
  -6  -1   2 561.518 197.563   1
   6  -1  -2 539.386 191.651   5
   6   1  -2 711.292 181.466   2
  -6  -1   2 520.977 157.727   8
   6   1   2 535.239 157.097   5
  -6   1   2 550.222 206.627   1
  -6  -1  -2 594.926 169.153   8
   6  -1   2 35.3102 134.684   4
   6   1  -2 572.345 177.702   4
   6   1   2 456.561 148.670  19
  -6   1   2 479.123 205.039  14
  -6   1   2 609.038 169.368   8
  -6   1  -2 705.201 214.322  18
  -6   1  -2 456.343 212.754   6
  -6  -1   2 482.050 177.332  18
   6  -1  -2 414.162 187.450   4
  -6   1   3 13.4422 21.4049  14
   6   1   3 48.2562 49.7451   3
   6  -1  -3-6.68857 17.5178   2
   6   1  -3 61.7580 75.1909   2
   6   1  -3-25.9739 65.6170   4
  -6   1  -3-22.1692 27.2233   6
  -6   1  -3 7.71107 77.0340  14
  -6   1   3-5.53582 19.3067   8
  -6  -1  -3 34.8789 44.7584  14
  -6  -1  -3-16.4467 25.3483   6
  -6  -1   3 46.4509 57.2411  14
   6  -1  -3 39.8189 15.4172  19
   6  -1  -3 31.9566 66.5983  17
   6   1   3 84.8452 88.9628  12
   6   1  -3 30.6168 49.2483   5
   6  -1  -3 42.0516 63.6157   4
  -6  -1   3 34.7116 44.3110   8
   6   1  -3 18.6872 35.7080  19
   6   1   3 5.24738 26.2289   5
  -6   1   3-15.6942 36.7037  11
   6  -1  -3 2.82830 27.9924   5
  -6  -1   3 59.6697 89.4688   1
  -6  -1  -3-2.61131 21.7416   8
  -6   1  -3 25.6143 48.9128   1
   6   1   3-2.08173 59.6982  19
  -6   1   3 68.4575 84.5146   1
   6   1  -3 19.4743 34.9551  17
  -6  -1  -3 8.73591 57.7842   1
  -6   1   3 19.5004 36.8142  18
  -6   1  -3 58.1835 144.455   8
   6   1   3-56.9106 50.1800   4
  -6  -1   3-41.6517 136.479  18
   6  -1  -4 278.035 129.677   4
   6  -1  -4 167.465 102.510  17
  -6   1   4 403.039 127.999   8
   6   1   4 206.829 120.132  19
   6   1  -4 230.494 158.842  17
  -6  -1   4 216.895 114.766   8
  -6  -1   4 233.657 129.272   1
   6   1  -4 309.799 118.281   4
  -6   1  -4 154.722 139.644   6
  -6  -1  -4 348.148 142.896   8
  -6  -1  -4 389.079 154.204  14
   6   1  -4 300.829 153.112   2
  -6  -1   4 262.107 126.388  14
   6   1   4 301.374 143.606   5
  -6   1   4 444.292 166.256  11
   6  -1  -4 285.593 137.115   5
  -6  -1  -4 418.442 147.754   6
  -6  -1  -4 318.366 142.103   1
  -6   1   4 209.693 126.287   1
   6   1  -4 319.092 152.327   5
  -6   1  -4 118.323 41.6470   1
   6  -1  -4 242.053 111.115  19
   6   1  -4 364.013 133.356  19
  -6   1   4 297.460 117.352  18
   6   1   4 203.823 104.047   4
  -6   1  -4 366.769 263.623   8
  -6   1   4 264.461 138.106  14
   6  -1  -4 178.290 95.8411   2
  -6  -1   4 55.1640 132.458  18
  -6   1  -4 386.481 252.689  14
  -6   1  -5 723.363 370.861  14
  -6   1   5 597.674 227.239   9
   6   1  -5 653.377 266.144  17
   6   1   5 455.930 182.811  19
   6   1   5 659.421 261.616   7
  -6   1  -5 439.919 172.686   6
   6   1   5 613.702 247.271  15
  -6  -1  -5 866.456 239.960  14
  -6   1   5 657.006 207.889  14
  -6  -1   5 706.093 221.662  14
   6   1  -5 764.833 255.512   2
  -6  -1  -5 1100.51 246.514  16
  -6  -1  -5 1077.97 314.037   1
   6   1  -5 836.350 250.974   5
   6  -1  -5 603.314 177.474   4
  -6   1   5 687.865 219.351   1
   6   1  -5 920.100 237.501  19
  -6  -1  -5 937.189 238.764   6
   6  -1  -5 654.557 180.180   2
  -6   1   5 961.200 266.835  11
  -6  -1  -5 931.968 257.292   8
  -6  -1   5 637.754 246.435   1
   6  -1  -5 617.917 195.932   5
   6   1   5 505.962 207.958   5
   6  -1  -5 687.351 170.985  19
  -6   1   5 874.424 228.419  18
  -6   1   5 773.010 176.287   8
   6  -1  -5 540.774 204.577  17
  -6   1  -5 864.433 380.206   8
   6   1   5 533.636 212.210   4
   6  -1  -6 344.491 175.648  17
  -6   1   6 380.333 143.758   8
   6  -1  -6 367.335 137.191   4
   6   1  -6 398.525 219.641  17
   6  -1  -6 391.042 148.144   2
  -6  -1  -6 407.900 146.160  16
  -6  -1  -6 553.699 265.109   1
  -6   1  -6 45.8746 190.862   6
   6   1   6 227.926 152.351  15
  -6   1  -6 226.811 135.282  14
  -6  -1  -6 402.638 172.514   6
  -6   1   6 305.526 138.265   1
  -6  -1  -6 462.772 191.764  14
  -6   1   6 363.078 143.718  14
   6   1  -6 281.030 136.979   2
  -6   1   6-30.4063 220.238   9
   6   1   6 122.085 12.7739   5
  -1   6   6-43.2690 229.984  13
  -6   1   6 355.418 170.155  11
   6   1   6 154.492 101.997  19
   6  -1  -6 374.807 156.368   5
   6  -1  -6 384.746 127.456  19
   6   1   6 299.019 175.356   4
   6   1  -6 507.969 190.573   5
   6   1   6 285.415 190.663   7
  -6   1  -6 468.335 311.118   8
  -6   1   6 402.803 163.427  18
  -6  -1   6 241.598 150.276   1
  -6  -1   6 263.297 154.673  14
  -6  -1  -6 405.499 183.675   8
  -6  -1   7 789.267 335.510   1
  -6   1   7 891.401 276.865   8
  -6  -1  -7 1364.07 310.870  16
   6   1   7 677.264 259.236   7
   6   1  -7 1021.72 325.562   2
   1   6   7 1255.04 341.391   3
   6   1   7 637.666 288.056  15
  -6  -1  -7 1202.91 329.690  14
   6   1  -7 1086.13 357.039  17
  -6   1   7 810.187 219.884  14
  -6  -1  -7 1081.34 302.743   6
  -6  -1   7 790.558 264.500  14
  -1   6   7 941.665 291.081   3
  -1  -6  -7 236.345 125.976   6
   1   6   7 468.320 133.176  13
   6  -1  -7 879.269 232.318   5
   6  -1  -7 1045.30 221.413  19
   6   1   7 406.975 189.870  19
  -6   1   7 901.381 255.180   1
  -6  -1  -7 888.964 338.970   1
   6   1   7 418.731 177.363   4
   6  -1  -7 1008.36 255.760   2
  -6   1   7 969.032 302.212  11
  -6  -1  -7 1062.38 309.615   8
   6  -1  -7 1119.02 228.794   4
  -6   1  -7 828.216 358.247   8
  -6   1   7 958.481 246.426  18
  -1   6   7 1064.18 378.113  13
   6  -1  -7 917.525 278.121  17
   6  -1  -8 668.516 261.008  17
   6   1   8 165.306 145.355   7
  -6   1  -8 458.015 103.054   8
   6  -1  -8 769.276 237.822   2
   6  -1  -8 762.958 195.745  19
  -6  -1  -8 838.940 253.992  16
  -1   6   8 823.799 262.058   3
   6   1   8 393.541 218.741  15
  -6   1   8 493.810 194.067  18
  -6  -1  -8 720.662 253.470   6
  -6  -1  -8 907.062 304.086  14
   6   1   8 245.616 172.525  19
  -6  -1  -8 704.418 277.330   8
   6  -1  -8 786.352 207.530   4
  -6   1   8 530.848 180.198  14
  -6  -1   8 527.517 230.524  14
   6   1  -8 618.270 238.540   2
   1   6   8 663.706 345.540  13
  -1   6   8 813.607 326.540  13
  -1  -6  -8 214.177 140.607   6
   6  -1  -8 720.775 220.132   5
   1  -6  -8 139.475 124.158   6
  -6   1   8 607.550 223.134   1
   6  -1  -8 614.848 196.726  16
  -6   1   8 680.709 277.693  11
   1   6   8 822.390 225.473  12
   6   1  -8 589.479 239.023  17
   1   6   8 797.339 255.563   3
  -6  -1   8 499.935 280.459   1
  -6   1   9 580.318 232.121   1
   1  -6  -9 306.551 160.517   6
  -1   6   9 618.746 269.405  18
  -1  -6  -9 374.503 166.866   6
  -6  -1  -9 826.887 278.176  16
   6  -1  -9 783.993 258.484   2
   6  -1  -9 555.356 209.193  16
  -1   6   9 673.959 225.646   3
  -6  -1  -9 663.598 263.543   6
   6  -1  -9 610.428 168.135   4
  -6  -1  -9 652.102 266.023  14
  -6   1  -9 13.0439 396.167   8
   1   6   9 572.420 226.204   3
  -6   1   9 462.218 164.314  14
  -6  -1   9 202.797 209.791   1
   6   1  -9 419.296 196.031   2
  -1   6   9 522.993 178.595  12
   1   6   9 632.161 304.538  13
   1   6   9 623.768 184.466  12
   6  -1  -9 520.879 146.870  19
  -6   1  -9 402.311 318.832  16
  -6   1   9 452.341 211.621  11
  -1   6   9 603.995 301.754  13
  -6   1   9 531.232 216.234  18
   6  -1  -9 583.043 224.870  17
   6   1  -9 553.255 222.697  17
  -6  -1  -9 756.093 304.072   8
   6  -1  -9 704.479 221.545   5
  -6  -1 -10 1434.95 403.484   8
  -6   1  10 901.870 287.015  18
   6  -1 -10 1590.74 285.772   4
  -6  -1 -10 1753.55 445.507  16
  -1   6  10 1271.72 295.013   3
  -1   6  10 1331.13 392.522  13
   1   6  10 1330.24 314.393   3
  -6  -1 -10 1226.14 383.068   6
   6  -1 -10 1149.80 336.529  16
  -6  -1 -10 1562.40 465.211  14
  -6   1  10 973.250 251.328  14
   1  -6 -10 65.9376 211.080  16
  -1  -6 -10 594.565 221.204   6
  -1  -6 -10 494.632 163.199  16
   1   6  10 1357.50 445.939  13
   1   6  10 1258.01 267.677  12
   6  -1 -10 1499.18 341.147   5
  -1   6  10 1546.68 296.693  12
   6  -1 -10 1474.40 366.439   2
  -6   1  10 792.528 257.247  11
   1   6  10 1715.75 384.929  18
  -1   6  10 1546.93 403.376  18
  -6   1  10 1086.29 312.512   1
   1  -6 -10 757.753 232.693   6
   6  -1 -10 1403.38 372.881  17
   1  -6 -10 432.565 225.344  17
  -1  -6 -11 449.107 220.735  17
   1   6  11 518.493 273.742  13
   6  -1 -11 521.692 237.415  17
  -1   6  11 412.101 235.051  13
   6  -1 -11 519.038 213.195   5
  -6   1  11 244.086 169.081   1
   1  -6 -11 114.983 116.355  16
  -1  -6 -11 252.762 85.2919  16
   6  -1 -11 446.989 136.343   4
   6  -1 -11 376.599 180.412  16
   1  -6 -11 236.610 138.616   6
   6  -1 -11 484.258 232.396   2
  -6  -1 -11 462.234 237.632   6
  -6  -1 -11 580.625 300.501  14
  -1   6  11 440.601 183.301   3
   1   6  11 530.420 204.043   3
  -1  -6 -11 304.529 153.023   6
  -6  -1 -11 465.642 229.824  16
   1   6  11 443.733 151.711  12
  -1   6  11 405.671 145.699  12
  -6   1  11 274.462 138.582  14
  -6   1  11-51.0882 180.192  11
   1   6  11 525.969 178.030  18
  -1   6  11 381.936 182.800  18
   1  -6 -11 292.336 211.981  17
  -6  -1 -11 351.423 214.163   8
  -6   1  11 299.587 152.628  18
   6  -1 -12 954.569 334.565  17
   1  -6 -12 487.725 269.961  16
  -6  -1 -12 777.807 339.473  16
   6  -1 -12 653.681 275.807  16
  -6   1  12 377.202 193.539   1
  -6  -1 -12 389.855 190.184  14
   1   6  12 780.682 325.562  13
   1  -6 -12 640.543 270.957   6
   1   6  12 665.505 196.414  18
   1   6  12 668.024 210.958   3
  -1   6  12 792.605 244.889  18
  -6  -1 -12 626.141 258.052   6
  -1   6  12 681.015 268.788  13
  -1  -6 -12 639.168 243.215   6
  -6   1  12 398.483 143.681  14
   1   6  12 626.459 196.841  12
  -1   6  12 570.359 183.446  12
   1  -6 -12 142.883 250.822   2
  -1   6  12 650.896 215.988   3
   6  -1 -12 870.411 288.156   5
  -6  -1 -12 875.446 356.287   8
   1  -6 -12 578.003 247.274  17
  -1  -6 -12 551.532 264.355  16
  -6   1  12 294.766 173.164  18
  -1  -6 -12 580.784 208.421  17
   6  -1 -12 674.958 269.095   2
  -1  -6 -13 971.623 363.132  16
  -6  -1 -13 1663.79 488.145  16
  -6  -1 -13 1295.37 445.133   6
  -1   6  13 1309.37 322.013   3
   1   6  13 1133.03 309.015   3
  -6   1  13 699.464 287.717   1
   1  -6 -13 889.783 311.468   6
  -1  -6 -13 1182.88 338.459   6
  -1   6  13 1140.17 365.618  13
   1   6  13 1182.65 279.421  12
  -1   6  13 1295.80 269.724  12
   6  -1 -13 1597.37 384.882   5
   1  -6 -13 1070.37 366.701  16
   6  -1 -13 1599.95 430.749   2
   1  -6 -13 772.392 269.993   2
   1  -6 -13 1248.05 352.354  17
   6  -1 -13 1107.44 396.896  16
   1   6  13 1244.82 263.702  18
   1   6  13 990.829 349.421  13
  -6  -1 -13 1473.73 482.295   8
  -6   1  13 561.610 216.975  18
  -1   6  13 1383.41 321.164  18
  -1  -6 -13 1469.86 336.459  17
   6  -1 -13 1919.23 472.534  17
   1  -6 -14 495.824 243.724  17
   1   6  14 448.465 249.002  13
  -1  -6 -14 594.119 207.434  17
   6  -1 -14 537.629 238.991  17
  -1  -6 -14 425.485 252.652  16
  -6  -1 -14 677.526 299.729  16
  -1   6  14 493.465 166.993  12
   1  -6 -14 279.205 183.549   6
  -1  -6 -14 489.410 222.010   6
  -1   6  14 406.034 177.907   3
   1   6  14 413.122 185.753   3
  -1   6  14 418.087 193.628  13
   6  -1 -14 677.715 286.123   2
   1   6  14 495.450 194.271  12
   1   6  14 592.322 176.635  18
   1  -6 -14 500.383 229.753  16
  -1   6  14 986.747 326.465  11
   1   6  14 494.558 211.109  11
  -6   1  14 295.779 194.998   1
  -1  -6 -14 360.834 103.126   2
   1  -6 -14 480.007 265.830   2
  -6   1  14-23.6587 163.205  18
   6  -1 -14 648.278 242.514   5
  -1   6  14 566.096 211.042  18
  -6  -1 -14 539.492 269.672   8
   6  -1 -14 438.751 255.610  16
  -6  -1 -14 325.459 170.729   6
  -1   6  15 262.420 141.130  18
   1  -6 -15 387.499 150.455   2
  -1  -6 -15 399.391 207.546  16
  -1   6  15 611.835 450.397   7
  -1  -6 -15 333.872 147.791  17
  -6  -1 -15 310.053 248.527  16
   6  -1 -15 281.700 184.430  16
   6  -1 -15 512.176 230.875  17
  -6  -1 -15 149.483 160.951   6
  -1   6  15 727.716 463.702  15
   6  -1 -15 268.501 157.022   2
   1  -6 -15 308.412 220.929   6
  -1  -6 -15 424.976 276.862   6
   6  -1 -15 262.298 135.723   5
  -1   6  15 308.900 157.090   3
   1   6  15 224.766 150.986   3
  -1   6  15 387.996 220.121  13
   1  -6 -15 339.199 183.513  17
   1   6  15 295.710 153.197  12
  -1   6  15 377.098 154.949  12
  -6   1  15 88.6337 85.3510   1
  -1   6  15 324.363 174.255  11
   1   6  15 296.237 184.113  11
   1   6  15 431.616 335.209  15
   1   6  15 254.656 97.4070  18
  -1  -6 -15 164.776 136.414   2
   1   6  15 245.057 247.939  13
  -6  -1 -15 384.794 270.683   8
   1  -6 -15 372.021 225.502  16
   1  -6 -16 628.159 322.549  16
  -1  -6 -16 729.759 344.157  16
  -6  -1 -16 760.223 382.289  16
   6  -1 -16 473.358 295.068  16
  -6  -1 -16 59.3700 322.958   6
  -1   6  16 879.124 480.489  15
   1   6  16 1018.40 539.154  15
   6  -1 -16 695.250 288.728   2
   1  -6 -16 497.099 193.646   6
  -1  -6 -16 571.091 293.363   6
  -1  -6 -16 779.049 225.379  17
   1   6  16 288.476 142.107   3
   1   6  16 288.850 198.329  13
  -1   6  16 427.889 243.554  13
   1   6  16 831.722 465.258  20
   1   6  16 554.704 212.322  12
   1   6  16 1209.07 571.643   7
  -1   6  16 646.725 210.516  12
  -1   6  16 1039.28 520.095   7
   6  -1 -16 927.586 311.759   5
  -6   1  16 254.126 203.435   1
  -1   6  16 824.908 314.660  11
   1   6  16 883.278 293.450  11
  -1   6  16 571.940 229.096   3
  -1   6  16 807.685 494.416  20
  -1  -6 -16 911.437 371.119   2
   1  -6 -16 679.319 280.702   2
   1  -6 -16 813.509 286.643  17
   6  -1 -16 1048.48 369.934  17
  -6  -1 -16 839.363 358.700   8
  -1   6  16 683.846 224.245  18
   1   6  16 490.222 173.537  18
   1  -6 -17 158.216 151.581  17
  -1  -6 -17 37.2043 64.9452  17
  -1   6  17 282.314 374.482  20
   1  -6 -17 228.373 283.316   2
  -1   6  17-56.6692 239.878   7
   1   6  17 105.521 316.559   7
   1  -6 -17 44.3659 128.779  16
  -1  -6 -17-7.63616 90.5732  16
  -1   6  17-90.7896 105.633  11
  -6  -1 -17 130.286 163.796  16
   6  -1 -17-3.87336 25.1334  16
  -1   6  17-140.556 285.630  15
   1  -6 -17-226.813 256.691   6
  -1  -6 -17 132.028 299.166   6
  -1   6  17 36.8775 55.5471   3
  -6  -1 -17 97.4570 154.759   8
  -1   6  17 125.947 137.106  13
   1   6  17-72.2068 71.3700  13
   1   6  17 97.9406 122.288  12
  -1   6  17 11.6485 83.3001  12
  -1   6  17 91.7262 214.682  10
   1   6  17 179.916 151.579  11
  -6   1  17 59.7238 37.6392   1
   1   6  17 238.052 308.105  10
   6  -1 -17-139.834 183.083   2
  -1  -6 -17 70.9008 136.154   2
   6  -1 -17-269.037 187.289  17
   1   6  17 27.4718 119.822   3
  -1   6  17 51.8000 72.1018  18
   1   6  17 103.217 234.052  20
   6  -1 -17 74.4560 150.334   5
   1   6  17-176.290 281.424  15
  -6   1  18 73.0436 73.8306   1
   6  -1 -18 425.610 186.295  17
  -1  -6 -18 453.339 347.316   2
  -1   6  18 813.265 448.555   9
   1  -6 -18 586.117 339.779  16
  -1   6  18 827.434 427.850  10
  -6  -1 -18 745.480 378.342   8
  -6  -1 -18 580.686 404.079  16
   6  -1 -18 394.049 261.031  16
   1   6  18 312.655 101.714   7
   6  -1 -18 804.648 326.194   2
   1  -6 -18 628.742 451.384   6
  -1  -6 -18 613.201 334.921  16
  -1   6  18 308.567 205.455  13
   1   6  18 309.576 260.879  13
  -1   6  18 432.254 218.949   3
   1   6  18 388.078 259.158   3
   1   6  18 592.055 276.618  12
  -1   6  18 638.476 227.073  12
  -1  -6 -18 890.629 455.212   6
  -1   6  18 643.612 248.190  11
   1   6  18 702.694 296.264  11
   1   6  18 677.942 367.790  10
   1   6  18 925.415 452.510   9
  -1   6  18 731.520 514.384  20
   1  -6 -18 761.927 408.469   2
   1   6  18 94.1240 210.271  15
   1   6  18 597.673 322.576  20
   1  -6 -18 870.696 333.330  17
  -1   6  18 576.816 234.121  18
  -6  -2   0 737.107 192.877   6
  -6  -2   0 635.279 191.694  14
  -6   2   0 786.956 252.819  18
   6   2   0 692.173 231.873  12
   6   2   0 701.065 193.527   5
   6   2   0 724.616 196.494   4
  -6   2   0 656.771 321.366  14
  -6   2   0 885.033 354.632   1
  -6  -2   0 855.380 222.886   1
  -6  -2   0 662.391 187.200   8
   6   2   0 741.876 189.576  19
  -6   2   0 934.627 324.325   8
   6  -2   0 64.5095 105.113  17
  -6  -2  -1 4840.13 479.718   6
   6   2   1 4239.93 459.075  19
  -6  -2   1 4130.62 554.350   6
  -6   2  -1 3945.55 807.315  14
  -6   2   1 3939.10 741.421  14
  -6  -2  -1 4595.78 495.719  14
  -6  -2   1 4124.35 499.466  14
   6   2   1 4289.19 478.191   4
  -6   2   1 4929.13 664.152   8
  -6   2  -1 4496.04 813.063   1
   6  -2  -1 1745.54 434.081   5
  -6   2   1 5218.46 777.503   1
   6   2   1 4501.69 528.554  12
   6   2  -1 4497.15 504.403   5
  -6  -2  -1 3906.51 451.083   8
  -6   2   1 5329.82 629.979  18
  -6  -2  -1 4574.09 480.428   1
   6   2   1 4174.47 450.328   5
  -6  -2   1 4286.21 538.485   1
   6   2  -1 4642.11 492.999  19
  -6  -2   1 3872.54 494.411   8
  -6   2  -1 4446.03 770.859   8
   6   2  -1 4449.83 491.650   4
  -6   2  -1 4222.72 583.591  18
   6  -2  -1 1573.84 370.087  17
  -6  -2   2 178.265 133.255   8
   6   2   2 243.127 105.853   5
  -6   2   2 332.359 165.540   1
  -6  -2  -2 302.115 124.448  14
   6   2   2 265.119 113.504  19
  -6   2   2 293.678 178.643  14
   6   2   2 197.197 132.239   3
   6  -2  -2 204.500 126.574  19
   6   2  -2 280.253 117.213   5
  -6  -2   2 232.236 134.067   1
  -6  -2  -2 237.495 110.451   8
  -6  -2  -2 249.906 94.2844   6
   6  -2  -2 222.221 148.591   5
   6   2  -2 250.470 120.620  19
   6   2   2 234.837 116.304  12
   6   2   2 255.584 116.013   4
  -6   2  -2 140.873 138.548  14
  -6   2   2 303.479 134.201   8
   6  -2  -2 78.9849 33.5934   2
  -6   2   2 424.349 174.103  18
  -6   2  -2 189.475 109.651   1
   6  -2  -2-3.61378 124.063   4
  -6  -2  -2 275.491 119.586   1
  -6   2  -2 204.742 48.9364   8
  -6  -2   2 206.961 96.9487  14
   6  -2  -2 180.878 119.025  17
   6  -2  -3 561.587 236.933  17
   6   2   3 1021.35 237.813   4
  -6  -2   3 472.432 239.245   8
   6   2   3 838.801 206.869  19
  -6  -2  -3 946.653 215.724   6
   6   2   3 939.680 253.335   3
   6  -2  -3 744.226 227.816   2
  -6   2  -3 723.728 247.022  14
  -6   2   3 780.711 297.021  14
  -6  -2  -3 953.601 220.419   8
  -6   2   3 1171.23 230.383  13
  -6   2   3 1041.71 253.372  18
  -6   2   3 951.916 298.467   1
   6   2   3 873.707 200.225   5
   6   2   3 923.289 228.061  12
  -6  -2  -3 940.147 207.036   1
  -6   2  -3 709.316 322.568   8
   6  -2  -3 664.692 237.653   5
  -6  -2   3 919.539 301.856   1
  -6   2  -3 191.087 33.2025   1
  -6  -2   3 779.523 232.751  14
  -6  -2  -3 1006.61 229.975  14
  -6   2   3 1216.03 256.205   8
   6  -2  -3 668.511 215.293  19
   6  -2  -3 600.959 203.163   4
   6   2  -3 1238.01 282.609  19
   6  -2  -4 632.852 225.988  17
   6  -2  -4 802.255 228.844  19
   6   2   4 818.166 220.244   4
  -6  -2  -4 1173.27 311.091  16
   6   2   4 900.885 219.984  19
  -6  -2  -4 1024.54 228.652   6
   6   2   4 803.988 220.123   3
  -6   2   4 1226.99 226.318   8
  -6  -2  -4 947.492 228.015  14
  -6  -2   4 840.718 269.047  14
  -6  -2   4 758.256 290.979   1
  -6   2   4 856.743 289.278  14
  -6   2   4 1020.23 197.684  13
   6   2   4 906.767 215.191   5
   6   2   4 766.041 207.558  12
  -6   2   4 978.072 303.163   1
  -6  -2  -4 973.155 202.347   1
   6  -2  -4 670.143 206.342   2
   6  -2  -4 675.050 242.644   5
   6  -2  -4 846.557 245.482   4
  -6  -2  -4 930.821 225.757   8
  -6   2   4 1082.01 257.542  18
  -6  -2   5 546.206 196.556   1
  -6  -2  -5 1063.12 240.839   6
  -6  -2  -5 1100.81 247.161  14
   6   2   5 822.996 234.840   4
  -6   2   5 768.573 298.773  14
  -6  -2   5 563.727 242.174  14
  -6   2   5 897.107 189.317  13
   6   2   5 706.901 198.121   3
   6   2   5 721.175 216.981  12
  -6   2   5 973.247 274.267   1
  -6  -2  -5 1074.15 231.430   1
   6  -2  -5 671.209 211.760   4
   6  -2  -5 739.939 213.737   2
   6   2   5 750.989 208.243   5
  -6  -2  -5 906.890 225.779   8
  -6   2   5 1211.26 306.116  11
   6  -2  -5 698.346 243.345   5
   6  -2  -5 904.273 220.173  19
   6   2   5 738.469 213.734  19
  -6   2   5 1018.10 250.060  18
  -6   2   5 973.590 190.344   8
  -6  -2  -5 1379.48 325.397  16
   6  -2  -5 794.773 243.945  17
   6   2   6 1324.26 286.321  19
   6   2   6 1656.67 334.338  20
  -6  -2  -6 2990.78 492.345  16
   2   6   6 2088.15 477.242   3
  -6  -2  -6 2360.94 377.981   6
  -6   2   6 1665.49 392.640  14
  -6  -2  -6 2085.08 352.413  14
   6   2   6 1257.18 276.704   3
  -2   6   6 1419.15 393.789  13
  -2  -6  -6 1.73882 104.293   6
   6   2   6 1198.22 276.461  12
  -6  -2  -6 2360.84 393.110   1
  -6   2   6 2111.61 414.192   1
   6  -2  -6 1596.20 306.997   2
  -6   2   6 2038.07 359.519  18
  -6   2   6 2463.75 436.323  11
   6  -2  -6 1673.63 323.742   4
  -6   2   6 2210.02 435.047  10
   6  -2  -6 1849.77 288.673  19
   6   2   6 1440.09 313.751   5
   6   2   6 1334.31 317.243   4
  -6  -2  -6 1897.20 348.467   8
   6  -2  -6 1679.13 361.416   5
   6  -2  -6 1471.83 350.837  17
   6  -2  -7 2127.84 286.690  16
  -6  -2  -7 2521.89 417.681   6
   2   6   7 2371.71 479.484   3
  -6   2   7 3205.00 620.046   9
   6   2   7 2089.18 482.434  15
  -6   2   7 2157.63 473.739  14
  -6  -2  -7 2344.63 386.820  14
  -2   6   7 2223.68 558.010  13
  -6  -2  -7 3078.85 502.353  16
   6  -2  -7 2281.20 378.963   4
   6   2   7 1274.94 306.280  19
   6  -2  -7 2069.12 429.349   5
  -2  -6  -7 499.114 205.371   6
   6   2   7 1630.61 386.976   5
   2   6   7 2588.65 420.624  12
  -6   2   7 2280.06 468.746   1
  -6   2   7 2341.95 412.070  18
   6  -2  -7 2171.94 381.097   2
  -6   2   7 3146.81 518.915  11
   6   2   7 1625.41 306.074  10
  -6   2   7 2936.40 614.669  10
   6   2   7 1629.63 396.006   4
  -6  -2  -7 2792.92 500.442   1
  -6  -2  -7 2292.39 394.204   8
   6  -2  -7 2064.07 293.046  19
   6  -2  -7 2207.46 454.759  17
   6   2   7 1734.33 382.763  20
   6  -2  -8 1191.21 261.912   4
  -2   6   8 835.716 287.780  18
   2  -6  -8 253.170 145.070   6
  -6  -2  -8 1832.04 399.199  16
   6  -2  -8 1130.09 224.543  16
  -6   2   8 1136.63 306.124  14
  -6  -2  -8 1518.39 339.277   6
  -2   6   8 1426.08 339.558   3
   2   6   8 1520.20 357.815   3
   6  -2  -8 1196.92 223.045  19
   6   2   8 957.955 344.064  15
  -6  -2  -8 1348.00 306.938  14
   6  -2  -8 1078.83 312.189  17
   6   2   8 949.550 349.996   7
   2   6   8 683.257 288.849  13
   6  -2  -8 1134.26 295.718   5
   2   6   8 1427.61 300.360  12
  -6   2   8 1074.31 308.024   1
   6   2   8 510.009 185.970   5
   6   2   8 711.192 205.957  10
   6   2   8 932.407 285.316  20
   6  -2  -8 1211.36 294.559   2
  -6   2   8 1503.93 369.927  11
  -2  -6  -8 543.369 213.401   6
   6   2   8 861.629 313.298   4
  -6  -2  -8 1413.82 321.438   8
  -6   2   8 1364.56 315.934  18
  -2   6   8 1514.00 443.004  13
  -6   2   8 1141.53 420.302  10
  -6  -2  -8 1456.80 414.607   1
  -6   2   8 1448.99 427.360   9
   6   2   8 629.021 195.114  19
   6  -2  -9 1876.98 302.817  19
  -6  -2  -9 2636.09 486.096  16
   6  -2  -9 1513.99 300.774  16
   6   2   9 1375.32 435.227   7
   6   2   9 991.186 280.525  10
  -6  -2  -9 2299.80 452.014   6
  -2   6   9 2008.66 388.722   3
  -2  -6  -9 1345.42 353.696   6
   2   6   9 2341.23 433.796   3
   6   2   9 1189.37 389.911  15
  -6  -2  -9 2417.30 454.058  14
  -6   2   9 1205.06 329.315  14
  -6  -2  -9 2026.37 402.705   8
  -2   6   9 2365.67 527.232  13
   2   6   9 1771.87 539.647  13
   6  -2  -9 2061.30 394.641   5
   2   6   9 2097.89 353.166  12
   6   2   9 996.297 262.858  19
  -6   2   9 1726.44 377.903   1
   2  -6  -9 952.094 267.087   6
   6  -2  -9 1707.58 371.305   2
  -6   2   9 2001.76 449.843  11
  -6   2   9 1380.81 514.035  10
  -6  -2  -9 205.893 107.201   1
   6   2   9 1064.76 335.629  20
  -6   2   9 1708.56 493.033   9
   6  -2  -9 1845.06 302.539   4
  -2   6   9 1895.75 446.182  18
  -6   2   9 1752.78 372.109  18
   6   2   9 844.596 310.887   4
   6  -2  -9 1891.65 414.105  17
   6  -2 -10 180.637 110.849   4
   6  -2 -10 480.542 253.216  17
  -6  -2 -10 370.505 175.024  16
   6  -2 -10 185.395 117.974  16
   6   2  10-93.7782 222.129  15
   6  -2 -10 379.430 212.530   2
  -6   2  10 310.446 190.289   1
  -6   2  10 312.526 193.072   9
  -6  -2 -10 165.481 165.018   6
  -6  -2 -10 398.501 242.206  14
  -6   2  10 149.839 141.092  14
   2   6  10 125.059 75.3796   3
  -2  -6 -10 14.7653 167.093  14
   6   2  10-140.194 254.448   7
  -2  -6 -10 110.809 80.3570   6
   2   6  10 116.568 72.7499  12
   2   6  10 207.397 172.327  13
  -2   6  10 98.5515 28.5073  12
  -6   2  10 325.716 217.364  11
   6  -2 -10 228.145 139.770   5
   2   6  10 26.8090 84.5022   4
   6   2  10 166.768 77.3821  19
   2   6  10 52.5030 106.574  18
   2  -6 -10 56.4339 41.0758   6
   6  -2 -10 205.118 14.6515  19
  -2   6  10 149.716 125.641  18
  -2   6  10 108.426 80.1483  13
  -6   2  10 104.487 116.212  18
   2  -6 -10 57.7617 114.453  17
  -6  -2 -10 701.979 310.908   8
  -2   6  10 155.722 100.720   3
   6   2  10-647.816 540.995   4
   2  -6 -11 2047.39 513.542  17
   2   6  11 4353.86 406.432   4
   2  -6 -11 2087.05 474.282  16
  -2  -6 -11 2691.89 577.763  16
  -2  -6 -11 3258.40 690.195   8
  -6  -2 -11 4157.49 679.428  16
   6  -2 -11 3368.88 505.815  16
   6   2  11 1291.77 441.041   7
  -6  -2 -11 3939.10 651.502   6
   2  -6 -11 2020.18 398.203   6
  -2  -6 -11 3015.44 545.228   6
  -2   6  11 3318.01 481.935   3
   2   6  11 3673.42 554.394   3
  -6  -2 -11 4307.84 738.073  14
  -6   2  11 2019.77 394.110  14
  -6   2  11 3098.29 529.765  18
   6  -2 -11 3770.52 627.629  17
   6   2  11 1156.41 315.191  19
   2   6  11 3179.38 708.634  13
  -2  -6 -11 2921.26 393.690  14
   2   6  11 3957.87 491.283  18
  -2   6  11 3996.77 606.747  18
   6  -2 -11 3718.66 544.262   5
   2   6  11 3663.76 466.628  12
  -2   6  11 4017.39 474.840  12
   6  -2 -11 4209.47 621.948   2
  -6   2  11 3380.79 623.342  11
   6   2  11 1364.92 469.903  15
  -2   6  11 3660.42 601.661  13
   6  -2 -11 4109.65 452.253   4
  -6   2  11 1878.35 542.318   9
  -6  -2 -11 4104.81 629.099   8
  -6   2  11 3371.66 563.386   1
  -2  -6 -11 2599.87 494.803  17
  -2   6  12 816.945 275.307  18
   6  -2 -12 909.579 328.407  17
  -2  -6 -12 483.696 140.025   8
   2   6  12 699.863 329.277  13
   6  -2 -12 646.526 263.011   2
  -2  -6 -12 763.962 286.813  16
   6  -2 -12 641.729 233.746  16
  -6  -2 -12 721.009 299.117   6
  -6  -2 -12 698.538 285.033  14
   2   6  12 631.000 167.371  18
   2  -6 -12 413.782 201.978   6
  -6   2  12 459.032 204.370   1
  -2  -6 -12 640.882 257.990   6
  -2   6  12 632.850 212.445   3
  -2  -6 -12 594.653 149.700  14
   2  -6 -12 401.515 214.465  16
   2   6  12 686.031 238.433   3
  -2   6  12 636.477 275.931  13
  -2   6  12 647.195 189.248  12
   2   6  12 589.677 201.652  12
  -6   2  12 495.135 265.799  11
   2  -6 -12 341.048 120.827   2
   6  -2 -12 671.937 226.543   5
  -6  -2 -12 1014.57 350.922  16
   6   2  12 63.5923 79.3046  19
   2  -6 -12 470.152 243.294  17
  -6   2  12 601.390 230.114  18
   6  -2 -12 786.904 195.513   4
  -6  -2 -12 829.106 286.485   8
  -2  -6 -12 604.997 194.425  17
  -6  -2 -13 1338.83 382.868   8
   6  -2 -13 1393.73 381.607  16
   6  -2 -13 1312.84 384.873   2
  -6  -2 -13 1759.28 481.760  16
  -2   6  13 1220.04 303.945   3
   2  -6 -13 989.606 343.480  17
  -6  -2 -13 1618.06 518.668  14
   6   2  13 258.403 138.418  19
   2  -6 -13 620.348 224.870   6
  -2  -6 -13 1331.83 396.620   6
  -2   6  13 1180.22 364.073  13
  -6   2  13 951.427 316.864   1
   6  -2 -13 1430.83 337.135   5
   2   6  13 1278.47 308.682  12
  -2   6  13 1283.58 261.257  12
  -2  -6 -13 1347.95 442.311  16
  -6   2  13 737.892 292.646  11
  -6  -2 -13 1537.07 464.495   6
  -6   2  13 939.835 307.974  18
  -2   6  13 1285.29 337.812  18
   6  -2 -13 1264.60 389.007  17
  -2  -6 -13 1325.74 347.908   8
   2   6  13 892.620 331.780  13
   2   6  13 1291.63 241.483  18
   2  -6 -13 743.359 294.023   2
   2   6  13 1065.61 303.322   3
  -2  -6 -13 1291.93 266.965  17
   2  -6 -13 896.009 320.051  16
   6  -2 -14 719.414 293.773  17
  -2   6  14 586.153 275.344  13
  -2  -6 -14 677.157 289.556  16
   6  -2 -14 928.073 342.572   2
  -2   6  14 846.313 403.574   7
  -6  -2 -14 1048.31 370.232  16
   6  -2 -14 766.166 311.965  16
  -2   6  14 917.596 429.904  15
  -6  -2 -14 827.336 335.034   6
  -2  -6 -14 707.080 200.528  17
  -6  -2 -14 328.861 96.9536  14
   2  -6 -14 458.405 224.521   6
   2   6  14 533.096 284.500  13
  -2  -6 -14 687.625 301.772   6
  -6   2  14 319.778 210.702   1
  -2   6  14 640.026 221.083   3
   2   6  14 552.138 227.087   3
  -2   6  14 780.198 213.290  12
   2   6  14 624.905 213.682  12
  -2   6  14 907.832 333.516  11
   2   6  14 904.945 245.239  11
  -2   6  14 623.379 211.316  18
  -6   2  14 185.262 140.022  11
   6  -2 -14 1021.14 295.174   5
   2  -6 -14 353.543 204.974   2
   6   2  14-136.540 103.955  19
   2  -6 -14 495.025 230.091  17
   2  -6 -14 604.231 289.621  16
   2   6  14 562.637 167.152  18
  -6  -2 -14 840.394 332.822   8
  -6   2  14 293.765 157.703  18
   2  -6 -15 1338.17 390.858  17
  -6  -2 -15 1954.48 581.199  16
   6  -2 -15 1898.78 502.275  16
  -2  -6 -15 1611.61 490.099  16
  -2   6  15 1965.75 680.538   7
  -2   6  15 2182.02 685.139  15
   2   6  15 2266.51 715.256  15
  -2   6  15 1509.48 359.949   3
  -6  -2 -15 1799.82 506.190   6
   2   6  15 1206.88 366.252   3
   2  -6 -15 1018.34 351.957   6
  -2  -6 -15 1594.12 464.261   6
   2   6  15 1112.03 411.756  13
  -2   6  15 1252.98 388.033  13
   2   6  15 1460.28 338.200  12
  -2   6  15 1823.93 340.450  12
   6  -2 -15 2200.24 458.595   5
  -6   2  15 856.724 332.102   1
  -2   6  15 1803.97 455.909  11
   2   6  15 1541.38 326.962  11
   2  -6 -15 1326.37 423.535  16
   6  -2 -15 2120.84 524.434   2
  -2  -6 -15 595.282 207.697   2
  -6   2  15 483.131 207.986  11
  -2   6  15 1734.36 635.376  20
  -6  -2 -15 2128.07 518.774   8
  -2   6  15 1717.28 381.723  18
  -6   2  15 1092.72 367.750  18
   2  -6 -15 1391.26 457.579   2
   6  -2 -15 2293.63 525.284  17
   2  -6 -16-1.99117 81.4414  17
   6  -2 -16 33.7367 101.247  17
   2  -6 -16 148.735 177.145  16
  -2  -6 -16 86.9150 126.516  16
   6  -2 -16-93.7942 126.647   2
   2   6  16 487.028 390.502   7
  -6  -2 -16 34.1933 69.5103  16
  -2   6  16 98.4981 128.777  15
  -6  -2 -16 17.3994 39.0073   6
   2   6  16-111.190 54.3875  15
  -2   6  16-12.9542 34.4862  13
   2  -6 -16 35.5939 64.5053   6
  -2   6  16 108.668 72.0107   7
  -2  -6 -16 12.2061 106.386   6
   2   6  16 191.838 218.643  20
  -6  -2 -16 87.5986 121.110   8
   2   6  16-9.41148 57.1799  12
   2   6  16 1.39861 74.6570   3
   2   6  16 59.9792 119.808  13
  -6   2  16-49.5714 119.093  18
  -2   6  16 20.2059 10.9730  12
   6  -2 -16 246.840 189.770   5
  -6   2  16-42.0272 20.5939   1
  -2   6  16-58.2074 107.056  11
   2   6  16 155.640 152.680  11
  -2  -6 -16-389.505 290.050   2
  -2   6  16 113.740 151.684   3
  -2   6  16 73.9088 186.356  20
   6  -2 -16 168.187 208.520  16
   2  -6 -16 176.711 248.459   2
  -2   6  16 72.1630 96.5720  18
   2  -6 -17 1480.81 416.779  17
   2  -6 -17 1264.93 454.639  16
  -2  -6 -17 1698.33 553.168  16
   2   6  17 1400.35 605.850   7
   6  -2 -17 1657.86 533.723  16
  -6  -2 -17 1617.81 499.876   6
   2   6  17 1624.63 685.834  15
  -2   6  17 1941.81 651.740  10
   2  -6 -17 704.855 361.002   6
  -2   6  17 1770.87 708.414  20
  -2  -6 -17 1520.72 520.702   6
  -6  -2 -17 1977.71 647.737  16
   2   6  17 1212.80 425.663  10
   2   6  17 1021.21 380.414  13
  -2   6  17 833.381 357.402  13
   2   6  17 926.084 331.093   3
   2   6  17 1106.36 303.569  12
  -2   6  17 1330.27 359.043   3
   2   6  17 1754.39 380.401  11
   6  -2 -17 1894.28 538.602   2
  -2   6  17 1753.56 474.049  11
  -6   2  17 569.003 261.014   1
   2   6  17 928.608 405.236  20
  -2  -6 -17 1749.24 576.188   2
   6  -2 -17 2295.31 559.738  17
   2  -6 -17 1776.20 578.361   2
  -2   6  17 1430.74 359.548  18
  -6  -2 -17 1907.95 529.898   8
   2  -6 -18 449.387 241.884  17
   6  -2 -18 496.434 257.984  17
   2  -6 -18 358.229 276.717  16
  -2  -6 -18 230.166 265.650  16
   6  -2 -18 551.177 351.063   2
  -6  -2 -18 565.482 357.244  16
   6  -2 -18 432.829 267.632  16
  -6  -2 -18 229.895 93.8835   6
   2   6  18 507.543 405.027  15
   2  -6 -18 728.890 411.231   2
   2   6  18 461.485 397.165   9
  -2   6  18 613.455 239.836  18
   2   6  18 277.006 202.638  13
  -2   6  18 367.067 246.871  13
  -2   6  18 573.654 257.964   3
   2   6  18 81.2684 133.464   3
   2   6  18 423.914 242.522  12
   2   6  18 100.310 110.870  20
  -2   6  18 368.691 387.008   9
  -2   6  18 644.141 313.926  11
   2   6  18 324.523 181.232  11
  -6   2  18 52.2897 122.103   1
   2   6  18 338.286 257.374  10
  -2  -6 -18 338.932 240.203   6
  -2   6  18 578.358 374.417  10
  -2  -6 -18 421.534 278.453   2
   2   6  18 167.627 268.334   7
  -6  -2 -18 571.904 321.341   8
  -6   2  18-216.383 272.136  18
  -2   6  18 210.854 300.442  20
   6   3   0 1198.67 268.534  19
  -6  -3   0 733.353 242.704   8
  -6  -3   0 960.587 263.652  14
  -6  -3   0 875.231 249.669   1
  -6   3   0 814.217 301.865   1
  -6   3   1 264.707 240.704   1
  -6  -3   1 22.6042 110.113   8
  -6  -3   1 146.425 88.1950  14
   6   3   1 149.126 74.5749   4
  -6   3   1 159.263 129.263   8
  -6  -3   1 92.2227 99.1589   1
  -6   3   1 311.822 148.166  18
  -6  -3  -1 219.520 111.158  14
  -6  -3  -1 179.330 107.906   6
   6   3   1 198.984 113.038  12
  -6   3  -1-430.701 236.815   1
   6   3   1 245.901 103.452   5
  -6  -3  -1 234.157 115.452   1
   6   3   1 239.758 114.362  19
   6   3  -1 263.000 119.721  19
  -6  -3  -1 239.632 122.595   8
  -6  -3  -2 2770.06 431.602   6
  -6   3   2 3745.18 598.010  18
  -6  -3  -2 2860.21 420.616  14
   6  -3  -2 742.322 276.310  17
   6   3   2 3388.53 500.437  12
   6   3   2 3138.20 408.343   5
  -6   3   2 3475.91 725.753   1
  -6  -3  -2 2740.68 397.092   1
   6   3   2 3140.44 414.434  19
   6   3   2 3230.36 439.629   4
  -6  -3  -2 2685.09 401.958   8
  -6   3   3 56.5135 80.6352   1
   6   3   3 15.0768 39.9588   4
  -6   3   3 74.7970 101.123  13
   6  -3  -3 113.867 171.237  17
   6   3   3 46.4738 47.7603   3
  -6  -3  -3 64.4786 54.0169  14
  -6  -3  -3 64.0520 66.6847   6
  -6  -3  -3 48.4151 43.6311   8
  -6  -3  -3 62.6704 68.6770   1
   6   3   3-6.11365 59.0177  12
  -6   3   3 36.2096 44.4191  18
   6   3   3 88.2185 72.1741   5
  -6   3   3-214.277 343.722  14
  -6   3   3 56.2438 70.8265   8
   6   3   3 32.4636 19.3662  19
  -6  -3  -4 1120.93 251.647   8
  -6   3   4 854.149 327.127   1
  -6  -3  -4 1180.03 268.098   6
   6   3   4 989.019 308.241   3
  -6  -3  -4 1139.24 257.382  14
  -6   3   4 1333.20 296.207  13
   6   3   4 1055.79 250.863  12
   6   3   4 1205.41 239.306   5
  -6   3   4 147.596 167.134  14
   6  -3  -4 194.771 162.307   5
  -6  -3  -4 1079.36 215.256   1
   6  -3  -4 441.332 183.228   2
   6   3   4 1137.03 248.667  19
  -6   3   4 1183.91 287.930   8
  -6   3   4 1095.68 305.730  18
   6   3   4 1121.41 255.989   4
   6  -3  -4 513.261 252.896  17
  -6  -3  -5 2127.75 359.284   6
   6   3   5 1811.75 364.106   3
  -6   3   5 772.217 356.984  14
  -6  -3  -5 1781.31 310.464  14
  -6   3   5 1892.28 326.127  13
  -6   3   5 2050.93 494.369   1
   6   3   5 1666.98 279.771   5
   6   3   5 1711.63 322.177  12
  -6  -3  -5 1808.66 315.646   8
   6  -3  -5 1125.14 340.480   5
   6  -3  -5 1216.31 308.980   2
  -6  -3  -5 1900.54 280.945   1
   6   3   5 1870.82 318.206  19
   6  -3  -5 1302.02 287.013  19
   6  -3  -5 1026.91 321.259  17
   6   3   5 1826.74 323.033   4
  -6   3   5 2146.14 404.857  18
   6  -3  -6 930.081 285.549  17
   3   6   6 1510.17 422.085   3
  -6  -3  -6 1468.96 302.202   6
   6   3   6 1065.54 284.848   3
  -6  -3  -6 1373.61 276.594  14
  -6   3   6 541.245 301.269  14
  -6  -3  -6 1692.29 481.553  16
   6   3   6 1174.12 264.774   4
  -6   3   6 1332.84 262.118  13
  -6   3   6 1434.14 399.745   1
   6   3   6 1133.57 228.925   5
   6  -3  -6 252.736 139.083   4
   6   3   6 1101.15 267.569  12
   3   6   6 1603.97 346.057  12
  -6  -3  -6 1357.66 233.295   1
   6  -3  -6 949.115 270.766   2
   6  -3  -6 755.652 266.159   5
   6  -3  -6 1005.05 242.034  19
   6   3   6 1206.96 258.146  19
  -6   3   6 1461.96 327.520  18
  -3   6   6 934.409 297.631  13
  -6  -3  -6 1303.37 276.379   8
   6  -3  -7 1236.31 331.679  17
   6   3   7 119.070 115.974  13
   6  -3  -7 1109.37 243.965  16
  -6   3   7 2391.93 506.917  20
  -6  -3  -7 1750.63 293.141   1
  -6  -3  -7 1691.70 335.970   6
   3   6   7 2150.70 472.543   3
  -6  -3  -7 1660.03 299.244  14
  -6  -3  -7 1575.81 313.365   8
  -6   3   7 582.416 300.625  14
  -6  -3  -7 2317.48 514.531  16
  -3   6   7 1903.91 506.916  13
  -6   3   7 1451.90 275.718  13
   6   3   7 1278.61 272.117   5
  -6   3   7 1707.37 421.870   1
   6   3   7 1190.35 277.853  12
   3   6   7 1990.37 374.431  12
   6  -3  -7 1195.54 299.002   2
   6  -3  -7 1132.51 325.773   5
  -6   3   7 2193.58 451.417  11
   6   3   7 1327.25 284.994  19
  -3  -6  -7 507.898 212.272   6
   6  -3  -7 1374.61 250.022  19
   6   3   7 1471.66 327.245   4
  -6   3   7 1710.05 359.413  18
   6  -3  -7 914.270 285.276   4
   6   3   7 1282.33 301.047   3
   6  -3  -8 2241.41 344.788  16
  -6  -3  -8 4176.92 680.432  16
   6   3   8 692.545 280.900  13
  -3   6   8 2558.16 465.370   3
  -6  -3  -8 2730.88 446.727   6
   3   6   8 3270.88 556.492   3
  -3  -6  -8 1445.60 364.597   6
   6   3   8 2054.62 389.228   3
  -6  -3  -8 2656.93 393.681  14
  -6   3   8 1103.88 402.710  14
   6   3   8 1935.45 346.054  19
  -3   6   8 3379.22 617.629  13
  -6   3   8 2466.49 367.251  13
  -6  -3  -8 3382.43 476.013   1
   3  -6  -8 469.417 182.192   6
   6  -3  -8 2014.22 445.915   5
   6   3   8 2261.17 411.921   5
   6   3   8 1951.69 371.212  12
  -6   3   8 2461.30 521.390   1
   3   6   8 3061.00 450.279  12
   6  -3  -8 2286.50 426.277   2
  -6   3   8 3528.97 576.349  11
  -6   3   8 3131.88 581.836  10
   6  -3  -8 2354.54 322.642  19
  -6   3   8 3798.72 712.631  20
   6   3   8 2326.78 434.857   4
   6  -3  -8 1911.98 412.264   4
  -3   6   8 2744.88 560.584  18
  -6  -3  -8 2555.29 401.961   8
  -6   3   8 3187.83 491.516  18
   6  -3  -8 2048.68 444.796  17
   6   3   9 846.484 257.976   4
  -6  -3  -9 1462.92 427.205   1
   6   3   9 938.216 250.263  19
   6   3   9 957.301 221.624   9
  -6  -3  -9 1456.15 336.704   6
  -3   6   9 1107.63 287.919   3
   6   3   9 612.626 179.378  10
  -6   3   9 952.486 174.924   3
  -6  -3  -9 1273.54 280.642  14
   6   3   9 1852.53 431.109   3
  -6   3   9 1262.71 486.646  14
   3   6   9 831.689 259.779   3
  -3  -6  -9 961.918 307.604  14
   3  -6  -9 559.227 204.411   6
   3   6   9 673.617 277.235  13
  -3  -6  -9 607.567 236.347   6
  -3   6   9 1078.59 348.817  13
  -6   3   9 1582.81 593.895  20
   6   3   9 1038.61 385.931  13
  -6  -3  -9 1283.96 327.309   8
  -6  -3  -9 1621.34 452.939  16
   6   3   9 1116.83 360.551   5
  -6   3   9 807.380 315.016   1
   6  -3  -9 1140.40 375.743   4
   6   3   9 1152.58 365.144  20
   6  -3  -9 1086.36 364.921   5
  -6   3   9 1265.48 363.567  11
   3   6   9 1194.02 279.238  12
  -6   3   9 1426.96 394.493  10
   3  -6  -9 167.570 176.423  17
   6  -3  -9 1687.48 282.468  19
  -6   3   9 1082.06 286.178  18
   6  -3  -9 1129.68 317.480   2
  -3   6   9 1203.11 366.529  18
   6  -3  -9 1976.41 502.383  17
  -6  -3 -10 4740.58 717.373  16
   6  -3 -10 2768.25 408.710  16
   6   3  10 2890.71 662.383   7
  -6  -3 -10 3554.49 554.576   6
   3  -6 -10 1434.60 312.929   6
  -3   6  10 3280.91 482.160   3
   6   3  10 2711.91 637.168  15
   3   6  10 3438.09 549.866   3
   6  -3 -10 3035.88 493.061   4
  -6  -3 -10 3542.19 509.573  14
   6   3  10 1763.10 382.570   3
  -3  -6 -10 2772.58 448.662  14
  -6   3  10 1245.89 432.242  14
  -3  -6 -10 1968.97 461.504   8
  -6   3  10 2910.37 324.784   3
   3   6  10 3299.95 805.666  13
  -3   6  10 3415.57 585.561  13
   6   3  10 1585.35 365.334  13
   6  -3 -10 2760.23 526.281   5
   6   3  10 1780.71 389.458  12
   3   6  10 3467.27 464.991  12
  -6   3  10 2865.11 552.160   1
   6  -3 -10 2543.62 489.898   2
   3  -6 -10 1255.81 476.764  17
  -6   3  10 4181.51 655.306  11
   6   3  10 2283.30 382.677   9
   3   6  10 4027.26 571.971  18
   6   3  10 2280.14 410.573  10
  -6   3  10 3284.98 703.982  10
   6   3  10 2372.44 513.266  20
  -6   3  10 2876.50 772.447  20
   6  -3 -10 2786.33 348.927  19
   6   3  10 2200.44 515.592   4
   6   3  10 1981.33 367.786  19
  -3  -6 -10 2644.92 497.633   6
   3   6  10 3413.00 403.535   4
  -6  -3 -10 3503.00 505.893   8
  -3   6  10 3537.98 598.319  18
  -6   3  10 2957.49 498.058  18
  -6   3  10 3562.27 722.523   9
   6  -3 -10 2489.07 509.993  17
  -3  -6 -10 1515.14 435.475  16
   6   3  11 41.2270 214.118   4
   3  -6 -11 53.6042 115.132  17
   3   6  11 151.615 85.4818   4
  -3  -6 -11 36.9499 85.1198   8
   3  -6 -11-204.038 208.728  16
  -3  -6 -11-444.656 261.441  16
   6   3  11 76.9471 8.67803   9
  -6  -3 -11-49.0702 133.144  16
   6  -3 -11 66.8609 68.2761  16
  -3  -6 -11-52.4775 37.0758  17
   6   3  11 67.5469 93.1638  15
  -6   3  11 54.8616 147.251  14
  -6  -3 -11 158.758 187.707   6
  -6  -3 -11 101.927 80.0218  14
  -3   6  11 66.7140 67.8736   3
   3  -6 -11 49.9652 52.2845   6
  -3  -6 -11 88.0220 71.2901  14
   3   6  11 126.232 102.882   3
  -3  -6 -11-1.09272 6.78777   6
   3   6  11 214.665 216.875  13
   6   3  11 234.094 178.725  13
   6  -3 -11 168.362 119.340   4
  -6   3  11 188.218 107.952   3
   3   6  11 126.606 83.7800  12
  -3   6  11 76.9808 83.0214  12
   6  -3 -11 191.589 151.527   5
   6   3  11 76.8181 27.6758  19
  -6   3  11 57.5030 122.867  11
   3  -6 -11-138.000 269.769   2
   6  -3 -11 55.9275 5.43446  19
   6   3  11 99.8723 117.158  20
  -6   3  11 41.8210 56.2357   1
  -6   3  11 406.119 347.797  10
   6   3  11-61.2975 114.991   7
   6   3  11 145.371 95.1518  10
  -3   6  11 108.058 118.192  18
  -6   3  11 48.6898 154.511   9
   3   6  11 84.7233 58.0281  18
  -6   3  11 115.835 59.5379  18
   6  -3 -11 135.902 133.094   2
   6  -3 -11 128.548 164.740  17
  -6  -3 -11 118.526 80.2240   8
  -3   6  11 39.1530 122.643  13
   6   3  12 1158.48 320.326  10
  -6  -3 -12 3191.26 627.583  16
   3  -6 -12 1321.49 377.726  16
   6  -3 -12 2328.89 433.508  16
   6   3  12 1809.36 565.211   7
  -6  -3 -12 2542.70 527.358   6
  -3  -6 -12 2097.29 452.508   6
  -6   3  12 2357.73 665.327   9
  -3   6  12 2363.08 408.329   3
  -6   3  12 2297.36 452.422  18
   6   3  12 1432.21 461.033  15
   3   6  12 2061.57 436.910   3
  -6  -3 -12 2881.81 552.285  14
  -3  -6 -12 2101.55 306.819  14
   6   3  12 911.440 248.887   9
  -3   6  12 2310.47 483.216  13
   3   6  12 2066.52 579.535  13
   6  -3 -12 2333.10 479.374   5
   3   6  12 2166.98 390.834  12
  -3   6  12 2320.70 360.843  12
  -6   3  12 2008.72 490.483   1
   6  -3 -12 2197.65 478.542   2
  -3   6  12 2309.60 464.827  18
  -6   3  12 2663.24 566.220  11
   3  -6 -12 1261.92 396.544   2
   6   3  12 1181.20 369.869  20
  -6   3  12 1787.20 635.890  10
   6   3  12 1106.92 304.466  19
  -6  -3 -12 2502.75 456.226   8
  -3  -6 -12 1747.00 517.444  16
  -3  -6 -12 2255.08 469.324   8
   3  -6 -12 1174.56 313.564   6
  -3  -6 -12 2108.10 334.528  17
   6  -3 -12 2394.99 511.162  17
   3  -6 -12 1418.82 435.988  17
   6  -3 -13 696.160 280.946   2
  -3  -6 -13 599.824 267.204   6
   6  -3 -13 788.134 300.782  17
  -3  -6 -13 739.227 260.417   8
   3   6  13 341.575 177.055  13
   3  -6 -13 567.907 264.405  16
  -6  -3 -13 823.975 306.741  16
   6  -3 -13 783.527 273.174  16
   3  -6 -13 619.183 273.910  17
  -6   3  13 677.940 296.650   1
   6   3  13 194.952 155.045  15
  -6  -3 -13 1027.47 372.673  14
   3  -6 -13 307.401 172.421   6
  -6   3  13 219.585 217.004  10
  -3   6  13 686.358 219.436   3
   3   6  13 446.565 184.694   3
  -3   6  13 535.649 230.413  13
  -3   6  13 721.698 193.563  12
   3   6  13 581.754 213.808  12
  -6   3  13 468.400 305.991   9
   6  -3 -13 918.116 319.452   5
  -6   3  13 578.218 261.970  11
   3  -6 -13 468.598 226.740   2
   6   3  13 294.417 180.418  10
   6   3  13 49.4197 114.063   7
   6   3  13 473.205 195.290  19
  -6   3  13 591.892 228.045  18
  -3   6  13 662.735 237.434  18
  -3  -6 -13 630.416 294.354  16
   6   3  13 199.829 62.6063  20
  -6  -3 -13 808.155 282.361   8
  -6  -3 -13 751.426 319.539   6
   3  -6 -14 1146.17 399.783  17
   6   3  14 299.919 132.475   7
   3  -6 -14 1178.94 373.795  16
  -3  -6 -14 1308.24 469.207  16
  -3   6  14 1697.61 475.748  11
  -6  -3 -14 1778.18 487.520   6
  -6  -3 -14 1665.68 404.840   8
   6   3  14 258.944 86.9601  15
  -3   6  14 1297.21 312.263   3
   6  -3 -14 1814.13 477.887  17
  -6  -3 -14 2001.69 564.010  14
   3  -6 -14 604.857 254.097   6
  -3  -6 -14 1640.61 433.620   6
  -6   3  14 765.164 278.534   9
   3   6  14 800.936 284.047   3
  -3   6  14 1256.77 374.969  13
   6  -3 -14 1549.70 393.704   5
   3   6  14 1409.67 334.404  12
   6  -3 -14 1762.10 467.074   2
   3   6  14 1743.03 318.085  11
   3  -6 -14 823.557 343.713   2
   6  -3 -14 1499.59 402.571  16
  -6   3  14 1294.91 427.403  11
  -6   3  14 1153.00 376.187   1
   6   3  14 629.650 226.449  19
  -3   6  14 1567.18 386.033  18
  -3  -6 -14 1781.81 363.159   8
  -6   3  14 1192.46 364.045  18
  -6  -3 -14 2004.01 537.206  16
   3   6  14 1096.75 380.555  13
   3  -6 -15 242.042 162.308  17
   6  -3 -15 382.355 225.497   2
  -3   6  15 318.977 163.920  18
  -3   6  15 536.713 415.199  20
   3  -6 -15 368.720 226.405  16
  -3  -6 -15 146.150 193.217  16
   6  -3 -15 431.393 245.999  17
  -6  -3 -15 514.086 288.821  16
   6  -3 -15 416.802 209.387  16
  -6  -3 -15 300.476 219.877   6
  -6  -3 -15 392.478 290.032  14
  -3  -6 -15 311.690 133.301   6
  -3   6  15 232.088 146.110   3
  -3   6  15 241.192 155.399  13
  -6   3  15 185.466 152.612   1
   3   6  15 171.692 74.3785  12
   3   6  15 259.081 104.596  13
  -3   6  15 302.339 223.202  11
   3   6  15 325.940 158.879  11
  -6   3  15-868.652 456.542   9
   6  -3 -15 320.898 171.336   5
  -6   3  15 320.783 239.810  11
   3  -6 -15 266.086 230.680   2
   6   3  15 202.696 172.246  19
  -6   3  15 184.649 125.534  18
   3   6  15 234.485 161.408   3
  -6  -3 -15 394.889 200.963   8
  -3   6  16 1845.60 725.703  20
   6  -3 -16 1641.37 503.333   2
   3   6  16 1056.60 474.203  20
  -3  -6 -16 1393.09 485.197  16
  -6   3  16 698.321 315.139   1
   3   6  16 1397.08 617.278   7
  -6  -3 -16 1396.72 476.595  16
   3   6  16 1865.81 702.973  15
  -3   6  16 1161.22 316.137   3
  -6  -3 -16 1260.33 430.068   6
  -6  -3 -16 438.309 246.944  14
   3  -6 -16 1078.56 410.412  16
  -3  -6 -16 1377.15 440.213   6
   3   6  16 836.881 306.041   3
   3   6  16 846.026 366.759  13
  -3   6  16 797.062 329.149  13
   3   6  16 817.355 254.047  12
  -3   6  16 1239.19 342.138  18
  -3   6  16 1334.99 388.360  11
   6  -3 -16 1218.37 386.876  16
  -6   3  16 825.178 378.862  11
  -3   6  16 1352.21 539.082  10
   6   3  16 241.526 153.237  19
   3  -6 -16 1248.60 446.929   2
  -6  -3 -16 1604.86 434.585   8
   6  -3 -16 1477.83 415.901  17
   3  -6 -16 1088.32 377.331  17
  -6   3  16 814.164 308.101  18
   3  -6 -17 511.927 379.571  17
   6  -3 -17 257.410 256.097  17
   3  -6 -17 385.898 378.128  16
  -3  -6 -17 28.3533 226.670  16
   3   6  17 419.684 494.419   7
  -6  -3 -17 210.664 286.153  16
   6  -3 -17-48.0401 122.036  16
   3   6  17-23.1894 128.338  15
  -6  -3 -17 406.240 339.184   6
  -6   3  17-62.8040 150.943  18
  -3  -6 -17 30.3412 80.3778   6
  -6   3  17-75.3391 105.029   1
   3   6  17 93.9050 216.814  10
  -6  -3 -17 249.623 265.957   8
   6  -3 -17-6.89668 168.283   2
   3   6  17 386.392 344.003  13
  -3   6  17 675.666 371.611  13
   3   6  17 400.798 284.883   3
   3   6  17 367.369 228.379  12
  -3   6  17 932.429 348.868   3
  -3   6  17 335.517 248.752  18
   3   6  17 177.936 265.537  20
  -3   6  17 380.152 329.976  11
  -6   3  17-166.329 292.000  11
   3  -6 -17 1027.25 579.616   2
  -3   6  17 968.516 551.606  10
  -3   6  17 1086.21 775.242  20
   6  -3 -18 1880.37 551.927   2
  -6  -3 -18 2441.24 691.489   6
   3  -6 -18 1838.33 571.385  16
  -3  -6 -18 1934.22 623.059  16
  -6  -3 -18 2140.77 634.773  16
   6  -3 -18 1633.11 501.865  16
   3   6  18 1890.17 793.915  15
  -3   6  18 1419.33 385.951   3
   3   6  18 735.641 311.059  13
  -3  -6 -18 1806.54 596.439   6
  -3   6  18 1011.64 407.021  13
   3   6  18 882.469 338.794   3
   3   6  18 1000.51 337.962  12
   3   6  18 1420.07 504.274   9
  -6   3  18 918.021 360.867  18
  -3   6  18 1796.34 544.524  11
  -3   6  18 2244.68 735.739   9
  -6   3  18 691.810 324.225  11
   3   6  18 1263.35 548.183  20
   3   6  18 973.895 383.566  10
  -3   6  18 1760.31 688.379  10
  -3   6  18 1821.83 780.974  20
  -6  -3 -18 2366.02 549.686   8
   3  -6 -18 1853.16 593.040   2
  -3   6  18 2091.30 475.395  18
   3   6  18 1747.41 758.507   7
   3  -6 -18 2013.37 520.875  17
   6  -3 -18 1994.16 526.694  17
  -6  -4  -1 201.249 94.0428   8
  -6  -4  -1 245.483 159.611  14
   6   4   1 589.689 201.998  19
  -6  -4  -2 18.4904 142.275   1
  -6  -4  -2 59.0671 55.1178   8
   6   4   2 78.6312 59.4057  19
  -6  -4  -2 1.34234 49.0948  14
  -6  -4  -2-9.85473 145.014   6
   6   4   2 37.4670 100.256  12
  -6   4   2 66.8326 202.762   1
  -6  -4  -3 800.818 246.516   8
   6   4   3 853.127 240.143   4
  -6   4   3 720.009 293.293  18
   6   4   3 1094.49 259.234  19
   6   4   3 1115.18 304.592  12
  -6  -4  -3 730.067 257.943   6
   6   4   3 876.880 214.188   5
  -6  -4  -3 779.955 229.479   1
  -6   4   3 560.732 256.042   1
  -6  -4  -3 789.292 240.470  14
  -6  -4  -4 55.8603 61.6841   8
   6   4   4-5.02083 76.1068   4
  -6  -4  -4 69.9946 69.3978   1
   6   4   4 67.1892 102.245   3
  -6   4   4-1.80260 142.080   1
  -6   4   4 55.1502 101.309  13
  -6  -4  -4 43.9645 34.7544   6
  -6   4   4 11.7470 53.7039   8
   6   4   4 116.719 90.3365  12
   6   4   4 77.8801 42.3001  19
  -6   4   4 57.6747 85.4522  18
   6  -4  -4 84.0940 189.724  17
  -6  -4  -4 72.8252 93.1195  14
   6   4   4 73.4144 75.7532   5
  -6  -4  -5 639.168 201.905   8
   6   4   5 717.898 206.433   4
  -6  -4  -5 729.948 212.801  14
  -6   4   5 849.781 293.708  18
  -6   4   5 902.930 288.022  13
   6   4   5 768.539 293.010   3
  -6  -4  -5 697.497 231.893   6
   6   4   5 844.643 241.835  12
   6   4   5 738.535 197.092   5
  -6  -4  -5 772.221 194.972   1
   6   4   5 813.560 225.216  19
   6  -4  -5 245.185 90.1907  17
  -6   4   5 672.353 231.509   8
  -6   4   5 904.802 388.267   1
  -6  -4  -6 1318.81 317.764   6
   6   4   6 1281.08 356.790   3
  -6  -4  -6 1289.77 286.140  14
  -6  -4  -6 1138.82 277.615   8
  -6   4   6 1431.80 322.823  13
  -4   6   6 1004.06 325.032  13
   6  -4  -6 615.060 266.263  17
  -4  -6  -6 353.002 185.946   6
   6   4   6 1238.05 290.610  12
   6   4   6 1287.73 247.669   5
   4   6   6 1504.11 347.201  12
  -6  -4  -6 1254.49 228.765   1
   6  -4  -6 477.557 180.485   2
   4   6   6 1510.55 424.591   3
   6   4   6 1326.28 282.010  19
   6   4   6 1253.38 278.726   4
  -6   4   6 1562.94 386.005  18
  -6   4   6 1284.82 446.560   1
  -6   4   7 1184.63 438.755   1
   4   6   7 1484.67 406.465   3
  -6  -4  -7 1141.36 303.101   6
  -6  -4  -7 1101.24 258.595  14
  -4   6   7 704.940 274.364  18
   6   4   7 1118.48 310.634   3
  -6   4   7 1023.79 255.698  13
  -4   6   7 1256.85 387.488  13
  -4  -6  -7 408.697 189.386   6
   6   4   7 971.104 217.096   5
   6   4   7 906.448 255.924  12
   4   6   7 1241.81 304.498  12
  -6   4   7 1289.25 343.954  18
   6   4   7 1118.40 254.907  19
  -6  -4  -7 972.138 195.628   1
   6   4   7 1082.83 258.553   4
   6  -4  -7 583.416 235.471   2
   6  -4  -7 542.837 178.824  19
  -6  -4  -7 936.039 251.748   8
   6  -4  -7 453.750 216.891  17
   6   4   8 1069.80 307.431   3
  -4  -6  -8 186.820 202.515   8
  -6  -4  -8 907.622 221.931  16
  -6   4   8 1712.58 361.094  13
   6  -4  -8 817.917 272.301   2
  -6   4   8 1466.23 514.724   1
  -6   4   8 2199.83 413.495   3
  -6  -4  -8 1158.95 273.787   8
   4   6   8 1374.18 390.220   3
  -6  -4  -8 1045.33 246.517  14
  -4   6   8 791.334 292.323  18
  -4   6   8 1593.95 425.792  13
   6   4   8 1108.46 287.392   4
  -4  -6  -8 790.071 322.454  14
  -6   4   8 1423.01 396.475  18
   6   4   8-71.7756 341.482  13
  -4  -6  -8 625.406 254.529   6
   4  -6  -8 162.227 43.8677   6
   6   4   8 1035.87 245.555   5
   6   4   8 1020.62 312.149  12
   4   6   8 1271.05 297.027  12
   6  -4  -8 274.838 214.623   5
  -6  -4  -8 1248.38 219.090   1
   6   4   8 1217.28 266.450  19
   6  -4  -8 836.946 186.706  19
  -6  -4  -8 1209.31 310.127   6
   6  -4  -8 1018.22 343.082  17
   4  -6  -8-559.545 298.033  17
   6  -4  -9 1117.15 343.121   2
  -6  -4  -9 2044.00 552.368  16
   6  -4  -9 877.734 253.474  16
  -4   6   9 1547.33 358.866   3
  -6  -4  -9 1777.14 386.509   6
   4   6   9 254.050 228.330  13
  -6   4   9 1566.56 269.939   3
   4   6   9 1516.35 391.599   3
  -6   4   9 1445.48 457.869   1
   6   4   9 1206.44 320.760   3
  -4  -6  -9 955.445 309.367   8
  -6  -4  -9 1458.41 294.291  14
  -4  -6  -9 1310.47 329.667  14
   6   4   9 1210.74 312.285   4
  -4   6   9 1660.19 418.462  13
  -6   4   9 1202.58 286.565  13
  -4  -6  -9 954.233 305.266   6
   4  -6  -9 442.617 174.534   6
   6   4   9 301.087 213.898  13
   6   4   9 1442.68 293.758  19
   6   4   9 1277.41 278.244   5
   6   4   9 1231.58 300.313  12
  -6  -4  -9 1519.69 279.207   1
   4   6   9 1655.65 341.503  12
   6  -4  -9 766.937 316.750   5
  -6   4   9 2251.25 507.581  11
  -4   6   9 1486.26 403.785  18
  -6   4   9 2238.85 565.252  20
   6  -4  -9 1219.09 247.359  19
   6  -4  -9 1059.25 344.227  17
   4   6   9 1661.25 300.157   4
  -6   4   9 1489.58 369.736  18
  -6  -4  -9 1443.15 304.336   8
   4  -6  -9 57.7966 104.266  17
  -6  -4 -10 48.5562 69.7969   8
   6  -4 -10-27.6486 112.806  17
  -6  -4 -10 210.892 148.509  16
  -4  -6 -10-29.7762 68.3880   8
   4   6  10 80.2541 43.3226   4
   6  -4 -10 74.2605 82.3237  16
  -6   4  10-79.4079 134.122   1
  -4   6  10 140.258 79.5059   3
  -6  -4 -10 91.2170 118.393   6
   4   6  10 127.789 144.591   3
  -6   4  10 108.996 75.0960   3
   4  -6 -10 59.5660 39.6386   6
  -4  -6 -10-29.4483 50.2608   6
  -4  -6 -10 107.773 94.5520  14
   4   6  10 180.959 281.060  13
   6   4  10-20.8733 53.0087  13
   6   4  10 122.614 91.5025   3
  -6   4  10 143.451 115.401  13
  -4   6  10 127.303 85.1292  13
  -6   4  10 87.3713 112.621  18
   6   4  10 122.393 109.546  12
   4   6  10 89.9114 96.2932  12
   6   4  10 6.21930 83.3785   5
  -6   4  10 202.256 159.463  11
   4  -6 -10 139.450 186.065  17
   6   4  10-15.5693 49.5843  19
  -6   4  10-12.9074 119.584  20
   6  -4 -10-22.4661 53.5208  19
  -4   6  10 264.450 195.909  18
   6  -4 -10-2.60670 44.1757   2
   6  -4 -10-45.6314 159.898   5
   6   4  10 50.8983 25.4850   4
  -6  -4 -10 99.5271 95.3901  14
   6   4  11 1306.75 294.761  19
   6  -4 -11 1657.92 362.630  16
  -6  -4 -11 2794.35 630.900  16
   6   4  11 825.943 343.166  13
   4  -6 -11 655.212 357.328  17
  -6  -4 -11 2130.58 446.965   6
  -4  -6 -11 1472.33 374.380   6
  -4   6  11 2021.43 376.768   3
  -4  -6 -11 1647.42 388.338   8
   4   6  11 1754.01 415.705   3
  -6   4  11 1899.20 292.482   3
  -6  -4 -11 2046.27 389.245   8
  -6  -4 -11 2234.53 387.682  14
  -4  -6 -11 1729.42 313.007  14
  -4  -6 -11 1489.06 460.998  16
  -6   4  11 1615.08 473.578   1
  -4   6  11 1985.25 434.227  13
  -6   4  11 1744.39 374.142  13
   4   6  11 1839.83 607.063  13
   6   4  11 1127.31 334.776   3
   6   4  11 1156.12 321.700  12
   4   6  11 1837.80 364.102  12
   6   4  11 1910.19 478.877   4
   6  -4 -11 1542.42 447.195   5
   6  -4 -11 1611.51 433.257   2
  -6   4  11 2415.23 545.519  11
   4  -6 -11 639.500 226.567   2
   6   4  11 1593.72 345.396  10
  -6   4  11 2349.20 590.185  10
   6   4  11 1557.43 413.095  20
  -6   4  11 2475.52 711.431  20
  -4   6  11 1906.23 448.248  18
   4   6  11 2179.95 368.401   4
   4  -6 -11 777.990 206.207   6
  -6   4  11 2198.11 453.514  18
   6  -4 -11 1566.32 436.880  17
   6  -4 -12 510.808 227.849  17
   6   4  12 703.121 242.994   9
  -4  -6 -12 502.436 238.553  16
   6  -4 -12 573.446 218.582  16
  -6  -4 -12 1202.85 395.758  16
   6   4  12 591.518 309.548   7
   6   4  12 679.768 338.904  15
  -4  -6 -12 729.590 207.103  14
   4  -6 -12 121.709 36.2718  16
   6   4  12 439.633 185.482  19
  -4   6  12 608.130 246.883  13
  -6  -4 -12 757.129 278.578   6
  -6  -4 -12 889.225 268.700  14
  -6   4  12 667.012 383.753  10
  -4  -6 -12 766.395 268.607   6
   4   6  12 804.586 284.475   3
  -6   4  12 485.865 273.734   1
   4   6  12 702.655 338.983  13
  -6   4  12 613.056 170.215   3
   6   4  12 277.327 159.679  13
  -6   4  12 770.622 264.088  13
   6   4  12 392.147 205.245   3
   6   4  12 474.489 208.819  12
   4   6  12 583.686 204.466  12
   6  -4 -12 469.736 284.631   5
  -6   4  12 717.212 310.426  11
  -4   6  12-137.279 304.880   1
   4  -6 -12 564.221 287.381   2
   4  -6 -12 417.581 226.477  17
  -4  -6 -12 817.633 259.169   8
   6   4  12 500.225 235.307  10
  -6   4  12 482.106 284.536  20
  -6  -4 -12 565.301 200.926   8
   6   4  12 590.379 283.862  20
  -4   6  12 894.145 309.665  18
  -4   6  12 665.516 217.148   3
   6   4  12 420.197 236.265   4
   6  -4 -12 913.067 342.757   2
  -6   4  12 693.263 235.125  18
   4   6  12 792.075 263.203  19
   4   6  12 859.617 247.314   4
   6  -4 -13 377.027 241.435  17
  -4  -6 -13 315.372 165.252   8
   6  -4 -13 365.740 182.902  16
  -6  -4 -13 539.459 260.894  16
   6   4  13 276.963 288.529   7
   6   4  13 330.377 223.377  15
   4  -6 -13 178.355 114.784  17
  -6  -4 -13 405.822 217.076   6
  -6   4  13 74.5151 302.338  20
  -4  -6 -13 270.544 122.510  14
  -4  -6 -13 379.256 232.306   6
  -4   6  13 396.975 182.245   3
   4   6  13 212.492 104.228   3
   6  -4 -13 393.965 215.909   2
  -6   4  13 341.315 249.127   1
   4   6  13 519.483 325.230  13
  -4   6  13 468.884 233.406  13
   6   4  13 247.490 210.490  13
  -6   4  13 379.546 145.277   3
  -6  -4 -13 438.444 207.677  14
   6   4  13 230.415 180.177  12
   6   4  13 208.875 161.667   3
   4   6  13 252.759 130.059  12
   6  -4 -13 492.670 288.060   5
  -4  -6 -13 395.154 248.370  16
  -6   4  13 492.758 259.558  11
  -4   6  13-116.788 242.656   1
   6   4  13 145.977 106.914   9
   6   4  13 182.069 138.450  20
   6   4  13 233.223 177.623  10
  -6   4  13 455.531 332.868  10
   4  -6 -13 199.571 158.696   2
  -6   4  13 673.322 436.364   9
   6   4  13 230.093 93.2657  19
  -4   6  13 311.785 164.556  18
   4  -6 -13 293.696 195.436  16
  -6   4  13 281.892 170.454  18
   6   4  13 36.4333 170.085   4
  -6  -4 -13 463.251 191.172   8
   6  -4 -14 588.982 296.843  17
  -4  -6 -14 853.073 259.895   8
   6   4  14 442.904 183.153  19
   4  -6 -14 598.579 265.269  16
  -4  -6 -14 692.550 378.243  16
  -6  -4 -14 815.845 361.318  16
   6  -4 -14 747.408 278.751  16
   6   4  14 425.174 316.181  15
  -6  -4 -14 791.982 309.080   6
  -6  -4 -14 731.465 286.745  14
   4   6  14 471.289 264.001  13
  -4  -6 -14 804.450 329.608   6
  -4   6  14 608.131 232.800  18
  -4   6  14 869.786 265.927   3
   4   6  14 450.382 204.997   3
   6   4  14 471.468 289.721  13
  -6   4  14 526.745 291.434   1
  -6   4  14 709.529 230.595   3
   6   4  14 314.879 236.282  12
   6   4  14 317.819 205.696   3
   4   6  14 492.090 213.616  12
   6  -4 -14 954.743 408.207   5
  -4   6  14 1054.53 426.060  11
  -6   4  14 732.587 358.486  11
   4  -6 -14 226.666 141.540  17
   6   4  14 264.516 199.003  20
   6   4  14 385.713 172.310  10
  -6   4  14 681.664 390.154  10
  -6   4  14 556.852 336.748   9
   6   4  14 281.177 116.615   9
   6   4  14 398.465 231.605   7
  -4   6  14 536.021 210.100  13
   4  -6 -14 433.132 224.974   2
  -6   4  14 619.207 274.751  18
   6  -4 -14 832.877 342.487   2
  -6  -4 -14 944.574 299.550   8
   6   4  15 411.453 178.431  19
   6  -4 -15 957.437 346.992  17
   4   6  15 609.358 332.709  20
  -4  -6 -15 747.850 359.882  16
  -6  -4 -15 1073.65 425.049  16
   6  -4 -15 804.725 315.800  16
   6   4  15 360.180 232.466  15
  -6   4  15 1035.09 279.617   3
   4  -6 -15 695.440 325.759  17
   6   4  15 426.353 296.176   7
  -6  -4 -15 1052.57 379.880   6
  -6  -4 -15 1176.22 392.565  14
  -6  -4 -15 991.872 313.872   8
   6   4  15 225.581 138.215  20
  -6   4  15 691.019 291.741  18
  -4   6  15 799.637 257.722   3
   4   6  15 456.220 230.755   3
   4   6  15 590.853 263.687  13
  -4   6  15 573.259 231.900  13
   6   4  15 374.373 250.781  13
   4   6  15 590.834 237.973  12
  -6   4  15 693.034 341.439   1
  -4   6  15 985.123 365.691  11
  -6   4  15 719.448 331.988  11
   6   4  15 223.859 78.6490   9
  -4   6  15 1052.20 568.113  20
   6   4  15 425.742 229.208  10
  -6   4  15 565.613 363.078  10
   4  -6 -15 881.976 384.708   2
   4  -6 -15 557.070 292.167  16
  -6   4  15 679.746 404.507   9
  -4  -6 -15 760.771 347.349   6
  -4  -6 -15 1025.19 306.930   8
  -4   6  15 751.373 287.898  18
   6  -4 -15 892.728 358.746   2
  -6   4  16 815.684 655.487   9
   6  -4 -16 328.284 355.564  17
   4  -6 -16-41.3179 91.0274  16
  -4  -6 -16 4.01233 109.859  16
   6   4  16-34.8004 105.266  10
  -6  -4 -16-107.538 139.763  16
   6  -4 -16 419.984 331.847  16
   4   6  16 70.0447 311.360   7
   6   4  16-206.231 347.937  15
   4   6  16 261.272 310.941  15
  -6  -4 -16-87.7873 184.225   6
  -6   4  16 1197.17 894.788  10
  -4  -6 -16 34.2080 61.0300   6
  -4   6  16-69.6698 105.490  18
   4  -6 -16 27.3278 177.514  17
  -4   6  16-148.020 117.290   3
   4   6  16 100.644 130.789   3
   4   6  16-29.0255 220.347  13
  -4   6  16-244.338 232.201  13
   6   4  16-8.80150 178.323  13
   6   4  16-254.051 350.274   7
   4   6  16-81.5091 112.156  12
  -6   4  16 818.349 517.858   1
  -4   6  16-68.1397 123.455  11
  -6   4  16 924.900 456.563  11
   4   6  16 160.207 195.431  10
  -4   6  16-143.415 137.245  10
   4   6  16-46.9614 97.5693  20
  -4   6  16-61.3263 303.771  20
   6   4  16-156.313 324.330  20
  -6   4  16 407.012 325.377  18
   6  -4 -16 506.016 395.954   2
  -6  -4 -16 5.97178 61.9372   8
   4  -6 -16 98.3903 205.514   2
  -6   4  17 499.601 265.638  18
  -4  -6 -17 784.554 405.413  16
   4   6  17 433.975 384.303   7
  -6  -4 -17 734.675 378.803  16
   6  -4 -17 301.534 209.492  16
   6   4  17-3.96736 224.676  10
   4   6  17 727.040 485.525  15
  -6  -4 -17 601.427 307.662   6
  -6   4  17 106.035 214.536  10
  -4  -6 -17 579.648 337.249   6
  -4   6  17 584.181 261.416   3
   4   6  17 34.9208 75.8590   3
  -4   6  17 350.893 258.091  13
   4   6  17 287.860 159.820  12
  -6   4  17 326.185 315.422   1
   4   6  17 125.387 226.680  13
  -4   6  17 575.652 398.948  10
  -4   6  17 780.584 353.470  11
  -6   4  17 347.897 240.323  11
   4   6  17 317.699 260.924  20
  -6   4  17 101.269 124.866   9
   4  -6 -17 464.639 310.650   2
   4  -6 -17 751.178 340.125  16
   6  -4 -17 707.097 331.067  17
  -4   6  17 570.592 230.368  18
   4   6  17 709.244 358.734  10
   6  -4 -17 389.209 275.838   2
  -6  -4 -17 722.719 305.125   8
  -4   6  17 851.219 602.903  20
   4  -6 -17 535.764 338.710  17
  -6  -5  -3-48.7244 210.444   6
  -6  -5  -4 40.0059 103.061   8
   6   5   4 265.983 140.349  19
  -6  -5  -4 139.206 98.2659  14
  -6  -5  -4 22.5533 22.0156   6
   6   5   4 293.874 163.649  12
  -6   5   4 125.878 60.4489  18
   6   5   5 392.219 166.699   4
  -6  -5  -5 231.280 149.099   8
   6   5   5 249.503 196.895   3
  -6   5   5 346.456 159.754  18
  -6  -5  -5 268.790 162.512  14
  -6   5   5 105.293 149.036  13
  -6  -5  -5 196.747 138.241   6
   6   5   5 373.184 158.801  12
   5   6   5 211.343 72.1280  12
  -6   5   5 28.6727 265.091   1
  -6  -5  -5 120.284 88.8516   1
   6   5   5 436.415 191.280  19
  -5  -6  -5-89.1200 179.431   6
   6   5   5 171.331 80.5963   5
  -6  -5  -6 84.5529 51.1129   8
   6   5   6 23.4160 65.9728   5
   6   5   6 38.7486 33.8575   4
   5   6   6-27.3154 206.957   3
   6   5   6 170.156 160.840   3
  -6  -5  -6-34.7747 99.9213  14
  -5   6   6-189.910 320.247  13
  -6   5   6-17.5323 146.280  13
  -6  -5  -6 2.37527 63.6559   6
  -5  -6  -6-20.4369 108.448   6
   6   5   6 37.5898 63.1801  12
  -6   5   6-104.218 139.115   8
   5   6   6 56.3582 27.0055  12
   6  -5  -6 228.499 225.379  17
  -6  -5  -6 37.6119 56.1551   1
  -6   5   6-337.447 428.949   1
   6   5   6 91.8311 82.5649  19
  -5   6   6-141.866 182.164  18
  -6   5   6 28.6134 55.6305  18
  -6  -5  -7 637.936 224.716   8
  -5  -6  -7 593.023 293.816  14
   6   5   7 813.423 225.676  19
  -6  -5  -7 569.346 167.178   1
   5   6   7 873.222 349.612   3
   6   5   7 774.928 302.909   3
  -6  -5  -7 549.519 206.607  14
  -6  -5  -7 521.645 199.495   6
  -5  -6  -7 234.506 93.5908   8
  -5   6   7 751.091 305.896  13
  -6   5   7 713.091 256.391  13
  -5  -6  -7 335.150 191.301   6
   5   6   7 854.835 254.842  12
   6   5   7 784.199 207.403   5
   6   5   7 683.798 233.321  12
  -6   5   7 548.557 247.449  18
  -6   5   7 647.059 356.839   1
  -5   6   7 660.753 283.564  18
   6   5   7 722.796 223.405   4
   6  -5  -7 155.925 199.663  17
  -6   5   8 238.990 219.751   1
  -6  -5  -8 373.375 172.491   8
  -6  -5  -8 355.871 129.905   1
  -5  -6  -8 208.513 133.326   8
   5   6   8 386.146 146.970   4
   6   5   8 390.755 184.038   4
   5   6   8 385.519 230.249   3
   6   5   8 406.569 223.648   3
  -6  -5  -8 390.451 169.566  14
  -5  -6  -8 358.672 197.454  14
  -6  -5  -8 329.006 179.650   6
  -5  -6  -8 288.989 207.114   6
  -5   6   8 348.220 208.076  13
  -6   5   8 285.129 157.880  13
   6   5   8 265.020 132.316  12
   5   6   8 364.588 174.391  12
   6  -5  -8-9.22176 168.832   2
  -6   5   8 354.238 189.327  18
   6   5   8 416.337 145.681   5
   6   5   8 347.284 137.678  19
  -5   6   8 482.812 253.696  18
   6  -5  -8 262.298 230.429  17
   5  -6  -8-191.449 176.076  17
  -6   5   9 371.318 195.218  18
   6   5   9 311.601 130.279   4
  -5  -6  -9 309.080 181.692   8
   5   6   9 427.696 172.145   4
   5  -6  -9 1.50731 110.703  17
  -6   5   9 169.465 57.5043   3
   5   6   9 269.082 173.327   3
   6   5   9 141.579 15.0300  12
  -6  -5  -9 312.390 136.125  14
  -5  -6  -9 249.547 143.074  14
  -5  -6  -9 134.116 131.810   6
   6   5   9-323.810 306.621  13
  -6  -5  -9 263.414 151.274   8
  -5   6   9 450.232 221.571  13
  -6   5   9 332.732 171.717  13
   5   6   9 271.978 152.297  12
   6   5   9 283.282 120.323   5
   6  -5  -9 29.4455 116.673   2
   6  -5  -9 147.121 99.3332  19
  -6  -5  -9 221.716 108.511   1
   6   5   9 347.310 160.492  19
  -6  -5  -9 319.333 178.257   6
  -5   6   9 319.283 189.884  18
  -6  -5  -9-131.854 382.823  16
   5   6   9 405.668 147.917   5
   6   5   9 146.642 129.753   3
   5   6   9 345.513 74.8735  19
  -6   5   9 142.490 180.506   1
   6  -5  -9 74.4985 74.6240  17
   6   5  10 254.854 148.558   4
  -6  -5 -10 248.807 141.535   8
   5  -6 -10 93.8449 200.140  17
  -5  -6 -10 242.057 167.196   8
   5   6  10 313.951 150.627   4
  -6  -5 -10 146.638 147.320  16
  -5   6  10 164.347 100.274   3
   6   5  10 250.925 132.521  19
   6  -5 -10 135.034 167.030   2
  -6   5  10 316.493 146.600   3
  -6  -5 -10 295.117 146.866  14
   5   6  10 279.711 208.881   3
  -6  -5 -10 270.406 154.994   6
  -5  -6 -10 262.327 163.173  14
  -5  -6 -10 88.6975 92.1145   6
   6   5  10 139.796 117.247   3
   5   6  10-28.1859 228.454  13
   6   5  10 25.1270 130.493  13
  -5   6  10 283.002 167.636  13
  -6   5  10 424.650 229.684  18
  -6   5  10 328.286 179.723  13
  -6   5  10 431.656 344.844   1
   6   5  10 128.721 92.7736  12
   5   6  10 268.659 153.063  12
   5  -6 -10-185.790 214.251   2
  -5   6  10-149.020 361.803   1
   6  -5 -10 147.742 159.562  17
   5   6  10 369.079 176.296  19
  -5   6  10 220.870 135.194  18
  -5   6  11 385.977 206.228  18
   6  -5 -11 199.038 62.0091   2
   5   6  11 411.515 170.748   4
  -5  -6 -11 324.253 176.276   8
  -6   5  11 275.896 126.416   1
  -5  -6 -11 186.728 340.391  16
   6  -5 -11 65.1606 85.6881  16
  -6  -5 -11 523.694 272.765  16
  -5   6  11 283.336 137.238   3
   5   6  11 527.600 215.140  19
  -6   5  11 340.009 139.384   3
  -6  -5 -11 388.218 149.887  14
  -6  -5 -11 381.244 186.549   6
  -5  -6 -11 487.716 223.265   6
   6   5  11 253.375 185.761   3
   6   5  11 91.3748 180.957  13
  -5   6  11 351.695 186.869  13
  -6   5  11 347.656 171.697  13
   6   5  11 267.774 165.772  12
   5  -6 -11 254.815 159.752  17
   5   6  11 470.505 201.015  12
   5   6  11 72.6989 175.713  13
  -6  -5 -11 308.595 162.931   8
  -6   5  11 537.531 299.842  11
   5  -6 -11-10.2540 176.512   2
  -5   6  11-44.0024 228.734   1
   6   5  11 321.578 167.874  19
   6   5  11 221.423 155.402   4
  -5  -6 -11 359.868 158.750  14
   5   6  11 332.803 209.407   3
  -6   5  11 355.801 179.186  18
   6  -5 -11 360.911 219.945  17
   5  -6 -12-130.476 200.871  16
  -5  -6 -12-29.4876 218.733  16
  -6   5  12 137.815 211.147   1
  -6  -5 -12 130.775 174.033  16
   6   5  12 93.4711 120.029   3
   6   5  12-21.1275 171.078  13
  -6   5  12 127.606 107.493  18
   5   6  12 163.456 105.764  19
  -5   6  12 102.107 77.4518   3
  -6  -5 -12-52.8689 133.578   6
  -5  -6 -12 85.9433 72.5995  14
  -5  -6 -12 127.942 65.6837   6
  -6   5  12 129.277 80.9230   3
  -5   6  12 174.830 119.157  18
  -5   6  12 60.5340 214.733   1
   5   6  12 24.9114 75.0293   3
   5  -6 -12 66.7908 114.916  17
   5   6  12 476.572 349.520  13
  -5   6  12 312.336 187.849  13
  -6   5  12 100.747 87.5658  13
   6   5  12 66.1828 39.6452  12
   6  -5 -12 4.83192 86.3926  17
   5   6  12 58.3361 106.100  12
   6  -5 -12 19.1286 59.7259   2
  -6   5  12 99.1333 100.966  11
   5   6  12 95.3142 48.1447   4
  -6   5  12 320.750 240.466  20
   5  -6 -12 188.415 192.768   2
   6  -5 -12 66.4685 61.1585  16
   6   5  12 75.2158 67.3271  19
  -6  -5 -12 111.674 81.9462  14
  -6  -5 -12 67.5772 51.7246   8
  -5  -6 -12 54.4448 50.5848   8
   6   5  12 121.048 56.0983   4
   6  -5 -13 585.740 291.888  17
  -5  -6 -13 543.490 223.129   8
   5  -6 -13 455.235 252.281  17
  -6   5  13 872.368 290.320  18
  -5  -6 -13 798.513 351.749  16
  -6  -5 -13 865.763 362.520  16
  -6   5  13 648.727 396.663   1
   5  -6 -13 238.903 176.348  16
  -6  -5 -13 713.493 246.893   8
  -6  -5 -13 669.872 296.457   6
  -6  -5 -13 898.494 270.167  14
  -5  -6 -13 684.162 202.022  14
   5   6  13 343.847 195.611   3
  -5  -6 -13 496.576 229.916   6
  -5   6  13 668.134 213.173   3
  -6   5  13 657.437 214.387   3
   5   6  13 405.195 362.720  13
   6   5  13 418.879 203.487  13
   6   5  13 440.623 253.995   3
  -5   6  13 667.403 268.224  13
  -6   5  13 534.666 219.421  13
   6   5  13 345.600 172.228  12
   5   6  13 630.115 241.393  12
  -6   5  13 662.099 284.622  11
  -6   5  13 847.832 421.651  10
   6   5  13 494.792 280.760  20
  -6   5  13 1174.50 597.884  20
   6   5  13 717.878 336.301   4
   6   5  13 644.566 226.448  19
   5   6  13 865.751 288.725  19
   6  -5 -13 536.275 297.292   2
  -5   6  13 235.157 159.116   1
  -5   6  13 761.414 291.670  18
   5   6  13 787.456 269.002   4
   6  -5 -13 531.297 235.468  16
   5  -6 -13 388.922 213.187   2
   6   5  14-153.602 252.399   4
   6  -5 -14 64.1391 50.8476  17
  -5  -6 -14-10.6525 68.1272   8
  -6   5  14 76.7603 205.732   1
   6   5  14 94.5174 81.8248  20
   5  -6 -14-43.2952 111.482  16
   6  -5 -14-62.0527 84.1360  16
   6   5  14 121.363 200.600   7
  -6  -5 -14 132.406 126.313   6
  -6  -5 -14 54.8991 50.2227  14
  -5  -6 -14-122.307 157.444   6
  -6  -5 -14 17.3086 130.664  16
  -5   6  14 103.908 101.915   3
  -6   5  14 46.7900 22.4865   3
   5   6  14 99.7256 150.762   3
   5   6  14 59.8428 104.696  13
   6   5  14-159.460 59.8685  13
  -5   6  14-1.29532 72.7900  13
   6   5  14-10.7970 38.2520   3
  -6   5  14 165.909 152.491  13
   6   5  14-85.5587 100.165  12
   5   6  14-59.2813 124.210  12
  -5   6  14 226.602 231.532  11
   6   5  14 65.2411 165.296  15
  -6   5  14 72.3452 48.2238  11
  -5   6  14 12.6024 140.920  20
   6   5  14-30.1900 91.0249  10
  -5   6  14 44.5623 190.956   1
  -6   5  14 29.0672 205.379  10
  -6   5  14 124.197 124.783  20
  -5  -6 -14 23.5530 135.131  16
   6   5  14-23.9825 61.9742  19
   6  -5 -14-22.5960 125.699   2
  -5   6  14-37.5725 130.066  18
  -6   5  14 5.47273 56.3122  18
   5  -6 -14-246.953 227.395   2
  -6  -5 -14-5.16515 68.2601   8
   5  -6 -14-97.9806 144.885  17
   5   6  15 366.908 228.823   3
  -5  -6 -15 427.674 209.352   8
   6  -5 -15 208.107 267.748  17
  -5  -6 -15 224.371 135.447  16
   6  -5 -15 463.460 243.658  16
  -6  -5 -15 461.529 297.802  16
   6   5  15 145.185 239.881   7
   6   5  15 239.171 270.800  15
   5   6  15 367.901 382.245  15
  -6   5  15 251.720 215.953   1
  -5  -6 -15 370.659 224.766   6
  -6  -5 -15 297.112 121.017   6
  -5   6  15 475.940 427.322  20
  -6   5  15 385.074 178.232   3
  -5   6  15 395.729 206.467   3
   5   6  15 187.315 52.9460  13
   6   5  15 70.7235 102.634  13
  -6   5  15 419.428 278.289  18
  -5   6  15 242.911 157.373  13
  -6   5  15 510.127 283.522  13
   6   5  15 57.3214 94.0765   3
   6   5  15 41.0277 69.2612  12
   5   6  15 176.494 122.346  12
  -5   6  15 372.683 216.178  11
  -6   5  15 487.157 320.765  11
   5   6  15 277.719 224.474  20
   6   5  15 431.720 291.908  20
   6   5  15 370.647 202.880  10
  -6   5  15 549.475 447.033  10
  -6   5  15-116.341 445.398  20
   6   5  15 288.590 202.532   9
  -6   5  15 515.562 333.648   9
   6  -5 -15 497.209 307.063   2
   5  -6 -15 269.759 257.903  17
   5  -6 -15 31.0218 79.9530   2
  -5   6  15 313.112 194.900  18
   5  -6 -15 494.021 282.146  16
  -6  -5 -15 441.664 199.163   8
  -6  -5 -16 223.551 164.728   8
   5  -6 -16 920.933 534.148  17
  -5  -6 -16 257.449 168.950   8
   6   5  16 270.268 230.075   9
   5  -6 -16 802.973 408.773  16
  -5  -6 -16 157.322 135.817  16
   6   5  16 191.199 284.949   7
  -6  -5 -16 357.424 333.724  16
   5   6  16 227.537 366.574   7
   6   5  16 152.445 197.034  15
   5   6  16 500.387 362.199  15
  -6   5  16 1293.23 940.378   1
  -6   5  16 321.520 299.642  18
  -6  -5 -16 355.199 278.086   6
  -5  -6 -16 107.169 104.847   6
   5   6  16 291.066 239.901   3
   5   6  16 587.271 381.494  13
   6   5  16 110.272 236.919  13
  -5   6  16 124.434 232.587  13
  -6   5  16 210.763 351.574  13
   6   5  16 44.6242 27.3789   3
   6   5  16-17.3630 92.8339  12
   5   6  16 59.6043 144.863  12
   6  -5 -16 1813.87 735.663   2
  -5   6  16 66.0351 134.914  11
   6  -5 -16 1284.24 596.276  16
  -6   5  16 387.280 453.525  11
  -5   6  16 995.920 594.796  10
   5   6  16 222.141 294.221  20
  -5   6  16 155.139 406.814  20
   6   5  16 128.424 205.710  20
  -6   5  16 2288.09 959.237  10
  -6   5  16 223.511 648.184  20
   6   5  16 84.8106 72.1623  10
   5  -6 -16 1025.93 530.310   2
  -5   6  16 716.874 384.306   3
  -6   5  16 2427.78 1012.36   9
  -5   6  16 586.555 359.211  18
   5   6  16 216.854 176.984  10
   6  -5 -16 1364.29 715.904  17
   6   5  17 224.036 271.647  20
   5  -6 -17 283.151 207.560  17
   5   6  17 129.967 233.047  15
   5  -6 -17 186.695 174.684  16
  -5  -6 -17-94.7165 45.5282  16
   6  -5 -17 47.8384 148.905  16
  -6  -5 -17 2.46676 176.464  16
   5   6  17 124.467 228.542   7
   6   5  17 131.928 305.909  15
   6  -5 -17-62.1219 112.801   2
   5   6  17 311.107 247.481  20
  -6  -5 -17 6.40506 56.8923   6
  -5  -6 -17-18.6424 118.257   6
   6   5  17 21.9321 303.581   7
   5   6  17 128.092 177.115   9
  -5   6  17 125.494 113.478   3
   5  -6 -17 159.626 261.518   2
   5   6  17 72.0627 242.804  13
   5   6  17 31.7476 18.3829   3
   6   5  17 52.3226 201.894  13
  -5   6  17 253.813 212.082  13
  -6   5  17 289.350 238.159  13
   6   5  17 139.466 210.541   3
   6   5  17-28.3549 109.509  12
  -6  -5 -17-79.2289 124.041   8
   5   6  17 51.4934 51.5329  12
  -5   6  17 159.224 192.973  11
  -6   5  17 232.709 226.851  11
   5   6  17 299.884 248.516  10
  -5   6  17 182.032 347.824  10
  -5   6  17 91.1511 252.930  20
   6   5  17 265.793 201.802  10
  -6   5  17 62.0473 419.887  10
  -5   6  17 140.051 292.116   9
   6  -5 -17 186.630 164.931  17
   6   5  17-27.3430 159.633   9
  -5   6  17 14.3193 91.8758  18
  -6   5  17 251.497 326.968   9
  -6   5  17 193.772 175.540  18
  -6  -6  -5 84.2153 144.759   6
   6   6   5-108.328 168.058  12
  -6   6   5-129.734 171.556  18
  -6  -6  -6 103.259 125.778   8
  -6   6   6 533.898 283.064  18
   6   6   6 390.053 251.129   3
  -6  -6  -6 372.838 235.880  14
  -6   6   6 175.817 118.035  13
  -6  -6  -6 268.757 186.839   6
   6   6   6 762.298 262.880  12
  -6  -6  -7-21.1824 28.6274   8
   6   6   7-21.2543 106.042   4
   6   6   7 57.3287 99.6828   3
  -6  -6  -7 25.4062 33.1303  14
  -6   6   7 54.3269 105.552  13
  -6  -6  -7-13.3044 86.7894   6
  -6   6   7 3.41988 32.3335  18
   6   6   7-3.21599 50.1600  12
   6   6   7-128.214 174.325   5
   6   6   7-90.4050 161.342  19
   6  -6  -7 33.3638 115.523  17
  -6   6   8 229.385 185.734  18
   6   6   8 244.076 149.893   4
   6  -6  -8-112.942 193.809  17
  -6  -6  -8 156.935 121.470   8
   6   6   8 201.656 136.521   3
  -6  -6  -8 151.958 115.239  14
  -6  -6  -8 163.422 144.415   6
  -6   6   8 262.371 180.341  13
   6   6   8 300.033 135.831   5
   6   6   8 372.405 179.884  12
  -6  -6  -8 141.216 77.8804   1
  -6   6   8-214.249 386.998   1
   6   6   8 269.220 120.840  19
   6   6   9 18.6634 35.4502   4
   6   6   9 20.3849 25.6559   3
  -6  -6  -9-26.6835 95.7164  14
  -6  -6  -9-18.8749 75.1279   6
  -6   6   9 26.0145 58.9166  13
   6   6   9-119.399 99.6950  12
  -6   6   9-166.617 236.339   1
   6   6   9-29.7091 13.1046   5
   6   6   9-49.7551 86.1973  19
  -6  -6  -9 18.3703 72.2022   8
   6  -6  -9-91.5988 163.255  17
  -6   6   9 23.4390 105.260  18
  -6  -6 -10 31.3522 67.6866   8
   6   6  10 48.1272 68.3331   3
  -6  -6 -10 52.0706 95.7464  14
  -6  -6 -10-21.0007 67.4053   6
  -6   6  10-274.038 285.324   1
  -6   6  10 65.4807 72.7920  13
   6   6  10 57.0188 62.3154  12
   6  -6 -10-343.935 304.463   2
   6   6  10-8.97670 48.2308  19
   6   6  10 61.0781 115.989   4
  -6   6  10-113.627 149.262  18
   6  -6 -10-34.8359 130.678  17
   6   6  11 112.960 123.434   4
  -6  -6 -11 20.9284 58.3882   8
  -6   6  11-46.3350 59.5277   3
   6   6  11 81.2259 148.627   3
  -6  -6 -11 13.2476 57.0106  14
  -6  -6 -11 30.3424 70.0303   6
   6   6  11-198.554 291.293  13
  -6   6  11 13.7012 54.1339  13
   6   6  11 99.7438 101.700  12
   6   6  11 50.3706 97.8155  19
  -6   6  11 76.2195 45.5121   1
   6  -6 -11-197.481 218.501   2
  -6   6  11 1.40342 76.7714  18
   6  -6 -11-66.1320 71.4906  17
   6  -6 -12 271.512 187.873  17
  -6  -6 -12 419.211 120.686  16
  -6   6  12 712.016 241.496   3
  -6   6  12 425.105 298.115   1
  -6  -6 -12 470.583 164.767  14
  -6  -6 -12 552.995 239.728   6
  -6  -6 -12 396.854 193.396   8
   6   6  12 368.403 247.151   3
   6   6  12 131.031 190.323  13
  -6   6  12 506.560 239.306  13
   6   6  12 386.113 195.164  12
  -6   6  12 542.137 251.769  18
   6  -6 -12 145.291 88.1625   2
   6   6  12 744.870 259.742  19
   6   6  12 495.253 220.720   4
   6  -6 -13 104.403 147.639  17
  -6  -6 -13-10.3790 64.2693   8
  -6   6  13 293.410 351.947  20
   6  -6 -13-164.945 243.523  16
  -6  -6 -13-291.727 319.179  16
  -6   6  13-9.93733 43.5350   3
  -6  -6 -13-8.19149 52.6694  14
  -6  -6 -13-39.5802 95.5776   6
  -6   6  13-8.21326 94.2026  18
   6   6  13-22.4817 18.5143   3
   6   6  13 103.025 268.100  13
  -6   6  13 31.9876 37.4802  13
   6   6  13-62.1210 103.006  12
  -6   6  13-21.8484 96.3501  11
   6  -6 -13-11.4986 49.9816   2
   6   6  13 10.4736 27.3985  19
  -6   6  13-113.649 176.614   1
   6   6  13-190.656 178.866   4
  -6  -6 -14 322.740 180.614   8
  -6  -6 -14 494.420 431.632  16
   6  -6 -14 272.197 134.655  16
  -6  -6 -14 470.631 195.566  14
  -6  -6 -14 374.380 226.224   6
  -6   6  14 520.720 174.806   3
   6   6  14 305.647 186.976   3
   6   6  14 171.646 189.234  13
  -6   6  14 432.993 242.700  13
  -6   6  14 242.520 265.728   1
   6   6  14 301.981 164.141  12
  -6   6  14 510.813 278.836  11
  -6   6  14 996.937 539.966  20
   6  -6 -14 558.627 347.350  17
  -6   6  14 420.414 237.605  18
   6  -6 -14 280.917 222.304   2
   6  -6 -15 1692.55 620.181  16
  -6  -6 -15 141.670 213.989  16
  -6   6  15 1494.73 523.500  18
   6   6  15-77.7706 163.444  15
  -6  -6 -15 59.9073 36.8521   6
  -6   6  15 1415.36 881.293  20
  -6  -6 -15-35.7102 40.2329   8
   6   6  15-140.145 170.784   3
   6   6  15-108.598 188.037  13
  -6   6  15 330.958 383.880  13
   6   6  15 175.314 197.067  12
  -6   6  15 267.718 359.715  11
   6   6  15-163.849 192.461  20
   6  -6 -15 2121.34 796.526  17
  -6   6  15 898.707 628.907  10
  -6   6  15 1271.27 899.077   1
   6  -6 -15 1069.00 584.942   2
  -6  -6 -16 139.372 156.641   8
   6  -6 -16 67.8778 143.858  17
   6  -6 -16 176.223 247.187  16
  -6  -6 -16-110.591 283.510  16
   6   6  16 182.503 299.324   7
   6   6  16 233.092 219.258  15
  -6  -6 -16 88.4004 117.442   6
   6   6  16 128.996 123.068   3
   6   6  16-60.1316 142.818  13
  -6   6  16 244.356 237.746  13
   6   6  16-35.4925 92.6410  12
  -6   6  16 262.821 234.929  11
   6   6  16 121.484 161.553  10
   6   6  16 129.427 196.346  20
  -6   6  16-212.685 232.123  10
  -6   6  16 396.207 362.005  20
   6  -6 -16 99.6603 220.139   2
  -6   6  16 205.050 177.315  18
   7   0   0-12.2665 63.6106  17
  -7   0   0-10.2365 20.9492   6
   7   0   0-52.9356 65.6340  12
   7   0   0 14.0076 59.0906   5
  -7   0   0-27.6285 50.6790   8
  -7   0   0-45.0751 58.1562   1
  -7   0   0-21.8152 12.5122  14
   7   0   0 34.1730 53.4099  19
   7   0   0 0.18053 29.9797   2
  -7   0   0-21.4947 53.5418  18
   7   0   0 9.37483 47.0006   4
   7   0   1 396.796 145.060  17
   7   0  -1 531.573 198.018  17
   7   0   1 665.631 227.597   7
  -7   0  -1 621.965 181.739   6
   7   0   1 557.725 206.897  15
   7   0  -1 433.695 122.424   2
  -7   0  -1 582.105 223.051  14
  -7   0   1 381.343 168.702  14
   7   0  -1 532.794 191.760   4
   7   0   1 318.036 126.785  12
  -7   0  -1 494.925 196.976   1
   7   0   1 444.234 184.582   5
   7   0  -1 458.828 175.423   5
  -7   0   1 794.246 223.690  11
  -7   0   1 536.411 177.702   8
   7   0   1 369.762 169.554  19
   7   0  -1 393.526 148.236  19
  -7   0  -1 660.701 164.810  18
  -7   0   1 648.663 146.105   6
  -7   0   1 600.231 205.394   1
  -7   0   1 572.112 173.756  18
   7   0   1 474.893 184.864   4
  -7   0  -1 527.878 194.496   8
   7   0  -2-29.9059 27.9099   2
   7   0  -2 3.70438 41.0791   4
   7   0  -2 27.3856 55.3629  17
  -7   0   2-40.3896 85.3905   1
   7   0   2-8.20795 91.7158   7
   7   0   2 65.7147 106.478  15
  -7   0  -2-8.72659 37.7216   6
  -7   0  -2 8.62056 34.4776  14
  -7   0   2-19.6761 47.7987   8
  -7   0   2-59.4489 83.9658  14
  -7   0  -2 1.63127 38.5142   1
   7   0   2 51.5609 41.7550   5
   7   0  -2 5.10894 31.3089   5
  -7   0   2 27.0996 9.01755  11
  -7   0  -2-10.5834 35.1525  18
   7   0  -2 22.2516 44.9810  19
   7   0   2-50.7755 52.0527   4
  -7   0   2 43.7655 79.6486  18
   7   0   2-68.7901 121.561  19
  -7   0  -2 35.5456 79.7943   8
   7   0  -3 712.636 237.132  17
   7   0   3 504.307 224.739   7
  -7   0  -3 847.591 253.548   6
   7   0   3 475.156 206.642  15
  -7   0  -3 833.786 262.037   8
  -7   0   3 811.384 227.778  14
  -7   0  -3 697.712 259.692  14
   7   0   3 427.571 180.091  19
  -7   0  -3 1070.87 323.673   1
   7   0  -3 692.090 220.489   5
  -7   0   3 830.199 231.754   1
   7   0   3 504.986 215.412   5
   7   0  -3 678.099 168.187   2
  -7   0   3 1102.00 304.030  11
   7   0  -3 717.186 200.824  19
   7   0  -3 806.734 214.270   4
  -7   0   3 834.343 214.822   8
  -7   0   3 848.485 240.395  18
   7   0   3 493.354 210.392   4
  -7   0   4 22.7635 91.9661   8
   7   0  -4 10.2203 54.0129   4
  -7   0  -4-19.7446 39.0991   1
   7   0  -4 23.2249 89.7369   2
   7   0   4-147.036 201.533  15
  -7   0  -4-30.4300 107.374   6
  -7   0  -4 11.8261 52.4244  14
  -7   0   4 16.7126 52.1668  14
   7   0   4 21.2225 53.8279   4
  -7   0   4 70.7035 79.6958   1
   7   0   4-61.6443 167.270   5
  -7   0   4-96.7837 122.503  11
   7   0  -4-28.3247 65.2088   5
   7   0   4-38.8036 73.4944   7
   7   0   4 45.9166 84.8912  19
   7   0  -4 9.65258 78.6106  19
  -7   0  -4-35.6701 88.0751   8
  -7   0   4 14.1449 68.4368  18
   7   0  -4-27.1447 49.9780  17
   7   0  -5 173.117 135.451  17
  -7   0   5 149.126 92.5222   8
   7   0  -5 177.666 104.089   4
   7   0  -5 218.710 115.130   2
  -7   0  -5 179.049 138.309   6
  -7   0  -5 57.8951 118.532  14
  -7   0  -5 157.463 151.913   8
  -7   0   5 231.203 126.783  14
  -7   0   5 125.321 82.4706   1
  -7   0   5 154.635 131.350  11
   7   0  -5 240.647 135.988   5
   7   0   5 24.1056 65.7874  19
   7   0   5-75.6769 133.655   4
   7   0  -5 112.098 68.8605  19
  -7   0  -5 154.938 122.504   1
  -7   0   5 180.186 123.943  18
   7   0  -6 36.7180 60.9788  17
   7   0  -6-35.2874 45.5420   2
  -7   0  -6 85.8238 108.107  16
  -7   0  -6-46.8881 90.2157   6
  -7   0  -6 33.8252 81.5363  14
  -7   0  -6-57.9492 107.996   1
   7   0  -6-62.7311 78.5550   4
  -7   0   6-92.4539 149.722   8
   7   0  -6-46.0091 64.1285   5
  -7   0   6-59.3505 59.0474  14
  -7   0   6 132.604 118.336  18
  -7   0   6-112.188 214.804  11
  -7   0   6-19.4275 54.4095   1
   7   0  -6-23.8492 32.1527  19
  -7   0  -6 45.3237 107.343   8
  -7   0   7 176.018 103.291   1
   7   0  -7 268.751 159.250  17
   7   0  -7 311.411 131.982   4
  -7   0  -7 295.387 148.985  16
   7   0  -7 279.155 149.794   2
  -7   0  -7 320.957 200.057   6
  -7   0  -7 217.094 167.633  14
  -7   0   7 287.394 152.258  14
  -7   0  -7-68.1914 236.072   1
   7   0  -7 374.960 168.619   5
  -7   0   7 271.130 127.463  18
   7   0  -7 326.364 138.237  19
  -7   0  -7 294.027 178.472   8
   7   0  -8 36.0143 72.4139  17
   7   0  -8-58.6199 82.3429   4
  -7   0  -8-56.3217 71.0809  16
   7   0  -8-120.047 162.190  16
  -7   0  -8 32.9583 135.686   6
   0   7   8-36.2132 136.912   3
  -7   0   8 1.14186 32.1874   1
   7   0  -8-9.09182 33.8433   2
  -7   0  -8 178.506 202.031  14
   7   0  -8-8.73918 48.1226   5
   0   7   8-224.252 394.366  13
   0  -7  -8-310.358 179.326   6
   7   0  -8-158.098 111.473  19
  -7   0  -8-29.3390 87.3252   8
  -7   0   8 11.0797 69.7801  14
  -7   0   8-47.8206 108.675  18
  -7   0  -9-50.4491 124.225   8
   7   0  -9-67.5681 129.119   4
  -7   0  -9 72.1881 162.944  16
   7   0  -9-20.1639 51.8348  16
  -7   0  -9-8.84118 72.7045   6
  -7   0   9-133.665 158.451  18
  -7   0  -9 57.6259 191.028  14
   7   0  -9 6.09912 77.8391   2
   0   7   9 14.6692 60.2699   3
  -7   0   9 114.700 123.569   1
  -7   0   9 21.0030 58.9923  14
   0   7   9 17.2344 119.610  13
   0  -7  -9-87.4967 97.7113   6
   7   0  -9 7.17857 59.0536   5
   7   0  -9-10.0537 105.408  17
  -7   0 -10 89.2984 133.402  16
   7   0 -10 32.6954 111.794  16
   7   0 -10-39.5658 75.0802  17
  -7   0 -10-25.3663 62.4841   6
  -7   0 -10 33.6864 130.540   8
  -7   0 -10-111.229 235.811  14
   7   0 -10 40.3336 51.4529   2
   0   7  10-11.0983 48.3556   3
  -7   0  10-17.1587 55.1463  14
   0   7  10-33.2779 127.316  13
   0  -7 -10-44.3113 71.8592   6
   0   7  10-67.4406 112.306  12
  -7   0  10-17.0958 58.2264   1
   0   7  10-92.0496 117.337  18
  -7   0  10-168.593 245.335  18
   7   0 -10-32.4361 86.1877   5
  -7   0 -11 1649.67 504.354  16
   0   7  11 1361.94 350.664   3
   7   0 -11 810.707 332.359  16
  -7   0 -11 1053.62 371.924   6
  -7   0 -11 1481.56 532.135   8
  -7   0  11 716.942 258.311  14
   0  -7 -11 652.598 262.491   6
   0   7  11 1650.20 521.285  13
   0   7  11 1496.99 327.201  12
   7   0 -11 2093.68 481.286   5
   7   0 -11 1612.55 449.252   2
   0   7  11 1980.07 495.251  18
  -7   0  11 636.932 304.274   1
   7   0 -11 1468.73 427.547  17
   0  -7 -11 213.372 140.604  17
   7   0 -12-51.0444 77.8409  17
  -7   0 -12 63.1779 121.856  16
   7   0 -12-52.2214 184.172  16
  -7   0 -12-355.706 349.745   6
   7   0 -12 96.0779 150.686   2
   0   7  12-20.3942 100.820   3
  -7   0  12 46.4056 77.7153  14
   0  -7 -12 56.1890 109.747   6
   0   7  12 1.28271 101.155  13
   0  -7 -12-144.558 233.688  17
   0   7  12 11.9759 52.7734  12
   0   7  12 149.378 145.365  18
   7   0 -12 78.6439 90.6635   5
  -7   0 -12-30.2508 166.631   8
  -7   0  12-53.6733 106.260   1
   0  -7 -13 713.972 256.165  16
  -7   0  13 1062.38 406.698   1
  -7   0 -13 2182.69 622.677  16
   7   0 -13 947.774 345.439  16
   0   7  13 1561.54 370.107   3
   0  -7 -13 1235.42 388.532  17
   0  -7 -13 1064.41 358.267   6
  -7   0  13 714.875 262.303  14
   0   7  13 1704.82 521.944  13
   0   7  13 1970.96 374.982  12
  -7   0 -13 1878.79 647.925   8
   7   0 -13 2690.05 617.495   5
   7   0 -13 1862.48 460.468   2
   0   7  13 1985.99 428.296  18
   7   0 -13 2109.80 545.252  17
   0  -7 -14-171.927 188.720  16
   7   0 -14-192.471 263.579  17
   7   0 -14-205.713 265.492   5
  -7   0 -14 144.943 187.518  16
  -7   0  14 121.886 168.677   1
   7   0 -14 23.6171 61.5776   2
   0   7  14 76.0417 67.7933  18
   0  -7 -14-93.1195 47.7525   6
   0   7  14 71.3439 108.191   3
   0   7  14 46.6788 97.0378  13
   0   7  14 61.1242 92.3370  12
  -7   0 -14 123.980 207.136   8
   0  -7 -14 165.814 212.283  17
  -7   0 -15 1015.06 548.858   8
   7   0 -15 704.734 200.689  17
  -7   0 -15 1149.48 548.244  16
   7   0 -15 880.743 352.813   2
   0  -7 -15 495.342 277.291   6
  -7   0  15 151.178 218.848   1
   0   7  15 756.747 268.852   3
   0   7  15 670.898 326.475  13
   0  -7 -15 330.528 234.207  16
   0   7  15 838.053 242.303  18
   0   7  15 786.070 243.072  12
   0  -7 -15 592.652 211.383  17
   0  -7 -16 34.7365 85.3595  17
   0  -7 -16 112.115 201.682  16
  -7   0 -16-41.5022 287.900  16
   0  -7 -16 181.989 191.713   6
   0   7  16-121.307 135.096   3
   0   7  16-30.5555 99.1061  13
   0   7  16-54.4203 40.7163  12
   0   7  16 49.9285 157.953  11
   0  -7 -16-582.784 535.720   2
  -7   0 -16-70.3597 121.887   8
   0   7  16 29.9124 47.6483  18
   0  -7 -17 34.2365 96.9291  17
   0   7  17 160.484 163.919  18
   0  -7 -17 76.6863 117.445  16
   0   7  17 418.807 475.984   7
  -7   0 -17 182.611 271.735  16
   0   7  17 521.573 458.157  15
   0  -7 -17-271.250 223.090   6
  -7   0 -17 270.822 59.5924   8
   0   7  17 86.7267 129.541   3
   0   7  17 89.6240 156.908  13
   0   7  17 188.966 166.018  12
   0   7  17-8.40563 103.196  11
   0  -7 -17-332.827 557.729   2
   0   7  17 21.2029 195.312  20
   0  -7 -18-14.9506 75.5452  17
   0  -7 -18 164.318 275.581  16
   0   7  18-197.935 399.621   7
   0   7  18-117.863 119.334  15
   0  -7 -18 114.525 83.3185   6
   0   7  18 90.6827 154.216   3
   0   7  18 29.8074 107.302  12
   0   7  18 299.437 239.466  11
   0  -7 -18-13.5246 296.661   2
   0   7  18 2.00771 172.002  20
  -7   1   0 1760.74 362.773   6
  -7  -1   0 1943.96 280.172   6
  -7   1   0 2044.51 435.524  14
  -7  -1   0 1955.25 354.091  14
   7  -1   0 1268.45 338.703  19
   7  -1   0 1248.10 336.356   5
  -7   1   0 2469.48 467.349   1
   7   1   0 1694.89 320.344   5
   7   1   0 1661.59 310.493  12
  -7  -1   0 1853.22 335.644   1
   7  -1   0 866.457 212.534   2
   7   1   0 1721.91 315.332  19
   7  -1   0 1092.04 333.078   4
   7   1   0 1824.16 332.120   4
  -7   1   0 2650.13 439.909   8
  -7   1   0 2378.18 362.956  18
  -7  -1   0 2019.16 337.662   8
  -7  -1   0 2056.83 393.635  18
   7  -1   0 1070.07 254.887  17
   7   1   0 1605.48 369.133  17
   7  -1  -1 534.352 196.213  17
   7   1   1 500.051 184.748   4
   7   1  -1 530.284 250.337  17
  -7  -1  -1 651.286 183.439   1
   7   1  -1 592.772 188.400   4
   7  -1  -1 471.089 212.939  19
   7  -1   1 337.175 143.130  17
  -7  -1  -1 586.962 152.794   6
  -7   1  -1 786.683 295.069   1
  -7   1  -1 569.728 211.765   6
  -7  -1  -1 655.917 202.844  14
  -7  -1   1 631.258 209.980  14
  -7   1  -1 666.662 262.367  14
  -7   1   1 564.405 223.573  14
   7  -1  -1 458.855 163.360   2
  -7  -1   1 718.990 160.340   6
  -7   1   1 739.826 250.877   1
   7   1  -1 632.906 231.943  12
  -7  -1   1 631.652 204.300   1
   7   1   1 523.721 167.654  12
   7  -1   1 382.413 208.476   5
   7  -1  -1 338.780 162.581   5
  -7   1   1 1177.90 258.343  11
   7   1  -1 620.769 146.842   2
   7   1   1 578.113 193.329   5
  -7  -1  -1 630.481 190.982   8
   7   1  -1 540.782 172.831   5
   7   1   1 500.813 189.113  17
   7   1  -1 675.555 193.990  19
   7  -1   1 303.644 156.746  19
   7   1   1 548.862 177.072  19
  -7  -1  -1 791.319 215.403  18
  -7   1   1 709.682 215.381   8
  -7   1  -1 816.712 211.462  18
  -7   1   1 718.504 193.716  18
  -7  -1   1 738.134 202.538   8
   7  -1   1 378.324 188.086   4
   7  -1  -1 322.634 137.476   4
  -7  -1   1 835.965 253.925  18
  -7   1  -1 865.832 265.732   8
   7   1   2 377.074 147.654   4
  -7  -1  -2 461.816 170.537   8
   7  -1  -2 277.066 137.343  17
  -7  -1   2 483.008 172.481   8
   7   1  -2 345.833 214.414  17
  -7   1   2 491.623 159.024   8
   7   1  -2 417.831 160.012   4
  -7   1  -2 686.937 207.442  18
  -7  -1  -2 565.389 166.214   6
  -7  -1   2 522.556 138.410   6
  -7   1  -2 509.976 211.482   6
   7   1  -2 458.272 129.821   2
  -7  -1   2 487.838 187.801   1
  -7   1  -2 481.303 236.803  14
  -7   1   2 462.748 204.933  14
  -7  -1  -2 484.518 173.906  14
  -7  -1   2 341.763 160.521  14
  -7   1  -2 543.156 279.601   1
  -7  -1  -2 486.119 176.112   1
   7  -1   2 74.9023 139.934   5
   7   1   2 301.151 131.548  12
   7  -1  -2 349.597 134.603   2
  -7   1   2 584.231 221.678   1
   7  -1  -2 464.430 196.031   5
   7  -1  -2 353.097 151.806  19
  -7   1   2 755.152 202.940  11
   7   1   2 389.727 162.450   5
   7   1  -2 454.253 178.009   5
   7   1   2 316.986 147.117  19
   7   1  -2 428.149 162.422  19
   7  -1   2 205.435 127.675   4
  -7   1   2 480.344 156.429  18
  -7   1  -2 636.807 260.492   8
  -7  -1   2 457.940 180.694  18
   7  -1  -2 378.801 169.961   4
   7  -1   2 161.064 40.5889  17
   7  -1  -3 203.214 118.518  17
  -7  -1   3 364.322 153.215   8
  -7   1  -3 521.249 295.108   1
   7   1  -3 394.875 214.516  17
  -7  -1   3 379.498 168.651   1
   7   1   3 243.843 124.870  19
   7   1  -3 342.041 136.156   4
  -7   1  -3 359.084 195.510   6
  -7   1  -3 484.046 262.905  14
  -7   1   3 545.508 203.268  14
  -7  -1  -3 404.572 155.523  14
  -7  -1  -3 336.655 135.635   6
  -7  -1   3 378.699 164.668  14
   7   1   3 196.742 87.5810   3
  -7  -1   3 380.483 133.424   6
   7   1   3 309.087 142.473  12
  -7   1  -3 582.738 181.682  18
  -7   1   3 342.726 135.184   8
   7   1   3 259.880 145.496   5
   7  -1  -3 252.055 156.216   5
  -7  -1  -3 460.885 173.689   1
  -7   1   3 600.238 204.631  11
  -7   1   3 349.984 156.972   1
   7   1  -3 428.458 175.683   5
   7   1  -3 457.061 157.584   2
   7   1  -3 430.242 157.666  19
   7  -1  -3 309.736 144.621  19
   7  -1  -3 278.021 120.933   2
  -7   1  -3 452.520 203.175   8
  -7  -1   3 234.773 109.871  18
   7  -1   3 239.390 153.839  17
  -7  -1  -3 373.643 145.449   8
   7  -1  -3 280.001 157.042   4
   7   1   3 260.935 148.455   4
  -7   1   3 409.466 156.198  18
  -7   1   4-2.32789 27.9999   8
   7  -1  -4 13.8292 33.3906  17
  -7  -1  -4 53.5151 59.1740   8
  -7  -1   4-95.0994 188.523  18
   7   1  -4-66.3880 145.056  17
   7   1  -4-19.1488 62.1560   4
  -7   1  -4-53.5732 108.224   6
   7   1   4 16.9667 96.8932  15
  -7   1   4 9.25481 25.5262  18
   7  -1  -4 23.9467 79.6668   4
  -7   1  -4 15.4770 36.3448  14
   7   1  -4 18.2918 83.0096   2
  -7  -1  -4 99.7792 77.0010   6
  -7  -1  -4-34.2756 49.9301  14
  -7  -1   4 95.4244 84.6448  14
  -7   1   4 34.3930 61.7947  14
  -7  -1   4 39.0133 41.6384   1
  -7  -1  -4 46.9089 85.8197   1
   7   1   4 61.4845 78.0659   3
   7   1   4 69.6296 128.016  12
   7   1   4-44.7516 96.6353   5
   7  -1  -4-6.81445 51.9141   5
  -7   1   4 66.0157 104.013  11
   7   1  -4 8.29180 23.2818   5
  -7  -1   4 7.84714 52.0917   8
   7   1   4 17.7779 112.569  19
   7  -1  -4-38.0936 48.4446  19
   7   1  -4-3.91582 33.5128  19
  -7   1   4-128.980 188.138   9
  -7   1  -4-6.83318 143.531   1
  -7   1  -4-15.6225 75.4656  18
  -7   1   4 55.3094 72.1128   1
  -7   1  -4-24.4501 61.2424   8
   7   1   4 15.1344 61.4405   4
   7  -1  -4-5.91807 52.5667   2
  -7   1   5 266.378 150.578   1
   7  -1  -5 331.449 144.109   2
   7  -1  -5 417.582 180.481  17
   7   1  -5 325.824 200.039  17
  -7  -1   5 130.965 156.335   8
   7   1   5 370.699 215.224   7
   7   1  -5 279.548 106.948   4
  -7  -1   5-71.7129 250.789  18
  -7   1  -5 282.878 184.641   6
   7   1   5 336.710 184.380  15
  -7  -1  -5 373.003 186.504   1
  -7   1  -5 343.145 250.330  14
  -7  -1  -5 285.192 139.692   6
  -7  -1  -5 436.345 195.634  14
  -7   1   5 457.133 177.753  14
   7   1  -5 362.230 147.944  19
  -7  -1   5 335.281 158.355  14
  -7  -1   5 360.989 195.360   1
  -7  -1  -5 457.186 177.497  16
  -7   1   5 425.748 142.518   8
   7   1   5 212.466 144.587   5
  -7   1  -5 492.772 247.757   8
   7   1  -5 418.034 199.972   2
  -7   1   5 337.048 157.663  11
   7  -1  -5 250.492 139.767   5
  -7   1  -5 126.618 101.599   1
   7   1   5 192.102 136.530  19
   7  -1  -5 363.835 132.600  19
  -7   1   5 80.4585 207.980   9
  -7   1   5 383.662 153.013  18
   7   1  -5 368.914 186.428   5
   7   1   5 133.621 126.871   4
  -7  -1  -5 326.766 176.143   8
   7  -1  -5 223.586 105.374   4
   7  -1  -6 219.592 133.684  17
   7  -1  -6 241.522 112.873   4
  -7   1   6 225.281 95.8219   8
   7   1  -6 381.226 235.581  17
  -7  -1   6 196.290 154.824   1
  -7  -1  -6 234.015 172.102   1
   7   1   6 80.5408 101.911   7
  -7  -1  -6 290.842 150.239  16
  -7   1   6 171.943 68.6270   1
  -7   1  -6 177.835 153.734  16
  -7   1  -6 88.6665 205.257   6
   7   1   6 159.739 119.269  15
   7  -1  -6 221.961 131.312   2
  -7   1  -6 274.097 179.253  14
  -7  -1  -6 323.815 163.346   6
  -7  -1  -6 337.733 176.450  14
  -7   1   6 247.880 148.751  14
  -7  -1   6 336.935 163.387  14
   7   1   6 159.669 164.338   5
  -7   1   6 413.644 181.079  11
   7  -1  -6 184.342 106.733   5
   7   1  -6 259.113 164.003   5
  -7  -1  -6 287.838 172.831   8
   7  -1  -6 305.913 128.464  19
   7   1   6 114.520 125.120  19
   7   1  -6 194.078 107.196  19
  -7   1  -6 405.180 266.114   8
   7   1   6 102.609 72.3431   4
   7   1  -6 433.622 211.397   2
  -7   1   6 192.131 122.045  18
   7  -1  -7 303.513 142.424   4
  -7   1   7 374.414 161.475   8
   7  -1  -7 363.436 169.251   2
   7   1   7 78.2804 39.6388   4
  -7  -1  -7 288.186 129.001  16
  -7   1  -7 158.168 145.494   6
  -7   1  -7 239.155 100.309  16
   7   1   7 133.622 39.3754  15
  -7   1  -7 113.629 186.808  14
  -7   1   7 364.710 190.910   1
  -7  -1  -7 342.505 164.288   6
  -7  -1  -7 332.281 147.982  14
  -7   1   7 326.293 143.164  14
   7   1  -7 645.839 291.531   2
  -7  -1   7 335.235 171.704  14
  -7  -1   7 267.108 137.256   1
   7  -1  -7 283.788 157.443  17
   7   1  -7 646.685 313.999  17
   7   1   7 124.317 67.5443   7
  -7   1   7 371.381 217.114  11
   7  -1  -7 254.045 136.218   5
   7   1   7 138.558 124.801  19
   7  -1  -7 402.826 156.193  19
   7   1  -7 457.174 215.803   5
  -7  -1  -7 283.407 205.488   1
  -7   1   7 318.205 165.319  18
  -7  -1  -7 396.940 219.648   8
  -7   1  -7 404.150 338.418   8
  -7   1   8 440.793 197.742  18
   7  -1  -8 644.976 258.628  17
   7  -1  -8 352.380 134.785   4
   7   1  -8 382.002 198.923  17
   7   1   8-38.1992 234.010   7
   7  -1  -8 349.724 157.834   2
  -7  -1  -8 523.585 214.076  16
   7  -1  -8 407.294 150.066  16
  -7   1  -8 366.673 286.648  16
   7   1   8 60.4626 137.150  15
   1   7   8 420.195 181.773   3
  -7  -1  -8 356.866 148.318   6
  -7  -1  -8 559.279 265.957  14
  -7   1  -8 448.623 328.369   8
  -7   1   8 354.056 160.093  14
   7   1  -8 505.357 246.709   2
  -7  -1   8 264.546 156.184  14
  -7   1   8 504.943 236.942   1
  -1   7   8 242.436 214.930  13
  -1  -7  -8-165.497 151.747   6
  -7   1   8 421.815 206.221  11
   7  -1  -8 371.572 148.403   5
  -7  -1   8 456.251 228.023   1
  -7  -1  -8-194.225 258.861   1
   7   1  -8 634.495 256.251   5
   7  -1  -8 482.906 173.595  19
   7   1   8 182.070 217.736  19
   7   1   8 81.0624 224.086   4
  -7  -1  -8 412.374 173.870   8
   7  -1  -9 1207.49 365.064  17
  -7  -1   9 851.483 356.149   1
   7   1  -9 1220.94 388.886  17
  -7  -1  -9 1869.87 421.753  16
   7  -1  -9 1125.26 278.322  16
  -7  -1  -9 1366.88 391.453   6
  -1   7   9 1210.30 331.318   3
   1   7   9 1495.41 376.404   3
  -7   1  -9 1077.56 421.458  16
  -7   1   9 957.533 267.312  14
  -7  -1  -9 1286.33 413.012  14
   7  -1  -9 1379.83 289.524   4
  -7  -1   9 1074.89 324.830  14
   1   7   9 819.551 296.195  13
  -1   7   9 1286.84 432.053  13
  -7   1  -9 1297.14 576.245   8
  -1  -7  -9 247.459 159.650   6
   1  -7  -9 161.714 110.965   6
  -7   1   9 929.926 289.871  18
   7  -1  -9 1133.44 307.031   5
   1   7   9 1375.30 313.319  12
   7   1  -9 2059.99 506.270   5
  -7   1   9 1113.93 342.562   1
   7  -1  -9 1415.84 343.738   2
   7   1  -9 1700.60 432.392   2
  -7  -1  -9 1228.19 386.387   8
  -7   1   9 980.189 320.149  11
   7  -1  -9 1286.02 307.381  19
   7   1   9 228.632 113.303  19
   7  -1 -10 699.297 293.533  17
   7  -1 -10 746.447 272.462   2
   7  -1 -10 530.806 198.232  16
  -1   7  10 782.626 266.076   3
  -7   1 -10 572.678 432.230  16
  -7  -1 -10 817.756 309.892   6
  -7  -1  10 405.618 303.682   1
  -7  -1 -10 937.468 357.257  14
  -7  -1 -10 917.338 298.170  16
   1   7  10 594.481 229.539   3
  -1   7  10 507.357 162.435  18
  -7   1  10 438.494 194.332  14
   7   1 -10 489.556 246.800   2
  -7  -1  10 546.805 256.568  14
   1   7  10 676.555 352.485  13
  -1   7  10 549.855 305.888  13
  -1  -7 -10 202.310 171.585   6
   1  -7 -10 218.032 147.080   6
   1   7  10 672.502 225.243  12
   7  -1 -10 850.962 231.319   4
  -7   1 -10 425.921 247.577   8
  -7   1  10 381.740 209.404   1
  -7   1  10 690.125 250.844  18
  -7   1  10 445.438 207.648  11
   7  -1 -10 641.145 241.710   5
  -7  -1 -10 754.479 313.998   8
   7   1  10 90.9019 127.783  19
   7   1 -10 992.343 318.049   5
   7   1 -10 351.744 160.568  17
   7  -1 -11 691.565 308.183  17
   1  -7 -11 381.451 308.339  17
   7  -1 -11 835.430 234.424   4
   7  -1 -11 751.546 268.425   2
  -7  -1 -11 742.467 306.691  16
   7  -1 -11 585.216 246.851  16
  -7   1 -11 574.453 416.592  16
  -7  -1 -11 788.806 305.213   6
  -7  -1 -11 774.978 369.127  14
  -7   1  11 385.860 211.769   1
  -1   7  11 617.042 232.862   3
   1   7  11 660.151 234.850   3
  -7   1  11 460.099 201.808  14
  -1  -7 -11 334.913 179.444   6
   1  -7 -11 458.451 246.901   6
   1   7  11 809.175 408.227  13
  -1   7  11 797.704 343.550  13
   1   7  11 722.862 215.036  12
  -1   7  11 648.302 214.840  12
  -7   1  11 176.876 25.5507  11
   7  -1 -11 862.996 289.997   5
   1   7  11 873.752 308.235  18
  -1   7  11 824.141 324.740  18
  -7   1 -11 159.426 58.3684   8
  -7  -1 -11 830.736 330.726   8
  -7   1  11 293.518 171.731  18
  -1   7  12 1281.98 436.169  13
  -7   1  12 586.873 228.889  14
  -1   7  12 1470.79 320.306  12
  -7  -1 -12 1620.60 479.637  16
   7  -1 -12 1603.69 406.376   2
   7  -1 -12 1310.54 366.148  16
  -1   7  12 1221.14 317.188   3
   1   7  12 1306.18 353.456   3
  -7  -1 -12 1419.13 463.836   6
  -7  -1 -12 1385.62 547.872  14
  -1  -7 -12 633.845 287.809   6
  -7   1 -12 1096.68 553.381   8
  -1   7  12 1601.06 407.181  18
   1  -7 -12 563.660 261.859   6
   1   7  12 1333.04 485.271  13
   7  -1 -12 1497.94 384.315   5
   1   7  12 1214.36 291.047  12
   1   7  12 1767.70 400.238  18
  -7   1  12 830.392 320.214   1
  -7  -1 -12 1516.08 480.395   8
   7  -1 -12 1424.24 323.830   4
  -7   1  12 729.033 318.044  18
   7  -1 -12 1520.03 474.579  17
  -1  -7 -12 780.028 313.553  17
   1  -7 -12 748.202 374.499  17
   7  -1 -13 477.973 260.957  17
  -1  -7 -13 3.39843 226.353  16
  -7  -1 -13 389.256 240.678  16
   7  -1 -13 253.733 151.776  16
   7  -1 -13 489.259 233.012   2
   7  -1 -13 548.670 171.439   4
  -7  -1 -13 324.646 202.006   6
  -7  -1 -13 200.071 434.870  14
  -7   1 -13-698.742 830.591   8
  -1   7  13 416.604 191.774   3
   1   7  13 387.719 188.694   3
   1  -7 -13 142.519 66.6338   6
  -1  -7 -13 122.538 84.2468   6
   1   7  13 401.609 169.976  18
   1   7  13 216.956 96.7693  13
  -1   7  13 476.235 258.846  13
   1   7  13 385.315 162.828  12
  -1   7  13 370.615 166.115  12
  -7  -1 -13 439.021 238.362   8
   7  -1 -13 487.554 246.444   5
  -1  -7 -13 344.323 196.597  17
  -1   7  13 440.622 185.859  18
   1  -7 -13-133.648 220.512  16
  -7   1  13 81.4413 60.6414  18
  -7   1  13 127.274 103.559   1
   1  -7 -13 244.113 93.1932  17
  -7  -1 -14 1966.70 601.783  16
   1  -7 -14 853.534 315.359  16
  -1  -7 -14 1060.02 407.820  16
   7  -1 -14 1445.56 434.577  16
  -1   7  14 1460.63 367.279   3
   1   7  14 1633.42 402.496   3
  -7  -1 -14 1738.43 532.313   6
   1  -7 -14 857.721 326.559   6
  -1  -7 -14 1093.57 354.108   6
   1   7  14 1697.13 522.998  13
  -7   1  14 788.054 326.916   1
  -1   7  14 1309.44 422.810  13
   1   7  14 1544.33 341.095  12
  -1   7  14 1873.95 363.736  12
   7  -1 -14 2038.83 467.559   5
   7  -1 -14 1727.74 490.016   2
   1   7  14 1842.15 364.093  18
  -1   7  14 2110.35 449.351  18
  -7  -1 -14 1952.54 539.687   8
   7  -1 -14 1996.96 523.111  17
  -7   1  14 430.022 161.848  18
  -1  -7 -14 1585.39 414.873  17
   1  -7 -14 1114.95 367.304  17
   1  -7 -15 280.301 182.991  17
  -1  -7 -15 293.803 151.254  17
   7  -1 -15 519.131 271.253  17
   1  -7 -15 396.048 250.117  16
  -1  -7 -15 319.601 236.962  16
  -7   1  15 206.653 211.706   1
  -7  -1 -15 526.479 312.762  16
   7  -1 -15 171.028 145.364  16
   7  -1 -15 457.522 289.622   2
  -7  -1 -15 46.0958 191.053   6
   1  -7 -15 407.638 244.046   6
  -1  -7 -15 85.0519 110.046   6
  -1   7  15 474.703 223.036   3
   1   7  15 382.665 194.479   3
   1   7  15 286.646 161.915  13
  -1   7  15 225.955 210.726  13
   1   7  15 410.162 184.254  12
  -1   7  15 387.679 161.239  12
   1  -7 -15-158.076 377.080   2
   7  -1 -15 527.831 246.663   5
   1   7  15 440.632 178.180  18
  -7  -1 -15 612.905 425.289   8
  -1   7  15 420.908 186.917  18
  -7   1  15-242.160 305.857  18
  -1  -7 -16 204.367 155.949  17
   1  -7 -16 351.686 230.616  17
   7  -1 -16 837.794 397.974  17
  -1  -7 -16 168.253 68.0772  16
  -7  -1 -16 330.430 217.228  16
   7  -1 -16 849.697 435.082  16
  -7  -1 -16-83.0580 293.866   6
   7  -1 -16 612.675 358.575   2
  -7   1  16 106.324 173.681   1
  -1   7  16 675.746 480.986  15
   1  -7 -16 321.651 201.877  16
   1  -7 -16 80.6205 137.375   6
  -1  -7 -16 219.117 206.810   6
  -1   7  16 317.424 178.853   3
   1   7  16 258.035 178.903   3
   1   7  16 326.008 228.957  13
  -1   7  16 359.448 229.021  13
   1   7  16 205.816 166.772  12
  -1   7  16 231.824 143.817  12
  -1   7  16 361.833 283.811  11
   1   7  16 532.686 255.075  11
   1  -7 -16-166.443 393.921   2
   7  -1 -16 418.037 296.318   5
  -1   7  16 390.591 163.026  18
  -7  -1 -16 341.673 205.347   8
   1  -7 -17 425.520 233.446  17
   1  -7 -17 408.849 231.832  16
  -1  -7 -17 657.517 342.393  16
  -1   7  17 666.386 479.101   7
   1   7  17 995.264 614.424   7
  -7  -1 -17 888.531 410.323  16
   7  -1 -17 451.205 251.405  16
   7  -1 -17 759.810 340.147   2
  -1   7  17 1087.92 479.296  15
   1   7  17 901.245 528.065  15
  -7   1  17 141.614 183.690   1
   1  -7 -17 496.928 227.204   6
  -1  -7 -17 310.498 116.098   6
  -1   7  17 396.043 160.168   3
   1   7  17 507.785 214.944   3
   1   7  17 360.956 303.044  13
  -1   7  17 474.590 291.286  13
   1   7  17 606.009 441.745  20
   1   7  17 499.861 231.449  12
  -1   7  17 501.970 229.602  12
  -1   7  17 609.773 293.600  11
   1   7  17 458.921 198.393  11
   1  -7 -17 113.362 198.713   2
  -1   7  17 799.206 455.337  20
   7  -1 -17 818.831 307.833   5
  -1   7  17 625.886 223.052  18
  -7  -1 -17 425.214 228.633   8
   7  -1 -17 471.961 222.446  17
  -7  -2   0 2208.43 342.683   6
  -7   2   0 1955.12 564.031  14
  -7  -2   0 2137.56 372.521  14
   7  -2   0 546.275 197.249  17
  -7   2   0 2891.37 616.630   1
   7   2   0 2079.01 354.012   5
   7   2   0 2008.84 430.182  12
  -7  -2   0 2343.80 381.006   1
   7   2   0 2133.72 342.162  19
   7   2   0 2080.86 359.213   4
  -7   2   0 2509.67 438.840  18
  -7   2   0 2670.12 530.521   8
  -7  -2   0 2016.48 352.926   8
  -7  -2  -1 1831.39 299.773   6
  -7  -2   1 1817.51 336.876   6
  -7   2  -1 1903.19 563.299  14
  -7   2   1 1583.67 465.289  14
  -7  -2  -1 2004.77 352.312  14
  -7  -2   1 1729.04 340.454  14
  -7   2  -1 2117.29 504.565   8
  -7   2  -1 2136.54 562.975   1
  -7   2   1 2137.38 510.605   1
   7   2   1 1734.68 318.122   5
   7   2   1 1861.68 367.338  12
   7   2  -1 2001.20 359.509   5
   7  -2  -1 656.967 269.881   5
  -7  -2  -1 1895.81 332.140   1
  -7  -2   1 1655.23 354.605   1
   7   2  -1 2354.09 391.788   2
   7  -2  -1 573.400 190.699  19
  -7  -2   1 1584.74 331.123   8
   7   2   1 1893.27 329.398  19
   7   2  -1 1974.38 337.762  19
   7   2   1 1916.10 340.403   4
  -7   2   1 2316.66 444.943   8
   7   2  -1 1959.00 347.179   4
  -7   2  -1 2370.55 445.264  18
  -7   2   1 2504.50 433.561  18
   7  -2  -1 394.081 81.7393   4
  -7  -2  -1 1833.02 335.576   8
   7  -2  -1 914.308 285.059  17
   7   2  -2 1218.84 270.588  19
  -7  -2  -2 1082.17 229.162   6
  -7  -2  -2 1083.84 258.190  14
  -7  -2   2 1017.34 275.826  14
  -7  -2  -2 1106.94 254.104   8
  -7   2  -2 1262.32 450.174  14
   7   2   2 455.952 232.765   3
  -7   2   2 1115.02 363.146  14
  -7  -2   2 940.927 268.301   6
  -7   2   2 1510.20 403.826   1
   7   2   2 969.277 230.755   5
   7   2   2 1076.69 268.166  12
   7   2  -2 1321.70 301.706   5
   7  -2  -2 650.669 267.796   5
  -7  -2  -2 1157.31 256.964   1
   7   2   2 1042.33 247.234  19
  -7  -2   2 1002.12 304.120   1
   7   2  -2 1387.62 323.846   2
   7  -2  -2 497.186 167.677   2
   7  -2  -2 623.946 206.459  19
  -7  -2   2 982.839 282.398   8
  -7   2   2 1279.89 309.061   8
  -7   2   2 1425.81 318.138  18
   7   2  -2 956.311 244.003   4
  -7   2  -2 1071.97 441.794   1
  -7   2  -2 1167.94 300.685  18
   7  -2  -2 559.889 227.803   4
  -7   2  -2 1179.64 431.166   8
   7   2   2 966.276 244.897   4
   7  -2  -2 738.847 209.554  17
   7  -2  -3 35.0456 25.0587  17
  -7  -2  -3 33.8780 47.2536   8
  -7  -2   3 8.58026 85.3228   8
   7   2  -3-20.7210 94.2907   4
  -7  -2  -3 10.0177 32.0645   1
  -7   2  -3-221.151 286.412  14
  -7   2   3-31.8659 67.3938  14
  -7  -2  -3 94.2215 87.7384  14
   7   2   3 14.9660 19.2801   3
  -7   2   3 29.5755 36.7841   1
   7  -2  -3 26.2630 37.0524  19
  -7  -2  -3 87.8780 54.0332   6
  -7  -2   3 34.4929 36.8811  14
  -7   2   3 41.5517 41.2349  13
   7   2   3 18.3470 41.7580  12
   7  -2  -3-1.36630 47.0117   5
  -7  -2   3 43.8228 55.0290   1
   7   2   3 28.9426 62.4435   5
  -7   2  -3-97.0796 242.211   1
   7  -2  -3-8.34395 69.6259   2
   7   2  -3 78.5643 83.6377   5
   7   2   3 40.5107 54.6935  19
   7  -2  -3 23.2233 34.6273   4
   7   2  -3 43.4558 44.2697  19
   7   2   3 55.2076 62.9520   4
  -7   2   3 16.3661 32.8849  18
  -7   2   3 60.6000 61.7989   8
  -7   2  -3 23.6639 50.3384   8
   7  -2  -4 538.259 206.845  17
  -7  -2  -4 712.433 202.649   6
  -7  -2   4 549.508 237.993   1
  -7   2  -4 381.667 169.231  14
  -7   2   4 521.772 240.484  14
  -7  -2  -4 675.460 202.680  14
   7  -2  -4 419.805 159.445  19
  -7  -2   4 617.123 240.826  14
   7   2   4 448.621 182.211   3
  -7   2   4 832.908 184.797  13
  -7   2   4 710.838 266.192   1
  -7  -2  -4 825.915 215.985   1
   7   2   4 532.097 197.402  12
   7   2  -4 656.683 210.149  19
   7  -2  -4 546.527 230.402   5
  -7   2   4 1018.64 283.630  11
   7   2   4 543.780 185.526   5
   7  -2  -4 529.585 185.508   2
   7   2  -4 832.901 265.447   5
  -7   2   4 752.065 219.157  18
  -7   2   4 822.518 207.246   8
   7   2   4 576.822 202.581  19
  -7   2  -4 611.592 303.074   8
   7   2   4 551.191 179.508   4
   7  -2  -4 430.826 182.614   4
  -7  -2  -4 598.533 192.744   8
   7  -2  -5-10.2264 91.9875  17
   7  -2  -5 124.885 112.331   4
  -7  -2  -5 221.028 119.752  16
   7  -2  -5 160.969 88.4486  19
  -7   2   5 98.7007 59.3368  14
  -7  -2  -5 141.023 98.6486  14
  -7  -2  -5 222.462 116.457   6
  -7   2   5 227.998 93.0516   8
  -7  -2   5 164.824 100.156  14
   7   2   5 56.9955 40.2011   3
  -7   2   5 186.032 92.3374  13
   7   2   5 127.911 85.0522  12
  -7   2   5 171.300 146.772   1
   7   2   5 103.849 82.9894   4
   7  -2  -5 38.7467 27.8222   5
  -7   2   5 122.481 27.8864  11
   7   2   5 126.601 68.3513   5
  -7  -2  -5 149.584 76.7428   1
  -7  -2   5 46.0531 83.1211   1
   7   2   5 166.376 95.0752  20
   7   2  -5 88.4941 71.6189   5
   7   2   5 110.155 83.1865  19
  -7   2  -5-89.2233 250.651   8
  -7   2   5 155.940 114.141  18
  -7  -2  -5 152.409 94.8426   8
   7  -2  -5 142.387 98.8042   2
   7  -2  -6 1040.45 323.560  17
  -7  -2  -6 1757.89 412.203  16
  -7  -2  -6 1184.00 282.720   6
  -7  -2   6 981.773 392.106   1
  -7  -2  -6 1032.83 268.004  14
  -7   2   6 905.407 329.520  14
  -7  -2   6 824.484 317.704  14
  -7  -2  -6 1360.97 320.227   1
   7   2   6 843.481 259.977  12
   7   2   6 644.098 200.509   3
  -7   2   6 1175.06 329.135   1
   7  -2  -6 998.933 269.653   2
   7   2   6 775.143 246.415   5
  -7   2   6 1508.50 365.489  11
   7  -2  -6 813.684 274.446   5
   7   2   6 846.759 254.363  20
  -7   2   6 1031.62 351.106  10
   7  -2  -6 926.528 232.673  19
  -7   2   6 1470.29 427.371   9
   7   2   6 748.433 235.823  19
  -7  -2  -6 1163.24 291.659   8
  -7   2   6 1330.07 235.589   8
  -7   2   6 1148.50 282.389  18
  -7   2  -6 616.033 200.348   8
   7  -2  -6 1016.85 269.807   4
   7   2   6 916.745 273.873   4
   7  -2  -7 860.534 274.138  17
  -7  -2  -7 1433.77 362.083  16
   7   2   7 1028.84 355.433   7
  -7  -2  -7 1146.59 303.586   6
  -7  -2  -7 1225.77 352.401   1
   7   2   7 891.126 325.072  15
  -7  -2  -7 1089.62 292.585  14
  -7   2   7 589.933 256.136  14
   7   2   7 534.043 235.893  12
   7   2   7 556.209 196.580   3
   7   2   7 856.945 298.158   5
  -7   2   7 1334.70 363.482  11
   7  -2  -7 818.592 282.798   5
   7   2   7 736.959 270.267  20
   7   2   7 635.646 187.111  10
  -7   2   7 858.226 356.377  10
   7  -2  -7 855.635 241.291  19
   7   2   7 562.414 218.351  19
  -7  -2  -7 1052.07 293.876   8
  -7   2   7 1083.08 376.418   9
  -7   2   7 1026.44 285.196  18
  -7   2   7 1114.18 235.745   8
  -7   2   7 779.607 279.326   1
   7   2   7 646.723 248.929   4
   7  -2  -7 785.762 245.804   2
   7  -2  -7 913.100 250.463   4
  -7  -2  -8 2402.48 454.938   8
   7  -2  -8 2249.73 436.025   4
  -7  -2  -8 3403.80 562.930  16
   7  -2  -8 2031.32 294.177  16
   7   2   8 2321.46 582.619   7
  -7  -2  -8 2672.81 478.536   6
   2   7   8 2314.30 496.173   3
   7   2   8 2002.63 524.617  15
  -7   2   8 1951.87 478.445  14
  -7  -2  -8 2765.93 508.791  14
  -7   2   8 2848.50 423.772   8
  -2   7   8 1696.68 489.375  13
  -7  -2  -8 2685.04 640.126   1
  -2  -7  -8 314.207 208.003   6
   7  -2  -8 2486.88 498.533   5
  -7   2   8 1942.14 428.064   1
   7   2   8 1098.62 307.371   5
   7  -2  -8 2642.88 463.409   2
  -7   2   8 2608.26 528.952  11
   7   2   8 2030.46 456.094  10
   7   2   8 2148.76 541.770  20
   7   2   8 1613.62 414.451  19
   7  -2  -8 2754.96 399.104  19
  -7   2   8 3100.33 695.249   9
  -7   2   8 2349.60 447.640  18
   7   2   8 1043.89 307.347   4
  -7   2   8 2525.12 731.153  10
   7  -2  -9-22.0766 51.2489   4
   7  -2  -9 48.8410 65.0813   2
   7  -2  -9 44.8957 89.0253  17
  -7  -2  -9 102.339 102.471  16
   7  -2  -9 18.1851 40.8388  16
   7   2   9 1.25246 75.8565  15
  -2   7   9-102.169 143.472   3
  -7  -2  -9 84.7091 115.020   6
   2   7   9 66.3355 80.0487   3
  -7  -2  -9-111.722 124.945  14
  -7   2   9-58.7362 72.9333  14
  -2   7   9-90.4362 150.419  13
  -2  -7  -9 70.7304 82.7234   6
   2  -7  -9-95.7158 115.837   6
   7   2   9 160.257 164.254  13
   7   2   9-139.151 200.724   7
   2   7   9-40.2203 81.2067  12
   7  -2  -9-2.54776 29.8100   5
  -7   2   9 94.3486 93.9806  11
   7   2   9-10.2752 116.109  20
   7   2   9-14.0365 66.4323  19
  -7   2   9-230.815 239.826   9
   7  -2  -9 18.4514 19.9788  19
  -7  -2  -9-131.512 190.333   1
  -2   7   9-86.1330 179.506  18
   7   2   9 107.494 97.1807   4
  -7   2   9 24.2116 100.266  18
  -7   2   9 48.1305 116.897   1
  -7  -2  -9-46.2815 90.4101   8
  -7  -2 -10 2984.59 541.137   8
  -7  -2 -10 3670.12 636.268  16
   7  -2 -10 2313.53 376.167  16
   7   2  10 1376.84 450.361   7
  -7  -2 -10 2997.04 554.094   6
  -2   7  10 2812.45 500.668   3
   2   7  10 3068.41 539.034   3
   7   2  10 1464.14 484.727  15
  -7  -2 -10 3215.14 573.531  14
  -7   2  10 1616.91 406.114  14
   7  -2 -10 2374.35 391.082  19
   2   7  10 2601.45 728.370  13
  -2   7  10 2896.99 654.159  13
  -2  -7 -10 1159.96 356.809   6
   2  -7 -10 776.782 269.499   6
   7  -2 -10 2520.17 490.669   5
   2   7  10 2606.98 433.793  12
  -7   2  10 2115.54 478.704   1
   7  -2 -10 2559.60 484.840   2
  -7   2  10 2416.43 562.353  11
   7   2  10 1073.51 307.846  19
  -7   2  10 1237.67 420.440   9
  -2   7  10 2484.23 538.552  18
  -7   2  10 2476.90 477.654  18
   7   2  10 651.535 256.534   4
   7  -2 -10 2516.52 406.667   4
   7  -2 -10 2424.92 531.252  17
   7  -2 -11 783.409 292.710  17
   7  -2 -11 915.695 306.677   2
  -7   2  11 698.085 277.803   1
  -7  -2 -11 922.156 317.380  16
  -7   2  11-64.5858 321.259   9
   7  -2 -11 869.434 254.775  16
   2   7  11 1256.05 376.162  18
  -2   7  11 863.257 277.398   3
   7   2  11 209.583 170.255  15
   7   2  11 340.806 209.276   7
  -7  -2 -11 879.057 306.336   6
  -7  -2 -11 951.596 329.176  14
  -7   2  11 445.827 226.967  14
   2   7  11 727.805 255.740   3
  -2  -7 -11 229.994 172.048   6
   2  -7 -11 337.906 213.029   6
   2   7  11 757.070 377.243  13
  -2   7  11 792.297 336.213  13
   2   7  11 827.388 243.891  12
  -7   2  11 729.278 312.054  11
   7  -2 -11 843.346 283.718   5
   7   2  11 265.637 165.271  19
   7  -2 -11 753.289 248.401   4
   7  -2 -11 501.807 175.929  19
  -2   7  11 871.584 311.637  18
  -7   2  11 600.435 266.912  18
  -7  -2 -11 1082.07 335.392   8
   2  -7 -11 284.262 165.392  17
   7  -2 -12 1362.92 403.750  17
   7  -2 -12 1327.68 378.103   2
  -7  -2 -12 1462.32 436.812  16
  -7  -2 -12 1537.04 452.208   6
   7  -2 -12 1090.11 310.288  16
  -2   7  12 1208.81 311.077   3
   2   7  12 1373.12 388.971   3
  -7   2  12 699.515 262.940   1
  -7  -2 -12 1330.69 450.655  14
   2  -7 -12 482.489 189.583   6
  -2  -7 -12 462.639 229.940   6
   2   7  12 1323.40 518.643  13
  -2   7  12 1181.96 381.983  13
   7  -2 -12 1313.19 357.425   5
   2   7  12 1265.87 308.626  12
  -2   7  12 1334.91 308.687  12
  -7   2  12 920.474 362.963  11
   7   2  12 183.620 170.072  19
   2  -7 -12 499.506 296.020  17
   2   7  12 1368.13 359.800  18
  -2   7  12 1381.67 381.731  18
  -7   2  12 1060.00 329.573  18
  -7  -2 -12 1507.72 400.912   8
  -2  -7 -12 831.024 322.903  17
   7  -2 -12 1557.74 319.682   4
   7  -2 -13 1445.15 422.898   2
   7  -2 -13 1366.53 390.322  16
   2  -7 -13 594.626 197.434  16
  -2  -7 -13 527.767 200.565  16
  -7  -2 -13 1753.89 484.358  16
  -2   7  13 1264.03 327.487   3
   2   7  13 1535.29 324.867  18
   2   7  13 1134.34 334.265   3
  -7  -2 -13 1539.33 462.061   6
  -7  -2 -13 2004.70 598.167  14
  -7   2  13 772.641 308.738   1
   2  -7 -13 640.886 275.896   6
  -2  -7 -13 819.913 322.246   6
  -2   7  13 1501.32 447.062  13
   2   7  13 1238.02 482.557  13
   7  -2 -13 1364.25 355.313   5
   2   7  13 1350.93 321.863  12
  -2   7  13 1557.14 328.241  12
  -7   2  13 930.149 356.036  11
   7   2  13 143.348 79.3273  19
   7  -2 -13 1348.24 425.017  17
  -2   7  13 1570.12 407.286  18
  -7  -2 -13 1507.37 428.838   8
  -7   2  13 1135.61 360.628  18
  -2  -7 -13 1175.69 331.560  17
   2  -7 -13 737.494 362.443  17
   7  -2 -14 1091.27 375.981  17
   7  -2 -14 1085.72 372.631   2
   2  -7 -14 449.770 231.800  16
  -2  -7 -14 479.360 205.477  16
  -7  -2 -14 1250.99 420.663  16
   7  -2 -14 1219.11 379.693  16
  -2   7  14 1062.55 312.014   3
  -7  -2 -14 916.445 367.717   6
  -7  -2 -14 1414.24 530.593  14
   2  -7 -14 509.811 233.007   6
  -7   2  14 812.038 318.888   1
  -2  -7 -14 702.885 314.959   6
   2   7  14 953.457 331.228   3
   2   7  14 897.889 393.125  13
  -2   7  14 947.100 346.455  13
  -2   7  14 1017.51 267.542  12
   2   7  14 948.215 270.781  12
   7  -2 -14 954.294 284.113   5
  -7   2  14 407.174 210.619  11
  -2   7  14 1280.64 368.304  18
  -7   2  14 573.731 258.883  18
  -7  -2 -14 1316.29 415.730   8
   2  -7 -14 666.176 348.091  17
   2  -7 -15 898.403 341.014  17
   7  -2 -15 1416.41 434.539  17
   7  -2 -15 1076.03 399.952   2
   2  -7 -15 910.669 362.138  16
  -2  -7 -15 740.017 380.633  16
  -7  -2 -15 1685.33 494.350  16
   7  -2 -15 1283.69 413.923  16
  -2   7  15 1238.95 349.532   3
  -7  -2 -15 1087.00 412.612   6
  -7  -2 -15 613.465 202.626  14
   7   2  15 61.5532 57.7431  19
   2  -7 -15 415.990 271.657   6
  -2  -7 -15 1005.72 370.005   6
  -7   2  15 678.146 300.408   1
   2   7  15 959.267 326.167   3
   2   7  15 903.291 398.245  13
  -2   7  15 800.089 325.682  13
   2   7  15 1285.61 334.174  12
  -2   7  15 1386.61 311.663  12
   2  -7 -15 222.869 128.271   2
   7  -2 -15 1350.53 375.668   5
  -7   2  15 305.069 208.773  11
  -2   7  15 1579.80 395.627  18
  -7  -2 -15 1251.19 380.418   8
  -7   2  15 674.338 288.687  18
   7  -2 -16 1197.81 417.970  17
   2  -7 -16 862.793 373.581  16
  -2  -7 -16 1037.32 456.274  16
   7  -2 -16 1379.84 429.405   2
  -7  -2 -16 1385.00 424.141  16
   7  -2 -16 916.856 330.409  16
  -7  -2 -16 1250.00 458.551   6
   2  -7 -16 629.862 337.577   6
  -2  -7 -16 1270.58 438.441   6
  -2   7  16 1103.78 337.500   3
   2   7  16 925.727 308.823   3
  -7   2  16 697.161 321.834   1
   2   7  16 993.794 432.711  13
  -2   7  16 1057.22 411.828  13
   2   7  16 1018.91 293.135  12
   2   7  16 1584.67 380.967  11
  -2   7  16 1421.66 454.880  11
   2  -7 -16 788.773 345.099   2
   7  -2 -16 1080.07 315.148   5
   7   2  16 50.3666 98.3259  19
  -2   7  16 1355.90 389.526  18
  -7  -2 -16 1393.92 452.863   8
  -7   2  16 569.534 284.843  18
   2  -7 -16 1119.54 406.460  17
   2  -7 -17-133.053 151.201  17
   7  -2 -17-60.1410 126.487  17
   2  -7 -17-11.6330 83.3827  16
  -2  -7 -17 31.6771 88.9360  16
   7  -2 -17-7.94701 125.126   2
   2   7  17 548.027 463.298   7
  -7  -2 -17 12.2902 128.333  16
   7  -2 -17 351.651 238.207  16
  -7  -2 -17-207.426 221.437   6
   2   7  17 204.042 257.820  15
  -2  -7 -17 75.8645 177.007   6
  -2   7  17 35.8973 91.6537   3
   7   2  17-28.6920 122.013  19
   2   7  17 45.7721 84.2953   3
   2   7  17 40.6859 96.2100  13
  -2   7  17 139.233 201.081  13
  -7   2  17 151.089 161.496   1
   2   7  17-70.8623 122.305  12
  -2   7  17-192.589 208.569  11
   2   7  17 43.1966 70.0127  11
   7  -2 -17 11.9531 60.7859   5
   2   7  17 101.194 147.066  20
  -2   7  17 37.7859 182.421  20
   2  -7 -17 134.520 175.274   2
  -2   7  17 170.216 161.784  18
  -7  -2 -17-113.405 191.301   8
  -7   2  17-356.901 267.450  18
  -7   3   0 1847.30 419.232  18
  -7  -3   0 2115.58 454.858   6
  -7  -3   0 1831.48 363.265  14
  -7   3   0 2282.73 585.185   1
   7   3   0 2583.24 415.687   5
  -7  -3   0 1672.59 371.876   1
   7   3   0 2393.74 393.190  19
  -7   3   0 2170.49 528.478   8
   7   3   0 2192.77 393.939   4
  -7  -3   0 1671.74 374.277   8
   7   3  -1 740.558 227.990   5
  -7  -3   1 435.255 206.457   8
   7   3   1 671.611 214.319   4
  -7  -3  -1 631.595 212.575   1
  -7   3   1 129.662 266.650  14
  -7  -3  -1 554.862 200.699  14
  -7  -3   1 460.666 182.776  14
  -7  -3  -1 595.294 216.972   6
  -7   3   1 661.279 296.325   8
   7   3   1 757.255 213.880   5
  -7  -3   1 510.414 215.636   1
   7   3   1 657.821 261.015  12
  -7  -3  -1 666.190 212.302   8
  -7   3  -1 487.198 279.910   1
   7   3   1 813.296 228.067  19
   7  -3  -1 170.706 126.282  17
  -7   3   1 939.956 297.125  18
  -7   3  -1 470.907 236.656   8
  -7   3   1 624.879 283.796   1
   7   3  -1 815.653 232.239  19
  -7   3   2 867.110 366.495   1
  -7  -3   2 370.687 150.216   8
  -7  -3  -2 986.996 253.788   6
  -7   3   2 1182.94 309.969  18
  -7  -3  -2 924.100 252.276  14
  -7   3   2 375.193 106.578  14
  -7  -3  -2 934.317 249.514   8
  -7  -3   2 848.276 311.483   1
  -7  -3   2 617.472 226.907  14
  -7   3  -2 897.570 337.384   8
   7   3   2 1063.94 298.042  12
   7   3   2 954.384 237.780   5
  -7  -3  -2 996.410 244.726   1
   7   3  -2 1177.44 295.628  19
   7   3   2 957.806 251.142   4
   7   3   2 1184.39 266.993  19
  -7   3   2 1222.32 333.095   8
   7  -3  -2-21.1243 137.699  17
  -7   3   3 1490.54 452.394   1
  -7  -3  -3 1438.44 306.558   6
  -7  -3  -3 1433.48 306.541  14
  -7  -3   3 732.840 297.572  14
  -7   3   3 956.550 421.848  14
   7   3   3 883.679 349.125   3
  -7   3   3 1378.77 331.970  13
   7   3   3 1343.97 316.281  12
   7   3   3 1400.73 285.334   5
  -7  -3  -3 1428.79 287.558   1
   7   3   3 1450.62 294.843  19
  -7   3   3 1823.47 392.499   8
  -7   3   3 1787.55 377.797  18
  -7  -3  -3 1275.98 298.184   8
   7   3   3 1459.84 299.780   4
   7  -3  -3 687.209 306.732  17
  -7  -3  -4 94.5718 70.2653   8
   7   3   4-1.11329 16.6321   4
  -7   3   4 16.1701 74.7169   1
  -7   3   4-122.975 191.080  14
   7  -3  -4 42.7595 60.0620  17
   7   3   4-10.1608 98.5152   3
  -7  -3  -4-41.5116 73.5932  14
  -7  -3  -4 18.7309 49.2934   6
  -7   3   4-19.7562 43.9936  13
   7  -3  -4-108.314 158.996   5
  -7  -3  -4 29.8247 65.6408   1
   7   3   4 8.81461 71.6371  12
   7   3   4-31.3912 45.8608   5
   7  -3  -4-116.765 156.600   2
   7  -3  -4 156.260 174.365  19
   7   3   4 16.8832 55.6467  19
  -7   3   4 73.0261 108.672  18
  -7   3   4-84.9987 101.626   8
  -7   3   5 852.621 262.989  18
  -7   3   5 734.122 195.838   8
   7   3   5 508.594 185.944   4
  -7   3   5 553.904 268.036   1
  -7   3   5 357.942 245.650  14
   7  -3  -5 183.735 77.1759   2
  -7  -3  -5 610.861 205.142  14
   7   3   5 574.409 236.045   3
  -7  -3  -5 673.705 211.112   6
  -7   3   5 706.004 206.535  13
   7  -3  -5 279.207 172.112   5
  -7  -3  -5 668.877 184.331   1
   7   3   5 503.324 191.097  12
   7   3   5 525.128 177.996  19
   7   3   5 515.355 179.908   5
   7  -3  -5 450.367 184.836  19
  -7  -3  -5 622.797 207.399   8
   7  -3  -5 387.894 228.192  17
   7  -3  -6 264.295 173.559  17
  -7  -3  -6 346.555 274.890  16
  -7   3   6 257.208 186.206  14
   7  -3  -6 153.441 43.6082   4
  -7   3   6 505.885 246.185   1
  -7  -3  -6 552.590 181.585  14
  -7   3   6 610.332 166.268   8
  -7  -3  -6 825.602 239.608   6
   7  -3  -6 372.307 209.109  19
   7   3   6 494.658 217.294   3
  -7   3   6 474.533 172.019  13
   7   3   6 452.533 176.658  12
   7  -3  -6 240.822 193.383   5
   7   3   6 550.597 180.648   5
  -7  -3  -6 504.337 183.169   8
   7   3   6 412.299 155.967  19
   7  -3  -6 473.640 236.008   2
  -7   3   6 681.244 232.523  18
   7   3   6 477.389 184.376   4
  -7  -3  -6 593.367 177.893   1
  -7  -3  -7 2587.30 586.182  16
   7  -3  -7 1241.32 243.670  16
  -7  -3  -7 1703.37 338.596   6
   7   3   7 1584.03 410.934   3
  -7   3   7 4926.46 985.030  14
  -7  -3  -7 1540.95 313.579  14
  -7   3   7 1775.51 314.182  13
   7   3   7 1300.08 320.166   5
  -7   3   7 2284.64 523.147   1
   7   3   7 1623.88 403.749  12
  -7  -3  -7 1999.76 337.737   1
   7  -3  -7 1972.10 467.187   4
   7  -3  -7 1763.80 475.139   5
  -7   3   7 2740.96 534.565  11
  -7   3   7 3975.41 762.356  20
   7  -3  -7 2730.29 445.713  19
   7   3   7 1392.03 320.982  19
   7   3   7 1649.86 417.177   4
  -7   3   7 2452.94 317.647   8
  -7  -3  -7 1653.30 344.860   8
  -7   3   7 2189.21 445.426  18
   7  -3  -7 2301.96 534.004  17
   7  -3  -8 132.681 25.0276  17
  -7   3   8 430.464 126.841   8
   7  -3  -8 279.716 121.448  16
  -7  -3  -8 455.241 230.519  16
   3   7   8 447.580 200.034   3
  -7   3   8 134.160 205.605  14
  -7  -3  -8 456.728 176.255  14
  -7  -3  -8 426.624 188.453   6
  -7  -3  -8 440.471 192.827   1
  -3   7   8 184.172 78.1330  13
   7   3   8 8.61232 63.2542  13
  -3  -7  -8 166.681 156.618   6
   7   3   8 195.190 100.605   3
  -7   3   8 344.696 194.297   1
  -7   3   8 260.748 140.305  13
   7   3   8 331.873 146.313  12
   7  -3  -8 228.176 139.919   5
   7   3   8 255.662 133.535   5
   3   7   8 265.625 124.524  12
  -7  -3  -8 295.095 132.244   8
  -7   3   8 413.823 228.727  11
   7   3   8 284.905 123.025  10
   7   3   8 405.788 202.026  20
  -7   3   8 438.305 236.748  10
  -7   3   8 440.461 251.669  20
   7  -3  -8 289.522 176.349   2
   7  -3  -8 303.512 142.738  19
   7   3   8 231.811 146.898  19
   7  -3  -8 179.408 98.3171   4
  -7   3   8 269.890 154.591  18
   7   3   8 257.004 156.486   4
  -3   7   9 2829.43 559.950  18
   7  -3  -9 3022.74 416.899  16
  -7  -3  -9 6036.89 870.816  16
  -7  -3  -9 4071.61 590.263   6
   3   7   9 4098.42 673.736   3
   7   3   9 3484.81 692.921  15
   7   3   9 2217.72 450.808   3
  -7  -3  -9 4139.00 561.211  14
  -7   3   9 2067.71 609.428  14
  -3   7   9 4175.97 761.337  13
  -3  -7  -9 1341.24 376.889   6
   7   3   9 646.605 262.482  13
  -7  -3  -9 4827.55 752.164   1
   7   3   9 3230.09 586.987   5
   7  -3  -9 2962.84 574.688   5
   7   3   9 1966.67 416.879  12
  -7   3   9 3601.40 654.044   1
   3   7   9 3854.71 549.642  12
   7  -3  -9 3089.07 532.157   2
  -7   3   9 4857.71 752.855  11
   7   3   9 2649.41 414.522  10
  -7   3   9 4144.60 795.534  10
   7   3   9 2711.08 529.960  20
   7   3   9 2278.21 423.155  19
   7  -3  -9 3450.77 422.859  19
  -7   3   9 5053.96 885.978   9
   7   3   9 3081.83 426.737   9
   7  -3  -9 3222.47 563.462   4
   7   3   9 2681.80 533.371   4
  -7  -3  -9 3831.79 556.577   8
   7  -3  -9 3091.26 581.815  17
  -7   3   9 4234.45 621.867  18
  -7   3  10 252.294 253.392  10
   7  -3 -10 170.987 112.648  16
  -7  -3 -10 274.808 197.034  16
   7   3  10 349.357 263.564   7
   7   3  10 160.659 203.020  15
   7   3  10 132.460 143.292  10
  -3   7  10 97.5526 102.277   3
  -7   3  10 95.2849 108.319  14
  -7  -3 -10 147.441 105.253   6
  -7  -3 -10 252.037 141.864  14
   3   7  10 202.442 141.469   3
   3   7  10-290.407 397.575  13
  -7  -3 -10 173.861 161.947   1
  -3  -7 -10 150.862 137.316   6
  -3   7  10 160.552 139.220  13
   7  -3 -10 194.962 158.315  17
  -7   3  10 79.2573 47.0725   3
   3  -7 -10 91.4523 74.1419   6
   7   3  10 141.793 132.015  13
   7  -3 -10 112.852 91.2514  19
   7   3  10 58.8164 112.558  12
   7   3  10 159.990 153.604   3
   7   3  10 72.5403 182.037   5
  -3   7  10 25.2916 75.3383  18
   3   7  10 151.947 108.092  12
   7  -3 -10 5.17886 58.3845   5
  -7   3  10 131.484 119.393   1
  -7   3  10 287.430 212.095  11
   7   3  10 22.0855 108.119  20
   7  -3 -10 120.510 97.6882   4
  -7   3  10 195.035 198.715   9
   7   3  10-45.8182 84.6791  19
   7   3  10 88.1761 81.4721   9
   7   3  10 148.190 141.104   4
  -7   3  10 199.046 146.898  18
   7  -3 -10 220.254 178.553   2
   3  -7 -10 30.0744 159.347  17
  -7  -3 -10 243.549 145.395   8
   7  -3 -11 1043.54 349.062  17
   7   3  11 779.165 330.093   4
  -7  -3 -11 2041.36 517.684  16
   7  -3 -11 1264.38 291.978  16
   7   3  11 880.665 381.268   7
  -7   3  11 1144.78 438.284  10
  -7  -3 -11 1473.29 392.512   6
  -3   7  11 1339.19 337.555   3
   3   7  11 1162.09 344.273   3
   7   3  11 1067.67 443.356  15
  -7  -3 -11 1654.00 400.537  14
  -7   3  11 1199.55 513.466   9
  -3  -7 -11 1049.13 351.507  14
  -3   7  11 1412.96 423.290  13
  -3  -7 -11 558.066 232.498   6
   3  -7 -11 276.465 162.917   6
   3   7  11 1189.88 487.913  13
   3   7  11 1206.00 303.145  12
   7   3  11 446.516 210.062   3
  -7   3  11 1354.47 378.382  18
   7  -3 -11 1200.03 371.206   5
   3   7  11 1767.84 435.284  18
  -7   3  11 1439.15 448.311  11
  -7   3  11 960.136 354.769   1
   7   3  11 877.310 351.589  20
   7   3  11 703.305 228.221  10
   7   3  11 579.301 219.394  19
   3   7  11 1396.02 263.378   4
  -7  -3 -11 1537.58 379.898   8
  -3   7  11 1383.06 410.138  18
   7  -3 -11 1233.41 343.006   4
   7  -3 -11 931.879 237.449  19
   7  -3 -11 1064.07 320.421   2
   3  -7 -11 95.7254 170.450  17
   7  -3 -12 1423.87 418.871  17
   7  -3 -12 1513.58 347.479  16
   7   3  12 659.537 361.188   7
  -7  -3 -12 1899.16 495.730  16
  -7  -3 -12 1697.52 431.647   6
  -3   7  12 1481.79 357.892   3
   3   7  12 1230.07 365.088   3
   7   3  12 815.246 390.721  15
  -7  -3 -12 1825.38 437.417  14
  -3  -7 -12 1044.39 281.937  14
   7   3  12 591.022 234.392  10
  -7   3  12 1270.23 397.335   1
   3  -7 -12 483.544 206.869   6
  -3  -7 -12 1013.66 349.331   6
  -3   7  12 1436.70 428.370  13
   3   7  12 1397.80 577.948  13
   3   7  12 1391.49 330.739  12
   7   3  12 486.849 247.035  20
   7   3  12 719.227 264.274  19
   7  -3 -12 1298.29 384.098   5
  -7   3  12 1480.98 455.376  11
  -7   3  12 1328.36 529.406   9
  -7  -3 -12 1452.25 371.690   8
  -3   7  12 1677.33 436.375  18
   7  -3 -12 1620.62 413.043   2
   7   3  12 225.205 82.3595   4
  -7   3  12 1363.63 392.928  18
  -7   3  12 1280.88 619.017  10
   3  -7 -12 501.563 291.250  17
  -3  -7 -13 846.495 420.715   8
  -3  -7 -13 639.813 232.737  16
   7   3  13 641.840 309.579   7
  -7  -3 -13 1547.72 446.390  16
   7  -3 -13 1142.67 323.793  16
  -3   7  13 1195.60 324.332   3
   7   3  13 565.770 279.794  15
  -7   3  13 961.564 360.775   1
  -7  -3 -13 1243.44 378.903   6
  -7  -3 -13 1677.00 468.308  14
  -7   3  13 1028.68 323.153  18
   3  -7 -13 365.168 180.919   6
   3   7  13 1178.28 349.671   3
  -3  -7 -13 961.103 336.518   6
   3   7  13 1311.28 538.701  13
  -3   7  13 1071.74 367.975  13
   7   3  13 423.427 189.193  19
   3   7  13 1183.33 319.947  12
  -3   7  13 1340.70 376.633  18
   7  -3 -13 1459.50 414.073   5
  -7   3  13 1335.03 473.872  11
  -7   3  13 846.516 453.177   9
  -7  -3 -13 1632.85 420.233   8
   7  -3 -13 1592.61 458.121  17
   7  -3 -13 1441.37 420.716   2
   3  -7 -13 680.832 330.871  17
  -7  -3 -14 2122.43 561.911  16
   7  -3 -14 1621.15 406.930  16
   7   3  14 479.105 257.944   7
   3  -7 -14 716.111 282.278  16
  -3  -7 -14 1019.39 388.230  16
   7  -3 -14 1519.73 468.170   2
  -3   7  14 1436.85 359.802   3
   7   3  14 193.853 202.452  15
   3   7  14 1604.38 418.172   3
  -7  -3 -14 1989.12 569.158  14
  -7  -3 -14 1746.96 488.648   6
  -3  -7 -14 852.695 361.986   6
   3   7  14 1237.66 517.055  13
  -3   7  14 1354.33 417.400  13
   7  -3 -14 1799.18 465.347   5
   3   7  14 1573.91 365.028  12
   3  -7 -14 348.659 204.551   2
  -7   3  14 1375.91 466.062  11
  -3   7  14 1523.08 418.748  18
   7   3  14 315.553 159.213  19
  -7   3  14 603.026 120.213   9
  -7  -3 -14 1741.72 417.096   8
  -7   3  14 1226.24 415.615   1
  -7   3  14 1127.10 359.626  18
   7  -3 -14 1859.83 502.824  17
   3  -7 -14 717.264 360.110  17
   3  -7 -15 508.397 288.047  17
   7  -3 -15 840.523 330.789   2
   7  -3 -15 728.687 333.119  17
   3  -7 -15 347.239 180.602  16
  -3  -7 -15 797.851 419.933  16
  -7  -3 -15 1086.72 426.426  16
   7  -3 -15 780.951 296.550  16
  -7  -3 -15 1007.95 368.118   6
  -7  -3 -15 966.572 422.051  14
  -3  -7 -15 604.716 287.881   6
  -3   7  15 862.042 283.822   3
   3   7  15 611.208 262.393   3
   3   7  15 881.814 431.126  13
  -3   7  15 756.187 304.561  13
   7   3  15 349.275 217.265  19
   3   7  15 693.829 252.186  12
   7  -3 -15 839.341 317.738   5
  -7   3  15 525.885 281.176  11
   3  -7 -15 137.436 246.102   2
  -7   3  15 550.373 260.248  18
  -7   3  15-1043.75 540.394   9
  -3   7  15 958.680 327.874  18
  -7   3  15 548.863 314.141   1
  -7  -3 -15 750.488 292.919   8
   3  -7 -16 849.931 456.292  17
   7  -3 -16 241.884 29.9239   2
   3  -7 -16 316.800 263.132  16
  -3  -7 -16 322.842 269.504  16
  -7  -3 -16 600.970 270.104  16
   7  -3 -16 213.307 167.644  16
  -7  -3 -16 549.788 347.136   6
  -7  -3 -16 916.929 423.071  14
  -3  -7 -16 352.037 253.917   6
  -3   7  16 522.511 247.752   3
   3   7  16 269.032 104.450   3
   3   7  16 592.571 316.357  13
  -3   7  16 397.750 282.658  13
   7  -3 -16 405.076 212.800  17
   7   3  16-38.6500 189.014  19
   3   7  16 273.456 134.750  12
  -3   7  16 456.937 208.978  11
   7  -3 -16 381.691 258.158   5
  -7   3  16 274.663 89.8760  11
   3  -7 -16 301.654 179.663   2
  -3   7  16 313.198 204.168  18
  -7   3  16 189.664 164.762  18
  -7   3  16 77.0448 39.0583   1
  -7  -3 -16 728.604 330.305   8
   3  -7 -17 981.343 398.030  17
   7  -3 -17 1439.27 469.204  17
   3  -7 -17 1152.13 422.137  16
  -3  -7 -17 1364.86 579.738  16
  -7  -3 -17 1774.01 547.957  16
   3   7  17 2039.27 817.948   7
   7  -3 -17 1546.95 428.024  16
   3   7  17 1512.55 659.230  15
  -7  -3 -17 1534.66 528.357   6
  -3  -7 -17 1013.37 418.268   6
   7  -3 -17 1559.07 498.718   2
  -3   7  17 1238.94 359.297   3
   3   7  17 883.434 348.022   3
   3   7  17 964.886 409.386  13
  -3   7  17 1000.36 408.370  13
   3   7  17 1045.68 331.278  12
  -3   7  17 1502.42 514.906  11
   3   7  17 1279.46 573.332  20
  -7   3  17 319.329 141.428  11
  -3   7  17 1732.24 672.414  20
   3  -7 -17 761.329 379.664   2
  -3   7  17 1392.76 396.651  18
  -7   3  17 810.497 317.419  18
  -7  -3 -17 1605.77 455.735   8
  -7   3  17 729.301 379.690   1
  -7  -4   0-5.36065 17.1139  14
   7   4   0-98.6001 130.177  19
  -7  -4  -1 837.898 292.549   8
  -7  -4  -1 846.826 280.790  14
  -7  -4  -1 1070.02 390.452   6
   7   4   1 1722.86 358.428   5
   7   4   1 1574.95 352.787  19
  -7   4   1 707.820 304.682   1
  -7  -4  -1 1037.96 294.304   1
  -7  -4  -2 182.779 114.938   8
  -7   4   2 156.794 120.525   8
   7   4   2 174.759 66.1263   4
  -7   4   2 314.941 158.329  18
  -7  -4  -2 257.769 159.106  14
  -7  -4  -2 185.889 156.397   6
  -7  -4  -2 267.692 156.871   1
   7   4   2 191.243 105.998  12
   7   4   2 272.225 107.738   5
  -7   4   2 20.4031 184.938   1
   7   4   2 348.355 188.844  19
  -7   4   3 87.5507 110.080   8
  -7  -4  -3 189.183 126.980   8
   7   4   3 263.770 133.942   4
  -7  -4  -3 373.807 190.602  14
  -7  -4  -3 261.992 181.237   6
   7   4   3 260.962 148.112  12
  -7  -4  -3 242.211 135.151   1
   7   4   3 277.417 149.713   5
   7   4   3 372.795 161.415  19
  -7   4   3 164.425 115.940   1
  -7   4   3 474.099 237.703  18
   7  -4  -3 3.40467 95.5445  17
  -7  -4  -4 480.216 185.005   8
   7   4   4 578.253 200.173  19
   7   4   4 584.369 216.786   4
  -7   4   4 524.689 208.172  18
   7   4   4 491.826 288.497   3
  -7  -4  -4 366.351 174.514  14
  -7   4   4 197.735 81.2714  13
  -7  -4  -4 479.910 203.296   6
   7   4   4 585.682 232.634  12
  -7   4   4 503.137 187.901   8
   7   4   4 549.785 187.920   5
  -7  -4  -4 427.983 158.390   1
  -7   4   4 459.070 279.256   1
   7  -4  -4 136.985 188.026  17
  -7  -4  -5 50.2795 74.0983   8
   7   4   5 69.2651 65.6105   4
  -7  -4  -5 94.3166 80.9722   1
   7   4   5 23.3605 26.2830   3
  -7  -4  -5 13.2595 82.0703  14
  -7  -4  -5 44.7747 76.8675   6
  -7   4   5 253.803 184.694  13
   7   4   5 135.989 100.348  12
   7   4   5-4.09905 48.6348   5
  -7   4   5 82.3175 150.087   8
   7   4   5 56.3651 54.7608  19
  -7   4   5 210.515 260.992  18
   7  -4  -5 248.157 217.518  17
  -7   4   5 380.373 255.794   1
  -7  -4  -6 341.828 155.276   8
  -7   4   6 657.012 407.708   1
   7   4   6 533.163 220.632   4
   7  -4  -6 206.821 230.520  19
   7   4   6 289.057 163.103   3
  -7  -4  -6 474.913 191.907  14
  -7  -4  -6 476.864 189.583   6
  -7   4   6 502.103 221.313  13
   7   4   6 352.169 152.467  12
  -7  -4  -6 359.782 128.058   1
   7  -4  -6-27.7742 94.9460   2
   7   4   6 446.346 152.648   5
   7   4   6 474.014 177.055  19
  -7   4   6 458.083 230.612  18
  -7   4   6 415.175 134.878   8
   7  -4  -6 279.462 231.623  17
   7   4   7 750.998 237.444   4
  -7   4   7 820.424 196.373   8
  -7   4   7 734.374 374.823   1
  -7  -4  -7 528.463 155.419   1
  -7  -4  -7 619.497 219.940   8
  -7  -4  -7 728.152 225.854  14
   7   4   7 690.596 276.423   3
  -7  -4  -7 760.449 244.528   6
  -4   7   7 329.733 118.861  13
  -7   4   7 687.486 226.780  13
  -4  -7  -7 58.8015 102.177   6
   7   4   7 732.372 217.034   5
   7   4   7 569.408 223.343  12
   7  -4  -7 363.647 179.777   2
   7  -4  -7 474.813 191.286  19
   7   4   7 631.294 202.752  19
  -7   4   7 831.855 294.889  18
   7  -4  -7 491.746 252.142  17
   7  -4  -8 950.247 355.410  17
  -7  -4  -8 1204.45 375.587  16
   4   7   8 1582.34 448.657   3
  -7  -4  -8 1558.42 356.460   6
  -7   4   8 1012.72 401.602   1
  -7  -4  -8 1349.54 304.236  14
   7  -4  -8 747.962 254.101   2
   7   4   8 935.203 309.495   3
  -7   4   8 1307.87 298.158  13
  -4   7   8 1100.41 359.130  13
  -4  -7  -8 223.825 171.330   6
   7   4   8 1259.67 285.325   5
   4   7   8 1563.14 349.815  12
  -7  -4  -8 1428.34 279.205   1
   7  -4  -8 390.422 220.744   5
   7   4   8 998.448 282.105  12
   7   4   8 1247.06 306.004  19
   7  -4  -8 978.830 243.929  19
   7   4   8 1346.85 342.104   4
  -7   4   8 1461.41 375.679  18
  -4   7   8 751.358 279.372  18
  -7  -4  -8 1245.73 309.863   8
   7  -4  -9 5.68751 116.169  17
  -7  -4  -9 2.75764 72.2989   8
   7  -4  -9-196.195 184.526  16
  -7  -4  -9-38.8600 185.358  16
  -7   4   9 17.4596 90.0783   1
  -7   4   9-65.1907 111.910   3
   4   7   9-28.6826 63.0297   3
   7   4   9 8.70285 36.2797   4
  -7  -4  -9-13.2215 25.3570  14
  -7  -4  -9 111.524 138.048   6
   7   4   9-87.6314 143.834  13
  -4   7   9 18.8996 64.0272  13
   7   4   9 46.2623 146.185   3
  -4  -7  -9-1.19687 59.3491   6
   4  -7  -9-5.24921 135.013   6
  -7   4   9 6.43580 34.2168  13
  -7  -4  -9 15.0042 10.8508   1
   7   4   9 3.38540 52.5357  19
   7  -4  -9-30.0355 125.902   5
   7   4   9-67.3483 89.5145  12
   4   7   9-1.65958 29.5081  12
   7   4   9 13.5141 53.7676   5
  -7   4   9 5.36167 91.4674  11
  -4   7   9 62.5266 145.955  18
  -7   4   9 155.559 178.649  20
  -7   4   9-19.2115 21.5325  18
   7  -4  -9-1.87301 63.3819   2
   7  -4  -9-34.7291 46.3163  19
   7  -4 -10 864.597 322.692  17
   7   4  10 1322.96 380.404  20
   7  -4 -10 987.857 277.198  16
  -7  -4 -10 2065.84 591.338  16
  -4   7  10 1210.72 394.559  18
  -7  -4 -10 1592.98 389.818   6
   4   7  10 1573.36 442.105   3
  -7  -4 -10 1349.20 313.978  14
  -7   4  10 1297.02 441.832   1
  -4  -7 -10 1410.48 490.556  14
  -4   7  10 1527.92 424.104  13
  -7   4  10 1345.03 316.751  13
   4   7  10-55.5079 432.531  13
  -4  -7 -10 684.463 276.154   6
   4  -7 -10 197.302 116.516   6
   7   4  10 929.102 308.527   3
   4   7  10 1492.53 349.321  12
   7   4  10 973.814 282.663  12
   7  -4 -10 860.579 350.330   5
   7   4  10 1308.09 377.130   5
  -7   4  10 1870.00 479.545  11
  -7   4  10 1553.28 491.348  10
  -7   4  10 2233.15 652.093  20
   4  -7 -10 341.284 262.280  17
   7  -4 -10 1041.68 243.357  19
   7   4  10 919.566 270.197  19
   7  -4 -10 865.884 310.880   2
   4   7  10 1658.47 335.178   4
  -7  -4 -10 1647.67 370.381   8
  -7   4  10 1463.48 399.443  18
   7   4  10 1238.99 348.083   4
   4  -7 -11 208.879 224.433  17
  -7   4  11 592.681 254.932  18
  -4  -7 -11-52.7865 517.253   8
   4   7  11 739.471 210.320   4
   7  -4 -11 445.012 181.248  16
  -7  -4 -11 1091.28 414.104  16
   7   4  11 418.773 175.271  19
   7   4  11 730.589 402.675  15
  -4   7  11 700.116 248.432   3
  -7  -4 -11 752.180 299.738   6
  -7  -4 -11 704.207 236.769  14
   4   7  11 593.628 256.096   3
  -7   4  11 595.074 316.007   1
  -4  -7 -11 506.322 228.523  14
  -4  -7 -11 347.578 174.390   6
   4   7  11-10.3523 220.386  13
  -4   7  11 609.051 254.352  13
   7   4  11 402.109 233.994   3
  -7   4  11 631.537 230.295  13
   7   4  11 385.489 175.968  12
   7  -4 -11 441.875 295.024   5
   4   7  11 625.691 231.810  12
  -7   4  11 902.889 363.318  11
   7   4  11 464.638 190.827  10
   7   4  11 630.106 282.198  20
  -7   4  11 309.043 45.4969  20
  -7   4  11 679.468 386.483  10
  -4   7  11 613.415 280.678  18
   7  -4 -11 661.332 298.907  17
   7  -4 -11 454.972 248.852   2
   7   4  11 543.637 262.224   4
  -7  -4 -11 665.294 236.967   8
   7  -4 -12 216.008 135.408  17
  -7   4  12 338.665 204.876  18
  -4  -7 -12 61.1140 231.667   8
   7  -4 -12 272.813 177.907  16
  -7  -4 -12 649.872 278.269  16
   7   4  12 208.151 220.397   7
   7   4  12 253.087 202.254  15
  -7   4  12 529.281 302.785  10
  -4   7  12 277.388 153.362   3
  -7  -4 -12 341.443 198.807   6
  -7  -4 -12 477.314 211.847  14
   4   7  12 297.858 177.039   3
   7  -4 -12 219.350 212.584   2
  -4  -7 -12 303.112 159.221  14
  -4  -7 -12 215.308 134.280   6
  -7   4  12 229.569 171.130   1
   4   7  12 338.708 248.528  13
  -4   7  12 444.623 258.214  13
  -7   4  12 426.282 200.060  13
   7   4  12 352.903 222.304   3
   7   4  12 132.248 90.8201  12
   7  -4 -12 257.662 191.713   5
   4   7  12 344.391 178.804  12
  -7   4  12 397.577 264.261  11
  -7  -4 -12 354.792 155.420   8
   7   4  12 341.195 237.582  20
  -7   4  12-74.9100 471.502  20
  -7   4  12 610.722 404.142   9
   7   4  12 286.924 164.310  19
  -4   7  12 431.728 236.586  18
   7   4  12 360.182 201.305   4
   7   4  12 235.137 187.111  10
   4  -7 -12 231.936 167.909  17
   7   4  13 1093.17 361.195   4
   7  -4 -13 2196.28 453.011  16
  -7  -4 -13 3245.41 743.329  16
  -4  -7 -13 1282.58 458.024  16
   7   4  13 1635.54 601.001   7
  -7  -4 -13 2373.77 548.292   6
  -4   7  13 2153.25 432.494   3
   4   7  13 1948.49 479.782   3
   7   4  13 1500.27 534.562  15
  -7  -4 -13 2690.50 529.340  14
  -4  -7 -13 1305.67 406.347   6
  -4   7  13 2073.04 506.583  13
   4   7  13 2126.66 697.377  13
  -7   4  13 2205.27 617.634   1
   4   7  13 2243.98 443.400  12
   7   4  13 1015.75 343.500   3
   7   4  13 930.625 343.582  12
   7  -4 -13 1901.41 491.569   2
   7  -4 -13 1681.95 496.395   5
  -7   4  13 2616.86 619.459  11
  -4  -7 -13 2161.19 538.257   8
   7   4  13 1736.58 518.694  20
   7   4  13 1204.01 358.382  10
  -7   4  13 2412.87 736.786  10
   7   4  13 1379.87 350.579  19
  -7  -4 -13 2238.47 462.735   8
  -4   7  13 2590.62 548.561  18
  -7   4  13 2092.97 501.948  18
   7  -4 -13 2014.16 538.137  17
  -7   4  13 2524.12 763.824   9
   4  -7 -13 845.553 371.586  17
   4  -7 -14 184.824 187.305  17
   7  -4 -14 559.401 318.363  17
  -4  -7 -14 224.200 113.774   8
   7   4  14 61.6917 69.8093  20
   4  -7 -14-12.5977 234.424  16
  -4  -7 -14-211.368 341.941  16
   7   4  14 94.0653 186.035   7
   7  -4 -14 405.643 211.886  16
  -7  -4 -14 623.062 360.127  16
   7   4  14 286.701 260.177  15
  -7  -4 -14 329.582 174.613   6
  -7  -4 -14 464.115 224.455  14
  -4   7  14 402.495 182.822   3
  -4  -7 -14 268.922 231.076   6
   4   7  14 281.106 203.664   3
   4   7  14 310.574 252.739  13
  -4   7  14 378.606 234.452  13
  -7   4  14 509.901 346.096   1
   7   4  14 203.638 195.995  12
   7   4  14 245.370 228.818   3
   4   7  14 325.984 175.304  12
   7  -4 -14 140.921 157.099   5
  -7   4  14 442.987 261.534  11
   4  -7 -14-130.475 284.882   2
   7   4  14 323.867 207.738  10
   7   4  14 354.792 219.268  19
  -7   4  14 306.004 307.875   9
  -7   4  14 553.865 382.701  10
  -4   7  14 436.682 234.658  18
  -7   4  14 282.893 188.090  18
   7  -4 -14 288.901 219.847   2
  -7  -4 -14 474.546 203.709   8
   4  -7 -15 312.933 251.234  17
   7  -4 -15 1358.23 470.881  16
   4  -7 -15 84.7005 148.839  16
  -4  -7 -15 734.262 362.084  16
   7   4  15 546.450 406.274   7
  -7  -4 -15 1160.42 457.457  16
   7   4  15 72.4452 48.1840  15
  -7  -4 -15 900.797 363.087   6
  -7  -4 -15 1353.57 501.455  14
  -4  -7 -15 734.636 344.819   6
  -4   7  15 710.299 271.949   3
   4   7  15 646.279 273.110   3
  -4   7  15 793.265 266.189  18
   4   7  15 550.445 289.805  13
  -4   7  15 487.347 228.080  13
   7   4  15 630.159 383.811  12
  -7   4  15 395.219 334.422   1
   7   4  15 534.101 310.911   3
   4   7  15 624.435 239.773  12
  -7   4  15 582.538 564.752  10
   7  -4 -15 560.293 333.879   5
  -4   7  15 675.375 265.328  11
  -7   4  15 541.890 299.474  11
   4  -7 -15-110.987 297.258   2
   7   4  15 303.862 134.562  20
   7   4  15 509.001 303.878  10
   7   4  15 396.830 195.125  19
  -7   4  15 675.938 272.854  18
  -7   4  15 135.365 161.401   9
   7  -4 -15 832.415 420.577   2
   7  -4 -15 1567.81 602.352  17
  -7  -4 -15 707.717 239.024   8
   4  -7 -16 244.021 227.124  17
   7  -4 -16 334.829 222.034   2
   7  -4 -16 557.438 266.807  17
   7   4  16-61.2339 205.365   7
   4  -7 -16 253.989 223.662  16
  -4  -7 -16 287.471 318.209  16
  -7  -4 -16 636.064 421.063  16
   7  -4 -16 265.170 142.711  16
   7   4  16-65.6541 164.047  15
  -7   4  16 25.9807 203.687   9
  -7  -4 -16 713.163 336.440   6
  -4  -7 -16 569.218 340.195   6
  -4   7  16 462.781 218.126   3
   4   7  16 245.100 172.764   3
   4   7  16 424.942 316.934  13
  -4   7  16 503.549 277.126  13
   7   4  16 272.661 292.615  12
   7   4  16 235.883 236.153   3
   4   7  16 261.296 144.608  12
  -7   4  16 252.379 191.240   1
  -4   7  16 761.079 348.801  11
  -7  -4 -16 455.482 226.345   8
  -7   4  16 447.147 233.433  11
  -4   7  16 427.689 405.969  20
   4  -7 -16 57.6388 119.541   2
   7   4  16 16.2405 78.2253  10
  -7   4  16 185.682 230.912  10
  -7   4  16 467.982 247.429  18
  -4   7  16 309.369 203.094  18
  -7  -5  -2-77.5016 280.535   8
  -7  -5  -3-127.832 188.313   8
  -7  -5  -3 35.0337 97.9376  14
  -7  -5  -3-172.541 195.571   6
   7   5   3-176.732 218.123  12
   7   5   3-39.9230 114.421  19
  -7   5   3-120.334 153.595  18
  -7  -5  -4 28.8591 44.6991   8
   7   5   4 19.2103 89.3685   4
  -7  -5  -4 1.05479 9.16617   1
   7   5   4 20.6119 63.8423  19
  -7  -5  -4-86.9473 107.077  14
  -7  -5  -4 43.2840 48.0231   6
   7   5   4 59.7135 98.8649  12
  -7   5   4-24.6535 225.569   1
  -7   5   4 144.480 173.784  18
   7   5   4 72.5184 73.4012   5
  -7   5   4-117.565 168.210   8
  -7  -5  -5 88.8531 94.2004   8
   7   5   5 137.040 132.359   4
   7   5   5 44.1568 124.086   3
  -7  -5  -5 27.1697 59.8501  14
  -7   5   5-119.205 253.993  13
  -7  -5  -5 72.5540 91.6944   6
   7   5   5 37.5521 58.2824  12
   7   5   5 23.0598 15.5179  19
  -7   5   5 92.8779 126.491  18
  -7   5   5 42.7471 118.230   1
  -7   5   5-21.3849 62.9061   8
   7  -5  -5 78.3036 224.615  17
   7   5   5 24.6311 44.5977   5
  -7  -5  -5-29.0484 66.6872   1
  -7  -5  -6 134.064 117.155   8
  -7   5   6 383.241 216.605  18
   7   5   6 217.675 125.264   4
   7   5   6 194.669 173.106   3
  -7  -5  -6 246.116 133.324  14
  -7  -5  -6 264.024 179.592   6
  -7   5   6 265.167 178.844  13
   7   5   6 264.226 153.415  12
   7   5   6 281.445 138.989   5
   7   5   6 275.122 140.449  19
  -7   5   6 109.204 226.761   1
  -7   5   6 175.166 111.349   8
   7  -5  -6-110.049 158.206  17
  -7  -5  -6 210.326 118.838   1
  -7  -5  -7 74.7134 81.4080   8
   7   5   7-6.67224 24.2377   4
  -7  -5  -7 59.6594 91.7020   1
   7   5   7-30.2539 53.9505   3
  -7  -5  -7 112.002 115.811  14
  -7  -5  -7 42.4200 50.0689   6
  -7   5   7 52.8877 44.5262  13
  -5  -7  -7-18.9286 46.5753   6
   7   5   7 77.1913 106.541  12
   5   7   7-20.4098 99.6018  12
   7   5   7 8.07561 58.9668   5
   7   5   7 58.7453 58.5368  19
  -5   7   7-49.8388 135.346  18
  -7   5   7-69.7997 109.277  18
  -7   5   7 1.83355 24.7602   1
   7  -5  -7 83.3845 44.0509  17
  -7  -5  -8 184.167 127.022   8
   5   7   8 77.8277 30.8043   3
  -7   5   8 281.889 252.560   1
   7   5   8 220.957 136.430   4
   7   5   8 167.620 136.628   3
  -7  -5  -8 72.0275 50.9825  14
  -7  -5  -8 171.545 129.808   6
  -5   7   8 46.4509 188.320  13
  -7   5   8 114.677 104.786  13
  -5  -7  -8 51.6207 104.176   6
  -7  -5  -8 153.154 93.3678   1
   7   5   8 206.915 121.723  12
   5   7   8 223.281 148.267  12
   7   5   8 179.413 99.9695  19
   7  -5  -8-114.660 218.994   2
   7   5   8 175.441 93.3487   5
  -7   5   8 171.878 98.7078  18
   7  -5  -8 251.467 162.638  17
   7  -5  -8-23.1257 42.9679  19
  -5   7   8 62.8054 74.7798  18
  -7  -5  -9 431.556 197.509   8
   5   7   9 414.864 147.054   4
   5   7   9 614.986 318.116   3
  -7  -5  -9 345.066 152.906  14
   7   5   9 471.679 249.180   3
  -7  -5  -9 372.468 182.922   6
  -5  -7  -9 392.052 311.606  14
  -5   7   9 436.267 234.872  13
  -5  -7  -9 157.174 158.018   6
  -7   5   9 350.002 176.629  13
   7   5   9 343.864 162.745  12
   5   7   9 474.839 202.767  12
   7   5   9 350.955 147.584   5
   7  -5  -9 114.608 45.2250   2
   7  -5  -9 381.124 168.270  19
   7   5   9 420.545 173.555  19
   7   5   9 316.382 157.155   4
  -5   7   9 500.418 240.823  18
  -7   5   9 459.721 237.432  18
   5  -7  -9 102.767 48.7359  17
  -7   5   9 321.967 284.651   1
   7  -5  -9 106.272 131.764  17
   7  -5 -10-29.9794 16.0661  17
   7   5  10 231.128 143.203   4
  -7  -5 -10 245.995 163.866   8
  -7   5  10 228.990 239.434   1
  -5  -7 -10-202.839 339.145   8
  -7  -5 -10 36.9256 330.712  16
   5   7  10 207.649 124.553   4
   5   7  10 242.111 185.707   3
  -7  -5 -10 225.893 136.787  14
  -7  -5 -10 165.876 136.352   6
  -5  -7 -10 230.404 158.104  14
   7   5  10 114.709 120.856   3
  -5  -7 -10 225.440 183.055   6
  -5   7  10 345.329 223.804  13
  -7   5  10 204.179 151.206  13
   7   5  10 42.3579 100.468  12
   5   7  10 200.192 137.814  12
   7  -5 -10 136.990 138.937   2
   7   5  10 210.972 128.325  19
  -7   5  10 212.212 138.674  18
  -5   7  10 148.098 147.053  18
   5  -7 -10 73.3101 110.959  17
  -7  -5 -11 18.2214 60.9296   8
  -5  -7 -11-137.982 253.044   8
   5   7  11 113.421 128.119   4
  -7   5  11 83.4904 164.289   1
   7  -5 -11-154.069 220.817  16
  -7  -5 -11-65.3533 316.152  16
   7  -5 -11 197.969 183.833   2
  -5   7  11-97.1174 181.171   3
  -5   7  11-31.0949 160.980  18
   5   7  11-49.5550 11.7197   3
  -7  -5 -11 12.2533 37.2841  14
  -7  -5 -11 47.1382 39.2840   6
  -7   5  11-30.6775 159.902  20
  -5  -7 -11 4.54432 6.78929  14
  -5  -7 -11 19.1757 67.2961   6
   7   5  11 81.7199 157.157   3
  -5   7  11-48.8729 88.9396  13
  -7   5  11 23.6418 64.8934  13
   7   5  11 10.3963 56.3488  12
   5   7  11 82.9389 102.968  12
  -7   5  11 157.828 233.446  11
   7   5  11 40.3980 95.6625  19
   7  -5 -11 50.4297 47.0999  17
  -7   5  11 276.076 193.433  18
   5  -7 -11 152.940 224.775  17
   7   5  11-35.4103 96.7771   4
   7  -5 -12 808.488 352.739  17
  -7  -5 -12 1021.45 300.482   8
   5  -7 -12 322.359 207.835  17
   5   7  12 1256.86 308.111   4
  -5  -7 -12 933.156 348.551   8
   7  -5 -12 636.757 252.604  16
  -7   5  12 1152.69 479.988   1
  -5   7  12 1080.07 324.983   3
  -7  -5 -12 1072.51 301.663  14
  -7  -5 -12 1191.64 385.213   6
   5   7  12 898.570 338.095   3
  -5  -7 -12 727.260 225.392  14
  -5  -7 -12 549.107 256.713   6
   5   7  12 270.638 242.753  13
   7   5  12 538.272 257.167   3
  -5   7  12 1204.50 383.715  13
  -7  -5 -12 1430.07 538.485  16
  -7   5  12 1071.99 289.319  13
   5   7  12 1179.89 330.501  12
   7   5  12 681.723 254.394  12
  -7   5  12 1424.80 432.510  11
  -7   5  12 1748.05 579.443  10
   7   5  12 1022.28 382.365  20
  -7   5  12 1891.95 716.132  20
   7  -5 -12 855.557 337.696   2
   7   5  12 870.413 272.541  19
  -5   7  12 1189.07 377.288  18
  -7   5  12 1185.25 382.353  18
   7   5  12 816.886 317.155   4
   7  -5 -13 41.5335 36.9049  17
  -7   5  13 178.960 188.651  18
  -5  -7 -13 84.6034 104.104   8
   7  -5 -13 71.9236 119.081  16
  -7  -5 -13-25.1652 88.9730  16
  -7   5  13 162.013 231.323   1
   7   5  13 378.851 337.160  15
  -5   7  13 48.6412 32.0965   3
  -7  -5 -13 17.5139 28.4110   6
  -7  -5 -13 103.025 117.202  14
   5   7  13-69.7723 143.446   3
  -5  -7 -13-90.6494 107.567   6
   5   7  13-49.6502 259.142  13
   7   5  13 48.7310 87.1460   3
  -5   7  13 218.928 182.395  13
  -7   5  13 43.3010 93.1717  13
   7   5  13-25.4229 85.0371  12
  -7  -5 -13 82.0732 97.1378   8
   5   7  13-20.5501 49.0175  12
  -7   5  13-93.7820 160.517  11
   5  -7 -13-854.206 374.736   2
   7   5  13 123.660 140.552  10
   7   5  13-110.550 153.189  20
  -7   5  13 62.1693 154.881  10
  -7   5  13 122.864 251.864  20
   7   5  13-28.5188 56.8927  19
   7  -5 -13 55.4479 67.8307   2
  -5   7  13-53.8329 64.8143  18
   7   5  13-6.20020 116.063   4
   5  -7 -13 16.7174 146.546  17
   5  -7 -14 420.658 363.374  17
  -7  -5 -14 1114.13 331.781   8
   7  -5 -14 1044.09 530.614  17
  -5  -7 -14 1189.11 383.227   8
   7  -5 -14 1058.80 459.889  16
  -5  -7 -14 474.032 47.0519  16
  -7  -5 -14 1221.81 460.662  16
   7   5  14 955.256 478.789   7
  -5   7  14 1253.90 340.760   3
  -7   5  14 1248.46 674.039   1
   7   5  14 942.269 445.889  15
  -7  -5 -14 1311.61 399.025   6
  -7  -5 -14 1311.76 348.652  14
  -5  -7 -14 910.484 357.397   6
   5   7  14 1196.31 399.059   3
   5   7  14 904.772 485.721  13
  -5   7  14 990.059 326.474  13
   7   5  14 572.080 245.141   3
  -7   5  14 1113.04 423.324  13
   7  -5 -14 799.419 600.308   5
   7   5  14 604.334 286.643  12
   5   7  14 1009.08 329.992  12
  -7   5  14 1544.68 786.056   9
  -7   5  14 1489.27 538.963  11
   5  -7 -14 28.7423 336.691   2
   7   5  14 957.049 349.677  20
   7   5  14 701.148 270.694  10
  -7   5  14 1437.90 723.299  10
  -7   5  14 1912.01 970.756  20
   7   5  14 790.210 262.961  19
   7  -5 -14 668.774 411.948   2
   7   5  14 970.714 452.971   4
  -5   7  14 1249.02 394.128  18
  -7   5  14 1437.62 452.874  18
   5  -7 -15 310.677 306.519  17
   7  -5 -15-116.387 171.407  17
  -5  -7 -15 9.23260 83.3422   8
   5  -7 -15-455.161 399.436  16
  -5  -7 -15-102.830 356.655  16
   7  -5 -15 344.848 235.898  16
  -7  -5 -15 341.238 323.253  16
   7   5  15 229.989 242.958   7
   7   5  15 33.8480 107.160  15
  -7   5  15 56.7291 327.555   1
  -7   5  15 102.893 432.709   9
  -7  -5 -15 205.053 193.434   6
  -7  -5 -15 86.8880 29.5120  14
  -5  -7 -15-104.629 141.354   6
  -5   7  15-36.9829 84.0501   3
   5   7  15 11.2528 112.600   3
   5   7  15 221.284 344.432  13
  -5   7  15 2.09343 74.6969  13
   7   5  15-191.233 112.547   3
  -7   5  15-139.691 164.147  13
   7   5  15-96.8369 65.8514  12
   5   7  15 30.5781 65.4706  12
  -5   7  15-115.400 109.109  11
  -7   5  15 90.0136 266.026  11
   5  -7 -15-303.651 326.464   2
   7   5  15 15.7354 44.8206  20
   7   5  15 73.3569 178.535  10
  -7   5  15-10.5432 283.190  10
  -7   5  15-281.426 309.289  20
  -7  -5 -15-54.4893 79.0316   8
   7  -5 -15 62.6525 285.111   2
   7   5  15-168.145 402.441   4
  -5   7  15-104.586 97.6702  18
  -7   5  15 218.294 249.746  18
  -7  -5 -16 201.025 120.193   8
   5  -7 -16 167.516 311.424  17
   7  -5 -16 194.937 195.323  17
   7   5  16 53.2163 470.345   7
   7   5  16 296.067 473.894  15
  -5   7  16 205.195 164.133   3
  -5   7  16 167.557 227.354  11
  -7   5  16 433.275 374.346  11
  -5   7  16 216.561 55.8232  20
   7   5  16 115.408 272.060  10
  -7   5  16 667.349 621.675  10
  -7   5  16 354.108 391.411   9
  -7   6   4 27.0387 160.838  18
  -7  -6  -5-54.7225 226.279   8
  -7  -6  -5 94.5229 174.091  14
  -7  -6  -5 95.8628 169.951   6
   7   6   5 55.4773 107.969  12
  -7   6   5 100.435 100.948  18
   7  -6  -6 99.5169 119.661  17
  -7  -6  -6-53.2641 172.824   8
   7   6   6 5.31929 128.188   4
   7   6   6-192.933 287.720   3
  -7  -6  -6 2.68220 53.4084  14
  -7  -6  -6-19.0394 52.1954   6
  -7  -6  -6-59.0434 105.605   1
   7   6   6-134.425 117.164  12
   7   6   6-47.7811 160.631   5
   7   6   6-86.4095 186.686  19
  -6   7   6-123.863 183.580  18
  -7   6   6 107.312 154.755  18
  -7  -6  -7 321.750 158.705   1
  -7  -6  -7 353.146 200.014   8
   7   6   7 548.696 280.683   3
  -7  -6  -7 449.585 220.964  14
  -7   6   7 382.879 147.259  13
  -7  -6  -7 485.043 250.035   6
  -6  -7  -7 175.801 156.638   6
   7   6   7 741.410 288.384   4
   7   6   7 557.282 232.370  12
   6   7   7 514.153 213.858  12
  -7   6   7 49.1042 233.754   1
   7  -6  -7 21.9632 69.5354  17
   7   6   7 635.071 220.505   5
   7   6   7 589.956 240.835  19
  -6   7   7 263.971 193.499  18
  -7   6   7 490.027 290.065  18
  -7  -6  -8 14.5141 44.1073   8
   7   6   8 43.6316 28.0486   4
   6   7   8-74.9086 155.138   4
   6   7   8 46.0699 62.0418   3
   7   6   8 70.5736 142.847   3
  -7  -6  -8 2.36919 47.8309  14
  -7  -6  -8-23.5797 98.9445   6
  -6   7   8-138.703 227.584  13
  -7   6   8 39.5646 70.2328  13
  -6  -7  -8 116.653 153.380   6
   7   6   8 50.3209 80.4116  12
   6   7   8 71.8289 97.4214  12
  -7   6   8-168.938 269.450   1
   7   6   8 1.77152 41.7202   5
   7   6   8-10.2244 76.7402  19
  -6   7   8 23.8173 103.066  18
  -7   6   8 43.5079 57.3383  18
   6  -7  -8 12.7062 29.7474  17
   7  -6  -8 11.0132 79.0881  17
  -7  -6  -9-60.5894 84.0241   8
   7   6   9 3.66211 86.4225   4
   6   7   9 28.6060 90.4734   4
   6   7   9 68.6566 19.2453   3
   7   6   9-104.038 189.707   3
  -7  -6  -9 12.5410 95.4574  14
  -6  -7  -9-30.2145 108.646  14
  -7  -6  -9-42.7057 115.992   6
  -6  -7  -9 58.1030 71.3419   6
  -6   7   9 7.52478 104.647  13
  -7   6   9 30.4564 89.0966  13
   7   6   9 30.5140 41.6708  12
   6   7   9-6.07343 50.9441  12
   7   6   9-30.4911 21.1127  19
  -7   6   9-191.888 286.642   1
  -6   7   9-137.695 165.373  18
  -7   6   9 87.5813 84.6840  18
   6  -7  -9-13.0592 144.103  17
   7  -6  -9-61.5965 109.777  17
   7   6  10 5.72818 67.1189   4
  -7  -6 -10 25.8684 15.2433   8
  -6  -7 -10-5.45536 107.776   8
   6   7  10 55.2031 114.194   4
   6   7  10-19.1864 96.0251   3
   7   6  10 151.536 196.754   3
  -7  -6 -10-72.8904 94.0976  14
  -6  -7 -10 59.1622 123.761  14
  -7  -6 -10 2.56144 38.4561   6
  -6  -7 -10-12.6261 76.2145   6
  -6   7  10 149.322 131.478  13
  -7   6  10-79.3033 89.7185  13
   7   6  10 68.3353 106.102  12
   6   7  10 18.9416 63.4227  12
   7  -6 -10-573.348 278.741   2
   7   6  10-25.5677 22.3451  19
  -7   6  10-13.4256 163.606   1
  -6   7  10 55.8403 140.969  18
  -7   6  10 77.3949 161.244  18
   6  -7 -10 140.197 167.601  17
   7  -6 -10-72.0679 197.970  17
  -7  -6 -11 41.9240 77.1436   8
  -6  -7 -11 118.437 87.1575   8
   6   7  11 127.839 115.798   4
   7   6  11 161.398 142.540   4
   6   7  11 102.973 55.0983   3
   7  -6 -11 161.661 127.933  17
  -7  -6 -11 110.761 87.5656  14
   7   6  11 80.5785 219.971   3
  -7  -6 -11 14.4036 66.6639   6
  -6  -7 -11 29.1828 30.8195  14
  -6  -7 -11 21.4974 105.056   6
  -6   7  11-16.8402 70.7211  13
  -7   6  11 110.137 91.0315  13
   7   6  11 99.9853 100.121  12
   6   7  11 123.052 107.593  12
   7  -6 -11-56.3971 188.781   2
   7   6  11 320.910 167.392  19
  -7   6  11 26.1742 78.5429   1
  -6   7  11 13.8580 84.9810  18
  -7   6  11 120.773 151.194  18
   6  -7 -11 86.1549 112.968  17
   7  -6 -12 116.742 143.431  17
  -6   7  12 93.0387 114.238  18
  -7  -6 -12 103.645 150.222   8
   6   7  12 141.744 134.104   4
  -6  -7 -12 54.3388 88.1133   8
  -7  -6 -12-386.686 626.343  16
  -6   7  12-110.541 184.567   3
   7   6  12 1.68851 54.5836   4
  -7  -6 -12 64.8144 80.5739  14
   6   7  12 124.870 126.963   3
  -7  -6 -12 36.7609 80.4084   6
  -6  -7 -12 125.005 112.151  14
  -6  -7 -12 73.8986 111.289   6
   7   6  12-3.69258 107.275   3
   6   7  12-656.615 546.020  13
  -6   7  12 52.1137 94.7300  13
  -7   6  12 26.2353 71.2566  13
   7   6  12 86.2734 113.935  12
   6   7  12 82.7194 100.602  12
   7  -6 -12-68.7233 141.076   2
   7   6  12 16.4986 91.7790  19
   6   7  12-124.599 250.987  19
  -7   6  12 273.914 281.242   1
  -7   6  12 78.8813 136.176  18
   6  -7 -12 50.8912 110.794  17
   6  -7 -13 80.1446 274.474  17
   7  -6 -13 687.664 461.395  17
  -7  -6 -13 744.300 298.696   8
  -6  -7 -13 735.503 313.637   8
  -7  -6 -13 302.462 58.5939  16
  -6   7  13 785.870 284.004   3
  -7  -6 -13 685.893 237.977  14
  -7  -6 -13 730.654 281.307   6
  -6  -7 -13 752.976 249.955  14
   6   7  13 577.138 273.455   3
  -6  -7 -13 487.208 280.138   6
   7   6  13 654.863 345.164   3
  -7   6  13 1111.60 448.055  13
   6   7  13-19.8018 299.798  13
  -6   7  13 976.561 364.987  13
   7   6  13 815.282 282.246  19
   7   6  13 647.268 262.425  12
   6   7  13 794.741 301.992  12
  -7   6  13 799.604 388.405  11
  -6   7  13-668.117 532.916   1
  -7   6  13 518.133 383.590  20
   7  -6 -13 614.799 367.974   2
  -6   7  13 713.393 318.407  18
  -7   6  13 756.730 322.828  18
  -7   6  13 614.761 526.040   1
   7   6  13 683.573 292.587   4
   6  -7 -14 81.9830 239.057  17
   7  -6 -14 637.221 456.036  17
   7  -6 -14-449.973 321.771  16
  -7  -6 -14-63.5842 158.620   8
  -6  -7 -14 62.5737 50.9517   8
  -6  -7 -14-479.832 582.643  16
  -7  -6 -14-257.838 257.031  16
  -7   6  14 160.310 235.333  18
  -7  -6 -14-108.420 123.585  14
  -7  -6 -14 6.54709 76.2870   6
  -6  -7 -14 66.8170 94.8575   6
   6   7  14 103.082 168.404   3
   7   6  14-82.4877 100.174   3
   6   7  14 172.506 296.224  13
  -6   7  14-160.005 124.782  13
  -7   6  14 69.9349 163.745  13
   7   6  14 93.8579 98.5246  12
   6   7  14 15.3803 73.5350  12
  -7   6  14-41.9448 119.029  11
   6  -7 -14-353.144 414.074   2
  -7   6  14-185.980 178.868  10
  -6   7  14-509.245 483.543   1
   7   6  14-297.103 224.834  20
  -7   6  14 454.285 551.766  20
   7  -6 -14 287.727 254.030   2
  -6   7  14-29.7234 109.434  18
   7   6  14-68.0923 150.377   4
  -7   6  14 118.709 358.898   1
   6  -7 -15 71.4228 103.549  17
   7  -6 -15 209.183 198.291  17
  -7  -6 -15 386.548 214.537   8
  -6  -7 -15 435.605 246.365   8
  -7  -6 -15 527.963 477.555  16
   7   6  15 462.581 394.822  15
  -6   7  15 478.897 382.263  11
  -7   6  15 634.263 357.454  11
   7   6  15 110.921 36.7499  10
  -6   7  15 222.415 120.859  20
   7   6  15 304.009 243.267  20
  -7   6  15 867.689 520.696  20
  -7   7   5-195.774 259.951  18
  -7  -7  -6 307.326 287.042   6
  -7   7   6 489.391 171.180  18
   7   7   7-154.438 278.514   4
  -7  -7  -7 76.3924 126.092   6
   7   7   7-152.947 131.079  12
  -7   7   7-59.3461 126.350  18
   7  -7  -7-50.7641 155.835  17
  -7  -7  -8 146.787 282.639   8
   7   7   8 1269.94 403.132   4
   7   7   8 673.992 323.568   3
  -7  -7  -8 432.997 254.324  14
  -7   7   8 355.321 75.1713  13
  -7  -7  -8 163.153 152.591   6
   7   7   8 737.794 290.738  12
   7   7   8 1216.86 353.349   5
  -7   7   8 738.760 340.394  18
   7  -7  -8-133.518 95.5166  17
  -7  -7  -9-61.7025 178.684   8
   7   7   9 72.7137 169.109   4
   7   7   9 218.709 246.137   3
  -7  -7  -9 30.4766 27.4292  14
  -7  -7  -9-123.608 176.155   6
  -7   7   9-77.5991 148.564  13
   7   7   9-28.5898 99.0452  12
  -7   7   9 62.7417 106.402  18
   7  -7  -9 94.7423 129.914  17
  -7  -7 -10 10.6630 126.192   8
   7   7  10 31.7103 88.4789   4
   7   7  10-183.462 176.492   3
  -7  -7 -10-70.8638 30.8270  14
  -7  -7 -10 53.2460 149.785   6
  -7   7  10 0.31220 71.9030  13
   7   7  10-13.6139 50.6594  12
   7  -7 -10 251.908 232.123  17
   7   7  10-173.854 260.929  19
  -7   7  10-26.8798 58.8525  18
   7   7  11-11.1766 86.9165   4
  -7  -7 -11 0.54068 100.325   8
   7   7  11-10.1984 68.4459   3
  -7  -7 -11-40.8386 32.1351  14
  -7  -7 -11 10.2747 64.1464   6
  -7   7  11 77.9352 132.676  13
   7   7  11 37.5391 89.0839  12
  -7   7  11-275.450 468.500   1
   7   7  11-87.5340 214.166  19
  -7   7  11 17.0599 88.0604  18
   7  -7 -11-170.540 206.104  17
   7   7  12 79.0739 88.2402   4
  -7  -7 -12 129.249 158.904   8
   7   7  12 100.865 139.640   3
  -7  -7 -12-13.0817 97.7121  14
  -7  -7 -12 26.0149 61.9996   6
  -7   7  12 100.009 122.644  13
   7   7  12 140.394 114.262  12
  -7   7  12-477.467 707.148   1
   7   7  12 157.038 159.793  19
  -7   7  12 16.1095 64.9193  18
   7  -7 -12 3.75428 221.745  17
   7  -7 -13 190.282 206.559  17
  -7  -7 -13 228.080 227.561   8
  -7  -7 -13 113.798 165.068  14
   7   7  13 119.149 117.796   3
  -7  -7 -13 142.366 142.777   6
  -7   7  13-28.6694 86.1184  13
   7   7  13-36.4472 102.173  12
   7   7  13-153.534 185.972   4
  -7   7  13-145.917 309.393   1
   7   7  13-56.1871 70.0787  19
  -7   7  13-28.5020 76.3073  18
   8   0   0 230.998 140.408  17
   8   0   0 371.085 162.338  15
  -8   0   0 442.302 155.398   6
  -8   0   0 383.689 181.148  14
   8   0   0 228.417 120.304  12
   8   0   0 257.588 104.474   2
   8   0   0 281.034 170.591   5
  -8   0   0 678.156 215.892  11
  -8   0   0 259.572 137.972   1
   8   0   0 234.215 134.211  19
  -8   0   0 519.397 184.871  18
   8   0   0 247.687 111.560   4
  -8   0   0 457.884 188.891   8
   8   0   1-38.8221 43.8709  17
   8   0  -1-58.0636 66.1517  17
   8   0   1 77.6700 67.2006   7
   8   0   1 41.8279 101.069  15
  -8   0  -1 32.2624 42.8475   6
  -8   0  -1 16.2435 44.7474  14
  -8   0   1 80.2080 117.709  14
  -8   0   1-0.65127 11.8287   6
  -8   0  -1 2.20967 4.87734   1
   8   0   1-1.98899 59.5997  12
   8   0  -1 13.3227 52.9979  12
   8   0   1-21.8677 98.9791   5
   8   0  -1 19.3085 31.8750   5
  -8   0   1-25.5593 102.855  11
   8   0   1-35.2197 92.2584   2
  -8   0   1 46.7329 87.0595   1
   8   0   1-32.9652 43.5975  19
   8   0  -1-25.1211 36.1056  19
   8   0  -1-1.46049 37.6486   2
  -8   0  -1 8.75562 40.8278  18
  -8   0   1 34.2168 81.0355  18
   8   0  -1 26.6206 56.6672   4
   8   0   1-51.5295 105.612   4
  -8   0  -1-39.0114 42.7960   8
  -8   0   1-20.6286 49.6839   8
   8   0  -2 816.181 243.374   4
   8   0   2 507.806 148.942  17
   8   0  -2 645.129 230.400  17
   8   0   2 698.169 257.598   7
  -8   0  -2 1035.40 255.073   6
  -8   0   2 948.452 186.179   6
   8   0   2 546.501 198.106  15
  -8   0  -2 1086.92 302.787   8
  -8   0  -2 974.864 286.518  14
  -8   0   2 827.142 249.200  14
  -8   0  -2 1087.13 316.983   1
   8   0   2 632.484 212.052  12
   8   0  -2 559.201 219.216  12
   8   0  -2 824.257 189.430   2
   8   0   2 708.740 278.549   5
   8   0  -2 715.180 240.487   5
  -8   0   2 1206.49 346.561  11
   8   0   2 417.769 214.635  19
  -8   0   2 971.241 253.428   8
  -8   0  -2 1137.16 232.138  18
  -8   0   2 1166.68 282.072  18
   8   0  -2 757.858 224.328  19
   8   0   2 450.695 202.770   4
  -8   0   2 833.501 259.320   1
   8   0   3-118.395 98.0465  17
  -8   0   3 14.7987 28.0102   8
   8   0  -3 24.8532 35.1811   2
   8   0  -3-32.7824 25.7183   4
   8   0  -3-78.2263 116.072  17
  -8   0   3-105.350 117.738   1
   8   0   3-207.615 185.860   7
   8   0   3-19.8553 127.073  15
  -8   0  -3-17.3916 78.7704   1
  -8   0  -3-70.8446 103.712   6
  -8   0  -3-27.0017 76.8200  14
  -8   0   3-44.9843 15.5158  18
  -8   0   3-40.8442 51.4155  14
  -8   0   3-1.49789 11.5475   6
   8   0   3-17.0267 87.0618   5
   8   0  -3 30.8519 52.7219   5
  -8   0   3 7.85506 7.34853  11
   8   0   3-84.4198 119.944  19
   8   0  -3-56.3978 66.4522  19
  -8   0  -3-30.9190 59.4328  18
   8   0   3-23.4415 34.5704   4
  -8   0  -3 41.6437 74.6426   8
   8   0  -4 153.380 128.715  17
   8   0  -4 240.243 111.525   4
   8   0  -4 217.411 102.485   2
   8   0   4 47.8365 15.5039   7
  -8   0  -4 142.396 70.3851   1
   8   0   4 42.7797 116.679  15
  -8   0   4 262.081 171.074   1
  -8   0  -4 189.196 144.069   6
  -8   0  -4 339.520 185.497  14
  -8   0   4 254.660 108.497  14
   8   0   4 120.104 76.4845   5
   8   0  -4 244.208 135.673   5
  -8   0   4-64.5952 225.294  11
  -8   0   4 299.364 147.616   8
   8   0   4 44.0095 76.9522  19
   8   0  -4 217.654 118.623  19
  -8   0  -4 240.823 97.8948  18
   8   0   4 119.219 132.762   4
  -8   0   4 215.717 115.427  18
  -8   0  -4 263.963 163.573   8
  -8   0  -5 31.2116 98.4297   1
  -8   0   5 97.8742 68.4952   8
   8   0  -5-130.273 137.482  17
   8   0  -5-28.0274 79.8306   4
   8   0  -5-0.82042 38.3350   2
  -8   0  -5 16.3273 80.3007  16
  -8   0  -5 160.090 133.318   6
  -8   0  -5 107.796 170.877  14
  -8   0   5 2.85981 48.2652  14
  -8   0   5 74.0759 71.3421   1
   8   0   5 46.6094 102.844   5
   8   0  -5-44.6968 92.3201  19
   8   0  -5-116.589 115.619   5
  -8   0   5-388.936 380.788  11
   8   0   5 16.6007 79.3543  19
   8   0   5 15.0644 164.895   4
  -8   0   5 11.7640 118.436  18
  -8   0  -5 105.719 135.338   8
   8   0  -6 288.377 164.298  17
  -8   0   6 424.689 194.748   8
   8   0  -6 392.604 135.332   4
   8   0  -6 363.548 150.751   2
  -8   0  -6 500.769 170.402  16
  -8   0  -6 359.705 225.910   6
  -8   0  -6 288.256 269.107   1
  -8   0  -6 272.251 180.136  14
  -8   0   6 289.335 158.821  14
  -8   0   6 268.641 167.350   1
   8   0  -6 313.554 132.877   5
   8   0   6 33.5345 38.6854  19
   8   0  -6 395.475 149.952  19
   8   0   6-230.048 285.366   4
  -8   0   6 416.256 211.748  18
  -8   0  -6 386.363 273.444   8
   8   0  -7 24.2396 70.3456  17
   8   0  -7-12.8490 77.9612   4
  -8   0  -7-61.6941 91.9229  16
   8   0  -7 2.04387 54.3811   2
  -8   0  -7 58.6715 89.9448   6
  -8   0  -7-13.0029 35.0555  14
  -8   0   7-30.2815 50.9248  14
  -8   0   7-40.0413 118.630   1
   8   0  -7 98.0728 106.184   5
  -8   0  -7-148.991 294.426   1
   8   0   7 98.2015 67.9255  19
   8   0  -7-24.4769 14.9499  19
  -8   0  -7-110.762 154.496   8
  -8   0   7-57.2694 108.519  18
   8   0  -8 115.793 101.023  17
   8   0  -8 93.8410 104.670   4
  -8   0  -8 182.894 152.307  16
   8   0  -8 82.1854 111.537   2
  -8   0  -8 74.1382 109.400   6
  -8   0  -8 193.792 176.284  14
  -8   0   8 59.0137 84.2035  14
   8   0  -8 112.007 99.8447   5
   8   0  -8 78.0174 51.9451  19
  -8   0   8 10.9378 77.6501   1
  -8   0  -8 152.351 186.219   8
  -8   0   8-24.0585 77.2665  18
  -8   0   9 81.0097 148.554   1
   8   0  -9 33.8187 66.4343  17
   8   0  -9-82.2841 108.345   4
  -8   0  -9 117.446 124.335  16
   8   0  -9 142.790 137.434   2
  -8   0  -9 47.2010 108.712   6
  -8   0  -9 40.6002 44.0762  14
  -8   0   9 28.0876 47.0799  14
  -8   0   9-75.2207 104.230  18
   8   0  -9 39.0299 90.8972   5
  -8   0  -9 93.2067 161.912   8
   8   0 -10 518.496 264.922  17
   8   0 -10 564.701 196.818   4
  -8   0  10 318.638 223.329   1
  -8   0 -10 581.315 285.871  16
  -8   0 -10 478.827 232.593   6
   8   0 -10 537.065 256.953   2
   0   8  10 381.801 176.724   3
  -8   0 -10 520.513 318.269  14
  -8   0  10 448.768 192.102  14
   0   8  10 140.265 302.800  13
   8   0 -10 508.178 240.711   5
  -8   0 -10 543.901 327.770   8
  -8   0  10 12.2294 134.385  18
   8   0 -11 102.207 132.559  17
   8   0 -11-109.335 125.057   4
  -8   0 -11 19.9546 139.199  16
  -8   0 -11-57.3532 237.996   6
   8   0 -11-79.9405 105.636   2
  -8   0 -11-572.574 500.724  14
  -8   0  11 75.3100 99.0444   1
   0   8  11-22.2822 109.721   3
  -8   0  11-56.2550 94.0108  14
   0   8  11 16.9925 44.2567  13
   0  -8 -11 16.0308 108.040   6
   8   0 -11 71.8555 118.206   5
   0   8  11-93.9838 177.672  18
  -8   0 -11 60.7389 202.404   8
  -8   0  11-211.686 286.433  18
   0   8  12 1889.23 434.087   3
  -8   0 -12 1622.11 462.736  16
  -8   0 -12 1220.22 394.935   6
  -8   0  12 859.746 273.667  14
   0   8  12 1964.35 615.330  13
  -8   0  12 986.082 387.344   1
   0  -8 -12 688.563 319.182   6
   8   0 -12 2344.19 549.919   5
   0   8  12 1922.06 395.694  12
   8   0 -12 1838.85 487.221   2
   0   8  12 2339.93 579.027  18
   8   0 -12 2217.56 465.817   4
  -8   0 -12 2334.46 693.375   8
   8   0 -12 2027.45 548.323  17
   0  -8 -12 268.422 266.260  17
   8   0 -13 23.4838 78.6659  17
  -8   0 -13 94.7317 118.059  16
  -8   0 -13-355.663 390.409   6
   8   0 -13 115.262 126.913   2
   0   8  13 25.0449 67.6702   3
  -8   0  13 29.4219 79.2611  14
   0  -8 -13-128.954 189.547   6
   0   8  13 93.1827 181.521  13
  -8   0  13 16.8341 79.7172   1
   0   8  13-22.6997 85.7884  12
   8   0 -13-121.819 106.688   5
   0  -8 -13-78.2583 295.363  17
  -8   0 -13 94.3885 265.124   8
   0   8  13-153.930 135.054  18
   8   0 -14 1564.56 471.801  17
  -8   0 -14 1735.16 571.013  16
   0   8  14 1388.52 380.338   3
   0  -8 -14 577.339 272.999   6
   0   8  14 1323.23 501.854  13
   0   8  14 1465.69 352.288  12
   8   0 -14 2259.16 593.499   5
  -8   0  14 531.066 294.150   1
   8   0 -14 1849.71 509.311   2
   0   8  14 1841.54 470.136  18
  -8   0 -14 1698.88 593.105   8
   0  -8 -14 891.352 353.504  17
   0  -8 -15-346.799 344.563  16
  -8   0 -15 104.441 169.286  16
   8   0 -15 82.0263 163.441   2
   0   8  15 109.316 110.636   3
   0  -8 -15 174.490 146.563   6
   0   8  15-54.9267 196.415  13
   0   8  15-35.9942 100.820  12
  -8   0  15 8.80247 67.9596   1
   8   0 -15 45.2929 144.477   5
   0   8  15 59.6437 129.272  18
  -8   0 -15-29.4048 218.866   8
   0  -8 -15-51.6508 84.3903  17
   0  -8 -16 326.132 281.400  17
   8   0 -16-395.771 241.012  17
   0  -8 -16-206.474 347.492  16
  -8   0 -16 95.1293 254.797  16
   8   0 -16 343.763 252.078   2
   0  -8 -16-61.3624 181.553   6
   0   8  16 205.852 108.134   3
   0   8  16 188.555 187.010  13
   0   8  16 191.811 127.205  12
  -8   0 -16 323.589 248.913   8
   0   8  16 284.057 187.074  18
   8  -1   0 244.863 127.988  17
  -8  -1   0 351.514 163.936   8
   8   1   0 294.795 94.1859   2
   8   1   0 298.537 143.678   4
   8   1   0 319.209 157.778  17
  -8  -1   0 170.794 105.735   1
  -8   1   0 363.808 195.975   6
  -8   1   0 324.202 186.979  14
  -8   1   0 351.365 188.677   1
  -8  -1   0 342.730 161.327  14
  -8  -1   0 358.728 120.888   6
   8  -1   0 171.182 126.883  12
   8   1   0 307.876 148.742  19
   8   1   0 185.580 121.548  12
   8  -1   0 195.402 122.143   5
  -8   1   0 590.917 180.876  11
   8  -1   0-32.7427 181.455   2
   8   1   0 230.620 104.090   5
   8  -1   0 108.837 49.6691  19
  -8   1   0 367.827 130.737  18
   8  -1   0 183.903 129.363   4
  -8  -1   0 258.225 182.470  18
  -8   1   0 507.781 212.149   8
   8  -1   1 740.686 239.527  17
   8  -1  -1 624.666 220.428  17
   8   1   1 728.925 239.061  17
   8   1  -1 873.238 322.385  17
  -8   1   1 1185.32 307.006   6
  -8  -1  -1 1183.41 247.138   6
  -8  -1   1 1231.58 229.184   6
  -8   1  -1 1132.60 334.380   6
  -8  -1  -1 1178.75 300.008  14
  -8  -1   1 1067.77 289.412  14
   8   1  -1 981.800 258.216   4
  -8   1  -1 1127.73 364.548  14
  -8   1   1 1160.84 344.920  14
  -8   1  -1 1269.14 377.279   1
   8   1   1 884.963 273.649   5
  -8   1   1 1367.65 365.104   1
   8   1  -1 1245.32 299.598   5
   8   1   1 799.405 227.412  12
  -8  -1  -1 1103.72 275.726   1
   8  -1  -1 606.572 163.035  12
   8  -1   1 574.975 250.664   5
  -8  -1   1 1153.35 296.412   1
   8   1  -1 783.040 276.379  12
   8  -1  -1 741.140 267.506   5
  -8   1   1 1708.33 332.149  11
   8   1  -1 949.307 188.609   2
   8   1   1 993.906 269.005   4
   8  -1  -1 717.542 211.839   2
   8   1  -1 990.560 260.581  19
   8  -1   1 538.843 234.014  19
   8   1   1 773.341 235.909  19
  -8   1  -1 1341.16 363.985   8
  -8   1   1 1317.57 303.178   8
  -8   1  -1 1383.58 289.022  18
  -8  -1  -1 1230.18 290.944   8
  -8   1   1 1733.40 330.048  18
  -8  -1   1 1118.54 271.138   8
  -8  -1  -1 1509.10 341.154  18
   8  -1  -1 730.949 242.560  19
   8  -1   1 585.677 251.300   4
   8  -1  -1 739.959 267.602   4
  -8  -1   1 1069.13 317.845  18
   8  -1  -2 128.981 100.879  17
   8  -1  -2 87.6212 93.2568   2
  -8  -1   2 100.975 82.0561   8
   8   1   2 16.4846 19.5685  17
   8   1  -2 0.68201 124.701  17
   8   1  -2 124.909 77.6751   4
   8   1  -2 37.7035 23.7652  19
  -8   1  -2 173.717 173.715   1
   8   1  -2 124.991 70.8975   2
  -8   1  -2 70.5314 104.644   6
  -8   1  -2 173.136 135.864  14
  -8   1   2 109.685 90.7665  14
  -8  -1  -2 66.3353 65.8727  14
  -8  -1  -2 44.8682 9.47335   6
   8   1   2 46.1769 38.7097   3
  -8  -1   2 147.266 105.956  14
  -8  -1  -2 92.6254 67.8394  18
  -8  -1   2 144.503 81.5772   6
  -8  -1   2 59.9226 76.5102   1
   8  -1   2 61.7582 83.5323   5
   8   1   2 18.2768 16.6034  12
  -8   1   2 45.7379 49.5045   1
   8  -1  -2 97.0791 92.9995   5
   8   1   2 50.4786 47.7184   5
  -8   1   2 112.897 112.711  11
   8   1  -2-34.3911 109.334   5
  -8  -1  -2 90.5745 73.6402   1
   8  -1   2-32.5219 93.4518  19
   8  -1  -2 77.6359 94.4047  19
   8   1   2 95.4516 49.2921  19
   8  -1  -2 38.9970 26.1585   4
   8  -1   2 32.0605 155.278   4
  -8   1  -2 72.6724 45.2218  18
  -8   1   2 186.865 120.926  18
  -8   1  -2 106.708 45.4541   8
  -8  -1   2 32.6352 93.1497  18
  -8   1   2 143.134 97.4858   8
  -8  -1  -2 69.9182 63.4970   8
   8   1   2 84.5655 83.7247   4
   8  -1   2 35.4294 45.3039  17
  -8   1  -3 700.293 300.968   1
   8  -1  -3 316.934 187.986  17
  -8  -1   3 332.434 160.368   8
   8   1  -3 490.937 187.639   4
   8   1  -3 335.243 178.794  17
  -8   1   3 420.002 159.334  18
   8   1  -3 421.510 156.454   2
  -8   1  -3 294.822 179.292   6
  -8   1  -3 458.563 203.365  14
  -8   1   3 506.369 222.662  14
  -8  -1  -3 517.090 186.227   6
  -8  -1  -3 431.009 196.866  14
  -8  -1   3 334.746 155.930  14
   8   1   3 253.433 121.623   3
  -8  -1   3 420.408 137.615   6
   8  -1   3-29.6283 187.427   4
   8   1   3 249.421 119.333  12
  -8  -1  -3 303.216 134.748   1
  -8   1   3 516.018 181.962   8
   8   1   3 158.365 71.5859   5
   8  -1  -3 376.616 204.616   5
  -8   1   3 585.206 239.851  11
  -8   1   3 441.273 214.120   1
  -8  -1   3 366.233 171.145   1
   8   1  -3 468.820 197.284   5
   8  -1   3 107.343 41.2750  19
   8   1   3 318.599 169.393  19
   8  -1  -3 496.839 214.451  19
   8   1  -3 473.722 168.611  19
  -8   1  -3 600.855 203.098  18
   8  -1  -3 349.066 166.179   2
  -8  -1  -3 461.954 168.299  18
  -8   1  -3 539.762 245.536   8
   8  -1   3 98.8556 83.1145  17
  -8  -1   3 201.471 91.1604  18
   8  -1  -3 143.456 108.440   4
   8   1   3 225.188 152.216   4
  -8  -1  -3 379.258 162.268   8
  -8   1  -4 274.767 154.099  18
  -8   1   4 194.436 100.329   8
  -8  -1   4 169.629 152.664   8
   8   1  -4 256.027 217.330  17
   8   1  -4 251.677 128.314   4
   8   1   4 269.880 184.350   7
   8   1   4 198.357 161.089  19
  -8   1  -4 271.252 248.348   6
   8   1   4 156.725 127.575  15
   8   1  -4 213.078 113.499   2
  -8   1  -4 351.794 305.755  14
  -8  -1  -4 263.142 159.633   6
  -8   1   4 497.615 273.363  14
  -8  -1  -4 355.820 195.370  14
  -8  -1   4 171.789 132.628  14
  -8   1   4 268.730 205.782   1
  -8  -1  -4 289.088 197.676   1
  -8  -1   4 258.750 113.176   6
   8   1   4 110.027 109.373   3
   8   1   4 255.451 211.222  12
  -8  -1  -4 349.427 173.510   8
   8   1   4 215.841 174.946   5
   8  -1  -4 288.014 220.198   5
  -8   1   4 415.901 288.307  11
   8   1  -4 267.915 158.553   5
   8  -1  -4 553.293 275.436  19
   8   1  -4 359.848 143.809  19
  -8   1  -4 259.835 277.819   1
  -8   1   4 307.653 184.997  18
  -8   1  -4 434.047 248.983   8
  -8  -1   4 209.835 130.291   1
   8  -1  -4 159.281 140.243   2
  -8  -1   4-31.9372 163.939  18
   8   1   4 134.335 130.728   4
   8  -1  -4 569.684 373.590  17
   8  -1   4 43.9820 60.1626  17
   8  -1  -4 138.587 176.455   4
  -8   1   5 327.144 197.097   8
   8   1  -5 126.897 201.031  17
  -8  -1   5-94.6708 150.739   8
   8   1  -5 0.18857 19.6889   4
  -8  -1  -5-26.6175 38.5279  16
   8   1   5 104.712 160.071   7
  -8  -1   5-18.9414 66.6102   1
  -8   1  -5-51.2148 100.768  16
  -8   1  -5 125.956 106.026   6
   8   1   5 200.567 205.528  15
  -8  -1  -5 73.1444 138.455   1
  -8   1  -5 75.3090 97.1318  14
   8   1  -5 55.1808 74.4931   2
  -8  -1  -5-38.6127 105.684   6
  -8  -1  -5-13.9365 89.0041  14
  -8   1   5 660.796 345.677  14
  -8  -1   5 51.2057 88.5656  14
   8   1   5 351.747 207.631  12
   8   1   5 111.326 115.661   3
  -8   1   5 1000.07 380.908   1
   8   1   5 232.558 139.491   5
  -8   1   5 1429.04 489.015  11
   8   1  -5 41.5092 67.0801   5
  -8   1  -5-131.401 123.747  18
  -8   1  -5-45.1110 143.756   1
   8   1  -5 162.658 115.265  19
   8   1   5 319.679 150.229  19
  -8   1  -5 124.644 103.743   8
   8   1   5 89.0988 201.276   4
  -8  -1   5-239.231 290.254  18
  -8  -1  -5 21.3092 78.3905   8
   8  -1  -5 551.976 239.417   2
  -8   1   6 216.854 184.347   1
   8  -1  -6 201.336 171.220   4
   8  -1  -6 306.799 188.313   2
   8  -1  -6 369.095 263.636  17
  -8   1   6 215.214 171.046   8
   8   1  -6 53.6932 97.9885  17
  -8  -1  -6 199.055 196.063   1
   8   1   6 34.4100 112.685   7
  -8  -1  -6 149.191 129.090  16
   8   1  -6 101.596 30.7658   4
  -8   1  -6 117.995 112.704  16
  -8   1  -6-57.3158 88.4161   6
   8   1   6 245.359 214.186  15
  -8   1  -6 242.362 259.735  14
  -8  -1  -6 182.898 119.554   6
   8   1  -6 74.2845 92.1676   2
  -8  -1  -6 211.757 139.750  14
  -8   1   6 6.80637 87.1884  14
  -8  -1   6 133.047 103.007  14
  -8  -1   6 220.465 157.345   1
   8   1   6 71.4453 91.8478   5
   8  -1  -6 344.517 224.948   5
  -8   1  -6-151.517 297.094   1
  -8   1   6 144.847 241.419  11
   8   1  -6 276.429 157.182   5
   8   1   6-30.8911 49.8322  19
   8  -1  -6 280.784 177.831  19
   8   1  -6 182.970 112.016  19
   8   1   6 128.025 164.851   4
  -8   1  -6 197.459 259.980   8
  -8   1   6 290.356 178.584  18
  -8  -1  -6 151.989 137.940   8
   8  -1  -7 133.265 87.1747   4
   8  -1  -7 197.352 182.334  17
   8  -1  -7 109.059 81.1397   2
  -8   1   7 225.961 128.059   8
   8   1  -7 257.232 212.522  17
   8   1   7 148.884 164.662   7
  -8   1   7 184.049 148.681   1
  -8  -1  -7 217.147 133.337  16
   8   1  -7 109.123 56.7318   4
  -8   1  -7 143.612 147.374  16
  -8   1  -7 12.2664 199.260   6
   8   1   7 38.5621 86.2372  15
  -8   1  -7 173.072 140.298  14
  -8  -1  -7 166.343 110.864   6
  -8  -1  -7 272.611 184.051  14
   8   1  -7 442.475 255.552   2
   8   1  -7 126.362 46.4286  19
  -8   1   7 248.674 144.366  14
  -8  -1   7 104.271 124.867  14
   8   1   7-72.8496 94.1039   5
  -8  -1   7 88.9787 151.221   1
   8  -1  -7 209.962 137.649   5
  -8   1   7 268.859 206.093  11
   8   1   7 77.4416 116.218  19
   8   1  -7 250.011 130.823   5
   8  -1  -7 221.363 132.358  19
   8   1   7 105.049 79.3503   4
  -8   1  -7 243.260 274.300   8
  -8   1   7 73.1388 66.3688  18
  -8  -1  -7 181.891 165.568   8
  -8  -1  -7 191.109 205.627   1
   8   1   8 178.478 131.130  19
   8  -1  -8 562.976 263.105  17
   8  -1  -8 441.965 192.631   4
   8  -1  -8 479.158 187.863   2
   8   1  -8 252.310 115.422  17
  -8   1   8 299.491 48.4216   8
   8   1   8 140.759 87.9129   7
  -8  -1  -8 622.287 242.226  16
   8   1  -8 316.102 126.622   4
  -8   1  -8-111.864 343.071   6
  -8   1  -8 393.495 230.551  16
   8   1   8 228.893 17.0832  15
  -8   1   8 430.875 187.308   1
  -8   1  -8-44.2257 295.760  14
  -8  -1  -8 574.149 225.163   6
  -8  -1  -8 544.229 258.768  14
   8   1  -8 774.546 315.238   2
  -8   1   8 446.413 208.144  14
  -8  -1   8 388.536 202.620  14
   8  -1  -8 586.592 237.735   5
  -8   1   8 513.958 239.702  11
   8   1  -8 724.506 279.363   5
  -8  -1  -8 361.324 248.399   1
   8  -1  -8 432.538 163.327  19
   8   1   8-14.3448 195.232   4
  -8   1  -8 664.377 442.521   8
  -8  -1   8 388.377 223.086   1
  -8   1   8 505.511 213.497  18
  -8  -1  -8 652.012 311.540   8
   8  -1  -9 386.839 220.740  17
   8  -1  -9 250.316 135.008   4
   8   1  -9 212.659 93.3033  17
  -8  -1   9 130.960 107.781   1
   8  -1  -9 381.071 216.447   2
  -8  -1  -9 418.406 187.393  16
  -8   1  -9 364.430 268.833  16
  -8  -1  -9 345.603 195.421   6
   8  -1  -9 300.448 164.813  19
  -8  -1  -9 297.956 193.152  14
   8   1  -9 282.176 211.657   2
  -8   1   9 265.482 153.504  14
  -8   1   9 237.499 165.364   1
  -8  -1   9 229.948 165.145  14
  -1   8   9-166.034 335.354  13
   8   1   9 94.2829 54.5860  19
  -8  -1  -9-108.284 262.864   1
  -8   1   9 156.613 69.2308  11
   8  -1  -9 483.149 227.593   5
   8   1  -9 308.741 178.620   5
  -8   1  -9 399.739 261.149   8
  -8   1   9 403.377 199.986  18
  -8  -1  -9 476.042 240.300   8
   8  -1 -10 437.034 196.137  19
   8  -1 -10 476.470 258.678  17
   8  -1 -10 373.444 156.953   4
   8   1 -10 263.994 76.0760  17
   8  -1 -10 410.919 226.878   2
  -8  -1 -10 535.212 237.903  16
  -8   1 -10 227.382 153.180  16
  -8  -1 -10 432.718 272.965   6
  -1   8  10 306.464 123.171   3
   1   8  10 223.875 120.640   3
  -8  -1 -10 484.016 289.196  14
  -8  -1  10 279.480 284.526   1
  -8   1  10 212.467 128.902  14
   8   1 -10 464.536 253.443   2
  -8  -1  10 398.578 198.478  14
   1   8  10-232.610 470.833  13
  -8   1  10 282.196 168.637   1
  -1   8  10 113.178 263.441  13
  -1  -8 -10 57.7309 80.8917   6
   1  -8 -10 163.238 184.509   6
  -8   1  10 352.177 205.721  11
   8  -1 -10 324.315 201.573   5
   8   1  10-81.1360 166.138  19
   8   1 -10 604.465 282.839   5
  -8   1 -10 246.233 208.496   8
  -8   1  10 345.635 189.098  18
  -8  -1 -10 476.919 249.950   8
   8  -1 -11 1132.42 397.757  17
  -1   8  11 862.110 316.296  18
   8   1 -11 615.789 235.926  17
  -8  -1 -11 1627.53 457.281  16
   8  -1 -11 1133.73 352.983   2
  -1   8  11 1004.11 312.190   3
   1   8  11 1010.51 327.985   3
  -8   1 -11 1070.37 433.663  16
  -8  -1 -11 1349.51 407.778   6
  -8  -1 -11 1472.00 518.189  14
  -8   1  11 764.811 270.354  14
   8   1 -11 1368.43 432.983   2
  -8  -1  11 622.890 258.272  14
   1   8  11 579.800 282.544  13
  -1   8  11 1203.51 474.390  13
  -1  -8 -11 378.145 242.074   6
   1  -8 -11 210.168 180.535   6
  -8  -1  11 524.106 343.383   1
  -8   1  11 642.135 290.594   1
   1   8  11 1061.86 275.938  12
  -8   1  11 509.110 181.725  11
   8  -1 -11 1170.39 366.434   5
   8   1  11-24.2581 93.0754  19
   8   1 -11 1758.54 546.653   5
   8  -1 -11 1323.73 320.812   4
  -8   1 -11 1604.49 694.756   8
  -8  -1 -11 1262.53 419.024   8
  -8   1  11 785.256 307.070  18
   8  -1 -12 499.587 287.866  17
   8  -1 -12 529.801 210.769   4
   8  -1 -12 416.102 229.872   2
  -8  -1 -12 588.612 293.182  16
  -8   1 -12 416.842 258.394  16
  -8  -1 -12 468.296 263.002   6
  -8  -1 -12 338.015 256.702  14
  -1   8  12 397.197 190.177   3
   1   8  12 402.389 203.153   3
  -8   1  12 182.589 108.031  14
  -1  -8 -12 385.983 204.101   6
   1  -8 -12 172.028 178.593   6
   1   8  12 275.765 245.219  13
  -1   8  12 401.840 220.661  13
  -8   1  12 240.749 95.5974   1
   1   8  12 338.904 149.203  12
   8  -1 -12 502.331 265.526   5
   8   1  12-8.70766 130.844  19
   1   8  12 629.419 272.247  18
  -8   1 -12 23.9433 385.977   8
  -1   8  12 610.295 297.852  18
  -8  -1 -12 518.753 262.643   8
  -8   1  12 191.667 141.586  18
   1  -8 -12 27.0457 152.318  17
  -8  -1 -13 2049.90 546.631  16
  -8  -1 -13 1885.77 543.905   6
  -1   8  13 1795.65 433.217   3
   1   8  13 1910.06 451.653   3
  -8  -1 -13 2091.49 609.414  14
  -8  -1 -13 2156.04 594.830   8
  -8   1 -13 2047.82 845.562   8
   1  -8 -13 512.933 284.186   6
  -1  -8 -13 648.240 274.003   6
   1   8  13 1611.41 593.798  13
  -1   8  13 1592.75 523.378  13
   8  -1 -13 2278.21 521.485   5
   1   8  13 1600.80 376.343  12
  -1   8  13 1961.64 402.415  12
   8  -1 -13 2060.53 508.796   2
  -8   1  13 1121.47 402.441   1
   8  -1 -13 2341.26 446.872   4
   1   8  13 2405.86 558.128  18
  -1   8  13 2180.49 521.336  18
  -8   1  13 787.820 302.181  18
   8  -1 -13 1793.56 510.671  17
  -1  -8 -13 603.114 293.445  17
   1  -8 -13 542.137 329.246  17
   8  -1 -14 181.261 67.8311  17
   8  -1 -14 95.9847 149.859   2
  -8  -1 -14 145.178 170.286  16
  -8  -1 -14 76.3456 41.3633   6
  -1   8  14 162.523 120.437   3
   1   8  14 98.0550 97.6933   3
   1  -8 -14-120.530 177.529   6
  -1  -8 -14 180.847 161.417   6
   1   8  14 93.3198 204.021  13
  -1   8  14 195.495 193.446  13
   1   8  14 114.172 81.1435  12
  -1   8  14 199.585 92.4816  12
   8  -1 -14 245.179 150.993   5
   1   8  14 198.315 200.391  18
  -1   8  14 383.330 242.456  18
  -8   1 -14 13.6313 97.7856   8
  -8   1  14-70.8902 91.0636   1
  -8  -1 -14 490.358 330.373   8
  -8   1  14-177.238 219.015  18
  -1  -8 -14 180.581 199.395  17
   1  -8 -14 164.590 180.834  17
   8  -1 -15 1359.27 447.757  17
  -1  -8 -15-51.3353 300.770  16
   8  -1 -15 1542.22 475.518   2
  -8  -1 -15 1693.10 563.582  16
  -8  -1 -15 984.704 324.141   6
  -8   1  15 451.770 278.792   1
  -1   8  15 1125.39 338.332   3
   1   8  15 1072.64 338.629   3
   1  -8 -15 411.719 273.120   6
  -1  -8 -15 692.955 321.902   6
   1   8  15 1020.34 482.278  13
  -1   8  15 818.488 358.442  13
   1   8  15 1085.56 309.936  12
  -1   8  15 1285.43 335.495  12
   8  -1 -15 1475.75 441.591   5
  -1   8  15 1436.13 399.514  18
  -8  -1 -15 1192.74 506.416   8
  -8   1  15 48.4446 267.788  18
  -1  -8 -15 715.064 318.574  17
   1  -8 -15 447.492 208.734  17
   1  -8 -16 241.566 49.7467  17
   8  -1 -16 258.072 203.319  17
   1  -8 -16-271.039 300.658  16
  -1  -8 -16 49.7790 267.194  16
  -8  -1 -16 303.755 203.904  16
   8  -1 -16 307.146 233.575   2
  -8  -1 -16-225.848 328.311   6
   1  -8 -16 1.14978 73.0441   6
  -1  -8 -16 291.812 255.174   6
  -1   8  16 137.190 104.883   3
   1   8  16 242.538 158.828   3
   1   8  16 259.833 307.916  13
  -1   8  16 402.686 305.839  13
   1   8  16 260.837 146.725  12
  -1   8  16 133.346 61.7611  12
   8  -1 -16 289.470 184.527   5
  -8   1  16 124.659 187.717   1
  -1   8  16 282.974 160.836  18
  -8  -1 -16 426.474 292.613   8
  -8   2   0 3704.28 635.692   8
  -8  -2   0 3209.27 413.943   6
  -8   2   0 3107.60 697.582  14
  -8  -2   0 2706.61 449.941  14
  -8   2   0 3245.10 678.316   1
   8   2   0 2910.20 457.361   5
   8   2   0 2501.62 521.539  12
   8  -2   0 649.188 221.536   5
  -8  -2   0 2983.88 458.127   1
   8   2   0 3110.89 345.714   2
   8   2   0 2924.64 435.112  19
   8  -2   0 751.693 296.491  19
   8   2   0 2851.56 443.211   4
  -8   2   0 3483.79 522.472  18
  -8  -2   0 2913.01 458.379   8
   8  -2   0 973.507 303.773  17
  -8  -2   1 743.109 232.469   1
  -8  -2   1 492.991 187.064   8
   8   2   1 727.146 234.691   4
   8   2  -1 774.346 230.631   4
  -8   2   1 889.438 327.472   1
  -8  -2  -1 851.932 251.100  14
   8   2   1 583.274 197.833  19
  -8   2  -1 478.611 302.175  14
  -8   2   1 536.354 287.918  14
   8   2  -1 801.243 197.901   2
  -8  -2   1 506.332 201.123  14
  -8  -2  -1 672.465 191.363   6
  -8  -2   1 713.940 206.220   6
  -8  -2  -1 530.383 180.945   1
   8  -2  -1 249.711 168.077   5
   8   2   1 552.559 208.856  12
   8   2   1 557.299 193.653   5
   8   2  -1 680.023 218.397   5
   8   2  -1 745.033 218.163  19
   8  -2  -1 270.435 193.156  19
  -8  -2  -1 758.156 233.790   8
  -8   2  -1 797.298 244.492  18
  -8   2   1 706.438 201.844  18
  -8   2  -1 826.679 305.414   8
   8  -2  -1 195.075 86.8707   4
  -8   2   1 867.783 272.118   8
  -8   2  -1 654.354 309.309   1
   8  -2  -1 258.130 131.078  17
   8  -2  -2 607.352 281.393  17
  -8  -2   2 887.763 288.705   8
  -8  -2  -2 1113.99 247.614   6
  -8  -2   2 902.651 254.347   6
  -8  -2  -2 879.353 254.729  14
  -8   2   2 1223.59 385.162   1
   8   2   2 170.099 104.177   3
  -8   2  -2 1134.66 435.466  14
  -8   2   2 1162.50 398.939  14
  -8  -2   2 769.581 250.436  14
  -8   2   2 242.059 131.497  13
   8   2   2 953.788 260.204   5
   8   2  -2 1132.35 293.438   5
  -8  -2  -2 945.979 245.672   1
   8  -2  -2 708.320 284.675   5
   8   2   2 774.208 237.738  12
  -8  -2   2 851.809 286.474   1
   8   2  -2 1337.93 313.040   2
   8  -2  -2 105.615 124.743   2
   8   2   2 948.763 252.867  19
   8   2  -2 1094.06 270.261  19
   8  -2  -2 703.651 237.026  19
   8   2   2 884.072 254.280   4
  -8   2   2 1426.74 335.016   8
   8   2  -2 874.047 256.209   4
  -8   2  -2 1191.97 327.955  18
  -8   2   2 1339.96 317.523  18
  -8  -2  -2 847.130 245.992   8
   8  -2  -2 315.811 202.721   4
  -8   2  -2 1112.69 416.844   1
  -8   2  -2 1319.52 420.884   8
   8  -2   2 74.9599 63.5772  17
  -8  -2  -3 34.6744 30.3534   8
   8   2   3-49.2187 61.8146   4
  -8  -2  -3 104.401 95.6517   1
  -8  -2   3 71.3406 113.975   8
   8   2  -3 76.2241 68.0663   4
  -8   2  -3-30.1323 65.4358  14
   8   2   3-75.7637 44.0918   3
  -8  -2  -3 123.376 111.046  14
   8   2  -3 85.8762 23.8665   2
  -8  -2  -3 131.247 94.6974   6
  -8  -2   3 91.3560 112.694  14
  -8   2   3 266.084 324.407  13
  -8  -2   3-71.2898 211.204   6
   8   2   3 131.649 164.851  12
   8  -2  -3 370.462 429.819   5
  -8   2   3 226.033 330.163  11
   8   2   3 60.1213 69.6966   5
  -8  -2   3 239.447 186.703   1
   8  -2  -3 559.435 401.453  19
   8  -2  -3 135.443 310.744   2
   8   2  -3 40.7415 60.4406   5
   8   2   3 90.8959 94.5081  19
  -8   2  -3-41.0380 79.3046   1
   8   2  -3 58.3472 70.9381  19
  -8   2  -3-51.5986 141.620  18
  -8   2   3 388.274 313.382  18
   8  -2  -3 171.046 413.400   4
  -8   2  -3-30.2671 143.230   8
   8  -2  -3 413.859 434.384  17
  -8   2   3 200.192 216.411   8
   8  -2  -4 827.687 380.953  17
  -8  -2   4 275.344 159.051   1
  -8  -2   4 69.8728 202.706   8
   8   2  -4 170.449 70.6270   4
  -8   2  -4 560.445 184.752  14
  -8  -2  -4 246.375 131.798  14
  -8  -2  -4 201.049 60.6586   6
  -8  -2   4 106.902 88.3376  14
   8   2   4 159.332 137.186   3
   8   2  -4 176.921 58.7979   2
  -8   2   4 848.750 307.712  13
   8   2   4 261.589 146.078  12
  -8  -2  -4 314.174 140.484   1
   8  -2  -4 747.352 369.436   5
   8   2   4 136.161 108.272   5
  -8   2  -4 250.004 190.995   1
   8   2  -4 289.962 165.061   5
   8  -2  -4 663.220 236.411  19
   8   2   4 121.402 90.7644  19
   8  -2  -4 482.122 330.632   2
   8   2  -4 223.303 103.478  19
  -8   2  -4 1074.76 484.647   8
   8  -2  -4 996.860 509.500   4
   8   2   4 252.215 178.083   4
  -8  -2  -4 253.808 103.784   8
  -8  -2  -5 383.738 162.959  16
  -8   2   5 1385.20 597.675  14
  -8   2  -5-323.613 616.810  14
   8  -2  -5 467.603 233.283   2
  -8  -2  -5 479.688 196.386  14
  -8  -2  -5 595.577 204.718   6
   8  -2  -5 379.083 240.928  19
  -8  -2   5 375.105 181.498  14
   8   2  -5 548.098 214.279   2
  -8   2   5 346.972 215.748  13
   8   2   5 288.977 232.992   3
  -8  -2   5 342.820 185.085   1
  -8   2   5 743.166 397.307   1
   8   2   5 597.119 252.364  12
  -8  -2  -5 469.307 175.914   1
   8  -2  -5 470.746 195.010   5
   8   2   5 518.819 229.063   5
  -8   2  -5 298.981 256.017   8
  -8   2   5 458.178 325.065  11
   8   2   5 369.041 152.404  20
   8   2  -5 789.743 285.057   5
  -8   2   5 522.194 446.152   9
   8   2   5 326.239 125.469  19
   8   2  -5 855.549 254.357  19
   8  -2  -5 384.961 196.330   4
   8   2   5 537.463 238.806   4
  -8  -2  -5 464.311 178.009   8
   8  -2  -5 247.634 81.2116  17
  -8   2   6 153.559 48.3346   8
  -8  -2  -6 213.509 210.320  16
   8  -2  -6 56.7415 59.1135  19
  -8   2   6 46.5482 109.860  14
  -8  -2  -6 150.333 118.466   6
  -8  -2  -6 78.6374 44.8063  14
   8   2  -6 209.080 124.273   5
  -8  -2   6 259.031 161.415  14
  -8  -2  -6 178.250 124.321   1
   8  -2  -6 77.0561 59.7495  17
   8   2  -6 55.5943 126.681   2
   8   2   6 69.4014 62.0076   3
  -8   2   6 207.775 108.725  13
   8   2   6 126.148 124.090  12
   8   2   6 104.155 90.8222   5
   8  -2  -6 189.467 158.223   5
  -8   2   6 149.367 133.432   1
  -8   2   6 270.742 162.522  11
  -8   2   6 287.856 186.672   9
   8   2   6 69.6166 73.7691  20
  -8   2   6 65.9312 213.906  10
  -8  -2   6-62.7588 94.8422   1
   8   2   6-17.4161 116.393  19
  -8   2  -6 267.558 253.574   8
   8  -2  -6 72.6091 33.7687   2
  -8   2   6 390.523 169.456  18
   8  -2  -6 97.1076 62.0663   4
   8   2   6 164.618 110.143   4
  -8  -2  -6 141.312 106.100   8
   8  -2  -7 750.725 274.055  17
  -8  -2  -7 1597.94 424.516  16
  -8  -2   7 601.328 314.711   1
   8   2   7 753.760 318.940   7
  -8  -2  -7 1164.67 311.838   6
  -8  -2  -7 1386.24 400.906   1
   8   2   7 732.230 313.834  15
  -8   2   7 1007.75 352.576  14
  -8  -2  -7 944.106 284.641  14
  -8   2   7 1482.74 489.352   9
  -8  -2   7 701.778 300.801  14
   8   2   7 608.911 245.568   3
   8   2   7 572.454 242.340  12
   8   2   7 678.192 267.887   5
   8  -2  -7 805.693 281.430   5
  -8   2   7 1367.88 406.341  11
  -8   2   7 1076.50 361.456   1
   8   2   7 683.252 241.243  20
   8  -2  -7 953.622 248.559  19
   8   2   7 539.994 221.534  19
   8   2  -7 1280.76 367.920   5
  -8  -2  -7 1087.15 313.728   8
  -8   2   7 1306.69 270.267   8
  -8   2  -7 1004.93 491.639   8
  -8   2   7 1122.64 305.666  18
   8  -2  -7 925.089 275.707   2
   8   2   7 508.820 226.176   4
   8  -2  -7 820.954 251.991   4
   8  -2  -8 64.0619 32.8269  17
  -8   2   8 2.80874 16.3459   8
  -8  -2  -8 18.2458 140.768   1
  -8  -2  -8 92.0353 135.651  16
   8   2   8 79.0093 154.905   7
   8   2   8-73.1236 151.301  15
  -8  -2  -8 11.7796 59.2378   6
  -8   2   8 40.4203 136.046  14
  -8  -2  -8-50.6746 99.3742  14
   8   2   8 111.030 130.339  12
   8   2   8 82.5989 117.179   3
   8   2   8-75.5467 158.445   5
   8  -2  -8 0.64144 60.1072   5
  -8   2   8-41.0550 93.7560  11
  -8   2   8-331.764 390.051   9
   8   2   8-76.4441 229.254  20
   8   2   8-10.0021 66.6893  19
  -8   2   8 35.7736 102.672   1
   8  -2  -8-16.0021 66.8921  19
  -8   2  -8-270.235 473.780   8
   8   2   8-121.462 118.213   4
  -8   2   8 53.8892 67.4690  18
   8  -2  -8-11.8127 38.8132   2
  -8  -2  -8 42.6341 37.3728   8
   8  -2  -8-13.7972 90.0976   4
   8  -2  -9 747.854 314.116  17
  -8   2   9 1142.65 345.640   8
  -8  -2  -9 1629.51 426.832  16
   8   2   9 500.870 278.372   7
   8   2   9 532.394 292.840  15
   2   8   9 997.566 323.212   3
  -8  -2  -9 1222.81 345.026   6
  -8  -2  -9 1131.06 333.450  14
  -8   2   9 738.166 290.526  14
  -2   8   9 507.906 109.505  13
  -8   2  -9 1445.50 566.466   8
   8  -2  -9 950.801 330.008   5
  -8   2   9 1233.80 414.171  11
   8  -2  -9 1020.59 256.489  19
   8   2   9 546.067 245.527  19
  -8   2   9 515.546 168.112   9
  -8   2   9 1117.73 348.115  18
  -8   2   9 875.479 327.355   1
   8   2   9 251.301 182.354   4
  -8  -2  -9 910.228 388.374   1
  -8  -2  -9 1168.43 345.311   8
   8  -2  -9 967.005 303.519   4
   8  -2  -9 893.138 267.691   2
   8  -2 -10 761.891 251.787   4
   8  -2 -10 555.968 233.098   2
   8  -2 -10 761.766 313.466  17
   8   2  10 523.601 297.565   7
  -8  -2 -10 1186.90 370.612  16
   8   2  10 232.267 148.222  15
   2   8  10 706.057 283.923   3
  -8  -2 -10 913.575 288.639   6
  -8  -2 -10 916.542 317.760  14
  -8   2  10 755.394 322.746  14
  -2   8  10 546.955 251.642  13
  -2  -8 -10 92.6901 170.854   6
   2  -8 -10 13.1526 100.598   6
   8  -2 -10 616.280 247.957   5
  -8   2  10 832.930 330.227  11
  -8  -2 -10 103.578 211.573   1
   8   2  10 461.889 224.806  19
   8  -2 -10 720.577 231.585  19
  -2   8  10 203.295 104.877  18
   8   2  10 225.850 137.582   4
  -8   2 -10-166.835 686.292   8
  -8   2  10 862.399 310.316  18
  -8   2  10 648.061 296.907   1
  -8  -2 -10 906.239 327.454   8
   8  -2 -11 983.024 280.652   4
  -8   2  11 907.867 343.458   1
   8  -2 -11 1052.02 360.546   2
   8  -2 -11 902.612 359.899  17
   8   2  11 194.361 38.9728   7
  -8  -2 -11 1391.51 397.385  16
   2   8  11 1044.06 344.259   3
   8   2  11 208.412 206.163  15
  -2   8  11 696.871 284.054  18
  -2   8  11 719.792 254.393   3
  -8  -2 -11 1191.23 378.393   6
  -8  -2 -11 1239.46 397.501  14
  -8   2  11 605.620 272.611  14
   2   8  11 237.356 265.016  13
  -2   8  11 1156.53 449.595  13
  -2  -8 -11 308.842 209.685   6
   2  -8 -11-30.1157 93.4305   6
   2   8  11 1131.95 315.709  12
   8  -2 -11 969.516 358.575   5
  -8   2  11 969.594 387.888  11
   8   2  11 148.536 140.624  19
   8  -2 -11 806.452 257.923  19
  -8   2  11 957.327 339.508  18
  -8  -2 -11 1321.80 385.122   8
  -8  -2 -12 1954.46 501.759   8
  -8   2  12 1233.09 388.606   1
  -8  -2 -12 2308.13 546.796  16
  -8  -2 -12 1976.60 488.008   6
  -2   8  12 1652.98 401.302   3
   2   8  12 1661.38 428.088   3
  -8  -2 -12 2193.44 575.077  14
  -2  -8 -12 687.225 315.593   6
   2  -8 -12 383.955 237.330   6
   2   8  12 1228.92 525.425  13
  -2   8  12 1402.55 478.501  13
   2   8  12 1672.55 382.749  12
   8  -2 -12 1670.63 437.539   2
   8  -2 -12 1504.96 417.237   5
  -8   2  12 1625.42 489.431  11
   8   2  12 233.175 150.767  19
   8  -2 -12 1443.90 356.159   4
   2   8  12 2806.25 629.885  18
  -8   2  12 1487.57 438.541  18
  -2   8  12 1645.70 467.835  18
   8  -2 -12 1672.52 489.244  17
   2  -8 -12 48.9265 139.066  17
   8  -2 -13 409.068 258.214  17
   8  -2 -13 404.901 226.911   2
  -8  -2 -13 540.656 223.382  16
  -8   2  13 83.9996 95.5346   1
  -8  -2 -13 486.053 262.235   6
  -8  -2 -13 659.034 316.489  14
  -2   8  13 416.348 198.695   3
   2   8  13 499.357 243.113   3
   2  -8 -13 93.2425 53.4274   6
  -2  -8 -13 94.2326 124.423   6
   2   8  13 63.9665 135.007  13
  -2   8  13 392.492 240.997  13
   2   8  13 462.852 199.834  12
   8  -2 -13 446.245 229.236   5
  -8   2  13 329.204 209.903  11
   8   2  13 97.0044 158.393  19
  -2   8  13 474.660 248.399  18
  -8   2  13 430.568 249.097  18
  -8  -2 -13 655.449 293.732   8
  -2  -8 -13 8.11306 161.354  17
   2  -8 -13 153.277 187.184  17
  -8  -2 -14 2885.16 648.247  16
  -8  -2 -14 2288.66 584.861   6
  -2   8  14 2166.70 469.690   3
   2   8  14 2098.90 488.467   3
  -8   2  14 1235.68 442.221   1
  -8  -2 -14 2845.51 786.013  14
   2  -8 -14 557.190 282.193   6
  -2  -8 -14 1238.31 447.926   6
   2   8  14 2101.75 680.218  13
  -2   8  14 1608.26 512.771  13
   8  -2 -14 2567.70 547.756   5
   2   8  14 2342.92 459.345  12
   8  -2 -14 2249.22 560.326   2
  -8   2  14 1379.86 480.943  11
   8   2  14 115.458 171.057  19
  -8  -2 -14 2546.19 585.441   8
  -2   8  14 2629.30 577.907  18
  -8   2  14 1392.62 438.321  18
   8  -2 -14 2418.14 610.340  17
   2  -8 -14 694.656 295.551  17
   8  -2 -15 815.722 347.857  17
   8  -2 -15 528.070 234.220   2
  -2  -8 -15-279.228 451.756  16
  -8  -2 -15 966.730 369.511  16
  -8  -2 -15 634.816 355.721   6
  -8   2  15 404.098 240.910   1
  -8  -2 -15 724.318 313.823  14
  -2   8  15 373.305 173.820   3
   2  -8 -15 178.690 209.210   6
   2   8  15 519.253 239.993   3
  -2  -8 -15 7.04797 195.291   6
  -8  -2 -15 683.302 315.342   8
   2   8  15 363.552 301.245  13
  -2   8  15 468.731 293.666  13
   2   8  15 598.778 237.977  12
   8  -2 -15 675.731 272.099   5
  -8   2  15 164.431 244.550  11
  -2   8  15 719.052 306.541  18
   8   2  15 213.136 222.021  19
  -8   2  15 334.158 192.399  18
   2  -8 -15 624.782 300.018  17
   2  -8 -16 248.588 157.013  17
   8  -2 -16 1002.66 420.848  17
   8  -2 -16 859.941 365.631   2
   2  -8 -16 123.559 255.442  16
  -2  -8 -16 71.1390 271.862  16
  -8  -2 -16 1079.47 449.411  16
  -8  -2 -16 892.901 378.392   6
  -8   2  16 349.382 271.801   1
  -2  -8 -16 620.269 334.602   6
  -2   8  16 771.313 272.522   3
   2   8  16 818.810 323.619   3
   2   8  16 793.487 428.262  13
  -2   8  16 665.826 326.202  13
   2   8  16 806.742 300.141  12
   8  -2 -16 1120.17 412.035   5
  -2   8  16 811.208 313.459  18
   8   2  16-104.635 181.036  19
  -8  -2 -16 766.024 336.857   8
  -8   2  16 254.581 125.036  18
  -8  -3   0 352.181 183.370   8
   8   3   0 425.733 185.682   4
  -8  -3   0 421.015 163.359  14
  -8  -3   0 350.049 168.381   6
   8   3   0 349.113 163.297   5
   8   3   0 424.280 180.184  19
  -8  -3   0 328.480 170.970   1
  -8   3   0 501.906 300.903   1
  -8   3   0 608.320 271.361  18
  -8   3   0 575.931 332.165   8
   8  -3   0-386.675 330.027  17
   8   3   1 3062.93 476.787   4
  -8  -3   1 1962.26 437.648   8
  -8  -3  -1 3207.88 488.869   6
  -8  -3   1 2803.57 581.601   6
  -8  -3  -1 2735.75 471.535  14
  -8  -3   1 2304.26 451.245  14
  -8   3   1 1346.29 401.639  14
  -8   3  -1 2344.96 662.725   1
  -8   3   1 3595.25 739.273   1
   8   3   1 2880.25 451.907   5
   8   3   1 2827.77 585.300  12
   8   3  -1 3017.10 493.962   5
  -8  -3  -1 2698.00 445.349   1
  -8  -3   1 2162.39 447.787   1
   8   3   1 2927.22 454.941  19
   8   3  -1 3177.76 483.953  19
  -8   3  -1 3252.56 698.556   8
  -8   3   1 3029.62 556.797   8
  -8   3  -1 2850.37 516.710  18
  -8   3   1 3797.41 594.703  18
   8   3  -1 2938.15 491.912   4
  -8  -3  -1 2602.87 464.326   8
   8  -3  -1 291.211 148.735  17
  -8  -3  -2 161.468 108.372   8
  -8  -3   2-31.6637 186.005   8
   8   3   2 143.669 82.0012   4
   8   3  -2-156.744 188.891   4
  -8   3   2 426.853 138.690  14
  -8  -3  -2 78.2001 83.9137  14
  -8  -3   2 3.69177 87.3183  14
  -8  -3  -2 72.9116 43.2726   6
   8   3   2 32.5070 102.923  12
  -8   3  -2 19.4715 53.0536   8
  -8   3  -2-169.753 301.901   1
   8   3   2 101.188 21.7143   5
   8   3  -2 79.6891 21.4519   5
   8   3   2 107.715 53.2676  19
   8   3  -2 19.6373 78.5368  19
  -8   3   2 430.527 206.534   8
  -8  -3   2-19.6511 83.1592   1
  -8  -3  -2 39.9534 41.1667   1
   8  -3  -2 399.486 440.599  17
  -8  -3  -3 1369.02 301.289   6
  -8   3   3 2558.58 897.595  14
  -8  -3  -3 1061.60 284.954  14
   8   3   3 529.726 262.881   3
  -8  -3   3 937.753 345.471   1
  -8   3  -3 562.882 342.034   8
  -8  -3   3 584.418 252.729  14
  -8   3   3 452.248 151.156  13
  -8   3   3 1859.72 603.483   1
   8   3   3 1169.05 280.550   5
   8   3   3 1123.07 320.434  12
   8   3  -3 1446.02 363.665   5
  -8  -3  -3 1284.81 285.285   1
   8   3   3 1160.89 288.285  19
   8   3  -3 1466.97 348.505  19
  -8   3   3 2241.35 457.281   8
   8  -3  -3 1208.93 430.128  19
   8   3   3 1222.85 302.132   4
  -8  -3  -3 1152.11 291.320   8
   8  -3  -3 790.504 352.905  17
  -8  -3  -4 176.900 122.893   8
   8   3   4 228.236 133.849   4
  -8   3   4 172.901 194.660   1
  -8   3   4 333.929 304.084  14
  -8  -3  -4 264.191 137.040   1
   8   3   4 198.514 146.861   3
  -8  -3  -4 245.945 150.460  14
  -8  -3  -4 210.197 111.145   6
  -8  -3   4 307.726 224.142  14
  -8   3   4 206.976 130.791  13
   8  -3  -4-3.69906 61.5631   5
   8   3   4 143.377 77.2590  12
   8   3   4 225.772 106.096   5
   8  -3  -4-8.22648 45.0141   2
   8  -3  -4 268.887 282.606  19
   8   3  -4 196.013 72.6854   5
   8   3   4 251.316 147.524  19
  -8   3  -4 48.8293 304.967   8
  -8   3   4 23.9201 65.8426  18
  -8  -3   4 132.634 125.828   1
  -8   3   4 364.427 176.413   8
   8  -3  -4 41.1473 215.794  17
   8  -3  -5-8.08801 50.2853  17
  -8  -3  -5 59.9301 69.9798   8
   8  -3  -5 88.4910 99.7366  19
   8   3   5-4.57719 55.2022   4
  -8  -3  -5 9.98458 28.3705   1
  -8   3   5 74.7574 165.811   1
  -8   3   5 72.6248 209.030  14
  -8  -3  -5-18.1283 60.6774  14
   8   3   5-8.46125 29.3175   3
  -8  -3  -5-15.1016 38.8293   6
  -8   3   5 4.75335 51.9625  13
   8  -3  -5 19.0753 140.157   5
   8   3   5 64.6303 134.591  12
   8   3   5 59.1476 87.7455   5
   8  -3  -5 0.07933 40.5189   2
   8   3   5 27.2564 54.9714  19
   8  -3  -5-107.395 203.789   4
  -8   3  -5-168.569 468.459   8
  -8   3   5 75.9280 83.2993  18
  -8   3   5-27.2592 86.4110   8
   8   3   6 384.312 194.560   4
  -8  -3  -6 354.138 169.489   8
   8  -3  -6 225.571 166.008  17
  -8  -3  -6 409.137 161.562   1
  -8   3   6 39.4611 93.0242  14
  -8   3   6 321.184 230.153   1
  -8  -3  -6 384.610 157.874  14
  -8  -3  -6 397.795 169.655   6
   8   3   6 388.625 208.370   3
  -8   3   6 451.176 167.502  13
   8   3   6 357.778 191.642  12
   8  -3  -6 179.679 145.769   5
  -8   3   6 706.167 297.482  11
   8   3   6 364.660 174.133   5
   8  -3  -6 271.021 165.876  19
   8  -3  -6 352.437 149.676   2
   8   3   6 307.193 168.821  19
   8  -3  -6 70.3327 56.6618   4
  -8   3   6 432.599 211.216  18
  -8   3   6 504.774 163.992   8
  -8  -3  -7 123.873 105.789   8
  -8   3   7 50.2025 56.3962   8
   8  -3  -7 107.448 140.507  17
  -8  -3  -7-170.577 320.170  16
  -8   3   7-65.3287 76.6601  14
  -8  -3  -7 2.98930 72.3437  14
  -8  -3  -7 36.3867 61.1238   6
  -8   3   7 119.604 137.458   1
   8   3   7 11.7880 76.4039   3
  -8   3   7 19.0267 65.4969  13
   8   3   7-0.86658 42.1794  12
  -8  -3  -7-34.5310 42.2354   1
   8  -3  -7 53.4230 90.2417   5
   8   3   7 31.5859 26.9060   5
  -8   3   7-75.1652 103.277  11
   8   3   7 49.4320 73.4327  10
   8   3   7 34.6158 163.069  20
  -8   3   7 122.832 160.228  10
   8  -3  -7-19.2366 28.9503  19
   8   3   7 17.5078 72.7792  19
   8  -3  -7-27.9650 69.5628   2
   8  -3  -7-97.5856 180.260   4
  -8   3   7 24.8886 86.9631  18
   8   3   7-18.8432 69.9918   4
   8  -3  -8 1281.59 398.715  17
  -8  -3  -8 2261.24 597.717  16
  -8  -3  -8 1771.61 388.816   6
  -8  -3  -8 1518.22 354.429  14
  -8   3   8 971.000 463.385  14
  -8   3   8 1305.19 282.718  13
   8   3   8 857.893 294.715   3
  -8  -3  -8 1765.61 419.592   1
  -8   3   8 1685.76 474.368   1
   8   3   8 794.028 255.399  12
   8  -3  -8 921.524 331.774   5
   8   3   8 1066.99 324.854   5
  -8   3   8 2234.20 540.160  11
   8   3   8 1057.06 303.483  20
   8   3   8 1012.76 251.420  10
  -8   3   8 1641.48 467.916  10
   8  -3  -8 1123.18 263.289  19
  -8   3   8 2203.16 637.295   9
   8   3   8 962.103 280.539  19
  -8  -3  -8 1446.67 352.030   8
  -8   3   8 1742.05 409.681  18
  -8   3   8 2112.56 337.595   8
   8  -3  -8 1236.12 339.149   2
   8  -3  -8 1189.32 365.065   4
   8   3   8 912.409 317.662   4
   8  -3  -9 146.764 146.903  17
  -8  -3  -9 174.598 60.0095  16
  -8  -3  -9 145.013 13.3085   1
   8   3   9 102.923 182.150   7
   8   3   9 120.390 195.239  15
   3   8   9 93.7605 89.8993   3
  -8   3   9-43.7673 148.624  14
  -8  -3  -9 115.800 51.4704   6
  -8  -3  -9 246.435 155.519  14
  -3   8   9-188.328 325.355  13
  -3  -8  -9 48.0063 130.616   6
   8   3   9 49.7225 22.9145   3
  -8   3   9 190.099 137.419  13
  -8   3   9 210.926 191.387   1
   8   3   9 94.8679 120.805  12
   8   3   9 269.309 172.280   5
   8  -3  -9 11.0751 87.9271   5
  -8   3   9 229.820 132.043  11
   8   3   9 306.016 224.761  20
   8   3   9 116.486 78.2883  10
  -8   3   9 272.013 277.104  10
  -8   3   9 556.287 378.890   9
   8   3   9 146.377 120.013  19
   8  -3  -9 175.224 96.2427  19
   8  -3  -9 193.388 166.066   2
   8  -3  -9 120.277 26.8231   4
  -8   3   9 182.768 145.635  18
   8   3   9 73.0562 39.3056   4
  -8  -3  -9 293.979 187.295   8
   8  -3 -10 429.922 239.323  17
  -8  -3 -10 958.779 376.144  16
   8   3  10 452.590 293.512   7
   8   3  10 527.398 254.339  15
   3   8  10 492.457 238.156   3
  -8   3  10 512.512 331.323  14
  -8  -3 -10 611.729 220.300   6
  -8  -3 -10 629.673 251.338  14
  -3   8  10 148.644 74.7530  13
  -3  -8 -10-28.2735 81.3613   6
   3  -8 -10-60.1064 137.531   6
   8   3  10 375.453 212.232   3
   8   3  10 446.865 232.652  12
   8   3  10 267.256 156.547   5
  -8   3  10 345.065 217.718   1
   3   8  10 446.040 179.644  12
   8  -3 -10 500.660 266.167   5
  -8   3  10 810.961 527.327  10
  -8   3  10 808.267 369.180  11
   8   3  10 416.970 261.767  20
   8   3  10 542.725 230.707  10
   8   3  10 226.004 137.095  19
   8  -3 -10 438.936 225.001   2
   8  -3 -10 526.935 185.328  19
  -3   8  10 331.468 163.506  18
   8   3  10 267.822 182.280   4
  -8   3  10 620.611 265.219  18
   8  -3 -10 504.253 218.740   4
  -8  -3 -10 479.801 292.057   1
  -8  -3 -10 679.083 255.872   8
  -8   3  10 695.971 422.818   9
   8  -3 -11 1515.45 457.146  17
  -8  -3 -11 2679.07 614.494  16
   8   3  11 1152.80 471.363   7
  -8  -3 -11 1980.49 461.849   6
   3   8  11 1810.06 481.014   3
   8   3  11 975.373 395.372  15
  -8  -3 -11 1960.41 462.335  14
  -3   8  11 1731.16 514.368  13
   3   8  11 99.3721 389.314  13
  -3  -8 -11 513.884 273.687   6
   3  -8 -11 210.695 169.335   6
   3   8  11 1600.71 379.959  12
   8   3  11 868.765 346.620  12
   8   3  11 906.927 317.426   3
  -8   3  11 1652.18 613.857   9
   8  -3 -11 1449.82 421.153   2
   8  -3 -11 1806.09 483.136   5
  -8   3  11 2092.02 577.402  11
  -8   3  11 1408.63 442.480   1
   8   3  11 697.106 295.331  20
   8   3  11 773.043 274.226  10
  -8   3  11 1140.95 543.034  10
   8   3  11 644.025 241.033  19
  -8  -3 -11 1776.20 414.027   8
  -8   3  11 1681.67 431.937  18
  -3   8  11 1290.90 414.781  18
   8   3  11 826.035 387.045   4
   8  -3 -11 1695.54 442.139   4
   3  -8 -11-45.0218 151.786  17
   8  -3 -12 415.860 282.254  17
   8   3  12 475.117 318.009   7
  -8  -3 -12 791.662 371.791  16
   8   3  12 348.741 250.348  15
  -3   8  12 396.717 206.773   3
  -8  -3 -12 705.884 303.978   6
  -8  -3 -12 750.767 296.860  14
   3   8  12 388.878 228.587   3
  -3  -8 -12 98.2418 204.457   6
   3  -8 -12 106.374 154.915   6
   3   8  12-92.5031 442.760  13
  -3   8  12 268.366 188.412  13
   8   3  12 549.796 293.162  12
   8   3  12 501.504 299.434   3
   3   8  12 368.294 175.005  12
   8  -3 -12 370.149 229.879   5
  -8   3  12 493.813 305.772  11
  -8   3  12 384.750 255.353   1
  -8   3  12 395.248 253.762   9
   8   3  12 197.700 66.7927  20
   8   3  12 336.089 180.046  19
  -3   8  12 477.011 254.654  18
  -8   3  12 346.224 203.868  18
   8   3  12 84.0906 72.1307   4
   8  -3 -12 400.497 238.868   2
  -8  -3 -12 503.862 246.232   8
   3  -8 -12 27.4834 34.5898  17
   8   3  13 868.902 313.273  19
  -8  -3 -13 3944.74 786.431  16
   8   3  13 1214.80 461.011   7
  -8  -3 -13 3171.15 637.624   6
  -3   8  13 2717.54 515.090   3
   3   8  13 2829.76 581.111   3
   8   3  13 920.275 409.473  15
  -8  -3 -13 3410.68 673.044  14
  -3  -8 -13 862.915 326.628   6
  -3   8  13 2549.25 615.266  13
   3   8  13 2070.93 690.328  13
   8  -3 -13 3032.28 664.118   5
   3   8  13 2756.97 500.269  12
  -8   3  13 1922.71 549.239   1
   8  -3 -13 2453.58 551.724   2
  -8   3  13 2703.31 666.201  11
  -8   3  13 2073.18 754.572   9
  -8  -3 -13 2839.24 558.198   8
  -3   8  13 2826.72 624.693  18
  -8   3  13 2485.92 563.329  18
   8  -3 -13 2477.39 609.884  17
   3  -8 -13 384.755 239.486  17
   8  -3 -14 307.438 220.268  17
   8   3  14-203.663 388.422   7
  -8  -3 -14 797.815 365.524  16
   8   3  14-296.035 395.614  15
  -8  -3 -14 381.171 216.212   6
  -8  -3 -14 449.514 260.017  14
  -3   8  14 167.914 160.078   3
   3   8  14 491.258 273.745   3
  -3  -8 -14 132.015 138.295   6
   3   8  14 933.135 761.437  13
  -3   8  14 209.723 188.969  13
   3   8  14 423.692 208.820  12
   8  -3 -14 389.312 316.573   5
  -8   3  14 218.324 124.720  11
  -8   3  14 218.466 96.8577   1
  -8   3  14-725.279 663.083   9
  -3   8  14 406.487 249.737  18
   8   3  14 130.829 182.627  19
  -8   3  14 457.254 236.869  18
  -8  -3 -14 347.084 209.666   8
   3  -8 -14 159.758 103.550  17
   8  -3 -14 305.862 182.693   2
   8  -3 -15 1823.47 551.058  17
  -8  -3 -15 2174.91 597.490  16
  -8  -3 -15 2323.91 562.199   6
  -3   8  15 1910.32 453.988   3
   3   8  15 1544.77 436.962   3
  -8  -3 -15 2385.77 691.878  14
  -3  -8 -15 1219.86 464.586   6
  -3   8  15 1707.86 527.692  13
   3   8  15 2052.67 753.435  13
   3   8  15 1828.13 423.722  12
   8  -3 -15 1789.07 544.104   5
  -8   3  15 1626.56 558.364  11
   8   3  15 571.299 265.120  19
  -8  -3 -15 2236.56 527.181   8
  -3   8  15 2270.24 554.901  18
  -8   3  15 1052.95 445.402   1
  -8   3  15 1468.23 458.273  18
   8  -3 -15 1931.01 558.518   2
   3  -8 -15 794.032 341.498  17
   3  -8 -16 184.410 192.328  17
   8  -3 -16 423.658 194.303   2
   8  -3 -16 448.980 289.028  17
   3  -8 -16-273.374 358.517  16
  -3  -8 -16-288.298 409.612  16
  -8  -3 -16 404.547 252.137  16
  -8  -3 -16 495.632 280.191   6
  -8  -3 -16 524.259 367.034  14
  -3   8  16 213.533 127.231   3
  -3  -8 -16 467.168 307.624   6
   3   8  16 321.131 217.745   3
   3   8  16 530.159 408.723  13
  -3   8  16 316.631 223.740  13
   3   8  16 283.619 147.299  12
   8  -3 -16 465.206 259.883   5
  -8   3  16 221.635 178.863  11
   8   3  16-21.1698 94.4552  19
  -8   3  16 232.092 251.251   1
  -3   8  16 379.570 223.778  18
  -8   3  16 274.968 218.124  18
  -8  -3 -16 616.184 284.880   8
  -8  -4   0 1683.56 404.397  14
  -8   4   0 2205.13 547.574   1
  -8  -4   0 3177.83 873.377   6
   8   4   0 3517.66 550.198   5
  -8  -4   0 1813.29 438.423   1
   8   4   0 3570.77 547.763  19
  -8   4   0 2386.52 554.967   8
  -8   4   0 2403.68 453.739  18
  -8  -4   0 1648.58 430.067   8
  -8  -4  -1-7.66643 97.9449   8
   8   4   1-62.9620 73.6269   4
  -8  -4  -1-83.2440 110.294  14
  -8  -4   1 60.1595 108.557  14
  -8  -4  -1 13.3993 116.166   6
  -8   4  -1-61.1268 255.939   8
  -8   4   1-153.102 221.249   1
   8   4   1-36.9275 87.0834   5
   8   4  -1-154.511 166.838   5
   8   4   1 46.2039 64.7920  19
   8   4  -1-79.1097 149.499  19
  -8  -4  -1 6.84777 92.0743   1
  -8   4   1-53.3519 101.807  18
  -8   4   1 178.128 165.082   8
  -8  -4  -2 2077.44 482.275   6
  -8  -4  -2 1609.55 370.549  14
  -8   4   2 2122.45 586.058   1
   8   4   2 2740.63 459.278   5
   8   4   2 2311.74 527.187  12
  -8  -4  -2 1691.70 358.878   1
   8   4   2 2449.02 436.672  19
  -8   4   2 2151.93 478.311   8
  -8   4   2 2715.52 538.892  18
   8   4   2 2693.84 492.456   4
  -8  -4  -2 1836.20 421.028   8
   8  -4  -2-58.0631 145.838  17
  -8  -4  -3 17.1567 44.8331   8
   8   4   3-47.2505 105.068   4
  -8  -4  -3-73.0428 98.9443  14
  -8   4   3 301.311 266.915   1
  -8  -4  -3-31.8822 75.4472   6
   8   4   3-15.1391 9.13353  12
  -8  -4  -3 43.2002 57.2066   1
   8   4   3-36.6154 30.8341   5
   8   4   3-23.3549 77.7429  19
  -8   4   3 35.6749 164.473  18
  -8   4   3 0.27447 6.42582   8
   8  -4  -3 58.0663 69.5523  17
  -8  -4  -4 326.974 156.740   8
  -8  -4  -4 302.140 147.584   1
   8   4   4 311.348 166.372   4
   8   4   4 91.0716 163.640   3
  -8  -4  -4 177.330 111.317  14
  -8   4   4-84.2407 228.158  13
  -8  -4  -4 251.541 122.199   6
   8   4   4 319.531 188.569  12
   8   4   4 409.050 155.369   5
   8   4   4 384.063 165.920  19
  -8   4   4 799.517 297.282  18
  -8   4   4 761.475 270.720   8
  -8   4   4 762.858 419.267   1
   8  -4  -4 19.5655 33.5360  17
  -8   4   5 16.1221 67.6377   1
  -8  -4  -5 72.8795 78.3788   8
   8   4   5-11.5923 43.9711   4
   8   4   5 15.2487 54.8718   3
  -8  -4  -5 6.13283 24.5926  14
  -8  -4  -5-62.7829 83.4652   6
  -8   4   5 11.3226 58.2947  13
   8   4   5-44.0207 89.8501  12
  -8  -4  -5 10.5620 74.4637   1
   8   4   5 96.9766 60.9947   5
   8  -4  -5-79.6722 177.954  19
   8   4   5 36.3295 45.6669  19
  -8   4   5-66.1203 105.990  18
  -8   4   5-19.8289 25.7124   8
   8  -4  -5-30.5954 45.1328  17
  -8  -4  -6 10.2426 42.8560   8
   8   4   6-15.2438 82.5368   4
  -8   4   6 100.290 206.569   1
  -8  -4  -6-68.7583 74.1904   1
   8   4   6-69.4745 124.554   3
  -8  -4  -6 59.4326 93.6496  14
  -8  -4  -6-13.7250 45.3162   6
  -8   4   6-11.2109 73.8495  13
   8   4   6 75.9120 125.199  12
   8   4   6 18.4666 59.6192   5
   8  -4  -6-119.538 154.895   2
  -8   4   6-72.3703 127.686  18
   8  -4  -6 30.8497 62.5746  19
   8   4   6-43.7096 74.9060  19
  -8   4   6-47.2155 82.9461   8
   8  -4  -6-17.5648 61.0719  17
  -8  -4  -7 190.741 108.338   1
   8  -4  -7 136.390 141.872  17
  -8  -4  -7 246.394 138.938   8
   8   4   7 171.824 139.624   4
  -8   4   7 281.520 125.154   8
  -8   4   7 227.029 183.726   1
  -8  -4  -7 275.395 130.952  14
   8   4   7 140.825 158.953   3
  -8  -4  -7 121.436 117.948   6
  -8   4   7 240.531 152.944  13
   8  -4  -7 52.3814 72.3234   5
   8   4   7 123.590 108.282  12
   8   4   7 173.692 109.037   5
   8  -4  -7-12.6037 85.9815   2
   8  -4  -7 43.9952 88.4682  19
   8   4   7 156.461 104.747  19
  -8   4   7 211.208 175.694  18
   8   4   8 13.2140 59.7172   4
   8  -4  -8 49.9260 136.327  17
  -8  -4  -8-42.2386 69.8635   8
  -8   4   8 96.0366 130.491   1
  -8   4   8-574.135 717.677  14
  -8  -4  -8 27.8789 97.4177  14
  -8  -4  -8-69.4643 107.518   6
   8   4   8 40.0734 117.770   3
  -8   4   8-4.54442 16.8724  13
   8  -4  -8-141.662 242.814   5
   8   4   8 36.6637 40.3467  12
  -8   4   8-3.52552 149.820  11
   8   4   8-24.7848 38.1576   5
  -8  -4  -8 62.7943 84.3848   1
   8  -4  -8 4.72578 68.6672   2
   8  -4  -8 46.2058 92.2444  19
   8   4   8 36.1079 44.8311  19
  -8   4   8 66.0410 145.459  18
  -8  -4  -9 127.178 105.326   8
   8  -4  -9 33.4061 91.3051  17
  -8  -4  -9-35.4290 210.161  16
  -8   4   9 169.066 159.277   1
   4   8   9-7.20384 146.485   3
  -8   4   9-567.152 629.093  14
   8   4   9 100.568 100.567  19
  -8  -4  -9 39.8963 79.0429  14
  -8  -4  -9 219.347 130.364   6
   8   4   9 142.720 119.173   3
  -4   8   9-146.263 270.764  13
  -8  -4  -9 198.383 128.822   1
  -4  -8  -9 54.9152 99.8954   6
  -8   4   9 224.750 149.557  13
   8  -4  -9 132.385 109.998   5
   8   4   9 118.941 115.775  12
   4   8   9 55.7261 95.8461  12
   8   4   9 182.819 176.907   5
  -8   4   9 324.167 238.829  11
  -8   4   9 265.198 196.178  10
   8  -4  -9 220.280 145.041  19
   8  -4  -9 167.823 163.172   2
  -4   8   9 13.9931 43.6219  18
  -8   4   9 211.098 136.371  18
   8   4   9 284.065 193.099   4
  -8  -4 -10 1029.60 310.331   8
   8  -4 -10 483.578 258.968  17
  -8  -4 -10 1505.67 544.084  16
  -8   4  10-491.318 782.497  14
   4   8  10 880.353 345.770   3
  -8   4  10 706.722 352.107   1
  -8  -4 -10 862.911 269.636  14
  -8  -4 -10 959.005 313.282   6
  -4   8  10 854.201 359.313  13
   8   4  10 553.372 256.797   3
  -4  -8 -10 143.972 150.927   6
  -8   4  10 857.369 262.298  13
   4   8  10 1047.94 305.240  12
   8  -4 -10 517.881 243.038   2
   8   4  10 540.333 233.104  12
   8  -4 -10 328.007 246.621   5
   8   4  10 696.244 270.372   5
  -8   4  10 1152.16 412.336  11
   8   4  10 662.390 246.081  10
   8   4  10 655.915 265.946  20
  -8   4  10 1194.10 447.384  10
   8   4  10 521.775 204.510  19
  -4   8  10 725.613 304.837  18
  -8   4  10 1001.88 354.728  18
   8   4  10 693.536 287.013   4
  -8  -4 -11 60.0334 60.8962   8
   8  -4 -11 58.5321 103.104  17
  -8  -4 -11 170.135 207.398  16
   8   4  11 274.326 300.908  15
   4   8  11 141.080 146.009   3
  -8  -4 -11 185.808 144.020   6
  -8  -4 -11 120.862 117.973  14
  -8   4  11 392.425 280.666   1
  -4  -8 -11 151.426 193.870   6
  -4   8  11 47.4410 106.329  13
   8   4  11 186.015 153.239   3
  -8   4  11 140.498 129.004  13
   8   4  11 207.936 152.715  12
   8  -4 -11-76.3331 178.273   5
   4   8  11 131.301 114.801  12
  -8   4  11 129.946 78.4265  11
   8   4  11-26.9668 86.8120  20
   8   4  11 117.895 104.246  10
  -8   4  11 675.598 359.886  10
  -8   4  11 390.181 319.369   9
   8   4  11 102.126 95.6372  19
   8  -4 -11 131.563 166.618   2
  -4   8  11 93.5279 112.826  18
  -8   4  11 173.599 161.026  18
   8   4  11 168.997 174.699   4
   4  -8 -11 65.4502 119.097  17
   8  -4 -12 2036.81 550.711  17
  -8  -4 -12 3753.75 830.314  16
   8   4  12 2064.01 625.052   7
  -4   8  12 2182.70 463.419   3
  -8  -4 -12 2747.87 569.938   6
   4   8  12 2167.14 535.464   3
   8   4  12 1692.62 544.060  15
  -8  -4 -12 2476.18 501.052  14
  -8   4  12 2007.13 612.590   1
  -4   8  12 2262.94 561.826  13
  -4  -8 -12 1029.54 374.871   6
  -8   4  12 2222.31 440.929  13
   4   8  12 501.134 296.724  13
   8   4  12 983.252 370.214   3
   4   8  12 2201.59 452.575  12
   8   4  12 1012.51 325.867  12
   8  -4 -12 1736.57 584.608   5
  -8   4  12 2838.30 678.731  11
   8   4  12 1738.92 507.739  20
   8   4  12 1357.36 358.746  10
  -8   4  12 2914.82 811.128  10
   8   4  12 1294.14 335.779  19
  -4   8  12 2212.28 524.030  18
  -8  -4 -12 2184.76 470.218   8
  -8   4  12 2580.74 572.748  18
   8  -4 -12 1539.69 438.178   2
   8   4  12 1562.27 504.300   4
  -8   4  12 3532.91 930.977   9
   4  -8 -12 147.208 204.659  17
   8  -4 -13 93.9412 59.1911  17
  -8  -4 -13-132.275 90.5422  16
   8   4  13 49.1518 125.455   7
   8   4  13 83.7539 214.620  15
  -4   8  13-43.6440 119.078   3
  -8  -4 -13-129.562 138.000   6
  -8  -4 -13 31.3953 75.2994  14
   4   8  13 70.7020 43.3006   3
  -4  -8 -13-81.9363 124.898   6
   4   8  13-883.944 491.373  13
  -8   4  13 70.9214 248.340   1
  -4   8  13-18.4816 78.7315  13
  -8   4  13 169.917 139.546  13
   8   4  13 117.186 161.000   3
   8   4  13-7.33698 28.1775  12
   8  -4 -13 12.1413 156.973   5
   4   8  13 20.8468 66.5399  12
  -8   4  13-52.4665 128.561  11
   8   4  13 154.222 157.513  20
   8   4  13 65.6109 138.541  10
  -8   4  13 125.454 197.860  10
  -8   4  13 85.7793 203.081   9
   8   4  13-209.173 152.425  19
   8   4  13-347.831 330.725   4
  -4   8  13 107.324 74.5824  18
   8  -4 -13-97.7001 116.457   2
  -8   4  13-75.2801 143.436  18
   4  -8 -13-68.1409 114.006  17
  -8  -4 -13-78.3809 98.7343   8
  -8  -4 -14 4263.32 893.866  16
   8   4  14 1562.23 623.750   7
  -8  -4 -14 3280.72 653.177   6
  -4   8  14 2536.62 508.174   3
   4   8  14 2427.63 563.275   3
   8   4  14 1568.98 579.573  15
  -8  -4 -14 3793.72 702.945  14
  -4  -8 -14 1521.22 495.645   6
  -4   8  14 2205.20 552.708  13
   4   8  14 1794.20 693.232  13
  -8   4  14 2262.37 714.682   1
   4   8  14 2374.81 490.523  12
   8   4  14 983.269 382.471   3
   8   4  14 1255.99 418.379  12
   8  -4 -14 2575.81 606.573   2
   8  -4 -14 2072.60 571.877   5
  -8   4  14 2765.77 736.821  11
   8   4  14 1276.94 460.576  20
   8   4  14 1134.46 376.864  10
  -8   4  14 2652.78 775.131  10
   8   4  14 1284.82 346.338  19
  -8   4  14 2054.49 753.351   9
  -8  -4 -14 3175.58 603.045   8
  -4   8  14 2700.42 592.441  18
   8   4  14 887.906 467.054   4
  -8   4  14 2558.53 578.801  18
   8  -4 -14 3112.67 754.631  17
   4  -8 -14 575.934 357.048  17
   8  -4 -15 182.481 45.5413  17
   8   4  15-57.5406 222.429   7
  -8  -4 -15 186.511 242.879  16
   8   4  15 61.8967 163.733  15
   8   4  15-8.27659 145.078  10
  -8  -4 -15 143.171 187.527   6
  -8  -4 -15 223.097 221.212  14
  -4   8  15 126.143 136.692   3
   4   8  15-103.605 98.6863   3
  -4  -8 -15 81.0980 107.070   6
   4   8  15 84.8864 351.169  13
  -4   8  15 92.9478 140.217  13
  -8   4  15-108.889 38.7548   1
   8   4  15 37.2883 175.364   3
   8   4  15 188.210 236.697  12
   4   8  15 11.4964 82.5380  12
   8  -4 -15 121.018 202.760   5
  -8   4  15 168.653 87.4846  11
   8   4  15 42.0451 138.274  20
   8   4  15 76.7494 121.131  19
  -8   4  15-689.152 576.542   9
  -4   8  15 34.3302 91.4060  18
  -8   4  15-341.880 369.673  10
   8  -4 -15 96.7979 195.049   2
  -8   4  15-83.4282 176.809  18
  -8  -4 -15 58.9317 113.630   8
   4  -8 -15-17.0246 161.784  17
  -8  -5  -2 120.657 168.306   8
   8   5   2 814.574 286.575   4
  -8  -5  -2 409.622 224.426  14
  -8  -5  -2 681.837 421.922   6
   8   5   2 728.770 251.557   5
   8   5   2 626.253 230.109  19
  -8   5   2 325.385 72.3505   8
  -8  -5  -3 219.579 142.988   8
   8   5   3 386.076 187.623   4
  -8  -5  -3 258.717 132.925   1
  -8  -5  -3 171.500 107.448  14
  -8  -5  -3 410.744 261.432   6
   8   5   3 395.485 169.464  12
  -8   5   3 155.824 97.0972   1
   8   5   3 626.859 229.112   5
   8   5   3 607.481 238.260  19
  -8   5   3 411.430 218.323  18
  -8   5   3 286.115 170.487   8
  -8  -5  -4 96.0784 110.926   8
   8   5   4 206.121 133.613   4
  -8  -5  -4 81.5572 110.454  14
  -8  -5  -4 108.406 161.016   6
  -8  -5  -4 120.111 79.4237   1
   8   5   4 123.660 102.887  12
  -8   5   4-109.180 219.607   1
   8   5   4 197.704 158.184   5
   8   5   4 129.290 74.6422  19
  -8   5   4 197.572 172.310  18
  -8   5   4 192.750 137.636   8
   8  -5  -4-51.6076 139.716  17
  -8  -5  -5 5.51343 48.4417   8
   8   5   5-47.9788 97.5414   4
   8   5   5-45.6228 196.999   3
  -8  -5  -5-35.4143 14.9895  14
  -8  -5  -5 61.0689 67.4339   6
   8   5   5 32.9237 88.2008  12
   8   5   5 8.75323 48.0817   5
  -8  -5  -5 36.9902 60.0638   1
  -8   5   5 12.9005 154.519   1
   8   5   5 37.4018 39.7871  19
  -8   5   5-47.4541 152.724  18
  -8   5   5-43.2945 14.4250   8
   8  -5  -5 14.0047 131.660  17
  -8  -5  -6 86.5620 69.3069   8
   8   5   6 82.7324 79.4687   4
  -8  -5  -6 43.4013 52.5368   1
   8   5   6 200.378 206.959   3
  -8   5   6 60.3587 79.1686   8
  -8  -5  -6 50.6217 92.4199  14
  -8  -5  -6 71.8942 35.3314   6
  -8   5   6 72.5659 100.242  13
   8   5   6 138.038 161.629  12
   8   5   6 107.830 93.0142   5
   8   5   6 63.6001 70.4567  19
  -8   5   6-14.1029 176.927   1
  -8   5   6 8.72242 79.1859  18
   8  -5  -6 9.78946 67.0533  17
  -8  -5  -7 5.12654 93.1550   8
   8   5   7 75.8901 90.6273   4
   8   5   7 88.3767 152.466   3
  -8  -5  -7-4.96966 85.3118  14
  -8  -5  -7-2.67210 74.2839   6
  -8   5   7 141.983 153.413  13
   8   5   7 49.5488 36.9449  12
  -8  -5  -7 59.3277 104.103   1
   8   5   7 61.3621 67.3898   5
   8  -5  -7 59.0466 85.3871  19
   8   5   7 37.7313 46.8833  19
  -8   5   7 106.567 108.372  18
  -8   5   7 207.940 246.686   1
   8  -5  -7 42.2197 112.757  17
  -8  -5  -8-38.8404 71.9102   8
   8   5   8 19.9218 69.5535   4
  -8   5   8 123.919 158.039   1
  -8  -5  -8 80.9713 94.4210   1
   8  -5  -8 203.117 186.094  19
   8   5   8-10.5334 70.6957   3
  -8  -5  -8-48.3572 75.3369  14
  -8  -5  -8 89.3363 117.648   6
  -8   5   8 57.6078 77.7221  13
   8   5   8 29.4332 114.310  12
   8  -5  -8-158.865 209.471   2
   8   5   8 54.5847 66.3493   5
   8   5   8 70.4277 102.411  19
  -5   8   8 28.0057 90.9135  18
  -8   5   8 48.6975 92.6318  18
   8  -5  -8 104.640 134.974  17
   8  -5  -9 194.774 182.808  17
   8   5   9 31.3447 94.0955   4
  -8   5   9 173.041 236.587   1
  -8  -5  -9 3.28165 36.4403   8
   5   8   9-149.756 205.362   3
  -8  -5  -9-131.312 123.849  14
   8   5   9-52.1854 86.1748   3
  -8  -5  -9 149.691 118.231   6
  -5  -8  -9-41.7340 121.909   6
  -8   5   9 45.9962 63.5686  13
   8   5   9 120.804 130.513  12
   5   8   9-105.960 154.421  12
   8   5   9 119.532 107.092   5
   8  -5  -9-90.3075 83.5204   2
   8   5   9 103.495 97.2771  19
  -5   8   9-49.3147 106.908  18
  -8   5   9 61.0825 154.095  18
   8  -5 -10-64.9131 121.000  17
  -8  -5 -10 62.6913 123.620   8
  -8   5  10 35.8671 138.947   1
   5   8  10-105.572 273.906   4
   5   8  10 112.293 134.277   3
  -8  -5 -10 103.059 82.7769  14
  -8  -5 -10-83.9937 95.6654   6
   8   5  10-33.5895 76.4364   3
  -5   8  10-288.890 264.557  13
  -5  -8 -10 40.6478 107.167   6
  -8   5  10 57.7038 74.5647  13
   8   5  10 173.346 138.833  12
   5   8  10 37.8785 96.5968  12
   8   5  10 118.800 106.022  19
  -8   5  10 156.919 187.354  11
   8  -5 -10 139.490 86.1966   2
  -5   8  10-7.85379 35.6867  18
  -8   5  10 12.3294 76.4219  18
   5  -8 -10-13.7205 70.7808  17
   8   5  10 106.065 110.697   4
   8  -5 -11 701.964 310.541  17
  -8  -5 -11 1144.69 312.969  16
  -8   5  11 1269.20 532.615   1
   5   8  11 1428.23 467.592   3
  -8  -5 -11 1342.72 336.052  14
  -8  -5 -11 1073.87 347.137   6
  -5  -8 -11 637.149 439.286  14
   8   5  11 826.549 356.729   3
  -5  -8 -11 489.997 266.415   6
  -5   8  11 1184.05 398.313  13
  -8   5  11 1004.44 297.245  13
   5   8  11 1469.50 383.431  12
   8   5  11 748.927 263.118  12
  -8   5  11 1754.31 517.217  11
   8   5  11 1112.27 308.117  19
   8  -5 -11 549.118 244.150   2
   5   8  11 1606.03 375.492   4
  -8  -5 -11 1383.51 373.069   8
  -5   8  11 1172.52 384.200  18
  -8   5  11 1335.88 406.034  18
   8   5  11 1090.12 368.532   4
   5  -8 -11-129.472 260.051  17
   8  -5 -12 120.301 166.514  17
  -8  -5 -12-8.38818 37.0399   8
  -8  -5 -12 65.9451 168.202  16
  -8   5  12 186.235 180.684   1
   5   8  12 125.487 130.003   3
  -8  -5 -12-29.0449 15.6128  14
  -8  -5 -12 13.7963 29.8939   6
  -5  -8 -12 81.1245 45.9748  14
  -5  -8 -12-36.0561 22.8673   6
   8   5  12 123.982 90.4469   3
  -5   8  12 30.1008 31.8657  13
  -8   5  12 78.2839 77.4038  13
   8   5  12 165.639 133.112  12
   5   8  12 76.9761 91.1245  12
  -8   5  12-70.9205 61.7144  11
   8   5  12 22.4482 43.5051  10
   8   5  12 144.036 56.8258  20
  -8   5  12 33.0303 120.559  10
   8  -5 -12 102.174 116.687   2
   8   5  12 32.5644 16.4725  19
  -5   8  12-15.2324 102.384  18
  -8   5  12 111.600 165.663  18
   8   5  12-17.5810 77.5043   4
   5  -8 -12 7.67528 153.942  17
  -8  -5 -13 2483.82 793.535  16
  -8   5  13 1481.42 574.784   1
   5   8  13 1814.37 505.553   3
   8   5  13 1393.04 512.776  15
  -8  -5 -13 1799.44 424.145  14
  -5   8  13 1137.17 299.515   3
  -8  -5 -13 1713.76 453.179   6
   8   5  13 978.589 353.274  20
  -5  -8 -13 812.674 328.723   6
   5   8  13-468.519 592.835  13
   8   5  13 754.213 287.951   3
  -5   8  13 1395.79 408.462  13
  -8   5  13 1389.26 377.820  13
   5   8  13 1364.86 371.361  12
   8  -5 -13 2580.91 979.896   5
   8   5  13 846.632 314.766  12
   8  -5 -13 2723.91 705.561   2
  -8   5  13 2081.39 690.576  11
   8   5  13 974.579 288.984  10
  -8   5  13 2423.31 758.529  10
  -8   5  13 2873.39 866.645   9
   8   5  13 1207.10 319.936  19
  -8  -5 -13 1901.86 445.034   8
  -8   5  13 2467.40 613.142  18
  -5   8  13 1368.05 395.177  18
   8   5  13 1462.18 492.760   4
   5  -8 -13 122.175 167.586  17
  -8  -5 -14 110.179 55.8607   8
   8  -5 -14-372.481 254.130  17
  -8  -5 -14 21.6128 141.178  16
   8   5  14 93.1217 219.060   7
  -8   5  14-129.772 144.526   1
   8   5  14 142.193 224.402  15
  -5   8  14 20.2410 51.6639   3
  -8  -5 -14-39.5945 168.597   6
  -8  -5 -14 25.3147 30.1850  14
   5   8  14 59.4306 137.194   3
  -5  -8 -14-126.399 66.4569   6
   5   8  14-435.423 459.215  13
  -5   8  14 14.3514 82.9444  13
   8   5  14-133.818 148.178   3
  -8   5  14-74.7875 103.802  13
   8  -5 -14-373.912 464.458   5
   8   5  14-201.916 160.313  12
   5   8  14 25.6232 59.5893  12
  -8   5  14 135.253 243.143  11
   8   5  14 91.0561 234.356  20
   8   5  14 63.6538 133.062  10
  -8   5  14-245.581 247.436  10
  -8   5  14 607.812 535.041   9
   8   5  14 129.425 87.0015  19
   8  -5 -14 19.4263 95.8412   2
  -5   8  14-64.6392 146.579  18
   8   5  14-39.4438 61.3384   4
  -8   5  14-93.6566 83.7342  18
   5  -8 -14-71.5116 63.0340  17
  -8   6   3 244.613 111.377  18
   8   6   4 1.91061 257.060   4
  -8  -6  -4 106.489 117.255   6
  -8   6   4 131.348 185.175  18
  -8  -6  -5-9.86485 114.483   8
   8   6   5 387.983 217.883   4
  -8  -6  -5 169.941 145.024  14
  -8  -6  -5 290.196 196.418   1
  -8  -6  -5 170.012 163.448   6
   8   6   5 382.980 177.082  12
   8   6   5 339.540 163.232   5
   8   6   5 244.529 130.313  19
  -8   6   5 212.168 180.826  18
  -8   6   5 92.1869 58.1992   8
   8  -6  -5-31.0107 41.7661  17
  -8  -6  -6 123.665 107.762   8
   8   6   6 265.938 155.900   4
  -8  -6  -6 205.547 135.732  14
  -8  -6  -6 194.091 167.760   6
  -8  -6  -6 199.099 140.284   1
   8   6   6 175.791 142.488  12
  -8   6   6-208.219 355.279   1
   8   6   6 394.343 212.866   5
   8   6   6 276.960 147.555  19
  -8   6   6 261.681 187.207  18
   8  -6  -6-35.4334 104.798  17
  -8  -6  -7 165.031 97.4737   8
   8   6   7 162.972 138.552   4
   8   6   7 143.080 115.971   3
  -8  -6  -7 155.312 144.398  14
  -8  -6  -7 48.9612 83.4249   6
  -8   6   7-73.6166 201.738  13
   8   6   7 136.909 144.242  12
  -8   6   7-263.818 300.027   1
  -8  -6  -7 103.274 84.2317   1
   8   6   7 107.197 109.981   5
   8   6   7 184.857 131.315  19
  -6   8   7-169.385 239.741  18
  -8   6   7 2.52800 79.1320  18
   8  -6  -7-43.0838 74.9504  17
  -8  -6  -8 427.861 225.004   8
   8   6   8 367.742 188.410   4
   8   6   8 613.583 354.603   3
  -8  -6  -8 413.921 199.890  14
  -8  -6  -8 235.509 163.581   6
  -8   6   8 555.974 266.526  13
  -8   6   8 90.0103 149.001   1
   8   6   8 351.233 185.332  12
   8   6   8 432.488 202.920   5
   8   6   8 444.685 206.346  19
  -6   8   8 154.714 110.259  18
  -8   6   8 513.998 279.434  18
   8  -6  -8 201.124 267.086  17
  -8  -6  -9 265.561 186.393   8
   8   6   9 300.944 179.802   4
   6   8   9 216.725 228.208   4
   6   8   9 165.367 64.0579   3
   8   6   9 122.991 88.6101   3
  -8  -6  -9 264.433 183.054  14
  -8  -6  -9 238.347 171.019   6
  -6   8   9 126.247 254.354  13
  -8   6   9 426.637 213.506  13
  -6  -8  -9 145.596 151.831   6
   8   6   9 329.540 183.485  12
   6   8   9 296.052 146.370  12
  -8   6   9 72.5694 175.901   1
   8   6   9 468.291 212.746  19
  -6   8   9 323.522 209.428  18
  -8   6   9 228.741 172.546  18
   6  -8  -9-82.3935 163.786  17
   8  -6  -9-103.565 172.948  17
   8   6  10 107.839 129.324   4
  -8  -6 -10-34.4088 93.3874   8
   6   8  10 128.214 94.6901   4
  -8   6  10 85.7146 41.2513   1
   6   8  10-6.83281 140.978   3
   8   6  10-24.4684 11.7642   3
  -8  -6 -10-74.0133 131.529  14
  -8  -6 -10 14.7120 43.2612   6
  -6   8  10-140.522 238.792  13
  -6  -8 -10 8.80981 64.9066   6
  -8   6  10 21.5821 10.7734  13
   8   6  10 121.594 131.424  12
   6   8  10 25.6369 95.2795  12
   8   6  10-2.57418 91.5401  19
  -6   8  10 161.787 218.504  18
  -8   6  10 86.4975 165.275  18
   6  -8 -10-44.3143 158.655  17
   8  -6 -10-39.8043 66.5648  17
   8  -6 -11 25.1048 134.487  17
   8   6  11 193.534 113.401   4
  -8  -6 -11 154.092 156.570   8
   6   8  11 274.356 188.300   4
   6   8  11 183.479 159.377   3
  -8  -6 -11 209.348 117.978  14
   8   6  11 367.713 301.122   3
  -8  -6 -11 63.5163 55.7597   6
  -6  -8 -11-135.140 138.725  14
  -6   8  11 313.412 207.473  18
  -6  -8 -11-128.074 178.758   6
  -6   8  11 186.693 180.926  13
  -8   6  11 117.432 135.877  13
   8   6  11 248.574 216.421  12
   6   8  11 253.976 176.190  12
   8  -6 -11-107.293 259.561   2
   8   6  11 259.967 163.015  19
  -8   6  11 304.101 217.325  18
  -8   6  11-100.280 175.495   1
   6  -8 -11 106.361 123.023  17
   8  -6 -12 368.737 317.782  17
  -8  -6 -12 593.505 275.923   8
  -6  -8 -12-184.922 647.345   8
   6   8  12 504.853 270.513   3
  -8  -6 -12 453.648 223.569  14
  -8  -6 -12 530.615 241.079   6
   8   6  12 290.583 232.899   3
  -6  -8 -12 300.586 217.012  14
  -6  -8 -12 126.852 144.402   6
  -6   8  12 381.648 216.970  13
  -8   6  12 621.673 275.384  13
   8   6  12 285.133 168.881  12
   6   8  12 430.972 222.897  12
  -8   6  12 1059.30 480.136  11
   8  -6 -12 74.3397 145.256   2
   8   6  12 362.571 183.275  19
  -6   8  12 498.345 261.329  18
  -8   6  12 750.091 377.969  18
  -8   6  12 670.071 501.853   1
   8   6  12 406.234 256.218   4
   6  -8 -12 132.179 200.562  17
   8  -6 -13 183.380 261.986  17
  -8  -6 -13 350.293 192.888   8
  -6  -8 -13-145.766 544.053   8
  -8  -6 -13-38.7665 701.984  16
   6   8  13 263.343 198.644   3
  -8  -6 -13 258.637 187.843  14
  -8  -6 -13 296.514 204.415   6
   8  -6 -13 279.513 219.026   2
  -6  -8 -13 200.935 162.684   6
   8   6  13 136.124 156.006   3
  -6   8  13 343.384 199.314  13
  -8   6  13 319.853 210.895  13
   8   6  13 150.537 88.3299  12
   6   8  13 198.086 145.569  12
  -8   6  13 456.345 333.692  11
   8   6  13 383.011 195.359  19
  -6   8  13 270.691 197.762  18
  -8   6  13 77.5880 104.524  18
   8   6  13 318.604 227.602   4
  -8   6  13-160.189 247.842   1
   6  -8 -13-200.532 244.120  17
  -8   7   4-113.761 233.789  18
  -8   7   5 624.329 275.234  18
   8   7   6 110.730 188.178   4
  -8  -7  -6 76.5902 219.840   6
   8   7   6-429.304 238.999  12
  -8   7   6 291.871 226.287  18
   8  -7  -6-224.740 250.516  17
  -8  -7  -7 368.919 176.488   8
   8   7   7 1604.60 503.899   4
  -7   8   7 677.093 291.268  18
  -8  -7  -7 701.436 322.367  14
  -8  -7  -7 502.398 283.413   6
   8   7   7 1281.24 404.209  12
   8   7   7 2097.35 491.490   5
  -8   7   7 1061.70 388.937  18
   8  -7  -7 42.0542 69.6747  17
  -8  -7  -8-181.494 228.687   8
   8   7   8 217.028 219.616   4
   8   7   8-173.132 271.146   3
  -8  -7  -8 69.1866 47.6482  14
  -8   7   8-178.337 260.425  13
  -8  -7  -8 75.0351 130.930   6
  -7  -8  -8 144.417 200.254   6
   8   7   8 188.256 157.399  12
   7   8   8-273.990 183.255  12
  -7   8   8 45.7635 100.689  18
  -8   7   8 138.686 151.674  18
   8  -7  -8 43.3233 152.934  17
  -8  -7  -9 423.320 255.505   8
   8   7   9 909.004 342.920   4
   7   8   9 1176.57 456.053   4
   7   8   9 224.928 109.107   3
   8   7   9 605.904 366.812   3
  -8  -7  -9 561.936 276.190  14
  -8  -7  -9 327.917 240.763   6
  -7   8   9 175.380 170.954  13
  -8   7   9 628.048 263.502  13
  -7  -8  -9 135.325 192.493   6
   8   7   9 587.196 258.139  12
   7   8   9 775.867 308.192  12
  -7   8   9 638.868 279.427  18
   8   7   9 818.914 297.181  19
  -8   7   9 860.492 371.473  18
   7  -8  -9 55.8013 150.662  17
   8  -7  -9 1.56781 113.503  17
   8   7  10 142.825 118.145   4
  -8  -7 -10 47.8560 32.0078   8
   7   8  10 3.23419 66.4814   4
   7   8  10 60.4901 121.031   3
   8   7  10 41.2452 76.1511   3
  -8  -7 -10 218.077 194.736  14
  -7  -8 -10 144.469 220.151  14
  -8  -7 -10 35.5113 103.227   6
  -7  -8 -10 99.4274 90.8104   6
  -7   8  10-149.439 256.444  13
  -8   7  10 138.057 100.071  13
   8   7  10 137.964 73.5553  12
   7   8  10 153.748 106.784  12
  -8   7  10-613.124 715.708   1
   8   7  10 114.171 71.5898  19
  -7   8  10 209.586 210.952  18
  -8   7  10 158.464 106.477  18
   7  -8 -10-6.64158 172.973  17
   8  -7 -10 217.360 216.840  17
   8   7  11-13.4009 95.1360  19
   8   7  11 144.007 147.911   4
  -8  -7 -11-16.4746 43.2089   8
   7   8  11 187.624 176.642   4
   7   8  11-12.3366 69.2472   3
   8   7  11-30.1692 166.193   3
  -8  -7 -11 51.6729 50.7694  14
  -7  -8 -11-92.1318 196.223  14
  -8  -7 -11 202.348 192.716   6
  -7  -8 -11 10.4526 92.5293   6
  -7   8  11 20.0254 91.9934  13
  -8   7  11 1.20841 83.4618  13
   8   7  11-64.3992 138.724  12
   7   8  11-12.7516 70.2051  12
  -8   7  11-419.919 488.460   1
  -7   8  11 6.60859 42.3533  18
  -8   7  11-24.2611 134.460  18
   7  -8 -11 81.0797 67.5015  17
   8  -7 -11 87.8499 154.019  17
   8  -7 -12 191.392 235.754  17
   8   7  12 196.418 158.022   4
  -8  -7 -12 8.11001 90.8816   8
   7   8  12 341.334 218.226   4
  -7  -8 -12-321.096 404.537   8
   7   8  12 228.185 167.019   3
   8   7  12 216.542 202.131   3
  -8  -7 -12 90.1081 76.9427  14
  -8  -7 -12 212.511 165.823   6
  -7  -8 -12 118.134 193.757  14
  -7  -8 -12-22.0115 82.4997   6
  -7   8  12 140.878 143.287  13
  -8   7  12 85.7006 93.4078  13
   8   7  12 59.8373 113.142  12
   7   8  12 209.764 171.374  12
  -8   7  12-113.959 348.092   1
   8   7  12 159.572 149.613  19
  -7   8  12 192.279 211.146  18
  -8   7  12 162.241 167.913  18
   7  -8 -12 86.9538 101.443  17
  -8   8   6 1079.67 358.411  18
  -8   8   7 84.6008 131.349  18
  -8  -8  -8 400.599 312.723   6
   8   8   8 1625.06 451.164  12
  -8   8   8 1047.08 391.711  18
   8   8   9 36.3394 204.115   4
  -8  -8  -9 218.810 328.917  14
  -8  -8  -9 70.4296 139.047   6
   8   8   9-221.108 170.410  12
  -8   8   9-35.9361 89.0600  18
   8  -8  -9 106.202 134.198  17
  -8  -8 -10-223.891 433.707   8
   8   8  10 1086.54 434.605   4
   8   8  10 624.104 298.042   3
  -8  -8 -10 419.054 279.624  14
  -8  -8 -10 217.876 224.596   6
  -8   8  10 296.441 146.098  13
   8   8  10 573.510 249.527  12
  -8   8  10 521.664 286.345  18
   8  -8 -10 165.671 211.260  17
   9   0   0-12.5781 59.3146  17
   9   0   0 67.8690 123.752   7
   9   0   0 38.6934 98.2144  15
  -9   0   0-104.948 104.722   6
  -9   0   0-72.6284 95.2485  14
   9   0   0 1.64958 56.1689  12
  -9   0   0-62.3210 109.644   1
   9   0   0-88.0239 90.6540   5
  -9   0   0-15.4994 75.2623  11
   9   0   0-0.14825 39.5728   2
   9   0   0-70.9828 102.496  19
  -9   0   0-38.8003 74.5018  18
   9   0   0 45.9227 112.961   4
  -9   0   0-12.0470 92.8323   8
  -9   0   1 516.576 201.373   8
   9   0   1 257.651 108.879  17
   9   0  -1 296.980 151.070  17
   9   0   1 271.184 178.758   7
   9   0   1 284.654 142.903  15
  -9   0  -1 577.167 194.739   6
  -9   0  -1 447.791 207.067  14
  -9   0   1 398.938 152.959   6
  -9   0   1 432.815 214.220  14
  -9   0  -1 475.013 245.370   1
   9   0   1 211.052 109.116  12
   9   0  -1 126.861 103.717  12
   9   0   1 148.483 120.102   5
   9   0  -1 241.884 146.681   5
  -9   0  -1 562.174 200.884  11
  -9   0   1 609.579 275.419  11
   9   0   1 173.899 65.4404   2
  -9   0   1 370.691 202.327   1
   9   0  -1 237.863 116.863   2
   9   0   1 185.057 138.407  19
   9   0  -1 368.430 194.758  19
  -9   0  -1 385.515 145.135  18
  -9   0   1 405.186 181.980  18
   9   0   1 224.082 132.862   4
  -9   0  -1 354.789 159.871   8
   9   0  -1 259.900 177.056   4
  -9   0   2 34.1592 63.1675   8
   9   0   2-86.9371 89.4159  17
   9   0  -2-2.89382 102.982  17
   9   0   2 16.8235 67.2793   7
   9   0   2-38.7471 103.713  15
  -9   0  -2-33.7741 50.7152   6
  -9   0  -2-11.7317 30.0924  14
  -9   0   2 50.2831 74.6149  14
  -9   0   2 67.8591 59.6772   6
  -9   0  -2-7.24033 75.4502   1
   9   0   2-8.68955 55.8987  12
   9   0   2 48.5711 129.166   5
   9   0  -2-20.8009 62.4753  12
   9   0  -2 86.5861 124.478   5
  -9   0  -2 62.4066 96.6572  11
  -9   0   2-40.4574 130.612  11
   9   0  -2-0.06838 85.4027  19
   9   0   2 63.3109 89.9508  19
  -9   0   2 18.1531 99.0911   1
  -9   0  -2-72.4118 82.2430  18
  -9   0   2 78.8380 78.9133  18
   9   0   2-32.5896 102.390   4
   9   0  -2 43.7193 24.7456   2
  -9   0  -2-87.3724 127.169   8
   9   0  -2 89.8538 124.709   4
   9   0  -3 106.327 91.5168   4
   9   0   3 6.50415 58.2210  17
  -9   0   3 82.9142 85.0183   8
   9   0  -3-46.9053 78.4538  17
   9   0   3 104.694 164.628   7
   9   0   3 105.534 119.348  15
  -9   0  -3 52.8312 51.2436   1
  -9   0  -3 166.951 129.366   6
  -9   0  -3 127.473 119.204  14
  -9   0   3 105.081 160.920  14
  -9   0   3 159.300 86.5690   6
   9   0   3 65.0056 83.8666   3
   9   0   3 181.328 201.482  12
  -9   0   3 105.676 113.549  18
   9   0   3 95.3914 105.978   5
   9   0  -3 122.006 122.458   5
  -9   0   3 144.473 67.9573  11
   9   0   3-20.6735 52.7989  19
   9   0  -3 56.5701 77.1230  19
  -9   0  -3 126.756 95.3971  18
   9   0   3 57.3236 123.364   4
  -9   0  -3 66.8527 90.0424   8
  -9   0   3 109.633 111.709   1
   9   0  -3 57.5740 42.0808   2
   9   0   4 30.4807 78.1570  17
   9   0  -4-24.9957 77.4501   4
   9   0  -4 33.5643 48.5478   2
  -9   0   4-6.10187 70.0265   8
   9   0  -4 73.2704 116.937  17
  -9   0   4 52.1805 59.6560   1
  -9   0  -4-21.8906 66.8236   1
  -9   0  -4 95.1571 76.5830   6
  -9   0  -4 26.6200 51.7749  14
  -9   0   4-16.7269 64.2147  14
   9   0   4-134.529 158.312   5
   9   0  -4-101.718 153.814   5
  -9   0   4-90.6143 216.279  11
   9   0   4-140.983 186.917  19
   9   0  -4-49.0570 41.7649  19
   9   0   4-75.2822 161.889   4
  -9   0  -4 29.2634 67.3135  18
  -9   0   4 53.5748 114.950  18
  -9   0  -4 21.6727 111.604   8
  -9   0  -5 236.768 196.471   1
   9   0  -5 167.961 90.4690   4
  -9   0   5 264.669 144.248   8
   9   0  -5 136.288 141.920  17
   9   0  -5 218.085 127.375   2
  -9   0  -5 340.494 169.686  16
  -9   0   5 61.3417 40.4976   1
  -9   0  -5 308.413 215.908   6
  -9   0  -5 248.525 194.841  14
  -9   0   5 312.620 164.860  14
   9   0   5-67.8399 259.990   5
   9   0  -5 285.228 198.815   5
  -9   0   5-78.3825 260.690  11
   9   0   5 128.816 106.655  19
   9   0  -5 214.533 131.762  19
   9   0   5-54.7026 172.393   4
  -9   0  -5 261.247 112.657  18
  -9   0   5 245.722 158.036  18
  -9   0  -5 287.260 186.110   8
   9   0  -6-43.1828 102.915  17
   9   0  -6 25.6529 74.8197   4
  -9   0   6 37.3204 86.6567   8
   9   0  -6 25.4780 57.9134   2
  -9   0  -6-66.3574 73.3662  16
  -9   0  -6-58.2353 67.4590   6
  -9   0  -6-29.6638 84.0502  14
  -9   0   6 49.4417 61.6778  14
  -9   0   6-48.1296 96.7510   1
   9   0  -6-116.276 116.093   5
   9   0   6 51.9512 169.317  19
   9   0  -6-44.2401 24.4576  19
   9   0   6-220.882 258.616   4
  -9   0  -6 188.148 176.970   1
  -9   0   6-0.15162 110.491  18
  -9   0  -6-91.6185 110.501   8
   9   0  -7 208.285 216.119  17
   9   0  -7 97.6917 91.6272   4
  -9   0   7-82.1388 190.272   8
   9   0  -7 29.0977 43.1240   2
  -9   0  -7 183.963 153.014  16
  -9   0  -7 158.093 146.012   6
  -9   0  -7 144.512 112.326  14
  -9   0   7 16.9759 47.6398  14
  -9   0   7 90.9769 96.3360   1
   9   0  -7 147.449 120.871   5
   9   0   7-7.31538 155.218  19
  -9   0  -7-69.9422 207.631   1
   9   0  -7 186.801 129.628  19
  -9   0   7 92.9436 110.400  18
  -9   0  -7 55.8562 77.1316   8
   9   0  -8-148.820 135.476  17
   9   0  -8 29.3965 58.3676   4
   9   0  -8-16.9516 51.3207   2
  -9   0  -8 74.1086 76.9229  16
  -9   0  -8 15.8601 50.9520   6
  -9   0  -8 35.4924 70.8066  14
  -9   0   8-24.5114 4.98456  14
  -9   0   8-18.3335 97.5742   1
   9   0  -8 7.13628 86.1319   5
   9   0   8 112.221 29.5516  19
   9   0  -8 6.22932 45.5845  19
  -9   0  -8 55.9627 120.128   8
  -9   0   8-6.12269 50.6947  18
   9   0  -9-61.5906 64.9330  17
   9   0  -9-72.4440 103.789   4
   9   0  -9 56.7330 98.3630   2
  -9   0  -9 172.156 192.314  16
  -9   0  -9 91.7431 151.776   6
  -9   0  -9 147.643 157.773  14
  -9   0   9-128.983 115.835  14
  -9   0   9 95.9050 113.533   1
   9   0  -9 11.4482 69.5319   5
   9   0   9-187.033 277.916  19
   9   0  -9-103.316 157.609  19
  -9   0  -9-41.5221 110.477   8
  -9   0   9-198.201 218.987  18
   9   0 -10-26.4782 67.2410  17
   9   0 -10-14.6344 79.6114   4
  -9   0 -10 96.6933 182.087  16
   9   0 -10 144.114 134.518   2
  -9   0 -10-250.590 190.017   6
  -9   0 -10 80.5186 88.5256  14
  -9   0  10-111.446 108.771  14
   9   0 -10 28.6868 72.1267   5
  -9   0  10 14.5885 93.0155   1
  -9   0 -10 59.2327 167.248   8
  -9   0  10-192.198 234.548  18
   9   0 -11 350.065 238.893  17
   9   0 -11 500.825 239.336   4
  -9   0 -11 590.345 288.490  16
   9   0 -11 607.968 257.564   2
  -9   0 -11 376.968 172.611   6
  -9   0 -11 247.941 39.9330  14
  -9   0  11 421.403 212.424  14
   0  -9 -11 28.9151 188.860   6
   9   0 -11 571.107 283.053   5
  -9   0  11 326.568 240.122   1
  -9   0 -11 578.848 312.389   8
  -9   0  11 17.4168 207.886  18
  -9   0  12 205.022 235.610   1
   9   0 -12-68.0748 40.7726  17
   9   0 -12-21.0074 95.8274   4
  -9   0 -12 18.2750 139.351  16
  -9   0 -12-221.821 360.859   6
   9   0 -12-139.329 175.684   2
   0   9  12-4.12130 107.022   3
  -9   0  12 53.9294 79.1057  14
   0   9  12-307.075 444.825  13
   0  -9 -12-7.79055 85.2393   6
   9   0 -12 130.612 156.797   5
   0   9  12-88.4799 130.282  18
  -9   0 -12 242.163 285.273   8
  -9   0  13 770.881 386.259   1
   9   0 -13 1474.73 490.988  17
  -9   0 -13 1913.80 576.982  16
   0   9  13 1155.70 363.090   3
  -9   0 -13 701.369 40.3432   6
   9   0 -13 1600.91 453.867   2
   0  -9 -13 379.899 310.941   6
   0   9  13 1090.77 384.370  13
   9   0 -13 1958.35 548.782   5
   9   0 -13 1882.33 473.073   4
   0   9  13 1792.01 545.115  18
  -9   0 -13 1466.35 542.400   8
   0  -9 -13-267.849 374.932  17
   9   0 -14-402.497 251.754  17
  -9   0  14-9.28890 144.786   1
  -9   0 -14 61.4629 81.0437  16
   9   0 -14-1.52024 70.8733   2
   0   9  14 131.238 148.184   3
   0  -9 -14 171.222 209.174   6
   0   9  14-101.135 167.828  13
   9   0 -14 42.0072 89.0896   5
   0   9  14-54.7900 119.316  18
  -9   0 -14-180.721 153.190   8
   0  -9 -14 146.905 113.961  17
   9   0 -15-5.49031 211.863  17
  -9   0 -15 345.940 163.440  16
   9   0 -15 460.056 288.573   2
  -9   0  15 107.545 186.053   1
   0   9  15 347.044 192.171   3
   0  -9 -15 277.013 231.888   6
   0   9  15 219.775 210.891  13
   0   9  15 324.801 137.909  12
   9   0 -15 468.113 326.433   5
   0   9  15 456.328 236.733  18
  -9   0 -15 268.933 266.915   8
   0  -9 -15 184.573 250.203  17
   9  -1   0 515.600 214.077  17
   9   1   0 905.301 286.286   4
   9   1   0 895.781 332.880  17
  -9   1   0 1348.43 367.599   6
  -9  -1   0 1114.94 238.330   6
  -9  -1   0 1338.65 341.601  14
  -9   1   0 1093.11 365.616  14
  -9   1   0 1175.78 369.498   1
   9  -1   0 311.198 150.787  12
  -9  -1   0 1071.23 302.583   1
   9  -1   0 465.871 235.028   5
   9   1   0 801.073 268.208  12
   9   1   0 898.354 188.083   2
  -9   1   0 1713.45 341.690  11
   9   1   0 915.391 283.513   5
   9  -1   0 437.274 207.460  19
   9   1   0 804.201 253.978  19
  -9   1   0 1150.33 332.827   8
  -9   1   0 1372.62 312.361  18
  -9  -1   0 1003.31 280.869   8
   9  -1   0 617.524 273.725   4
  -9  -1   0 1298.02 363.344  18
  -9  -1  -1 53.2403 60.4561   8
   9  -1   1 39.3846 37.1918  17
   9  -1  -1 42.4850 78.8329  17
  -9  -1   1 49.2459 48.3746   8
   9   1  -1-26.6156 50.0373   2
   9   1  -1-38.4617 78.6838   4
   9   1   1-123.406 163.925  17
   9   1  -1 134.742 160.638  17
  -9  -1   1 83.8510 65.7442   1
  -9   1  -1-4.42984 69.0959   1
  -9   1  -1 54.1312 33.1357   6
  -9   1   1-6.88794 40.4876   6
  -9   1  -1 67.2701 108.789  14
  -9   1   1 21.1675 69.6911  14
  -9  -1  -1 57.6391 68.5598  14
  -9  -1   1 2.59611 22.3537  14
  -9  -1  -1 18.1444 38.5959   6
  -9  -1   1 31.8445 28.0329   6
  -9   1   1 120.450 129.986   1
   9  -1  -1 26.6336 56.5229  12
   9  -1   1 340.914 241.933   5
   9   1   1 1.76999 96.2672  12
   9  -1  -1 49.7909 95.6647   5
   9   1  -1 45.9366 53.4989  12
  -9   1  -1 58.8877 35.6121  11
  -9   1   1 39.9390 58.4675  11
   9   1   1 25.2932 70.9122   5
   9   1  -1 78.3288 109.471   5
   9  -1  -1-3.06035 75.0382   2
   9  -1   1-58.4657 40.9001  19
   9  -1  -1 18.3378 69.5838  19
  -9   1  -1 31.4266 18.3636  18
   9   1   1-0.88786 54.6399  19
   9   1  -1 106.698 86.2551  19
  -9  -1  -1 95.4350 42.8446   1
   9   1   1 87.2395 58.2456   2
   9  -1   1-70.8425 129.958   4
  -9   1   1 36.5395 80.7674  18
   9  -1  -1 47.8824 91.7135   4
  -9  -1  -1 182.680 163.647  18
  -9  -1   1-41.0486 112.061  18
  -9   1  -1 75.3428 77.1944   8
  -9   1   1 96.0148 97.0222   8
   9   1   1 37.8876 56.9298   4
   9  -1   2 168.443 116.541  17
   9  -1  -2 252.179 172.175  17
  -9  -1   2 312.639 160.555   8
   9   1   2 97.1091 119.070  17
   9   1  -2 290.479 154.245   4
   9   1  -2 331.174 225.020  17
   9   1  -2 382.950 147.753   2
  -9   1  -2 400.258 227.921   1
  -9   1  -2 353.565 240.607   6
  -9   1   2 282.141 142.501   6
  -9  -1   2 400.477 191.496   1
  -9   1  -2 278.740 211.724  14
  -9   1   2 322.007 161.526  14
   9  -1   2 136.647 104.491   4
   9   1   2 122.628 116.487   3
  -9  -1  -2 434.433 204.305  14
  -9  -1  -2 414.595 155.098   6
  -9  -1   2 317.059 160.775  14
   9   1  -2 284.686 156.451  19
  -9  -1   2 416.425 134.857   6
   9   1   2 282.819 167.467  19
  -9   1   2 378.398 199.833   1
   9  -1   2 212.572 194.652   5
   9   1   2 243.931 135.426  12
   9  -1  -2 204.432 116.613  12
   9  -1  -2 375.820 223.717   5
   9   1   2 318.421 175.197   5
  -9   1   2 652.127 253.610  11
  -9  -1  -2 370.441 188.610   1
   9   1  -2 336.232 171.575   5
   9  -1   2 219.951 191.623  19
   9  -1  -2 214.549 143.094  19
   9  -1  -2 350.796 169.376   2
  -9   1  -2 442.762 167.521  18
  -9   1   2 481.565 207.544  18
  -9  -1  -2 586.002 220.982  18
   9  -1  -2 373.082 245.745   4
  -9  -1   2 277.313 143.343  18
  -9   1  -2 478.781 251.160   8
   9   1   2 305.079 188.415   4
  -9   1   2 548.721 219.493   8
  -9  -1  -2 318.809 178.140   8
   9  -1  -3-14.1224 100.189  17
  -9   1  -3-6.23719 109.859   1
  -9  -1   3 51.3194 71.3517   8
   9   1   3 82.4104 119.726  17
   9   1  -3 647.052 368.673  17
   9   1  -3 221.897 173.651   4
   9   1  -3 206.113 123.168   2
   9   1   3 124.235 149.993   7
  -9   1  -3-4.49723 31.8050   6
   9   1   3 149.045 144.465  15
  -9   1  -3 39.6580 75.3839  14
  -9   1   3 25.6415 98.8036  14
  -9  -1  -3 172.162 103.593   6
  -9  -1  -3 76.9142 53.9310  14
  -9  -1   3 117.099 110.955  14
   9   1   3 24.7005 68.3513   3
  -9  -1   3 105.321 85.5342   6
  -9  -1   3 58.0206 48.3703   1
  -9   1   3 110.309 58.9689  13
  -9  -1  -3 130.660 96.2629   1
   9   1   3 46.6512 64.1669  12
   9   1   3-31.8688 98.0575   5
  -9   1   3 30.3157 42.3492   1
   9  -1  -3 48.0817 115.047   5
  -9   1   3 136.274 138.176  11
   9   1  -3 183.278 123.851   5
   9  -1   3 4.92764 129.613  19
   9   1   3 47.5862 53.5305  19
   9  -1  -3 25.1958 42.2922  19
   9   1  -3 77.4940 90.0461  19
   9  -1  -3 137.256 127.433   2
   9  -1   3 80.2519 67.6666   4
  -9   1  -3 101.556 79.3520  18
  -9   1   3 159.612 128.305  18
  -9  -1  -3 37.6479 74.0932  18
  -9   1  -3 57.6790 69.1724   8
  -9  -1   3 288.348 192.807  18
   9  -1  -3-35.5977 39.4591   4
   9   1   3 66.6919 47.6349   4
  -9  -1  -3 61.2273 88.3125   8
   9  -1   3 35.6423 81.7546  17
  -9   1   3 160.916 113.827   8
  -9   1   4 41.3973 61.5264   8
   9  -1  -4 32.7194 93.4569  17
  -9  -1   4-64.0302 93.1845   8
   9   1  -4-0.98302 62.4360  17
   9   1  -4 14.6633 42.2075   4
   9   1   4-50.8010 59.6050   7
   9   1  -4-20.4793 21.2780   2
  -9   1  -4 40.3175 44.1860   6
   9   1   4 106.678 160.808  15
  -9   1  -4-1.13943 78.9783  14
  -9  -1  -4-56.0671 115.614   6
  -9   1   4 67.4027 104.995  14
  -9  -1  -4-75.2633 122.830  14
  -9  -1   4 35.7913 46.9169  14
  -9  -1  -4-63.2309 104.274   1
   9   1   4-24.0459 84.1180   3
  -9  -1   4 5.80118 38.7188   6
  -9   1   4 88.5942 68.9017  13
   9   1   4-18.5131 56.9437  12
  -9  -1   4-46.3095 67.1320   1
   9   1   4 6.72232 49.0709   5
   9  -1  -4 27.4400 87.0166   5
  -9   1   4 29.3395 81.4809  11
   9   1  -4 13.9295 33.4475   5
  -9   1  -4 66.5951 49.2651  18
  -9   1   4 75.9946 81.4043   1
   9  -1   4 71.2371 149.297  19
   9   1   4-26.6456 40.4566  19
   9  -1  -4 15.3959 30.4722  19
   9   1  -4-19.7371 64.9773  19
   9  -1  -4-14.7834 61.7708   2
  -9   1   4-24.0020 51.3340  18
  -9  -1  -4 45.0198 58.8643  18
  -9   1  -4 70.3605 156.780   1
  -9   1  -4 150.488 161.166   8
   9   1   4-22.5312 48.7095   4
  -9  -1   4-240.475 256.848  18
   9  -1  -4-19.6218 85.5447   4
  -9  -1  -4-6.85261 42.6555   8
   9  -1   4-31.3498 66.8185  17
  -9   1   5 98.0376 93.2012   8
   9  -1  -5-26.2964 51.2947  17
   9   1  -5-1.21448 52.7694  17
  -9  -1   5 13.3405 49.7842   8
   9   1  -5-3.14014 40.8063   4
  -9  -1  -5 86.6439 102.726  16
   9   1   5 137.556 144.314   7
   9   1  -5 13.5938 47.7798   2
  -9   1  -5-154.334 171.196   6
   9   1   5-47.8929 53.0459  15
  -9  -1  -5 69.0777 113.898   1
  -9   1  -5 249.402 237.669  14
  -9  -1  -5 4.44215 60.9240   6
  -9  -1  -5-83.1244 151.623  14
  -9   1   5 79.1672 104.781  14
  -9  -1   5 14.6967 26.1528  14
   9   1   5 33.0480 92.5308   3
   9   1   5 156.131 162.317  12
   9   1   5-18.9046 107.674   5
  -9   1  -5 18.2166 14.5920   1
   9  -1  -5 134.979 133.716   5
  -9   1   5-18.8761 98.8751  11
   9   1  -5-10.5586 56.1618   5
  -9  -1   5 132.613 135.586   1
   9   1   5-23.6008 96.4894  19
   9  -1  -5-86.0600 64.9444  19
   9   1  -5 54.0647 65.8364  19
  -9   1   5 19.2405 25.4407   1
  -9   1  -5 104.797 99.5789  18
  -9   1   5 182.947 152.402  18
   9   1   5 86.1818 127.534   4
  -9   1  -5 131.849 186.866   8
   9  -1  -5 22.9577 67.3725   2
  -9  -1   5-465.790 249.570  18
  -9  -1  -5 112.859 133.974   8
   9  -1   5-39.2194 83.2710  17
   9  -1  -5 70.9043 75.2550   4
   9  -1  -6 65.2007 100.665   4
  -9   1   6 93.3233 89.7838   8
   9  -1  -6 119.689 142.788  17
   9   1  -6 130.365 162.772  17
  -9  -1   6-93.7032 316.320   8
   9   1  -6 102.290 71.6497   4
   9   1   6 55.4696 130.169   7
  -9  -1  -6 61.6183 99.4831   1
  -9  -1  -6 317.927 165.559  16
  -9   1  -6 83.8555 93.8930  16
  -9   1  -6-68.9825 216.505   6
   9   1   6-27.0285 77.4466  15
   9   1  -6 114.064 140.935   2
  -9   1  -6 91.3469 122.439  14
  -9  -1  -6 250.315 151.472   6
  -9  -1  -6 168.620 161.761  14
  -9   1   6 126.451 126.153  14
  -9  -1   6 136.412 111.433  14
   9   1   6 164.027 148.279   3
   9   1   6-32.1198 167.438   5
   9  -1  -6 140.654 139.955   5
  -9   1   6 241.062 191.502  11
  -9   1  -6 18.0266 120.946   1
   9   1  -6 164.901 146.882   5
   9   1   6 44.8785 52.3860  19
   9  -1  -6 252.112 149.766  19
   9   1  -6 96.2043 104.690  19
  -9   1  -6 95.3686 79.5946  18
   9   1   6-1.65492 29.6342   4
  -9   1   6 75.7610 92.3368   1
  -9   1   6 114.516 73.7607  18
  -9   1  -6 165.124 136.692   8
  -9  -1   6-436.756 333.588  18
  -9  -1   6 202.946 179.143   1
  -9  -1  -6 119.146 126.522   8
   9  -1  -6 84.0324 91.2612   2
  -9   1   7-51.3536 69.7170   1
   9  -1  -7 49.4030 63.5767   2
   9  -1  -7 116.510 110.615   4
   9  -1  -7 132.132 131.140  17
  -9   1   7 223.543 140.941   8
   9   1  -7 205.031 212.152  17
  -9  -1   7 65.4093 112.575   1
   9   1   7-86.3412 224.999   7
   9   1  -7 55.0295 56.2054   4
  -9  -1  -7 201.763 153.753  16
  -9   1  -7 272.932 221.646  16
  -9   1  -7-141.050 275.128   6
   9   1   7-42.0211 141.600  15
   9   1  -7 141.714 75.3927   2
  -9   1  -7 185.144 253.399  14
  -9  -1  -7 150.633 165.312   6
  -9  -1  -7 176.684 132.109  14
  -9   1   7 209.889 140.090  14
  -9  -1   7 85.3563 109.690  14
   9   1   7-67.8908 244.044   5
   9  -1  -7 162.176 166.682   5
  -9   1   7 145.792 146.979  11
   9   1  -7 52.1136 24.0732   5
   9   1   7 22.8027 62.0873  19
   9  -1  -7 87.2921 90.9171  19
   9   1  -7 171.999 129.552  19
   9   1   7 123.384 80.2209   4
  -9   1  -7 140.135 143.523   8
  -9   1   7 109.965 124.671  18
  -9  -1  -7 163.920 180.463   8
  -9  -1  -7 37.7924 166.176   1
   9  -1  -8 60.5482 78.8788   4
   9  -1  -8 103.014 87.3115   2
   9  -1  -8 107.051 120.349  17
  -9   1   8 75.4849 103.805   8
   9   1  -8 61.0452 77.3739  17
  -9   1   8 26.2095 66.2925   1
   9   1   8-255.694 291.489   7
   9   1  -8 113.044 99.0115   4
  -9  -1  -8 201.148 164.474  16
  -9   1  -8 126.314 134.560  16
  -9   1  -8-430.535 405.696   6
   9   1   8-283.173 315.219  15
  -9  -1  -8 243.250 169.877   6
  -9   1  -8-370.948 324.670  14
   9   1  -8 160.823 123.864   2
  -9  -1   8-121.897 129.352   1
  -9  -1  -8 40.7474 139.755  14
  -9   1   8 63.2299 63.2842  14
  -9  -1   8 70.9646 125.194  14
   9  -1  -8 50.1086 41.2632   5
  -9   1   8 43.1526 153.295  11
   9   1  -8 158.443 83.2919   5
   9   1   8-88.7419 119.518  19
   9  -1  -8 60.8956 69.6952  19
  -9  -1  -8 115.886 107.923   1
   9   1   8-250.823 259.527   4
  -9   1  -8 155.236 171.364   8
  -9   1   8 108.487 101.892  18
  -9  -1  -8-3.25891 44.1232   8
   9  -1  -9 178.636 127.644   4
   9  -1  -9 295.569 213.407  17
   9  -1  -9 76.1225 59.7256   2
   9   1  -9-30.0752 114.214  17
   9   1  -9 115.517 117.608   4
  -9  -1  -9 182.302 128.625  16
  -9   1   9-7.15943 71.2451   1
  -9   1  -9 26.9020 130.135  16
  -9  -1  -9 268.644 211.524   6
  -9   1  -9-380.749 430.491  14
   9   1  -9 175.476 143.805   2
  -9  -1  -9 142.464 140.406  14
  -9   1   9 32.5860 71.9103  14
  -9  -1   9 35.4188 52.5498  14
  -9  -1   9 158.416 146.496   1
   9  -1  -9 62.2031 96.3256   5
  -9   1   9 120.258 28.9406  11
  -9  -1  -9-245.946 302.227   1
   9   1  -9 253.481 202.774   5
   9   1   9 146.014 127.784  19
   9  -1  -9 104.482 61.1228  19
  -9   1  -9 63.1433 47.2705   8
  -9   1   9 162.052 140.340  18
  -9  -1  -9 110.410 91.2998   8
   9  -1 -10 217.125 142.152   4
   9  -1 -10 295.048 144.536  17
   9  -1 -10 331.435 190.754   2
   9   1 -10-377.610 242.936  17
  -9  -1 -10 257.207 190.169  16
   9   1 -10 220.274 40.9709   4
  -9   1 -10 300.046 200.402  16
  -9  -1 -10 178.924 123.581   6
  -9   1  10 140.693 173.957   1
  -9  -1 -10 127.133 152.107  14
   9   1 -10 277.174 207.918   2
  -9   1  10 124.153 115.803  14
  -9  -1  10 200.848 141.095  14
  -9  -1  10 70.2719 95.8383   1
   9  -1 -10 140.623 138.131   5
  -9   1  10-63.0036 210.730  11
   9   1 -10 485.721 311.538   5
   9   1  10 12.3766 115.077  19
   9  -1 -10 194.347 141.952  19
  -9   1 -10 31.6004 86.4393   8
  -9   1  10 204.253 168.170  18
  -9  -1 -10 238.032 198.359   8
   9  -1 -11 177.444 217.962  17
   9  -1 -11 143.989 135.394   4
   9  -1 -11 188.577 119.895   2
  -9  -1 -11 163.784 67.2798  16
  -9   1 -11 182.454 273.286  16
  -9  -1 -11 307.538 233.357   6
   1   9  11-32.8936 138.736   3
  -9  -1 -11 110.757 172.213  14
   9   1 -11 91.1417 148.313   2
  -9   1  11 196.184 166.289  14
  -9   1  11 199.001 162.239   1
  -9  -1  11 119.937 120.645  14
  -1   9  11-230.263 436.628  13
  -1  -9 -11-15.7954 36.3320   6
   1  -9 -11 56.9450 190.522   6
  -9  -1 -11 176.331 193.642   8
   9  -1 -11 254.408 216.043   5
  -9   1  11-138.428 253.681  11
   9   1 -11 346.176 322.748   5
   9   1  11 93.2570 114.793  19
  -9  -1  11-72.5554 181.772   1
  -9   1 -11-70.3414 259.815   8
  -9   1  11 130.615 156.116  18
   9  -1 -12 804.357 361.652  17
   9  -1 -12 1020.99 337.237   4
   9  -1 -12 1180.98 398.891   2
  -9  -1 -12 1100.21 405.904  16
  -9   1 -12 966.625 422.207  16
  -9  -1 -12 1142.21 389.775   6
  -1   9  12 917.851 294.629   3
   1   9  12 801.410 298.343   3
  -9  -1 -12 1279.43 454.457  14
   9   1 -12 1132.96 419.023   2
  -9   1  12 336.979 200.548  14
  -9  -1  12 536.240 292.989  14
  -9   1  12 781.732 344.171   1
   1   9  12 244.801 288.426  13
  -1   9  12 893.597 317.016  13
  -1  -9 -12 181.014 174.950   6
   1  -9 -12 57.1323 158.406   6
   9  -1 -12 1104.61 369.881   5
   9   1  12 183.772 141.827  19
   9   1 -12 1558.66 542.001   5
   1   9  12 867.174 289.350  18
  -1   9  12 760.543 326.162  18
  -9   1 -12 1170.01 599.860   8
  -9  -1  12 842.968 435.122   1
  -9  -1 -12 902.321 381.144   8
  -9   1  12 380.343 211.988  18
   9  -1 -13 132.639 125.231  17
   9  -1 -13-72.2082 126.718   2
  -9  -1 -13 345.410 234.579  16
  -9   1 -13-2.04673 227.537  16
  -9  -1 -13-20.5601 47.6603   6
  -9  -1 -13-202.206 321.974  14
  -1   9  13 149.331 116.107   3
   1   9  13 163.625 145.543   3
  -1  -9 -13 175.625 251.108   6
   1  -9 -13-119.532 132.929   6
   1   9  13-188.559 411.231  13
  -1   9  13 92.0582 158.500  13
  -9   1  13 190.963 187.987   1
   9  -1 -13 48.1482 119.663   5
   9   1  13-388.692 329.784  19
   1   9  13 242.231 197.327  18
  -1   9  13 364.918 271.019  18
  -9   1 -13 467.711 424.070   8
  -9  -1 -13-122.174 193.464   8
  -9   1  13-119.694 176.230  18
   1  -9 -13-12.9321 162.738  17
   9  -1 -14 1277.13 459.767  17
   9  -1 -14 1756.11 515.941   2
  -9  -1 -14 1394.29 473.926  16
  -1   9  14 1123.92 358.293   3
  -9   1 -14 1256.78 566.758  16
  -9  -1 -14 1507.10 478.384   6
  -9  -1 -14 586.124 399.807  14
   1   9  14 1153.89 366.274   3
   1  -9 -14 3.29516 202.836   6
  -1  -9 -14 321.702 207.112   6
   1   9  14 1194.22 514.960  13
  -1   9  14 1128.91 453.343  13
  -9   1  14 342.504 242.258   1
   1   9  14 1109.96 313.782  12
   9  -1 -14 1364.61 453.609   5
   9   1  14 42.8963 89.6754  19
  -1   9  14 1587.39 491.481  18
  -9   1 -14 1886.46 820.938   8
  -9  -1 -14 1425.69 496.807   8
  -9   1  14 289.829 94.1738  18
  -1  -9 -14 20.7292 318.275  17
   1  -9 -14 245.992 127.246  17
   9  -1 -15-7.02627 109.403  17
   9   1  15 41.5896 33.4216  19
   9  -1 -15 135.185 210.911   2
  -9  -1 -15 207.487 269.573  16
  -9  -1 -15-16.9566 205.888   6
  -1   9  15 7.27822 65.3920   3
   1   9  15 75.2773 86.4701   3
   1  -9 -15-166.231 188.624   6
  -1  -9 -15 79.1164 211.521   6
   1   9  15 196.901 259.732  13
  -1   9  15 295.681 267.874  13
  -9   1  15 122.983 211.148   1
   1   9  15 136.679 127.699  12
   9  -1 -15-35.2131 147.177   5
  -1   9  15 5.58598 42.7898  18
  -9   1 -15 231.516 435.407   8
  -9  -1 -15 263.184 275.382   8
  -9   1  15-288.664 341.348  18
   1  -9 -15 150.026 210.224  17
  -9  -2   0 282.785 166.112   8
   9   2   0 152.615 67.7697   4
  -9   2   0 259.199 221.301   1
   9   2   0 238.335 97.0204   2
  -9   2   0 297.086 217.037  14
  -9  -2   0 226.008 130.994  14
  -9  -2   0 278.794 115.164   6
  -9  -2   0 273.021 150.642   1
   9  -2   0-35.1747 240.331   5
   9   2   0 209.282 160.793  12
   9   2   0 245.738 137.684   5
   9  -2   0 160.564 185.202  19
   9   2   0 342.383 158.628  19
  -9   2   0 401.885 169.821  18
  -9   2   0 244.041 131.352   8
   9  -2   0 172.798 180.778  17
   9  -2  -1 824.355 283.447  17
   9   2   1 333.687 104.715  17
  -9  -2  -1 2194.04 361.858   6
  -9  -2   1 2307.55 370.138   6
  -9   2  -1 2595.85 653.106  14
  -9   2   1 2701.77 658.057  14
  -9  -2  -1 2266.09 445.452  14
  -9  -2   1 2232.14 437.573  14
  -9   2  -1 2622.45 639.131   1
  -9   2   1 2460.03 558.381   1
   9   2   1 2189.60 424.240   5
   9   2  -1 2501.25 454.968   5
   9   2   1 1658.10 399.660  12
   9  -2  -1 809.776 294.191   5
  -9  -2  -1 2067.33 412.531   1
  -9  -2   1 1910.26 421.007   1
   9   2  -1 2302.12 328.765   2
   9   2   1 2183.06 420.392  19
   9   2  -1 2219.23 410.398  19
   9  -2   1 311.908 195.619  19
   9  -2  -1 1134.53 361.265  19
   9   2   1 2414.97 472.463   4
   9   2  -1 2138.18 415.566   4
  -9   2  -1 2883.91 591.693   8
  -9   2   1 2744.84 529.327   8
  -9   2  -1 2775.69 480.026  18
  -9   2   1 2838.62 488.848  18
  -9  -2  -1 2556.80 458.787   8
  -9  -2   1 2112.40 426.062   8
   9  -2  -1 551.622 251.821   4
   9  -2   1 314.386 121.183  17
   9  -2  -2-63.2517 133.784  17
  -9  -2  -2 51.6251 55.8964   8
   9   2   2 52.5168 43.0183   4
  -9  -2  -2 78.7908 21.1253   1
  -9  -2   2 58.2765 105.162   8
   9   2  -2-44.7220 106.742   4
   9   2   2-146.008 206.286   3
  -9   2   2 58.6173 71.9669   1
   9   2  -2 73.7322 68.3111   2
  -9   2  -2 108.588 43.3513  14
  -9   2   2 93.7849 39.9487  14
  -9  -2  -2 67.2669 116.515  14
  -9  -2   2 92.9342 85.4047  14
  -9  -2  -2 45.8615 36.4848   6
  -9  -2   2 141.909 120.362   6
   9  -2  -2-43.0972 107.222   5
   9   2   2 145.965 127.756  12
  -9   2   2 197.773 169.453  11
   9   2   2-21.3220 51.1318   5
   9  -2  -2-143.995 183.027   2
   9   2  -2 178.761 149.710   5
   9  -2  -2 0.11844 43.5806   4
   9  -2  -2-9.26620 82.6561  19
   9   2   2 88.9389 96.6881  19
   9   2  -2-37.7038 72.5767  19
  -9   2  -2 40.3636 101.931  18
  -9  -2   2 120.200 116.607   1
  -9   2   2 51.2465 67.2599  18
  -9   2  -2 58.9258 40.1139   1
  -9   2  -2 112.018 90.6619   8
  -9   2   2 188.694 135.592   8
   9  -2   2-4.83333 87.7696  17
   9   2   3 270.958 169.656   4
  -9  -2  -3 332.504 163.215   8
   9  -2  -3 173.107 150.080  17
  -9  -2   3 190.650 150.695   8
  -9  -2   3 185.547 134.629   1
   9   2  -3 275.588 164.885   4
  -9   2  -3 637.808 354.983  14
  -9   2   3 287.324 231.906  14
   9   2  -3 357.125 165.594   2
   9   2   3 72.0501 75.4856   3
  -9   2   3 630.888 272.111   1
  -9  -2  -3 300.791 148.112  14
  -9  -2  -3 310.060 141.720   6
  -9  -2   3 396.477 202.904  14
  -9   2   3 313.868 145.032  13
  -9  -2   3 364.004 165.842   6
   9   2   3 254.398 134.345  12
   9  -2  -3 199.638 111.800   5
  -9   2   3 554.176 219.143  11
   9   2   3 320.265 167.937   5
   9   2  -3 343.280 173.740   5
   9  -2  -3 175.592 121.375   2
  -9   2   3 718.886 317.733   9
   9  -2  -3 136.177 136.287  19
   9   2   3 233.544 150.867  19
   9   2  -3 410.080 169.648  19
  -9   2  -3 351.978 266.061   1
  -9   2  -3 409.721 191.122  18
  -9  -2  -3 292.517 154.676   1
   9  -2  -3 70.9903 141.187   4
  -9   2   3 488.934 217.710  18
  -9   2  -3 566.509 314.161   8
   9  -2   3-2.54283 28.7507  17
  -9   2   3 481.578 197.497   8
  -9  -2  -4-11.7694 82.9041   8
   9  -2  -4-9.57436 9.09044  17
  -9  -2   4-80.9933 153.159   8
   9   2  -4 30.5768 102.422   4
  -9   2  -4-44.5578 109.669  14
  -9   2   4-30.9726 106.171  14
   9   2  -4 2.36187 90.3044   2
  -9  -2  -4 41.4399 44.6699  14
  -9  -2  -4-40.8812 62.9896   6
   9   2   4 34.7397 40.8640   3
  -9  -2   4-63.7801 71.8954   1
  -9  -2   4 13.7756 58.4327  14
  -9   2   4 14.6089 20.9976   1
  -9   2   4 24.1484 68.7545  13
  -9  -2   4-155.455 201.104   6
   9   2   4-24.6371 63.4423  12
   9  -2  -4-80.9400 120.895   5
  -9   2   4-41.9067 94.9518  18
   9   2   4-94.3942 109.885   5
  -9   2   4-25.7843 29.1646  11
  -9  -2  -4-71.1587 112.258   1
  -9   2  -4-60.3813 256.502   1
   9   2  -4-87.3097 104.013   5
  -9   2   4 189.541 222.664   9
   9  -2  -4-36.2345 32.9291  19
   9  -2  -4 36.2780 58.4846   2
   9   2   4-61.9267 93.9253  19
   9   2  -4 22.5673 43.1427  19
  -9   2  -4-5.62974 51.4996  18
   9  -2  -4-34.8651 42.0949   4
  -9   2  -4 194.377 229.883   8
  -9   2   4-5.89764 44.2163   8
   9   2   4 11.2121 80.4681   4
  -9   2   5-19.7277 6.99840   8
   9  -2  -5 118.701 139.063  17
   9   2  -5-43.4299 82.9150   4
  -9   2  -5-56.9515 296.107  14
  -9   2   5 279.648 209.990  14
  -9  -2  -5 15.1534 78.4352  14
  -9  -2  -5-13.7842 19.1480   6
   9   2  -5 30.5339 151.388   2
  -9  -2   5 10.6092 70.7880  14
   9   2   5 12.2019 99.9230   3
  -9   2   5 14.5095 21.9938  13
  -9   2   5-10.4022 89.1003   1
  -9  -2  -5 87.5287 108.854   1
   9   2   5-6.41844 51.6294  12
   9  -2  -5 25.5328 13.5573   5
   9   2   5 172.362 153.959   5
  -9  -2   5 22.2497 76.9048   1
  -9   2   5 102.685 85.6411  11
   9   2  -5 55.6520 93.2540   5
   9   2   5 19.5510 88.4532  19
  -9   2   5 301.085 271.884   9
   9   2  -5-4.49852 40.9419  19
   9  -2  -5 33.0432 24.5168  19
   9  -2  -5 2.80744 48.7136   2
  -9   2  -5-21.5024 93.0276  18
  -9   2  -5-64.9068 190.548   8
  -9   2   5 6.99096 94.9641  18
   9  -2  -5 109.930 123.583   4
   9   2   5 5.70110 50.0956   4
  -9  -2  -5 45.3875 69.7502   8
  -9   2   6 370.477 147.402   8
   9  -2  -6 220.090 187.852  17
  -9  -2  -6 315.710 74.1951  16
   9   2   6 410.275 243.831   7
   9   2  -6 391.887 176.277   4
  -9   2  -6-154.631 352.075  16
   9   2   6 318.148 247.214  15
  -9   2  -6-191.658 350.419  14
  -9   2   6 76.0462 101.018  14
  -9  -2  -6 273.218 114.379   6
  -9  -2  -6 276.920 164.214  14
   9   2  -6 529.947 277.249   2
  -9  -2  -6 553.249 257.204   1
  -9  -2   6 217.109 106.060  14
   9   2   6 189.211 150.283   3
  -9   2   6 368.531 134.169  13
   9   2   6 216.584 114.638  12
  -9   2   6 300.162 211.369   1
   9   2   6 206.725 126.172   5
   9  -2  -6 271.634 158.111   5
  -9   2   6 610.638 282.886  11
   9   2   6 116.925 43.0775  20
   9   2  -6 426.007 219.153   5
   9   2   6 263.323 171.947  19
   9  -2  -6 228.082 167.714  19
  -9   2   6 282.440 221.376   9
   9   2  -6 312.048 66.2124  19
   9  -2  -6 393.752 193.066   2
  -9   2  -6 435.647 350.585   8
  -9   2   6 508.783 212.869  18
  -9  -2   6 277.606 201.059   1
   9  -2  -6 252.174 183.158   4
   9   2   6 293.296 178.154   4
  -9  -2  -6 390.838 199.434   8
   9  -2  -7 124.720 141.753  17
  -9   2   7 6.67469 22.4283   8
  -9  -2  -7 78.0964 53.0871  16
   9   2   7 110.031 170.242   7
  -9  -2   7 7.70764 106.828   1
   9   2  -7-324.371 177.521   4
  -9  -2  -7-30.1945 38.0014   1
   9   2   7 195.369 167.887  15
  -9  -2  -7 55.5810 63.6552   6
  -9   2   7 20.8235 145.918  14
  -9  -2  -7 18.5958 46.2200  14
  -9   2   7-504.930 375.534   9
   9   2  -7-32.7626 36.1272   2
  -9  -2   7 110.358 128.334  14
   9   2   7-25.5086 73.9868   3
  -9   2   7 183.032 105.665  13
   9   2   7 136.725 160.019  12
   9   2   7 116.763 104.455   5
   9  -2  -7 86.3663 25.9568   5
  -9   2   7-14.5956 106.398   1
  -9   2   7-67.1850 129.043  11
   9   2  -7 48.0974 125.024   5
   9   2   7 9.18884 39.2878  19
   9  -2  -7 47.1332 69.9036  19
  -9   2  -7-239.315 311.608   8
   9  -2  -7 68.0264 96.6426   2
  -9   2   7-38.1284 85.1068  18
   9   2   7 48.4932 102.073   4
   9  -2  -7 7.61541 32.3726   4
  -9  -2  -7 121.068 130.231   8
   9  -2  -8 99.8737 74.1989  17
  -9   2   8 142.223 110.504   8
  -9  -2  -8 260.693 148.298   1
  -9  -2  -8 265.663 205.477  16
   9   2   8-52.3683 21.7448   7
   9   2   8 40.6837 102.285  15
  -9  -2  -8 82.1801 84.3913   6
  -9   2   8 83.2219 57.1994  14
  -9  -2  -8 106.747 122.668  14
  -9  -2   8 100.966 143.731  14
  -9  -2   8 40.8712 194.996   1
   9   2   8 61.7998 79.9816   3
   9   2   8 79.0210 92.5615  12
   9   2   8 65.8454 97.9257   5
   9  -2  -8 93.1352 144.079   5
  -9   2   8 123.782 91.2208  11
  -9   2   8 187.105 172.416   1
   9   2  -8 179.203 195.583   5
   9   2   8 119.996 104.028  19
   9  -2  -8 113.836 103.451  19
  -9   2   8-351.881 508.199   9
  -9   2  -8-5.81657 231.286   8
   9   2   8 59.6292 112.436   4
  -9   2   8 235.168 172.814  18
   9  -2  -8 252.164 153.510   2
   9  -2  -8 272.810 214.684   4
  -9  -2  -8 217.226 150.081   8
   9  -2  -9 212.575 228.420  17
   9   2   9-6.62897 84.2010   7
  -9  -2  -9 179.653 219.937  16
   9   2   9-70.0997 182.743  15
  -9  -2  -9 8.54558 19.6226   6
  -9  -2  -9 60.4529 40.0950  14
  -9   2   9 55.4809 93.2413  14
   9   2   9 370.470 258.780  12
   9   2   9 52.7192 99.3867   3
   9  -2  -9 37.2647 38.9691   5
  -9   2   9-14.7650 121.439  11
   9   2   9 143.977 138.280  19
  -9   2   9 151.713 155.016   1
   9  -2  -9 60.2880 49.5832  19
   9   2   9 116.549 183.551   4
  -9   2  -9-42.6178 330.348   8
  -9   2   9 110.040 115.483  18
  -9  -2  -9 176.234 209.672   1
   9  -2  -9-14.7616 87.4364   2
  -9  -2  -9 31.9917 77.1940   8
   9  -2  -9 72.1121 41.9967   4
   9  -2 -10 430.041 276.215  17
   9   2  10 136.727 138.828   7
  -9  -2 -10 561.461 309.029  16
   9   2  10 64.4669 38.5673  15
  -9  -2 -10 316.131 165.343   6
  -9  -2 -10 315.616 178.300  14
  -9   2  10 130.163 165.092  14
  -9   2  10 229.890 163.748  18
   9  -2 -10 155.979 115.789   5
  -9   2  10 356.129 246.185  11
  -9  -2 -10-13.0605 187.642   1
   9   2  10 118.318 101.195  19
   9  -2 -10 326.970 177.033  19
   9   2  10 92.4048 69.1056   4
  -9   2  10 279.908 179.925   1
  -9   2 -10 746.540 602.521   8
  -9  -2 -10 278.983 185.185   8
   9  -2 -10 234.921 167.412   2
   9  -2 -10 238.358 192.340   4
   9  -2 -11 816.515 293.307   2
   9  -2 -11 1050.95 412.460  17
   9   2  11 155.797 177.658   7
  -9  -2 -11 1710.85 470.880  16
   9   2  11 328.831 61.8430  15
   2   9  11 908.861 331.198   3
  -9  -2 -11 1254.87 393.450   6
  -9  -2 -11 1350.73 424.420  14
  -9   2  11 731.203 333.063  14
  -2   9  11 652.428 269.010  13
  -2  -9 -11 91.4586 125.441   6
   2  -9 -11 270.152 347.212   6
   9  -2 -11 1019.01 381.629   5
  -9   2  11 1243.87 457.611  11
   9   2  11 296.284 171.172  19
   9  -2 -11 975.909 299.596  19
  -2   9  11 557.904 226.315  18
  -9   2 -11 1511.83 690.064   8
  -9   2  11 1044.03 405.585   1
  -9   2  11 859.146 314.707  18
  -9  -2 -11 1189.98 381.754   8
   9  -2 -11 894.873 312.656   4
   9  -2 -12 254.110 193.836   2
   9  -2 -12 269.712 231.659  17
  -9  -2 -12 378.134 227.925  16
  -9  -2 -12 319.628 200.009   6
   2   9  12 193.373 154.622   3
  -9  -2 -12 130.462 157.316  14
  -2   9  12 15.4086 195.534  13
  -2  -9 -12 153.177 149.959   6
   2  -9 -12 170.154 149.044   6
   9  -2 -12 31.5627 63.3631   5
  -9   2  12 145.522 135.143  11
   9   2  12-47.5929 90.2407  19
  -2   9  12 60.5537 130.397  18
  -9   2  12 152.852 130.920  18
  -9  -2 -12 362.734 241.193   8
  -9   2  12 147.408 143.617   1
   9  -2 -13 1531.00 465.910   2
  -9   2  13 1025.25 412.964   1
   9  -2 -13 1651.96 532.226  17
  -9  -2 -13 2307.45 589.586  16
  -2   9  13 1407.66 397.370   3
   2   9  13 1600.50 437.748   3
  -9  -2 -13 1642.28 466.284   6
  -9  -2 -13 2144.72 585.058  14
  -2  -9 -13 239.062 187.337   6
   2   9  13 665.420 86.4514  13
   2  -9 -13 340.424 267.865   6
  -2   9  13 1460.61 481.637  13
   9  -2 -13 1942.15 553.748   5
   2   9  13 1406.82 361.470  12
  -9   2  13 1200.61 423.171  11
   9   2  13-137.257 133.285  19
  -2   9  13 1513.19 468.650  18
  -9   2  13 1297.99 402.009  18
  -9  -2 -13 1777.56 477.644   8
   2  -9 -13-171.249 255.489  17
   9  -2 -14-34.8213 154.643   2
   9  -2 -14 63.0540 150.215  17
  -9   2  14 16.7273 99.7088   1
  -9  -2 -14-77.5800 70.7627  16
  -9  -2 -14-64.9902 70.5679   6
  -9  -2 -14 32.1675 255.677  14
  -2   9  14 8.83068 16.1847   3
   2   9  14 187.349 167.502   3
   2  -9 -14 86.1879 102.773   6
  -2  -9 -14 238.801 258.054   6
   2   9  14-351.492 484.067  13
  -2   9  14 98.8787 110.442  13
   2   9  14 19.2163 84.9715  12
   9  -2 -14 66.3992 173.586   5
  -9   2  14-88.0796 302.371  11
   9   2  14 67.1275 75.3962  19
  -2   9  14 27.3009 133.928  18
  -9   2  14 22.5934 72.6764  18
  -9  -2 -14-91.3791 131.784   8
   2  -9 -14-216.951 259.640  17
   9  -2 -15 1682.65 544.438  17
  -9  -2 -15 1660.79 489.811  16
  -2   9  15 1283.02 392.086   3
  -9  -2 -15 1937.22 668.423  14
  -2  -9 -15 453.771 283.214   6
   9  -2 -15 1385.59 459.452   5
   9   2  15-192.774 107.552  19
  -2   9  15 1198.20 401.257  18
  -9   2  15 826.514 367.250  18
  -9  -2 -15 1426.20 458.006   8
   2  -9 -15-76.5591 165.180  17
  -9  -3   0 4357.95 600.881   6
  -9   3   0 2869.03 770.680  14
  -9  -3   0 3795.31 591.552  14
  -9   3   0 4488.60 866.776   1
   9   3   0 4190.84 589.254   5
  -9  -3   0 3537.45 564.380   1
   9   3   0 5825.67 651.998   2
   9   3   0 4576.18 606.032  19
  -9   3   0 4686.87 789.250   8
   9   3   0 4467.36 623.074   4
  -9   3   0 4892.48 702.364  18
  -9  -3   0 3836.73 617.607   8
  -9  -3  -1-36.9255 82.2870   8
  -9  -3   1 71.4736 107.995   8
   9   3   1 19.7912 31.5756   4
   9   3  -1 45.9550 86.3860   4
  -9   3   1-46.7853 43.5584  14
  -9  -3  -1 90.4280 101.471  14
  -9  -3   1-34.3041 27.0196  14
   9   3  -1-106.805 220.089   2
  -9  -3  -1 26.0198 19.2755   6
  -9  -3   1 44.4151 50.8608   6
  -9  -3   1-5.84405 82.8693   1
   9   3   1-22.7844 138.744  12
   9   3   1 94.0863 97.6355   5
   9   3  -1-12.7665 31.3929   5
  -9   3  -1-118.155 214.272   1
   9   3   1 69.7097 44.1418  19
   9   3  -1-45.8600 80.9387  19
  -9  -3  -1 49.1877 98.7336   1
  -9   3  -1 126.459 163.534  18
  -9   3   1-0.89808 103.179  18
  -9   3  -1 48.1481 81.9340   8
  -9   3   1 20.2698 27.9547   8
  -9   3   1-67.1247 133.609   1
   9  -3   1 52.7539 85.3048  17
   9  -3  -1-311.165 201.044  17
  -9  -3  -2 2546.75 431.742   6
  -9  -3   2 2033.91 542.085   6
  -9   3   2 2654.70 730.521  14
  -9  -3  -2 2273.97 443.173  14
  -9  -3   2 1709.78 413.656  14
  -9   3  -2 1946.83 563.380   1
  -9   3   2 2569.32 643.054   1
   9   3   2 2348.99 433.873   5
   9   3   2 2392.70 529.984  12
   9   3  -2 2866.49 527.253   5
  -9  -3  -2 2519.44 447.741   1
  -9  -3   2 1522.85 401.812   1
   9   3  -2 4574.22 802.731   2
   9   3   2 2281.98 425.268  19
   9   3  -2 2767.49 487.051  19
   9  -3  -2 661.459 261.074  19
   9   3   2 2429.59 464.845   4
  -9   3  -2 2414.02 636.215   8
  -9   3   2 3137.96 565.874   8
  -9   3  -2 2105.16 451.202  18
   9   3  -2 2457.90 484.248   4
  -9   3   2 2927.76 526.619  18
  -9  -3  -2 2244.59 444.413   8
  -9  -3   2 1825.58 481.351   8
   9  -3  -2 484.854 213.607  17
  -9  -3  -3-38.1052 79.2541   8
   9   3   3-160.688 147.479   4
  -9   3   3-26.1284 52.4531   1
   9   3  -3-25.4773 84.2830   4
  -9  -3   3 63.3184 97.8214   1
   9   3   3-111.704 186.714   3
  -9   3   3 159.935 220.232  14
  -9  -3  -3 120.200 107.144   1
  -9  -3  -3-31.8977 58.7147  14
  -9  -3   3-10.6861 44.7536  14
  -9  -3  -3-61.3274 100.055   6
   9  -3  -3-488.979 375.435   5
   9   3   3-2.10170 54.5996  12
   9   3   3-81.0853 109.248   5
   9   3  -3 64.9539 114.683   5
   9  -3  -3-58.0952 92.7152  19
   9   3   3 37.4358 52.7232  19
   9   3  -3 4.34832 53.7091  19
  -9   3  -3-192.163 198.904  18
  -9   3   3-35.3696 62.2553  18
  -9   3  -3-103.315 170.668   8
  -9   3   3 35.3807 71.5546   8
   9  -3  -3 18.6169 108.989  17
   9  -3  -4 368.298 220.622  17
  -9  -3  -4 255.094 152.186   8
   9   3   4 217.309 109.503   4
  -9  -3  -4 347.953 159.316   1
   9   3  -4 210.474 85.6600   4
  -9   3   4 464.478 273.437   1
  -9   3   4 168.941 163.971  14
   9   3   4 192.373 127.512   3
  -9  -3  -4 222.362 132.566  14
  -9  -3  -4 306.872 154.577   6
  -9  -3   4 302.791 209.377  14
  -9   3   4 228.795 127.658  13
   9  -3  -4 109.407 122.599   5
   9   3   4 294.569 180.163  12
  -9  -3   4 182.074 201.395   1
   9   3   4 242.088 163.348   5
   9  -3  -4-71.4593 182.798   2
   9   3  -4 281.464 201.253   5
   9  -3  -4 125.198 111.591  19
   9   3   4 234.685 147.746  19
   9   3  -4 240.414 119.942  19
  -9   3  -4 326.041 252.544   8
  -9   3   4 395.525 182.846  18
  -9   3   4 355.743 174.242   8
   9  -3  -5-26.0198 17.4331  17
   9   3   5-6.43116 27.9728   4
  -9  -3  -5 55.1373 78.6268   8
  -9   3   5 17.9837 43.3952   1
  -9   3   5 22.1056 83.2206  14
   9   3   5 4.10914 85.9292   3
  -9  -3  -5 49.0160 71.7831  14
  -9  -3  -5-19.4226 76.8083   6
  -9  -3   5 74.9395 152.818  14
  -9   3   5 43.7878 57.5985  13
   9  -3  -5-28.1330 17.8052   5
   9   3   5-69.4204 98.4241  12
  -9   3   5 199.310 187.595  11
   9   3   5 102.339 93.7596   5
   9  -3  -5-4.95258 69.9687   2
   9  -3  -5 51.8733 78.6802  19
   9   3  -5-55.0201 179.731   5
   9   3   5-3.09151 93.3344  19
   9  -3  -5-115.154 226.124   4
  -9   3  -5-173.441 251.563   8
  -9  -3  -5 146.689 100.331   1
  -9   3   5 78.5047 97.9121  18
  -9  -3   5 41.3217 124.178   1
  -9   3   5 3.19454 23.8418   8
  -9  -3  -6 65.9418 108.083   8
   9  -3  -6 31.0931 109.572  17
  -9   3   6-194.293 244.546  14
  -9   3   6 0.12210 64.3655   1
  -9  -3  -6 91.6442 92.6393  14
  -9  -3  -6 64.5517 80.2793   6
   9   3   6-71.5401 117.389   3
  -9   3   6 35.5446 56.2511  13
   9   3   6 11.1879 103.465  12
   9  -3  -6-69.9720 183.003   5
  -9   3   6 103.536 187.287  11
   9   3   6 86.2435 131.812   5
  -9  -3  -6 126.645 109.476   1
   9  -3  -6-68.9340 96.7464   2
   9  -3  -6-28.6206 93.6785  19
   9   3   6 33.3526 39.0880  19
   9  -3  -6-116.964 204.365   4
  -9   3  -6-187.702 415.839   8
  -9   3   6 44.0625 92.9328  18
  -9   3   6 42.4610 89.6081   8
   9   3   6-43.7285 118.084   4
  -9  -3  -7 93.2272 25.2659   8
  -9   3   7 167.153 114.859   8
   9  -3  -7 177.477 150.196  17
  -9   3   7 301.935 503.442  14
  -9  -3  -7 111.385 100.711  14
  -9  -3  -7 209.922 146.894   6
  -9   3   7 102.933 191.482   1
   9   3   7-1.87797 47.9453   3
  -9   3   7 88.6433 59.1294  13
  -9  -3  -7 365.223 168.658   1
   9   3   7 126.139 145.049  12
   9  -3  -7 183.415 187.603   5
   9   3   7 74.1069 112.348   5
  -9   3   7 78.1543 47.5164  11
   9   3   7 253.835 198.304  20
  -9   3   7 374.286 334.352   9
   9   3   7 146.399 123.166  19
   9  -3  -7 102.438 135.141   2
  -9   3  -7 369.248 311.788   8
   9  -3  -7-70.6887 207.847   4
  -9   3   7 244.418 144.868  18
   9   3   7 152.419 165.309   4
   9  -3  -8 190.448 188.941  17
  -9  -3  -8 101.416 155.979  16
   9   3   8 313.910 243.054  15
  -9   3   8 267.625 296.477  14
  -9  -3  -8 161.083 150.731   1
  -9  -3  -8 112.710 80.6327   6
  -9  -3  -8 186.790 141.142  14
  -9   3   8 81.5649 108.306   1
   9   3   8 132.464 70.2419   3
  -9   3   8 133.580 113.860  13
   9   3   8-16.6711 77.7114  12
   9  -3  -8-24.0607 112.025   5
   9   3   8 119.020 133.971   5
  -9   3   8 145.891 127.000  11
   9   3   8 92.5214 103.224  20
  -9   3   8 194.969 202.837   9
   9   3   8 110.692 98.4947  19
   9  -3  -8 79.1770 47.0471  19
   9  -3  -8 75.2329 97.1396   2
   9  -3  -8 92.2919 77.1888   4
  -9   3   8 248.984 196.028  18
   9   3   8 135.273 174.523   4
  -9  -3  -8 73.6280 101.073   8
   9  -3  -9-11.5822 119.988  17
  -9  -3  -9 88.2961 66.8304  16
   9   3   9 118.302 153.322   7
  -9  -3  -9-14.9818 118.980   1
   9   3   9 99.7958 76.8919  15
  -9   3   9 234.614 294.086  14
  -9  -3  -9 87.8368 67.7461   6
  -9  -3  -9 43.0264 82.9584  14
   9   3   9 10.8488 61.3237   3
  -9   3   9 184.816 138.313   1
  -9   3   9 80.2972 85.9851  13
   9   3   9-38.7470 104.731  12
   9   3   9 157.287 140.767   5
   9  -3  -9 70.6882 57.4770   5
  -9   3   9 160.080 209.038  11
   9   3   9-100.461 162.109  20
   9   3   9-128.846 112.870  19
   9  -3  -9 106.595 101.162  19
   9  -3  -9 58.9190 124.325   2
   9  -3  -9 147.040 98.2954   4
  -9   3   9 35.9282 25.9577  18
   9   3   9 107.838 148.948   4
  -9   3   9 250.645 215.406   9
  -9  -3  -9 17.8388 44.8579   8
   9  -3 -10 744.043 365.553  17
  -9  -3 -10 1553.45 538.755  16
   9   3  10 576.755 338.477   7
   9   3  10 489.402 302.064  15
  -9   3  10 803.483 530.298  14
  -9  -3 -10 1047.01 321.263   6
  -9  -3 -10 936.528 300.017  14
   9   3  10 181.421 132.686   3
  -9   3  10 803.384 262.507  13
   9   3  10 315.791 117.595  12
  -9   3  10 582.469 297.764   1
   9   3  10 344.291 186.689   5
   9  -3 -10 805.860 337.783   5
  -9   3  10 1250.65 446.347  11
   9   3  10 347.176 244.121  20
  -9   3  10 394.641 150.580  10
   9   3  10 540.327 234.915  19
  -9   3  10 940.343 528.792   9
   9  -3 -10 657.069 220.031  19
   9  -3 -10 650.266 279.669   2
   9   3  10 371.988 208.708   4
   9  -3 -10 711.367 336.209   4
  -9   3  10 835.597 346.475  18
  -9  -3 -10 993.107 313.279   8
   9  -3 -11 66.2239 174.158  17
   9   3  11-115.868 211.640   7
  -9  -3 -11 140.599 186.565  16
   9   3  11 74.5393 10.9686  15
   3   9  11-146.619 180.321   3
  -9  -3 -11-11.1979 80.0582   6
  -9  -3 -11-49.9145 52.7885  14
  -3   9  11-374.841 369.380  13
  -3  -9 -11 204.038 213.319   6
   3  -9 -11 74.2926 125.569   6
   9   3  11-47.8179 28.9396   3
   9   3  11 41.2892 138.529  12
  -9   3  11 5.86232 94.1506   1
   9  -3 -11-26.1593 241.042   5
  -9   3  11-42.2402 149.493  11
   9   3  11-235.527 301.354  20
   9   3  11-133.098 151.058  19
  -9   3  11-845.085 475.640   9
  -3   9  11-54.2377 168.116  18
   9   3  11 191.787 240.112   4
  -9   3  11 39.9528 71.8207  18
   9  -3 -11-7.83260 114.339   2
  -9  -3 -11 14.9809 19.7603   8
   9  -3 -12 1952.37 567.150  17
  -9  -3 -12 3733.74 806.182  16
   9   3  12 1034.43 453.128   7
  -9  -3 -12 2724.26 593.336   6
   3   9  12 2072.09 530.448   3
   9   3  12 1468.11 567.511  15
  -9  -3 -12 2900.27 597.062  14
  -3   9  12 1682.60 510.660  13
  -3  -9 -12 216.361 100.625   6
   3   9  12 2138.01 454.905  12
   9   3  12 526.427 291.958   3
   9   3  12 1120.44 388.193  12
   9  -3 -12 1852.50 499.685   2
   9  -3 -12 2080.58 566.236   5
  -9   3  12 2543.40 723.002  11
  -9   3  12 1679.76 533.523   1
   9   3  12 593.267 245.840  19
  -9   3  12 1274.87 497.436   9
  -9  -3 -12 2422.64 529.337   8
  -9   3  12 2141.86 543.024  18
   9   3  12 402.231 152.018   4
  -3   9  12 1749.12 465.754  18
   3  -9 -12 33.7431 218.999  17
   9  -3 -13 167.626 243.052  17
   9   3  13 282.479 72.1319   7
  -9  -3 -13 601.750 298.408  16
   9   3  13 236.568 162.570  15
  -9  -3 -13 738.412 395.535   6
   3   9  13 41.3478 83.7266   3
  -9  -3 -13 607.768 357.382  14
  -3  -9 -13-67.7418 71.7895   6
   3   9  13-793.137 771.904  13
  -3   9  13 9.58474 114.706  13
   9   3  13 2480.06 639.564  12
   9   3  13 677.529 383.688   3
   3   9  13 6.52091 92.3081  12
   9  -3 -13 75.9806 141.620   5
  -9   3  13 376.227 324.156  11
  -9   3  13 136.869 195.832   1
   9   3  13 1298.41 427.104  19
  -3   9  13 60.1160 179.052  18
  -9   3  13-3.35909 137.349  18
   9  -3 -13 46.7880 111.507   2
  -9  -3 -13 1041.44 399.065   8
   3  -9 -13-34.5214 172.074  17
   9  -3 -14 2119.41 599.682  17
  -9  -3 -14 3791.87 829.217  16
   9   3  14 468.093 245.788   7
  -9  -3 -14 2812.84 630.696   6
  -3   9  14 2438.52 522.953   3
   3   9  14 1936.51 517.647   3
   9   3  14 307.065 139.258  15
  -9  -3 -14 2763.33 687.596  14
  -3  -9 -14 345.339 258.818   6
  -3   9  14 1850.50 555.950  13
   3   9  14 1137.62 357.723  13
   3   9  14 2390.15 503.669  12
   9  -3 -14 2060.08 630.434   5
  -9   3  14 2451.58 721.132  11
  -9   3  14 1994.14 598.885   1
   9   3  14 609.757 279.594  19
  -9  -3 -14 2688.42 613.891   8
  -3   9  14 2536.30 599.836  18
  -9   3  14 2046.06 560.229  18
   9  -3 -14 2189.90 554.300   2
   3  -9 -14 158.029 272.597  17
   9   4   0 451.267 207.146   5
  -9  -4   0 120.457 80.2404   8
   9   4   0 275.219 154.386   4
  -9  -4   0 114.429 60.0821   1
  -9  -4   0 239.040 158.937  14
  -9  -4   0 475.732 303.596   6
  -9   4   0 231.860 89.6738   1
   9   4   0 367.615 175.730  19
  -9   4   0 271.741 154.547  18
  -9   4   0 174.570 91.1904   8
  -9  -4   1 1811.00 486.883   8
  -9  -4  -1 3625.11 682.404   6
  -9  -4  -1 2550.65 489.751  14
  -9  -4   1 2103.67 472.040  14
  -9   4   1 3087.45 728.441   1
   9   4   1 4035.30 598.269   5
   9   4  -1 4184.61 651.589   5
  -9  -4  -1 2465.35 480.355   1
  -9  -4   1 2125.77 491.087   1
   9   4   1 4238.66 604.185  19
   9   4  -1 4485.40 653.216  19
  -9   4  -1 2868.25 652.013   8
  -9   4   1 3540.81 659.850   8
  -9   4  -1 2630.33 506.326  18
   9   4   1 4180.11 648.667   4
  -9   4   1 3829.84 636.099  18
   9   4  -1 3933.62 636.388   4
  -9  -4  -1 2586.20 544.445   8
  -9  -4  -2-31.9416 107.585   8
   9   4   2 109.053 93.6398   4
  -9  -4  -2 62.7891 73.9537   1
  -9  -4  -2 130.529 93.5660  14
  -9  -4   2 338.648 216.269  14
  -9  -4  -2 47.3940 56.8542   6
   9   4   2-26.9353 125.416  12
   9   4   2 140.596 109.976   5
   9   4  -2 61.3094 16.5165   5
   9   4   2 38.3108 32.4381  19
   9   4  -2-98.0361 156.906  19
  -9   4   2 170.117 205.260   1
  -9   4   2 185.180 170.178  18
  -9   4  -2 27.4615 59.2930   8
  -9   4   2 62.7172 30.3718   8
   9  -4  -2 4.19016 140.097  17
  -9  -4  -3 1235.52 336.859   6
  -9  -4  -3 1060.57 314.128  14
   9   4   3 1487.72 358.158   5
   9   4   3 1465.24 434.630  12
  -9  -4  -3 1236.82 311.975   1
   9   4   3 1337.92 341.232  19
   9   4   3 1433.10 365.499   4
  -9   4   3 1565.07 408.812   8
  -9   4   3 1705.20 415.490  18
  -9  -4  -3 1066.49 319.807   8
  -9   4  -3 696.121 306.712   8
  -9   4   3 1188.12 458.392   1
   9  -4  -3 158.742 106.676  17
  -9  -4  -4 586.475 246.144   8
   9   4   4 606.063 244.747   4
   9   4   4 7.87259 246.694   3
  -9  -4  -4 678.464 239.899  14
  -9  -4  -4 587.103 227.603   6
   9   4   4 611.032 259.417  12
  -9  -4  -4 583.973 212.650   1
   9   4   4 731.709 244.624   5
   9  -4  -4 14.6798 105.229  19
   9   4   4 603.462 214.893  19
  -9   4  -4 266.906 333.815   8
  -9   4   4 761.559 290.201  18
  -9   4   4 943.018 302.971   8
  -9   4   4 764.138 354.104   1
   9  -4  -4-7.11266 116.758  17
  -9  -4  -5 122.399 124.440   8
  -9   4   5 44.4279 129.280   1
   9   4   5 72.2413 77.9698   4
   9   4   5 119.232 151.214   3
  -9  -4  -5 78.5994 94.4827  14
  -9  -4  -5 52.1734 50.8440   1
  -9  -4  -5 26.2883 45.4686   6
  -9   4   5 63.7936 36.1133  13
   9   4   5 113.634 93.9262  12
   9   4   5 79.6950 85.9863   5
   9  -4  -5 68.8629 120.837  19
   9   4   5 106.717 104.602  19
  -9   4   5 47.6139 86.6923  18
  -9   4   5 101.252 100.968   8
   9  -4  -5-68.5424 113.957  17
   9  -4  -6 46.3303 108.397  17
  -9  -4  -6 119.714 103.835   8
   9   4   6-65.4542 87.2223   4
  -9   4   6-75.1482 264.745   1
  -9  -4  -6 35.1963 17.0047   1
   9   4   6-74.2674 96.0210   3
  -9  -4  -6 113.884 93.8308  14
  -9  -4  -6 186.037 143.499   6
  -9   4   6 39.6470 78.6248  13
   9   4   6-41.7536 83.0023  12
   9   4   6 25.4407 45.5095   5
   9  -4  -6-150.680 204.656   2
   9  -4  -6 114.045 93.2270  19
   9   4   6 51.0338 40.8666  19
  -9   4   6 24.4734 64.6033  18
  -9   4   6 45.8831 68.1574   8
   9  -4  -7 113.609 141.100  17
   9   4   7 47.5730 48.8886   4
  -9  -4  -7 143.544 120.698   8
  -9   4   7-113.844 134.703   1
  -9  -4  -7-19.7555 97.0017  14
   9   4   7-64.0575 118.791   3
  -9  -4  -7-55.7810 106.249   6
  -9   4   7-0.43426 35.4624  13
   9  -4  -7-165.541 277.026   5
   9   4   7 14.7382 94.7414  12
  -9   4   7 114.317 184.507  11
   9   4   7-12.2308 40.4477   5
   9  -4  -7-74.1423 109.708   2
   9  -4  -7-98.8495 117.370  19
   9   4   7 60.2134 62.2203  19
  -9  -4  -7 25.8040 58.3150   1
  -9   4   7-12.1703 42.9364  18
   9  -4  -8 19.7211 103.883  17
  -9  -4  -8 191.267 110.439   8
  -9   4   8 186.678 202.283   1
  -9   4   8-321.023 481.544  14
  -9  -4  -8 119.043 111.455  14
  -9  -4  -8 153.624 121.171   6
   9   4   8 86.6886 83.3891   3
  -9   4   8 172.563 73.4601  13
   9  -4  -8-128.753 272.030   5
   9   4   8 39.7349 49.6228  12
  -9  -4  -8 80.9323 59.4188   1
  -9   4   8 291.903 244.832  11
   9   4   8 197.705 139.343   5
   9  -4  -8 59.7189 47.7757   2
   9  -4  -8 144.164 129.073  19
   9   4   8 0.65561 90.2564  19
  -9   4   8 139.675 125.840  18
   9   4   8 34.7070 128.770   4
  -9  -4  -9 474.515 223.601   8
   9  -4  -9 366.293 256.727  17
  -9   4   9 356.800 299.550   1
  -9   4   9-163.164 478.948  14
  -9  -4  -9 548.631 207.538  14
  -9  -4  -9 436.222 212.655   6
   9   4   9 421.186 235.982   3
  -9   4   9 468.285 180.752  13
   9  -4  -9 189.920 121.759   5
   9   4   9 303.451 215.140  12
   9   4   9 478.281 240.625   5
  -9   4   9 640.158 293.310  11
   9   4   9 385.694 199.946  20
   9  -4  -9 342.888 225.748   2
   9  -4  -9 276.240 160.935  19
   9   4   9 266.188 151.988  19
  -9   4   9 554.141 256.726  18
   9   4   9 427.519 225.877   4
  -9  -4 -10 178.258 107.639   8
   9  -4 -10 102.422 125.742  17
  -9  -4 -10-62.3855 374.492  16
  -9   4  10-60.2352 207.654   1
  -9  -4 -10 51.4425 73.6241   6
  -9  -4 -10 233.009 182.426  14
   9   4  10-46.1376 128.115   3
  -9   4  10 137.339 111.964  13
   9   4  10-6.71815 43.8234  12
   9  -4 -10-25.0791 61.5072   5
   9   4  10 152.208 197.967   5
  -9   4  10-85.8474 147.435  11
   9   4  10-40.6121 102.393  20
  -9   4  10-29.5486 154.875  10
  -9   4  10 269.203 325.346   9
   9   4  10-13.6377 52.8289  19
   9  -4 -10 39.6060 151.702   2
  -4   9  10-147.951 202.620  18
  -9   4  10 37.1082 13.2232  18
   9   4  10 1.55084 58.1839   4
   9  -4 -11 1191.39 420.006  17
  -9  -4 -11 2209.13 723.805  16
   9   4  11 1683.27 575.635   7
  -9  -4 -11 1988.08 470.189   6
   4   9  11 1558.88 472.317   3
   9   4  11 1655.16 556.630  15
  -9  -4 -11 1929.39 442.742  14
  -9   4  11 1649.72 571.773   1
  -9   4  11 1648.93 372.005  13
  -4   9  11 1138.85 356.600  13
  -4  -9 -11 213.882 188.904   6
   9   4  11 901.388 380.724   3
   9   4  11 815.193 297.010  12
   9  -4 -11 1127.20 410.386   5
  -9   4  11 2402.13 689.394  11
   9   4  11 1425.46 456.647  20
  -9   4  11 1988.19 751.308  10
  -9   4  11 2494.67 771.669   9
   9   4  11 849.344 281.303  19
   9  -4 -11 1363.70 429.271   2
  -9  -4 -11 1823.87 455.054   8
  -9   4  11 1842.73 509.087  18
  -4   9  11 1036.55 349.695  18
   9   4  11 1261.88 437.029   4
   9  -4 -12 237.089 247.836  17
  -9  -4 -12 214.518 189.292  16
   9   4  12 503.445 389.104   7
   9   4  12 234.030 246.566  15
   4   9  12 298.304 213.112   3
  -9  -4 -12 305.968 212.432   6
  -9  -4 -12 48.5145 128.589  14
  -9   4  12-266.726 213.331   1
  -4   9  12-122.373 198.187  13
  -4  -9 -12 95.6747 136.344   6
   9   4  12 892.141 371.808   3
  -9   4  12 90.2442 87.4626  13
   9   4  12 1248.93 517.029  12
   9  -4 -12 116.046 97.2187   5
   4   9  12 104.066 72.7170  12
  -9   4  12 144.554 122.275  11
   9   4  12 457.325 276.578  20
  -9   4  12-9.91107 406.305  10
  -9   4  12-94.6561 300.637   9
   9   4  12 735.926 345.192  19
   9  -4 -12 318.296 232.091   2
  -4   9  12 55.5597 82.8771  18
   9   4  12 765.160 424.087   4
  -9   4  12 164.198 138.545  18
   4  -9 -12-147.670 221.963  17
  -9  -4 -12 240.705 216.278   8
   9  -4 -13 1862.99 606.369  17
  -9  -4 -13 4176.78 939.576  16
   9   4  13 1569.34 574.030   7
  -9  -4 -13 2729.80 574.149   6
   4   9  13 2506.73 618.407   3
   9   4  13 1705.72 613.202  15
  -9  -4 -13 2813.23 592.633  14
  -4   9  13 2240.88 596.813  13
  -4  -9 -13 289.312 196.183   6
  -9   4  13 2485.28 497.206  13
   9   4  13 1102.59 366.796   3
  -9   4  13 2630.43 733.907   1
   4   9  13 2519.07 519.251  12
   9   4  13 837.453 346.643  12
   9  -4 -13 2145.20 649.624   5
  -9   4  13 2994.62 767.335  11
   9   4  13 1288.67 447.305  20
  -9   4  13 2193.84 806.207  10
   9   4  13 1097.92 345.678  19
  -9   4  13 2758.16 922.376   9
  -4   9  13 2168.71 521.682  18
  -9  -4 -13 2584.29 543.697   8
  -9   4  13 2672.38 641.091  18
   9  -4 -13 1834.35 543.787   2
   9   4  13 1035.29 381.553   4
   4  -9 -13-118.483 199.161  17
  -9   5   0 1175.49 344.482  18
  -9   5   0 1024.05 324.751   8
  -9  -5  -1 103.126 232.989   8
   9   5   1 740.903 269.348   4
  -9  -5  -1 338.582 194.347  14
   9   5   1 923.051 307.119   5
   9   5   1 718.737 258.961  19
  -9   5   1 471.203 178.923  18
  -9   5   1 399.497 222.716   8
  -9  -5  -2 690.155 279.862   8
  -9  -5  -2 717.166 280.684  14
  -9  -5  -2 1396.71 507.799   6
   9   5   2 1507.72 376.698   5
  -9  -5  -2 810.557 285.386   1
  -9   5   2 648.378 192.532   1
   9   5   2 1592.16 388.053  19
   9   5   2 1767.75 452.866   4
  -9   5   2 1469.48 410.193  18
  -9   5   2 778.459 312.737   8
   9  -5  -2 91.9467 83.6634  17
  -9  -5  -3 805.906 269.584   1
  -9  -5  -3 698.147 289.968   8
  -9  -5  -3 934.697 305.415  14
  -9  -5  -3 1103.55 413.494   6
   9   5   3 1443.39 357.690   5
   9   5   3 1115.56 349.033  12
  -9   5   3 307.897 186.435   1
   9   5   3 1414.39 371.586  19
   9   5   3 1580.13 418.599   4
  -9   5   3 1540.87 427.812  18
  -9   5   3 1501.64 384.581   8
   9  -5  -3 153.750 225.141  17
  -9  -5  -4 257.888 164.001   8
   9   5   4 164.836 126.725   4
  -9  -5  -4 228.163 141.107  14
  -9  -5  -4 188.619 175.776   6
  -9  -5  -4 102.291 91.7769   1
   9   5   4 179.043 141.953  12
   9   5   4 184.627 84.3598   5
  -9   5   4-10.6712 199.041   1
   9   5   4 275.375 164.645  19
  -9   5   4 271.518 222.747  18
  -9   5   4 144.777 179.208   8
   9  -5  -4-185.803 130.184  17
  -9  -5  -5 716.378 247.061   1
  -9  -5  -5 832.658 288.971   8
   9   5   5 1036.75 341.047   4
  -9  -5  -5 809.703 279.509  14
  -9  -5  -5 531.354 248.068   6
   9   5   5 980.787 345.381  12
   9   5   5 1055.62 299.640   5
   9   5   5 960.214 299.915  19
  -9   5   5 710.965 400.574   1
  -9   5   5 1116.86 374.385  18
  -9   5   5 827.471 307.210   8
   9  -5  -5 73.1106 80.6579  17
  -9  -5  -6 117.337 108.804   8
   9   5   6 257.336 170.875   4
   9   5   6 25.5215 154.677   3
  -9  -5  -6-60.5940 89.9685  14
  -9  -5  -6 26.0598 48.5843   6
  -9   5   6-38.0382 157.076  13
   9   5   6 33.8234 47.3607  12
  -9  -5  -6 116.515 95.7006   1
   9   5   6 37.8868 49.9375   5
   9  -5  -6-65.6946 143.550  19
   9   5   6 117.299 89.7219  19
  -9   5   6 84.2544 147.353  18
  -9   5   6 41.4849 204.960   1
   9  -5  -6-85.4389 184.307  17
  -9  -5  -7 736.224 261.276   8
   9   5   7 654.424 253.002   4
   9   5   7 608.370 340.932   3
  -9  -5  -7 676.580 214.128   1
  -9  -5  -7 788.952 268.816  14
  -9  -5  -7 766.833 283.337   6
  -9   5   7 605.001 245.404  13
   9   5   7 463.314 234.235  12
   9   5   7 596.126 235.079   5
   9  -5  -7 64.2881 140.792  19
   9   5   7 684.617 248.962  19
  -9   5   7 607.140 282.755  18
  -9   5   7 545.431 343.898   1
   9  -5  -7 184.453 215.598  17
   9  -5  -8-99.4288 167.716  17
   9   5   8-6.35685 83.3405   4
  -9  -5  -8 47.3987 87.2233   8
   9   5   8-47.3913 135.884   3
  -9  -5  -8 81.3572 94.4515  14
  -9  -5  -8-88.0654 110.210   6
  -9   5   8 9.62684 43.3001  13
   9   5   8-1.42844 49.4759  12
   9   5   8-124.439 116.915   5
   9  -5  -8-270.825 335.034   2
   9  -5  -8 68.8719 61.8224  19
   9   5   8 37.7125 72.1403  19
  -9   5   8 43.8060 77.7539  18
  -9   5   8 26.6891 155.854   1
   9  -5  -9 186.853 163.652  17
   9   5   9 577.017 272.065   4
  -9  -5  -9 380.370 208.291   8
  -9   5   9 584.484 400.270   1
  -9  -5  -9 685.269 241.924  14
   9   5   9 433.577 177.487   3
  -9  -5  -9 515.752 225.792   6
  -9   5   9 565.117 245.042  13
   9   5   9 625.202 255.883  12
  -9   5   9 826.728 385.611  11
   9   5   9 484.457 213.719   5
   9  -5  -9 252.670 158.463   2
   9   5   9 647.509 240.189  19
  -9   5   9 610.357 268.583  18
   9  -5 -10 276.229 224.896  17
  -9  -5 -10 521.674 221.034   8
  -9   5  10 397.740 340.587   1
  -9  -5 -10 520.253 216.649  14
  -9  -5 -10 693.276 267.090   6
   9   5  10 497.143 309.734   3
  -9   5  10 527.160 219.094  13
   9   5  10 301.418 190.277  12
  -9   5  10 583.011 316.983  11
   9  -5 -10 182.298 152.690   2
   9   5  10 444.793 178.363  19
  -5   9  10 119.907 37.1915  18
  -9   5  10 751.456 331.939  18
   9   5  10 356.563 213.589   4
   9  -5 -11 763.089 419.408  17
  -9  -5 -11 640.475 241.740   8
  -9   5  11 1485.78 709.976   1
   5   9  11 537.300 274.338   3
  -9  -5 -11 522.862 209.461  14
  -9  -5 -11 656.408 282.666   6
   9   5  11 539.280 303.335   3
  -9   5  11 1217.15 406.969  13
  -5   9  11 74.7042 234.734  13
  -5  -9 -11 114.255 154.894   6
   9   5  11 623.577 296.119  12
   5   9  11 461.650 182.764  12
  -9   5  11 1483.51 539.148  11
   9   5  11 356.737 139.219  20
  -9   5  11 1613.94 722.000  10
   9  -5 -11 880.236 362.170   2
   9   5  11 692.401 266.196  19
  -5   9  11 510.978 234.887  18
  -9   5  11 1377.29 499.587  18
   9   5  11 706.256 293.576   4
   5  -9 -11-145.898 170.614  17
   9  -5 -12 1033.66 446.853  17
  -9  -5 -12 1408.56 562.178  16
  -9   5  12 1559.78 593.891   1
   5   9  12 1391.89 468.115   3
  -9  -5 -12 1389.68 415.631   6
  -9  -5 -12 1367.98 364.967  14
   9   5  12 952.972 412.223   3
  -5  -9 -12 222.264 144.328   6
  -5   9  12 1101.66 387.391  13
  -9   5  12 1425.17 379.572  13
   5   9  12 1343.31 383.109  12
   9   5  12 800.099 330.675  12
  -9   5  12 2003.52 603.567  11
   9   5  12 1103.29 413.703  20
  -9   5  12 1979.11 674.952  10
   9  -5 -12 781.953 326.176   2
   9   5  12 971.058 310.309  19
  -9  -5 -12 1507.52 414.104   8
  -5   9  12 1211.06 420.874  18
  -9   5  12 1676.25 511.638  18
   9   5  12 943.514 415.983   4
   5  -9 -12 77.1504 69.1395  17
  -9   6   2 813.073 276.594  18
  -9  -6  -3-350.546 439.216   8
   9   6   3-237.088 347.873   4
  -9   6   3-80.1924 194.947  18
  -9   6   3-50.6256 80.1939   8
  -9  -6  -4 501.885 221.249   8
  -9  -6  -4 747.271 290.880  14
  -9  -6  -4 841.476 436.991   6
   9   6   4 2108.61 489.371   5
   9   6   4 1845.03 442.779  19
  -9  -6  -4 780.658 266.770   1
   9   6   4 2327.47 590.712   4
  -9   6   4 1168.85 399.173  18
  -9   6   4 935.270 299.007   8
   9  -6  -4 125.963 150.980  17
  -9  -6  -5 123.028 112.759   8
   9   6   5 202.780 230.348   4
  -9  -6  -5-9.25821 45.5081   1
  -9  -6  -5 4.30961 61.3567  14
  -9  -6  -5 230.854 181.190   6
   9   6   5 275.445 179.148  12
  -9   6   5-170.341 330.444   1
   9   6   5 255.760 135.570   5
   9   6   5 330.737 188.756  19
  -9   6   5 413.989 254.588  18
   9  -6  -5-45.1610 153.808  17
  -9  -6  -6 626.431 254.161   8
   9   6   6 1493.56 429.833   4
  -9  -6  -6 856.875 314.473  14
  -9  -6  -6 677.480 307.785   6
  -9  -6  -6 677.130 243.473   1
   9   6   6 1172.95 397.688  12
  -9   6   6 478.776 180.945   1
   9   6   6 1276.83 349.465   5
   9   6   6 1102.16 344.082  19
  -9   6   6 787.923 307.295  18
   9  -6  -6 50.8960 93.2122  17
  -9  -6  -7 639.876 285.517   8
   9   6   7 640.151 261.475   4
   9   6   7 412.841 235.382   3
  -9  -6  -7 629.728 251.641  14
  -9  -6  -7 448.856 234.329   6
  -9   6   7 259.009 97.9953  13
   9   6   7 473.958 237.600  12
   9   6   7 545.695 238.053   5
  -9   6   7 193.917 159.236   1
   9   6   7 668.127 250.027  19
  -9   6   7 546.074 301.467  18
   9  -6  -7 121.862 141.590  17
  -9  -6  -8 630.607 290.477   8
   9   6   8 879.826 306.651   4
   9   6   8 628.673 369.551   3
  -9  -6  -8 612.223 257.352  14
  -9  -6  -8 611.563 268.227   6
  -9   6   8 678.955 264.455  13
   9   6   8 858.738 314.064  12
   9   6   8 605.094 213.131   5
  -9   6   8 449.661 232.604   1
   9   6   8 786.341 277.284  19
  -9   6   8 637.655 282.811  18
   9  -6  -8 29.5142 181.594  17
   9   6   9-110.657 142.214   4
  -9  -6  -9-4.95164 45.6416   8
   9   6   9-52.1701 152.085   3
  -9  -6  -9 103.315 120.289  14
  -9  -6  -9 72.8706 91.0991   6
  -9   6   9-28.6626 60.6879  13
   9   6   9-24.0126 100.519  12
   9   6   9 93.2649 113.626  19
  -9   6   9-31.5603 43.1724   1
  -6   9   9-38.8303 110.675  18
  -9   6   9-144.674 178.246  18
   9  -6  -9-98.1626 215.970  17
   9  -6 -10 191.507 233.710  17
   9   6  10 820.625 300.572   4
  -9  -6 -10 951.687 319.309   8
   9   6  10 841.489 374.143   3
  -9  -6 -10 1054.85 322.496  14
  -9  -6 -10 550.168 248.463   6
  -9   6  10 1180.80 374.625  13
   9   6  10 786.299 294.780  12
   9   6  10 1066.54 338.307  19
  -6   9  10 644.809 287.705  18
  -9   6  10 782.410 457.694   1
  -9   6  10 1219.47 450.125  18
   6  -9 -10-81.3221 253.687  17
   9  -6 -11-68.0516 17.6362  17
  -9  -6 -11 135.323 128.927   8
   6   9  11-2.60003 133.590   3
  -9  -6 -11 179.886 157.615  14
   9   6  11 100.461 154.096   3
  -9  -6 -11 136.224 151.778   6
  -6   9  11-317.029 308.720  13
  -6  -9 -11 91.6551 154.339   6
  -9   6  11 273.825 179.982  13
   9   6  11 96.2434 114.672  12
   6   9  11 7.09913 137.814  12
  -9   6  11 308.360 320.881  11
   9  -6 -11-462.260 260.532   2
   9   6  11 163.353 143.633  19
  -6   9  11 111.432 81.8808  18
  -9   6  11 275.911 222.320  18
  -9   6  11 61.7089 101.204   1
   6  -9 -11 143.921 31.7849  17
   9   6  11-23.5529 129.287   4
  -9   7   4 403.071 233.840  18
  -9   7   5 767.714 336.788  18
   9  -7  -5 128.884 54.5262  17
  -9  -7  -6 26.9573 249.111   8
   9   7   6 2792.41 743.972   4
  -9  -7  -6 1007.07 396.426  14
  -9  -7  -6 572.427 370.151   6
   9   7   6 2606.57 603.835   5
   9   7   6 1400.50 458.049  12
  -9   7   6 956.683 358.742  18
   9  -7  -6 3.76621 110.925  17
  -9  -7  -7 94.4557 261.326   8
   9   7   7 919.767 378.144   4
  -9  -7  -7 457.870 273.642  14
  -9  -7  -7 358.608 282.457   6
   9   7   7 560.395 269.914  12
   9   7   7 962.766 362.156   5
  -9   7   7 427.901 253.974  18
   9  -7  -7-68.5847 205.570  17
  -9  -7  -8 783.836 329.139   8
   9   7   8 1860.02 527.560   4
   9   7   8 422.357 243.847   3
  -9  -7  -8 1180.52 403.436  14
  -9  -7  -8 591.145 298.134   6
   9   7   8 1213.44 409.200  12
   9   7   8 1300.78 408.393  19
  -9   7   8 987.572 376.745  18
   9  -7  -8 141.487 217.946  17
  -9  -7  -9 229.990 166.675   8
   9   7   9 552.688 275.679   4
   9   7   9 394.378 219.804   3
  -9  -7  -9 262.594 211.450  14
  -9  -7  -9 208.476 160.047   6
  -9   7   9 341.932 51.5137  13
   9   7   9 501.916 250.837  12
  -9   7   9-151.467 398.133   1
   9   7   9 551.496 261.147  19
  -7   9   9 501.294 275.528  18
  -9   7   9 147.221 84.3176  18
   9  -7  -9-54.4015 199.962  17
   9   7  10 26.0523 102.380   4
  -9  -7 -10 182.602 172.326   8
  -9  -7 -10 130.649 109.303  14
   9   7  10 212.689 165.030  19
   7  -9 -10-38.0023 125.193  17
   9  -7 -10 15.2459 69.0360  17
  -9   8   6 77.3649 162.732  18
  -9   8   7 1863.71 524.514  18
   9  -8  -7-124.814 178.330  17
  10   0   0 150.391 149.417  17
  10   0   0 98.8863 160.268   7
  10   0   0-34.2936 57.4979  15
 -10   0   0 132.427 129.144   6
 -10   0   0 60.7318 93.5671  14
 -10   0   0 56.6407 96.5575   1
  10   0   0 71.8760 46.3323  12
  10   0   0 159.350 173.825   5
 -10   0   0 85.3637 83.7882  11
  10   0   0 155.115 141.114  19
 -10   0   0 113.889 105.562  18
  10   0   0 166.821 149.210   4
 -10   0   0 22.7376 69.0801   8
 -10   0   1-48.4068 97.1858   8
  10   0   1 11.6433 115.750  17
  10   0  -1-66.9784 144.609  17
  10   0   1-20.0194 49.9615   7
  10   0  -1 101.528 137.178   7
  10   0   1 3.39203 135.716  15
  10   0  -1 43.5804 120.253  15
 -10   0  -1 61.7237 115.532   6
 -10   0   1 34.0232 75.5251   6
 -10   0  -1-40.7272 81.9942  14
 -10   0   1 56.5990 132.921  14
 -10   0  -1 44.2397 100.907   1
  10   0   1-31.1956 90.6573  12
  10   0  -1-34.4678 53.5530  12
  10   0   1-52.2113 19.7734   5
  10   0  -1 211.198 193.973   5
 -10   0   1-53.2403 15.7109   1
 -10   0   1-267.714 249.498  11
  10   0   1 11.2782 54.8564  19
  10   0  -1 8.03259 10.3108  19
  10   0  -1-10.8738 59.2336   2
 -10   0  -1 20.8003 71.9453  18
 -10   0   1-67.5724 111.346  18
  10   0   1-21.9328 40.2711   4
  10   0  -1 102.961 142.387   4
 -10   0  -1-16.5628 20.2440   8
 -10   0   2 47.4511 59.4389   8
  10   0   2 6.54080 18.1220  17
  10   0  -2-53.1526 64.2440  17
  10   0   2-91.8565 128.000   7
  10   0   2-42.2460 140.699  15
 -10   0  -2 3.00171 17.6552   6
 -10   0  -2 230.202 116.055  14
 -10   0  -2 93.0978 89.7484   1
 -10   0   2 97.2622 108.109  14
  10   0   2 47.1439 91.5513  12
  10   0   2 50.1035 111.445   5
  10   0  -2 76.0802 81.4482  12
  10   0  -2-22.6181 42.6754   5
 -10   0   2-74.7662 178.210  11
 -10   0   2 124.783 149.139   1
  10   0   2 105.923 124.942  19
  10   0  -2-19.0040 81.9794  19
  10   0  -2 57.5632 64.5656   2
 -10   0  -2 46.0937 97.5496  18
  10   0   2 186.087 177.742   4
 -10   0   2-13.8692 94.2391  18
 -10   0  -2 80.4041 97.6992   8
  10   0  -2-8.20679 72.9264   4
  10   0  -3-34.2528 20.8247   4
 -10   0   3 24.8520 80.4062   8
  10   0  -3-277.570 186.125  17
  10   0   3-71.3648 134.202   7
  10   0   3-244.453 329.548  15
 -10   0  -3 69.9493 136.333   1
 -10   0  -3-36.0677 58.7004   6
 -10   0  -3-90.4411 112.484  14
 -10   0   3 10.0210 67.5857  14
  10   0   3 167.687 156.021  12
  10   0   3 163.279 160.606   5
  10   0  -3 91.4888 110.786   5
 -10   0   3-208.358 244.298  11
  10   0   3-57.9210 122.419  19
  10   0  -3-27.4491 29.8466  19
 -10   0   3-60.0895 90.8964   1
  10   0   3-43.5238 131.877   4
 -10   0  -3-79.6852 88.3113  18
 -10   0   3-11.2363 104.576  18
  10   0  -3 8.55312 52.0618   2
 -10   0  -3 16.9352 47.8173   8
  10   0  -4 996.130 315.209   4
  10   0  -4 830.066 322.815  17
 -10   0  -4 1074.50 384.927   1
 -10   0  -4 1073.45 343.549   6
 -10   0  -4 1075.72 378.239  14
 -10   0   4 925.851 318.590  14
  10   0   4 356.116 227.494  12
  10   0   4 333.233 137.497   5
  10   0  -4 764.947 279.188   5
 -10   0   4 464.644 74.2106  11
  10   0   4 429.058 210.668  19
  10   0  -4 841.494 280.946  19
 -10   0   4 1086.99 318.397   8
  10   0   4 407.715 171.757   4
 -10   0   4 910.209 338.865  18
 -10   0   4 792.419 294.446   1
 -10   0  -4 1118.23 387.547   8
  10   0  -4 800.224 232.977   2
  10   0  -5 39.5760 87.4255   2
  10   0  -5 73.8430 53.9267   4
 -10   0  -5-52.7791 111.666   1
 -10   0   5 13.1971 22.3723   8
  10   0  -5-6.74189 57.2807  17
 -10   0   5 9.75580 67.6916   1
 -10   0  -5-19.9502 57.1077   6
 -10   0  -5-83.5628 115.648  14
 -10   0   5 136.428 140.979  14
  10   0   5-187.599 304.125   5
  10   0  -5-39.0223 70.4578   5
  10   0   5 51.2807 57.0977  19
  10   0  -5-18.9312 40.6514  19
  10   0   5-116.347 166.202   4
 -10   0   5 7.41460 12.1523  18
 -10   0  -5-17.3314 74.2734   8
  10   0  -6 1173.01 325.392   4
  10   0  -6 997.035 394.870  17
 -10   0  -6 1595.75 445.450   6
 -10   0   6 1074.94 378.840   1
 -10   0  -6 1321.71 423.720  14
 -10   0   6 1247.06 377.848  14
  10   0  -6 1379.84 419.934   5
  10   0  -6 1236.51 321.598   2
  10   0  -6 1244.90 332.061  19
  10   0   6 195.814 150.438  19
  10   0   6 82.2001 196.309   4
 -10   0   6 1468.38 426.609   8
 -10   0  -6 1675.14 529.682   1
 -10   0   6 1191.24 389.387  18
 -10   0  -6 1617.35 478.826   8
  10   0  -7 91.1560 89.4532   4
  10   0  -7-108.531 67.6816  17
 -10   0   7-199.021 258.595   8
  10   0  -7 78.4111 120.525   2
 -10   0  -7 5.17226 6.59137   6
 -10   0   7-93.7237 124.691   1
 -10   0  -7-87.6972 156.548  14
 -10   0   7 109.513 143.102  14
  10   0  -7 58.9057 73.0386   5
  10   0   7-63.0308 202.625  19
 -10   0  -7 44.4784 84.9093   1
  10   0  -7-47.7835 20.4923  19
 -10   0   7 39.5123 48.1906  18
 -10   0  -7 143.307 132.691   8
  10   0  -8 1354.83 517.461  17
  10   0  -8 1269.13 375.260   4
 -10   0   8 337.736 570.271   8
 -10   0  -8 1134.51 413.720   6
 -10   0  -8 1117.29 430.882  14
 -10   0   8 820.592 305.946  14
 -10   0   8 694.642 310.844   1
  10   0  -8 1263.09 451.492   5
  10   0  -8 1315.55 385.202   2
 -10   0  -8 383.024 193.889   1
  10   0  -8 1121.33 325.086  19
 -10   0   8 752.776 359.210  18
 -10   0  -8 1084.20 412.495   8
  10   0  -9-26.9108 152.432  17
  10   0  -9-11.0267 50.6069   4
  10   0  -9 61.9039 156.692   2
 -10   0  -9 207.817 208.116   6
 -10   0  -9-67.5814 160.486  14
 -10   0   9-27.8689 87.1878  14
 -10   0   9 112.184 171.257   1
  10   0  -9-42.7119 99.1069   5
  10   0   9 2.66777 163.204  19
  10   0  -9-58.4004 114.645  19
 -10   0  -9-69.0588 139.646   8
 -10   0   9-139.696 267.857  18
  10   0 -10 39.4952 15.0305  17
  10   0 -10 304.150 193.142   4
  10   0 -10 303.355 212.205   2
 -10   0 -10 280.214 147.546   6
 -10   0 -10 572.309 310.950  14
 -10   0  10 175.959 51.5150  14
 -10   0  10 190.210 198.172   1
  10   0 -10 242.944 156.037   5
  10   0  10-329.233 379.343  19
  10   0 -10-37.1781 186.686  19
 -10   0 -10 61.6974 21.0869   8
 -10   0  10-187.940 302.375  18
  10   0 -11 16.9417 63.0750  17
  10   0 -11 126.201 83.7646   4
  10   0 -11 175.706 148.556   2
 -10   0 -11-391.324 367.234   6
 -10   0 -11-182.149 350.956  14
 -10   0  11 64.1272 105.526  14
 -10   0  11 100.277 97.3547   1
  10   0 -11 90.2708 135.846   5
  10   0  11-288.724 236.999  19
 -10   0 -11-11.6233 92.9857   8
 -10   0  11-171.592 340.825  18
  10   0 -12 153.113 178.809  17
  10   0 -12 141.899 164.889   4
  10   0 -12 143.419 155.859   2
 -10   0  12 82.5399 101.779  14
 -10   0  12 122.866 181.359   1
  10   0 -12 19.3909 96.0519   5
 -10   0 -12 51.1835 156.954   8
  10   0 -13 101.157 183.508  17
  10   0 -13-13.4921 132.267   4
  10   0 -13 54.9213 164.876   2
 -10   0 -13-564.861 449.932   6
   0 -10 -13 394.070 343.798   6
  10   0 -13 174.618 238.521   5
 -10   0  13 92.9795 197.867   1
   0  10  13-24.4090 133.741  18
 -10   0 -13 12.7851 128.408   8
  10   1   0-77.6237 101.183   4
 -10  -1   0-38.2019 102.942   8
  10  -1   0-2.42105 31.4894  17
  10   1   0-33.4223 93.1153  17
 -10   1   0 10.6444 51.8594   6
 -10   1   0 90.3300 184.811   1
 -10   1   0 0.81966 75.7733  14
 -10  -1   0-12.6070 77.0264  14
 -10  -1   0 40.8123 65.8022   6
  10  -1   0 15.9404 3.03448  12
  10  -1   0 49.9254 92.7337   5
  10   1   0-15.1702 63.7457  12
 -10   1   0 146.489 143.062  11
  10   1   0 46.8434 84.0913   5
  10  -1   0 114.279 193.727  19
  10   1   0-173.384 143.960  19
 -10  -1   0 15.7499 105.456   1
  10  -1   0 44.5643 104.494   4
 -10   1   0-0.67162 95.5550  18
 -10  -1   0-112.476 157.929  18
 -10   1   0-16.3117 68.5996   8
 -10  -1  -1 185.054 137.176   8
  10  -1   1-31.9133 73.7977  17
  10   1  -1 94.6169 107.883   4
  10  -1  -1 144.612 115.718  17
 -10  -1   1 152.230 126.091   8
  10   1   1 41.2846 82.8495  17
  10   1  -1 171.053 132.458  17
 -10   1  -1 56.8313 32.9630   1
 -10   1  -1 175.143 142.391   6
 -10   1  -1 187.582 173.837  14
 -10   1   1-63.6121 162.783  14
 -10  -1  -1 162.551 141.327  14
 -10  -1  -1 91.7053 99.2063   6
 -10  -1   1 88.7853 93.0047  14
 -10  -1   1 122.286 68.8920   6
 -10   1   1 188.430 207.854   1
  10  -1   1 159.686 188.022  12
  10  -1  -1 34.4804 53.9194  12
  10  -1   1 170.798 155.330   5
  10   1   1 156.264 149.600  12
  10  -1  -1 34.1486 27.1882   5
  10   1  -1 151.689 133.679  12
 -10   1  -1 315.444 175.925  11
  10   1   1 18.4710 87.7778   5
 -10   1   1 215.673 167.972  11
  10   1  -1 156.869 164.076   5
  10  -1  -1-11.2383 156.024   2
 -10  -1  -1 66.7559 45.6280   1
  10  -1   1 86.6323 97.7006  19
  10  -1  -1-1.79045 45.3727  19
  10   1   1 125.118 105.735  19
  10   1  -1 165.436 129.564  19
  10  -1   1 88.9419 93.6973   4
 -10   1  -1 217.346 147.258  18
 -10   1   1 248.120 165.311  18
  10  -1  -1 154.877 164.336   4
 -10  -1  -1 278.928 192.665  18
 -10  -1   1 39.7594 128.233  18
  10   1  -1 102.383 56.6700   2
 -10   1  -1 205.377 149.416   8
 -10  -1   1 21.9128 107.878   1
 -10   1   1 194.608 144.725   8
  10   1   1 151.726 70.1907   4
  10  -1   2 6.17741 29.9060  17
  10   1  -2 71.1977 43.9172   2
  10  -1  -2 180.351 179.137  17
  10   1  -2 104.690 120.271   4
 -10  -1   2 40.3339 52.9647   8
  10   1   2 104.343 143.159  17
  10   1  -2 11.9189 44.0129  17
 -10  -1   2 18.7022 83.9899   1
 -10   1  -2 178.440 214.277   1
 -10   1  -2 101.115 160.701   6
  10   1   2 110.053 147.962  15
 -10   1  -2 118.906 135.154  14
 -10   1   2 107.205 135.773  14
 -10  -1  -2 11.7029 21.6245   6
 -10  -1  -2-10.6873 41.2559  14
 -10  -1   2-51.4586 87.5236  14
 -10  -1   2-15.0722 51.4059   6
 -10   1   2 63.7015 131.945   1
  10  -1   2-52.6867 171.775   5
  10   1   2 30.5351 39.8712  12
 -10  -1  -2-30.2971 65.0003   1
  10  -1  -2-57.1210 32.3023   5
  10   1   2-77.3786 92.1167   5
 -10   1   2 44.0754 119.507  11
  10   1  -2-16.0358 26.5181   5
  10  -1  -2-65.0610 89.4716   2
  10  -1   2 60.9669 57.7246  19
  10  -1  -2 59.7701 84.7734  19
  10   1   2-31.0128 109.318  19
  10   1  -2 23.6773 69.4688  19
  10  -1   2-113.064 142.118   4
 -10   1  -2 86.2603 86.3868  18
 -10   1   2-62.7046 49.8060  18
 -10  -1  -2-1.29534 76.8602  18
  10  -1  -2 72.4532 142.423   4
 -10  -1   2 53.6995 123.228  18
 -10   1  -2-24.8906 86.3290   8
  10   1   2-134.302 155.617   4
 -10   1   2 8.91375 36.9305   8
 -10  -1  -2-77.8127 151.300   8
 -10   1   3 86.9540 71.1345   8
  10  -1   3 4.33060 147.670  17
  10  -1  -3 198.997 130.582  17
 -10   1  -3 177.705 152.360   1
 -10  -1   3 78.8270 90.9401   8
  10   1  -3 84.1385 44.0628   4
  10   1  -3-7.04275 113.214  17
  10   1  -3 123.446 92.0651   2
  10   1   3 242.502 204.835   7
 -10   1  -3 119.968 65.6473   6
  10   1   3 151.093 135.732  15
 -10  -1   3 83.3524 48.6072   1
 -10   1  -3 180.698 177.605  14
 -10  -1  -3 190.082 144.524   6
 -10   1   3 246.304 198.982  14
 -10  -1  -3 99.8799 64.7447  14
 -10  -1   3 199.817 156.626  14
 -10  -1  -3 205.323 183.827   1
  10  -1   3-121.031 216.344   5
  10   1   3-57.0523 75.2225  12
 -10   1   3 137.461 162.685   1
  10   1   3 248.600 219.666   5
  10  -1  -3 196.608 162.418   5
 -10   1   3 304.505 209.371  11
  10   1  -3 252.567 167.262   5
  10  -1   3 141.315 145.622  19
  10   1   3 118.399 146.334  19
  10  -1  -3 117.934 129.613  19
  10   1  -3 250.051 155.680  19
  10  -1  -3 230.934 145.241   2
  10  -1   3-67.8877 201.043   4
 -10   1  -3 165.563 117.302  18
 -10   1   3 224.017 136.976  18
 -10  -1   3 128.790 172.789  18
  10  -1  -3 352.277 207.647   4
  10   1   3 46.2295 70.8594   4
 -10   1  -3 345.051 224.878   8
 -10  -1  -3 207.340 166.679   8
 -10   1   4 57.6465 103.464   8
  10  -1  -4-23.6579 139.415  17
 -10  -1   4 21.1958 76.3199   8
  10   1  -4 52.0777 62.2376   4
  10   1  -4-270.063 209.277  17
  10   1  -4-13.7655 63.2419   2
  10   1   4-21.5083 117.287   7
 -10   1  -4-171.943 196.727   6
  10   1   4 58.1371 120.471  15
 -10   1  -4-25.0579 72.5803  14
 -10  -1  -4-27.3945 46.4407   6
 -10   1   4-105.571 114.676  14
 -10  -1  -4-9.05662 71.6026  14
 -10  -1  -4 93.1121 146.545   1
 -10  -1   4-69.7601 54.8804  14
 -10  -1   4 102.161 127.822   1
  10   1   4-32.6162 7.52521  12
  10   1   4-15.7885 49.8256   5
  10  -1  -4-61.7299 137.104   5
 -10   1   4 33.5107 29.7734   1
 -10   1   4 2.48026 27.2767  11
  10   1  -4 35.5453 80.8097   5
  10  -1   4-38.0398 122.373  19
  10   1   4 54.9742 80.4660  19
  10  -1  -4 35.8463 65.3102  19
  10   1  -4 65.3572 85.3217  19
  10  -1  -4 43.6604 77.8695   2
 -10   1  -4 43.3862 63.1744  18
 -10   1   4-63.1828 79.3504  18
  10   1   4 120.991 179.756   4
 -10   1  -4 230.664 225.779   1
 -10   1  -4 57.2179 122.284   8
 -10  -1   4-169.196 283.687  18
  10  -1  -4 38.4765 37.2654   4
 -10  -1  -4 5.32694 54.0824   8
 -10   1   5 941.898 299.509   8
  10  -1  -5 429.734 241.817  17
  10   1  -5 425.572 281.831  17
 -10  -1   5 708.620 308.518   8
  10   1  -5 803.458 274.131   4
  10   1   5 493.062 262.210   7
  10   1  -5 919.180 274.479   2
 -10   1  -5 869.332 344.054   6
  10   1   5 509.492 259.867  15
 -10  -1  -5 886.851 340.503   1
 -10   1  -5 875.388 373.287  14
 -10  -1  -5 816.120 271.753   6
 -10  -1  -5 940.205 342.842  14
 -10   1   5 1070.18 380.308  14
 -10  -1   5 656.722 267.225  14
 -10  -1   5 565.713 251.805   1
  10   1   5 371.801 231.346  12
  10   1   5 432.472 220.213   5
  10  -1  -5 668.456 278.406   5
 -10   1   5 1116.64 381.639  11
  10   1  -5 599.491 252.203   5
 -10   1   5 639.952 300.588   1
  10  -1   5 140.218 187.272  19
  10   1   5 187.761 121.579  19
  10  -1  -5 756.358 263.710  19
  10   1  -5 798.041 279.568  19
 -10   1  -5 883.826 410.940   1
  10  -1  -5 631.317 211.277   2
  10   1   5 401.351 274.492   4
 -10   1   5 807.454 312.293  18
 -10   1  -5 880.827 359.193   8
 -10  -1   5 108.979 207.130  18
  10  -1  -5 691.580 273.734   4
 -10  -1  -5 896.893 322.726   8
 -10   1   6-10.1612 32.7805   8
  10  -1  -6 19.2597 70.6485  17
  10   1  -6 29.6589 94.6420  17
 -10  -1   6-198.520 349.787   8
  10   1  -6 30.4061 44.2398   4
  10   1   6-66.2822 185.613   7
 -10  -1  -6-5.14922 70.6901   1
  10   1  -6 44.2260 92.5586   2
 -10   1  -6-324.395 322.005   6
  10   1   6 58.9354 97.1852  15
 -10   1  -6 19.1353 103.067  14
 -10  -1  -6 34.6979 52.7268   6
 -10  -1  -6-19.9223 101.619  14
 -10   1   6-6.53519 93.7486  14
 -10  -1   6-29.4432 105.181  14
  10   1   6-7.30165 28.2367  12
  10   1   6 41.4692 57.5235   5
 -10  -1   6-35.2035 85.6331   1
  10  -1  -6 116.096 124.177   5
 -10   1   6 173.640 144.826  11
  10   1  -6-27.4658 106.303   5
 -10   1  -6-108.697 215.303   1
  10  -1   6 128.149 173.280  19
  10   1   6-120.454 93.5058  19
  10  -1  -6-0.62951 46.7504  19
 -10   1   6 34.2476 54.7385   1
  10   1  -6 28.7916 47.6725  19
  10   1   6 108.425 133.953   4
 -10   1   6-49.6063 79.2403  18
 -10   1  -6-8.14597 118.709   8
  10  -1  -6 10.5295 86.9354   2
 -10  -1   6-320.296 371.221  18
 -10  -1  -6 23.8098 76.9722   8
  10  -1  -6 12.6178 53.8125   4
 -10  -1  -7 1236.17 447.443   1
  10  -1  -7 804.271 332.730  17
 -10   1   7 1214.10 362.650   8
  10   1  -7 970.493 402.703  17
  10   1  -7 1256.65 360.948   4
  10   1   7 231.142 176.316   7
  10   1  -7 1226.60 368.332   2
 -10   1  -7 680.642 256.099   6
  10   1   7 280.698 179.645  15
 -10  -1  -7 1199.35 354.125   6
 -10   1  -7 1053.54 433.770  14
 -10  -1  -7 1431.43 406.093  14
 -10   1   7 1100.11 376.575  14
 -10  -1   7 801.902 304.687  14
  10   1   7 364.386 258.376  12
  10   1   7 378.313 196.512   3
  10   1   7 109.547 214.834   5
  10  -1  -7 701.978 286.429   5
 -10   1  -7 310.631 147.170   1
 -10   1   7 962.547 387.797  11
  10   1  -7 1414.46 423.583   5
  10   1  -7 1038.61 319.527  19
 -10  -1   7 647.767 341.636   1
  10   1   7 662.761 304.196  19
  10  -1  -7 986.960 301.958  19
  10   1   7 402.310 234.932   4
 -10   1   7 1019.98 360.151   1
 -10   1   7 1156.67 397.946  18
 -10   1  -7 1423.23 497.640   8
 -10  -1  -7 1081.96 358.453   8
  10  -1  -7 946.731 284.559   2
  10  -1  -7 992.781 333.001   4
  10  -1  -8 26.8277 75.8718   2
  10  -1  -8-11.7726 125.952   4
  10  -1  -8-129.992 206.039  17
 -10   1   8 55.1646 147.572   8
  10   1  -8-165.214 195.996  17
  10   1  -8-2.62816 93.5932   4
  10   1  -8-14.9635 140.303   2
 -10  -1  -8 87.3381 90.1191   6
 -10   1  -8 19.3452 46.8444  14
 -10  -1  -8-113.633 98.2356  14
 -10   1   8 42.7270 62.1441  14
 -10  -1   8-88.8355 98.8678  14
  10  -1  -8 6.89577 17.8514   5
 -10   1   8-83.8291 240.768  11
  10   1  -8 5.67649 98.3888   5
  10   1   8 29.6216 93.3539  19
  10  -1  -8 22.7252 57.5936  19
  10   1  -8-130.911 184.839  19
  10   1   8-191.579 235.418   4
 -10  -1  -8-6.75590 22.2232   1
 -10  -1   8-10.9183 47.6849   1
 -10   1  -8 154.810 309.459   8
 -10   1   8-29.5169 84.9025  18
 -10  -1  -8-16.8308 45.7833   8
 -10   1   8 129.698 183.250   1
 -10  -1   9 172.212 132.843   1
  10  -1  -9 360.134 188.158   4
  10  -1  -9 396.742 189.992   2
 -10   1   9 178.955 170.566   1
  10  -1  -9 262.219 248.483  17
  10   1  -9 70.5259 104.144  17
  10   1  -9 324.838 235.619   4
  10   1  -9 333.594 204.605   2
 -10  -1  -9 459.404 258.907   6
 -10   1  -9-57.6496 259.664  14
 -10  -1  -9 509.175 289.472  14
 -10   1   9 330.384 235.688  14
 -10  -1   9 239.029 176.740  14
  10  -1  -9 339.700 201.035   5
 -10   1   9 314.578 211.734  11
  10   1  -9 388.584 220.939   5
 -10  -1  -9 134.187 109.640   1
  10   1   9 97.6839 82.4172  19
  10  -1  -9 435.112 240.344  19
 -10   1  -9 508.638 337.756   8
 -10   1   9 481.920 271.255  18
 -10  -1  -9 284.549 185.136   8
  10  -1 -10-48.2025 15.3154   4
  10  -1 -10 92.2412 146.643   2
  10  -1 -10 22.0197 114.907  17
 -10   1  10-10.3311 36.9938   1
  10   1 -10 78.5556 181.946   4
 -10  -1  10 152.224 157.640   1
 -10  -1 -10-3.32099 71.0870   6
  10   1 -10-2.52687 31.9947   2
 -10  -1 -10-7.67953 182.073  14
 -10   1  10 183.855 172.469  14
 -10  -1  10 32.3054 40.0323  14
  10  -1 -10-8.22632 97.1109   5
 -10   1  10-164.051 325.049  11
  10   1 -10-184.404 161.672   5
  10   1  10 11.5888 61.2607  19
  10  -1 -10-88.7666 134.734  19
 -10   1 -10 91.4138 151.362   8
 -10   1  10-54.3110 101.879  18
 -10  -1 -10 41.2387 88.9539   8
  10  -1 -11 27.8949 116.755   4
  10  -1 -11 114.992 138.103  17
  10  -1 -11-54.4193 121.864   2
  10   1 -11-344.716 410.152  17
  10   1 -11 16.0596 117.497   4
 -10   1  11-285.091 207.516   1
 -10  -1 -11 108.579 177.900   6
  10   1 -11-49.2385 134.734   2
 -10  -1  11 82.7354 102.374   1
 -10  -1 -11 35.6156 221.728  14
 -10   1  11-161.404 194.160  14
 -10  -1  11-86.3605 27.5340  14
  10  -1 -11 1.87847 132.746   5
  10   1 -11-25.2257 94.7123   5
  10   1  11 47.3191 123.643  19
  10  -1 -11-31.8323 134.976  19
 -10   1 -11-40.0594 91.6029   8
 -10   1  11 18.4595 20.9920  18
 -10  -1 -11-76.4242 137.895   8
  10  -1 -12 102.094 154.052   4
  10  -1 -12-49.6136 139.007  17
  10  -1 -12 83.4606 125.056   2
  10   1 -12-143.221 218.126   4
 -10  -1 -12 255.021 253.260   6
 -10   1  12-150.949 232.858   1
  10   1 -12 138.895 224.689   2
 -10  -1 -12 634.262 363.719  14
 -10  -1  12-20.7093 66.5914   1
 -10  -1  12-303.964 237.693  14
  10  -1 -12 28.7145 53.0783   5
  10   1 -12-5.99442 200.034   5
  10   1  12 200.888 250.039  19
 -10   1 -12 64.4682 75.6941   8
 -10   1  12-29.5126 124.971  18
 -10  -1 -12 306.172 294.475   8
  10  -1 -13 201.373 217.791  17
  10  -1 -13 227.493 200.546   2
 -10  -1 -13 104.767 131.861   6
   1  10  13-45.3469 141.252   3
 -10  -1 -13 46.2904 186.695  14
 -10   1  13-23.5127 103.254   1
 -10  -1  13 132.719 149.068  14
  -1  10  13-327.440 467.356  13
  -1 -10 -13 139.611 228.970   6
 -10  -1  13 394.657 349.141   1
   1 -10 -13-169.809 154.770   6
  10  -1 -13 220.666 235.794   5
  10   1  13-240.481 189.548  19
  -1  10  13 144.913 156.018  18
 -10   1 -13 67.3914 161.921   8
 -10   1  13-229.246 229.986  18
 -10  -1 -13 303.207 158.292   8
  10  -2   0 555.096 244.896  17
  10   2   0-69.7594 309.623  17
 -10  -2   0 1507.72 318.806   6
 -10  -2   0 1370.01 364.933  14
 -10   2   0 1759.38 566.144  14
 -10   2   0 1748.38 516.743   1
  10   2   0 1419.74 379.321   5
  10  -2   0 187.985 145.609   5
 -10  -2   0 1228.58 342.450   1
  10   2   0 820.355 355.717  12
  10   2   0 1284.51 335.528  19
  10  -2   0 282.505 187.930  19
  10   2   0 1455.62 376.360   4
 -10   2   0 2042.92 481.535   8
 -10   2   0 1965.85 420.516  18
  10  -2   0 72.2389 158.389   4
 -10  -2   0 1430.40 370.307   8
  10  -2  -1-5.72513 117.868  17
 -10   2  -1 89.8577 171.877   1
 -10  -2  -1-33.3371 91.4013   8
  10   2   1 86.5993 70.5506   4
 -10  -2   1 26.7572 72.3667   8
  10   2  -1 61.2903 89.4725   4
 -10  -2  -1 28.5930 29.8675   1
  10   2   1-312.424 375.144  17
  10   2  -1-309.097 391.304  17
 -10   2   1-41.3250 157.171   1
 -10   2  -1-216.371 215.164  14
 -10   2   1 119.054 202.433  14
 -10  -2  -1 80.2153 104.219  14
 -10  -2   1-35.2633 39.2200  14
 -10  -2  -1-58.8026 72.1947   6
 -10  -2   1 27.1289 96.9394   1
 -10  -2   1 15.1621 52.4396   6
  10  -2  -1-57.0140 85.5960   5
  10   2   1 81.7165 39.7484  12
 -10   2   1 203.191 190.359  11
  10   2   1-55.3979 60.6251   5
  10   2  -1 77.9020 16.9597   5
  10  -2   1 96.4103 174.289  19
  10  -2  -1 237.166 179.619  19
  10   2   1 45.9971 76.2278  19
  10   2  -1-6.49593 24.3886  19
  10  -2  -1-152.497 245.150   4
 -10   2  -1 64.8578 126.250  18
 -10   2   1 99.4522 104.302  18
 -10   2  -1 150.213 183.137   8
 -10   2   1 8.93277 47.9142   8
  10  -2   1-11.6635 118.491  17
  10   2   2 297.109 186.110   4
  10  -2  -2 4.68967 131.936  17
 -10  -2  -2 347.189 182.756   8
 -10  -2   2 196.134 167.486   8
  10   2  -2 329.123 180.310   4
  10   2  -2 215.846 101.429   2
 -10   2   2 333.466 230.994   1
 -10   2  -2 101.353 90.0322  14
 -10   2   2 244.884 205.299  14
 -10  -2  -2 344.368 170.562  14
 -10  -2   2 267.678 178.036  14
 -10  -2  -2 278.743 130.378   6
 -10  -2   2 275.714 142.651   6
 -10  -2   2 192.062 145.003   1
  10  -2  -2 199.469 211.883   5
  10   2   2 80.9582 72.0252  12
 -10   2   2 592.072 243.614  11
  10   2   2 265.228 166.204   5
  10   2  -2 267.927 132.229   5
  10  -2   2 8.41969 35.2951  19
  10  -2  -2 116.418 131.879  19
  10   2   2 197.561 102.688  19
  10   2  -2 279.341 134.721  19
  10  -2  -2 144.494 120.651   4
 -10   2  -2 338.050 182.082  18
 -10   2   2 488.263 227.533  18
 -10  -2  -2 326.087 160.523   1
 -10   2  -2 353.889 232.435   1
 -10   2  -2 574.947 323.271   8
 -10   2   2 312.128 164.462   8
  10  -2   2 10.0291 89.3666  17
 -10  -2  -3 13.9879 8.44611   8
  10  -2  -3 101.393 116.728  17
 -10  -2   3 42.2600 14.4436   8
  10   2  -3 72.5015 113.144   4
  10   2  -3-1.99146 68.6793   2
 -10   2  -3 19.5921 153.372  14
 -10   2   3 127.201 159.071  14
 -10   2   3 122.502 140.366   1
 -10  -2  -3 40.4789 58.9825  14
 -10  -2  -3 67.8158 43.7284   6
 -10  -2   3 69.9730 92.4782  14
 -10  -2   3 55.1207 84.1362   6
  10   2   3 11.8148 67.4278  12
  10  -2  -3-138.985 184.158   5
 -10   2   3-7.59281 30.2969  11
  10   2   3 28.4032 53.0763   5
  10  -2  -3-85.1478 110.221   2
  10   2  -3 29.0641 47.2936   5
 -10  -2   3 1.29418 32.9089   1
  10  -2   3-36.9269 168.132  19
 -10  -2  -3 7.80755 27.8701   1
  10  -2  -3-9.27742 57.7767  19
  10   2   3-63.0091 132.978  19
  10   2  -3 22.8847 62.3598  19
 -10   2  -3-20.6485 125.832   1
 -10   2  -3 68.7167 121.867  18
  10  -2  -3-66.4927 107.705   4
 -10   2   3 109.644 97.8943  18
 -10   2  -3-44.2646 96.8687   8
 -10   2   3-13.0957 86.7613   8
  10  -2   3-20.3764 71.7305  17
  10   2   3 1.97134 56.4688   4
 -10  -2  -4 76.6521 96.8529   8
  10  -2  -4 106.448 64.1409  17
 -10  -2   4-59.9454 151.714   8
  10   2  -4-47.9380 90.9084   4
  10   2  -4 130.080 119.427   2
 -10   2  -4 186.833 69.9998  14
 -10   2   4 52.7007 192.218  14
 -10  -2  -4 109.568 110.764  14
 -10  -2  -4 130.097 118.195   6
 -10  -2   4-35.1952 124.395  14
 -10   2   4 172.708 123.031   1
  10   2   4 45.4638 66.0700  12
  10  -2  -4 206.321 163.284   5
 -10  -2  -4 53.2750 59.4901   1
  10   2   4 201.573 146.720   5
 -10   2   4 83.3493 98.6832  11
  10   2  -4 155.565 142.348   5
  10  -2  -4 35.0274 65.7424   2
 -10   2  -4-21.2469 106.597   1
  10  -2  -4-115.541 161.786  19
  10   2   4 47.2622 106.580  19
  10   2  -4 88.3048 114.802  19
 -10   2  -4 140.342 153.272  18
  10  -2  -4 95.9064 106.967   4
 -10   2   4 106.470 125.559  18
 -10   2  -4 66.8849 60.4801   8
 -10  -2   4 7.97353 70.6811   1
  10   2   4 75.8008 13.6641   4
  10  -2   4 86.4289 182.328  17
 -10   2   4 29.4664 92.1008   8
 -10   2   5-22.7769 74.3461   8
  10  -2  -5 51.6378 36.5915  17
 -10  -2   5-37.2007 101.155   1
  10   2  -5 22.6777 31.1330   4
  10   2   5 185.862 201.675  15
 -10   2  -5-32.8853 94.0611  14
  10   2  -5 4.77943 84.7468   2
 -10   2   5 145.596 160.889  14
 -10  -2  -5 19.6054 62.6702   6
 -10  -2  -5 5.26694 60.4204  14
 -10  -2   5-83.4395 74.4881  14
 -10   2   5-86.1864 87.0167   1
 -10  -2  -5 53.6999 103.604   1
  10   2   5 115.767 31.4847  12
  10  -2  -5 155.286 170.866   5
  10   2   5 238.844 186.088   5
 -10   2   5 119.642 103.563  11
 -10   2  -5-272.706 315.068   1
  10   2  -5 206.883 190.909   5
  10  -2  -5-72.9190 87.6632  19
  10   2   5-30.1979 100.733  19
  10  -2  -5-94.2672 137.358   2
  10   2  -5-23.5938 22.6290  19
 -10   2  -5 136.270 99.8651  18
 -10   2   5-29.5664 100.141  18
  10  -2  -5 175.306 221.379   4
 -10   2  -5 57.5602 150.992   8
  10   2   5 146.385 158.973   4
 -10  -2  -5 47.2678 81.9384   8
 -10   2   6 425.675 188.207   8
  10  -2  -6 376.611 220.866  17
  10   2  -6 372.412 203.061   4
  10   2   6 79.6332 147.908   7
  10   2   6 164.150 184.778  15
 -10   2  -6-62.1526 308.395  14
  10   2  -6 426.058 231.270   2
 -10   2   6 163.121 161.163  14
 -10  -2   6 195.921 200.625   1
 -10  -2  -6 321.794 167.418   6
 -10  -2  -6 347.577 177.345  14
 -10  -2  -6 349.470 187.763   1
 -10  -2   6 208.766 168.259  14
  10   2   6 166.077 110.552   3
 -10   2   6 291.032 211.876   1
  10   2   6 247.557 168.933  12
  10   2   6 190.008 99.5013   5
  10  -2  -6 230.409 171.126   5
 -10   2   6 431.438 234.439  11
  10   2  -6 256.559 220.500   5
  10   2   6 87.7308 120.094  19
  10  -2  -6 156.312 102.921  19
  10   2  -6 288.607 158.238  19
  10  -2  -6 209.088 123.121   2
 -10   2   6 263.551 192.914  18
 -10   2  -6 373.038 282.697   8
  10  -2  -6 411.236 262.696   4
  10   2   6 302.406 193.368   4
 -10  -2  -6 181.053 115.860   8
 -10   2   7 54.6526 90.2203   8
  10  -2  -7 232.992 182.555  17
  10   2   7 150.661 131.278   7
  10   2  -7-70.7471 141.463   4
 -10  -2  -7-36.9894 67.1178   1
  10   2   7 98.6908 195.792  15
 -10  -2  -7-16.2670 66.2272   6
 -10   2   7 23.4801 35.5935  14
 -10  -2  -7-31.5954 102.001  14
  10   2  -7 66.9557 89.4659   2
 -10  -2   7-24.7329 37.5777  14
  10   2   7-112.731 141.507   3
 -10   2   7 48.9328 74.1042  13
 -10  -2   7-68.5091 114.206   1
  10   2   7 91.7576 124.422  12
  10   2   7 6.31381 91.2173   5
 -10   2   7 57.3492 114.848   1
  10  -2  -7 82.6766 161.220   5
 -10   2   7 131.947 207.862  11
  10   2  -7-152.816 174.012   5
  10   2   7-118.004 152.146  19
  10  -2  -7 146.681 121.170  19
  10  -2  -7 21.0277 77.7907   2
 -10   2  -7 9.59556 219.207   8
 -10   2   7-33.7220 62.7080  18
  10   2   7 77.6082 63.7419   4
  10  -2  -7 14.0027 83.9838   4
 -10  -2  -7 18.9599 118.471   8
  10  -2  -8 202.969 203.248  17
 -10  -2  -8 429.087 228.882   1
  10   2   8 121.859 82.8947   7
  10   2  -8 167.096 118.740   4
  10   2   8 141.816 129.345  15
 -10  -2  -8 259.443 161.941   6
 -10   2   8 214.168 220.819  14
 -10  -2  -8 339.345 178.274  14
  10   2  -8 478.945 329.603   2
 -10  -2   8 424.326 262.700  14
  10   2   8 150.010 144.686   3
 -10   2   8 464.934 168.517  13
  10   2   8 154.463 152.170  12
  10   2   8 257.294 206.864   5
  10  -2  -8 89.0789 101.819   5
 -10   2   8 289.719 188.958   1
 -10  -2   8-37.6993 98.1102   1
 -10   2   8 578.715 318.917  11
  10   2  -8 512.621 317.054   5
  10   2   8 240.470 189.026  19
  10  -2  -8 318.675 178.640  19
  10   2   8 175.573 204.279   4
 -10   2  -8 441.869 337.286   8
  10  -2  -8 245.765 148.007   2
 -10   2   8 294.059 189.553  18
  10  -2  -8 250.953 142.213   4
 -10  -2  -8 575.524 233.125   8
  10  -2  -9-65.7781 111.345  17
  10   2   9-209.670 194.149   7
  10   2   9-100.826 117.729  15
 -10  -2  -9 134.305 148.105   6
 -10  -2  -9 41.3474 109.313  14
 -10   2   9-2.43483 82.5535  14
 -10  -2   9 224.291 270.418  14
  10   2   9 21.2240 121.008   3
  10   2   9-661.207 345.410   5
  10   2   9-3.50941 105.982  12
  10  -2  -9-6.04839 141.375   5
 -10   2   9-31.0962 109.323  11
 -10   2   9-116.522 128.562   1
  10   2  -9 124.756 175.469   5
  10   2   9 249.060 217.188  19
  10  -2  -9-12.7274 83.9473  19
  10   2   9-133.753 209.775   4
 -10  -2   9 83.2132 148.511   1
 -10   2  -9-44.3110 217.888   8
 -10   2   9 50.9065 52.2597  18
  10  -2  -9 112.460 156.082   2
 -10  -2  -9 79.5338 25.0215   1
  10  -2  -9-13.2758 66.1397   4
 -10  -2  -9-33.0504 47.0534   8
  10  -2 -10 107.056 170.643  17
  10   2  10-253.807 262.461   7
  10   2  10 2.73035 209.621  15
 -10  -2 -10-50.5423 74.4056   6
 -10  -2 -10 28.4924 83.2826  14
 -10   2  10 102.000 173.404  14
  10   2  10-63.4775 119.834  12
  10   2  10 95.6660 183.708   3
  10  -2 -10 65.2879 93.9136   5
 -10   2  10-27.1160 109.794  11
 -10   2  10 164.656 150.511   1
  10   2  10 25.7305 84.9273  19
  10  -2 -10 23.1808 70.5642  19
  10   2  10-170.657 238.206   4
 -10   2 -10 435.497 452.130   8
 -10   2  10 15.0858 61.8758  18
  10  -2 -10 77.5144 80.7654   2
 -10  -2 -10 106.451 157.575   8
  10  -2 -10 208.124 175.366   4
  10  -2 -11 138.594 126.367  17
  10   2  11-339.765 264.965   7
 -10   2  11 28.8484 75.7723  14
  10  -2 -11-50.2494 172.222   5
 -10   2  11 215.087 187.643  11
  10  -2 -11 171.195 128.918  19
 -10   2  11 73.5203 181.118   1
 -10   2 -11 268.334 189.706   8
 -10   2  11 56.8245 168.645  18
  10  -2 -11-91.0718 60.6252   2
  10  -2 -11-19.6103 64.8731   4
  10  -2 -12 670.449 378.736  17
 -10  -2 -12 653.851 360.488   6
 -10  -2 -12 792.671 335.544  14
  10  -2 -12 441.479 263.388   5
 -10   2  12 229.689 202.488  11
  10   2  12 337.494 253.745  19
 -10   2  12 136.881 156.856   1
 -10   2 -12 1213.28 811.146   8
 -10   2  12 335.055 194.576  18
 -10  -2 -12 607.541 247.165   8
  10  -2 -12 416.680 200.842   2
  10  -2 -13 146.317 253.174   2
  10  -2 -13 35.8945 112.976  17
 -10  -2 -13 37.9381 103.811   6
   2  10  13-126.990 234.908   3
 -10  -2 -13 109.420 101.289  14
  -2 -10 -13 27.5157 201.832   6
  10  -2 -13-150.893 179.415   5
 -10   2  13-145.811 394.327  11
  10   2  13-134.265 120.850  19
  -2  10  13 123.502 100.476  18
 -10   2  13-24.9209 29.7549   1
 -10   2  13 82.7617 45.0839  18
 -10  -2 -13-69.4995 73.7433   8
 -10  -3   0-20.6218 71.7127   8
  10   3   0 11.1695 107.329   4
 -10   3   0-172.461 329.125  14
 -10  -3   0-33.9830 62.9178  14
 -10  -3   0-8.36223 94.8787   6
  10   3   0 107.570 116.271   5
 -10  -3   0 24.0546 118.281   1
  10  -3   0-16.9780 82.9014  19
  10   3   0-5.20848 111.452  19
 -10   3   0 56.1323 84.4660  18
 -10   3   0 10.9160 60.3620   1
 -10   3   0 40.6432 109.228   8
  10  -3   0 72.8907 108.990  17
 -10  -3  -1 2436.28 438.372   6
 -10  -3   1 2307.50 458.839   6
 -10  -3  -1 2086.51 461.299  14
 -10  -3   1 1850.18 464.108  14
 -10   3  -1 1963.52 654.732  14
 -10   3   1 2148.24 699.246  14
 -10   3  -1 2425.44 646.097   1
 -10   3   1 2558.14 623.193   1
  10   3   1 2398.04 462.934   5
  10   3  -1 2552.00 495.076   5
  10   3   1 2237.09 605.612  12
 -10  -3  -1 2052.91 444.583   1
 -10  -3   1 1858.69 448.585   1
  10   3   1 2425.03 473.043  19
  10   3  -1 2788.33 504.885  19
  10  -3  -1 290.083 167.887  19
  10   3   1 2471.97 492.604   4
 -10   3  -1 2553.57 605.557   8
  10   3  -1 2781.20 523.137   4
 -10   3   1 2873.98 592.429   8
 -10   3  -1 2516.80 497.558  18
 -10   3   1 2605.14 514.009  18
 -10  -3  -1 2219.17 483.750   8
 -10  -3   1 2169.66 516.395   8
  10  -3   1 227.203 146.439  17
  10  -3  -1 16.8775 112.537  17
 -10  -3  -2 5.01892 46.5993   8
 -10   3   2 197.075 248.803   1
  10   3   2 107.112 112.528   4
 -10  -3   2 83.1344 89.1568   8
  10   3  -2 100.352 88.7259   4
 -10  -3   2-42.3741 51.4050   1
 -10   3  -2-306.030 475.943  14
 -10   3   2 164.594 150.346  14
 -10  -3  -2 103.450 47.7383   1
 -10  -3  -2 107.377 107.885  14
 -10  -3   2 82.7087 123.118  14
 -10  -3  -2 74.8481 57.0701   6
 -10  -3   2 82.1659 120.645   6
  10   3   2 111.785 24.6516  12
  10   3   2 96.2968 85.3415   5
  10   3  -2 168.364 156.203   5
 -10   3  -2-51.1657 191.106   1
  10  -3  -2 119.273 92.6362  19
  10   3   2 100.319 90.7358  19
  10   3  -2 102.560 117.173  19
 -10   3  -2 94.5156 91.5777  18
 -10   3   2 46.7606 66.6889  18
 -10   3  -2 169.366 187.885   8
 -10   3   2 218.140 172.542   8
  10  -3   2 39.1869 72.7255  17
  10  -3  -2-177.333 202.865  17
  10  -3  -3 190.833 177.938  17
 -10  -3  -3 363.846 197.404   8
  10   3   3 249.420 139.285   4
 -10  -3   3-27.4867 177.751   8
 -10   3   3 452.234 279.752   1
  10   3  -3 252.527 164.317   4
 -10  -3  -3 262.048 140.295   1
 -10   3   3 329.685 325.145  14
 -10  -3  -3 241.611 107.852  14
  10   3  -3 822.221 332.550   2
 -10  -3   3 275.849 214.335  14
 -10  -3  -3 331.493 184.491   6
 -10  -3   3 370.622 252.112   6
 -10  -3   3 254.514 206.034   1
  10  -3  -3-7.44396 180.082   5
  10   3   3 251.573 143.868  12
  10   3   3 372.476 200.851   5
 -10   3  -3 40.6098 143.727   1
  10   3  -3 455.339 242.491   5
  10  -3  -3 161.738 114.054  19
  10   3   3 195.092 98.7713  19
  10   3  -3 320.626 173.507  19
 -10   3  -3 297.739 201.924  18
 -10   3   3 350.001 201.714  18
 -10   3  -3 308.883 196.904   8
 -10   3   3 424.377 217.304   8
  10  -3   3 17.5360 44.3053  17
  10  -3  -4 90.2586 131.868  17
  10   3   4 142.768 144.297   4
 -10  -3  -4 57.0999 92.3760   8
  10   3  -4 91.5418 105.892   4
 -10   3   4 142.563 189.474   1
 -10   3   4-26.9390 96.0839  14
 -10  -3  -4 153.186 111.925  14
 -10  -3  -4 155.403 102.133   6
  10   3  -4 305.870 212.494   2
 -10  -3   4 159.307 141.373  14
  10  -3  -4-185.429 260.595   5
  10   3   4 55.1169 52.7227  12
 -10   3   4 505.112 288.399  11
  10   3   4 301.714 178.007   5
  10  -3  -4-107.347 234.305   2
  10   3  -4 149.408 117.064   5
  10  -3  -4 51.7222 26.9305  19
 -10  -3   4 87.2868 116.369   1
  10   3   4 21.2852 10.3814  19
  10   3  -4 115.882 84.2529  19
 -10   3  -4 50.9652 103.646  18
 -10   3   4 191.688 171.279  18
 -10   3  -4 294.711 261.114   8
 -10  -3  -4 109.063 73.8958   1
 -10   3   4 252.575 169.679   8
  10   3   5 17.6255 47.5047   4
 -10  -3   5 105.717 185.140   1
  10  -3  -5-51.3434 81.5103  17
 -10  -3  -5 0.71005 35.5080   8
  10   3  -5-124.813 165.481   4
 -10   3   5 111.213 140.695   1
 -10   3   5 308.658 271.262  14
  10   3   5-90.8151 155.979   3
 -10  -3  -5 11.8199 78.8071  14
 -10  -3  -5 24.1544 79.4847   6
 -10  -3   5-3.98818 14.6491  14
  10  -3  -5-147.761 176.705   5
  10   3   5-7.03431 67.6134  12
 -10   3   5 73.0689 151.821  11
  10   3   5 49.6430 21.2918   5
  10  -3  -5 25.9050 63.2217   2
  10   3  -5 209.480 212.002   5
 -10  -3  -5 0.74732 99.6041   1
  10  -3  -5 40.6386 35.5709  19
  10   3   5 10.0007 103.847  19
  10  -3  -5-217.248 273.715   4
 -10   3  -5 190.075 244.928   8
 -10   3   5-1.40856 54.4315  18
 -10   3   5 77.3109 100.630   8
 -10  -3  -6 566.815 234.588   8
  10  -3  -6 436.414 250.446  17
 -10   3   6 435.291 297.014  14
 -10   3   6 485.017 287.211   1
 -10  -3   6 319.610 306.092   1
 -10  -3  -6 389.617 180.457  14
 -10  -3  -6 535.264 222.945   6
  10   3   6 269.119 188.484   3
 -10  -3   6 36.7364 156.049  14
 -10   3   6 594.382 202.637  13
  10   3   6 268.991 185.745  12
  10  -3  -6 365.021 265.507   5
 -10  -3  -6 313.422 180.190   1
  10   3   6 371.591 196.445   5
 -10   3   6 687.894 330.384  11
  10  -3  -6 249.397 172.260   2
  10   3  -6 661.574 314.184   5
  10  -3  -6 170.003 166.090  19
  10   3   6 219.252 145.195  19
  10  -3  -6 206.782 179.248   4
 -10   3  -6 516.433 363.933   8
 -10   3   6 506.066 250.305  18
  10   3   6 372.984 235.253   4
 -10   3   6 648.078 226.741   8
 -10  -3  -7 36.4112 72.1445   8
  10  -3  -7 63.8494 174.886  17
 -10   3   7 178.815 258.779  14
 -10  -3  -7 173.303 116.607   6
 -10  -3  -7 1.83024 47.7096  14
 -10   3   7 92.3842 163.256   1
  10   3   7 18.9519 66.4809   3
 -10  -3  -7 168.456 168.087   1
 -10   3   7-41.1318 13.6816  13
  10   3   7 49.0486 21.1313  12
  10  -3  -7 28.4542 63.9299   5
  10   3   7 33.8741 19.7572   5
 -10   3   7 49.7664 243.952  11
 -10   3   7-155.899 142.684   9
  10  -3  -7 73.2862 146.655   2
  10  -3  -7 75.3461 178.202  19
  10   3   7-50.8612 86.6236  19
  10  -3  -7-139.935 249.352   4
 -10   3  -7 180.664 234.028   8
 -10   3   7-34.1641 95.2804  18
  10   3   7 54.1825 148.623   4
 -10  -3  -8-84.9214 97.4025   8
  10  -3  -8 97.1881 123.806  17
  10   3   8 132.889 178.797   7
  10   3   8 53.1152 152.108  15
 -10  -3  -8 20.6296 89.0336   1
 -10   3   8-22.7726 282.176  14
 -10  -3  -8 73.2304 89.7267   6
 -10  -3  -8-25.1479 66.2731  14
 -10   3   8-98.5697 94.4884   1
  10   3   8 75.3692 135.825   3
 -10   3   8-28.8955 55.6845  13
  10   3   8-108.300 139.455  12
  10  -3  -8 72.0046 195.563   5
  10   3   8 126.300 124.778   5
 -10   3   8-51.5634 9.40616  11
 -10   3   8 90.7917 138.010   9
  10   3   8-32.6845 45.7602  19
  10  -3  -8-58.2422 109.955  19
  10  -3  -8-54.1358 35.8725   2
 -10   3  -8 22.6529 358.893   8
  10  -3  -8-186.887 274.105   4
 -10   3   8 65.0192 124.127  18
  10   3   8 25.4946 139.316   4
  10  -3  -9 4.81874 50.7066  17
  10   3   9 124.496 112.208   7
  10   3   9 43.8934 143.158  15
 -10   3   9 35.8876 113.368  14
 -10  -3  -9 85.1928 63.2418   6
 -10  -3  -9 46.0633 100.989  14
  10   3   9 22.2928 29.9177   3
 -10   3   9 63.1163 117.386   1
 -10   3   9 52.9363 97.1844  13
  10   3   9 258.366 201.231  12
  10   3   9 89.9347 175.455   5
  10  -3  -9 139.982 198.535   5
 -10   3   9 171.227 280.114  11
  10   3   9 7.99633 98.7547  19
 -10   3   9-69.6391 207.045   9
  10  -3  -9 222.880 165.588  19
  10  -3  -9-35.1584 26.2560   2
  10  -3  -9 129.249 176.338   4
 -10   3   9 145.443 132.236  18
  10   3   9-180.665 123.461   4
 -10  -3  -9 69.9595 67.0158   8
  10  -3 -10-11.3801 156.579  17
  10   3  10 16.4885 128.064   7
  10   3  10-129.456 213.007  15
 -10   3  10-123.263 175.868  14
 -10  -3 -10 589.521 428.703   6
 -10  -3 -10 279.815 338.702  14
  10   3  10 472.904 516.952   3
 -10   3  10-23.8121 60.6971  13
 -10   3  10 156.232 239.030   1
  10   3  10 46.7008 465.354  12
  10   3  10 261.356 528.550   5
  10  -3 -10 150.307 266.860   5
 -10   3  10-17.2777 49.8435  11
  10   3  10 843.475 471.769  19
 -10   3  10-589.753 535.289   9
  10  -3 -10-110.687 21.6671  19
  10  -3 -10 141.601 160.105   2
  10   3  10 17.5361 248.754   4
  10  -3 -10 77.3751 123.918   4
 -10   3  10 156.276 195.626  18
 -10  -3 -10-0.48121 198.556   8
  10  -3 -11 756.424 423.339  17
  10   3  11 1473.94 588.637   7
 -10  -3 -11 1681.76 538.748   6
  10   3  11 1269.03 592.588  15
 -10  -3 -11 2039.45 595.809  14
  10   3  11 804.750 495.679   3
 -10   3  11 735.988 274.137  13
  10   3  11 277.607 342.893  12
 -10   3  11 613.416 292.272   1
  10  -3 -11 595.588 382.794   5
 -10   3  11 1277.64 513.770  11
 -10   3  11 94.3423 583.046   9
 -10  -3 -11 2407.28 606.793   8
  10   3  11 1098.50 643.696   4
  10  -3 -11 816.417 344.825   2
 -10   3  11 1024.37 383.937  18
  10  -3 -12 60.7933 166.259  17
  10   3  12 67.9623 98.3759   7
  10   3  12-126.297 272.330  15
 -10  -3 -12 24.5998 42.1118   6
 -10  -3 -12 119.216 82.3817  14
  10   3  12-28.9990 66.6758   3
  10   3  12 216.285 285.499  12
 -10   3  12 131.921 208.030   1
  10  -3 -12 198.766 150.356   5
 -10   3  12 176.655 235.829  11
  10   3  12-180.828 151.244  19
  10   3  12-226.045 242.098   4
  10  -3 -12 2.35504 83.7028   2
 -10   3  12 15.4177 93.0959  18
 -10  -3 -12-12.8781 35.9000   8
 -10  -4   0 2652.52 621.362   6
 -10  -4   0 1965.27 477.730  14
 -10   4   0 2558.34 647.097   1
  10   4   0 3590.90 602.043   5
 -10  -4   0 1960.05 462.478   1
  10   4   0 3271.68 567.567  19
 -10   4   0 2608.32 621.619   8
  10   4   0 3381.36 603.467   4
 -10   4   0 3127.25 560.064  18
 -10  -4   0 2150.26 547.317   8
 -10  -4  -1 252.648 182.589   8
 -10  -4   1-24.2363 249.732   8
  10   4   1 300.221 163.548   4
  10   4  -1 459.220 227.071   4
 -10  -4  -1 264.985 153.514   1
 -10  -4  -1 214.086 155.697  14
 -10  -4   1 220.321 123.582  14
 -10  -4  -1 288.898 213.094   6
 -10  -4   1 368.629 236.613   6
 -10   4  -1-21.5444 282.983   1
  10   4   1 228.046 125.926   5
  10   4  -1 479.412 246.868   5
 -10   4   1 155.748 125.162   1
  10   4   1 372.490 194.025  19
  10   4  -1 455.837 217.679  19
 -10   4  -1 408.830 212.723  18
 -10  -4   1 163.361 184.267   1
 -10   4   1 324.152 162.968  18
 -10   4  -1 268.951 190.498   8
 -10   4   1 270.462 218.650   8
  10  -4   1-48.5248 147.627  17
  10  -4  -1-537.606 280.110  17
 -10  -4   2 600.429 72.9007   8
 -10  -4  -2 1409.86 383.133   6
 -10  -4   2 934.282 358.771   1
 -10  -4  -2 1287.53 378.152  14
 -10  -4   2 887.462 330.389  14
  10   4   2 1969.36 447.859   5
  10   4  -2 1823.27 467.602   5
 -10  -4  -2 1459.14 386.048   1
  10   4   2 1543.57 479.910  12
  10   4   2 1705.81 399.590  19
  10   4  -2 1744.44 436.683  19
  10   4   2 1689.42 429.203   4
 -10   4   2 1445.70 441.823   8
 -10   4   2 1901.04 471.420  18
  10   4  -2 1901.29 485.318   4
 -10   4  -2 1133.59 345.948  18
 -10  -4  -2 1445.63 420.289   8
 -10   4   2 1737.54 534.637   1
 -10   4  -2 1590.66 504.803   8
 -10  -4  -3 345.562 202.612   8
  10   4   3 383.042 185.040   4
 -10  -4  -3 354.844 197.667  14
 -10  -4  -3 499.149 208.008   6
 -10  -4  -3 343.010 184.426   1
  10   4   3 445.889 263.010  12
  10   4   3 485.907 210.181   5
  10  -4  -3 35.6816 82.3478  19
  10   4   3 468.061 217.010  19
 -10   4  -3 111.598 32.7391  18
 -10   4   3 472.557 272.989  18
 -10   4  -3 420.521 261.794   8
 -10   4   3 331.889 204.501   1
 -10   4   3 476.708 232.895   8
  10  -4  -3-12.5042 117.466  17
 -10  -4  -4 190.554 142.455   8
  10   4   4 223.967 179.381   4
 -10  -4  -4 79.3477 62.6316  14
 -10  -4  -4 110.488 45.7542   1
 -10  -4  -4 163.569 127.157   6
  10   4   4 136.293 137.013  12
  10   4   4 195.581 106.558   5
  10  -4  -4 12.6865 111.870  19
  10   4   4 229.139 160.282  19
 -10   4  -4 51.2530 79.5222   8
 -10   4   4 227.007 177.685  18
 -10   4   4 184.280 116.610   8
 -10   4   4 288.731 278.940   1
  10  -4  -4 277.539 216.196  17
  10  -4  -5 274.443 191.988  17
 -10  -4  -5 738.841 304.720   8
  10   4   5 858.845 304.870   4
 -10   4   5 762.941 387.754   1
 -10  -4  -5 760.114 256.347   1
 -10   4   5-8.00171 333.922  14
  10   4   5 283.498 171.676   3
 -10  -4  -5 993.023 300.943  14
 -10  -4  -5 1164.04 335.099   6
 -10   4   5 497.377 164.163  13
  10   4   5 860.080 325.360  12
  10   4   5 972.722 294.102   5
  10  -4  -5 398.562 218.149  19
  10   4   5 716.379 272.555  19
 -10   4  -5 463.855 400.705   8
 -10   4   5 1113.57 359.637  18
 -10   4   5 1166.86 340.394   8
  10  -4  -6 67.7847 97.5285  17
  10   4   6-74.6688 98.4168   4
 -10  -4  -6 60.9368 112.916   8
 -10   4   6 66.3264 176.523   1
 -10   4   6-641.302 669.746  14
  10   4   6 34.1174 140.322   3
 -10  -4  -6 27.0492 39.6559  14
 -10  -4  -6-100.889 101.612   6
 -10   4   6 22.2848 83.1332  13
  10   4   6 34.5275 130.836  12
 -10   4   6-95.8351 110.375  11
  10   4   6 71.4936 94.7333   5
  10  -4  -6-68.0126 203.600   2
  10  -4  -6 83.5705 111.029  19
  10   4   6-3.68717 74.2236  19
 -10   4   6-95.2394 182.155  18
 -10  -4  -6 34.3703 23.2012   1
  10   4   7 325.260 210.843   4
  10  -4  -7 182.140 169.037  17
 -10  -4  -7 612.937 273.135   8
 -10   4   7 614.496 312.462   1
 -10   4   7 180.855 144.213  14
  10   4   7 300.058 196.586   3
 -10  -4  -7 807.094 276.147  14
 -10  -4  -7 636.853 226.090   6
 -10   4   7 802.077 272.803  13
  10  -4  -7-143.603 323.819   5
  10   4   7 340.208 227.548  12
 -10   4   7 1115.37 472.218  11
  10   4   7 429.814 198.596   5
  10  -4  -7 220.326 53.7500   2
 -10  -4  -7 669.144 218.760   1
  10  -4  -7 129.452 87.9198  19
  10   4   7 497.812 225.635  19
 -10   4   7 696.578 316.145  18
  10  -4  -8 1.79335 106.927  17
 -10  -4  -8-1.06885 112.324   8
 -10   4   8-271.579 217.411   1
 -10   4   8-93.4610 206.754  14
 -10  -4  -8-27.3550 51.3831  14
 -10  -4  -8-65.2011 38.0046   6
  10   4   8-11.6352 83.1579   3
 -10   4   8 60.9043 63.9962  13
 -10  -4  -8-23.2677 59.1301   1
  10  -4  -8-91.4538 197.743   5
  10   4   8-43.8350 68.4560  12
  10   4   8 157.357 161.477   5
 -10   4   8 104.100 73.3244  11
  10  -4  -8 80.3649 81.9323   2
  10  -4  -8 90.8610 86.0650  19
  10   4   8 15.7420 43.0278  19
 -10   4   8 158.537 179.405  18
  10   4   8 187.198 164.814   4
 -10  -4  -9 540.255 246.160   8
  10  -4  -9 272.102 251.388  17
 -10   4   9 428.453 374.623   1
 -10   4   9 91.0260 395.358  14
 -10  -4  -9 331.416 223.195  14
 -10  -4  -9 267.694 193.034   6
  10   4   9 528.612 446.248   3
 -10   4   9 374.590 203.109  13
  10  -4  -9 82.5134 240.455   5
  10   4   9 305.349 322.974  12
  10   4   9 43.1294 74.0844   5
 -10   4   9 373.417 320.126  11
  10  -4  -9 86.5788 118.145   2
 -10   4   9 329.151 385.751   9
  10  -4  -9 72.0189 128.480  19
  10   4   9 162.122 199.254  19
 -10   4   9 276.113 235.693  18
  10   4   9 189.567 207.890   4
 -10  -4 -10 1055.66 351.427   8
  10  -4 -10 442.752 309.514  17
  10   4  10 213.122 175.475  15
 -10   4  10 631.045 388.953   1
 -10  -4 -10 938.802 328.605   6
 -10  -4 -10 1126.39 371.782  14
  10   4  10 1454.26 600.077   3
 -10   4  10 641.730 239.764  13
  10   4  10 1806.53 585.814  12
  10  -4 -10 372.196 254.868   5
  10   4  10 1629.59 621.782   5
 -10   4  10 1173.25 480.943  11
  10   4  10 1486.02 496.431  19
 -10   4  10 1864.35 739.676   9
  10  -4 -10 321.732 216.615   2
 -10   4  10 894.879 340.943  18
  10   4  10 991.253 451.872   4
 -10  -4 -11 398.035 231.952   8
  10  -4 -11 310.831 229.049  17
  10   4  11 359.977 301.044   7
  10   4  11 323.964 317.954  15
 -10  -4 -11 326.941 187.337   6
 -10   4  11 292.427 237.076   1
 -10  -4 -11 257.600 121.552  14
  10   4  11 99.6738 154.150   3
 -10   4  11 173.758 134.462  13
  10   4  11-31.7657 130.181  12
  10  -4 -11 217.174 197.414   5
 -10   4  11 287.105 223.426  11
 -10   4  11 573.495 532.070   9
  10   4  11 73.2396 35.7642  19
  10  -4 -11 127.334 144.383   2
 -10   4  11 164.543 139.819  18
  10   4  11-59.2810 152.947   4
  10   5   0 614.305 279.092   4
  10   5   0 806.913 310.810   5
  10   5   0 541.700 190.158  19
 -10   5   0 501.596 227.542  18
 -10   5   0 515.705 244.552   8
 -10  -5  -1 572.687 243.633   8
 -10  -5  -1 860.040 323.159   1
 -10  -5  -1 754.702 296.989  14
 -10  -5  -1 1443.64 614.108   6
  10   5   1 1664.13 426.727   5
  10   5   1 1666.54 429.108  19
  10   5   1 2039.20 537.352   4
 -10   5  -1 763.984 262.376  18
 -10   5   1 1368.14 403.780  18
 -10   5  -1 821.326 320.409   8
 -10   5   1 1124.17 418.638   8
  10  -5  -1 144.403 197.621  17
 -10  -5  -2 542.715 277.419   8
  10   5   2 1489.46 431.615   4
 -10  -5  -2 629.177 270.890  14
 -10  -5  -2 1108.44 439.206   6
  10   5   2 1360.80 385.285   5
 -10  -5  -2 628.536 273.453   1
 -10   5   2 614.012 271.844   1
  10   5   2 1353.89 376.725  19
 -10   5   2 1165.69 388.395  18
 -10   5  -2 735.403 343.926   8
 -10   5   2 984.176 370.697   8
 -10  -5  -3 428.629 212.795   8
  10   5   3 773.231 306.261   4
 -10  -5  -3 565.268 246.644   1
 -10  -5  -3 480.634 218.132  14
 -10  -5  -3 451.362 210.317   6
  10   5   3 295.166 111.745  12
  10   5   3 689.262 268.101   5
 -10   5   3 207.782 172.006   1
  10   5   3 530.403 241.930  19
 -10   5   3 577.845 259.596  18
 -10   5   3 521.074 230.866   8
  10  -5  -3 18.4057 112.837  17
 -10  -5  -4 755.126 314.254   8
  10   5   4 1448.46 418.874   4
 -10  -5  -4 688.659 257.177  14
 -10  -5  -4 885.561 343.699   6
  10   5   4 1349.80 456.102  12
  10   5   4 1280.57 353.543   5
  10   5   4 1288.38 373.693  19
 -10   5   4 1091.65 435.588   1
 -10   5   4 1134.39 398.824  18
 -10   5   4 1208.81 356.531   8
 -10  -5  -4 751.792 273.946   1
 -10  -5  -5 2.14023 33.3312   8
  10   5   5-76.5496 73.0884   4
 -10  -5  -5 13.0077 76.6309  14
 -10  -5  -5 160.547 158.082   6
  10   5   5-39.7456 71.6670  12
 -10  -5  -5 8.69678 40.9889   1
  10   5   5 13.1792 26.7069   5
  10  -5  -5-71.9265 129.351  19
  10   5   5-68.7697 81.4574  19
 -10   5   5 96.5945 159.769   1
 -10   5   5-131.883 151.532  18
  10  -5  -5 169.720 177.635  17
  10   5   6 1439.28 423.555   4
  10   5   6 652.375 300.787   3
 -10  -5  -6 1220.14 303.915   1
 -10  -5  -6 1224.28 344.060  14
 -10  -5  -6 1571.23 403.379   6
 -10   5   6 645.940 210.434  13
  10   5   6 1255.14 409.602  12
  10   5   6 1444.54 360.389   5
  10   5   6 1397.58 376.836  19
  10  -5  -6 367.867 194.252  19
 -10  -5  -6 1310.86 386.421   8
 -10   5   6 1645.34 452.595  18
 -10   5   6 1023.64 436.976   1
  10  -5  -6 128.455 197.479  17
  10  -5  -7 40.4775 72.4299  17
  10   5   7-2.43482 14.9883   4
 -10  -5  -7-66.8687 121.435   8
 -10  -5  -7 80.6745 49.4265   1
  10   5   7 46.8990 175.437   3
 -10  -5  -7 38.7756 59.4918  14
 -10  -5  -7 68.3050 101.660   6
 -10   5   7 69.0219 85.7894  13
  10   5   7 161.535 187.433  12
  10   5   7 195.076 156.456   5
  10  -5  -7 35.1109 147.092  19
  10   5   7 56.3129 35.9922  19
 -10   5   7 92.3810 78.6101  18
 -10   5   7-87.1916 290.076   1
  10  -5  -8 117.584 145.898  17
  10   5   8 747.712 285.353   4
 -10  -5  -8 1125.69 370.955   8
  10   5   8 530.224 233.510   3
 -10  -5  -8 1260.86 341.489  14
 -10  -5  -8 1267.95 372.991   6
 -10   5   8 1209.75 367.142  13
  10   5   8 851.831 304.721  12
  10   5   8 886.139 275.401   5
  10  -5  -8 276.795 185.293  19
  10   5   8 987.643 329.098  19
 -10   5   8 1274.17 422.292  18
 -10   5   8 555.390 343.473   1
  10  -5  -9-150.393 206.050  17
 -10  -5  -9 140.621 143.645   8
 -10   5   9 49.2485 25.9274   1
  10   5   9-110.350 150.160   3
 -10  -5  -9-50.7811 119.131  14
 -10  -5  -9 118.969 122.640   6
 -10   5   9 0.67463 92.7793  13
  10   5   9 502.751 362.559  12
 -10   5   9 142.779 258.447  11
  10   5   9 2.39858 154.886   5
  10  -5  -9-206.545 228.694   2
  10   5   9 256.801 209.546  19
 -10   5   9-132.439 213.202  18
  10   5   9 16.7586 97.4524   4
  10  -5 -10 240.472 41.0045  17
 -10  -5 -10 898.875 335.066   8
 -10   5  10 847.877 452.652   1
 -10  -5 -10 821.078 286.664  14
 -10  -5 -10 830.417 317.059   6
  10   5  10 573.498 351.916   3
 -10   5  10 826.479 286.647  13
  10   5  10 635.996 295.395  12
 -10   5  10 1522.75 496.836  11
  10  -5 -10 257.708 199.876   2
  10   5  10 741.166 262.154  19
 -10   5  10 808.426 321.810  18
  10   5  10 745.245 332.987   4
 -10   6   1 631.270 231.699  18
 -10   6   1 472.648 195.320   8
 -10   6   2 98.1952 115.710  18
 -10   6   2 68.9192 113.099   8
 -10  -6  -3 397.339 66.2848   8
 -10  -6  -3 576.376 230.367   1
 -10  -6  -3 879.895 369.578  14
 -10  -6  -3 1006.37 446.216   6
  10   6   3 1805.94 459.576   5
  10   6   3 1514.27 395.882  19
  10   6   3 2140.45 615.570   4
 -10   6   3 1283.64 411.603  18
 -10   6   3 954.465 322.291   8
  10  -6  -3 149.282 194.647  17
 -10  -6  -4-500.865 284.107   8
  10   6   4-68.8221 86.2120   4
 -10  -6  -4-3.74576 120.581  14
 -10  -6  -4 120.942 206.737   6
  10   6   4 30.7849 104.603   5
  10   6   4-71.3670 114.480  19
 -10  -6  -4 51.1969 28.5995   1
 -10   6   4-167.088 102.736  18
  10  -6  -4 62.1310 215.373  17
 -10  -6  -5 974.064 360.242   8
  10   6   5 1925.92 534.486   4
 -10  -6  -5 1102.82 333.331   1
 -10  -6  -5 865.430 319.879  14
 -10  -6  -5 1067.14 461.271   6
  10   6   5 1410.77 452.861  12
 -10   6   5 216.540 174.789   1
  10   6   5 1832.61 438.142   5
  10   6   5 1519.59 418.080  19
 -10   6   5 1194.50 403.994  18
  10  -6  -5-46.4529 218.453  17
 -10  -6  -6 378.146 229.573   8
  10   6   6 694.531 315.196   4
 -10  -6  -6 297.717 188.339  14
 -10  -6  -6 225.164 151.614   6
  10   6   6 544.448 284.839  12
  10   6   6 867.624 311.955   5
 -10   6   6 553.336 313.263   1
  10  -6  -6-41.8944 69.5217  19
  10   6   6 599.354 270.084  19
 -10   6   6 635.014 375.834  18
 -10  -6  -6 421.451 197.106   1
  10  -6  -6 148.294 293.628  17
 -10  -6  -7 1136.25 396.067   8
  10   6   7 1278.01 409.211   4
  10   6   7 244.294 221.429   3
 -10  -6  -7 1082.46 326.663  14
 -10  -6  -7 967.900 378.316   6
  10   6   7 947.749 353.525  12
  10   6   7 1046.05 339.184   5
  10  -6  -7-88.7344 197.851  19
 -10   6   7 438.534 250.070   1
  10   6   7 1280.66 367.135  19
 -10   6   7 1229.74 393.489  18
  10  -6  -7-22.9606 154.514  17
  10   6   8 435.650 256.111   4
 -10  -6  -8 397.293 255.960   8
  10   6   8 389.937 360.028   3
 -10  -6  -8 208.622 157.605  14
 -10  -6  -8 295.037 206.518   6
 -10   6   8 118.812 135.973  13
  10   6   8 279.339 201.899  12
  10   6   8 346.464 208.613   5
  10   6   8 250.237 151.426  19
 -10   6   8 203.494 151.821   1
 -10   6   8 245.700 169.306  18
  10  -6  -8-37.9617 164.578  17
  10  -6  -9-31.2581 187.420  17
  10   6   9 1490.40 453.863   4
 -10  -6  -9 1482.61 438.156   8
  10   6   9 1159.27 535.447   3
 -10  -6  -9 1243.11 386.349  14
 -10  -6  -9 1281.94 408.736   6
 -10   6   9 1568.06 443.788  13
  10   6   9 1207.62 411.550  12
  10   6   9 1598.72 425.323  19
 -10   6   9 1335.47 532.591   1
 -10   6   9 1609.51 480.956  18
 -10   7   3 26.6225 191.256  18
 -10   7   4 737.733 330.159  18
  10  -7  -4 23.7874 91.3622  17
 -10  -7  -5-80.8738 405.341   8
 -10  -7  -5 800.031 566.663   6
 -10   7   5 796.471 351.025  18
  10  -7  -5 157.777 226.742  17
 -10  -7  -6 42.1412 229.133   8
  10   7   6 1116.89 511.141   4
 -10  -7  -6 424.843 273.991  14
 -10  -7  -6 286.922 246.898   6
  10   7   6 1371.26 477.360   5
 -10   7   6 511.043 295.641  18
  10  -7  -6-241.844 190.836  17
 -11   0   0 49.8772 125.170   8
  11   0   0 163.877 208.985  17
  11   0   0-117.381 162.713   7
  11   0   0 5.65028 92.3322  15
 -11   0   0-91.8144 109.877  14
 -11   0   0 140.938 153.782   1
  11   0   0 30.2365 65.3509   5
  11   0   0 0.98577 46.1570  19
 -11   0   0 92.9396 108.856  18
  11   0   0-22.0150 77.3582   4
 -11   0   1 178.385 139.494   8
  11   0   1 299.725 208.693  17
  11   0  -1 38.3174 142.445  17
  11   0   1 61.0497 68.3472   7
  11   0   1 23.4867 150.729  15
 -11   0  -1 323.558 203.098  14
 -11   0   1 268.981 195.721  14
 -11   0  -1 349.745 258.954   1
  11   0   1 129.174 83.8818  12
 -11   0   1 220.054 163.858   1
  11   0   1 178.334 141.080   5
  11   0  -1 136.089 154.871   5
  11   0   1 152.895 168.629  19
  11   0  -1 103.022 102.217  19
 -11   0  -1 227.952 125.734  18
 -11   0   1 404.266 211.673  18
  11   0   1 327.747 230.797   4
  11   0  -1 154.842 135.902   4
 -11   0  -1 208.146 132.248   8
 -11   0   2 12.2940 71.6437   8
  11   0  -2 77.2045 173.015  17
  11   0   2-72.4456 131.940   7
  11   0   2-96.1664 221.842  15
 -11   0  -2 68.4874 86.2159   6
 -11   0  -2-37.7314 61.1245   1
 -11   0  -2-6.24673 131.957  14
 -11   0   2 129.585 181.425  14
  11   0   2 31.7006 81.4518  12
  11   0   2-172.733 205.598   5
  11   0  -2 129.470 167.064   5
 -11   0   2 34.9197 82.2247   1
 -11   0   2-276.984 372.359  11
  11   0   2 74.7487 87.2361  19
  11   0  -2-48.8882 48.7439  19
  11   0   2-39.7120 159.852   4
 -11   0   2-26.7835 134.548  18
  11   0  -2 23.9169 85.6367   4
 -11   0  -2-45.7124 93.2830   8
 -11   0   3 1074.38 363.113   8
  11   0  -3 352.932 198.844  17
 -11   0  -3 1176.91 418.535   1
 -11   0  -3 1023.86 335.186   6
 -11   0  -3 998.744 380.054  14
 -11   0   3 907.535 352.883  14
  11   0   3 156.573 84.7669  12
  11   0   3 739.063 338.732   5
  11   0  -3 603.564 279.321   5
 -11   0   3 378.213 205.351  11
 -11   0   3 917.661 336.055   1
  11   0   3 396.817 185.866  19
  11   0  -3 668.177 284.161  19
  11   0   3 309.235 177.744   4
  11   0  -3 747.639 240.586   2
 -11   0   3 1035.08 343.383  18
 -11   0  -3 1143.42 360.491   8
  11   0  -3 606.693 251.731   4
 -11   0   4 48.3896 99.0181   8
  11   0  -4-120.926 125.643  17
 -11   0  -4-29.2244 102.175   1
 -11   0  -4 128.122 128.661   6
 -11   0  -4 8.22512 53.1297  14
 -11   0   4-67.3048 96.9992  14
  11   0   4 37.3250 157.264  12
  11   0   4-240.701 248.805   5
  11   0  -4 32.6708 110.034   5
  11   0   4 85.7196 63.5638  19
  11   0  -4-79.3357 125.672  19
 -11   0   4 51.4306 93.4991   1
  11   0   4-102.671 141.355   4
 -11   0   4 80.4480 106.725  18
  11   0  -4 93.3774 117.931   2
 -11   0  -4 14.0967 31.8098   8
  11   0  -4-123.582 120.673   4
 -11   0  -5 5340.00 825.029   6
 -11   0  -5 3947.60 750.176  14
 -11   0   5 3975.02 749.525  14
 -11   0  -5 4738.84 891.596   1
  11   0  -5 3095.36 639.032   5
  11   0   5 851.597 342.389  12
  11   0   5 712.337 245.284   5
 -11   0   5 3688.31 713.287   1
  11   0  -5 3558.77 523.108   2
  11   0  -5 3351.48 588.698  19
  11   0   5 947.895 372.809  19
  11   0  -5 3055.07 612.630   4
 -11   0  -5 4823.92 819.459   8
 -11   0   5 3844.07 759.692  18
 -11   0   5 4152.99 712.576   8
  11   0   5 961.853 376.764   4
  11   0  -5 3046.53 698.687  17
  11   0  -6 19.4484 53.6284   2
  11   0  -6 37.8613 45.2037   4
 -11   0   6 30.9022 72.0157   1
  11   0  -6 88.9566 167.422  17
 -11   0   6 36.2471 131.101   8
 -11   0  -6 34.4168 71.2812   6
 -11   0  -6-112.160 155.713  14
 -11   0   6-18.0789 126.307  14
  11   0  -6-43.8244 161.563   5
  11   0   6-92.8324 66.8693  19
  11   0  -6-49.5485 97.7663  19
  11   0   6-293.144 316.814   4
 -11   0  -6 0.61972 86.4456   1
 -11   0   6-89.4464 162.898  18
 -11   0  -6-48.7689 92.7292   8
 -11   0  -7 3898.92 717.200   6
 -11   0  -7 3972.67 752.591  14
 -11   0   7 2606.45 607.183  14
 -11   0  -7 3385.26 779.639   1
  11   0  -7 2780.04 613.744   5
 -11   0   7 2679.51 625.950   1
  11   0  -7 3034.51 536.456   2
  11   0  -7 3181.89 581.041  19
  11   0   7 112.985 236.125  19
  11   0  -7 2907.45 596.688   4
 -11   0  -7 4247.27 814.418   8
 -11   0   7 2414.23 629.356  18
 -11   0   7 3449.46 807.493   8
  11   0  -7 2840.23 710.952  17
  11   0  -8 89.8983 166.491   4
  11   0  -8 17.4560 130.166   2
  11   0  -8 37.6196 136.250  17
 -11   0   8-133.080 168.451   1
 -11   0  -8 62.3149 213.075   6
 -11   0  -8 57.2353 196.661  14
 -11   0   8-74.7085 83.9282  14
  11   0  -8-16.7265 52.7361   5
 -11   0  -8-316.333 306.284   1
  11   0   8 92.0225 64.0321  19
  11   0  -8-89.3681 130.071  19
 -11   0   8-152.055 238.170  18
 -11   0  -8-78.2306 116.716   8
  11   0  -9 1673.19 571.442  17
 -11   0  -9 2468.90 613.797   6
 -11   0  -9 2306.92 616.077  14
 -11   0   9 1320.41 472.109   1
 -11   0   9 1110.73 412.786  14
  11   0  -9 1944.40 502.134   2
  11   0  -9 1844.02 537.141   5
  11   0  -9 1762.37 478.803  19
  11   0   9-133.773 237.657  19
  11   0  -9 2086.69 518.229   4
 -11   0  -9 2717.20 684.143   8
 -11   0   9 749.468 297.223  18
  11   0 -10-45.9121 63.0296   4
  11   0 -10-90.0998 144.434  17
  11   0 -10 70.2576 159.131   2
 -11   0 -10-119.098 124.020   6
 -11   0 -10 184.451 214.048  14
 -11   0  10 1.81343 88.0340  14
 -11   0  10-87.1608 185.416   1
  11   0 -10-32.7134 101.215   5
  11   0  10-146.196 225.606  19
  11   0 -10-236.058 255.416  19
 -11   0 -10 58.8496 86.1817   8
 -11   0  10-321.243 410.850  18
  11   0 -11 333.961 248.428  17
  11   0 -11 1137.75 406.318   4
  11   0 -11 616.492 307.838   2
 -11   0 -11 279.705 109.184   6
 -11   0 -11 758.805 309.367  14
 -11   0  11 520.993 286.299  14
 -11   0  11 519.574 311.734   1
  11   0 -11 776.981 366.464   5
  11   0  11 46.7137 77.2158  19
 -11   0 -11 702.189 323.166   8
 -11   0  11-118.529 372.353  18
 -11  -1   0-31.1151 109.807   8
  11  -1   0 75.1235 169.603  17
  11   1   0 91.8712 147.819  17
 -11   1   0-58.3202 72.6656   1
 -11   1   0-18.6445 102.218  14
 -11  -1   0 188.696 169.723  14
 -11  -1   0 81.6826 102.893   6
  11  -1   0-1.09276 139.527   5
  11   1   0-36.2295 139.517  12
  11   1   0 111.689 147.241   5
 -11  -1   0 96.2103 114.823   1
  11  -1   0 107.546 132.435  19
  11   1   0 24.3775 68.7742  19
  11  -1   0 31.8637 48.3294   4
 -11   1   0 133.965 141.306  18
 -11  -1   0 0.38974 119.397  18
 -11   1   0 179.284 141.877   8
  11   1   0 5.24252 39.1604   4
  11   1  -1 92.8513 161.033   4
 -11  -1  -1 70.6546 66.3569   8
  11  -1   1 86.5253 107.446  17
 -11  -1   1 174.318 199.487   8
  11  -1  -1 15.2691 75.5798  17
  11   1  -1 127.990 149.131  17
 -11   1  -1 114.097 117.695   1
  11   1   1 89.0559 154.046  15
 -11   1  -1 30.3557 63.1146  14
 -11   1   1 195.341 207.397  14
 -11  -1  -1 62.0726 127.937   6
 -11  -1  -1 88.3108 114.447  14
 -11  -1   1-26.8538 103.700  14
 -11   1   1 56.9242 172.485   1
  11  -1   1 147.361 175.792   5
  11   1   1 21.8524 83.4894  12
  11  -1  -1 18.9712 111.133   5
  11   1   1-35.1941 51.8462   5
 -11  -1  -1 39.3118 40.3451   1
  11   1  -1 104.723 87.5444   5
  11  -1   1 78.1154 109.289  19
  11  -1  -1-3.38353 47.8052  19
  11   1   1 70.7036 99.2054  19
  11   1  -1-79.3859 60.7189  19
 -11  -1   1-40.1464 141.285   1
  11  -1   1-145.532 131.556   4
 -11   1  -1 71.5730 46.0439  18
 -11   1   1 87.9816 130.081  18
  11  -1  -1 157.968 217.075   4
 -11  -1   1 4.09134 113.019  18
  11   1   1-52.1190 138.693   4
 -11   1  -1 166.075 86.9956   8
 -11   1   1 16.7658 91.0424   8
 -11  -1  -2 229.772 171.700   8
  11   1  -2 218.386 167.671   4
  11  -1  -2 139.037 177.503  17
 -11  -1   2 214.738 140.884   8
  11   1  -2 32.3754 112.942  17
 -11   1  -2 297.062 245.975   1
  11   1   2 107.331 118.223   7
  11   1   2 116.960 186.674  15
 -11   1  -2 197.449 208.511  14
 -11   1   2 139.868 134.683  14
 -11  -1  -2 187.852 142.401   6
 -11  -1  -2 281.230 190.642  14
 -11  -1   2 161.516 79.9023  14
 -11   1   2 260.356 190.824   1
 -11  -1  -2 174.016 109.828   1
  11  -1   2 77.2907 94.1561  12
  11  -1   2-57.2308 186.559   5
  11   1   2 77.1248 48.5622  12
  11  -1  -2 222.292 188.546   5
  11   1   2 155.977 104.042   5
  11   1  -2 114.786 77.8089   5
 -11   1   2 185.854 162.870  11
  11  -1  -2 177.598 146.001   2
  11  -1   2 45.4162 65.8819  19
  11  -1  -2 57.6097 26.2683  19
  11   1   2 164.721 77.6977  19
  11   1  -2 51.5940 63.8851  19
  11  -1   2-30.7876 162.936   4
 -11   1  -2 200.209 131.515  18
 -11   1   2 125.636 89.9364  18
  11  -1  -2 146.653 116.821   4
 -11  -1   2 47.1624 201.833  18
  11   1   2 211.324 176.740   4
 -11  -1   2 243.054 171.508   1
 -11   1  -2 182.377 150.388   8
 -11   1   2 255.096 150.103   8
 -11   1   3 40.1906 114.539   8
  11   1  -3-20.3126 96.8470   4
 -11   1  -3 77.7713 169.985   1
  11  -1  -3-64.2142 148.430  17
 -11  -1   3 54.3460 96.7247   8
  11   1  -3 109.433 102.885  17
 -11  -1   3 41.2207 84.5554   1
  11   1   3 85.6832 144.022   7
 -11   1  -3-124.994 233.846   6
  11   1   3-23.0441 88.8253  15
 -11   1  -3-19.8382 120.711  14
 -11  -1  -3 35.5548 92.9226   6
 -11   1   3 103.124 151.077  14
 -11  -1  -3-6.74688 37.5113  14
 -11  -1   3 45.0827 46.4861  14
 -11  -1  -3 8.28429 72.1635   1
 -11   1   3 78.3622 158.154   1
  11   1   3-1.76526 51.2168  12
  11   1   3 29.3025 73.4084   5
  11  -1  -3-74.3813 55.9250   5
 -11   1   3-140.250 42.0424  11
  11   1  -3 55.9088 73.7150   5
  11  -1   3 112.229 181.376  19
  11  -1  -3 46.5765 78.6741   2
  11   1   3 66.8914 2.51371  19
  11  -1  -3 33.9025 90.4802  19
  11   1  -3-6.36241 60.0469  19
  11  -1   3-225.855 334.065   4
 -11   1   3 35.0994 91.8997  18
  11  -1  -3 64.8985 116.165   4
  11   1   3-71.3524 127.142   4
 -11  -1   3-109.430 258.853  18
 -11   1  -3 115.500 153.288   8
 -11  -1  -3 40.8069 38.6418   8
  11  -1  -4 1217.12 390.237  17
  11   1  -4 1127.44 419.379  17
  11   1   4 1156.72 411.103   7
 -11  -1  -4 1807.92 420.654   6
 -11  -1   4 1167.17 374.690   1
 -11   1  -4 1494.13 461.819   6
  11   1   4 942.778 369.033  15
 -11   1   4 1900.82 556.397  14
 -11  -1  -4 1551.95 444.667  14
 -11   1  -4 1457.02 496.342  14
 -11  -1   4 1304.40 416.131  14
 -11  -1  -4 1670.67 461.309   1
  11   1   4 675.092 243.163  12
 -11   1   4 1357.12 428.021   1
  11   1   4 752.998 310.462   5
  11   1  -4 1411.69 323.651   2
  11  -1  -4 1037.30 379.073   5
 -11   1   4 2190.16 611.902  11
  11   1  -4 1286.89 405.148   5
  11   1  -4 1303.01 354.496  19
  11  -1   4 184.303 205.909  19
  11   1   4 753.158 320.982  19
  11  -1  -4 957.396 321.438  19
  11   1  -4 1391.62 417.063   4
  11  -1  -4 1062.11 291.702   2
 -11   1   4 1903.58 436.805   8
 -11   1   4 1869.69 478.996  18
 -11  -1   4 1537.57 468.781   8
  11   1   4 931.378 363.487   4
  11  -1  -4 1215.87 397.012   4
 -11   1  -4 1532.89 515.074   1
 -11  -1   4 484.214 86.8647  18
 -11   1  -4 1819.19 517.474   8
 -11  -1  -4 1654.82 432.159   8
 -11   1   5 103.392 133.552   8
  11  -1  -5-7.69789 172.592  17
  11   1  -5 11.2669 103.916   4
 -11  -1   5 5.51691 19.4363   8
  11   1  -5-99.2121 232.607  17
  11   1  -5-30.4333 84.2545   2
  11   1   5-184.490 234.610   7
 -11  -1  -5 59.3875 45.2897   1
 -11   1  -5-152.621 287.273   6
  11   1   5-57.6073 164.870  15
 -11  -1  -5-110.747 159.196   6
 -11   1  -5 200.321 220.806  14
 -11  -1   5 10.3138 81.3473   1
 -11  -1  -5-65.4815 136.986  14
 -11   1   5 223.588 201.820  14
 -11  -1   5-100.931 131.929  14
  11   1   5-34.8259 18.6062  12
  11   1   5 226.116 189.123   5
  11  -1  -5 43.9804 84.0417   5
 -11   1   5-39.6144 152.339   1
 -11   1   5-76.5136 198.090  11
  11   1  -5-4.22464 67.9548   5
  11  -1   5 252.250 243.581  19
  11   1   5-64.1082 100.516  19
  11  -1  -5 3.18200 67.5625  19
  11   1  -5-38.5662 86.8548  19
 -11   1  -5 18.5984 146.359   1
  11  -1  -5 96.6118 111.844   2
  11   1   5-155.855 165.254   4
 -11   1   5 30.2029 93.7580  18
 -11   1  -5-60.9824 173.600   8
 -11  -1   5-328.653 472.344  18
  11  -1  -5-27.1062 96.6351   4
 -11  -1  -5 2.71929 56.1541   8
  11   1   6 1765.56 516.866   7
 -11   1  -6 3263.61 722.929   6
 -11  -1  -6 4364.84 682.424   6
  11   1   6 1302.90 390.480  15
 -11   1  -6 3926.72 824.980  14
 -11  -1  -6 3694.67 694.485  14
 -11   1   6 3466.22 738.772  14
 -11  -1   6 2970.32 643.351  14
 -11   1  -6 2519.96 684.163   1
 -11  -1  -6 4410.27 815.662   1
  11  -1  -6 2606.29 616.450   5
  11   1  -6 3247.79 646.398   5
 -11   1   6 3287.18 701.602   1
  11   1   6 922.188 379.306  12
  11   1   6 1367.48 438.556   5
 -11  -1   6 2153.42 572.551   1
  11  -1  -6 2870.67 506.077   2
  11   1  -6 3643.71 595.760   2
 -11   1   6 3827.69 820.484  11
  11  -1  -6 2408.78 504.828  19
  11   1  -6 3678.47 638.199  19
  11   1   6 1293.79 435.943  19
  11  -1  -6 2746.40 580.245   4
  11   1  -6 3897.84 677.576   4
 -11   1  -6 4355.24 843.422   8
 -11  -1  -6 4244.26 738.742   8
 -11   1   6 3734.38 723.911  18
 -11   1   6 3918.77 665.713   8
 -11  -1   6 3165.72 759.849   8
  11   1   6 1348.64 431.700   4
  11  -1  -6 2329.79 627.125  17
  11   1  -6 2945.36 760.451  17
 -11  -1  -7 202.933 214.800   1
  11  -1  -7-161.821 215.158  17
 -11   1   7-2.99966 8.70892   8
  11   1  -7-177.204 260.405  17
  11   1  -7-81.6292 101.768   4
  11   1   7-331.698 250.797   7
  11   1  -7-8.20054 88.4492   2
 -11   1  -7-367.447 375.187   6
  11   1   7-251.464 307.882  15
 -11  -1  -7-95.3928 155.081   6
 -11   1  -7 51.4905 149.965  14
 -11  -1  -7 158.132 160.134  14
 -11   1   7-113.675 187.689  14
 -11  -1   7 69.4895 101.651  14
 -11  -1   7 139.144 134.951   1
  11   1   7 68.1521 26.1384  12
  11   1   7-57.9420 236.035   5
  11  -1  -7 144.091 124.730   5
 -11   1  -7-212.309 283.202   1
 -11   1   7-167.778 328.881  11
  11   1  -7-154.059 164.621   5
  11  -1   7-139.086 175.679  19
  11   1   7-95.2007 195.743  19
 -11   1   7 81.9151 170.957   1
  11  -1  -7-21.7071 79.4234  19
  11   1  -7-101.758 121.669  19
  11   1   7-141.514 149.724   4
 -11   1   7-116.814 143.320  18
 -11   1  -7-164.481 210.041   8
  11  -1  -7 162.730 146.555   2
 -11  -1  -7 36.1834 61.0580   8
  11  -1  -7-51.4717 92.4801   4
  11  -1  -8 1548.25 521.394  17
  11   1  -8 1535.45 514.626  17
 -11  -1  -8 3012.24 682.352   6
 -11   1  -8 1109.47 357.550   6
 -11  -1  -8 2460.89 635.729  14
 -11   1  -8 1529.54 509.956  14
 -11   1   8 2064.50 575.773  14
 -11  -1   8 1579.65 486.151  14
 -11  -1  -8 3123.92 918.912   1
  11   1  -8 2293.08 600.548   5
  11   1   8 267.709 196.952  12
 -11   1   8 1764.18 569.525   1
 -11  -1   8 1278.93 466.702   1
  11  -1  -8 1955.37 465.733   2
  11   1  -8 2926.33 595.540   2
  11  -1  -8 1682.72 508.500   5
 -11   1   8 1793.47 579.906  11
  11  -1  -8 1917.26 468.770  19
  11   1  -8 2519.03 554.432  19
  11  -1   8 168.704 258.792  19
  11   1   8 611.590 382.517  19
  11   1  -8 2139.00 564.538   4
 -11   1  -8 2706.81 714.719   8
 -11  -1  -8 2774.11 650.997   8
 -11   1   8 1943.29 568.177  18
  11  -1  -8 1679.29 463.807   4
  11  -1  -9 35.8919 22.9009   4
  11  -1  -9 8.38335 99.0917  17
  11   1  -9-251.311 278.803  17
  11   1  -9 47.1701 97.1597   4
  11   1  -9 53.4484 84.3519   2
 -11   1  -9-530.555 519.592  14
 -11   1   9 150.701 160.101  14
 -11  -1   9 71.4919 228.873  14
  11  -1  -9 85.3622 125.395   5
 -11  -1   9 136.605 214.242   1
 -11   1   9-317.166 390.663  11
  11   1  -9-44.4884 58.4988   5
  11  -1   9-232.834 369.643  19
  11   1   9 579.589 628.960  19
 -11  -1  -9 271.202 405.415   1
  11  -1  -9-16.8317 122.363  19
 -11   1   9 41.6738 127.234   1
 -11   1  -9-108.399 127.866   8
 -11   1   9-102.346 189.574  18
  11  -1  -9-54.8088 61.7900   2
  11  -1 -10 818.092 337.575   4
  11  -1 -10 839.285 357.391   2
  11  -1 -10 666.774 333.760  17
  11   1 -10 101.061 184.382  17
  11   1 -10 1010.76 376.295   4
  11   1 -10 886.367 382.350   2
 -11  -1 -10 751.265 316.224   6
 -11   1 -10-7.77566 308.359  14
 -11  -1 -10 873.274 352.026  14
 -11   1  10 434.812 293.652  14
 -11  -1  10 445.802 248.375  14
  11  -1 -10 703.197 367.373   5
  11   1 -10 1412.26 525.847   5
  11   1  10 44.3902 148.463  19
 -11  -1  10 528.722 326.920   1
  11  -1 -10 534.697 257.797  19
 -11   1 -10 1206.95 538.207   8
 -11   1  10 581.844 327.631  18
 -11  -1 -10 1138.80 397.719   8
 -11   1  10 507.212 265.395   1
  11  -1 -11 48.4597 62.5805   4
 -11   1  11-69.3177 58.8971   1
  11  -1 -11-86.4271 215.521  17
  11   1 -11-331.754 429.188  17
  11   1 -11-32.5368 142.460   4
  11   1 -11 111.138 172.880   2
 -11  -1 -11-201.430 170.085   6
 -11  -1 -11-161.234 157.363  14
 -11   1  11 72.0247 29.8728  14
 -11  -1  11 71.2677 97.3966  14
  11  -1 -11 18.5942 108.990   5
  11   1 -11-18.1178 146.662   5
  11   1  11 36.5663 24.5943  19
  11  -1 -11-14.2751 75.2016  19
 -11  -1  11 149.029 197.844   1
 -11   1 -11 304.472 305.975   8
 -11   1  11 18.4143 59.9523  18
 -11  -1 -11 121.056 159.930   8
  11  -2   0 65.1239 140.868  17
  11   2   0 33.5558 34.5822   4
 -11  -2   0-25.5735 116.288   8
 -11  -2   0-10.0155 25.4618   1
 -11   2   0 65.6869 153.580   1
 -11   2   0-23.9329 130.705  14
 -11  -2   0 82.0624 72.3789  14
 -11  -2   0-61.9967 75.3015   6
  11  -2   0-173.631 271.471   5
  11   2   0-86.4788 215.115  12
  11   2   0 122.473 112.566   5
  11  -2   0-109.725 177.957  19
  11   2   0 31.8802 83.4185  19
 -11   2   0 20.0778 57.0139  18
 -11   2   0 12.7820 76.5781   8
  11  -2   1 72.5532 6.83507  17
 -11   2  -1 452.875 318.906   1
  11   2   1 238.187 139.502   4
  11  -2  -1 104.616 124.774  17
 -11  -2  -1 299.332 206.336   8
  11   2  -1 58.1849 105.251   4
 -11  -2   1 158.959 133.162   8
  11   2  -1-300.290 500.329  17
 -11   2   1 201.510 189.462   1
 -11  -2   1 105.395 80.9011   1
 -11   2  -1 238.837 250.501  14
 -11   2   1 118.938 137.693  14
 -11  -2  -1 107.978 122.363  14
 -11  -2   1 110.788 132.299  14
 -11  -2  -1 223.465 139.471   6
 -11  -2   1 82.4996 53.9579   6
  11  -2  -1 122.245 99.5777   5
  11   2   1-20.0469 74.4524  12
 -11   2   1 282.256 185.165  11
  11   2   1 37.9470 106.232   5
  11   2  -1 140.872 133.763   5
  11  -2   1 48.1916 180.048  19
  11  -2  -1-12.9089 71.4053  19
  11   2   1 249.430 173.270  19
  11   2  -1 158.768 138.767  19
  11  -2  -1 45.3476 81.4998   4
 -11   2  -1 163.616 65.1385  18
 -11   2   1 262.862 150.334  18
 -11  -2  -1 158.935 96.7136   1
 -11   2  -1 219.686 204.821   8
 -11   2   1 170.834 124.186   8
  11  -2  -2 81.0350 135.164  17
 -11  -2  -2-66.1002 103.578   8
 -11  -2   2 51.3288 136.235   8
  11   2  -2-162.630 155.778   4
 -11   2   2 62.8874 138.667   1
 -11   2  -2-44.5392 159.421  14
 -11   2   2 9.09535 31.5321  14
 -11  -2   2-103.412 121.719   1
 -11  -2  -2-144.453 124.212  14
 -11  -2  -2 49.5793 75.7636   6
 -11  -2   2 49.0084 52.5236  14
  11  -2  -2 215.660 156.944   5
  11   2   2-35.0044 182.564  12
 -11   2   2-80.0438 119.644  11
  11   2   2-5.99938 21.5456   5
  11   2  -2 51.9035 83.3466   5
  11  -2   2-18.4660 97.6750  19
 -11  -2  -2 64.1023 124.697   1
  11  -2  -2-136.477 147.945  19
  11   2   2-22.4557 90.1070  19
  11   2  -2-64.5732 82.2170  19
  11  -2  -2-240.888 249.836   4
 -11   2  -2 11.4489 95.9961  18
 -11   2   2 70.0457 83.7635  18
 -11   2  -2 115.865 181.383   1
 -11   2  -2 68.5054 94.1722   8
 -11   2   2-1.19572 72.7411   8
  11   2   2 91.9928 87.3510   4
  11  -2   2-48.8909 128.093  17
 -11  -2  -3 87.9599 84.3674   8
  11  -2  -3-63.3003 96.2049  17
 -11  -2   3 54.0473 94.2299   8
  11   2  -3 76.4451 72.5615   4
 -11   2  -3 101.198 180.908  14
 -11   2   3 99.8646 161.568   1
 -11   2   3 159.263 168.440  14
 -11  -2  -3 85.3864 124.467  14
 -11  -2  -3 109.315 72.3188   6
 -11  -2   3 70.9976 110.582  14
 -11  -2   3 59.3533 92.0009   1
  11  -2  -3 46.9936 90.1576   5
  11   2   3 16.7918 92.8649  12
  11   2   3 165.663 132.308   5
 -11   2   3 205.457 203.962  11
 -11  -2  -3 68.7629 118.839   1
  11  -2  -3-54.0413 116.723   2
  11   2  -3-94.8808 135.230   5
  11  -2   3 75.9694 191.878  19
  11  -2  -3-33.5499 112.661  19
  11   2   3 40.4909 118.361  19
  11   2  -3 153.048 134.075  19
 -11   2  -3 125.462 109.868   1
 -11   2  -3 193.603 125.333  18
  11  -2  -3-2.83506 97.8308   4
 -11   2   3 127.669 111.244  18
 -11   2  -3 184.616 196.208   8
  11   2   3 92.6630 153.837   4
 -11   2   3 11.9400 88.0279   8
 -11  -2  -4 276.360 231.615   8
  11  -2  -4-93.4413 140.703  17
 -11  -2   4 117.781 7.72662   8
  11   2  -4 196.960 170.724   4
  11   2   4 148.577 178.116  15
 -11   2  -4 70.6605 12.2388  14
 -11   2   4 209.359 133.539  14
 -11  -2  -4 65.7860 108.085   6
 -11  -2  -4 145.940 147.613  14
 -11   2   4 35.5663 107.302   1
 -11  -2   4 18.8465 66.8309  14
 -11  -2  -4 111.420 97.9372   1
  11   2   4 241.773 190.411  12
 -11  -2   4 96.1332 87.5464   1
  11  -2  -4 45.1979 43.5888   5
  11   2   4 115.878 152.510   5
 -11   2   4 130.488 121.754  11
  11   2  -4 19.2324 127.929   5
  11  -2  -4-59.7786 106.084   2
  11  -2   4 165.865 173.918  19
 -11   2  -4 59.1987 204.487   1
  11  -2  -4 34.4576 96.3398  19
  11   2   4 69.5039 113.472  19
  11   2  -4 115.442 89.7799  19
  11  -2  -4 62.7018 93.2419   4
 -11   2   4 21.2419 72.2626  18
 -11   2  -4 75.3093 96.9717   8
  11   2   4-2.52715 50.9955   4
 -11   2   4 205.868 139.185   8
  11  -2  -5 883.504 326.118  17
 -11  -2   5 284.968 123.836   8
  11   2   5 911.479 384.258   7
 -11  -2  -5 1634.63 373.896   6
  11   2   5 1037.66 400.486  15
 -11   2  -5 1082.87 460.040  14
 -11   2   5 1397.22 514.496  14
 -11  -2  -5 1215.82 353.552  14
 -11  -2   5 1221.57 427.136  14
 -11   2   5 1359.19 455.139   1
 -11  -2  -5 1773.43 455.697   1
  11   2  -5 1548.20 472.188   5
  11   2   5 604.278 283.361  12
  11  -2  -5 840.517 348.019   5
  11   2   5 672.388 272.107   5
 -11   2   5 2381.53 617.626  11
  11   2  -5 1685.25 423.284   2
 -11   2  -5 761.539 308.482   1
 -11  -2   5 1051.98 386.014   1
  11   2  -5 1328.10 392.076  19
  11  -2   5 207.736 333.384  19
  11  -2  -5 914.126 308.172   2
  11  -2  -5 972.995 340.823  19
  11   2   5 728.121 326.843  19
  11   2  -5 1486.03 430.673   4
 -11  -2  -5 1538.42 434.699   8
 -11   2   5 1807.94 431.500   8
  11  -2  -5 886.832 352.587   4
 -11   2   5 1569.97 477.819  18
 -11   2  -5 1502.13 487.584   8
  11   2   5 713.871 296.790   4
 -11   2   6-4.76271 86.7433   8
  11  -2  -6 148.799 218.378  17
  11   2  -6-58.1895 49.4870   4
  11   2   6 24.7548 137.003   7
  11   2   6-88.1621 91.9681  15
  11   2  -6 182.545 180.143   2
 -11   2  -6-558.542 477.702  14
 -11  -2  -6 50.0047 95.8068   1
 -11   2   6-137.418 225.680  14
 -11  -2  -6-16.1931 66.1888   6
 -11  -2  -6-110.632 137.292  14
 -11  -2   6-11.0051 99.2422  14
 -11   2   6 8.86827 56.2733   1
  11   2   6-10.2532 124.598  12
  11   2   6 66.5938 143.277   5
  11  -2  -6 7.46414 68.2651   5
 -11   2   6-138.946 125.355  11
  11   2  -6-53.7250 120.334   5
  11   2   6 16.4289 108.344  19
  11  -2  -6 62.4288 148.716  19
  11  -2  -6 163.362 150.572   2
  11   2  -6-28.8392 137.107  19
 -11  -2   6 226.864 237.646   1
 -11   2   6-32.6559 117.670  18
  11  -2  -6 146.840 199.888   4
 -11   2  -6-55.0939 79.1433   8
  11   2   6 35.9664 107.224   4
 -11  -2  -6-2.94962 25.6084   8
 -11  -2   7 910.512 387.251   1
  11  -2  -7 1248.10 429.712  17
  11   2  -7 1373.61 420.696   4
  11   2   7 1000.00 432.282   7
 -11  -2  -7 1689.09 424.927   6
  11   2   7 911.119 390.290  15
 -11  -2  -7 1692.82 462.201  14
 -11   2  -7 695.189 200.196  14
  11   2  -7 1825.05 513.813   2
 -11   2   7 1500.99 527.834  14
 -11  -2   7 977.497 392.149  14
 -11  -2  -7 2283.52 605.590   1
  11   2  -7 1823.46 532.627   5
 -11   2   7 1277.07 468.582   1
  11   2   7 844.851 364.962  12
  11   2   7 950.678 375.533   5
  11  -2  -7 905.274 384.733   5
 -11   2   7 1904.86 578.897  11
  11   2   7 692.844 328.376  19
  11  -2  -7 1142.02 346.199  19
  11   2  -7 1362.16 379.799  19
  11  -2  -7 989.124 331.369   2
  11   2   7 958.909 354.725   4
 -11   2   7 1492.03 458.634  18
 -11   2  -7 1528.70 569.770   8
  11  -2  -7 1103.66 420.300   4
 -11  -2  -7 1275.63 388.518   8
  11  -2  -8 17.4435 64.4105  17
  11   2   8 465.177 582.566   7
  11   2  -8 15.5457 89.2923   4
 -11  -2   8 107.668 109.503   1
  11   2   8 576.788 576.531  15
  11   2  -8 179.735 230.205   2
 -11   2   8 236.959 241.707  14
 -11  -2   8 103.882 122.752  14
  11   2   8 2079.32 778.390   5
  11   2   8 976.341 440.095  12
 -11   2   8-113.741 130.560   1
  11  -2  -8 190.033 210.757   5
 -11   2   8 289.128 269.312  11
  11   2  -8 37.5230 134.260   5
  11   2   8 2562.81 670.454  19
  11   2   8 1103.82 654.002   4
  11  -2  -8 67.4092 45.6493  19
  11  -2  -8 9.37595 29.7826   2
 -11   2  -8 370.457 322.301   8
 -11   2   8 54.0899 104.205  18
  11  -2  -8 209.268 244.901   4
  11  -2  -9 669.457 391.375  17
  11   2   9 1016.85 615.603   7
  11   2  -9 765.123 362.901   4
  11   2   9 1474.88 694.216  15
  11   2  -9 839.155 419.413   2
 -11  -2   9 495.207 356.645   1
 -11   2   9 501.919 371.624  14
 -11  -2   9 516.392 287.627  14
 -11  -2  -9 1724.25 910.409   1
  11   2   9 281.733 281.180  12
  11  -2  -9 319.938 203.448   5
 -11   2   9 446.315 237.256   1
 -11   2   9 538.007 368.059  11
  11   2  -9 1011.95 501.246   5
  11   2   9 620.636 419.356  19
  11  -2  -9 500.059 237.196  19
  11   2   9 561.051 480.280   4
  11  -2  -9 405.582 216.233   2
 -11   2  -9 906.341 460.347   8
 -11   2   9 716.816 369.136  18
  11  -2  -9 575.305 341.352   4
  11  -2 -10 59.7852 113.980  17
  11   2  10-134.665 331.949   7
  11   2  10-327.098 386.456  15
 -11  -2 -10 31.7925 109.539   6
 -11  -2 -10 16.4492 127.734  14
 -11   2  10-105.486 68.4181  14
 -11  -2  10 246.815 292.514  14
 -11  -2  10 26.4223 383.121   1
  11   2  10 3.31914 138.032  12
  11  -2 -10 154.226 71.9965   5
 -11   2  10 44.3743 295.837  11
 -11   2  10-108.367 191.509   1
  11   2  10 105.365 156.346  19
  11  -2 -10 1.63576 72.0837  19
  11   2  10-284.653 284.531   4
 -11   2 -10 44.6503 208.026   8
  11  -2 -10-5.46683 146.108   2
 -11   2  10 47.4881 105.281  18
  11  -2 -10 30.0272 92.5055   4
 -11  -2 -10-56.3979 149.859   8
 -11  -3   0 1327.25 335.486   6
 -11   3   0 1618.04 650.016  14
 -11  -3   0 1321.12 399.728  14
 -11  -3   0 1182.22 364.971   1
  11   3   0 1426.41 386.374   5
  11   3   0 1525.21 410.928  19
  11  -3   0-145.953 234.774  19
  11   3   0 1748.16 446.151   4
 -11   3   0 1839.40 486.134   8
 -11   3   0 1873.74 446.812  18
 -11  -3   0 1406.98 429.702   8
 -11   3   0 1614.75 529.037   1
  11  -3   0 94.6542 83.3582  17
 -11  -3  -1 33.9886 69.5820   8
  11   3   1 43.6213 86.3286   4
 -11  -3   1 86.9913 131.581   8
  11   3  -1-24.6115 57.2994   4
 -11   3  -1-169.243 277.202  14
 -11   3   1-116.195 215.512  14
 -11  -3  -1 151.267 151.620   1
 -11  -3  -1 68.1167 59.2726  14
 -11  -3   1-72.7301 105.217  14
 -11  -3  -1 12.6243 54.1545   6
 -11  -3   1 54.7835 21.2993   6
  11   3   1-128.957 217.259  12
 -11  -3   1 176.050 231.100   1
  11   3   1-0.42182 60.1011   5
  11   3  -1 35.5535 108.425   5
  11  -3   1-40.1064 112.965  19
  11  -3  -1-122.139 123.904  19
  11   3   1 66.3737 92.9801  19
  11   3  -1-21.4218 54.2027  19
 -11   3  -1-46.4238 140.171   1
 -11   3  -1 69.2789 71.1067  18
 -11   3   1 8.16659 77.9066  18
 -11   3  -1 68.7071 90.0743   8
 -11   3   1 152.120 166.831   8
 -11   3   1 188.662 204.416   1
  11  -3   1 8.21198 20.9302  17
  11  -3  -1 26.8063 158.394  17
  11  -3  -2 79.8014 96.6711  17
  11   3   2 387.867 207.006   4
 -11  -3  -2 582.748 250.474   8
 -11   3   2 389.491 291.843   1
 -11  -3   2 372.879 248.763   8
  11   3  -2 437.048 217.970   4
 -11  -3  -2 309.664 172.440   1
 -11   3  -2-137.882 328.567  14
 -11   3   2 485.191 305.485  14
 -11  -3  -2 215.366 157.255  14
 -11  -3   2 162.179 148.650  14
 -11  -3  -2 516.559 221.547   6
 -11  -3   2 386.649 167.627   6
  11   3   2 321.292 248.886  12
  11   3   2 479.972 226.503   5
  11   3  -2 526.375 269.295   5
  11  -3   2-118.374 99.8626  19
  11  -3  -2 432.849 280.899  19
 -11   3  -2 344.112 198.131   1
  11   3   2 344.353 189.544  19
 -11  -3   2 462.287 237.874   1
  11   3  -2 489.395 225.906  19
 -11   3  -2 567.658 234.293  18
 -11   3   2 600.200 271.145  18
 -11   3  -2 334.950 239.193   8
 -11   3   2 657.361 307.592   8
  11  -3   2 78.8707 34.3457  17
  11  -3  -3-124.640 135.540  17
  11   3   3 112.609 90.2007   4
 -11  -3  -3 122.254 133.052   8
 -11  -3   3-208.460 350.242   8
 -11   3   3 62.5727 106.272   1
  11   3  -3 84.3199 76.0429   4
 -11   3  -3-740.362 590.610  14
 -11   3   3 186.693 186.169  14
 -11  -3  -3 141.379 116.385  14
 -11  -3   3-26.7089 75.0166  14
 -11  -3  -3 160.703 123.642   6
  11  -3  -3-797.626 370.815   5
  11   3   3 139.763 150.616  12
 -11   3   3 416.222 281.033  11
  11   3   3 91.9368 101.597   5
 -11   3  -3-25.2057 273.074   1
  11   3  -3 166.109 149.606   5
  11  -3  -3 204.114 187.798  19
  11   3   3 168.310 166.647  19
  11   3  -3 62.8428 31.2143  19
 -11   3  -3 147.112 118.493  18
 -11   3   3 188.749 207.287  18
 -11   3  -3 179.233 115.439   8
 -11  -3  -3 149.124 121.091   1
 -11   3   3 86.1875 91.6718   8
  11  -3   3 105.576 91.2110  17
 -11  -3   3 1.04419 72.5297   1
  11   3   4 127.112 157.032   4
  11  -3  -4 21.3104 28.3326  17
 -11  -3  -4 300.068 219.021   8
  11   3  -4 143.056 151.769   4
 -11   3   4 160.152 130.048   1
 -11  -3   4 69.1514 61.2388   1
 -11   3   4 332.827 347.274  14
 -11  -3  -4 57.7634 81.0793  14
 -11  -3  -4 131.419 110.805   6
 -11  -3   4 20.6276 56.2029  14
  11  -3  -4-82.2400 227.005   5
  11   3   4 61.3205 79.6991  12
 -11   3   4 185.930 146.267  11
  11   3   4 15.5162 79.4445   5
  11   3  -4 64.0252 110.777   5
  11  -3  -4 170.917 131.773  19
  11   3   4 100.829 61.1121  19
 -11  -3  -4 125.520 136.422   1
  11   3  -4 121.527 64.4760  19
 -11   3  -4 75.3231 73.6283  18
 -11   3   4 177.339 172.236  18
 -11   3  -4 213.418 186.735   8
 -11   3   4 126.606 89.2120   8
  11  -3  -5 86.2302 98.2286  17
 -11  -3  -5 146.230 131.833   8
  11   3  -5 252.314 159.585   4
 -11   3   5 334.312 201.680   1
 -11   3   5 369.594 231.187  14
 -11  -3  -5 316.984 168.683  14
 -11  -3  -5 290.637 139.720   6
 -11  -3   5 134.431 163.722  14
 -11  -3   5 249.223 187.185   1
  11  -3  -5 139.646 152.221   5
  11   3   5 125.092 94.0243  12
  11   3   5 283.518 194.409   5
 -11   3   5 295.908 178.124  11
 -11  -3  -5 295.795 211.222   1
  11  -3  -5-104.380 184.045   2
  11   3  -5 176.527 197.270   5
  11  -3  -5 1.81761 47.6253  19
  11   3   5 183.936 142.914  19
  11   3  -5 260.065 58.6029  19
  11  -3  -5-201.614 407.574   4
 -11   3   5 219.955 181.534  18
 -11   3  -5 316.768 287.312   8
  11   3   5 288.250 161.914   4
 -11   3   5 225.720 136.285   8
 -11  -3  -6 438.680 195.656   8
  11  -3  -6 44.9097 122.601  17
  11   3  -6 438.860 247.984   4
 -11   3   6 349.404 254.494   1
 -11   3   6 137.515 277.176  14
 -11  -3  -6 506.249 232.522  14
 -11  -3  -6 581.365 231.554   6
 -11  -3   6 457.629 294.242  14
 -11  -3  -6 565.419 228.641   1
  11  -3  -6 195.027 141.419   5
  11   3   6 293.994 274.240  12
 -11  -3   6 366.668 261.961   1
  11   3   6 304.009 199.828   5
 -11   3   6 688.836 367.925  11
  11  -3  -6 115.679 76.8665   2
  11   3  -6 792.773 391.915   5
  11  -3  -6 150.265 131.523  19
  11   3   6 232.053 180.582  19
  11  -3  -6 174.347 244.781   4
 -11   3   6 701.367 345.483  18
 -11   3  -6 831.407 447.871   8
  11   3   6 182.041 146.132   4
 -11  -3  -7 692.041 371.953   8
  11  -3  -7 87.2725 83.8284  17
  11   3   7-126.659 399.516  15
 -11   3   7 299.467 167.629  14
 -11   3   7 77.4304 93.3397   1
 -11  -3  -7 154.429 102.661   6
 -11  -3  -7 907.319 417.231  14
 -11  -3  -7 1130.15 524.030   1
  11   3   7 1232.02 513.745  12
  11  -3  -7 36.8266 122.579   5
  11   3   7 600.692 402.260   5
 -11   3   7 542.942 376.158  11
  11  -3  -7 52.5306 64.7789   2
  11  -3  -7 139.225 71.3694  19
  11   3   7 703.715 350.267  19
  11  -3  -7 45.0563 71.0718   4
 -11   3  -7 288.173 316.839   8
 -11   3   7 216.607 163.848  18
  11   3   7 97.1732 156.007   4
 -11  -3  -8 783.393 386.628   8
  11  -3  -8 251.857 214.023  17
  11   3   8-472.884 433.171   7
  11   3   8-186.502 311.961  15
 -11  -3  -8 1006.26 567.727   1
 -11   3   8 238.330 318.105  14
 -11  -3  -8 776.352 355.741   6
 -11  -3  -8 964.359 374.707  14
 -11   3   8 178.029 182.551   1
  11   3   8 502.163 363.600  12
  11  -3  -8 109.463 110.898   5
  11   3   8 20.9069 260.382   5
 -11   3   8 702.276 408.269  11
  11   3   8 190.941 198.188  19
  11  -3  -8 86.1354 68.9224   2
  11  -3  -8 144.169 139.126  19
  11  -3  -8 41.0123 185.325   4
 -11   3  -8 264.613 280.610   8
 -11   3   8 308.216 203.580  18
  11   3   8 171.672 254.299   4
  11  -3  -9 26.9688 47.8576  17
  11   3   9-63.6774 109.091   7
  11   3   9-151.624 168.487  15
 -11   3   9-168.474 209.390  14
 -11  -3  -9 4.45484 49.4858   6
 -11  -3  -9 19.0113 82.4890  14
 -11   3   9 55.0442 98.0387   1
  11   3   9-58.0378 144.450  12
  11   3   9 211.365 210.456   5
  11  -3  -9 170.632 231.490   5
 -11   3   9-17.1529 153.071  11
  11   3   9 9.68369 80.5889  19
  11  -3  -9 2.89550 43.5820  19
  11  -3  -9-39.5609 84.1202   2
  11  -3  -9 42.3055 59.5823   4
 -11   3  -9 570.000 434.922   8
 -11   3   9 41.5879 247.074  18
  11   3   9-93.0923 65.1581   4
 -11  -3  -9-78.2740 100.649   8
  11  -3 -10 229.106 230.664  17
  11   3  10-78.2032 213.917   7
  11   3  10-6.36206 211.898  15
  11   3  10 106.317 52.4701   5
 -11   3  10 104.342 37.8249  11
  11   3  10-136.996 222.606   4
  11  -3 -10-106.610 58.0103   4
 -11  -4   0 329.254 229.508   8
  11   4   0 234.992 142.570   4
 -11  -4   0 177.257 174.100  14
 -11  -4   0 98.1313 129.305   6
  11   4   0 335.174 199.123   5
 -11   4   0 34.7134 235.723   1
  11   4   0 247.672 163.256  19
 -11   4   0 180.967 180.440  18
 -11   4   0 185.857 145.972   8
 -11  -4   0 88.2949 141.932   1
  11  -4   0 262.587 199.101  17
 -11  -4   1 659.437 315.217   8
 -11  -4   1 888.211 345.049   1
 -11  -4  -1 1162.14 376.939  14
 -11  -4   1 1072.54 370.563  14
 -11  -4  -1 1440.43 409.566   6
 -11  -4   1 1254.06 423.601   6
  11   4   1 1898.27 461.083   5
  11   4  -1 1859.19 459.724   5
 -11   4  -1 860.847 344.040   1
 -11  -4  -1 1074.32 374.965   1
  11   4   1 1607.59 407.750  19
  11   4  -1 1744.29 439.427  19
  11  -4  -1-67.3727 105.586  19
 -11   4   1 1394.01 497.459   1
  11   4   1 1847.42 468.889   4
  11   4  -1 1637.30 444.306   4
 -11   4  -1 1581.22 408.795  18
 -11   4   1 1651.77 430.405  18
 -11  -4  -1 1546.32 460.251   8
 -11   4  -1 1662.37 484.875   8
 -11   4   1 1612.16 466.484   8
  11  -4   1 15.6573 130.071  17
 -11  -4  -2 199.335 200.821   8
  11   4   2 65.7045 73.3038   4
  11   4  -2 132.924 136.667   4
 -11  -4  -2 83.4911 138.257  14
 -11  -4   2 154.415 143.847  14
 -11  -4  -2 126.194 103.842   6
 -11  -4   2 117.735 208.958   6
 -11  -4   2 197.554 204.055   1
 -11  -4  -2 94.5035 119.202   1
  11   4   2-28.9352 196.166  12
  11   4   2 100.062 47.0256   5
  11   4  -2 42.6621 103.081   5
  11  -4  -2-47.6047 144.457  19
  11   4   2 128.636 100.581  19
  11   4  -2 102.407 109.511  19
 -11   4  -2 33.1820 16.6175  18
 -11   4   2 179.408 191.826   1
 -11   4   2 300.330 187.292  18
 -11   4  -2 310.916 270.033   8
 -11   4   2-19.0490 127.610   8
  11  -4   2 43.5263 119.279  17
  11  -4  -2-14.7039 68.5502  17
 -11  -4  -3 342.108 208.096   8
  11   4   3 362.671 206.952   4
  11   4  -3 312.515 229.365   4
 -11   4   3-455.172 606.984  14
 -11  -4  -3 241.923 157.783   1
 -11  -4  -3 333.209 193.503  14
 -11  -4   3 165.625 162.034  14
 -11  -4  -3 267.687 193.520   6
  11   4   3 176.768 113.357  12
  11   4   3 433.350 229.655   5
  11   4  -3 498.573 279.780   5
 -11  -4   3 203.818 234.094   1
  11  -4  -3 25.2677 61.7274  19
  11   4   3 289.630 172.344  19
  11   4  -3 190.281 62.6077  19
 -11   4  -3 184.994 145.973  18
 -11   4   3 136.199 107.206  18
 -11   4  -3 194.464 207.569   8
 -11   4   3 147.317 86.7065   1
 -11   4   3 397.809 220.168   8
  11  -4  -3 54.8479 147.760  17
  11  -4  -4 30.2877 201.384  17
  11   4   4 416.366 236.988   4
 -11  -4  -4 545.727 233.336   8
 -11  -4  -4 407.371 213.452   1
 -11   4   4-292.679 583.259  14
 -11  -4  -4 566.802 255.811  14
 -11  -4  -4 421.621 226.718   6
  11   4   4 356.667 234.312  12
  11   4   4 481.968 215.198   5
  11  -4  -4 75.2310 105.422  19
  11   4   4 410.396 207.593  19
 -11   4  -4 204.341 90.6320  18
 -11   4   4 478.093 242.948  18
 -11   4  -4 429.978 269.989   8
 -11   4   4 574.161 246.693   8
 -11   4   4 350.226 228.421   1
  11  -4  -5 70.1002 89.6664  17
  11   4   5-33.1345 135.161   4
 -11   4   5-2.13854 95.2049   1
 -11  -4  -5-182.116 146.458   8
 -11   4   5-509.766 698.757  14
 -11  -4  -5-7.81533 175.185  14
 -11  -4  -5 210.976 179.463   6
  11   4   5 59.3148 130.716  12
 -11   4   5 261.270 229.689  11
  11   4   5-168.052 135.588   5
  11  -4  -5 30.3574 89.3968  19
  11   4   5 88.7309 91.0113  19
 -11   4  -5 254.957 199.196   8
 -11   4   5 141.104 10.4998  18
 -11  -4  -5 11.6817 109.199   1
  11   4   6 477.566 217.415   4
  11  -4  -6 265.172 227.508  17
 -11  -4  -6 687.863 303.373   8
 -11   4   6 380.258 264.171   1
 -11   4   6 431.697 226.578  14
 -11  -4  -6 747.889 286.011  14
 -11  -4  -6 408.050 199.551   6
  11   4   6 58.5848 136.238  12
 -11   4   6 833.716 333.766  11
  11   4   6 254.345 124.885   5
  11  -4  -6 121.644 24.4485  19
 -11  -4  -6 262.104 105.241   1
  11   4   6 370.460 178.955  19
 -11   4  -6 548.122 423.941   8
 -11   4   6 528.644 306.898  18
  11  -4  -7-115.234 70.6044  17
 -11  -4  -7 21.1318 23.9433   8
 -11   4   7 15.8641 175.396   1
 -11  -4  -7 34.6213 68.8956  14
 -11  -4  -7-30.1195 66.8604   6
  11  -4  -7-341.720 330.907   5
  11   4   7 82.2296 119.105  12
 -11  -4  -7 171.020 140.533   1
  11   4   7-82.7589 81.7972   5
 -11   4   7-3.30021 97.4295  11
  11  -4  -7-103.496 185.568   2
  11  -4  -7-20.1428 132.384  19
  11   4   7 160.787 163.512  19
 -11   4   7 56.1723 55.1238  18
  11   4   7 78.1029 90.5769   4
  11  -4  -8 278.443 276.590  17
 -11  -4  -8 364.486 228.977   8
 -11   4   8 332.743 276.772   1
 -11   4   8-123.090 276.447  14
 -11  -4  -8 283.652 163.347  14
 -11  -4  -8 280.636 198.888   6
  11  -4  -8-268.036 359.205   5
  11   4   8 4.39715 66.5217  12
  11   4   8 196.710 192.546   5
 -11   4   8 399.491 222.990  11
  11  -4  -8 172.236 184.222   2
  11  -4  -8 279.537 208.226  19
  11   4   8 56.6994 39.8881  19
 -11   4   8 328.696 275.781  18
  11   4   8 67.5952 42.2778   4
  11   4   9-17.2916 90.6685   5
 -11  -5   0-240.012 375.939   8
 -11  -5   0 410.844 250.061  14
  11   5   0 1404.82 478.199   5
 -11  -5   0 437.593 259.136   1
  11   5   0 1202.98 381.765  19
  11   5   0 1842.64 546.756   4
 -11   5   0 615.605 260.032  18
 -11   5   0 476.576 249.733   8
  11  -5   0 220.050 206.557  17
 -11  -5  -1 18.0960 242.909   8
 -11  -5  -1 181.609 111.556  14
 -11  -5  -1 255.283 190.424   1
 -11  -5  -1 239.377 248.483   6
  11   5   1 1398.77 452.915   5
 -11   5   1-752.177 356.681   1
  11   5   1 710.881 309.220  19
  11   5   1 1386.68 557.875   4
 -11   5  -1 246.023 98.4191  18
 -11   5   1 488.565 252.329  18
 -11   5  -1 293.550 251.914   8
 -11   5   1 386.255 190.472   8
  11  -5  -1-51.0805 114.536  17
 -11  -5  -2 425.510 224.066   8
 -11  -5  -2 613.917 268.521   1
  11   5   2 1396.37 445.516   4
 -11  -5  -2 538.444 254.394  14
 -11  -5  -2 801.049 405.652   6
 -11   5   2 458.825 223.203   1
  11   5   2 1318.42 385.922   5
  11   5   2 1083.95 357.854  19
 -11   5  -2 461.908 180.420  18
 -11   5   2 1000.62 354.700  18
 -11   5  -2 659.899 324.681   8
 -11   5   2 916.696 327.581   8
  11  -5  -2 110.691 182.210  17
 -11  -5  -3 502.280 277.278   8
  11   5   3 562.692 263.294   4
 -11  -5  -3 431.220 238.281  14
 -11  -5  -3 298.853 229.448   6
  11   5   3 838.978 324.728   5
  11  -5  -3 74.3938 21.1788  19
 -11   5   3 256.909 114.361   1
  11   5   3 719.547 288.375  19
 -11  -5  -3 133.138 108.383   1
 -11   5   3 564.749 272.011  18
 -11   5  -3 400.188 256.504   8
 -11   5   3 636.095 278.054   8
  11  -5  -3 133.630 181.354  17
 -11  -5  -4 37.6716 128.450   8
  11   5   4-67.0557 171.337   4
 -11  -5  -4-96.6985 19.8333  14
 -11  -5  -4-54.2446 153.768   6
 -11  -5  -4 25.1491 39.1280   1
  11   5   4-26.2245 142.805  12
  11   5   4-32.4580 139.456   5
  11  -5  -4-101.469 215.539  19
 -11   5   4 88.7282 157.326   1
  11   5   4 16.2731 91.8553  19
 -11   5   4 259.485 191.984  18
 -11   5   4-13.2112 123.759   8
  11  -5  -4-29.0902 32.1749  17
  11   5   5 497.242 259.518   4
 -11  -5  -5 366.502 235.012   8
 -11  -5  -5 391.558 203.417   1
 -11  -5  -5 505.914 247.284  14
 -11  -5  -5 726.430 281.918   6
  11   5   5 473.613 252.404  12
  11   5   5 664.574 281.650   5
  11  -5  -5 149.875 224.992  19
  11   5   5 427.166 217.006  19
 -11   5   5 403.981 306.312   1
 -11   5   5 441.139 260.423  18
  11  -5  -5 161.119 159.623  17
  11  -5  -6 19.5165 82.8874  17
  11   5   6 26.7899 71.8190   4
 -11  -5  -6 91.5248 160.130   8
 -11  -5  -6 99.3371 50.9542   1
 -11  -5  -6 110.726 115.507  14
 -11  -5  -6 28.2164 55.1621   6
  11   5   6 110.736 132.683  12
  11   5   6 42.3131 63.3516   5
  11  -5  -6-33.3497 93.9761  19
  11   5   6 189.483 143.636  19
 -11   5   6 48.4924 74.0146  18
 -11   5   6 167.266 193.889   1
  11  -5  -7-63.6555 213.098  17
  11   5   7 924.352 378.317   4
 -11  -5  -7 812.417 283.388   8
 -11  -5  -7 843.666 301.858  14
 -11  -5  -7 1133.59 361.952   6
  11   5   7 1131.09 418.393  12
  11   5   7 1176.90 364.443   5
  11  -5  -7 62.4852 77.2883  19
  11   5   7 1000.27 333.126  19
 -11   5   7 981.115 357.754  18
 -11   5   7 951.646 444.400   1
 -11   6   0 607.121 228.755  18
 -11   6   0 361.728 190.330   8
 -11   6   1 348.047 218.750  18
 -11   6   1 224.796 157.004   8
  11  -6  -1-18.2005 116.265  17
 -11  -6  -2-225.660 505.190   8
  11   6   2 1194.16 476.735   4
  11   6   2 297.758 145.562  19
 -11   6   2 614.992 280.458  18
 -11   6   2 407.806 238.026   8
  11  -6  -2-140.346 238.124  17
  11   6   3-121.859 206.343   4
 -11  -6  -3 50.1317 131.718  14
 -11  -6  -3 230.313 306.893   6
 -11  -6  -3 55.4836 102.572   1
  11   6   3 82.9807 173.540   5
  11   6   3-128.892 183.653  19
 -11   6   3-95.4622 141.747  18
 -11   6   3-71.1239 121.616   8
  11  -6  -3-72.9307 125.509  17
 -11  -6  -4 182.924 114.693   8
  11   6   4 895.798 402.601   4
 -11  -6  -4 410.679 213.170   1
 -11  -6  -4 448.593 261.614  14
 -11  -6  -4 159.119 198.127   6
 -11   6   4-117.701 330.956   1
  11   6   4 759.693 351.306   5
  11   6   4 631.871 261.251  19
 -11   6   4 452.274 264.917  18
  11  -6  -4 41.9109 139.713  17
  11   6   5 399.650 279.465   4
  11   6   5 207.328 64.7698   5
  11  -6  -5 111.988 36.4777  19
  11   6   5 131.875 144.946  19
  11  -6  -5-176.791 255.373  17
 -12   0   0 537.826 267.240   8
 -12   0   0 427.862 251.313  14
 -12   0   0 391.591 276.146   1
  12   0   0 303.258 201.287   5
  12   0   0 195.493 153.055  19
 -12   0   0 664.466 269.794  18
  12   0   0 162.227 80.2078   4
 -12   0   1-12.9006 53.5931   8
  12   0  -1-93.0941 164.194  17
 -12   0  -1 6.79408 115.712  14
 -12   0   1 70.2131 135.291  14
 -12   0  -1 64.8685 163.706   1
 -12   0   1-113.705 167.406   1
  12   0   1 93.3839 176.151   5
  12   0  -1-40.8280 61.9587   5
  12   0   1 6.25187 140.099  19
  12   0  -1 3.31540 83.3176  19
  12   0   1 129.931 125.726   4
 -12   0   1 55.8776 90.9535  18
  12   0  -1-141.703 122.240   4
 -12   0  -1 0.90973 34.6097   8
 -12   0   2 902.935 347.923   8
  12   0  -2 573.841 343.542  17
 -12   0  -2 616.691 328.383   1
 -12   0  -2 854.616 368.678  14
 -12   0   2 648.291 333.894  14
  12   0   2 158.240 163.910   5
 -12   0   2 544.748 284.149   1
  12   0  -2 635.681 290.770   5
  12   0   2 153.824 171.923  19
  12   0  -2 446.390 227.803  19
  12   0   2 400.354 268.761   4
 -12   0   2 1052.56 396.562  18
  12   0  -2 391.928 241.907   4
 -12   0  -2 688.439 310.543   8
 -12   0   3-180.625 183.594   8
  12   0  -3-60.3825 222.393  17
 -12   0  -3 22.2479 96.2330   1
 -12   0  -3 382.806 365.805  14
 -12   0   3 109.293 118.547  14
  12   0   3 156.852 275.076  12
  12   0   3 95.5088 205.430   5
  12   0  -3-7.51038 67.7622   5
 -12   0   3 67.0080 123.176   1
  12   0   3 338.761 292.873  19
  12   0  -3 72.5004 71.9505  19
  12   0   3 166.478 226.470   4
 -12   0   3 100.810 219.441  18
  12   0  -3-4.08921 42.8665   4
 -12   0  -3 205.236 217.276   8
  12   0  -4 1802.24 565.762  17
 -12   0  -4 3836.19 763.744   6
 -12   0  -4 3036.98 712.103  14
 -12   0   4 2712.73 669.594  14
 -12   0  -4 3048.46 694.355   1
  12   0  -4 2126.93 557.484   5
 -12   0   4 2429.16 589.660   1
  12   0   4 641.692 194.918  12
  12   0   4 1002.12 402.093   5
  12   0  -4 2116.13 490.821  19
  12   0   4 1248.04 469.828  19
 -12   0  -4 3429.28 703.884   8
 -12   0   4 2707.57 683.764  18
 -12   0   4 3188.13 637.401   8
  12   0   4 609.729 251.841   4
  12   0  -4 1939.16 499.925   4
 -12   0  -5 126.155 239.911   1
 -12   0   5-55.6346 137.310   8
  12   0  -5-4.00885 58.2874  17
 -12   0  -5 44.9407 111.826   6
 -12   0  -5-22.7899 49.3769  14
 -12   0   5-139.957 216.123  14
  12   0   5-157.963 221.390   5
  12   0   5 4.79158 209.426  12
  12   0  -5-77.8343 111.091   5
  12   0   5-49.0369 168.606  19
  12   0  -5-50.1766 134.914  19
 -12   0   5 163.544 136.471   1
  12   0   5 77.2948 54.6271   4
 -12   0   5-125.069 170.665  18
 -12   0  -5-95.3816 128.046   8
  12   0  -5-83.3434 106.437   4
 -12   0  -6 5263.98 878.627   6
 -12   0  -6 4491.92 847.750  14
 -12   0   6 3828.55 818.075  14
 -12   0  -6 4893.54 964.475   1
  12   0  -6 3418.23 716.121   5
  12   0   6 504.062 268.567  12
 -12   0   6 4072.94 807.547   1
  12   0  -6 3771.27 611.257   2
  12   0  -6 4030.51 698.468  19
  12   0   6 674.478 329.480  19
  12   0  -6 3547.36 724.512   4
 -12   0  -6 5318.56 908.688   8
 -12   0   6 3982.97 850.301  18
 -12   0   6 4902.38 925.334   8
  12   0  -6 2954.83 744.683  17
  12   0  -7-115.488 171.112   4
  12   0  -7-17.6578 13.4772  17
 -12   0   7-125.921 201.814   8
 -12   0  -7-90.4557 115.695   6
 -12   0  -7 5.54492 136.734  14
 -12   0   7-109.364 37.0405  14
  12   0  -7-7.87538 114.448   5
  12   0   7-18.5143 93.4976  19
  12   0  -7-9.19267 54.6805  19
 -12   0  -7-84.6982 134.070   1
 -12   0   7-71.4816 206.705  18
 -12   0  -7 155.629 214.802   8
 -12   0   7-5.05016 66.0240   1
  12   0  -7-105.880 137.543   2
 -12  -1   0-13.7705 95.8804   8
  12  -1   0-17.1720 193.105  17
 -12   1   0 74.5138 152.530   1
 -12   1   0-66.1008 59.6626  14
 -12  -1   0 99.4397 165.830  14
  12  -1   0-22.8326 92.4056   5
  12   1   0-65.2034 54.4874   5
 -12  -1   0 114.185 133.022   1
  12  -1   0-70.6695 66.2426  19
  12   1   0-63.9061 120.604  19
  12  -1   0-271.447 224.269   4
 -12   1   0 131.062 150.621  18
  12   1   0 14.4449 67.2831   4
 -12   1   0-160.767 148.007   8
 -12  -1  -1 282.101 175.439   8
 -12  -1   1 195.398 185.890   8
  12  -1  -1 514.560 299.215  17
 -12   1  -1 115.281 169.312   1
 -12   1  -1 71.0117 124.450  14
 -12   1   1 534.959 292.345  14
 -12   1   1 316.959 263.854   1
 -12  -1  -1 206.603 180.906  14
 -12  -1   1 267.298 204.834  14
 -12  -1  -1 240.806 180.332   1
  12  -1   1-167.928 269.048   5
  12  -1  -1 217.144 230.452   5
  12   1   1 336.354 223.845   5
  12   1  -1 116.009 83.5957   5
 -12  -1   1 137.654 104.439   1
  12  -1   1 24.5773 86.1929  19
  12  -1  -1 69.4659 135.720  19
  12   1   1 108.520 100.732  19
  12   1  -1-15.1463 122.464  19
  12  -1   1-45.2914 130.666   4
  12  -1  -1 48.8562 151.995   4
 -12   1   1 296.430 180.048  18
 -12  -1   1-61.0333 317.206  18
  12   1   1 91.4063 44.1925   4
 -12   1  -1 311.032 174.134   8
  12   1  -1 247.542 184.281   4
 -12   1   1 187.724 137.674   8
 -12   1   2 5.23391 127.287   8
 -12  -1  -2 41.5688 63.9632   8
  12  -1  -2 26.9818 226.782  17
 -12  -1   2 19.7914 77.1092   8
  12   1  -2-216.302 281.645  17
 -12   1  -2 108.369 200.708   1
  12   1   2 21.6304 68.8197   7
  12   1   2 84.0467 212.002  15
 -12   1  -2 164.185 243.912  14
 -12   1   2 56.9903 164.763  14
 -12  -1  -2-13.7943 73.5521  14
 -12  -1   2-73.7375 150.046  14
 -12   1   2 6.94932 38.4664   1
 -12  -1  -2 163.525 186.254   1
  12  -1   2-676.293 334.406   5
  12   1   2-65.5454 60.0862  12
  12  -1  -2 441.136 327.542   5
  12   1   2 100.822 151.366   5
  12   1  -2 28.8141 113.200   5
  12  -1   2-178.997 233.077  19
  12  -1  -2 26.1564 167.564  19
  12   1   2 11.9927 151.041  19
  12   1  -2-23.6574 133.054  19
 -12  -1   2-67.7206 94.4653   1
  12  -1   2-153.405 290.638   4
  12  -1  -2 160.066 271.813   4
 -12   1   2-101.388 96.2718  18
  12   1   2 96.6815 79.2021   4
 -12  -1   2-422.442 455.569  18
 -12   1  -2 55.4808 53.9149   8
  12   1  -2-95.0417 194.881   4
 -12  -1  -3 1692.88 472.842   8
  12   1  -3 826.254 327.491   4
 -12   1  -3 1665.45 557.124   1
  12  -1  -3 1186.24 503.842  17
 -12  -1   3 1285.77 436.710   8
  12   1  -3 445.874 258.651  17
  12   1   3 893.364 323.965   7
 -12  -1  -3 1841.86 446.397   6
  12   1   3 813.465 331.174  15
 -12   1  -3 1526.83 517.918  14
 -12   1   3 1181.01 469.279  14
 -12  -1  -3 1603.12 487.165  14
 -12  -1   3 1168.98 412.118  14
 -12  -1  -3 1520.39 462.177   1
 -12   1   3 1196.40 411.432   1
  12   1   3 500.127 238.915  12
  12   1   3 718.057 328.352   5
  12  -1  -3 920.014 373.740   5
  12   1  -3 1071.69 397.246   5
  12  -1   3 92.8957 54.9966  19
  12   1   3 957.521 366.991  19
  12  -1  -3 801.709 317.793  19
  12   1  -3 1158.16 375.232  19
 -12   1  -3 1986.57 549.263   8
 -12   1   3 1745.55 459.726   8
  12  -1   3-161.209 277.995   4
 -12   1   3 1503.31 477.486  18
  12  -1  -3 1097.32 428.797   4
  12   1   3 596.571 256.957   4
 -12  -1   3 1106.31 407.027   1
 -12  -1   3 423.598 173.305  18
 -12   1   4 40.4168 31.1186   8
  12   1  -4-106.521 148.274   4
 -12  -1   4 122.080 179.966   1
  12  -1  -4 177.792 143.627  17
 -12  -1   4 50.0360 148.008   8
  12   1  -4-60.9699 150.727  17
  12   1   4 251.037 118.578   7
  12   1   4 55.4841 25.1993  15
 -12  -1  -4 121.036 173.643   1
 -12  -1  -4-4.39186 28.9923   6
 -12   1  -4-108.627 198.474  14
 -12   1   4-40.1559 47.5587  14
 -12  -1  -4 15.4069 98.8359  14
 -12  -1   4 23.9096 93.5539  14
 -12   1   4 97.9437 129.196   1
  12   1   4 380.091 242.644  12
  12   1   4 538.815 356.156   5
  12  -1  -4-16.2479 196.261   5
  12   1  -4 1.40666 183.588   5
 -12   1   4 133.657 203.399  11
  12  -1   4-44.9800 52.3154  19
  12   1   4 277.063 309.754  19
  12  -1  -4 250.888 197.730  19
  12   1  -4 62.1556 106.058  19
  12   1   4 241.780 250.799   4
 -12   1   4-107.651 194.804  18
  12  -1  -4-114.964 244.637   4
 -12   1  -4-73.1962 166.753   1
 -12  -1   4-523.481 539.525  18
 -12   1  -4 135.728 224.731   8
 -12  -1  -4 1.77603 126.847   8
  12  -1  -5 1621.89 545.547  17
  12   1  -5 1931.35 686.591  17
  12   1   5 1269.79 472.507   7
 -12  -1  -5 3347.43 636.794   6
 -12   1  -5 2554.44 649.365   6
  12   1   5 1286.15 452.608  15
 -12   1  -5 2832.94 706.398  14
 -12  -1  -5 2769.18 632.419  14
 -12   1   5 2767.77 719.453  14
 -12  -1   5 1984.96 571.178  14
 -12   1  -5 2420.88 675.637   1
 -12  -1  -5 3018.16 673.775   1
  12   1  -5 2306.28 569.796   5
 -12   1   5 2521.74 631.954   1
  12   1   5 410.817 324.317  12
 -12  -1   5 1996.33 562.393   1
  12   1   5 1294.95 497.614   5
  12  -1  -5 1867.75 421.981   2
  12  -1  -5 1614.56 508.027   5
 -12   1   5 2833.22 706.708  11
  12  -1  -5 2061.51 494.918  19
  12   1  -5 2707.32 571.046  19
  12  -1   5 214.601 217.456  19
  12   1   5 947.353 368.169  19
  12   1  -5 2085.12 533.980   4
 -12   1  -5 3443.27 783.410   8
 -12  -1  -5 2778.54 630.230   8
 -12   1   5 3300.30 721.794  18
 -12   1   5 3102.20 634.642   8
 -12  -1   5 2699.86 689.451   8
  12   1   5 1112.53 444.805   4
  12  -1  -5 1964.74 554.145   4
 -12   1   6 39.2441 122.094   8
  12   1  -6-172.126 178.349   4
  12  -1  -6 24.0904 98.2055  17
  12   1  -6-77.5593 148.227  17
 -12  -1   6-252.177 374.471   8
 -12  -1  -6-109.734 158.740   1
  12   1   6-337.989 353.852   7
 -12   1  -6-447.122 457.020   6
  12   1   6-366.254 313.993  15
 -12  -1   6-178.369 219.414   1
 -12  -1  -6-99.4070 141.140   6
 -12   1  -6 71.9959 229.191  14
 -12  -1  -6-42.8109 122.374  14
 -12   1   6-23.9776 200.709  14
 -12  -1   6-118.751 159.574  14
  12   1   6-74.9817 41.4343  12
  12   1   6-81.4231 131.691   5
  12  -1  -6-68.3787 139.292   5
 -12   1   6-39.0865 72.6028   1
  12   1  -6-166.821 170.757   5
 -12   1   6-150.149 363.101  11
  12  -1   6-248.176 274.599  19
 -12   1  -6 3.61455 250.465   1
  12   1   6 49.9852 55.9752  19
  12  -1  -6 70.8097 91.7181  19
  12   1  -6 7.36038 53.5045  19
  12  -1  -6-23.6113 120.543   2
  12   1   6 99.3320 46.8324   4
 -12   1   6-43.0153 119.823  18
 -12   1  -6-7.89964 82.6505   8
  12  -1  -6-166.685 225.644   4
 -12  -1  -6 4.45378 23.2150   8
 -12  -1   7 2908.01 921.310   8
 -12   1  -7 3827.63 800.037   6
 -12  -1  -7 5584.40 879.619   6
 -12   1  -7 4038.64 931.349  14
 -12  -1  -7 4436.00 813.632  14
 -12   1   7 3965.35 866.019  14
 -12  -1   7 3487.23 760.643  14
 -12   1  -7 3002.01 704.459   1
 -12  -1  -7 5620.33 995.990   1
  12  -1  -7 3007.29 730.263   5
  12   1  -7 4510.49 836.321   5
 -12   1   7 3976.01 842.456   1
  12   1   7 547.236 294.862   5
  12   1   7 757.654 331.212  12
 -12  -1   7 2675.77 684.151   1
  12  -1  -7 3139.83 576.938   2
  12   1  -7 4917.62 737.684   2
 -12   1   7 4074.25 911.999  11
  12  -1  -7 3587.34 663.866  19
  12   1  -7 4608.55 776.508  19
  12  -1   7 53.0627 212.928  19
  12   1   7 1270.02 424.905  19
  12  -1  -7 3620.45 727.385   4
  12   1  -7 4641.40 803.785   4
 -12   1  -7 5295.46 974.690   8
 -12  -1  -7 4933.26 869.859   8
 -12   1   7 4717.12 919.831  18
 -12   1   7 5138.06 916.538   8
  12   1   7 937.574 396.042   4
  12  -1  -7 3091.14 747.577  17
  12   1  -7 2896.75 749.717  17
  12   2   0-146.572 168.801   4
  12  -2   0 32.7119 57.1364  17
 -12  -2   0-39.9992 51.3998   8
 -12   2   0-160.135 246.172   1
 -12   2   0 107.769 159.577  14
 -12  -2   0-20.6825 153.119  14
  12  -2   0-275.780 316.768   5
  12   2   0-114.820 154.197   5
  12  -2   0 11.6572 132.652  19
  12   2   0 83.0624 54.3669  19
 -12   2   0-125.891 218.187  18
 -12  -2   0 5.57735 38.0316   1
 -12   2   0-78.2622 190.760   8
 -12   2  -1 111.079 215.253   1
  12  -2  -1 29.8344 68.4199  17
  12   2  -1 126.175 97.2653   4
 -12  -2   1 39.9106 109.843   1
 -12  -2  -1-28.5384 85.5487   8
 -12  -2   1 86.3761 108.617   8
 -12   2   1-100.927 178.105   1
 -12   2  -1-42.3027 125.205  14
 -12   2   1-41.5709 151.337  14
 -12  -2  -1-22.2150 101.436  14
 -12  -2   1 109.566 138.339  14
  12  -2  -1-92.2245 231.129   5
  12   2   1-82.8393 177.704  12
  12   2   1 13.6429 59.7583   5
  12   2  -1 105.371 139.984   5
  12  -2   1 226.075 264.233  19
  12  -2  -1-138.196 240.191  19
  12   2   1-83.4945 125.317  19
 -12  -2  -1 20.5906 58.5315   1
  12   2  -1-32.9242 83.7861  19
  12  -2  -1 38.2737 259.508   4
 -12   2  -1-49.3543 95.3813  18
 -12   2   1-114.360 221.225  18
 -12   2  -1-20.6061 39.7813   8
 -12   2   1-65.8160 148.554   8
  12   2   1 82.0091 71.2900   4
  12  -2  -2 27.4314 69.1176  17
 -12  -2  -2 145.397 146.649   8
  12   2  -2-11.7267 63.8111   4
 -12  -2   2-33.9866 44.3504   8
 -12  -2   2-99.5872 75.9019   1
 -12   2   2 152.529 114.665   1
 -12   2  -2 150.044 190.437  14
 -12   2   2 265.595 259.408  14
 -12  -2  -2 151.377 159.860  14
 -12  -2  -2 8.15398 128.956   6
 -12  -2   2 16.5395 104.002  14
  12  -2  -2 147.372 177.625   5
  12   2   2 173.855 157.878  12
  12   2   2-88.3534 170.036   5
  12   2  -2 100.079 126.740   5
 -12  -2  -2 27.7594 42.5997   1
  12  -2   2 250.426 206.472  19
  12  -2  -2 134.946 195.374  19
  12   2   2 74.6343 76.7676  19
  12   2  -2 6.68168 38.6570  19
  12  -2  -2-103.780 208.375   4
 -12   2   2 143.282 153.909  18
 -12   2  -2 315.520 318.377   1
 -12   2  -2 25.1411 209.358   8
  12   2   2 5.30546 118.689   4
 -12   2   2 139.341 168.354   8
 -12  -2  -3-37.4447 57.9041   8
  12  -2  -3-278.110 253.370  17
  12   2  -3-34.4818 137.179   4
 -12  -2   3-48.0535 92.9215   8
  12   2   3 65.4760 136.865  15
 -12  -2   3 148.947 129.029   1
 -12   2   3 64.5224 125.569   1
 -12   2  -3 148.960 193.524  14
 -12   2   3-65.2841 184.366  14
 -12  -2  -3 143.464 131.706   6
 -12  -2  -3 122.915 126.683  14
 -12  -2   3 14.5372 48.2391  14
  12  -2  -3 286.038 225.937   5
 -12  -2  -3-75.4317 141.597   1
  12   2   3 40.4210 67.5662  12
  12   2   3 77.3077 161.934   5
 -12   2   3 36.4723 109.121  11
  12   2  -3-128.627 166.679   5
  12  -2   3-40.9376 131.433  19
  12  -2  -3 139.791 115.088  19
  12   2   3 401.782 250.107  19
  12   2  -3-92.2977 123.932  19
 -12   2  -3 184.846 233.193   1
  12  -2  -3-89.4119 249.441   4
 -12   2   3-78.3976 127.441  18
 -12   2  -3 23.2902 11.2987   8
  12   2   3 53.0065 77.7327   4
 -12   2   3 9.18749 109.897   8
 -12   2   4 1132.93 355.311   8
 -12  -2  -4 940.300 359.053   8
  12  -2  -4 422.557 300.014  17
  12   2  -4 713.869 326.441   4
 -12  -2   4 810.780 375.047   8
  12   2   4 477.283 271.953   7
  12   2   4 543.141 300.815  15
 -12   2  -4 773.161 375.412  14
 -12   2   4 1127.31 488.161  14
 -12   2   4 1070.82 453.525   1
 -12  -2  -4 1010.15 334.988   6
 -12  -2  -4 1064.50 373.916  14
 -12  -2   4 544.538 311.627  14
 -12  -2   4 680.722 328.296   1
 -12  -2  -4 980.483 349.285   1
  12   2   4 374.672 251.790  12
  12  -2  -4 692.012 390.477   5
  12   2   4 295.641 183.227   5
 -12   2   4 1369.47 503.663  11
  12   2  -4 922.029 350.595   5
  12  -2  -4 400.746 198.421   2
  12  -2   4 67.9539 181.083  19
  12  -2  -4 465.570 267.579  19
 -12   2  -4 596.148 315.698   1
  12   2   4 364.052 252.440  19
  12   2  -4 736.962 294.734  19
  12  -2  -4 380.961 232.338   4
 -12   2   4 1347.16 453.056  18
 -12   2  -4 1320.73 468.913   8
  12   2   4 603.816 283.871   4
 -12  -2  -5-26.0849 114.557   8
 -12   2   5-66.2158 86.5807   8
  12  -2  -5 229.670 200.793  17
  12   2  -5-19.6691 54.3776   4
 -12  -2   5-338.777 471.318   8
  12   2   5 74.6360 222.271   7
  12   2   5 83.7959 99.5734  15
 -12   2  -5-145.844 320.791  14
 -12   2   5 106.008 122.177  14
 -12  -2  -5-8.94381 100.166   6
 -12  -2  -5-141.921 148.691  14
 -12  -2   5 20.4121 92.2073  14
 -12  -2  -5 13.1999 142.663   1
 -12   2   5 58.3712 96.4483   1
 -12  -2   5-21.5364 104.928   1
  12   2   5 22.7744 138.352  12
  12  -2  -5 189.579 277.495   5
  12   2   5-115.867 86.5761   5
 -12   2   5-134.242 114.502  11
  12   2  -5-104.500 216.056   5
 -12   2  -5-289.323 345.988   1
  12  -2  -5-36.6227 77.9791   2
  12  -2   5 61.3665 117.664  19
  12  -2  -5 39.5868 38.1168  19
  12   2   5 58.0574 158.930  19
  12   2  -5 24.0525 83.9714  19
  12  -2  -5-233.465 215.817   4
 -12   2   5-80.2362 133.218  18
  12   2   5 45.2660 52.3733   4
 -12   2  -5 48.3716 62.5222   8
  12  -2  -6 1422.75 491.664  17
  12   2   6 1577.89 466.337   7
 -12  -2  -6 2254.92 501.014   6
  12   2   6 1377.10 489.407  15
 -12  -2  -6 2195.79 545.326  14
 -12   2  -6 1661.57 535.165  14
 -12   2   6 1993.25 669.744  14
 -12  -2   6 1643.65 535.355  14
 -12   2   6 1961.92 587.667   1
 -12  -2  -6 2827.05 651.576   1
  12   2  -6 2174.36 586.873   5
  12   2   6 945.840 354.402  12
 -12  -2   6 1452.87 500.648   1
  12   2   6 1212.06 441.980   5
  12  -2  -6 1099.60 435.900   5
 -12   2   6 2892.68 726.655  11
  12   2  -6 2361.75 556.304  19
  12  -2   6 157.968 210.294  19
  12  -2  -6 1516.81 398.159   2
  12   2   6 818.209 328.727  19
  12  -2  -6 1630.18 448.646  19
  12   2  -6 2566.01 593.570   4
 -12  -2  -6 2581.85 603.672   8
 -12   2   6 2764.54 658.002  18
 -12   2   6 2974.29 597.944   8
  12  -2  -6 1501.10 518.173   4
  12   2   6 1156.02 407.504   4
 -12   2  -6 2409.32 671.198   8
  12  -2  -7 60.7730 106.429  17
  12   2  -7-171.950 180.311   4
  12   2   7 182.124 170.313   7
 -12  -2  -7-234.392 216.663   1
  12   2   7 59.6866 35.2470  15
 -12   2  -7-784.683 595.912  14
 -12   2   7 269.998 196.089  14
 -12  -2  -7-79.2122 93.6172  14
  12   2   7-27.2063 87.5396   5
  12  -2  -7 56.1231 133.330   5
 -12   2   7 141.456 242.900  11
 -12  -2   7 269.716 260.918   1
  12   2  -7 10.2876 133.104   5
  12  -2   7 281.960 270.626  19
  12   2   7-30.8415 105.360  19
  12  -2  -7 78.9767 130.410  19
  12   2  -7-123.574 213.508  19
  12   2   7-200.621 237.098   4
  12  -2  -7-40.8292 126.748   4
 -12   2   7-63.7466 176.160  18
 -12   2  -7 21.6388 207.061   8
 -12  -2  -7 19.6264 8.83631   8
  12  -3   0-30.2307 82.5933  17
  12   3   0-39.8332 97.5328   4
 -12  -3   0 44.0093 71.3790   8
 -12  -3   0-14.7816 44.8811   1
 -12   3   0-205.391 234.593  14
 -12  -3   0 83.3986 59.9276  14
  12   3   0 69.0450 97.4216   5
  12  -3   0 57.7618 89.0661  19
  12   3   0 2.43317 102.757  19
 -12   3   0 69.8183 94.3033  18
 -12   3   0 165.970 228.307   1
 -12   3   0 10.5418 149.514   8
  12  -3  -1 182.735 171.355  17
  12   3   1 516.371 225.757   4
 -12  -3  -1 518.630 251.101   8
  12   3  -1 721.279 315.259   4
 -12  -3   1 518.781 290.545   8
 -12  -3  -1 562.392 253.331   1
 -12   3  -1 233.070 99.0788  14
 -12   3   1 468.986 379.101  14
 -12  -3  -1 576.411 276.829  14
 -12  -3   1 475.519 279.511  14
 -12  -3  -1 702.312 276.575   6
 -12  -3   1 297.100 204.180   1
  12   3   1 251.029 180.897  12
  12   3   1 600.990 275.439   5
  12   3  -1 532.575 273.900   5
  12  -3   1 54.0650 127.409  19
  12  -3  -1-11.0003 133.827  19
  12   3   1 606.800 294.976  19
  12   3  -1 534.915 236.495  19
 -12   3  -1 668.590 396.759   1
 -12   3  -1 853.882 349.386  18
 -12   3   1 882.048 317.794  18
 -12   3  -1 695.323 359.714   8
 -12   3   1 598.433 263.786   8
 -12   3   1 630.392 303.196   1
  12  -3   1-87.5054 129.177  17
  12  -3  -2-0.56638 155.628  17
  12   3   2 4.72068 39.2484   4
 -12   3   2 87.3697 184.054   1
 -12  -3  -2 68.7152 122.425   8
  12   3  -2 60.1628 123.620   4
 -12  -3   2-46.4746 133.852   8
 -12   3  -2-639.338 514.776  14
 -12   3   2-89.8329 132.715  14
 -12  -3  -2-30.0441 71.7618  14
 -12  -3   2 41.4460 26.3882  14
 -12  -3  -2 86.3358 62.3080   6
 -12  -3   2 113.703 157.423   1
  12   3   2 13.2920 115.628  12
 -12   3   2 141.260 195.089  11
  12   3   2 149.328 149.265   5
  12   3  -2-8.77019 140.596   5
  12  -3   2-215.618 240.866  19
  12  -3  -2-66.4519 87.8576  19
 -12   3  -2-21.8291 150.503   1
  12   3   2 122.880 55.1003  19
  12   3  -2 43.9712 76.8575  19
 -12   3  -2 97.0318 79.4334  18
 -12   3   2 101.457 160.579  18
 -12   3  -2 105.559 185.158   8
 -12  -3  -2 56.8928 121.054   1
 -12   3   2-62.9248 62.1895   8
  12   3   3 117.392 124.348   4
  12  -3  -3 148.203 123.706  17
 -12  -3  -3 117.034 125.824   8
 -12   3   3 59.3650 129.170   1
  12   3  -3 28.4473 88.3327   4
 -12  -3   3-482.843 315.684   8
 -12   3  -3-586.664 566.650  14
 -12   3   3 1.47089 174.588  14
 -12  -3  -3-42.5622 67.7058  14
 -12  -3  -3 1.68265 82.7645   6
 -12  -3   3 60.5472 118.184  14
  12   3   3 112.601 98.6290  12
 -12   3   3-62.0119 157.915  11
 -12  -3   3-67.3828 187.658   1
  12   3   3-36.6113 72.6572   5
  12   3  -3 105.903 155.420   5
 -12   3  -3-27.3750 72.4866   1
  12  -3   3-132.067 123.922  19
  12  -3  -3-5.95446 134.606  19
  12   3   3 69.6099 127.954  19
  12   3  -3 35.4284 90.1660  19
 -12  -3  -3-37.9028 27.6401   1
 -12   3   3-94.8978 225.929  18
 -12   3  -3 169.770 178.635   8
 -12   3   3 73.2514 88.8451   8
  12  -3  -4 7.53653 185.525  17
 -12  -3  -4-51.3381 44.8440   8
  12   3  -4-53.3825 82.8362   4
 -12   3   4 56.5861 140.992   1
 -12   3   4 27.5803 138.064  14
 -12  -3  -4-84.5295 89.4854  14
 -12  -3  -4 65.1438 60.7893   6
 -12  -3   4-12.9819 83.4966  14
  12  -3  -4-650.812 349.093   5
  12   3   4 58.5742 100.351  12
  12   3   4 41.0128 27.5705   5
 -12   3   4-64.9417 202.153  11
 -12   3  -4-481.764 381.973   1
 -12  -3  -4 42.9397 4.33678   1
  12   3  -4 89.6632 101.843   5
  12  -3   4 116.196 152.310  19
  12  -3  -4-98.1911 193.657  19
 -12  -3   4-58.1844 77.8555   1
  12   3   4 33.8495 93.3402  19
  12   3  -4 83.2049 112.517  19
 -12   3   4 15.1002 93.2665  18
 -12   3  -4 120.560 195.649   8
 -12   3   4 91.2618 85.2423   8
  12   3   4 69.6189 106.820   4
  12  -3  -5 208.300 262.717  17
 -12  -3  -5 676.982 314.166   8
  12   3  -5 499.046 278.389   4
 -12   3   5 224.122 223.106   1
 -12   3   5 174.106 204.420  14
 -12  -3  -5 536.942 272.552  14
 -12  -3  -5 486.668 241.455   6
 -12  -3   5 237.665 254.532  14
  12  -3  -5 25.8840 196.623   5
 -12  -3  -5 502.908 236.479   1
  12   3   5 418.412 272.349  12
  12   3   5 288.417 180.542   5
 -12   3   5 763.978 345.676  11
  12  -3  -5-233.751 298.391   2
  12   3  -5 538.930 305.517   5
  12  -3  -5 179.229 183.173  19
  12   3   5 163.024 130.330  19
  12   3  -5 285.407 175.643  19
  12  -3  -5-294.750 379.985   4
 -12   3   5 324.373 266.874  18
 -12   3  -5 514.548 321.097   8
 -12  -3   5 243.835 211.998   1
  12   3   5 311.527 178.256   4
 -12   3   5 754.563 320.692   8
  12  -3  -6-58.3915 65.6147  17
  12   3   6-182.492 211.127   5
  12   3  -6 241.656 258.055   5
  12  -3  -6 17.6711 85.6592  19
  12  -3  -6-275.654 311.122   4
  12   3   6-41.2670 38.6711   4
 -12  -4   0 971.162 420.259   8
  12   4   0 1653.96 494.330   4
 -12  -4   0 807.177 338.560  14
 -12  -4   0 995.332 337.427   6
 -12  -4   0 1048.94 392.563   1
  12   4   0 1735.26 466.396   5
  12   4   0 1809.06 465.858  19
  12  -4   0 64.4932 81.9811  19
 -12   4   0 788.086 339.973   1
 -12   4   0 1607.65 438.141  18
 -12   4   0 1262.45 416.500   8
  12  -4   0-129.775 103.436  17
  12   4   1-117.000 165.579   4
 -12  -4  -1 83.8217 157.497   8
 -12  -4   1-626.212 349.336   8
  12   4  -1 17.0900 61.9765   4
 -12  -4  -1 118.928 147.848  14
 -12  -4   1-128.484 145.006  14
 -12  -4  -1 40.4005 107.573   6
 -12  -4   1 4.59567 103.778   6
 -12  -4  -1-44.9160 88.7806   1
  12   4   1-151.409 155.716   5
 -12   4  -1-165.616 322.531   1
  12   4  -1 191.609 185.484   5
  12  -4   1-38.7542 220.306  19
  12  -4  -1-51.0379 105.813  19
 -12  -4   1-17.2608 62.9614   1
 -12   4   1 8.42526 128.037   1
  12   4   1 11.6404 56.4553  19
  12   4  -1-68.5354 105.373  19
 -12   4  -1-6.77193 98.8949  18
 -12   4   1-67.5558 74.4454  18
 -12   4  -1-4.21492 89.4551   8
 -12   4   1-126.174 168.063   8
  12  -4   1 55.8835 100.633  17
  12  -4  -1 248.109 204.599  17
  12   4   2 586.839 287.295   4
 -12  -4  -2 414.210 254.031   8
 -12  -4   2-306.855 526.920   8
  12   4  -2 744.638 326.774   4
 -12  -4  -2 160.490 126.181   1
 -12  -4  -2 158.779 125.919  14
 -12  -4   2 208.980 206.248  14
 -12  -4  -2 396.519 236.901   6
  12   4   2 306.153 116.788  12
  12   4   2 378.380 189.090   5
  12   4  -2 503.412 265.442   5
  12  -4  -2-56.2330 100.025  19
  12   4   2 447.456 230.451  19
  12   4  -2 419.777 211.426  19
 -12   4   2 234.792 200.314   1
 -12   4  -2 302.036 193.217  18
 -12   4   2 469.071 268.641  18
 -12   4  -2 489.769 357.394   8
 -12   4   2 667.783 317.076   8
  12  -4   2-178.790 181.930  17
 -12  -4   2 95.2002 134.756   1
  12  -4  -2 29.8982 139.518  17
  12  -4  -3 61.5788 64.7369  17
  12   4   3-10.3082 32.3773   4
 -12  -4  -3-25.1990 44.0319   8
  12   4  -3-62.7783 76.3004   4
 -12  -4  -3-72.0694 186.957   1
 -12  -4   3 164.434 176.889   1
 -12   4   3-361.956 693.783  14
 -12  -4  -3-9.63887 49.5967  14
 -12  -4   3 246.253 235.505  14
 -12  -4  -3 288.398 185.898   6
  12   4   3 210.465 243.975  12
  12   4   3 59.9485 157.367   5
  12   4  -3 89.1059 132.324   5
  12  -4  -3 230.539 268.172  19
  12   4   3 157.595 176.377  19
  12   4  -3-102.841 141.517  19
 -12   4  -3-15.5329 116.840  18
 -12   4   3 133.683 76.1994  18
 -12   4  -3 153.264 228.535   8
 -12   4   3 133.177 130.298   1
 -12   4   3 65.7184 104.861   8
  12  -4  -4 70.4715 174.925  17
  12   4   4-5.85328 61.1590   4
  12   4  -4 39.3558 162.546   4
 -12   4   4-610.326 642.037  14
 -12  -4   4 258.341 301.065   1
 -12   4   4 206.486 263.037  11
  12   4   4 219.152 187.294   5
  12   4  -4-21.1186 126.263   5
  12  -4  -4 213.605 120.067  19
  12   4   4 32.5724 79.3506  19
 -12   4  -4 122.600 209.923   8
 -12   4   4-115.139 93.6458   8
   0   0   0    0.00    0.00   0

TITL HFMOF@9 in P4/mnc
REM P4/mnc (#128 in standard setting)
CELL 0.71073  19.342983  19.342983  32.307165  90.0000  90.0000  90.0000
ZERR   16.00   0.000814   0.000814   0.001884   0.0000   0.0000   0.0000
LATT  1
SYMM -x,-y, z
SYMM -y, x, z
SYMM  y,-x, z
SYMM -x+1/2, y+1/2,-z+1/2
SYMM  x+1/2,-y+1/2,-z+1/2
SYMM  y+1/2, x+1/2,-z+1/2
SYMM -y+1/2,-x+1/2,-z+1/2
SFAC C H O Hf
UNIT 576.00 704.00 128.00 16.00
TREF
HKLF 4
END
;
_shelx_hkl_checksum              27942
_shelx_shelxl_version_number     2014/7
_olex2_submission_special_instructions 'No special instructions were received'
_oxdiff_exptl_absorpt_empirical_details
;
Empirical correction (ABSPACK) includes:
- Absorption correction using spherical harmonics
- Frame scaling
;
_oxdiff_exptl_absorpt_empirical_full_max 4.056
_oxdiff_exptl_absorpt_empirical_full_min 0.505
loop_
_space_group_symop_operation_xyz
'x, y, z'
'-x, -y, z'
'-y, x, z'
'y, -x, z'
'-x+1/2, y+1/2, -z+1/2'
'x+1/2, -y+1/2, -z+1/2'
'y+1/2, x+1/2, -z+1/2'
'-y+1/2, -x+1/2, -z+1/2'
'-x, -y, -z'
'x, y, -z'
'y, -x, -z'
'-y, x, -z'
'x-1/2, -y-1/2, z-1/2'
'-x-1/2, y-1/2, z-1/2'
'-y-1/2, -x-1/2, z-1/2'
'y-1/2, x-1/2, z-1/2'
loop_
_atom_site_label
_atom_site_type_symbol
_atom_site_fract_x
_atom_site_fract_y
_atom_site_fract_z
_atom_site_U_iso_or_equiv
_atom_site_adp_type
_atom_site_occupancy
_atom_site_site_symmetry_order
_atom_site_calc_flag
_atom_site_refinement_flags_posn
_atom_site_refinement_flags_adp
_atom_site_refinement_flags_occupancy
Hf1 Hf -0.04144(7) 0.12178(6) 0.0000 0.0534(6) Uani 1 2 d DS TU P
Hf2 Hf 0.0000 0.0000 0.07572(5) 0.0460(7) Uani 1 4 d DS TU P
O1 O -0.0256(3) 0.09041(18) 0.1100(3) 0.056(4) Uiso 1 1 d D U .
O4 O -0.0788(7) 0.0390(7) 0.0367(5) 0.115(5) Uiso 1 1 d . U .
O13 O -0.0584(6) 0.1683(5) 0.05996(10) 0.075(4) Uiso 1 1 d D U .
O19 O -0.1457(8) 0.1597(8) 0.0000 0.056(5) Uiso 1 2 d S TU P
O20 O 0.0158(8) 0.2212(8) 0.0000 0.057(5) Uiso 1 2 d S TU P
C3 C -0.06875(2) 0.31255(5) 0.19309(4) 0.075(5) Uiso 1 1 d D U .
C4 C -0.08798(8) 0.32752(12) 0.15113(9) 0.120(7) Uiso 1 1 d D U .
H4 H -0.1036 0.3712 0.1435 0.144 Uiso 1 1 calc R . .
C5 C -0.08241(6) 0.27435(13) 0.12233(7) 0.127(7) Uiso 1 1 d D U .
H5 H -0.0947 0.2834 0.0950 0.152 Uiso 1 1 calc R . .
C6 C -0.06001(2) 0.21012(5) 0.13209(4) 0.093(6) Uiso 1 1 d D U .
C7 C -0.04069(9) 0.19491(12) 0.17423(9) 0.104(7) Uiso 1 1 d D U .
H7 H -0.0251 0.1512 0.1819 0.125 Uiso 1 1 calc R . .
C8 C -0.04621(6) 0.24790(13) 0.20291(7) 0.096(6) Uiso 1 1 d D U .
H8 H -0.0339 0.2389 0.2302 0.115 Uiso 1 1 calc R . .
C9 C -0.07493(2) 0.36765(4) 0.22169(2) 0.055(5) Uiso 1 1 d D U .
C16 C -0.02410(3) 0.41845(4) 0.22166(3) 0.063(6) Uiso 1 1 d DG U .
C15 C -0.02734(5) 0.47263(5) 0.24998(5) 0.057(8) Uiso 1 2 d DGS TU P
C10 C -0.12900(3) 0.37099(5) 0.24999(3) 0.059(8) Uiso 1 2 d DGS TU P
C11 C -0.18161(4) 0.31839(4) 0.2500 0.097(10) Uiso 1 2 d DS TU P
C12 C -0.05434(3) 0.15606(8) 0.10287(6) 0.079(6) Uiso 1 1 d D U .
C17 C 0.03086(5) 0.42187(5) 0.19624(3) 0.133(10) Uiso 1 1 d D U .
H H 0.0606 0.3830 0.2012 0.200 Uiso 1 1 calc GR . .
HA H 0.0558 0.4639 0.2014 0.200 Uiso 1 1 calc GR . .
HB H 0.0154 0.4212 0.1680 0.200 Uiso 1 1 calc GR . .
loop_
_atom_site_aniso_label
_atom_site_aniso_U_11
_atom_site_aniso_U_22
_atom_site_aniso_U_33
_atom_site_aniso_U_23
_atom_site_aniso_U_13
_atom_site_aniso_U_12
Hf1 0.0794(11) 0.0601(10) 0.0208(10) 0.000 0.000 0.0057(9)
Hf2 0.0596(9) 0.0596(9) 0.0188(13) 0.000 0.000 0.000
loop_
_atom_type_symbol
_atom_type_description
_atom_type_scat_dispersion_real
_atom_type_scat_dispersion_imag
_atom_type_scat_source
C C 0.0033 0.0016 'International Tables Vol C Tables 4.2.6.8 and 6.1.1.4'
H H 0.0000 0.0000 'International Tables Vol C Tables 4.2.6.8 and 6.1.1.4'
Hf Hf -0.5830 6.1852 'International Tables Vol C Tables 4.2.6.8 and 6.1.1.4'
O O 0.0106 0.0060 'International Tables Vol C Tables 4.2.6.8 and 6.1.1.4'
loop_
_exptl_crystal_face_index_h
_exptl_crystal_face_index_k
_exptl_crystal_face_index_l
_exptl_crystal_face_perp_dist
-5 0 -1 0.0480
-5 1 4 0.0508
-1 2 5 0.0406
1 2 5 0.0419
3 2 5 0.0405
5 1 4 0.0392
-3 -2 -5 0.0507
-1 -2 -5 0.0467
1 -2 -5 0.0518
5 -1 -3 0.0471
5 1 3 0.0383
1 -5 4 0.0249
-1 5 -4 0.0276
loop_
_geom_angle_atom_site_label_1
_geom_angle_atom_site_label_2
_geom_angle_atom_site_label_3
_geom_angle
_geom_angle_site_symmetry_1
_geom_angle_site_symmetry_3
Hf1 Hf1 Hf1 90.0 11 3
Hf2 Hf1 Hf1 59.719(13) . 3
Hf2 Hf1 Hf2 89.03(4) . 9
O4 Hf1 Hf1 88.4(4) 10 11
O4 Hf1 Hf2 87.7(4) . 9
O4 Hf1 O4 67.8(8) 4 11
O4 Hf1 O4 69.0(7) . 4
O4 Hf1 O4 105.4(8) . 11
O4 Hf1 O4 68.0(8) 10 .
O4 Hf1 O13 77.0(5) 4 .
O4 Hf1 O13 140.7(5) 11 .
O4 Hf1 O13 76.2(5) . .
O4 Hf1 O19 86.4(5) . .
O4 Hf1 O19 145.3(4) 4 .
O4 Hf1 O20 145.6(4) . .
O4 Hf1 O20 88.5(5) 4 .
O13 Hf1 Hf1 107.9(3) . 3
O13 Hf1 Hf1 108.7(3) . 11
O13 Hf1 Hf2 71.8(2) . .
O13 Hf1 Hf2 160.8(2) 10 .
O13 Hf1 O13 127.4(5) 10 .
O13 Hf1 O20 73.4(3) . .
O19 Hf1 Hf1 83.8(4) . 3
O19 Hf1 Hf1 173.8(4) . 11
O19 Hf1 Hf2 116.5(3) . .
O19 Hf1 O13 73.5(3) . .
O19 Hf1 O20 100.0(6) . .
O20 Hf1 Hf1 176.3(4) . 3
O20 Hf1 Hf1 86.3(4) . 11
O20 Hf1 Hf2 118.1(2) . .
Hf1 Hf2 Hf1 90.98(4) . 9
Hf1 Hf2 Hf1 60.56(3) . 3
O1 Hf2 Hf1 166.6(2) . 9
O1 Hf2 Hf1 109.46(18) . 11
O1 Hf2 Hf1 75.9(2) . .
O1 Hf2 Hf1 113.37(19) . 3
O1 Hf2 O1 74.28(18) 3 .
O1 Hf2 O1 117.3(4) 2 .
O4 Hf2 Hf1 89.2(4) 3 .
O4 Hf2 Hf1 89.2(4) . 11
O4 Hf2 O1 145.0(4) 3 .
O4 Hf2 O1 140.4(4) 2 .
O4 Hf2 O1 78.6(4) . 3
O4 Hf2 O1 81.4(4) . .
O4 Hf2 O1 145.0(4) . 4
O4 Hf2 O4 69.2(4) . 3
O4 Hf2 O4 106.9(8) . 2
C12 O1 Hf2 138.5(5) . .
Hf1 O4 Hf1 112.0(7) . 3
Hf2 O4 Hf1 110.7(6) . 3
Hf2 O4 Hf1 110.9(6) . .
C12 O13 Hf1 143.5(6) . .
C8 C3 C4 119.22(16) . .
C8 C3 C9 124.50(13) . .
C9 C3 C4 116.27(12) . .
C3 C4 H4 121.2 . .
C5 C4 C3 117.55(19) . .
C5 C4 H4 121.2 . .
C4 C5 H5 118.4 . .
C6 C5 C4 123.2(2) . .
C6 C5 H5 118.4 . .
C5 C6 C7 119.35(16) . .
C5 C6 C12 123.28(15) . .
C12 C6 C7 117.36(13) . .
C6 C7 H7 121.3 . .
C8 C7 C6 117.42(19) . .
C8 C7 H7 121.3 . .
C3 C8 C7 123.2(2) . .
C3 C8 H8 118.4 . .
C7 C8 H8 118.4 . .
C16 C9 C3 118.2 . .
C16 C9 C10 120.0 . .
C10 C9 C3 121.8 . .
C9 C16 C15 120.0 . .
C17 C16 C9 126.46(7) . .
C17 C16 C15 113.56(7) . .
C9 C10 C9 120.2 . 7_455
C9 C10 C11 119.9 . .
C9 C10 C11 119.91(5) 7_455 .
O1 C12 O13 109.6(5) . .
O1 C12 C6 126.1(3) . .
O13 C12 C6 121.9(4) . .
C16 C17 H 109.5 . .
C16 C17 HA 109.5 . .
C16 C17 HB 109.5 . .
H C17 HA 109.5 . .
H C17 HB 109.5 . .
HA C17 HB 109.5 . .
loop_
_geom_bond_atom_site_label_1
_geom_bond_atom_site_label_2
_geom_bond_distance
_geom_bond_site_symmetry_2
Hf1 Hf1 3.5190(17) 3
Hf1 Hf2 3.4893(14) .
Hf1 O4 2.119(15) .
Hf1 O4 2.125(15) 4
Hf1 O13 2.161(5) .
Hf1 O19 2.145(15) .
Hf1 O20 2.219(15) .
Hf2 O1 2.129(5) .
Hf2 O4 2.117(15) .
O1 C12 1.405(4) .
O4 Hf1 2.125(15) 3
O13 C12 1.409(4) .
C3 C4 1.435(3) .
C3 C8 1.362(2) .
C3 C9 1.4155(13) .
C4 H4 0.9300 .
C4 C5 1.391(4) .
C5 H5 0.9300 .
C5 C6 1.353(3) .
C6 C7 1.442(3) .
C6 C12 1.413(2) .
C7 H7 0.9300 .
C7 C8 1.386(4) .
C8 H8 0.9300 .
C9 C16 1.3900 .
C9 C10 1.3908 .
C16 C15 1.3927 .
C16 C17 1.3450(11) .
C10 C11 1.4390(13) .
C17 H 0.9600 .
C17 HA 0.9600 .
C17 HB 0.9600 .
loop_
_geom_torsion_atom_site_label_1
_geom_torsion_atom_site_label_2
_geom_torsion_atom_site_label_3
_geom_torsion_atom_site_label_4
_geom_torsion
_geom_torsion_site_symmetry_4
Hf1 O13 C12 O1 4.4(13) .
Hf1 O13 C12 C6 168.0(8) .
Hf2 O1 C12 O13 -11.2(8) .
Hf2 O1 C12 C6 -173.9(4) .
C3 C4 C5 C6 0.0(2) .
C3 C9 C16 C15 -178.43(7) .
C3 C9 C16 C17 1.56(9) .
C3 C9 C10 C9 178.37(11) 7_455
C3 C9 C10 C11 -1.62(8) .
C4 C3 C8 C7 0.03(17) .
C4 C3 C9 C16 -77.66(8) .
C4 C3 C9 C10 103.92(9) .
C4 C5 C6 C7 0.00(18) .
C4 C5 C6 C12 179.98(11) .
C5 C6 C7 C8 -0.02(19) .
C5 C6 C12 O1 173.7(4) .
C5 C6 C12 O13 12.9(5) .
C6 C7 C8 C3 0.0(2) .
C7 C6 C12 O1 -6.3(4) .
C7 C6 C12 O13 -167.1(5) .
C8 C3 C4 C5 -0.05(16) .
C8 C3 C9 C16 102.36(8) .
C8 C3 C9 C10 -76.06(8) .
C9 C3 C4 C5 179.97(10) .
C9 C3 C8 C7 180.00(11) .
C16 C9 C10 C9 -0.02(9) 7_455
C16 C9 C10 C11 179.99(5) .
C10 C9 C16 C15 0.0 .
C10 C9 C16 C17 -179.99(6) .
C12 C6 C7 C8 179.99(11) .
loop_
_exptl_oxdiff_crystal_face_indexfrac_h
_exptl_oxdiff_crystal_face_indexfrac_k
_exptl_oxdiff_crystal_face_indexfrac_l
_exptl_oxdiff_crystal_face_x
_exptl_oxdiff_crystal_face_y
_exptl_oxdiff_crystal_face_z
-4.9995 -0.0003 -0.9993 0.0045 -0.1699 0.0730
-4.9991 0.9968 4.0028 -0.0179 -0.2031 -0.0358
-1.0002 1.9987 5.0015 0.0082 -0.0747 -0.1149
0.9995 1.9992 5.0010 0.0107 -0.0046 -0.1367
2.9992 1.9997 5.0004 0.0132 0.0655 -0.1586
4.9994 0.9993 4.0002 -0.0052 0.1474 -0.1451
-2.9992 -1.9997 -5.0004 -0.0132 -0.0655 0.1586
-0.9995 -1.9992 -5.0010 -0.0107 0.0046 0.1367
1.0002 -1.9987 -5.0015 -0.0082 0.0747 0.1149
4.9993 -0.9978 -3.0022 0.0071 0.1977 0.0174
4.9992 1.0003 2.9996 0.0057 0.1527 -0.1268
1.0040 -5.0129 4.0065 -0.2012 0.0459 0.0007
-1.0040 5.0129 -4.0065 0.2012 -0.0459 -0.0007
