#------------------------------------------------------------------------------
#$Date: 2019-11-25 22:32:00 +0200 (Mon, 25 Nov 2019) $
#$Revision: 241968 $
#$URL: file:///home/coder/svn-repositories/cod/cif/4/13/18/4131866.cif $
#------------------------------------------------------------------------------
#
# This file is available in the Crystallography Open Database (COD),
# http://www.crystallography.net/
#
# All data on this site have been placed in the public domain by the
# contributors.
#
data_4131866
loop_
_publ_author_name
'Yan, Yong'
'O'Connor, Alice E'
'Kanthasamy, Gopikkaa'
'Atkinson, George'
'Allan, David R.'
'Blake, Alexander J.'
'Schr\"oder, Martin'
_publ_section_title
;
 Unusual and Tunable Negative Linear Compressibility in the Metal-Organic
 Framework MFM-133(M) (M = Zr, Hf).
;
_journal_issue                   11
_journal_name_full               'Journal of the American Chemical Society'
_journal_page_first              3952
_journal_page_last               3958
_journal_paper_doi               10.1021/jacs.7b11747
_journal_volume                  140
_journal_year                    2018
_chemical_formula_moiety         '0.25(C184 H136 O64 Zr12)'
_chemical_formula_sum            'C46 H34 O16 Zr3'
_chemical_formula_weight         1116.39
_space_group_crystal_system      tetragonal
_space_group_IT_number           128
_space_group_name_Hall           '-P 4 2n'
_space_group_name_H-M_alt        'P 4/m n c'
_atom_sites_solution_hydrogens   geom
_atom_sites_solution_primary     direct
_audit_creation_date             2016-09-01
_audit_creation_method
;
Olex2 1.2
(compiled 2016.08.25 svn.r3337 for OlexSys, GUI svn.r5221)
;
_cell_angle_alpha                90
_cell_angle_beta                 90
_cell_angle_gamma                90
_cell_formula_units_Z            4
_cell_length_a                   19.2800(17)
_cell_length_b                   19.2800(17)
_cell_length_c                   32.890(6)
_cell_measurement_reflns_used    1526
_cell_measurement_temperature    293.15
_cell_measurement_theta_max      21.5020
_cell_measurement_theta_min      2.0590
_cell_volume                     12226(3)
_computing_cell_refinement
;
CrysAlisPro, Agilent Technologies,
Version 1.171.37.34 (release 22-05-2014 CrysAlis171 .NET)
(compiled May 22 2014,16:03:01)
;
_computing_data_collection
;
CrysAlisPro, Agilent Technologies,
Version 1.171.37.34 (release 22-05-2014 CrysAlis171 .NET)
(compiled May 22 2014,16:03:01)
;
_computing_data_reduction
;
CrysAlisPro, Agilent Technologies,
Version 1.171.37.34 (release 22-05-2014 CrysAlis171 .NET)
(compiled May 22 2014,16:03:01)
;
_computing_molecular_graphics    'Olex2 (Dolomanov et al., 2009)'
_computing_publication_material  'Olex2 (Dolomanov et al., 2009)'
_computing_structure_refinement  'ShelXL (Sheldrick, 2015)'
_computing_structure_solution    'ShelXS (Sheldrick, 2008)'
_diffrn_ambient_temperature      293.15
_diffrn_detector                 Dectris
_diffrn_detector_area_resol_mean 5.81395
_diffrn_detector_type            'Pilatus 300K detector'
_diffrn_measured_fraction_theta_full 0.770
_diffrn_measured_fraction_theta_max 0.770
_diffrn_measurement_details
;
#__ type_ start__ end____ width___ exp.time_
  1 omega -105.00  -74.00   0.2000    0.9970
omega____ theta____ kappa____ phi______ frames
    -       20.0000   70.0000  155.7700 155

#__ type_ start__ end____ width___ exp.time_
  2 omega -105.00  -74.00   0.2000    0.9970
omega____ theta____ kappa____ phi______ frames
    -       20.0000   70.0000  -24.2300 155

#__ type_ start__ end____ width___ exp.time_
  3 omega -106.00  -66.00   0.2000    0.9970
omega____ theta____ kappa____ phi______ frames
    -      -20.0000  -70.0000 -155.7700 200

#__ type_ start__ end____ width___ exp.time_
  4 omega -106.00  -66.00   0.2000    0.9970
omega____ theta____ kappa____ phi______ frames
    -      -20.0000  -70.0000   24.2300 200

#__ type_ start__ end____ width___ exp.time_
  5 omega -150.00  -94.00   0.2000    0.9970
omega____ theta____ kappa____ phi______ frames
    -      -20.0000   70.0000  -24.2319 280

#__ type_ start__ end____ width___ exp.time_
  6 omega -150.00  -94.00   0.2000    0.9970
omega____ theta____ kappa____ phi______ frames
    -      -20.0000   70.0000  155.7681 280

#__ type_ start__ end____ width___ exp.time_
  7 omega  -96.00  -30.00   0.2000    0.9970
omega____ theta____ kappa____ phi______ frames
    -       20.0000  -70.0000   24.2300 330

#__ type_ start__ end____ width___ exp.time_
  8 omega  -96.00  -30.00   0.2000    0.9970
omega____ theta____ kappa____ phi______ frames
    -       20.0000  -70.0000 -155.7700 330
;
_diffrn_measurement_device       'k-geometry diffractometer'
_diffrn_measurement_device_type
'Newport 4-circle kappa geometry diffractometer'
_diffrn_measurement_method       'oscillation method'
_diffrn_orient_matrix_UB_11      0.0320468000
_diffrn_orient_matrix_UB_12      -0.0023452000
_diffrn_orient_matrix_UB_13      0.0091545000
_diffrn_orient_matrix_UB_21      -0.0128725000
_diffrn_orient_matrix_UB_22      0.0166177000
_diffrn_orient_matrix_UB_23      0.0169395000
_diffrn_orient_matrix_UB_31      -0.0092066000
_diffrn_orient_matrix_UB_32      -0.0315405000
_diffrn_orient_matrix_UB_33      0.0082327000
_diffrn_radiation_collimation    '0.5 mm pinhole'
_diffrn_radiation_monochromator  'Si 111 double-crystal monochromator'
_diffrn_radiation_probe          x-ray
_diffrn_radiation_wavelength     0.6889
_diffrn_reflns_av_R_equivalents  0.5230
_diffrn_reflns_av_unetI/netI     0.4435
_diffrn_reflns_Laue_measured_fraction_full 0.770
_diffrn_reflns_Laue_measured_fraction_max 0.770
_diffrn_reflns_limit_h_max       13
_diffrn_reflns_limit_h_min       -13
_diffrn_reflns_limit_k_max       21
_diffrn_reflns_limit_k_min       -21
_diffrn_reflns_limit_l_max       35
_diffrn_reflns_limit_l_min       -35
_diffrn_reflns_number            25253
_diffrn_reflns_point_group_measured_fraction_full 0.770
_diffrn_reflns_point_group_measured_fraction_max 0.770
_diffrn_reflns_theta_full        22.675
_diffrn_reflns_theta_max         22.675
_diffrn_reflns_theta_min         1.881
_diffrn_source                   'Synchrotron U21 undulator'
_diffrn_source_type              'Synchrotron Diamond Light Source'
_exptl_absorpt_coefficient_mu    0.256
_exptl_absorpt_correction_T_max  0.4269
_exptl_absorpt_correction_T_min  0.3038
_exptl_absorpt_correction_type   multi-scan
_exptl_absorpt_process_details
;
SADABS-2014/5 (Bruker,2014/5) was used for absorption correction. 
wR2(int) was 0.1365 before and 0.1162 after correction. 
The Ratio of minimum to maximum transmission is 0.7116. 
The \l/2 correction factor is Not present.
;
_exptl_crystal_colour            'clear colourless'
_exptl_crystal_colour_lustre     clear
_exptl_crystal_colour_primary    colourless
_exptl_crystal_density_diffrn    0.607
_exptl_crystal_description       octahedral
_exptl_crystal_F_000             2232
_exptl_crystal_size_max          0.046
_exptl_crystal_size_mid          0.046
_exptl_crystal_size_min          0.033
_refine_diff_density_max         0.654
_refine_diff_density_min         -0.934
_refine_diff_density_rms         0.109
_refine_ls_extinction_method     none
_refine_ls_goodness_of_fit_ref   1.125
_refine_ls_hydrogen_treatment    constr
_refine_ls_matrix_type           full
_refine_ls_number_parameters     75
_refine_ls_number_reflns         3544
_refine_ls_number_restraints     66
_refine_ls_restrained_S_all      1.127
_refine_ls_R_factor_all          0.2951
_refine_ls_R_factor_gt           0.1447
_refine_ls_shift/su_max          0.000
_refine_ls_shift/su_mean         0.000
_refine_ls_structure_factor_coef Fsqd
_refine_ls_weighting_details
'w=1/[\s^2^(Fo^2^)+(0.2000P)^2^] where P=(Fo^2^+2Fc^2^)/3'
_refine_ls_weighting_scheme      calc
_refine_ls_wR_factor_gt          0.3597
_refine_ls_wR_factor_ref         0.4517
_reflns_Friedel_coverage         0.000
_reflns_number_gt                1010
_reflns_number_total             3544
_reflns_threshold_expression     'I > 2\s(I)'
_cod_data_source_file            ZrMOF_All.cif
_cod_data_source_block           20.9kbar
_cod_database_code               4131866
_chemical_oxdiff_formula         'C46 H42 O16 Zr3'
_shelx_space_group_comment
;
The symmetry employed for this shelxl refinement is uniquely defined
by the following loop, which should always be used as a source of
symmetry information in preference to the above space-group names.
They are only intended as comments.
;
_reflns_odcompleteness_completeness 75.38
_reflns_odcompleteness_iscentric 1
_reflns_odcompleteness_theta     22.85
_olex2_refinement_description
;
1. Fixed Uiso
 At 1.2 times of:
  All C(H) groups
 At 1.5 times of:
  All C(H,H,H) groups
2. Restrained distances
 C9-C10 = C13-C11
 1.5 with sigma of 0.01
 C8-C5 = C2-C1
 1.5 with sigma of 0.01
 C4-C3 = C3-C2 = C6-C5 = C7-C6
 1.39 with sigma of 0.01
 C6-C7
 1.39 with sigma of 0.01
 C7-C2
 1.39 with sigma of 0.01
 C2-C3
 1.39 with sigma of 0.01
 C3-C4
 1.39 with sigma of 0.01
 C5-C4
 1.39 with sigma of 0.01
 C5-C6
 1.39 with sigma of 0.01
 C9-C8
 1.39 with sigma of 0.01
 C12-C12_$3
 1.5 with sigma of 0.02
 C8-C5
 1.5 with sigma of 0.01
 C13-C11
 1.5 with sigma of 0.01
 C9-C8 \\sim C8-C11 \\sim C12-C11
 with sigma of 0.02
3. Restrained planarity
 C1, C2, C7, C6, C5, C4, C3, C8, C11_$1, C13_$1
 with sigma of 0.1
 C1_$1, C2_$1, C3_$1, C4_$1, C5_$1, C6_$1, C7_$1, C8_$1, C11, C13
 with sigma of 0.1
 C1_$2, C2_$2, C7_$2, C6_$2, C5_$2, C4_$2, C3_$2, C8_$2, C11_$3, C13_$3
 with sigma of 0.1
 C1_$3, C2_$3, C3_$3, C4_$3, C5_$3, C6_$3, C7_$3, C8_$3, C11_$2, C13_$2
 with sigma of 0.1
 C10, C9, C12, C12_$3, C9_$3, C10_$3
 with sigma of 0.1
4. Uiso/Uaniso restraints and constraints
All non-hydrogen atoms have similar U: within 2A with sigma of 0.02 and sigma
for terminal atoms of 0.04
5. Others
 Fixed Sof: H10A(0.5) H10B(0.5) H10C(0.5)
6.a Me refined with riding coordinates:
 C10(H10A,H10B,H10C)
6.b Aromatic/amide H refined with riding coordinates:
 C3(H3), C4(H4), C7(H7), C6(H6)
6.c Idealised Me refined as rotating group:
 C13(H13A,H13B,H13C)
;
_shelx_res_file
;
    20.9kbardecomp.res created by SHELXL-2014/7

TITL g2yy_15xnew in P4/mnc
CELL 0.6889 19.27998 19.27998 32.88988 90 90 90
ZERR 4 0.00165 0.00165 0.00605 0 0 0
LATT 1
SYMM -X,-Y,+Z
SYMM -Y,+X,+Z
SYMM +Y,-X,+Z
SYMM 0.5-X,0.5+Y,0.5-Z
SYMM 0.5+X,0.5-Y,0.5-Z
SYMM 0.5+Y,0.5+X,0.5-Z
SYMM 0.5-Y,0.5-X,0.5-Z
SFAC C H O Zr
DISP C 0.003 0.001 10.848
DISP H -0 0 0.623
DISP O 0.011 0.006 30.192
DISP Zr -11.605 0.551 2275.752
UNIT 184 136 64 12
EQIV $1 -0.5+Y,0.5+X,0.5-Z
EQIV $2 0.5-Y,0.5-X,0.5-Z
EQIV $3 -X,1-Y,+Z
DFIX 1.5 0.01 C9 C10 C13 C11
DFIX 1.5 0.01 C8 C5 C2 C1
DFIX 1.39 0.01 C4 C3 C3 C2 C6 C5 C7 C6
DFIX 1.39 0.01 C6 C7
DFIX 1.39 0.01 C7 C2
DFIX 1.39 0.01 C2 C3
DFIX 1.39 0.01 C3 C4
DFIX 1.39 0.01 C5 C4
DFIX 1.39 0.01 C5 C6
DFIX 1.39 0.01 C9 C8
DFIX 1.5 C12 C12_$3
DFIX 1.5 0.01 C8 C5
DFIX 1.5 0.01 C13 C11
SADI C9 C8 C8 C11 C12 C11
FLAT C1 C2 C7 C6 C5 C4 C3 C8 C11_$1 C13_$1
FLAT C1_$1 C2_$1 C3_$1 C4_$1 C5_$1 C6_$1 C7_$1 C8_$1 C11 C13
FLAT C1_$2 C2_$2 C7_$2 C6_$2 C5_$2 C4_$2 C3_$2 C8_$2 C11_$3 C13_$3
FLAT C1_$3 C2_$3 C3_$3 C4_$3 C5_$3 C6_$3 C7_$3 C8_$3 C11_$2 C13_$2
FLAT C10 C9 C12 C12_$3 C9_$3 C10_$3
SIMU 0.02 0.04 2

L.S. 5 0 235
PLAN  20
TEMP 20
BOND
MORE -1
BOND $H
CONF
ABIN
fmap 2
acta
REM <olex2.extras>
REM <HklSrc "%.\\20.9kbar%20decomp.hkl">
REM </olex2.extras>

WGHT    0.200000
FVAR       0.26528
ZR1   4    0.122872    0.042350    0.000000    10.50000    0.05295    0.08387 =
         0.04526    0.00000    0.00000   -0.00323
ZR2   4    0.000000    0.000000    0.074497    10.25000    0.05904    0.05904 =
         0.03155    0.00000    0.00000    0.00000
O5    3   -0.027881    0.092040    0.109613    11.00000    0.11197
O2    3    0.172414    0.060596   -0.061387    11.00000    0.13418
O4    3    0.039134    0.081812    0.036200    11.00000    0.12202
O3    3    0.167672    0.146486    0.000000    10.50000    0.16998
O1    3    0.227437   -0.022581    0.000000    10.50000    0.17496
C11   1   -0.024014    0.416427    0.222156    11.00000    0.12051
C3    1   -0.039222    0.196795    0.170926    11.00000    0.20741
AFIX  43
H3    2   -0.019382    0.153650    0.175887    11.00000   -1.20000
AFIX   0
C12   1   -0.027694    0.472306    0.250000    10.50000    0.12295
C1    1   -0.056573    0.151195    0.101566    11.00000    0.16933
C4    1   -0.043295    0.243337    0.203392    11.00000    0.19260
AFIX  43
H4    2   -0.029297    0.233204    0.229792    11.00000   -1.20000
AFIX   0
C8    1   -0.077527    0.366370    0.221446    11.00000    0.14481
C13   1    0.036792    0.411542    0.193171    11.00000    0.16779
AFIX 137
H13A  2    0.057666    0.456457    0.190167    11.00000   -1.50000
H13B  2    0.020863    0.395483    0.167168    11.00000   -1.50000
H13C  2    0.070402    0.379590    0.203798    11.00000   -1.50000
AFIX   0
C2    1   -0.062813    0.210360    0.131496    11.00000    0.19777
C5    1   -0.071176    0.307359    0.191187    11.00000    0.20477
C7    1   -0.091155    0.272423    0.116554    11.00000    0.23895
AFIX  43
H7    2   -0.105030    0.282693    0.090150    11.00000   -1.20000
AFIX   0
C9    1   -0.131857    0.368143    0.250000    10.50000    0.16172
C6    1   -0.093501    0.315043    0.150892    11.00000    0.24127
AFIX  43
H6    2   -0.114376    0.357698    0.145933    11.00000   -1.20000
AFIX   0
C10   1   -0.187156    0.312844    0.250000    10.50000    0.19475
PART -1
AFIX  33
H10A  2   -0.177931    0.280145    0.228662    10.50000   -1.50000
H10B  2   -0.187083    0.289298    0.275719    10.50000   -1.50000
H10C  2   -0.231664    0.333879    0.245619    10.50000   -1.50000
AFIX   0
HKLF 4

REM  g2yy_15xnew in P4/mnc
REM R1 =  0.1447 for    1010 Fo > 4sig(Fo)  and  0.2951 for all    3544 data
REM     75 parameters refined using     66 restraints

END

WGHT      0.2000      0.0000

REM Highest difference peak  0.654,  deepest hole -0.934,  1-sigma level  0.109
Q1    1   0.0000  0.0000  0.0883  10.25000  0.05    0.65
Q2    1   0.1308  0.0178  0.0000  10.50000  0.05    0.62
Q3    1   0.1314  0.0364 -0.0089  11.00000  0.05    0.56
Q4    1   0.2134  0.1092  0.0000  10.50000  0.05    0.49
Q5    1   0.2101 -0.0220  0.0000  10.50000  0.05    0.44
Q6    1   0.1758  0.1651 -0.0186  11.00000  0.05    0.42
Q7    1   0.1305  0.1348  0.0000  10.50000  0.05    0.41
Q8    1  -0.1045  0.2651  0.0597  11.00000  0.05    0.41
Q9    1   0.0724  0.1036  0.0476  11.00000  0.05    0.41
Q10   1  -0.0420  0.2735  0.1194  11.00000  0.05    0.38
Q11   1   0.0255  0.1076  0.0503  11.00000  0.05    0.36
Q12   1   0.1185  0.2198  0.0151  11.00000  0.05    0.35
Q13   1   0.2139 -0.1039 -0.0184  11.00000  0.05    0.35
Q14   1   0.2130  0.2101  0.0000  10.50000  0.05    0.33
Q15   1   0.0000  0.0000  0.2484  10.25000  0.05    0.32
Q16   1   0.0211  0.0423  0.0228  11.00000  0.05    0.32
Q17   1  -0.0105  0.0569  0.1283  11.00000  0.05    0.31
Q18   1  -0.0563  0.2145  0.2472  11.00000  0.05    0.31
Q19   1  -0.0392  0.0547  0.1205  11.00000  0.05    0.30
Q20   1  -0.0951  0.1425  0.1875  11.00000  0.05    0.30
;
_shelx_res_checksum              25175
_shelx_hkl_file
;
   0  -2   0   -0.37   28.94
   0  -2   0   -1.12    1.92
  -1  -2   0  564.14   76.57
   1   2   0  468.67   75.99
   1   2   0  519.57   75.82
  -1  -2   0  548.18   76.30
   1  -3   0   92.52   18.37
   0  -3   0    1.69    6.89
   0  -3   0   -3.99    5.29
  -1  -3   0  112.56   19.12
  -1  -3   0   96.82   17.27
  -1  -3   0   62.01   15.46
  -1  -3   0   96.50   18.60
   1   3   0   80.66   15.85
   1   3   0   70.36   17.35
  -2  -3   0   15.13    7.33
  -2  -3   0    9.03    9.08
   2   3   0   26.14    6.53
   1  -4   0 2520.76  485.77
   0  -4   0  268.28   74.10
   0  -4   0  346.17   69.52
   0  -4   0  430.54   76.40
   0  -4   0  354.77   64.44
  -1  -4   0 2377.28  493.56
  -1  -4   0 2301.71  504.90
  -1  -4   0 2398.23  466.22
   1   4   0 2289.49  430.19
  -1  -4   0 2474.92  440.92
  -2  -4   0  417.66   68.53
   2   4   0  324.40   61.37
  -2  -4   0  265.98   71.31
  -3  -4   0   -7.22   16.38
   1  -5   0   74.06   20.98
  -1   5   0   65.87   19.45
   1  -5   0   86.22   17.83
   1  -5   0   68.67   24.01
   0  -5   0    6.84   11.02
   0  -5   0    6.70   16.20
   0  -5   0   -0.96   14.85
   0   5   0    3.05   13.96
   0   5   0    5.10   10.03
   0  -5   0   -6.88    4.58
   1   5   0   71.54   20.88
  -1  -5   0  146.13   24.35
  -1  -5   0   73.81   21.38
  -1  -5   0  121.33   17.89
  -1  -5   0   55.83   25.01
   1   5   0   92.63   20.43
   2   5   0 3413.49  626.42
  -2  -5   0 3756.52  722.76
  -2  -5   0 3061.94  721.36
  -2  -5   0 3626.20  679.79
   3   5   0    1.15   11.94
  -3  -5   0   -8.52   13.64
   2  -6   0  274.34   58.03
  -1   6   0 2848.60  575.86
   1  -6   0 3015.11  602.20
   1  -6   0 3036.58  550.87
   0   6   0   59.33   20.84
   0  -6   0    5.24   21.76
   0  -6   0   32.74    8.83
   1   6   0 2886.77  574.08
  -1  -6   0 2953.37  511.65
  -1  -6   0 2452.64  581.11
  -2  -6   0  295.61   65.22
   2   6   0  309.33   60.91
  -2  -6   0  248.26   63.04
  -3  -6   0  178.97   49.99
   3   6   0  195.93   41.29
  -3  -6   0  247.82   45.44
   4   6   0   26.19   17.67
  -4  -6   0   66.85   32.40
   3  -7   0  445.23  119.84
   2  -7   0   -1.43  134.06
   2  -7   0  903.60  123.96
  -1   7   0  509.69   99.06
   1  -7   0  427.48   92.78
   1  -7   0  505.57  105.11
   1  -7   0  556.80   99.03
   0  -7   0    2.76   24.86
   0   7   0   -3.02   25.03
   0  -7   0   -0.46    6.55
   0  -7   0  -17.23   23.19
   0   7   0    4.82   15.01
   0   7   0    3.01   18.26
   0  -7   0   14.13   18.99
  -1  -7   0  355.13  104.79
  -1  -7   0  558.75   98.63
   1   7   0  470.49  103.44
   1   7   0  526.84  104.33
  -1  -7   0  636.70  106.49
  -2  -7   0  947.06  176.65
  -2  -7   0  895.13  165.13
   2   7   0  981.32  155.63
  -2  -7   0  779.08  174.48
  -2  -7   0  851.72  159.49
  -3  -7   0  819.97  157.32
   3   7   0  897.05  147.55
  -3  -7   0  818.99  168.60
  -3  -7   0  779.72  167.44
  -4  -7   0  347.20   72.79
  -4  -7   0  299.04   65.73
   4   7   0  287.96   60.19
   4  -8   0  916.79  135.03
  -4   8   0   -3.02  136.92
   3  -8   0  119.92   43.33
   2  -8   0  919.29  166.59
   2  -8   0  915.32  180.34
   2  -8   0  819.56  171.45
  -2   8   0  911.39  173.67
   1  -8   0  133.37   34.00
   1  -8   0  132.70   24.78
  -1   8   0  130.99   33.18
   1  -8   0  131.90   40.26
   0  -8   0  148.51   24.43
   0   8   0  184.32   41.98
   0   8   0   65.34   29.61
   0  -8   0  104.72   37.00
   0  -8   0  145.77   33.68
   0   8   0  176.38   32.11
   0   8   0   64.26   32.49
   0  -8   0  157.21   39.68
   1   8   0   95.87   28.36
  -1  -8   0   56.66   28.28
   1   8   0  111.28   25.30
  -1  -8   0   83.00   19.74
  -1  -8   0  122.84   37.92
   1   8   0   87.12   31.25
  -1  -8   0   89.52   34.97
   2   8   0  817.17  152.74
  -2  -8   0  801.00  171.82
  -2  -8   0  749.25  163.13
  -2  -8   0 1028.17  175.90
  -2  -8   0  755.23  156.26
   3   8   0  167.71   43.98
  -4  -8   0 1104.55  200.62
   4   8   0  922.98  179.51
  -4  -8   0 1089.02  189.44
  -5  -8   0   20.29   45.24
   4  -9   0  168.85   51.72
   3  -9   0 1602.35  313.58
  -2   9   0   50.13   32.26
   2  -9   0   59.13   30.03
   2  -9   0   40.34   35.50
   2  -9   0   57.40   18.58
   1  -9   0  137.51   31.69
   1  -9   0  149.77   42.46
  -1   9   0  208.29   42.61
   1  -9   0  195.20   49.74
   0  -9   0   15.79   24.40
   0  -9   0  -27.00   36.70
   0   9   0  -15.53   16.01
   0   9   0   33.65   22.25
   0   9   0  -14.56   25.57
   0  -9   0    1.88   26.14
   0   9   0    6.75   43.89
   0  -9   0   -3.35    8.39
  -1  -9   0  161.82   41.54
  -1  -9   0  192.38   49.64
  -1  -9   0  166.43   33.05
   1   9   0  124.60   38.55
   1   9   0  163.48   46.94
   1   9   0  249.47   41.08
  -1  -9   0  254.37   51.14
  -2  -9   0   61.41   39.50
   2   9   0  100.18   27.67
  -2  -9   0  103.70   33.81
  -2  -9   0   70.41   29.07
   2   9   0   81.87   30.54
  -2  -9   0   55.04   19.28
   2   9   0   76.68   23.13
  -3  -9   0 1337.34  330.77
  -3  -9   0 1777.01  310.35
   3   9   0 1555.91  293.01
  -3  -9   0 1664.47  334.49
  -4  -9   0  377.50   70.57
  -4  -9   0  224.34   59.21
   4   9   0  331.54   57.46
  -5  -9   0  764.12  176.37
   5   9   0  982.91  154.47
  -5  -9   0  822.26  162.82
  -5  -9   0  681.73  178.29
   4 -10   0 1162.24  239.74
  -3  10   0   -3.43   33.35
   3 -10   0   33.23   38.75
   3 -10   0   96.02   35.20
   2 -10   0  556.96  123.66
   2 -10   0  726.29  132.09
  -2  10   0  648.23  125.91
  -1  10   0   17.22   29.48
   1 -10   0  -11.25   31.48
  -1  10   0  -25.25   34.45
   1 -10   0  -22.25   43.06
   0 -10   0    8.53   30.49
   0  10   0   31.01   32.48
   0  10   0   49.69   27.40
   0 -10   0   26.22   42.04
  -1 -10   0   12.46   27.56
   1  10   0   13.43   29.73
  -1 -10   0   24.23   40.98
  -2 -10   0  569.73  118.16
   2  10   0  521.53   99.66
  -2 -10   0  369.75  106.63
  -3 -10   0   53.49   43.33
  -3 -10   0   16.10   28.06
   3  10   0   46.02   30.46
   4  10   0 1308.34  236.77
  -4 -10   0 1443.17  251.02
  -4 -10   0 1083.09  273.25
  -5 -10   0  110.71   56.28
  -5 -10   0  136.72   49.14
   5  10   0   49.62   38.06
  -5 -10   0  125.06   39.18
  -6 -10   0  319.45  100.51
   4 -11   0   43.20   38.52
   3 -11   0  506.09  153.55
   3 -11   0  835.82  144.63
  -3  11   0  744.88  146.40
   2 -11   0   10.14   34.21
  -2  11   0  -21.08   36.22
   2 -11   0   38.77   49.39
   1 -11   0   18.13   48.50
  -1  11   0  117.31   39.66
  -1  11   0  -29.33   35.27
   1 -11   0   40.19   35.09
   0 -11   0   52.18   46.17
   0  11   0   15.29   29.12
   0  11   0  -18.93   39.90
   0 -11   0   26.66   35.21
   1  11   0    8.59   31.22
  -1 -11   0    9.04   46.36
   1  11   0  -20.34   32.84
  -1 -11   0   21.18   33.50
  -2 -11   0   11.29   28.91
   2  11   0   -7.61   32.98
  -2 -11   0  -31.27   48.81
  -3 -11   0  742.21  159.96
  -3 -11   0  727.70  146.73
   3  11   0  712.89  138.64
  -4 -11   0   -9.22   32.71
  -4 -11   0  -11.95   47.51
   4  11   0   -2.65   33.10
  -5 -11   0  115.72   44.20
  -5 -11   0  148.56   62.22
   5  11   0  142.68   44.85
  -6 -11   0  459.27  121.51
   4 -12   0  475.25   75.59
   4 -12   0   -2.65   85.52
  -3  12   0  -12.62   46.76
   3 -12   0   11.27   38.14
   3 -12   0  -52.94   49.77
   2 -12   0   60.58   53.37
  -2  12   0   66.95   45.18
   2 -12   0    8.45   41.28
   1 -12   0    8.32   40.46
   1 -12   0   42.84   51.98
  -1  12   0   55.32   45.28
  -1  12   0   48.00   40.69
   0  12   0  136.73   48.00
   0 -12   0   77.05   60.02
   0  12   0  109.18   47.88
   0 -12   0  161.40   46.99
  -1 -12   0  -14.84   51.27
   1  12   0   -6.59   37.12
  -1 -12   0   47.75   40.22
   1  12   0  -20.26   42.86
  -2 -12   0  106.12   54.93
   2  12   0   31.47   40.94
  -2 -12   0   15.23   39.91
   3  12   0  -54.78   42.22
  -3 -12   0   -7.54   35.88
  -3 -12   0  -32.44   55.03
  -4 -12   0  501.61   99.95
  -4 -12   0  355.47   84.22
   4  12   0  388.46   82.02
  -5 -12   0  -54.70   62.93
   5  12   0  -21.82   41.67
  -5 -12   0  -10.81   35.38
   6  12   0  289.56   81.11
  -6 -12   0  466.97  108.01
   3 -13   0  132.86   50.93
   2 -13   0   52.85   48.04
  -2  13   0  203.38   54.14
  -2  13   0  -19.14   57.24
   2 -13   0  200.01   61.02
  -1  13   0   29.14   43.90
  -1  13   0  -22.01   52.57
   1 -13   0   -5.57   61.40
   1 -13   0   12.26   44.22
   0 -13   0  -24.63   58.83
   0  13   0   28.18   44.13
   0  13   0  -41.00   47.74
   0 -13   0    6.10   46.36
  -1 -13   0  -13.71   62.34
   1  13   0   -3.82   42.87
   1  13   0  -16.41   43.25
  -1 -13   0    2.97   43.64
   2  13   0   91.11   47.58
   2  13   0   96.34   47.94
  -2 -13   0   -5.68   42.04
  -2 -13   0   43.58   61.87
  -3 -13   0  106.48   45.20
   3  13   0   70.92   47.39
  -3 -13   0  161.26   64.83
  -4 -13   0   36.38   40.24
  -4 -13   0  167.90   59.68
   4  13   0  -32.66   48.09
   5  13   0  177.85   56.48
  -5 -13   0  164.52   55.83
   5 -14   0  186.83   72.26
  -4  14   0  230.23   71.68
   4 -14   0  136.72   64.38
   4 -14   0  243.36   78.56
   3 -14   0   21.30   59.24
  -3  14   0   66.92   53.97
   3 -14   0  145.84   50.93
  -2  14   0   39.59   50.42
   2 -14   0   -3.03   59.89
   1 -14   0   -3.07   68.93
  -1  14   0    4.69   53.94
  -4 -14   0   89.80   73.08
   5  14   0  331.33   78.60
  -5 -14   0  212.95   98.46
  -5 -14   0  326.93   75.41
  -6 -14   0  213.51   85.89
   6  14   0   -4.03   61.25
  -6 -14   0  143.69   54.48
  -7 -14   0   79.90  104.64
  -5  15   0   -6.19   62.68
   5 -15   0   58.70   56.40
   4 -15   0  165.57   74.22
  -4  15   0   11.78   64.72
   4 -15   0   33.62   52.41
   3 -15   0  106.33   74.57
   3 -15   0  107.45   55.17
  -3  15   0  172.79   74.17
  -3  15   0   -5.69   64.37
  -2  15   0   11.06   56.62
   2 -15   0   -7.39   51.22
  -2  15   0  -85.82   72.48
   2 -15   0    9.89   75.16
   1 -15   0   11.25   57.71
   1 -15   0  -50.26   73.45
  -1  15   0    5.27   59.53
  -1  15   0  121.04   69.43
   0  15   0  -12.79   62.01
   0 -15   0  -18.69   56.19
   0 -15   0  -88.47   80.74
   0  15   0   -5.16   57.96
   1  15   0   10.15   58.54
  -1 -15   0  -94.87   51.82
  -1 -15   0  -71.34   76.25
   1  15   0  -33.19   59.74
   2  15   0  -44.10   57.44
   2  15   0   -4.95   58.63
  -2 -15   0  -77.64   56.32
  -2 -15   0  -39.01   75.79
   3  15   0   51.63   65.50
  -3 -15   0  164.13   78.19
  -3 -15   0   58.77   54.78
   3  15   0   88.70   61.90
  -4 -15   0   10.27   50.07
  -4 -15   0   33.62   73.46
   4  15   0  -68.37   57.18
  -5 -15   0  296.02   87.40
   5  15   0   29.06   59.61
  -5 -15   0   63.11   56.72
  -6 -15   0   43.95   85.12
   6  15   0   39.64   58.50
  -6 -15   0  -68.21   51.24
  -7 -15   0   -9.53  103.25
   5 -16   0   -4.20   59.18
  -5  16   0  -27.10   73.13
  -4  16   0   62.87   77.61
   4 -16   0   40.52   62.00
  -4  16   0    6.49   66.12
   4 -16   0   37.63   71.31
   3 -16   0  -14.55   71.51
   3 -16   0    4.02   61.35
  -3  16   0   12.60   72.51
  -3  16   0  -32.62   73.51
  -2  16   0    6.18   65.19
  -2  16   0   15.77   75.10
   2 -16   0   60.17   59.57
   2 -16   0   14.37   76.98
  -1  16   0   44.73   72.81
  -1  16   0  -11.89   64.31
   1 -16   0   10.84   71.48
   1 -16   0    4.11   56.61
   0  16   0   42.77   67.55
   0 -16   0  119.35   64.00
   0 -16   0   57.42   80.31
   0  16   0    5.83   64.02
   1  16   0   -5.82   65.33
  -1 -16   0  -63.62   72.81
  -1 -16   0 -132.60   60.31
   1  16   0   27.78   67.18
  -2 -16   0  -49.52   81.83
  -2 -16   0 -117.93   60.02
   2  16   0  -22.42   62.70
  -3 -16   0   49.77   61.15
  -3 -16   0   10.81   79.01
   3  16   0   22.62   61.95
   3  16   0  -17.73   70.93
  -4 -16   0   95.44   84.98
   4  16   0  111.61   70.00
  -4 -16   0    3.79   53.15
  -5 -16   0   73.37   88.73
   5  16   0  -13.75   64.84
  -5 -16   0   46.21   56.94
  -6 -16   0   17.12   92.77
   6  16   0   14.48   68.45
  -6 -16   0  -11.70   57.99
  -7 -16   0 -104.47  111.99
   5 -17   0    4.55   67.72
  -5  17   0    7.44   72.41
   4 -17   0  147.49   87.13
  -4  17   0   49.38   91.45
  -4  17   0 -186.60   80.75
   4 -17   0 -184.43   66.38
   3 -17   0   83.55   87.67
   3 -17   0  121.35   70.18
  -3  17   0    6.98   68.17
  -3  17   0  197.82   87.91
  -2  17   0 -114.83   88.33
  -2  17   0    6.89   77.37
   2 -17   0  228.38   88.77
   2 -17   0    4.41   66.42
  -1  17   0    6.71   80.37
  -1  17   0   65.58   83.85
   1 -17   0   -8.98   65.90
   1 -17   0    3.92   91.60
   0  17   0  -21.31   75.58
   0  17   0   -6.57   72.74
   0 -17   0    9.04   64.49
   0 -17   0  -19.63   86.21
  -1 -17   0  -13.28   62.54
  -1 -17   0   68.80   91.45
   1  17   0   51.74   73.08
   1  17   0    6.59   77.08
  -2 -17   0   61.20   85.79
   2  17   0   -6.67   79.61
  -2 -17   0 -126.18   64.11
   2  17   0  135.14   70.59
   3  17   0   -6.82   76.24
   3  17   0  -35.36   68.70
  -3 -17   0   35.06   90.09
  -3 -17   0    4.25   58.64
  -4 -17   0   -4.02   83.45
  -4 -17   0  -37.70   55.85
   4  17   0   94.19   61.36
   4  17   0  -80.54   81.56
  -5 -17   0  130.04   95.09
   5  17   0  -65.90   65.72
  -5 -17   0   -4.25   55.23
  -6 -17   0  165.57  107.34
  -6 -17   0   -4.27   60.60
   6  17   0  -31.71   71.39
  -7 -17   0   57.84  118.91
   4 -18   0   22.37   96.62
   4 -18   0   23.53   74.23
  -4  18   0   20.19   93.17
  -4  18   0    7.96   79.87
   3 -18   0    4.68   65.93
   3 -18   0   13.06   95.53
  -3  18   0   13.06   92.59
  -3  18   0   77.53   77.75
  -2  18   0 -191.98   93.28
  -2  18   0  -62.38   88.85
   2 -18   0   57.74   74.63
   2 -18   0   80.18   91.32
  -1  18   0  -78.04   88.32
   1 -18   0 -118.08   88.47
  -1  18   0    7.58   87.33
   1 -18   0   14.70   70.88
   0  18   0   -5.92   88.42
   0 -18   0   -4.92   75.02
   0  18   0   -7.43   85.81
   0 -18   0  127.71   95.52
   1  18   0   -5.74   85.18
  -1 -18   0 -154.83   93.73
  -1 -18   0  -77.73   76.73
   1  18   0   29.95   90.56
   2  18   0  -61.53   79.88
  -2 -18   0  -75.09   92.88
   2  18   0    7.70   86.70
  -2 -18   0   72.17   70.02
   3  18   0  -39.24   77.10
   3  18   0 -362.40   99.66
  -3 -18   0   42.45   70.78
  -3 -18   0   63.55   97.21
   4  18   0  -49.46   72.88
  -4 -18   0   37.05   66.79
   4  18   0    8.41   96.18
  -4 -18   0   13.01   95.61
  -5 -18   0  -13.75  109.10
   5  18   0   11.23   79.92
  -5 -18   0   23.52   61.74
   5  18   0   -9.62  113.09
  -6 -18   0   64.33  111.40
   6  18   0 -140.54   83.13
  -6 -18   0   28.16   68.37
  -7 -18   0 -240.55  133.00
  -4  19   0 -256.38   96.63
  -4  19   0  110.02  106.46
   4 -19   0   25.23   77.12
   4 -19   0 -142.06  111.32
  -3  19   0    8.63  107.09
  -3  19   0  146.78  117.36
   3 -19   0  389.32  102.13
   3 -19   0  742.00  131.42
   2 -19   0 -146.25   80.65
  -2  19   0   47.45  110.03
  -2  19   0   25.75  108.11
   1 -19   0 -224.58   75.58
  -1  19   0    8.55   90.17
  -1  19   0  -53.27   95.12
   1 -19   0  -77.37  107.54
   0  19   0    8.44   96.39
   0  19   0  137.30   95.91
   0 -19   0   32.01  102.31
   0 -19   0   -5.34   77.64
   1  19   0   31.70   90.31
   1  19   0   -8.52  103.41
  -1 -19   0  -68.58  107.87
  -1 -19   0 -127.82   75.59
   2  19   0  -37.54   90.32
   2  19   0   96.77  111.16
  -2 -19   0 -418.77  117.82
  -2 -19   0 -345.58   83.35
   3  19   0 -138.43  118.74
  -3 -19   0  481.17  118.42
   3  19   0  130.35  101.93
  -3 -19   0  355.09   98.16
  -4 -19   0  -37.72  102.04
  -4 -19   0 -139.19   78.21
   4  19   0   48.81   87.69
   4  19   0    9.85  118.41
  -5 -19   0  -56.88   77.11
  -5 -19   0  -50.30  117.31
   5  19   0   11.14  125.15
   5  19   0  -93.48   86.55
  -6 -19   0 -103.30   76.69
   6  19   0  -38.91   91.82
   6  19   0   13.69  148.70
  -6 -19   0  156.28  121.56
  -7 -19   0   29.87  136.26
  -4  20   0  -15.75  121.45
  -4  20   0    9.83   82.58
   4 -20   0    5.50   84.39
   3 -20   0    5.19  107.65
  -3  20   0   -9.65  103.50
   3 -20   0   38.91   78.15
  -3  20   0  -22.73  106.44
  -2  20   0   37.03  107.70
  -2  20   0    9.60   98.60
   2 -20   0   90.61   90.19
   2 -20   0   80.06  116.39
   1 -20   0  200.20  110.14
   1 -20   0  -98.28   87.84
  -1  20   0   -7.33  103.46
  -1  20   0   28.91  107.15
   0 -20   0  -24.70   99.92
   0 -20   0   17.45   87.40
   0  20   0    9.66  108.47
   0  20   0   14.45  108.54
  -1 -20   0  -54.84  111.99
   1  20   0 -112.61   97.18
  -1 -20   0    5.86   83.45
   1  20   0    9.72  105.52
  -2 -20   0 -168.21  110.60
   2  20   0  -10.09  108.86
  -2 -20   0 -104.83   80.29
   2  20   0   70.14   95.54
  -3 -20   0 -212.75  116.15
   3  20   0 -193.60  117.63
   3  20   0  116.80  102.57
  -3 -20   0  -11.53   86.95
  -4 -20   0   51.45   77.83
   4  20   0 -163.50   94.67
   4  20   0  -11.67  140.65
  -4 -20   0   57.35  117.24
  -5 -20   0 -114.30   87.56
   5  20   0   13.10  158.35
  -5 -20   0   43.59  122.89
   5  20   0  110.89   96.51
   6  20   0 -136.70   92.28
   6  20   0  -95.99  181.07
  -6 -20   0  -51.33   81.67
  -6 -20   0   -5.90  127.86
   1   1  -1   -1.05    1.43
   1   1  -1    0.38    0.35
  -1  -1   1    0.26    0.39
  -1  -1   1    0.59    0.48
   1  -2  -1 1516.51  215.26
   1  -2  -1 1462.25  214.73
  -1   2  -1 1485.88  214.86
  -1   2   1 1450.81  214.91
   0   2  -1   -3.49    2.91
   0  -2  -1   -0.38    2.57
   0  -2   1   -0.39    1.51
   0   2   1    1.62    2.14
   0  -2   1    0.73    3.63
  -1  -2  -1 1335.76  197.58
   1   2  -1 1382.19  196.48
   1   2   1 1350.28  196.52
  -1  -2   1 1356.10  197.59
   2   2  -1   -2.15    4.84
   2  -3  -1   -2.25    9.36
  -2   3   1   -2.08    6.01
   1  -3   1  616.71  117.78
   0  -3  -1  335.21   70.52
   0   3  -1  391.83   74.79
   0   3   1  339.75   66.04
   0  -3   1  398.15   75.41
   0  -3   1  328.18   67.97
   0  -3   1  364.83   78.09
   0  -3   1  395.51   71.48
   1   3  -1  509.10   88.64
  -1  -3  -1  491.17  104.26
   1   3   1  501.50   88.90
  -1  -3   1  416.73  103.10
  -1  -3   1  531.27  105.14
  -1  -3   1  449.95   96.40
  -2  -3  -1   10.14    7.35
  -2  -3  -1    0.80    9.29
   2   3  -1   -3.95    5.47
   2   3  -1   -2.42    5.36
   2   3   1   14.22    5.71
  -2  -3   1    5.50    6.16
  -2  -3   1    0.63    8.23
  -2  -3   1   -0.44    3.63
   2  -4  -1  491.76  109.10
   1  -4  -1  119.52   22.16
  -1   4  -1   90.58   21.95
   1  -4   1  101.55   24.42
   1  -4   1   86.70   21.76
   0   4  -1   -4.40   11.55
   0  -4  -1    3.82    8.07
   0   4  -1   -2.58    6.62
   0  -4   1    2.22   10.86
   0   4   1   -0.81    7.92
   0  -4   1    3.65   14.03
   0  -4   1   -1.54    8.28
   0  -4   1    0.41    4.03
  -1  -4  -1  103.24   20.79
  -1  -4  -1   83.94   24.58
   1   4  -1  117.71   21.49
   1   4  -1   91.72   19.00
  -1  -4   1   83.95   23.48
  -1  -4   1   93.20   20.61
   1   4   1   80.56   19.20
  -1  -4   1   91.43   17.91
  -1  -4   1   97.27   23.35
   2   4  -1  728.81  115.10
  -2  -4  -1  336.61  129.65
   2   4  -1  667.71  131.38
   2   4   1  660.85  114.15
  -2  -4   1  659.43  117.67
  -2  -4   1  640.78  132.16
  -2  -4   1  770.67  132.15
  -2  -4   1  637.85  125.22
   3   4  -1  138.57   25.47
  -3  -4   1  113.35   30.79
   1  -5  -1 2327.15  381.26
   1  -5   1 2066.66  392.22
   1  -5   1 1413.40  418.38
   0  -5  -1  103.29   28.96
   0   5  -1  139.14   25.93
   0  -5  -1  117.20   26.49
   0   5  -1  164.62   30.25
   0  -5  -1  127.30   22.57
   0  -5   1  152.47   27.25
   0  -5   1  158.13   30.25
   0   5   1  150.60   27.52
   0   5   1  110.74   26.04
   0  -5   1   72.77   23.70
   0   5   1  113.43   25.32
   0  -5   1  112.51   33.20
  -1  -5  -1 2079.88  434.72
  -1  -5  -1 2175.64  411.92
   1   5  -1 2021.66  429.53
   1   5  -1 2007.73  383.03
  -1  -5  -1 2277.75  399.45
  -1  -5   1 2100.98  382.49
  -1  -5   1 2310.14  440.12
   1   5   1 1980.54  382.92
   1   5   1 2129.06  439.15
  -1  -5   1 2291.25  411.62
  -1  -5   1 2099.50  437.36
   2   5  -1  520.76  111.45
  -2  -5   1  537.21   99.30
  -2  -5   1  540.63  111.37
   2   5   1  615.74   97.87
  -2  -5   1  522.98  105.01
  -2  -5   1  475.91  113.82
   3   5  -1 1052.49  187.03
  -3  -5   1  957.85  214.50
  -3  -5   1 1085.64  208.09
   3  -6  -1   15.57   17.95
   3  -6  -1   13.59   23.12
  -3   6   1   10.58   19.53
   2  -6  -1 2494.88  505.12
   2  -6   1 2817.27  532.10
  -1   6  -1  308.27   53.11
   1  -6   1  254.07   57.62
   1  -6   1  209.51   49.26
   0  -6  -1   12.99   19.73
   0  -6  -1   -0.30    4.62
   0   6  -1    3.92   22.96
   0  -6  -1   -1.00   17.59
   0  -6   1   11.40   23.33
   0   6   1    0.42    8.35
   0  -6   1   -3.13    6.78
   0   6   1   -8.71   16.68
  -1  -6  -1  170.29   55.64
  -1  -6  -1  277.65   46.86
   1   6  -1  295.53   52.54
  -1  -6  -1  230.74   53.09
   1   6  -1  245.38   53.72
  -1  -6   1  223.53   44.91
  -1  -6   1  260.43   55.68
   2   6  -1 2542.80  515.33
  -2  -6  -1 2389.88  515.94
  -2  -6  -1 2558.63  519.91
  -2  -6   1 2649.74  457.06
  -2  -6   1 2137.89  511.92
  -3  -6  -1    1.40   24.03
  -3  -6  -1   16.86   16.27
   3   6  -1    2.04   13.93
   3   6   1    5.59   14.51
  -3  -6   1   11.00   25.35
  -3  -6   1   -7.55   22.58
  -4  -6  -1   46.43   34.36
   4   6  -1   28.12   17.51
  -4  -6   1   20.10   27.27
   4  -7  -1  488.92   92.85
  -4   7   1  377.63   93.30
   3  -7  -1   28.99   21.75
  -3   7  -1   -2.47   22.20
   3  -7  -1    7.50   26.98
   3  -7   1   -1.60   27.40
   3  -7   1   33.15   21.35
  -3   7   1   43.58   22.07
   2  -7   1  520.62  109.29
   2  -7   1  539.88  116.68
  -1   7  -1  228.22   44.38
   1  -7  -1  221.59   43.31
   1  -7  -1  104.29   37.55
   1  -7   1  275.79   39.03
   1  -7   1  209.74   48.59
   1  -7   1  230.01   44.40
   0  -7  -1   -1.09    5.73
   0   7  -1   23.83   28.13
   0   7  -1   29.96   17.89
   0  -7  -1   -9.47   18.28
   0  -7  -1    2.78   26.10
   0   7  -1  -18.06   15.42
   0  -7  -1   26.62   17.92
   0  -7   1   -9.71   26.30
   0  -7   1  -10.81   24.70
   0   7   1   -0.49    9.56
   0   7   1   19.94   19.47
   0  -7   1   15.69   17.93
   0  -7   1   -1.15    8.24
   0   7   1    8.19   22.37
  -1  -7  -1  161.83   49.44
  -1  -7  -1  194.27   42.06
   1   7  -1  186.21   45.52
   1   7  -1  232.38   39.70
  -1  -7  -1  145.93   44.86
   1   7  -1  203.59   42.28
   1   7   1  242.82   43.07
  -1  -7   1  173.40   47.76
  -1  -7   1  245.13   48.23
   1   7   1  266.83   40.34
  -1  -7   1  233.16   42.18
  -1  -7   1  126.83   36.31
   1   7   1  210.80   41.58
  -2  -7  -1  646.45  123.95
   2   7  -1  498.07  105.28
   2   7  -1  512.97  119.77
  -2  -7  -1  384.02  119.35
  -2  -7   1  698.92  119.64
  -2  -7   1  597.95  112.50
  -2  -7   1  612.69  106.14
  -2  -7   1  651.87  121.69
  -3  -7  -1   15.56   29.21
  -3  -7  -1   -1.52   19.11
   3   7  -1    4.45   16.07
   3   7  -1   36.61   17.53
  -3  -7   1   39.86   11.70
   3   7   1    3.20   19.42
  -3  -7   1   44.19   28.74
  -3  -7   1   25.44   18.17
  -3  -7   1   40.97   26.50
  -4  -7  -1  633.33  105.57
   4   7  -1  507.71   90.19
  -4  -7  -1  466.15   97.27
   4   7   1  335.37   90.53
  -4  -7   1  505.53   97.55
  -4  -7   1  464.50  104.32
  -5  -7   1  336.17   84.63
   4  -8  -1  109.18   45.67
   4  -8  -1  119.27   43.30
  -4   8   1  198.38   43.98
   3  -8  -1  987.71  216.84
   3  -8   1  792.70  215.78
   3  -8   1  950.93  237.90
  -3   8   1  891.98  222.15
   2  -8  -1  226.07   44.09
  -2   8  -1  130.00   42.77
   2  -8  -1  171.75   36.22
   2  -8   1  241.19   44.04
   2  -8   1  119.31   38.94
   2  -8   1  195.14   48.42
   1  -8  -1   73.88   15.20
  -1   8  -1   42.38   23.97
   1  -8  -1   95.43   27.43
   1  -8  -1   79.76   35.09
   1  -8   1  102.87   28.31
   1  -8   1   90.81   17.90
   1  -8   1   44.36   32.39
  -1   8   1   72.41   24.15
   0   8  -1   22.89   22.64
   0   8  -1    1.46   34.91
   0  -8  -1    4.83   32.46
   0   8  -1   -9.71   17.30
   0  -8  -1  -16.26   21.64
   0  -8  -1    1.27    6.62
   0  -8  -1   11.62   20.80
   0   8   1   13.24   16.51
   0  -8   1   18.60   27.96
   0  -8   1   -9.31   29.03
   0   8   1    4.25   29.02
   0   8   1   -5.40   22.74
   0   8   1   -7.22   11.17
   0  -8   1    8.30   21.32
   0  -8   1   11.34    9.42
   1   8  -1   90.69   29.46
   1   8  -1   41.89   20.39
  -1  -8  -1   85.35   28.47
  -1  -8  -1   78.97   15.93
  -1  -8  -1   46.12   23.45
  -1  -8  -1   75.50   34.72
   1   8  -1   41.71   24.35
  -1  -8   1   85.94   34.36
  -1  -8   1   61.16   14.88
  -1  -8   1  117.55   35.07
   1   8   1   47.94   23.81
   1   8   1   39.54   24.50
   1   8   1   56.89   18.14
  -1  -8   1   73.52   23.98
  -2  -8  -1  234.43   41.21
   2   8  -1  144.60   44.06
  -2  -8  -1  198.15   50.52
   2   8  -1  176.93   38.83
  -2  -8  -1  103.30   43.93
   2   8  -1   91.59   40.00
  -2  -8   1  253.27   40.92
   2   8   1  219.30   39.15
  -2  -8   1  218.41   48.45
  -2  -8   1  204.59   34.48
  -2  -8   1  147.58   47.32
  -3  -8  -1 1394.02  290.23
  -3  -8  -1 1365.49  273.81
   3   8  -1 1130.08  259.05
  -3  -8  -1 1460.80  294.68
   3   8   1 1167.59  257.98
  -3  -8   1 1558.09  273.84
  -3  -8   1 2173.96  291.76
  -4  -8  -1  181.75   43.45
   4   8  -1  161.67   39.06
  -4  -8  -1  202.19   53.12
   4   8   1  155.74   41.37
  -4  -8   1  225.04   42.36
  -4  -8   1  159.62   51.38
  -5  -8  -1  960.66  190.12
   5   8  -1  787.98  166.82
  -5  -8   1  795.46  190.76
  -5  -8   1 1054.77  190.48
   4  -9  -1 1275.33  301.24
   4  -9  -1 1760.49  323.69
  -4   9   1 1559.76  305.96
   4  -9   1 1354.17  301.44
  -3   9  -1   21.74   29.64
   3  -9  -1   17.00   29.15
   3  -9   1   -7.67   34.11
   3  -9   1  -22.95   27.94
   2  -9  -1  752.00  130.69
  -2   9  -1  668.21  132.84
   2  -9   1  699.80  131.12
   2  -9   1  492.65  123.46
   2  -9   1  641.85  137.61
  -1   9  -1    5.11   25.33
   1  -9  -1   31.80   27.58
   1  -9  -1   12.72   36.18
   1  -9   1    2.99   11.10
   1  -9   1   15.85   27.51
  -1   9   1   -2.48   24.53
  -1   9   1  -13.23   27.88
   1  -9   1    1.80   34.21
   0  -9  -1   38.59   36.87
   0   9  -1   47.25   25.79
   0  -9  -1    9.09    7.81
   0   9  -1  -15.15   46.00
   0  -9  -1   -7.50   23.20
   0   9  -1   -2.31   22.68
   0  -9   1   15.14   24.85
   0  -9   1    8.70   10.05
   0   9   1   18.76   12.66
   0   9   1   10.43   25.79
   0  -9   1   -5.34   33.05
   0  -9   1  -24.49   30.13
   0   9   1   20.04   22.99
   0   9   1   14.77   40.01
  -1  -9  -1   -1.68   31.02
   1   9  -1    2.92   17.98
   1   9  -1    2.11   21.33
  -1  -9  -1   34.48   37.00
   1   9  -1  -29.09   26.80
  -1  -9  -1    9.73   11.69
   1   9  -1    6.65   33.73
  -1  -9  -1  -36.62   26.15
   1   9   1  -13.85   26.18
   1   9   1   16.59   27.01
   1   9   1    1.49   13.76
  -1  -9   1    7.09   34.67
  -1  -9   1  -25.37   37.05
  -1  -9   1   -6.22    9.10
  -1  -9   1   -1.81   24.23
  -2  -9  -1  754.62  140.65
  -2  -9  -1  660.13  135.78
   2   9  -1  513.26  139.96
  -2  -9  -1  617.64  129.25
   2   9  -1  588.51  121.64
   2   9   1  790.33  121.22
  -2  -9   1  684.44  139.78
  -2  -9   1  578.96  137.78
  -2  -9   1  681.15  129.07
  -3  -9  -1   31.47   23.61
  -3  -9  -1  -17.48   38.55
  -3  -9  -1   53.77   32.68
   3   9  -1  -17.85   25.51
   3   9   1    6.28   27.12
  -3  -9   1   28.91   36.07
  -3  -9   1   23.02   23.53
  -4  -9  -1 1576.46  318.02
   4   9  -1 1699.02  297.65
  -4  -9  -1 1780.59  340.57
  -4  -9   1 1659.62  344.59
   4   9   1 1436.05  298.05
  -4  -9   1 1666.52  316.26
  -5  -9  -1  419.47   79.98
   5   9  -1  347.79   60.71
   5   9   1  132.13   59.85
  -5  -9   1  263.09   74.36
  -5  -9   1  281.08   74.02
  -5  -9   1  289.32   63.36
  -6  -9   1  216.92   77.65
   4 -10  -1   19.98   35.75
  -4  10  -1   71.02   38.74
   4 -10  -1   79.14   42.88
  -4  10   1  105.84   37.73
   4 -10   1   68.81   37.90
   3 -10  -1 1078.74  212.80
  -3  10  -1 1139.33  214.63
   3 -10   1 1189.83  224.31
   3 -10   1 1006.97  211.82
   2 -10  -1   59.15   31.62
   2 -10  -1    4.17   39.65
  -2  10  -1   22.49   32.29
   2 -10   1   52.70   39.69
   2 -10   1  -11.38   30.93
   1 -10  -1   91.76   31.72
  -1  10  -1   14.50   28.05
   1 -10  -1   44.45   44.08
  -1  10   1   42.76   30.70
   1 -10   1   34.47   41.26
   1 -10   1   35.93   31.86
  -1  10   1   -7.57   33.41
   0 -10  -1   -2.15   29.69
   0 -10  -1  -10.21   38.85
   0  10  -1    2.67   29.08
   0  10  -1   14.27   31.11
   0 -10   1   17.22   30.54
   0  10   1  -38.69   25.49
   0 -10   1    7.94   40.71
   0  10   1   -2.38   32.32
  -1 -10  -1   20.34   44.50
   1  10  -1   46.34   21.87
  -1 -10  -1   54.30   28.69
   1  10  -1   34.29   26.96
   1  10  -1   37.65   32.76
   1  10  -1   64.37   45.28
  -1 -10   1   32.04   43.57
   1  10   1   61.29   31.11
  -1 -10   1   41.44   29.96
   2  10  -1   39.70   32.01
  -2 -10  -1   24.22   27.22
  -2 -10  -1   57.55   42.45
   2  10  -1   35.76   33.05
  -2 -10   1   25.69   41.81
   2  10   1   31.66   31.41
  -2 -10   1   19.85   25.49
   3  10  -1  908.35  186.32
  -3 -10  -1 1074.61  215.57
   3  10  -1  946.04  209.69
   3  10   1  921.11  187.34
  -3 -10   1 1077.48  214.58
  -4 -10  -1   79.62   51.46
   4  10  -1  125.57   34.38
  -4 -10  -1   56.89   32.37
  -4 -10   1   57.76   31.62
   4  10   1   41.54   35.20
  -4 -10   1   51.10   45.46
  -4 -10   1   28.46   46.64
  -5 -10  -1  408.64   79.25
  -5 -10  -1  570.27   96.00
   5  10  -1  344.71   75.04
  -5 -10   1  280.01   92.37
  -5 -10   1  424.49   90.27
   5  10   1  289.51   76.67
  -5 -10   1  283.69   77.91
  -6 -10   1  407.71   94.66
  -6 -10   1  272.15   82.88
   5 -11  -1  119.62   48.87
  -5  11   1   95.64   50.81
  -4  11  -1  615.78  110.28
   4 -11  -1  618.72  108.20
   4 -11   1  488.80  115.06
   4 -11   1  410.82  105.71
   3 -11  -1   23.29   37.43
  -3  11  -1   19.10   39.67
   3 -11   1   10.24   33.83
   3 -11   1  -18.46   45.02
  -2  11  -1   64.60   40.48
   2 -11  -1   34.81   48.32
   2 -11  -1   43.31   36.80
  -2  11   1   20.69   37.61
   2 -11   1  121.56   47.24
   2 -11   1   62.80   36.55
   1 -11  -1   15.83   47.61
  -1  11  -1   39.39   33.96
  -1  11  -1   14.25   41.10
   1 -11  -1   22.40   35.15
   1 -11   1   18.11   43.29
  -1  11   1   92.53   40.84
   1 -11   1   45.48   37.08
  -1  11   1  -19.51   35.15
   0  11  -1   32.48   39.07
   0 -11  -1   70.68   37.88
   0 -11  -1   72.60   47.59
   0  11  -1   64.43   37.09
   0  11   1   78.36   35.82
   0 -11   1  144.33   50.85
   0  11   1   75.33   36.85
   0 -11   1    7.24   34.57
   1  11  -1   48.03   34.93
  -1 -11  -1   20.51   49.23
   1  11  -1    5.67   29.58
  -1 -11  -1   42.58   34.05
  -1 -11   1   19.84   44.65
   1  11   1    2.92   28.38
  -1 -11   1   35.30   34.96
   1  11   1   54.39   36.94
  -2 -11  -1   61.36   32.46
   2  11  -1   64.94   39.07
  -2 -11  -1   31.84   51.54
  -2 -11   1  103.40   34.50
   2  11   1   61.33   35.86
  -2 -11   1  101.15   49.14
  -3 -11  -1    2.32   49.63
   3  11  -1  -35.11   32.15
  -3 -11  -1  -27.21   31.61
   3  11   1   31.86   35.77
  -3 -11   1   -8.88   29.06
  -3 -11   1   24.62   45.78
  -4 -11  -1  597.42  114.95
  -4 -11  -1  462.16  101.43
   4  11  -1  664.29   97.26
   4  11   1  496.21   97.79
  -4 -11   1  451.86  113.10
  -4 -11   1  372.20  100.74
   5  11  -1  118.99   38.89
  -5 -11  -1  170.59   64.46
  -5 -11  -1   54.10   39.33
  -5 -11   1   36.19   56.96
  -5 -11   1   22.13   34.77
   5  11   1   64.57   42.72
   6  11  -1  127.50   45.80
  -6 -11  -1  104.99   82.07
  -6 -11   1  117.47   67.69
   5 -12  -1  255.35   64.08
  -5  12   1  231.61   68.15
  -4  12  -1  -22.54   44.17
   4 -12  -1   32.51   42.04
   4 -12   1   31.78   40.82
   4 -12   1   13.38   50.09
   3 -12  -1  259.95   58.36
  -3  12  -1  215.38   61.94
   3 -12   1  232.91   66.22
   3 -12   1   97.87   55.48
   2 -12  -1   62.39   41.63
  -2  12  -1   28.01   43.57
   2 -12  -1  114.81   55.37
   2 -12   1   30.89   41.05
  -2  12   1  135.26   51.21
  -2  12   1  -15.54   44.04
   2 -12   1   12.42   55.33
   1 -12  -1  -24.92   42.26
  -1  12  -1   25.68   44.31
   1 -12  -1  -10.09   51.67
  -1  12  -1   81.38   41.00
   1 -12   1   39.16   40.88
  -1  12   1   -9.84   47.74
  -1  12   1  -14.77   45.38
   1 -12   1    2.52   55.07
   0 -12  -1  240.89   58.72
   0 -12  -1  223.03   70.58
   0  12   1  259.02   60.41
   0  12   1  161.63   53.87
   1  12  -1  -14.36   40.32
   1  12  -1   46.11   34.42
  -1 -12  -1    7.59   54.64
  -1 -12  -1   45.11   38.00
   1  12   1   30.06   37.90
   1  12   1   -2.93   37.63
  -1 -12   1   58.32   36.65
  -1 -12   1   14.78   54.34
   2  12  -1   74.65   40.92
   2  12  -1   56.56   42.99
  -2 -12  -1   85.05   57.28
  -2 -12  -1   89.29   40.04
   2  12   1  132.33   43.57
  -2 -12   1    7.59   38.89
  -2 -12   1   34.33   55.95
  -3 -12  -1  174.22   53.53
   3  12  -1  264.76   51.83
  -3 -12  -1  201.72   67.16
   3  12   1  177.86   56.59
  -3 -12   1  173.90   54.46
  -3 -12   1  162.71   65.70
   4  12  -1   23.15   42.26
  -4 -12  -1   10.37   34.17
  -4 -12  -1  -29.50   57.30
  -4 -12   1   15.04   35.40
  -4 -12   1  -15.30   53.97
   4  12   1   -5.98   42.62
  -5 -12  -1  150.34   74.19
   5  12  -1  133.72   51.05
  -5 -12  -1  113.14   47.30
  -5 -12   1  127.96   51.41
  -5 -12   1  272.89   69.21
   5  12   1  186.11   52.16
  -6 -12  -1  -11.75   82.82
   6  12  -1   20.01   43.17
  -6 -12   1   60.98   69.06
  -7 -12   1   45.33   81.49
  -5  13   1   -5.14   51.26
   3 -13  -1  -18.88   42.57
   3 -13   1   45.60   44.14
  -2  13  -1  -34.13   54.36
   2 -13  -1  -15.57   45.26
  -2  13  -1   57.95   45.14
   2 -13  -1  165.63   58.45
   2 -13   1   79.16   54.74
   2 -13   1  -40.19   47.99
  -2  13   1   11.64   55.99
  -2  13   1  244.84   50.23
  -1  13  -1    3.63   51.41
   1 -13  -1   42.82   44.20
  -1  13  -1   45.78   46.92
   1 -13  -1   44.72   61.46
   1 -13   1    2.77   58.59
  -1  13   1   51.52   52.05
   1 -13   1  -30.72   46.21
  -1  13   1   29.22   42.54
   0 -13  -1   45.68   46.66
   0  13  -1    3.99   44.77
   0 -13  -1   85.63   62.29
   0  13  -1   -3.40   49.13
   0 -13   1   24.23   60.96
   0 -13   1   33.60   46.10
   0  13   1   20.10   44.33
   0  13   1   95.58   49.77
   1  13  -1   37.93   41.57
  -1 -13  -1   44.41   43.81
  -1 -13  -1   43.98   59.89
   1  13  -1   48.53   45.64
  -1 -13   1   29.74   56.32
   1  13   1  -15.31   45.41
   1  13   1   59.71   48.53
  -1 -13   1   17.83   38.60
  -2 -13  -1  -44.05   61.37
   2  13  -1   15.93   47.06
  -2 -13  -1   -5.70   43.19
   2  13  -1   22.37   40.29
   2  13   1  -35.52   44.69
  -2 -13   1    8.13   59.69
  -2 -13   1   56.77   42.00
  -3 -13  -1   53.42   42.36
  -3 -13  -1  114.49   58.60
   3  13  -1   12.64   46.85
   3  13   1   42.91   49.41
  -3 -13   1   11.10   40.33
  -3 -13   1   43.13   60.00
  -4 -13  -1  147.32   48.17
   4  13  -1  115.64   53.08
  -4 -13   1  143.70   66.43
  -4 -13   1   72.08   46.49
   4  13   1  175.88   52.92
   5  13  -1   70.30   48.02
  -5 -13   1   28.78   43.97
   5  13   1   -3.50   47.82
  -5 -13   1  241.19   68.04
   6  13  -1  140.75   56.14
  -6 -13   1  162.26   54.39
   5 -14  -1  351.24   84.20
   4 -14  -1  -83.46   50.23
  -4  14  -1   75.68   51.75
   4 -14   1   63.37   59.03
   4 -14   1  -50.44   48.04
  -3  14  -1   56.49   56.23
   3 -14  -1   51.59   65.81
   3 -14  -1   65.30   56.71
  -3  14   1   92.69   60.16
   3 -14   1  167.46   63.79
   3 -14   1  124.19   51.69
  -3  14   1  -13.86   68.95
   2 -14  -1   43.04   65.92
  -2  14  -1    4.96   53.95
   2 -14  -1   -3.40   32.37
   2 -14   1   35.90   64.08
  -2  14   1  -73.77   54.66
   1 -14  -1   33.90   67.94
  -1  14   1   14.16   48.26
   0 -14  -1   -3.03   61.06
   0  14   1   -4.61   53.53
   1  14   1   -4.43   52.76
  -2 -14  -1   -3.03   64.08
   2  14   1   -4.43   49.04
  -3 -14  -1   39.51   66.10
  -4 -14  -1  -18.94   71.09
   4  14   1   -3.68   39.77
  -5 -14  -1  279.41   98.69
  -5 -14  -1  133.01   64.62
  -5 -14   1  284.35   90.14
   5  14   1  207.60   69.71
  -6 -14  -1   37.83   50.09
  -6 -14  -1  -48.59   92.94
   6  14  -1  110.06   52.18
  -6 -14   1   13.06   46.60
   6  14   1   70.45   54.24
  -6 -14   1   24.43   73.71
  -7 -14   1 -111.56   92.33
   5 -15  -1  247.45   68.58
  -4  15  -1   17.79   59.71
   4 -15  -1  120.49   70.75
   4 -15  -1   68.40   56.71
   4 -15   1  141.63   73.62
   4 -15   1   61.70   53.12
   3 -15  -1  -29.99   72.97
  -3  15  -1  105.49   64.56
  -3  15  -1    5.67   61.25
   3 -15  -1  -63.65   52.26
   3 -15   1   84.10   52.15
   3 -15   1  -29.99   68.66
  -3  15   1   10.17   73.13
  -3  15   1  -68.60   63.45
  -2  15  -1    5.52   60.22
  -2  15  -1   74.19   64.00
   2 -15  -1   33.60   72.86
   2 -15  -1   62.75   56.36
  -2  15   1    5.53   60.60
  -2  15   1   34.05   65.82
   2 -15   1    3.68   52.10
   2 -15   1   45.78   66.96
  -1  15  -1    8.95   64.47
  -1  15  -1  -10.52   61.92
   1 -15  -1  -91.35   73.33
   1 -15  -1  -33.81   60.88
  -1  15   1   31.69   66.93
   1 -15   1  -78.79   75.12
  -1  15   1  -15.93   63.78
   1 -15   1 -133.75   55.04
   0 -15  -1  -32.81   72.97
   0  15  -1    5.10   60.77
   0  15  -1   -8.45   65.31
   0 -15  -1  -37.38   59.61
   0  15   1  -20.91   59.90
   0  15   1  -64.42   62.43
   0 -15   1  -29.91   55.08
   0 -15   1   16.32   73.55
  -1 -15  -1  -61.73   59.70
   1  15  -1 -176.04   58.98
   1  15  -1   12.31   59.09
  -1 -15  -1  -46.34   75.19
  -1 -15   1  -80.69   57.91
   1  15   1  -25.06   60.97
  -1 -15   1  -51.45   77.36
   1  15   1    5.14   61.83
  -2 -15  -1   17.76   52.17
   2  15  -1  -51.70   57.24
  -2 -15  -1  -26.20   72.43
   2  15  -1  -63.84   61.09
  -2 -15   1    9.60   71.58
   2  15   1   68.94   56.66
   2  15   1   30.41   59.92
  -2 -15   1   88.07   55.00
   3  15  -1    9.98   61.15
   3  15  -1   47.57   56.84
  -3 -15  -1   29.96   73.84
  -3 -15  -1    3.46   48.49
  -3 -15   1   79.43   52.38
  -3 -15   1    9.77   72.28
   3  15   1    8.22   60.45
  -4 -15  -1   44.89   48.22
  -4 -15  -1   75.58   71.30
   4  15  -1    3.97   52.09
   4  15   1  110.11   57.84
  -4 -15   1   37.38   50.10
  -4 -15   1   59.21   73.65
  -5 -15  -1    7.10   51.67
   5  15  -1   -8.09   57.52
  -5 -15  -1  152.98   85.40
  -5 -15   1   34.59   77.30
   5  15   1   -4.23   56.06
  -5 -15   1    3.43   49.57
  -6 -15  -1   25.55   93.76
  -6 -15  -1   55.24   54.06
   6  15  -1   38.51   57.63
  -6 -15   1  -14.12   49.59
  -6 -15   1  -48.83   84.39
   6  15   1   31.59   61.00
  -7 -15  -1   38.22  118.14
  -7 -15   1   85.39   95.36
   5 -16  -1  -95.67   64.41
   4 -16  -1    3.77   75.13
  -4  16  -1    6.52   70.46
   4 -16  -1 -165.87   61.13
   4 -16   1  -59.35   56.52
  -4  16   1    6.49   58.83
  -4  16   1  101.25   85.34
   4 -16   1  -98.00   77.37
   3 -16  -1  153.20   80.87
  -3  16  -1   31.31   70.73
   3 -16  -1    4.04   56.47
  -3  16  -1  177.40   78.20
  -3  16   1  120.67   75.34
  -3  16   1   73.38   81.86
   3 -16   1   59.59   59.37
   3 -16   1    7.29   78.02
  -2  16  -1   35.98   70.72
   2 -16  -1   24.36   59.08
   2 -16  -1    3.63   78.13
  -2  16  -1  -85.79   68.72
  -2  16   1   -6.21   71.33
   2 -16   1   -3.53   76.15
  -2  16   1   32.06   75.34
   2 -16   1  -19.99   55.22
  -1  16  -1    9.79   71.27
  -1  16  -1    5.92   66.55
   1 -16  -1   -4.12   60.15
   1 -16  -1    3.68   79.78
   1 -16   1   67.77   71.46
  -1  16   1  -83.70   64.72
   1 -16   1   12.31   62.44
  -1  16   1  -35.02   76.49
   0  16  -1    5.74   61.77
   0  16  -1   32.95   68.81
   0 -16  -1   14.42   81.10
   0 -16  -1   41.21   60.58
   0  16   1   41.36   67.31
   0 -16   1  -69.95   61.36
   0 -16   1   42.91   75.50
   0  16   1   33.82   66.24
  -1 -16  -1   85.66   74.82
   1  16  -1   55.15   67.99
  -1 -16  -1   -4.01   59.33
   1  16  -1 -239.51   65.29
   1  16   1   -5.88   70.75
  -1 -16   1   56.53   62.68
   1  16   1   70.20   73.07
  -1 -16   1  -55.57   79.00
  -2 -16  -1   -3.94   55.79
   2  16  -1   -5.70   65.64
  -2 -16  -1  -28.78   82.90
   2  16  -1    4.44   59.45
   2  16   1    5.85   69.89
   2  16   1   13.59   65.56
  -2 -16   1   19.54   55.13
  -2 -16   1   52.93   80.14
   3  16  -1   -5.71   66.39
  -3 -16  -1  -76.67   82.07
   3  16  -1  -48.85   59.90
  -3 -16  -1   -7.71   54.57
   3  16   1   24.29   68.22
  -3 -16   1  -34.42   52.31
   3  16   1   18.30   64.66
  -3 -16   1  136.88   76.58
   4  16  -1   39.78   61.97
  -4 -16  -1  130.79   87.22
   4  16  -1  -49.04   73.61
  -4 -16  -1  -57.20   54.30
   4  16   1   27.09   58.20
  -4 -16   1  125.98   75.84
  -4 -16   1   22.57   53.35
  -5 -16  -1  -56.44   89.07
   5  16  -1   17.89   64.76
  -5 -16  -1   89.59   58.26
  -5 -16   1   63.57   83.46
  -5 -16   1   71.80   54.13
   5  16   1  -18.66   64.28
  -6 -16  -1  -59.30  104.80
  -6 -16  -1 -103.63   60.07
   6  16  -1   42.29   62.85
   6  16   1   54.31   68.24
  -6 -16   1   38.48   53.84
  -6 -16   1 -140.74   96.63
  -7 -16  -1   55.70  124.46
  -7 -16   1  -22.51   98.41
   5 -17  -1   -4.69   67.78
  -5  17   1  112.69  106.50
   4 -17  -1    8.23   86.40
   4 -17  -1   17.88   68.65
  -4  17  -1   52.49   88.47
  -4  17  -1    7.18   59.01
  -4  17   1   14.37   81.43
   4 -17   1  -32.94   89.37
   4 -17   1  -64.56   67.07
  -4  17   1   19.54   88.40
   3 -17  -1   -4.36   64.08
  -3  17  -1   -6.93   70.09
  -3  17  -1   45.89   84.70
   3 -17  -1  -75.57   86.25
   3 -17   1    4.27   64.01
  -3  17   1   -6.23   88.69
   3 -17   1 -139.60   86.31
  -3  17   1 -162.30   72.59
   2 -17  -1  191.93   71.20
  -2  17  -1  -50.58   83.03
  -2  17  -1    6.80   73.14
   2 -17  -1   51.28   91.85
  -2  17   1    6.96   68.30
  -2  17   1  -23.32   83.56
   2 -17   1  100.28   88.61
   2 -17   1 -108.55   68.47
   1 -17  -1 -162.84   89.47
  -1  17  -1   64.79   83.33
   1 -17  -1    4.51   67.24
  -1  17  -1   -6.66   73.27
   1 -17   1 -107.63   65.14
   1 -17   1 -119.31   88.49
  -1  17   1  -44.47   86.12
  -1  17   1   -6.75   75.48
   0 -17  -1   31.55   67.55
   0  17  -1  -15.68   76.77
   0  17  -1    6.47   74.06
   0 -17  -1 -106.34   93.79
   0  17   1   37.77   72.96
   0 -17   1    9.05   63.04
   0  17   1    6.69   74.44
   0 -17   1  -19.43   91.11
  -1 -17  -1    4.42   68.74
  -1 -17  -1 -111.33   91.90
   1  17  -1  -38.75   72.46
   1  17  -1   20.44   70.77
  -1 -17   1  -57.56   63.19
  -1 -17   1    3.81   84.97
   1  17   1  -99.05   76.44
   1  17   1    6.74   77.45
   2  17  -1  237.89   72.25
   2  17  -1    6.52   75.51
  -2 -17  -1 -122.23   61.26
  -2 -17  -1   89.88   93.51
  -2 -17   1   86.84   71.66
  -2 -17   1   91.00   84.09
   2  17   1    6.72   82.32
   2  17   1   55.77   69.64
  -3 -17  -1 -114.13   86.79
  -3 -17  -1  -42.83   68.85
   3  17  -1  -39.84   74.87
   3  17  -1    6.63   74.71
   3  17   1 -104.37   83.15
  -3 -17   1   25.34   66.81
  -3 -17   1   19.09   88.31
   3  17   1 -116.82   78.12
  -4 -17  -1   -4.24   57.77
   4  17  -1   53.92   69.81
  -4 -17  -1   -4.11   91.77
   4  17  -1   -7.02   79.67
  -4 -17   1   45.73   57.31
   4  17   1    7.67   93.58
  -4 -17   1 -126.35   90.44
   4  17   1  -70.03   69.71
  -5 -17  -1 -180.31   59.94
  -5 -17  -1  296.30  100.40
   5  17  -1  -29.71   68.14
   5  17   1 -103.04   72.25
  -5 -17   1  -16.68   59.50
  -5 -17   1   -4.07   94.81
   6  17  -1   -5.18   65.88
  -6 -17  -1  -24.43  100.84
  -6 -17  -1   -4.35   60.07
  -6 -17   1  -47.63  102.86
   6  17   1  -70.47   72.45
  -6 -17   1    8.41   58.13
  -7 -17  -1   64.60  127.09
  -7 -17   1   52.40  109.05
   5 -18  -1  -55.70   76.89
  -5  18   1  -22.70  106.65
  -5  18   1   -8.22   88.11
   4 -18  -1   38.47   71.70
  -4  18  -1    7.91   76.88
   4 -18  -1   26.91   94.74
  -4  18  -1   63.15   90.56
  -4  18   1   -7.99   74.31
   4 -18   1  251.93  100.10
  -4  18   1  -71.48  105.11
   4 -18   1   -4.63   67.34
  -3  18  -1   -7.68   87.99
   3 -18  -1  -19.08   70.61
   3 -18  -1    4.34   82.64
  -3  18  -1    6.26   90.09
  -3  18   1  -27.08  100.13
   3 -18   1   27.54   69.57
   3 -18   1   26.10   93.33
  -3  18   1   15.69   91.45
   2 -18  -1  101.79   92.32
  -2  18  -1    7.57   83.54
  -2  18  -1  -30.24   93.19
   2 -18  -1   38.86   69.92
  -2  18   1  -19.11   99.87
  -2  18   1 -311.85   88.60
   2 -18   1   -4.21   91.69
   2 -18   1    4.77   69.67
  -1  18  -1    7.48   83.32
  -1  18  -1  135.60   79.95
   1 -18  -1    4.29   86.87
   1 -18  -1   29.55   76.41
  -1  18   1   24.64   89.67
   1 -18   1   63.46   68.27
  -1  18   1   -7.65   87.32
   1 -18   1  -70.62   91.63
   0  18  -1    7.32   82.73
   0 -18  -1  154.94   96.03
   0  18  -1   23.21   83.81
   0 -18  -1 -264.79   69.84
   0 -18   1 -192.41   79.96
   0  18   1    7.56   89.22
   0 -18   1  -16.68   88.48
   0  18   1   78.20   82.90
   1  18  -1    7.32   77.91
   1  18  -1  -34.12   78.87
  -1 -18  -1   25.23   94.08
  -1 -18  -1   38.89   69.40
  -1 -18   1  104.07   95.40
   1  18   1   -7.66   79.70
   1  18   1   86.67   78.60
  -1 -18   1   34.01   65.14
   2  18  -1   55.21   82.27
  -2 -18  -1  -25.29   95.76
   2  18  -1   -7.49   83.75
  -2 -18  -1   -4.84   73.49
  -2 -18   1   40.81   91.14
   2  18   1   15.67   91.08
  -2 -18   1  -62.38   67.23
   2  18   1  130.55   87.17
   3  18  -1 -178.02   81.13
  -3 -18  -1  119.70   98.54
   3  18  -1    7.74   87.57
  -3 -18  -1   23.74   65.28
   3  18   1    8.11   85.63
   3  18   1   11.28   76.85
  -3 -18   1  -60.81   71.51
  -3 -18   1  132.26   91.67
  -4 -18  -1  -18.79   64.19
   4  18  -1   38.11   71.57
   4  18  -1   -8.12   94.62
  -4 -18  -1   -8.99  106.06
  -4 -18   1   13.79   58.83
   4  18   1   72.51   72.41
   4  18   1   44.16  107.08
  -4 -18   1   -8.53   99.78
   5  18  -1  -88.58   77.43
  -5 -18  -1  -76.08  107.37
  -5 -18  -1   80.46   62.48
   5  18  -1    8.96  107.64
  -5 -18   1   23.09   67.71
   5  18   1   11.41   76.30
  -5 -18   1 -151.55  105.47
  -6 -18  -1   -4.77   66.57
  -6 -18  -1  -26.32  125.86
   6  18  -1  125.76   78.88
   6  18   1   11.95   85.94
  -6 -18   1  -32.36   63.52
  -6 -18   1   -4.69  106.78
  -7 -18  -1   24.83  140.31
  -7 -18   1   81.25  112.99
   5 -19  -1    5.42   74.96
  -5  19   1    9.12   83.64
  -5  19   1 -181.43  122.68
  -4  19  -1   35.04   95.43
  -4  19  -1  123.62   98.15
   4 -19  -1 -102.68  104.62
   4 -19  -1 -155.53   81.07
  -4  19   1   -8.90   98.58
  -4  19   1 -209.59  116.38
   4 -19   1  128.98   74.30
   3 -19  -1  130.44   96.52
   3 -19  -1  613.71  127.61
  -3  19  -1  114.56  109.41
  -3  19  -1    8.53  108.34
   3 -19   1  215.15   85.54
   3 -19   1  493.30  123.73
  -3  19   1    8.74  107.12
  -3  19   1    7.30  117.43
   2 -19  -1 -397.43  110.40
  -2  19  -1 -131.79   92.39
   2 -19  -1   -5.28   86.62
  -2  19  -1    8.42   94.60
   2 -19   1 -265.21  109.09
  -2  19   1 -126.06  102.70
   2 -19   1 -170.85   83.85
  -2  19   1    8.72   98.71
   1 -19  -1 -161.66  109.04
  -1  19  -1   -8.40   86.83
  -1  19  -1   19.37   97.02
   1 -19  -1 -134.00   81.42
  -1  19   1  -27.30  104.92
   1 -19   1    5.30   76.75
   1 -19   1  -63.04  100.29
  -1  19   1    8.68  100.92
   0  19  -1   16.62  103.90
   0 -19  -1 -200.46   96.73
   0 -19  -1  -58.85   84.98
   0  19  -1  -64.29   96.99
   0 -19   1  -85.67   81.09
   0  19   1    6.66   99.64
   0  19   1   17.12  100.64
   0 -19   1  -54.09  102.61
   1  19  -1   24.95  101.07
   1  19  -1  -68.80   93.43
  -1 -19   1   15.96   79.45
   1  19   1 -160.87  101.39
  -1 -19   1  -40.85  104.44
   1  19   1  -43.59  102.94
   2  19  -1    8.54   99.94
  -2 -19  -1 -249.74  117.55
  -2 -19  -1 -223.27   82.06
   2  19  -1  -36.93   88.78
  -2 -19   1 -116.43  108.58
   2  19   1  153.79  110.28
  -2 -19   1 -105.65   86.72
   2  19   1 -114.73   90.95
   3  19  -1    8.98  119.18
   3  19  -1  147.96  105.76
  -3 -19  -1  535.45   99.14
   3  19   1    9.52  119.18
  -3 -19   1  285.08   93.95
   3  19   1   56.34   97.90
  -3 -19   1  519.67  129.38
  -4 -19  -1    5.21   78.71
  -4 -19  -1 -121.64  112.47
   4  19  -1   -9.44  102.81
   4  19  -1  -54.31   87.82
   4  19   1   10.30  119.28
   4  19   1 -124.15   88.36
  -4 -19   1  129.90  109.03
  -4 -19   1   20.33   77.89
  -5 -19  -1 -156.68  122.47
   5  19  -1   10.34  122.28
   5  19  -1   42.98   88.51
  -5 -19  -1    5.24   72.06
   5  19   1  -11.92  145.75
   5  19   1    6.34   89.77
  -5 -19   1   25.61   72.07
  -5 -19   1 -105.38  110.79
   6  19  -1   44.32   87.96
  -6 -19  -1 -125.95  126.64
  -6 -19  -1  100.03   73.44
   6  19  -1  -97.26  139.05
   6  19   1   59.48   84.71
  -6 -19   1   25.39   70.76
  -6 -19   1   10.20  112.25
  -7 -19  -1  205.89  146.85
  -7 -19   1   81.80  123.39
   4 -20  -1  119.12   85.87
  -4  20  -1  -66.40  103.14
   4 -20   1 -128.07   76.35
  -4  20   1  141.78  122.17
  -3  20  -1 -151.03  107.66
   3 -20  -1 -218.67  113.13
   3 -20  -1   45.26   85.94
  -3  20  -1 -104.69  100.54
  -3  20   1   -9.78  114.48
  -3  20   1  102.69  113.13
   3 -20   1 -133.73  108.34
   3 -20   1   10.92   80.72
  -2  20  -1    9.39  101.31
   2 -20  -1  -11.46   81.91
  -2  20  -1  -42.67   99.75
   2 -20  -1  141.18  111.50
   2 -20   1   14.97  105.21
  -2  20   1    9.79  109.51
  -2  20   1   53.71  105.53
   2 -20   1   -5.61   72.01
   1 -20  -1   40.57   91.49
   1 -20  -1  -44.88  113.88
  -1  20  -1 -185.36  102.54
  -1  20  -1   18.83  103.31
  -1  20   1  -98.25  115.11
   1 -20   1   -4.85  106.27
  -1  20   1   -9.82  105.73
   1 -20   1  -11.52   84.57
   0 -20  -1  -15.00  111.69
   0 -20  -1 -122.38   88.28
   0  20  -1   98.94   98.16
   0  20  -1   -9.47  105.13
   0 -20   1    5.80   82.88
   0  20   1    9.80  104.00
   0 -20   1   -4.85  111.20
   0  20   1 -125.09  108.59
  -1 -20  -1    5.88   87.44
   1  20  -1 -246.51  113.64
  -1 -20  -1  -10.08  114.11
   1  20  -1  186.43   94.73
  -1 -20   1  -52.39   80.68
  -1 -20   1 -166.98  107.72
   1  20   1   -9.95  104.61
   1  20   1   57.21  103.40
  -2 -20  -1  198.00   87.36
   2  20  -1   29.33  111.92
  -2 -20  -1  114.79  109.82
   2  20  -1 -123.57   95.94
   2  20   1  -20.78  122.66
  -2 -20   1    5.83   76.10
   2  20   1  -71.58   99.89
  -2 -20   1 -181.49  104.78
  -3 -20  -1 -133.76   89.09
  -3 -20  -1  -45.87  115.68
   3  20  -1   40.82   97.47
   3  20  -1  -10.33  123.43
   3  20   1   97.58  105.22
  -3 -20   1  263.42  106.01
   3  20   1  -11.06  127.54
  -3 -20   1  -57.24   84.67
   4  20  -1   11.12  134.57
   4  20  -1  -33.58   98.08
  -4 -20  -1 -208.54   84.98
  -4 -20  -1    5.32  116.73
   4  20   1   12.08  139.10
   4  20   1   55.24   91.95
  -4 -20   1   45.19  114.96
   5  20  -1   12.20  144.58
  -5 -20  -1   11.29  124.39
   5  20  -1  143.20  100.81
  -5 -20  -1   17.37   82.71
  -5 -20   1   15.64  117.69
   5  20   1  -70.72  100.87
  -5 -20   1  -28.31   82.70
   5  20   1  -13.98  168.12
   6  20  -1  112.96   96.89
  -6 -20  -1 -186.75   86.53
   6  20  -1 -451.09  175.51
  -6 -20   1 -106.55   85.65
  -6 -20   1    5.48  117.80
   6  20   1  132.00  101.41
   7  20  -1   17.74  164.87
  -7 -20   1  -11.80  129.79
   1   0  -2    0.21    0.31
   1   0  -2    0.28    0.87
   0   1  -2    0.45    2.03
  -1   0   2    0.28    0.86
  -1   0   2   -0.87    1.48
  -1   0   2   -0.21    0.99
   0  -1   2   -1.40    2.58
   0  -1   2   -0.41    0.89
  -1  -1   2    1.16    2.08
   1  -2  -2  189.83   31.10
   1  -2  -2  186.30   30.18
  -1   2   2  188.16   30.20
   0  -2  -2  779.54  125.65
   0  -2  -2  849.97  124.48
   0   2  -2  913.82  124.73
   0   2  -2  736.95  125.39
   0   2   2  879.52  123.68
   0  -2   2  922.03  124.13
   1   2  -2  155.42   25.24
  -1  -2  -2  155.01   27.73
  -1  -2   2  145.64   27.86
   1   2   2  173.15   25.46
  -1  -2   2  167.50   25.24
   2   2  -2  180.34   33.22
  -2   2   2  169.05   30.97
  -2  -2   2  121.79   32.74
  -2  -2   2  154.52   28.98
  -2   3   2 1055.01  192.89
  -1   3  -2   41.63   10.16
   1  -3  -2   25.11   11.56
   1  -3  -2   36.90   10.44
   1  -3   2   33.83   12.01
  -1   3   2   54.65    9.91
   0  -3  -2   -0.59    5.59
   0   3  -2    2.04    9.51
   0  -3  -2   -0.63    8.29
   0   3  -2   -2.89    4.71
   0   3   2   -0.62    5.07
   0  -3   2    0.51    3.85
   0  -3   2   14.11   12.22
   0  -3   2   -0.60    5.27
   0  -3   2   -7.12    7.20
  -1  -3  -2   26.26    9.69
   1   3  -2   32.16    8.57
  -1  -3   2   29.77    7.71
  -1  -3   2   35.78    8.76
   1   3   2   51.02    9.22
  -1  -3   2   46.65   11.33
  -1  -3   2   39.51   13.23
   2   3  -2  856.74  154.83
  -2  -3   2  761.66  156.81
  -2  -3   2 1003.62  175.00
  -2  -3   2  741.26  180.43
  -2  -3   2  920.61  180.01
   3   3  -2    8.19    8.39
  -3  -3   2    0.63    5.09
   2  -4  -2  251.57   58.49
   2  -4  -2  347.41   62.92
   1  -4  -2    9.39    9.42
  -1   4  -2   -6.01    8.29
   1  -4  -2   12.10   11.30
   1  -4   2   -2.77    8.82
  -1   4   2    3.88    6.61
   1  -4   2    5.82   10.55
   0   4  -2   40.99   16.59
   0   4  -2   34.99   10.86
   0  -4  -2   47.52   11.52
   0  -4   2   23.07   11.07
   0  -4   2   16.18   12.58
   0  -4   2   39.51    9.23
   0   4   2   71.27   11.25
   0  -4   2   50.07   18.61
   1   4  -2    2.94    7.42
   1   4  -2    2.43   10.45
  -1  -4  -2   -0.83    7.81
  -1  -4   2    5.48    7.27
   1   4   2   -5.10    7.74
  -1  -4   2   -5.27   14.34
  -1  -4   2   -1.45   10.97
  -1  -4   2    9.39    5.15
  -2  -4  -2  216.18   59.54
  -2  -4  -2  294.78   59.00
   2   4  -2  332.70   59.52
   2   4  -2  323.01   51.53
   2   4   2  218.63   51.48
  -2  -4   2  286.70   60.71
  -2  -4   2  284.31   60.55
  -2  -4   2  286.80   51.17
  -2  -4   2  256.45   56.41
   3   4  -2 1293.51  269.35
   3   4  -2 1322.20  233.52
  -3  -4   2 1334.76  266.57
  -3  -4   2 1246.80  240.27
  -3  -4   2 1336.24  262.40
   2  -5  -2  965.83  189.05
   1  -5  -2   96.59   27.05
  -1   5  -2  142.93   27.62
   1  -5  -2  183.31   30.41
  -1   5   2  134.25   26.26
   1  -5   2  119.98   27.26
   1  -5   2   87.91   25.81
   1  -5   2  127.99   29.93
   0   5  -2  -24.86   11.23
   0  -5  -2   -4.88   10.03
   0   5  -2   -4.88   19.04
   0   5   2   11.69   11.36
   0  -5   2    2.46    7.23
   0  -5   2    4.43   21.34
   0  -5   2    0.92   15.23
   0  -5   2   -3.98   10.78
   1   5  -2   90.21   22.35
   1   5  -2   92.39   26.38
  -1  -5  -2  112.32   24.13
  -1  -5   2   98.78   23.14
   1   5   2  107.86   22.65
  -1  -5   2  134.87   29.07
  -1  -5   2   97.60   20.08
  -1  -5   2   65.13   27.46
   2   5  -2  994.39  171.56
  -2  -5  -2 1019.67  189.06
  -2  -5   2  936.71  200.78
   2   5   2  866.16  171.69
  -2  -5   2  826.67  197.93
  -2  -5   2  988.81  185.04
   3   5  -2  383.01   60.64
   3   5  -2  290.15   69.49
  -3  -5   2  336.30   70.92
  -3  -5   2  350.93   66.83
  -3  -5   2  264.59   72.52
   3  -6  -2 1492.58  304.84
   3  -6  -2 1445.05  285.69
   2  -6  -2  148.30   37.57
  -2   6  -2  189.59   38.02
   2  -6  -2  158.73   41.46
  -2   6   2  138.69   37.53
   2  -6   2  143.83   41.89
   2  -6   2  190.11   37.23
  -1   6  -2   -1.73   25.19
  -1   6   2  105.70   22.36
   1  -6   2   -1.19   28.76
   1  -6   2  122.95   20.98
   0   6  -2  268.53   45.47
   0  -6   2  175.32   48.00
   0  -6   2  153.10   35.48
   1   6  -2  144.17   31.56
  -1  -6  -2  134.23   28.91
  -1  -6  -2  137.90   33.68
   1   6  -2  127.10   29.17
  -1  -6   2  119.58   23.53
  -1  -6   2  110.89   34.25
  -2  -6  -2  118.96   42.53
  -2  -6  -2  188.18   36.75
   2   6  -2  156.07   38.17
  -2  -6   2  178.81   31.55
   2   6   2  175.43   34.82
  -2  -6   2  173.55   42.90
  -3  -6  -2 1325.61  296.52
  -3  -6   2 1435.77  299.77
  -3  -6   2 1499.14  267.84
  -4  -6   2   83.88   21.97
  -4  -6   2   42.42   27.08
   4  -7  -2   16.54   29.01
   4  -7  -2   22.09   25.71
  -4   7   2   -8.02   20.94
   3  -7  -2  286.95   57.60
   3  -7  -2  265.25   53.04
  -3   7  -2  143.90   53.30
  -3   7   2  184.74   53.59
   2  -7  -2  122.42   33.22
  -2   7  -2  136.35   29.74
   2  -7  -2  115.35   29.18
   2  -7   2  101.68   28.55
  -2   7   2   82.03   27.97
   2  -7   2  120.07   32.52
  -1   7  -2   27.91   18.68
   1  -7  -2    2.97    3.88
   1  -7  -2   -4.50   19.17
   1  -7   2   11.11   23.54
  -1   7   2   19.59   17.92
   1  -7   2    0.96   11.80
   1  -7   2   43.09   20.17
   0  -7  -2    0.70    5.10
   0   7  -2  -16.53   30.66
   0  -7  -2   -8.47   13.88
   0   7  -2  -10.32   16.63
   0  -7  -2   15.51   18.50
   0   7   2   -7.54   16.73
   0  -7   2   -6.61   24.78
   0   7   2   -4.62   19.54
   0  -7   2   -3.17   28.92
   0  -7   2    2.14    9.22
   0   7   2    0.69    6.38
   0  -7   2    5.75   18.22
   1   7  -2   -7.77   16.07
   1   7  -2   13.68   23.54
  -1  -7  -2   13.26   17.16
  -1  -7  -2   21.52   26.89
   1   7  -2   -7.08   17.97
  -1  -7  -2  -16.66   18.30
  -1  -7   2    9.22   24.78
  -1  -7   2   21.00   16.87
   1   7   2   -1.52   18.10
  -1  -7   2    6.09    8.93
  -1  -7   2   -2.02   28.23
   2   7  -2   56.19   23.78
   2   7  -2   47.53   23.76
   2   7  -2   36.47   28.75
  -2  -7  -2  127.01   34.90
  -2  -7  -2   87.05   27.60
  -2  -7  -2   97.64   23.91
  -2  -7   2  110.77   31.70
   2   7   2  141.26   25.31
  -2  -7   2   94.25   33.33
  -2  -7   2   77.42   22.75
  -2  -7   2   49.78   17.25
   3   7  -2  224.53   55.13
  -3  -7  -2  264.02   58.78
  -3  -7  -2  262.40   65.49
  -3  -7   2  342.93   65.37
  -3  -7   2  331.55   58.07
   3   7   2  310.50   55.25
  -3  -7   2  281.90   66.72
  -4  -7  -2    2.06   35.70
   4   7  -2  -24.17   19.81
   4   7  -2    1.42   19.91
  -4  -7   2    1.60   20.33
   4   7   2  -11.13   19.43
  -4  -7   2    6.10   28.56
  -5  -7   2 -133.65   40.19
  -5  -7   2  -10.32   40.66
   4  -8  -2  719.42  206.58
   4  -8  -2  972.67  190.11
  -4   8   2 1008.22  194.39
  -3   8  -2   81.75   37.54
   3  -8  -2   96.61   41.68
   3  -8  -2   56.94   35.41
   3  -8   2  190.48   45.06
  -3   8   2   83.48   36.44
   3  -8   2  130.53   37.11
   2  -8  -2   83.92   38.72
   2  -8  -2  106.03   21.19
  -2   8  -2  108.94   30.75
   2  -8  -2  147.46   32.69
   2  -8   2   77.34   31.63
   2  -8   2  127.04   30.23
   2  -8   2   67.93   35.38
  -2   8   2  107.96   30.84
   1  -8  -2    1.74   22.33
   1  -8  -2    0.29    4.66
  -1   8  -2    9.16   20.86
   1  -8   2   -0.94   13.00
   1  -8   2  -11.15   30.63
   1  -8   2  -21.10   24.44
  -1   8   2   20.91   23.56
   0  -8  -2  117.64   20.77
   0   8  -2   88.90   29.01
   0  -8  -2  110.71   38.75
   0  -8  -2  103.79   29.89
   0   8  -2  137.31   43.19
   0   8  -2  118.19   28.62
   0  -8  -2   67.12   26.93
   0  -8   2  143.88   37.63
   0  -8   2   65.13   21.52
   0   8   2   75.71   29.28
   0   8   2  107.95   31.97
   0  -8   2  187.30   30.72
   0  -8   2  153.55   41.16
   0   8   2  102.20   23.12
   1   8  -2    5.33   18.09
   1   8  -2  -19.97   23.33
  -1  -8  -2    1.65   31.00
  -1  -8  -2   13.49   22.02
   1   8  -2   -1.07   18.37
   1   8  -2    3.74   29.24
  -1  -8  -2    1.61   22.32
   1   8   2  -12.32   21.38
   1   8   2    7.83   17.30
  -1  -8   2   -4.66   20.99
  -1  -8   2   24.49   30.33
  -1  -8   2    7.29    9.52
  -1  -8   2   58.28   35.78
  -2  -8  -2   92.27   27.70
   2   8  -2   67.64   32.14
  -2  -8  -2   93.50   29.96
   2   8  -2   89.89   26.66
  -2  -8  -2  203.15   38.71
   2   8  -2  129.70   26.34
  -2  -8   2   -7.57   40.37
  -2  -8   2   -7.62   41.59
   2   8   2   93.19   28.81
  -2  -8   2   25.59   26.90
  -2  -8   2   92.83   19.39
  -3  -8  -2   96.43   40.16
  -3  -8  -2  171.17   54.65
   3   8  -2  190.84   38.63
  -3  -8   2  194.37   40.91
  -3  -8   2  321.40   54.31
   3   8   2  120.69   39.64
   4   8  -2 1193.47  223.94
   4   8  -2 1060.34  196.62
  -4  -8  -2 1043.97  222.62
  -4  -8  -2  847.76  210.32
  -4  -8   2 1131.18  227.97
  -4  -8   2 1146.40  209.85
   4   8   2 1189.64  197.17
  -5  -8   2  827.09  181.14
  -5  -8   2  834.49  179.16
   5  -9  -2  686.33  126.14
   4  -9  -2  -11.42   31.68
   4  -9  -2   51.47   38.59
  -4   9   2   -9.84   30.64
   3  -9  -2  868.46  187.76
  -3   9  -2 1065.14  189.43
   3  -9   2  819.34  185.89
  -3   9   2  928.65  192.16
   3  -9   2 1009.51  199.68
  -2   9  -2    8.78   26.99
   2  -9  -2   -8.10   28.38
   2  -9   2   -1.80   33.83
   2  -9   2    1.43   20.20
   2  -9   2  -12.24   27.44
  -1   9  -2   15.63   25.28
   1  -9  -2   51.34   27.81
   1  -9   2   37.80   26.92
   1  -9   2   14.83   13.46
  -1   9   2   35.29   28.80
   1  -9   2   -1.80   35.48
   0   9  -2  -10.18   26.39
   0   9  -2   27.28   45.87
   0   9  -2  -14.07   21.87
   0  -9  -2   20.38   37.47
   0  -9  -2   38.00   28.15
   0  -9   2   36.37   32.94
   0  -9   2   -1.75   33.04
   0  -9   2   15.92   11.53
   0   9   2   20.10   22.56
   0  -9   2   -1.92   26.62
   0   9   2    8.29   26.73
  -1  -9  -2   33.33   35.19
   1   9  -2   -2.10   22.08
   1   9  -2   21.15   25.02
   1   9  -2   34.60   21.37
   1   9  -2   42.68   37.26
  -1  -9  -2   14.75   25.71
  -1  -9   2   70.20   36.62
  -1  -9   2   30.74   25.29
  -1  -9   2   17.11   40.57
   1   9   2   25.84   24.54
  -1  -9   2   29.44   11.99
   1   9   2   14.17   24.65
  -2  -9  -2   23.10   26.49
  -2  -9  -2   11.26   34.37
   2   9  -2    3.78   23.61
  -2  -9  -2   34.67   24.30
   2   9   2   24.46   25.44
  -2  -9   2    1.74   22.88
  -2  -9   2   29.42   34.71
  -3  -9  -2  919.92  187.76
   3   9  -2 1036.70  175.70
  -3  -9  -2  886.73  199.41
  -3  -9   2 1002.63  177.36
  -3  -9   2  917.05  187.85
   3   9   2 1082.87  175.98
  -3  -9   2  820.81  201.41
  -4  -9  -2   25.14   28.29
   4   9  -2    8.10   23.77
   4   9  -2   11.52   23.31
  -4  -9  -2   62.76   44.13
  -4  -9   2    3.78   37.55
  -4  -9   2   38.08   42.31
  -4  -9   2  -18.43   22.63
   4   9   2    2.28   26.91
  -5  -9  -2  558.09  115.48
   5   9  -2  478.92   93.34
  -5  -9   2  406.70  110.32
  -5  -9   2  390.45  111.11
  -5  -9   2  482.26   98.24
  -6  -9   2  569.63  118.53
  -6  -9   2  438.11  113.85
   5 -10  -2  322.59   81.68
  -5  10   2  336.36   82.57
   4 -10  -2  656.04  131.43
   4 -10  -2  571.44  122.65
  -4  10   2  653.62  124.79
   3 -10  -2   60.22   41.08
  -3  10  -2   77.00   36.83
   3 -10  -2   21.13   33.69
  -3  10   2   33.49   36.79
   3 -10   2   23.59   41.73
   3 -10   2   95.85   30.32
   2 -10  -2   64.52   34.97
  -2  10  -2   39.28   29.44
   2 -10   2   93.38   35.60
   2 -10   2  104.07   42.67
   1 -10  -2  -17.73   31.24
  -1  10  -2   -2.95   29.30
  -1  10   2  -12.74   35.77
   1 -10   2   40.49   42.36
   1 -10   2  -24.71   29.31
   0  10  -2   71.06   69.04
   0  10  -2   70.53   31.92
   0 -10  -2   51.86   31.69
   0 -10  -2   43.99   45.71
   0  10  -2   35.32   30.87
   0  10   2   80.76   34.83
   0  10   2   70.35   30.45
   0 -10   2   78.36   32.80
   0 -10   2   64.23   37.63
   1  10  -2    9.74   24.76
   1  10  -2  -37.09   47.57
  -1 -10  -2   24.81   40.73
  -1 -10  -2   46.08   27.45
   1  10  -2    8.85   26.92
  -1 -10   2   24.87   30.35
   1  10   2  -11.57   29.19
  -1 -10   2   -7.81   37.55
  -2 -10  -2   50.34   44.12
   2  10  -2   71.57   32.61
  -2 -10  -2   78.01   31.24
  -2 -10   2  101.42   43.58
   2  10   2   62.33   33.08
  -2 -10   2   61.54   30.96
   3  10  -2   93.51   32.83
   3  10  -2   81.40   26.15
  -3 -10  -2   23.07   28.81
   3  10  -2   52.60   36.42
  -3 -10  -2  -10.89   42.09
  -3 -10   2   50.75   28.61
  -3 -10   2   -3.94   41.81
   3  10   2   16.84   32.75
  -3 -10   2   27.98   16.79
  -3 -10   2   81.04   41.97
  -4 -10  -2  557.82  110.37
   4  10  -2  611.88  116.89
   4  10  -2  620.81  103.58
  -4 -10  -2  423.72  126.78
  -4 -10   2  473.59  120.93
  -4 -10   2  422.04  123.07
   4  10   2  562.44  104.80
  -4 -10   2  496.10  109.27
  -5 -10  -2  547.76  104.41
   5  10  -2  377.84   79.94
  -5 -10   2  381.89   82.94
   5  10   2  368.55   81.40
  -5 -10   2  401.81   96.74
  -5 -10   2  369.61   97.10
  -6 -10   2  -74.12   52.74
  -6 -10   2   -2.69   54.41
  -5  11   2  249.50   78.28
  -4  11  -2    8.33   38.55
   4 -11  -2  -21.33   47.77
   4 -11  -2   38.34   37.58
   4 -11   2   -2.59   37.16
  -4  11   2    7.94   39.02
  -3  11  -2  251.27   52.22
   3 -11  -2  183.18   48.24
  -3  11   2  175.35   45.29
   3 -11   2  107.90   55.80
   3 -11   2  111.35   45.20
   2 -11  -2    5.12   35.99
  -2  11  -2   40.07   37.97
   2 -11   2  -50.21   37.19
  -2  11   2   12.37   43.38
   2 -11   2   24.37   45.01
  -1  11  -2   -3.32   38.27
   1 -11  -2   79.42   35.92
   1 -11  -2   11.53   49.61
   1 -11   2   20.16   35.83
  -1  11   2   68.22   36.35
   1 -11   2   27.04   45.90
  -1  11   2   84.37   42.42
   0  11  -2    8.09   36.92
   0 -11  -2   -9.21   44.66
   0  11  -2    3.10   30.09
   0 -11  -2  -24.39   32.49
   0 -11   2    2.18   46.73
   0 -11   2   -9.75   32.12
   0  11   2  -53.71   38.79
   0  11   2    2.99   32.11
   1  11  -2   63.19   36.30
   1  11  -2   17.11   27.19
  -1 -11  -2   36.74   49.87
  -1 -11  -2   16.53   33.43
   1  11   2   42.15   37.48
  -1 -11   2    4.34   46.23
  -1 -11   2   33.01   33.39
   2  11  -2    2.76   25.67
   2  11  -2   59.36   35.04
  -2 -11  -2   25.52   46.56
  -2 -11  -2   32.27   31.37
  -2 -11   2   19.64   48.55
  -2 -11   2   -9.00   31.92
   2  11   2  -10.41   35.28
   3  11  -2  120.36   43.27
  -3 -11  -2  118.39   41.91
  -3 -11  -2   75.93   54.85
   3  11   2  102.59   40.27
  -3 -11   2  151.29   41.60
  -3 -11   2  129.35   55.43
  -4 -11  -2  -41.44   31.38
   4  11  -2  -10.18   35.86
  -4 -11  -2   15.67   53.98
  -4 -11   2  -40.60   49.79
   4  11   2  -13.89   33.86
  -4 -11   2   -8.95   32.29
  -5 -11  -2  488.11  107.74
   5  11  -2  371.75   82.27
  -5 -11  -2  367.95   84.18
  -5 -11   2  380.23   85.41
   5  11   2  358.62   84.80
  -5 -11   2  374.60   98.22
   6  11  -2   72.03   40.55
  -6 -11   2   88.19   63.48
  -7 -11   2  -10.67   72.32
   5 -12  -2  101.62   57.37
   5 -12  -2   55.91   53.11
  -5  12   2   98.49   50.52
   4 -12  -2   92.18   48.31
   4 -12  -2  158.52   56.54
  -4  12  -2   63.82   42.89
  -4  12   2   65.47   45.59
   4 -12   2  101.50   47.07
  -3  12  -2  -25.56   42.57
   3 -12  -2   43.07   42.48
   3 -12   2   12.84   47.16
   3 -12   2  -38.68   40.10
  -2  12  -2   36.41   43.81
   2 -12  -2  -70.84   46.38
   2 -12   2   22.12   39.41
  -2  12   2   34.75   50.91
   2 -12   2   12.22   49.35
   1 -12  -2   20.21   56.29
  -1  12  -2   22.21   47.80
   1 -12  -2   99.36   44.47
  -1  12  -2   48.48   46.05
   1 -12   2   11.23   43.64
  -1  12   2  114.90   47.22
  -1  12   2  125.94   45.31
   1 -12   2   17.43   53.31
   0  12  -2   94.90   41.73
   0 -12  -2   48.22   57.82
   0  12  -2   48.77   45.36
   0 -12  -2   98.38   41.67
   0 -12   2   81.42   45.39
   0  12   2    3.48   42.07
   0 -12   2   77.72   52.16
   0  12   2  121.77   45.50
   1  12  -2  103.07   41.46
  -1 -12  -2   81.75   56.88
   1  12  -2   91.10   45.53
  -1 -12  -2   42.33   41.85
   1  12   2   57.87   39.85
  -1 -12   2   46.16   50.57
   1  12   2   95.27   45.70
  -1 -12   2  -21.24   40.86
  -2 -12  -2  -20.64   35.97
  -2 -12  -2  -43.33   53.09
   2  12  -2   12.65   37.93
   2  12  -2   -8.41   40.17
   2  12   2   14.61   39.29
  -2 -12   2  -22.81   36.59
  -2 -12   2  -29.14   51.02
  -3 -12  -2   25.72   36.49
   3  12  -2   47.02   41.17
  -3 -12  -2   28.60   58.06
  -3 -12   2    2.41   54.46
  -3 -12   2   -2.46   34.13
   3  12   2  -33.19   43.31
  -4 -12  -2   68.88   39.70
   4  12  -2   28.48   40.02
  -4 -12  -2  -16.64   62.18
  -4 -12   2   27.10   32.95
  -4 -12   2   49.69   54.24
   4  12   2   18.43   37.54
  -5 -12  -2   14.11   41.49
  -5 -12  -2   55.52   66.09
   5  12  -2   20.78   38.60
  -5 -12   2   60.22   55.51
   5  12   2   -3.30   38.40
  -5 -12   2   10.38   36.04
   6  12  -2    3.23   42.78
  -6 -12  -2   43.33   95.88
  -6 -12   2   -8.52   38.58
  -6 -12   2   11.76   60.58
  -7 -12   2   50.28   76.08
   5 -13  -2   89.41   62.46
  -5  13   2  117.56   60.42
   3 -13  -2   31.58   44.36
  -3  13   2  -21.13   59.09
   3 -13   2   42.14   42.19
  -2  13  -2   80.72   51.41
   2 -13  -2   21.72   46.38
   2 -13   2    8.07   55.27
  -2  13   2  -39.31   58.15
   2 -13   2   -3.09   44.25
  -1  13  -2   17.81   53.80
   1 -13  -2   83.34   48.74
   1 -13  -2  128.77   60.52
  -1  13  -2   62.83   40.81
   1 -13   2   92.80   48.91
  -1  13   2   96.53   50.44
   1 -13   2   51.60   61.67
  -1  13   2   73.31   56.33
   0  13  -2   23.86   47.48
   0 -13  -2   -2.82   63.21
   0 -13  -2  -36.56   44.71
   0  13  -2  -15.87   45.95
   0 -13   2   48.68   45.01
   0  13   2  -75.64   48.51
   0 -13   2   24.20   60.68
   0  13   2  -32.37   38.59
   1  13  -2    7.62   44.58
  -1 -13  -2   33.81   63.19
  -1 -13  -2   14.73   42.76
   1  13  -2  119.00   45.49
   1  13   2  -13.43   49.20
   1  13   2    3.91   39.43
  -1 -13   2   23.80   40.58
  -1 -13   2   50.35   59.82
  -2 -13  -2  128.03   62.53
   2  13  -2  -15.76   42.70
   2  13  -2   10.89   41.98
  -2 -13  -2   -8.64   44.37
   2  13   2   81.94   45.22
  -2 -13   2   14.18   35.89
  -2 -13   2   39.64   63.53
  -3 -13  -2   -2.83   57.02
  -3 -13  -2   -5.70   39.54
   3  13  -2    9.32   43.94
  -3 -13   2   52.35   42.29
  -3 -13   2   21.30   57.79
   3  13   2   74.06   45.75
  -4 -13  -2   11.59   39.42
   4  13  -2   19.07   45.40
  -4 -13   2   81.90   42.29
   4  13   2   37.32   44.68
  -4 -13   2   62.51   60.08
   5  13  -2  110.48   53.69
  -5 -13   2  174.83   50.96
  -5 -13   2  167.90   70.45
   6  13  -2  -14.03   50.33
  -6 -13  -2   -4.38   89.98
  -6 -13   2   83.90   41.89
   5 -14  -2  116.86   76.28
   5 -14  -2  139.74   60.64
  -5  14   2    5.59   48.53
   4 -14  -2   31.97   53.75
  -4  14  -2   59.94   57.05
  -4  14   2   -5.31   47.29
   4 -14   2   65.96   45.85
   3 -14  -2   -3.47   49.79
  -3  14  -2    5.16   56.71
   3 -14   2   30.70   58.71
   3 -14   2   22.98   44.51
  -3  14   2  102.63   63.17
   2 -14  -2  146.38   50.33
  -2  14  -2   19.84   55.43
   2 -14  -2   21.79   68.16
   2 -14   2    5.90   64.25
  -2  14   2    4.90   52.59
  -2  14   2  286.85   61.78
   1 -14  -2  -74.19   67.03
  -1  14   2   18.99   48.66
   0 -14  -2  -18.35   64.39
   0  14   2  -60.14   48.79
  -1 -14  -2  -73.10   69.33
   1  14   2  -22.20   49.22
  -2 -14  -2   51.98   67.01
  -3 -14  -2  -24.69   67.38
  -3 -14  -2   -3.16   39.26
   3  14   2   -3.74   37.02
  -4 -14  -2   48.96   76.20
  -4 -14  -2   41.38   44.00
   4  14   2   93.70   49.33
  -5 -14  -2  121.92   55.90
  -5 -14  -2  271.13   89.50
   5  14   2   31.58   53.91
  -5 -14   2   -3.08   76.75
  -6 -14  -2   97.52   93.71
   6  14  -2   -3.81   44.28
  -6 -14   2  167.09   44.53
   6  14   2  -12.78   52.73
  -6 -14   2  -16.59   73.80
  -7 -14   2   18.52   84.44
   5 -15  -2   53.13   71.72
   5 -15  -2   -4.08   56.71
  -5  15   2  -30.63   63.55
   4 -15  -2 -135.22   58.06
  -4  15  -2   -5.96   57.65
  -4  15   2   -5.64   77.79
   4 -15   2   77.96   51.30
  -3  15  -2    5.67   64.17
   3 -15  -2  -15.00   54.21
  -3  15   2  104.06   74.10
   3 -15   2    6.71   66.14
   3 -15   2  -35.96   51.65
   2 -15  -2 -101.86   71.64
   2 -15  -2   93.12   54.65
  -2  15  -2   85.54   64.03
  -2  15  -2    5.49   56.50
   2 -15   2  -18.36   60.62
  -2  15   2  -73.54   68.55
  -2  15   2   27.62   57.59
   2 -15   2   71.02   70.26
   1 -15  -2  -44.13   80.65
   1 -15  -2   15.07   57.06
  -1  15  -2  -53.07   62.66
  -1  15  -2   15.82   58.88
  -1  15   2   18.13   68.28
   1 -15   2   -9.72   73.71
   1 -15   2   48.00   57.51
  -1  15   2   10.74   61.99
   0  15  -2   -5.03   54.46
   0 -15  -2  -22.45   58.58
   0 -15  -2   -6.68   78.59
   0  15  -2   42.08   60.19
   0 -15   2   38.99   73.87
   0  15   2 -130.58   65.93
   0 -15   2  -33.74   57.12
   0  15   2   -5.30   60.06
   1  15  -2   -4.94   51.22
  -1 -15  -2  -87.13   56.04
   1  15  -2  -28.47   60.43
  -1 -15  -2  -49.77   70.46
   1  15   2  -37.99   56.78
  -1 -15   2  -37.79   71.01
  -1 -15   2   66.28   57.17
   1  15   2   -5.14   62.32
  -2 -15  -2  -53.51   52.30
   2  15  -2    4.88   58.52
   2  15  -2   19.86   59.84
  -2 -15  -2  -43.62   70.48
  -2 -15   2    3.52   50.67
   2  15   2    5.16   58.34
   2  15   2 -102.54   62.04
  -2 -15   2  -28.72   71.73
  -3 -15  -2   16.84   69.29
   3  15  -2  -87.13   63.61
  -3 -15  -2  -49.15   53.33
   3  15  -2  -23.41   50.16
  -3 -15   2   69.79   67.53
  -3 -15   2   17.12   49.22
   3  15   2   78.97   62.31
  -4 -15  -2   77.89   73.26
   4  15  -2   -3.94   57.88
  -4 -15  -2    7.02   50.10
   4  15   2   29.03   55.05
  -4 -15   2   48.66   74.00
  -4 -15   2    6.71   46.29
   5  15  -2   15.91   54.02
  -5 -15  -2  -42.81   84.23
  -5 -15  -2   17.98   52.24
  -5 -15   2   27.05   51.39
  -5 -15   2  147.07   74.34
   5  15   2   -4.32   59.40
  -6 -15  -2   -4.61  102.11
   6  15  -2    4.18   53.64
  -6 -15   2   -3.57   78.33
  -6 -15   2   -3.48   48.88
   6  15   2   60.19   59.83
  -7 -15   2   70.16   89.79
   5 -16  -2    4.43   66.49
  -5  16   2   60.68   70.12
   4 -16  -2   33.59   61.28
  -4  16  -2    6.53   64.85
  -4  16   2   30.86   92.23
   4 -16   2   61.95   60.34
  -3  16  -2   79.95   72.01
   3 -16  -2   16.33   60.86
  -3  16  -2   18.75   61.54
   3 -16  -2   83.98   79.39
  -3  16   2   -5.80   86.47
  -3  16   2   -6.40   69.07
   3 -16   2   32.94   74.89
   3 -16   2    7.83   58.15
  -2  16  -2  -24.29   67.57
  -2  16  -2  -39.86   72.78
   2 -16  -2   51.76   78.54
   2 -16  -2  102.93   64.46
   2 -16   2   31.81   61.38
   2 -16   2   74.06   78.82
  -2  16   2  -21.46   74.04
  -2  16   2    6.24   60.90
   1 -16  -2   74.39   81.22
  -1  16  -2   88.51   67.17
  -1  16  -2  -29.03   69.18
   1 -16  -2  103.37   59.40
   1 -16   2   38.46   78.15
  -1  16   2   36.27   66.88
  -1  16   2  -91.10   73.28
   1 -16   2  -12.24   66.11
   0  16  -2   23.21   66.66
   0  16  -2   67.83   68.76
   0 -16  -2  -98.62   58.43
   0 -16  -2   14.45   78.15
   0  16   2   17.99   66.46
   0 -16   2   28.83   58.44
   0  16   2   53.68   68.67
   0 -16   2    7.07   71.41
   1  16  -2    5.59   63.63
  -1 -16  -2  -24.06   58.47
  -1 -16  -2   -3.65   79.55
   1  16  -2   95.49   67.04
  -1 -16   2   16.22   64.31
  -1 -16   2   72.68   72.35
   1  16   2    5.96   72.03
   1  16   2    4.71   66.41
   2  16  -2   70.51   65.75
  -2 -16  -2    3.61   79.70
   2  16  -2   -5.58   62.79
  -2 -16  -2   23.72   58.17
  -2 -16   2   79.14   77.53
   2  16   2  133.27   65.39
  -2 -16   2   50.73   56.02
   2  16   2   29.52   66.89
  -3 -16  -2   50.60   56.81
   3  16  -2   39.33   64.69
   3  16  -2   -5.60   70.18
  -3 -16  -2  -29.62   81.58
   3  16   2  -81.43   77.39
  -3 -16   2    3.82   54.77
  -3 -16   2    3.45   72.67
   3  16   2   87.54   61.24
   4  16  -2  146.13   73.43
  -4 -16  -2   53.74   87.11
  -4 -16  -2  120.15   62.54
   4  16  -2   30.61   61.85
   4  16   2  124.02   65.33
  -4 -16   2  110.29   82.93
  -4 -16   2    3.72   51.79
   5  16  -2   26.43   62.98
  -5 -16  -2 -104.69   90.12
  -5 -16  -2    3.94   50.93
   5  16   2   42.80   59.91
  -5 -16   2   10.90   81.24
  -5 -16   2  -11.18   55.77
  -6 -16  -2   40.89   59.94
  -6 -16  -2  -68.83  110.50
   6  16  -2   55.22   62.73
  -6 -16   2   69.21   93.52
   6  16   2   40.46   66.35
  -6 -16   2   15.20   54.61
  -7 -16   2   41.51   91.13
  -8 -16   2 -132.86  103.59
   5 -17  -2 -168.16   72.62
  -5  17   2  170.82  104.71
   4 -17  -2   45.22   65.93
  -4  17  -2   60.52   92.67
  -4  17  -2 -179.28   77.86
   4 -17   2    4.19   60.20
  -4  17   2   54.64   95.70
  -3  17  -2   -6.89   70.24
  -3  17  -2  -87.20   80.81
   3 -17  -2   57.61   67.81
   3 -17  -2 -115.89   92.19
  -3  17   2   51.08   90.34
   3 -17   2 -127.56   89.25
   3 -17   2 -131.27   64.09
  -3  17   2   -7.13   78.63
   2 -17  -2   71.91   90.88
  -2  17  -2  -65.34   81.77
  -2  17  -2    6.72   69.89
   2 -17  -2  -40.46   70.40
  -2  17   2   14.05   70.43
  -2  17   2   89.17   83.99
   2 -17   2   90.20   69.59
   2 -17   2  153.39   81.56
  -1  17  -2   26.35   74.23
   1 -17  -2    4.04   87.38
  -1  17  -2  169.11   76.59
   1 -17  -2    4.53   63.10
   1 -17   2  -53.03   84.49
  -1  17   2  -95.60   81.23
   1 -17   2  -53.56   73.26
  -1  17   2   20.45   77.57
   0  17  -2    6.38   75.87
   0 -17  -2 -197.71   66.98
   0 -17  -2 -296.95   92.12
   0  17  -2 -163.92   80.47
   0 -17   2 -139.89   64.35
   0  17   2  -13.57   77.84
   0 -17   2  -98.84   87.61
   0  17   2   38.26   79.32
   1  17  -2    5.07   78.15
   1  17  -2   -6.32   77.61
  -1 -17  -2  -13.27   66.29
  -1 -17  -2 -176.55   92.84
   1  17   2  -52.35   75.87
  -1 -17   2  -35.56   69.56
   1  17   2 -183.66   83.28
  -1 -17   2  -56.79   87.86
  -2 -17  -2  267.75   75.53
   2  17  -2    6.39   79.62
   2  17  -2   93.14   77.92
  -2 -17  -2  463.50  102.71
   2  17   2    5.15   76.19
  -2 -17   2  202.78   73.51
   2  17   2    6.85   85.61
  -2 -17   2  259.21   97.23
   3  17  -2  -88.18   78.84
  -3 -17  -2 -121.53   97.74
   3  17  -2   13.04   73.28
  -3 -17  -2    4.31   62.12
  -3 -17   2 -186.05   93.15
  -3 -17   2 -130.90   66.03
   3  17   2  -81.87   71.37
   3  17   2   -7.18   87.69
  -4 -17  -2  -42.92   62.57
  -4 -17  -2   88.05   96.59
   4  17  -2   33.92   64.89
   4  17  -2   20.06   76.53
  -4 -17   2  -70.22   59.34
  -4 -17   2   84.15   81.39
   4  17   2  -66.25   72.44
  -5 -17  -2   99.70   58.98
   5  17  -2    7.34   89.64
   5  17  -2  -68.36   70.07
  -5 -17  -2  -40.79  102.23
   5  17   2  -20.99   67.35
  -5 -17   2    3.97   87.31
  -5 -17   2    8.23   62.98
  -6 -17  -2   35.62   56.37
   6  17  -2  -10.16   69.80
  -6 -17  -2  115.82  118.11
   6  17   2   16.63   66.84
  -6 -17   2   86.80   92.04
  -6 -17   2  -91.37   59.57
   7  17  -2   81.03   68.96
  -7 -17   2   61.90  100.89
  -8 -17   2  -62.41  101.28
   5 -18  -2   -5.19   75.50
  -5  18   2  -89.11  118.41
   4 -18  -2   27.02   89.73
  -4  18  -2    7.89   78.66
  -4  18  -2   59.01   91.92
   4 -18  -2    4.87   68.30
   4 -18   2  217.28   70.05
  -4  18   2   97.66  115.42
  -3  18  -2   45.73   83.88
   3 -18  -2    4.88   74.63
   3 -18  -2   74.06   93.66
  -3  18  -2   65.52   91.81
   3 -18   2    4.56   65.84
  -3  18   2   15.91   80.47
  -3  18   2  -76.11  105.01
   3 -18   2  143.07   93.71
   2 -18  -2    4.33   89.75
   2 -18  -2 -102.87   68.31
  -2  18  -2   22.31   88.98
  -2  18  -2  -17.68   83.71
  -2  18   2  130.57   95.08
   2 -18   2  -87.72   88.76
   2 -18   2  117.67   68.40
  -2  18   2   -7.90   93.35
   1 -18  -2  -60.83   93.90
  -1  18  -2    7.36   82.72
   1 -18  -2  -14.85   74.66
  -1  18  -2   51.79   85.67
  -1  18   2  -18.90   90.93
  -1  18   2   30.88   85.71
   1 -18   2  113.83   92.53
   1 -18   2 -106.92   67.72
   0  18  -2   -5.70   81.45
   0 -18  -2  268.16  106.30
   0  18  -2   14.44   77.76
   0 -18  -2  107.83   76.89
   0 -18   2  -84.09   75.03
   0  18   2   53.80   93.75
   0 -18   2  188.99   87.40
   0  18   2   30.42   83.11
   1  18  -2  -21.43   83.43
   1  18  -2    5.61   84.01
  -1 -18  -2  223.68   94.06
  -1 -18  -2   -4.87   65.25
   1  18   2    7.81   88.04
  -1 -18   2  106.86   74.22
  -1 -18   2  111.60   96.04
   1  18   2  -40.91   81.18
   2  18  -2   27.30   79.12
  -2 -18  -2    4.84   67.90
  -2 -18  -2   47.61   98.59
   2  18  -2 -269.10   84.11
  -2 -18   2  -43.00   72.12
  -2 -18   2  -28.42   91.43
   2  18   2  127.28   78.59
   2  18   2   -7.98   89.01
  -3 -18  -2  124.53   69.44
   3  18  -2    7.49   82.12
  -3 -18  -2   39.39   91.66
   3  18  -2  -65.81   78.45
  -3 -18   2  143.08   96.58
   3  18   2 -102.22   83.46
  -3 -18   2 -139.34   71.09
   3  18   2   16.46   97.42
  -4 -18  -2    4.76   69.08
   4  18  -2  -23.33   86.98
   4  18  -2    5.39   77.29
  -4 -18  -2 -115.02  105.96
  -4 -18   2  -33.26   92.44
  -4 -18   2  -27.37   59.48
   4  18   2   22.63   75.55
   4  18   2   -9.17  102.08
  -5 -18  -2  -59.28  115.56
  -5 -18  -2   19.14   62.27
   5  18  -2    8.41  102.79
   5  18  -2    5.41   73.58
  -5 -18   2  -58.97   64.04
  -5 -18   2  -12.82   91.91
   5  18   2   87.10   73.79
  -6 -18  -2 -117.19   70.31
   6  18  -2  -16.85   73.65
   6  18  -2   -9.60  109.94
  -6 -18  -2  -11.27  117.92
   6  18   2    6.10   80.95
  -6 -18   2  -35.91  106.04
  -6 -18   2    4.55   64.59
   7  18  -2  -83.25   78.34
  -7 -18   2  -32.96  100.92
  -8 -18   2  -85.76  119.08
   5 -19  -2  -44.68   84.20
  -5  19   2  -44.33  130.10
   4 -19  -2    4.92  109.68
  -4  19  -2  -32.05   88.98
  -4  19  -2  -87.17   89.78
   4 -19  -2    5.33   84.34
  -4  19   2 -114.33  126.30
   4 -19   2 -339.38   79.19
  -4  19   2   71.75  101.08
  -3  19  -2 -141.53  102.73
   3 -19  -2   33.32  106.64
   3 -19  -2  286.87   87.38
  -3  19  -2    8.45   97.56
   3 -19   2  409.18  112.09
   3 -19   2  147.22   79.19
  -3  19   2    8.88  102.30
  -3  19   2  -75.92  115.03
   2 -19  -2 -298.49   93.51
  -2  19  -2   69.80   98.95
  -2  19  -2    8.26   87.27
   2 -19  -2  -78.97  110.37
   2 -19   2 -168.98   78.69
  -2  19   2 -121.96  104.31
   2 -19   2 -123.16  106.72
  -2  19   2    8.87   97.06
  -1  19  -2  -50.41   86.58
   1 -19  -2 -263.08   91.13
   1 -19  -2 -403.99  119.87
  -1  19  -2  172.49   99.70
  -1  19   2   97.99  106.75
  -1  19   2   -8.77  103.25
   1 -19   2 -179.59   82.90
   1 -19   2 -291.97  105.93
   0  19  -2    8.18   97.53
   0 -19  -2 -306.47  118.91
   0 -19  -2 -155.33   82.80
   0  19  -2  -56.65   86.53
   0 -19   2  -53.01   98.65
   0  19   2 -122.12  101.24
   0 -19   2 -118.01   79.19
   0  19   2 -142.17   94.54
  -1 -19  -2 -112.77   90.77
   1  19  -2 -130.15   93.43
   1  19   2   39.12   94.80
  -1 -19   2   58.48   85.74
  -1 -19   2 -192.35  110.75
   1  19   2 -275.61  106.14
   2  19  -2   82.84  104.02
  -2 -19  -2 -212.20   88.46
   2  19  -2  -60.60   88.48
  -2 -19   2    5.27   80.13
   2  19   2  182.23  103.82
   2  19   2   18.51  113.21
  -2 -19   2 -195.48  103.28
   3  19  -2  -25.92  103.15
   3  19  -2 -122.24  100.21
  -3 -19  -2  476.30   99.55
   3  19   2   -9.65  112.38
  -3 -19   2   77.00   76.06
  -3 -19   2  237.59  109.94
   3  19   2 -215.39  102.39
  -4 -19  -2    5.28   75.69
   4  19  -2    9.11  101.69
   4  19  -2   41.81   79.77
  -4 -19  -2 -268.83  119.18
   4  19   2 -170.13  131.85
  -4 -19   2  -62.97   97.74
  -4 -19   2   25.16   71.28
   4  19   2  -56.61   85.99
  -5 -19  -2   15.89   75.17
   5  19  -2  -60.53   79.21
   5  19  -2  224.62  119.69
  -5 -19  -2    5.42  122.28
   5  19   2   12.79  151.61
  -5 -19   2 -135.70  105.40
  -5 -19   2   70.35   73.21
   5  19   2   25.85   91.95
  -6 -19  -2   37.71   77.76
   6  19  -2  -76.86  126.66
  -6 -19  -2   55.07  131.55
   6  19  -2    6.22   79.71
  -6 -19   2  -74.99   75.29
   6  19   2  182.21   92.07
  -6 -19   2   78.13  109.34
   7  19  -2 -164.16   89.30
  -7 -19   2   15.22  112.36
  -8 -19   2   74.41  116.41
  -4  20  -2   -6.92  105.03
   4 -20  -2   35.01   92.73
   4 -20   2  -98.67   72.97
  -4  20   2   35.11  122.42
   3 -20  -2   15.63  113.24
  -3  20  -2    9.40   95.90
   3 -20  -2    5.76   88.13
  -3  20  -2   20.48   95.92
   3 -20   2 -284.28   84.72
  -3  20   2   29.78  110.33
  -3  20   2  -66.09  127.52
   3 -20   2   61.57  109.58
  -2  20  -2   -9.20  105.50
  -2  20  -2  198.05   97.34
   2 -20  -2  -86.10  114.23
   2 -20  -2   11.62   91.31
   2 -20   2 -139.43  107.06
   2 -20   2   99.86   85.42
  -2  20   2   -9.96  113.20
  -2  20   2   39.88  117.61
  -1  20  -2   75.75  100.47
  -1  20  -2   -9.20   99.23
   1 -20  -2 -121.33  110.95
   1 -20  -2    5.81   87.63
   1 -20   2    9.65  106.23
  -1  20   2   85.37  112.51
  -1  20   2    9.98  111.95
   1 -20   2    5.75   80.03
   0 -20  -2    5.10  110.37
   0  20  -2   36.98   97.14
   0  20  -2   20.77   96.61
   0 -20  -2   -5.85   88.45
   0  20   2  -14.92  105.51
   0  20   2 -109.26  111.56
   0 -20   2   -5.80   80.50
   0 -20   2    4.77  101.16
  -1 -20  -2   -5.90   88.31
   1  20  -2  -47.52   93.96
   1  20  -2   -9.27  101.79
  -1 -20  -2   15.21  115.29
  -1 -20   2   46.45   78.34
   1  20   2   -7.29  103.94
   1  20   2  -20.35  123.80
  -1 -20   2   95.93  105.36
  -2 -20  -2   -5.86   84.00
   2  20  -2   40.41   97.88
  -2 -20  -2  145.78  103.24
   2  20  -2   28.36  100.67
   2  20   2 -225.06  105.11
   2  20   2  -10.66  127.19
  -2 -20   2  -34.01  110.24
  -2 -20   2    5.78   85.24
   3  20  -2   67.39   98.59
   3  20  -2    9.90  111.08
  -3 -20  -2    5.19  111.35
  -3 -20  -2   46.70   80.79
  -3 -20   2  153.27   83.30
   3  20   2   22.80  129.50
   3  20   2   56.38   98.47
  -3 -20   2   67.63  108.62
   4  20  -2  -10.61  123.23
  -4 -20  -2  -52.70   85.77
   4  20  -2  -72.72   91.10
  -4 -20  -2   81.61  122.23
  -4 -20   2   16.64   80.29
   4  20   2  -28.08   97.34
  -4 -20   2   58.94  111.92
   4  20   2   12.60  153.88
  -5 -20  -2   23.49   80.88
   5  20  -2  -60.44   98.04
   5  20  -2  -11.49  138.71
  -5 -20  -2  -17.71  135.90
  -5 -20   2  -81.25  117.80
  -5 -20   2   22.30   78.40
   5  20   2  158.20  100.83
   6  20  -2  -34.50   99.59
   6  20  -2  -89.15  152.28
   6  20   2   -7.48   98.80
  -6 -20   2   77.19   76.98
  -6 -20   2  109.89  120.28
   7  20  -2 -294.45  170.94
  -7 -20   2 -104.19  133.81
   0   0  -3   -0.51    1.92
   0   0   3   -3.92    5.97
   0   0   3   -1.00    2.94
   0  -1  -3 3012.00  418.89
  -1   0   3 2721.99  418.47
  -1   0   3 2972.28  419.17
   1  -1  -3   -0.30    1.33
   1  -1  -3    0.23    0.72
   1   1  -3    1.78    5.09
  -1  -1   3    4.96    7.31
  -1   1   3    2.49    1.80
  -1   1   3   -1.28    6.07
   1  -2  -3  967.63  198.06
   1  -2  -3  893.19  184.77
  -1   2   3 1002.40  182.98
  -2  -1   3  941.56  200.12
   0   2  -3    2.22    9.79
   0   2  -3    1.06    3.57
   0  -2  -3    1.48    6.40
   2   0  -3    1.42    4.29
   0  -2  -3    1.85    4.13
   0  -2   3    4.81    5.14
   0  -2   3    4.49   10.78
   0  -2   3   -1.26    4.29
   0   2   3   -2.25    3.51
  -2   0   3    1.41    2.36
  -1  -2   3  865.50  193.85
  -1  -2   3  890.77  179.71
  -1  -2   3  995.34  194.02
  -2   1   3  912.96  170.84
   2  -2  -3   -2.09    6.69
   2   2  -3    0.66    6.19
   2   2  -3    4.76    3.18
  -2  -2   3    4.17    3.51
  -2  -2   3   -5.98   10.36
  -2   2   3    3.79    4.96
  -2  -2   3    4.07    5.22
   3   2  -3  102.96   20.06
   2  -3  -3   65.65   20.71
   2  -3  -3   95.48   19.39
  -3  -2   3   73.46   16.91
  -2   3   3   94.41   19.25
   1  -3  -3  455.22   96.82
  -1   3   3  561.25   95.66
   0  -3  -3  167.67   36.92
   0   3  -3  155.74   37.29
   0  -3  -3  144.43   40.67
   0   3  -3  204.74   40.93
   0  -3   3  176.84   39.45
   0   3   3  204.62   33.86
   0  -3   3  237.48   35.41
   0  -3   3  198.08   43.54
   0  -3   3  179.15   37.12
   1   3  -3  492.05   84.53
  -1  -3  -3  413.64   97.26
  -1  -3  -3  498.11   96.32
  -1  -3   3  445.33   90.69
   1   3   3  540.54   84.17
  -1  -3   3  469.10   97.39
  -1  -3   3  442.40   84.70
  -1  -3   3  357.77   98.43
   2   3  -3   97.28   20.32
   2   3  -3  106.75   17.56
  -2  -3   3  100.51   23.90
  -2  -3   3   97.79   17.17
  -2  -3   3   69.83   19.08
  -2  -3   3   78.41   20.87
   3   3  -3    6.78    9.41
  -3  -3   3   -1.77   17.54
  -3  -3   3    2.29   10.94
  -3  -3   3   -3.83    5.43
   3  -4  -3    7.90   14.70
   4   3  -3    2.20   12.51
  -3   4   3   -3.01   11.42
   2  -4  -3  896.73  223.72
   2  -4  -3 1188.32  210.47
  -2   4   3 1229.12  213.58
  -1   4  -3  122.18   29.32
   1  -4  -3  155.11   29.61
   1  -4  -3  126.63   32.06
   1  -4   3  134.15   32.52
  -1   4   3  162.45   28.66
   0   4  -3    3.03    7.35
   0   4  -3   -4.99   16.36
   0  -4  -3    5.14   14.10
   0  -4  -3    1.62    8.09
   0   4   3   -5.12    8.27
   0  -4   3    1.63    8.47
   0  -4   3    2.25   11.25
   0  -4   3   -5.09    6.70
   0  -4   3   -2.86   20.06
  -1  -4  -3  133.78   28.91
   1   4  -3   96.41   31.13
   1   4  -3  140.16   25.89
  -1  -4   3  138.30   27.90
  -1  -4   3  125.51   30.39
   1   4   3  123.64   26.29
  -1  -4   3  165.78   25.43
  -1  -4   3  108.21   33.16
  -2  -4  -3 1150.24  213.09
   2   4  -3  978.05  212.17
   2   4  -3 1057.96  186.74
  -2  -4   3  918.43  218.95
  -2  -4   3 1122.21  215.35
  -2  -4   3 1064.34  202.47
   2   4   3  927.92  187.30
   3   4  -3   -3.75   11.58
   3   4  -3    9.84    8.86
  -3  -4   3    0.90    9.73
  -3  -4   3    3.93   22.21
  -3  -4   3    1.62   13.11
  -3  -4   3    9.05    6.55
  -1   5  -3  254.41   43.37
   1  -5  -3  124.82   42.81
  -1   5   3  198.35   40.08
   1  -5   3  229.29   42.70
   1  -5   3  176.41   41.65
   1  -5   3  287.97   46.15
   0  -5  -3   51.23   14.09
   0   5  -3    5.80   22.84
   0   5  -3   35.25   13.16
   0  -5   3   26.49   13.26
   0  -5   3   48.62   24.39
   0   5   3   18.30   13.01
   0  -5   3   31.51   16.98
   0  -5   3   18.69   10.23
   1   5  -3  216.32   37.37
  -1  -5  -3  110.25   39.85
   1   5  -3  215.73   44.07
  -1  -5   3  225.89   43.82
  -1  -5   3  158.70   36.17
   1   5   3  257.53   37.70
  -1  -5   3  177.81   39.88
  -1  -5   3  192.72   46.70
   2   5  -3 3317.23  577.41
  -2  -5   3 2947.23  654.70
  -2  -5   3 3310.19  620.89
  -2  -5   3 3057.54  666.14
   3   5  -3 1132.37  249.40
   3   5  -3 1612.78  286.94
  -3  -5   3 1412.20  286.13
  -3  -5   3 1345.63  273.31
  -3  -5   3 1408.58  252.29
  -4  -5   3  319.34   70.59
   4  -6  -3  319.33   57.86
   4  -6  -3  303.18   62.08
  -4   6   3  145.80   56.67
   3  -6  -3   97.58   32.13
   3  -6  -3  128.08   27.57
  -3   6   3  116.99   29.78
  -2   6  -3   19.79   18.57
   2  -6  -3   53.11   22.59
   2  -6  -3   58.41   19.46
   2  -6   3   27.36   23.17
  -2   6   3   25.98   17.13
   1  -6  -3   14.77   23.94
   1  -6  -3   84.46   16.66
   1  -6   3    7.99   15.49
  -1   6   3   53.30   16.70
  -1   6   3   15.78   15.54
   0   6  -3    1.34   26.85
   0  -6  -3   -1.21   12.56
   0  -6  -3    9.99   24.49
   0   6   3   -1.31   13.45
   0  -6   3   13.79   29.50
   0  -6   3    3.29   10.20
   1   6  -3   10.42   22.77
  -1  -6  -3   20.59   15.73
  -1  -6   3   16.48   28.08
  -1  -6   3    8.83    9.85
   1   6   3   67.60   15.19
  -2  -6  -3   24.56   24.10
   2   6  -3   31.36   21.06
  -2  -6  -3   41.13   17.08
   2   6  -3   24.21   15.55
   2   6   3    5.54   16.30
  -2  -6   3   21.51    9.75
  -2  -6   3   11.31   26.79
  -3  -6  -3   92.91   26.23
  -3  -6  -3   69.10   31.13
   3   6   3   90.11   22.52
  -3  -6   3   65.46   35.40
   4   6  -3  277.93   62.95
  -4  -6   3  286.41   64.27
  -4  -6   3  304.20   54.51
  -5  -6   3    1.82   32.22
  -5  -6   3    9.11   37.15
   4  -7  -3   38.05   27.75
   4  -7  -3   45.20   32.81
  -4   7   3   63.62   25.72
   3  -7  -3  210.62   61.86
   3  -7  -3  297.79   66.64
  -3   7   3  325.23   63.59
   2  -7  -3   15.74   28.87
  -2   7  -3    9.17   21.00
   2  -7  -3    9.42   20.58
   2  -7   3   20.64   19.22
  -2   7   3   18.09   18.93
   2  -7   3   51.08   26.30
   1  -7  -3   11.39   28.02
  -1   7  -3   83.62   20.73
   1  -7  -3   22.48   21.53
  -1   7   3   34.24   18.67
   1  -7   3    9.14   14.69
  -1   7   3   26.04   20.89
   1  -7   3   16.97   18.78
   1  -7   3   36.98   26.32
   0  -7  -3  474.65  104.24
   0   7  -3  543.81  112.02
   0  -7   3  457.68  120.23
   0  -7   3  591.33  110.76
   0   7   3  533.37   97.22
   0  -7   3  442.41   98.03
   0  -7   3  644.05  104.59
   1   7  -3   -1.51   14.39
   1   7  -3   44.85   26.59
  -1  -7  -3   21.10   18.99
  -1  -7  -3   43.35   16.23
   1   7  -3   40.72   19.26
  -1  -7   3   21.26   32.73
  -1  -7   3   10.44   25.04
   1   7   3   24.95   18.92
  -1  -7   3   59.15   18.49
  -1  -7   3   26.59   11.06
   2   7  -3    6.72   23.67
   2   7  -3   13.57   16.54
   2   7  -3   62.48   17.97
  -2  -7  -3   20.25   28.63
  -2  -7  -3   16.24   19.84
  -2  -7   3   58.33   30.56
  -2  -7   3   33.78   10.73
   2   7   3   -1.64   19.30
  -2  -7   3   -1.28   17.45
  -2  -7   3   -5.16   25.41
  -3  -7  -3  274.63   65.09
   3   7  -3  291.21   59.32
  -3  -7  -3  313.92   70.44
   3   7   3  430.99   60.53
  -3  -7   3  302.66   63.34
  -3  -7   3  268.46   69.91
   4   7  -3   15.45   21.78
  -4  -7  -3   44.38   39.41
   4   7  -3   66.24   25.29
  -4  -7   3   92.63   30.81
  -4  -7   3   39.50   38.94
  -4  -7   3   85.96   17.17
  -4  -7   3   33.96   22.35
  -5  -7   3    1.75   32.49
  -5  -7   3  -13.01   43.48
   5  -8  -3  121.35   49.04
   4  -8  -3  110.00   37.83
   4  -8  -3   84.87   34.65
  -4   8   3  103.03   33.63
   3  -8  -3  370.98   79.58
  -3   8  -3  448.91   75.26
   3  -8  -3  400.66   73.88
   3  -8   3  231.85   72.71
  -3   8   3  361.32   75.21
   2  -8  -3  124.64   39.61
   2  -8  -3  112.99   31.74
  -2   8  -3   91.71   32.37
  -2   8   3  129.55   32.25
   2  -8   3   51.25   37.98
   2  -8   3   83.58   30.55
   2  -8   3   69.84   31.70
  -1   8  -3   71.63   28.11
   1  -8  -3   80.65   37.23
   1  -8  -3   96.29   27.41
   1  -8   3  119.39   33.61
  -1   8   3   63.18   28.02
   1  -8   3   90.73   20.38
   1  -8   3   85.21   27.71
  -1   8   3   60.52   24.83
   0  -8  -3    8.14    8.59
   0   8  -3   -4.18   21.22
   0   8  -3   12.96   38.68
   0  -8  -3  -11.66   22.09
   0  -8   3  -50.69   35.83
   0  -8   3    1.51   28.42
   0   8   3   -7.25   23.73
   0   8   3   -7.81   16.56
   0  -8   3  -15.20   22.16
   0  -8   3   -2.72   12.18
  -1  -8  -3   66.39   25.32
   1   8  -3   63.10   24.66
   1   8  -3   62.95   34.84
   1   8  -3   71.55   22.92
  -1  -8  -3   64.95   21.76
  -1  -8   3   54.18   15.20
   1   8   3   34.27   23.80
  -1  -8   3   52.35   23.29
   1   8   3   49.01   18.90
  -1  -8   3   53.24   41.29
  -1  -8   3    4.48   31.58
  -2  -8  -3  106.25   27.47
   2   8  -3   89.31   26.86
  -2  -8  -3   49.28   38.26
  -2  -8  -3   69.07   29.35
  -2  -8   3   31.39   31.80
   2   8   3  137.95   28.37
   3   8  -3  144.82   72.15
   3   8  -3  380.78   64.90
  -3  -8  -3  457.79   79.13
  -3  -8  -3  349.82   69.47
  -3  -8   3  367.36   61.66
  -3  -8   3  162.40   77.85
  -3  -8   3  345.38   68.57
   3   8   3  407.10   65.38
  -4  -8  -3   92.36   45.63
   4   8  -3   95.86   26.85
  -4  -8  -3   87.32   29.66
   4   8  -3   26.33   26.90
  -4  -8   3   36.30   34.12
  -4  -8   3   77.76   19.86
   4   8   3   81.27   28.40
  -4  -8   3   67.80   25.49
  -4  -8   3  130.69   45.87
   5   8  -3  214.28   43.04
  -5  -8   3  242.85   61.45
  -5  -8   3  155.54   53.32
  -5  -8   3  179.29   45.25
  -6  -8   3  720.64  139.48
  -6  -8   3  528.77  140.24
   5  -9  -3  854.40  157.69
  -5   9   3  702.44  159.64
   4  -9  -3  404.19   99.92
   4  -9  -3  460.08   94.07
  -4   9   3  454.97   94.89
   3  -9  -3   33.96   37.48
  -3   9  -3   92.61   35.15
   3  -9  -3   86.48   32.80
  -3   9   3   47.19   30.95
   3  -9   3   85.55   31.34
   2  -9  -3   55.83   36.22
   2  -9  -3   78.11   29.29
  -2   9  -3   20.75   27.84
   2  -9   3   63.89   34.83
   2  -9   3   48.39   27.60
  -2   9   3   44.97   26.52
  -1   9  -3   24.25   25.91
   1  -9  -3   17.67   28.34
   1  -9   3   51.67   15.67
  -1   9   3   28.98   30.89
   1  -9   3    3.55   33.91
   1  -9   3    8.02   26.04
  -1   9   3   35.76   25.71
   0   9  -3  -10.21   24.48
   0  -9  -3  -32.44   26.78
   0   9  -3   26.48   24.64
   0   9  -3   22.99   49.39
   0   9   3   -6.24   27.56
   0  -9   3   18.97   30.97
   0  -9   3    5.80   25.44
   0  -9   3   -1.34   37.57
  -1  -9  -3  -17.05   40.14
   1   9  -3   17.44   24.90
  -1  -9  -3   49.92   25.36
   1   9  -3   27.59   22.52
  -1  -9   3    3.44   34.86
  -1  -9   3    8.96   24.59
   1   9   3   72.66   26.59
   2   9  -3   94.49   26.10
  -2  -9  -3   21.26   35.68
  -2  -9  -3   11.21   26.19
   2   9  -3   42.43   24.27
  -2  -9   3   46.73   23.12
  -2  -9   3   -0.91   13.28
   2   9   3   12.60   26.76
  -2  -9   3   40.75   34.28
   3   9  -3   54.09   28.35
  -3  -9  -3   35.54   44.36
   3   9  -3   67.48   27.43
  -3  -9  -3   79.82   31.55
   3   9  -3   88.00   37.24
   3   9   3   91.85   33.15
  -3  -9   3  120.38   44.49
  -3  -9   3   55.34   38.99
  -3  -9   3  120.79   21.09
  -3  -9   3  110.52   30.00
  -4  -9  -3  556.86  106.53
   4   9  -3  564.99   88.35
  -4  -9  -3  376.37   93.44
   4   9  -3  489.34   98.59
   4   9   3  380.05   88.93
  -4  -9   3  397.42  102.29
  -4  -9   3  463.41   92.36
  -4  -9   3  506.76  105.19
  -4  -9   3  412.01   86.36
   5   9  -3  770.22  148.01
  -5  -9   3  659.22  155.86
  -5  -9   3  833.09  171.31
  -5  -9   3  918.76  172.99
  -6  -9   3   18.87   47.98
  -6  -9   3   56.83   51.55
   5 -10  -3  188.80   61.89
   5 -10  -3  124.62   53.89
  -5  10   3  278.99   57.49
   4 -10  -3   74.75   43.09
   4 -10  -3  155.83   49.23
  -4  10   3  143.52   44.28
  -3  10  -3   42.75   38.69
   3 -10  -3  105.29   36.34
   3 -10  -3   96.90   44.60
   3 -10   3   58.54   33.35
  -3  10   3   32.98   33.60
   3 -10   3  102.20   41.89
   2 -10  -3   55.25   34.98
  -2  10  -3   76.41   35.61
   2 -10  -3   41.91   45.47
   2 -10   3   76.94   33.11
  -2  10   3  117.41   35.60
   2 -10   3   70.86   42.96
  -2  10   3    8.17   37.05
   1 -10  -3  116.72   39.76
  -1  10  -3   94.00   39.35
   1 -10   3  149.10   48.05
   1 -10   3   80.58   39.41
  -1  10   3  176.88   42.45
   0  10  -3   -4.66   31.03
   0 -10  -3   -2.17   31.57
   0  10  -3    2.75   27.48
   0 -10   3   -2.20   30.30
   0 -10   3   48.69   39.24
   0  10   3   11.91   33.44
   1  10  -3  197.16   43.06
  -1 -10  -3  162.45   53.70
   1  10  -3  163.38   41.02
  -1 -10  -3  134.11   41.28
  -1 -10   3  150.35   49.20
  -1 -10   3  157.37   42.14
   1  10   3  203.26   41.05
  -2 -10  -3   73.06   31.92
   2  10  -3  109.01   32.52
   2  10  -3  113.90   42.74
   2  10  -3   69.84   28.58
   2  10  -3   49.10   28.69
  -2 -10  -3   27.62   44.84
  -2 -10   3   61.64   42.86
   2  10   3   92.26   32.20
  -2 -10   3   43.71   17.75
  -2 -10   3  107.12   48.51
  -2 -10   3   65.43   30.46
   3  10  -3   58.85   40.10
  -3 -10  -3   34.34   29.54
   3  10  -3   72.52   29.59
   3  10  -3   61.98   26.27
  -3 -10  -3   56.52   45.22
   3  10   3   85.87   32.92
  -3 -10   3   46.00   28.13
  -3 -10   3   59.94   45.56
  -3 -10   3   11.60   39.58
  -3 -10   3   47.86   17.65
  -4 -10  -3  127.57   38.20
   4  10  -3   51.26   35.67
   4  10  -3  154.20   36.85
  -4 -10  -3  106.07   53.54
  -4 -10   3  105.05   34.12
  -4 -10   3  121.39   52.81
   4  10   3  153.65   37.34
  -4 -10   3   69.41   47.83
  -4 -10   3   69.30   26.43
  -5 -10  -3  120.26   72.92
   5  10  -3  116.58   46.90
  -5 -10   3  210.41   61.75
  -5 -10   3  235.57   48.65
  -5 -10   3  215.14   67.01
   5  10   3  196.40   50.01
  -6 -10   3  390.17  105.26
  -6 -10   3  448.42  104.12
  -7 -10   3   19.36   55.30
  -7 -10   3  127.79   67.69
   5 -11  -3  239.16   62.75
   5 -11  -3  152.37   58.50
  -5  11   3  183.66   56.53
   4 -11  -3   65.31   41.81
   4 -11  -3   54.01   48.32
  -4  11   3   39.61   37.85
   3 -11  -3   65.10   39.44
  -3  11  -3    3.93   38.55
   3 -11  -3    7.02   49.52
   3 -11   3   26.04   43.69
   3 -11   3  -12.42   34.25
  -3  11   3   -7.37   38.74
  -2  11  -3   36.88   37.75
   2 -11  -3   23.42   50.36
   2 -11  -3   30.77   38.10
  -2  11   3    3.42   32.26
  -2  11   3   -9.23   39.84
   2 -11   3  -26.80   47.34
   2 -11   3   37.55   35.11
   1 -11  -3   27.29   34.59
  -1  11  -3  -10.19   35.15
   1 -11   3    5.06   33.85
  -1  11   3   -2.91   39.34
   1 -11   3    4.42   43.66
   0 -11  -3  198.29   78.62
   0 -11  -3  237.37   66.46
   0  11  -3  341.19   65.46
   0  11  -3  242.85   65.03
   0  11   3  346.89   65.03
   0 -11   3  333.36   66.29
   0 -11   3  287.76   73.50
  -1 -11  -3   41.94   46.16
   1  11  -3  -15.07   34.39
  -1 -11  -3    2.36   33.46
   1  11  -3   -8.68   29.99
  -1 -11   3   18.88   33.56
  -1 -11   3    2.17   43.89
   1  11   3  -13.34   32.95
  -2 -11  -3  -11.78   49.09
  -2 -11  -3   49.04   30.89
   2  11  -3   26.93   28.09
   2  11  -3   12.18   35.05
  -2 -11   3   22.52   33.07
  -2 -11   3    8.64   47.19
   2  11   3   -5.31   34.18
   3  11  -3    7.26   34.73
  -3 -11  -3   -2.43   47.28
  -3 -11  -3   33.22   33.07
  -3 -11   3   19.45   29.04
   3  11   3   27.38   35.99
  -3 -11   3  -17.16   44.06
  -4 -11  -3   22.59   33.85
  -4 -11  -3   57.24   59.62
   4  11  -3   89.47   47.35
   4  11  -3   35.41   32.07
   4  11  -3   15.06   36.67
  -4 -11   3   68.43   48.44
  -4 -11   3   39.45   32.23
   4  11   3   69.02   38.46
  -5 -11  -3  134.86   75.34
  -5 -11  -3   59.93   42.89
   5  11  -3  107.54   40.31
  -5 -11   3  124.76   41.23
  -5 -11   3   67.35   56.81
   5  11   3  178.64   45.25
   6  11  -3   29.01   36.12
  -6 -11   3   -6.21   59.98
  -6 -11   3   18.78   36.40
  -6 -11   3   15.74   56.23
  -7 -11   3    8.16   61.39
  -7 -11   3   70.52   64.12
   5 -12  -3  200.51   53.17
   5 -12  -3    3.28   48.76
  -5  12   3   27.86   47.30
   4 -12  -3  -36.13   57.32
   4 -12  -3   23.74   43.59
  -4  12   3   17.46   43.72
   4 -12   3  -13.72   38.03
  -3  12  -3   43.25   45.52
   3 -12  -3   59.47   55.59
   3 -12  -3   40.37   43.44
   3 -12   3  -36.29   54.20
  -3  12   3   98.92   44.87
   3 -12   3  -27.33   39.44
   2 -12  -3    8.46   45.89
  -2  12  -3   -4.08   42.38
  -2  12   3  -31.44   56.54
   2 -12   3   22.12   52.35
   2 -12   3   57.82   38.41
   1 -12  -3  529.60   94.73
  -1  12  -3  281.84   88.69
  -1  12  -3  343.49   86.88
   1 -12   3  407.08   89.78
   1 -12   3  529.60   98.55
  -1  12   3  414.56   90.82
   0 -12  -3  182.99   64.09
   0 -12  -3   84.86   46.47
   0  12  -3   90.98   44.38
   0  12  -3    3.52   41.50
   0 -12   3   58.15   55.64
   0  12   3   62.44   39.01
   0 -12   3   19.17   39.16
   0  12   3  311.54   50.32
  -1 -12  -3  401.63   84.30
   1  12  -3  315.10   83.22
   1  12  -3  322.11   79.14
  -1 -12  -3  450.29   99.59
   1  12   3  494.04   83.09
  -1 -12   3  292.24   93.16
  -1 -12   3  258.47   82.96
   2  12  -3  -13.86   41.13
  -2 -12  -3    5.21   36.44
   2  12  -3   99.37   37.09
  -2 -12  -3   10.33   59.30
  -2 -12   3   25.99   47.68
   2  12   3  -29.77   42.56
  -2 -12   3   20.33   37.52
  -3 -12  -3  -15.67   35.91
  -3 -12  -3   53.07   58.50
   3  12  -3  122.83   38.23
  -3 -12   3   68.09   31.97
  -3 -12   3    2.38   54.10
   3  12   3   24.44   43.11
  -4 -12  -3  -11.53   61.02
   4  12  -3   -5.63   41.67
  -4 -12  -3  -29.84   39.51
  -4 -12   3    7.29   35.23
  -4 -12   3  -24.24   54.02
   4  12   3   18.87   45.16
  -5 -12  -3  -11.53   41.56
  -5 -12  -3   27.84   73.38
   5  12  -3  -31.62   41.13
  -5 -12   3   10.16   35.12
   5  12   3    6.79   43.79
  -5 -12   3   50.64   56.26
   6  12  -3   -3.13   42.54
  -6 -12   3   13.75   61.41
  -6 -12   3   -2.77   39.24
  -7 -12   3  -54.05   67.91
   5 -13  -3    2.95   59.03
  -5  13   3   35.47   46.99
  -3  13   3   -4.21   54.91
   3 -13   3  -50.60   42.16
   2 -13  -3   24.86   46.05
  -2  13  -3    4.51   49.75
   2 -13   3   70.11   54.06
   2 -13   3   -6.09   42.96
  -2  13   3   11.87   56.76
  -1  13  -3    4.25   45.91
  -1  13  -3  -20.98   48.80
   1 -13  -3  -27.91   46.20
   1 -13   3    9.32   44.02
   1 -13   3   -2.68   53.40
  -1  13   3    3.65   50.72
   0 -13  -3   54.97   49.81
   0 -13  -3  285.39   65.61
   0  13  -3   64.63   51.52
   0  13  -3   83.10   48.38
   0  13   3  197.04   52.87
   0  13   3  107.38   54.65
   0 -13   3   72.80   51.36
   0 -13   3   74.90   60.95
   1  13  -3   98.99   51.02
  -1 -13  -3  139.04   62.39
  -1 -13  -3    5.90   43.61
   1  13  -3  -22.79   44.40
   1  13   3   44.06   45.15
  -1 -13   3   41.42   56.83
   1  13   3  182.00   44.68
  -1 -13   3    5.96   43.74
   2  13  -3  -18.02   38.92
   2  13  -3   21.93   45.53
  -2 -13  -3   -2.90   42.92
  -2 -13  -3   -2.82   47.34
  -2 -13   3   22.77   43.54
  -2 -13   3   33.76   57.15
   2  13   3   16.65   46.85
   3  13  -3   -3.59   40.18
  -3 -13  -3  -14.45   39.33
   3  13  -3   70.65   44.77
  -3 -13   3  -54.67   38.06
  -3 -13   3   15.79   59.48
   3  13   3  -40.76   44.21
   4  13  -3   44.15   44.27
  -4 -13   3   21.56   35.63
  -4 -13   3   31.85   59.38
   5  13  -3   50.94   43.92
  -5 -13   3  -11.06   61.91
  -5 -13   3  -16.57   39.74
   6  13  -3  -23.76   44.96
  -6 -13  -3   48.54  103.62
  -6 -13   3   17.54   63.00
  -6 -13   3   -2.94   39.51
   6 -14  -3   39.76   65.80
   5 -14  -3  -74.14   65.28
   5 -14  -3  -45.40   56.54
  -5  14   3  -55.50   56.74
  -4  14  -3   -5.52   58.81
   4 -14  -3  -59.17   68.95
   4 -14  -3  107.15   56.11
  -4  14   3   47.97   54.31
   4 -14   3  -16.13   48.75
  -3  14  -3    5.20   54.71
   3 -14  -3  -59.06   51.21
   3 -14   3  -52.45   61.40
  -3  14   3  118.71   55.20
   3 -14   3  235.58   49.03
  -3  14   3   28.34   61.96
  -2  14  -3   -4.97   52.52
   2 -14  -3  129.55   52.53
  -2  14   3  172.57   65.96
   2 -14   3   -8.86   64.31
   1 -14  -3   -3.43   43.13
   1 -14  -3 -108.47   63.84
  -1  14   3   23.95   51.61
  -1  14   3   -4.07   44.51
   0 -14  -3   28.12   70.44
   0  14   3 -121.11   55.47
  -1 -14  -3   43.05   69.39
   1  14   3    9.04   43.21
  -2 -14  -3  -15.44   70.84
  -2 -14  -3   -3.23   41.89
   2  14   3   -3.73   45.31
  -3 -14  -3   25.28   66.38
  -3 -14  -3   25.59   47.05
   3  14   3   83.00   48.09
  -4 -14  -3  -26.82   75.34
  -4 -14  -3   16.22   47.31
   4  14   3  -30.58   50.21
  -5 -14  -3   -3.36   49.68
  -5 -14  -3  -64.34   87.71
   5  14   3   -4.04   56.52
  -6 -14  -3   53.39  107.88
   6  14   3    8.80   59.71
  -6 -14   3  117.26   72.15
  -7 -14   3    3.41   69.79
  -8 -14   3   76.38   83.81
   6 -15  -3   94.02   68.99
   5 -15  -3   70.44   74.10
   5 -15  -3   29.12   60.99
  -5  15   3   18.30   66.40
   4 -15  -3   19.53   54.38
   4 -15  -3   20.49   72.68
  -4  15  -3  -24.09   59.05
  -4  15   3   57.14   84.99
   4 -15   3    3.48   45.02
  -4  15   3  -58.95   62.57
  -3  15  -3   -5.70   58.13
   3 -15  -3 -105.74   54.31
   3 -15   3   -3.55   51.83
  -3  15   3  -79.47   80.13
   3 -15   3  -13.43   69.11
  -2  15  -3  -13.06   60.03
  -2  15  -3    5.47   56.52
   2 -15  -3  -30.18   57.29
   2 -15   3   -9.65   67.22
  -2  15   3   44.13   68.72
   2 -15   3    7.33   52.61
  -1  15  -3   -5.27   56.63
  -1  15  -3    4.35   60.84
   1 -15  -3 -180.77   77.90
   1 -15  -3  -30.22   58.58
   1 -15   3   81.44   55.86
  -1  15   3    9.13   66.26
   1 -15   3  -88.74   71.07
  -1  15   3  -75.85   62.99
   0 -15  -3   91.06   75.42
   0  15  -3   45.75   57.78
   0  15  -3   29.87   49.62
   0 -15  -3  -59.71   60.69
   0 -15   3  -70.51   75.72
   0  15   3   -5.32   64.04
   0  15   3  -26.37   61.39
   0 -15   3  131.16   57.86
  -1 -15  -3  -43.86   73.98
   1  15  -3  -16.05   61.52
   1  15  -3 -116.38   56.71
  -1 -15  -3    3.63   52.75
   1  15   3   -5.20   61.43
   1  15   3   63.46   61.47
  -1 -15   3  -21.97   65.23
  -1 -15   3   33.16   56.40
   2  15  -3    4.78   55.20
   2  15  -3   55.17   56.06
  -2 -15  -3   27.07   74.16
  -2 -15  -3  100.62   56.30
   2  15   3  -29.23   57.11
   2  15   3  -10.56   62.11
  -2 -15   3   66.87   52.00
  -2 -15   3  -31.13   69.56
   3  15  -3  -38.56   57.75
  -3 -15  -3  103.04   76.79
  -3 -15  -3  -56.64   51.40
   3  15  -3    4.73   55.78
  -3 -15   3   10.22   50.57
   3  15   3  -16.75   57.98
  -3 -15   3  -37.78   68.21
   4  15  -3   31.26   54.73
  -4 -15  -3   67.79   48.64
   4  15  -3    4.90   55.90
  -4 -15  -3  -50.70   81.71
  -4 -15   3  -31.96   73.67
  -4 -15   3  -16.61   48.64
   4  15   3   92.89   57.02
   5  15  -3  -66.57   55.80
  -5 -15  -3   40.31   50.40
  -5 -15  -3  109.85   93.84
   5  15   3  -70.88   56.09
  -5 -15   3    3.32   44.28
  -5 -15   3   32.59   70.85
  -6 -15  -3   54.93  105.81
   6  15  -3    8.18   53.80
  -6 -15   3   30.68   70.34
  -6 -15   3   58.25   52.38
   6  15   3  -47.71   58.89
  -7 -15   3  -14.52   78.80
  -8 -15   3   11.78   89.30
   5 -16  -3   -4.51   67.27
   5 -16  -3   -3.85   74.84
  -5  16   3  -42.60   98.89
  -5  16   3  -60.58   70.88
   4 -16  -3  -74.91   85.85
   4 -16  -3   12.71   57.83
  -4  16  -3 -230.10   70.73
  -4  16   3   31.73   96.67
  -4  16   3    6.53   74.72
   4 -16   3   86.50   55.05
  -3  16  -3    6.26   66.54
   3 -16  -3    4.10   56.60
  -3  16  -3  100.54   71.05
   3 -16   3   -7.72   58.70
  -3  16   3 -111.78   88.10
   3 -16   3   -7.30   75.72
   2 -16  -3   33.15   64.47
   2 -16  -3    7.49   77.46
  -2  16  -3  -38.40   66.70
  -2  16  -3   42.16   66.22
   2 -16   3  -94.74   79.22
   2 -16   3   19.75   58.44
  -2  16   3  -27.12   74.73
  -1  16  -3  -23.86   72.72
   1 -16  -3    4.14   60.66
   1 -16  -3   52.30   86.67
  -1  16  -3  -64.38   64.41
  -1  16   3   10.18   71.76
   1 -16   3  125.40   65.29
   1 -16   3   41.33   68.54
  -1  16   3    6.12   63.65
   0 -16  -3  109.03   82.99
   0  16  -3  -32.04   67.36
   0 -16  -3  -57.32   56.47
   0  16  -3   28.01   66.32
   0 -16   3   24.71   63.90
   0 -16   3   24.16   74.94
   0  16   3    6.09   71.59
   0  16   3    4.94   67.57
   1  16  -3   -5.48   58.79
  -1 -16  -3   84.30   80.06
   1  16  -3   -4.50   62.95
  -1 -16  -3 -104.35   60.30
   1  16   3   -4.73   66.80
   1  16   3   11.93   70.28
  -1 -16   3  -89.50   59.79
  -1 -16   3    3.44   74.57
  -2 -16  -3    3.98   55.76
  -2 -16  -3    7.42   85.40
   2  16  -3   -5.47   57.48
   2  16  -3   43.98   58.15
   2  16   3   -4.68   62.65
  -2 -16   3   30.21   74.32
  -2 -16   3   62.36   59.76
   2  16   3   -6.03   61.90
   3  16  -3  -10.89   69.96
  -3 -16  -3  -31.35   53.24
   3  16  -3   68.93   64.39
  -3 -16  -3  153.76   86.05
  -3 -16   3  -37.83   56.25
  -3 -16   3   44.56   76.16
   3  16   3   60.44   61.40
  -4 -16  -3  -78.64   89.50
   4  16  -3 -139.86   64.30
   4  16  -3  -82.51   62.07
  -4 -16  -3  -66.91   58.99
  -4 -16   3  -66.31   53.13
  -4 -16   3   48.32   78.60
   4  16   3  -18.67   64.50
   5  16  -3    8.69   60.86
  -5 -16  -3  -43.92   97.18
  -5 -16  -3  -72.21   60.22
   5  16   3  -63.29   67.83
  -5 -16   3  -32.96   50.29
  -5 -16   3  103.21   76.48
  -6 -16  -3  363.92  139.42
   6  16  -3   67.68   75.47
  -6 -16   3  499.75  108.86
   6  16   3   77.83   81.54
  -6 -16   3  283.73   73.59
   7  16  -3    9.59   61.21
  -7 -16   3   11.59   94.16
  -8 -16   3    4.13   94.59
   5 -17  -3  -48.94   73.56
   5 -17  -3  -63.20   93.54
  -5  17   3   -7.75  106.60
  -5  17   3   -7.46   78.89
   4 -17  -3    4.58   64.26
  -4  17  -3   50.32   76.20
   4 -17   3   -4.09   61.57
  -4  17   3   42.36  102.83
  -4  17   3   -7.27   61.12
  -3  17  -3  -31.06   77.08
  -3  17  -3 -192.66   75.30
   3 -17  -3 -203.12   64.01
   3 -17   3 -104.72   65.56
  -3  17   3    6.48   94.93
   3 -17   3  -51.52   93.81
   2 -17  -3  153.87   69.17
  -2  17  -3  116.11   82.21
   2 -17  -3  113.69   97.98
  -2  17  -3   13.25   82.30
   2 -17   3  110.98   85.99
   2 -17   3  145.66   71.70
  -2  17   3   -5.99   84.47
  -2  17   3    7.08   80.66
  -1  17  -3    6.50   69.20
   1 -17  -3   40.97   73.98
   1 -17  -3   77.59  100.72
  -1  17  -3  118.81   79.47
  -1  17   3  114.41   82.44
   1 -17   3  -35.64   67.05
   1 -17   3  122.33   83.96
  -1  17   3    6.91   76.57
   0 -17  -3  -26.88   70.50
   0  17  -3   40.49   76.11
   0  17  -3    6.30   70.57
   0 -17  -3  -47.67   92.41
   0  17   3  -82.62   83.52
   0 -17   3  -97.23   87.92
   0 -17   3  -18.06   67.74
   0  17   3    6.89   77.93
  -1 -17  -3   -4.43   61.22
   1  17  -3   61.68   69.09
   1  17  -3   35.02   73.96
  -1 -17  -3   94.98   94.88
   1  17   3  158.62   75.91
  -1 -17   3 -102.52   61.78
   1  17   3 -124.32   78.51
  -1 -17   3 -120.19   89.86
  -2 -17  -3  316.40  100.93
   2  17  -3   18.63   75.97
  -2 -17  -3   83.31   71.42
   2  17  -3   63.19   71.73
  -2 -17   3  334.96   94.73
   2  17   3   89.31   81.88
   2  17   3   -6.95   82.60
  -2 -17   3  314.12   77.60
   3  17  -3 -100.98   76.07
  -3 -17  -3  -41.11   96.84
  -3 -17  -3  -56.58   67.39
   3  17  -3  -57.86   73.76
   3  17   3   67.05   71.73
  -3 -17   3  -96.66   64.68
   3  17   3  -29.37   79.76
  -3 -17   3  -51.82   88.48
  -4 -17  -3 -100.11   64.74
   4  17  -3  -14.45   63.97
  -4 -17  -3   34.29   98.23
   4  17  -3    6.47   61.22
  -4 -17   3  -63.60   82.61
   4  17   3   -5.17   69.53
  -4 -17   3  -36.69   59.14
  -5 -17  -3   52.26  108.17
  -5 -17  -3  -39.60   65.16
   5  17  -3   13.85   81.51
   5  17  -3  -19.26   68.42
   5  17   3   21.47   76.68
  -5 -17   3  -35.01   87.44
  -5 -17   3    4.04   53.19
  -6 -17  -3   28.26  123.08
   6  17  -3  -84.81   67.48
  -6 -17   3  114.34   59.03
  -6 -17   3  -83.57   93.28
   6  17   3    5.68   76.02
   7  17  -3  -21.07   66.46
  -7 -17   3  -24.77   89.62
  -8 -17   3  -81.96   95.58
   5 -18  -3    5.27   75.63
   5 -18  -3    4.62   97.01
  -5  18   3   41.42   86.77
  -5  18   3   34.27  118.67
  -4  18  -3   55.23   87.70
   4 -18  -3   34.78   78.44
   4 -18   3  -93.08   59.88
  -4  18   3   31.09  113.89
  -3  18  -3  -50.90   85.92
   3 -18  -3   -4.94   73.07
  -3  18  -3    7.59   80.64
  -3  18   3  127.79   95.82
   3 -18   3 -263.06   98.44
   3 -18   3  -62.90   61.45
   2 -18  -3    4.94   72.08
   2 -18  -3   61.34   93.23
  -2  18  -3   51.50   85.54
  -2  18  -3   -7.33   75.91
  -2  18   3   86.63   95.92
  -2  18   3   -7.99   98.12
   2 -18   3  -97.50   72.88
   2 -18   3   29.21   81.59
   1 -18  -3  234.71   91.59
  -1  18  -3   11.30   79.70
   1 -18  -3   29.72   65.59
  -1  18  -3   21.64   82.77
   1 -18   3   33.98   71.62
  -1  18   3  -70.36   92.96
  -1  18   3 -303.97   90.42
   1 -18   3   56.52   83.46
   0 -18  -3  -68.70   70.79
   0  18  -3  150.54   81.51
   0 -18  -3 -152.19  100.61
   0  18  -3   14.22   82.13
   0 -18   3    4.94   68.83
   0  18   3    7.82   88.59
   0 -18   3   -4.02   85.77
   0  18   3  -43.11   83.35
   1  18  -3   20.88   78.41
  -1 -18  -3  -58.75   66.75
   1  18  -3   22.18   85.81
  -1 -18  -3   51.67   91.73
   1  18   3 -309.98   96.19
  -1 -18   3  -29.18   72.71
  -1 -18   3  -36.64   83.87
   1  18   3   88.71   78.67
   2  18  -3   21.13   83.06
  -2 -18  -3   72.36   68.94
  -2 -18  -3 -208.97   99.61
   2  18  -3   32.34   82.65
   2  18   3    8.02   91.16
   2  18   3  106.21   75.76
  -2 -18   3   -8.05   87.64
  -2 -18   3   52.17   70.68
  -3 -18  -3 -120.19   67.69
  -3 -18  -3    4.44  101.77
   3  18  -3    7.27   85.73
   3  18  -3  -48.51   75.73
   3  18   3    8.44   98.21
  -3 -18   3  -46.30   70.02
  -3 -18   3   -3.98   90.26
   3  18   3 -161.00   79.04
  -4 -18  -3 -164.02   69.00
  -4 -18  -3   61.08  113.53
   4  18  -3   15.97   75.58
   4  18  -3  135.90   92.15
   4  18   3 -114.36  104.72
  -4 -18   3  -81.46   68.33
   4  18   3 -103.47   79.16
  -4 -18   3  107.04   91.75
  -5 -18  -3 -144.40  111.64
   5  18  -3  -48.07   75.86
   5  18  -3   94.37   93.30
  -5 -18  -3   53.43   67.30
  -5 -18   3   -8.35   96.95
  -5 -18   3  -22.33   65.60
   5  18   3   11.87   81.70
   6  18  -3   60.94  113.34
   6  18  -3 -110.45   78.81
  -6 -18  -3  -12.18  139.39
   6  18   3 -156.04   90.29
  -6 -18   3    4.33  104.29
  -6 -18   3   31.40   66.01
   7  18  -3   58.09   69.94
  -7 -18   3  -13.30   99.29
  -8 -18   3   54.72  106.30
   5 -19  -3  142.16   92.51
  -5  19   3 -179.09  136.39
  -5  19   3   -9.21   95.41
  -4  19  -3 -125.36   87.58
   4 -19  -3  -49.21   81.15
  -4  19   3   75.73  131.42
   4 -19   3  -76.33   70.40
  -3  19  -3 -184.19   97.14
   3 -19  -3 -291.38  112.00
  -3  19  -3   42.97   85.92
   3 -19  -3 -268.83   89.27
  -3  19   3   27.09   99.46
   3 -19   3   14.48   73.74
   3 -19   3  -65.85  104.45
  -3  19   3  -77.90  119.61
  -2  19  -3   40.59   92.75
   2 -19  -3  263.97   99.41
  -2  19  -3   12.23   91.24
  -2  19   3   18.00  104.75
   2 -19   3  177.32  104.06
  -2  19   3  110.89  114.10
   2 -19   3   25.44   75.33
  -1  19  -3   -8.03   90.94
   1 -19  -3 -322.10   96.27
  -1  19  -3  -73.43   90.43
   1 -19   3 -137.02   79.57
  -1  19   3  -14.28  108.28
   1 -19   3 -158.17   98.95
  -1  19   3  -17.72  107.72
   0  19  -3   -7.99   95.38
   0 -19  -3 -327.47   85.26
   0  19  -3 -104.39   89.47
   0  19   3   27.28   96.89
   0 -19   3 -188.06   86.94
   0  19   3  -88.68  103.86
   0 -19   3 -108.52  107.42
   1  19  -3   63.38   95.84
   1  19  -3  -18.33   91.53
  -1 -19   3 -174.49   98.80
   1  19   3   72.44  108.45
  -1 -19   3 -106.25   80.50
   1  19   3   46.35   98.58
  -2 -19  -3  673.65  132.24
  -2 -19  -3  272.34   98.48
   2  19  -3  352.23  105.00
   2  19  -3   16.00  106.71
   2  19   3  215.78  125.27
  -2 -19   3  176.24  111.00
   2  19   3  276.80  110.35
  -2 -19   3   36.65   88.29
   3  19  -3 -108.45   97.53
  -3 -19  -3  -62.84  118.52
  -3 -19  -3    5.31   81.31
   3  19  -3    8.29   91.76
  -3 -19   3 -139.57  101.90
  -3 -19   3 -132.21   77.60
   3  19   3  -83.28   91.91
   3  19   3   -9.87  115.22
   4  19  -3    8.69   98.74
  -4 -19  -3    5.34   76.90
  -4 -19  -3 -166.02  122.45
   4  19  -3  -29.52   88.33
   4  19   3  121.46   91.86
  -4 -19   3   -9.96   69.74
   4  19   3   11.08  125.83
  -4 -19   3  -97.39   96.59
  -5 -19  -3  305.83  130.11
  -5 -19  -3 -102.08   76.18
   5  19  -3 -229.28  110.85
   5  19  -3   -5.92   83.80
  -5 -19   3    4.94   71.19
   5  19   3  -52.67   87.97
  -5 -19   3  -27.17  100.17
   6  19  -3  140.63   81.66
   6  19  -3    9.93  110.32
  -6 -19  -3   99.02  151.86
  -6 -19   3   19.66   71.27
  -6 -19   3  -32.40  105.09
   6  19   3  117.16   94.89
   7  19  -3   11.17  132.77
   7  19  -3   32.11   86.32
  -7 -19   3  -47.78  104.27
   4 -20  -3 -155.07   89.91
  -4  20   3   55.38  133.49
  -3  20  -3    6.54   94.02
  -3  20  -3    9.25   95.26
   3 -20  -3 -128.83   87.04
  -3  20   3   -8.60  133.46
   3 -20   3   -5.27   73.12
  -2  20  -3    9.03   98.59
  -2  20  -3   85.21   95.14
   2 -20  -3   96.84  113.11
   2 -20  -3    5.86   96.32
  -2  20   3   98.50  122.89
  -2  20   3   30.44  113.70
   2 -20   3 -202.88  106.65
   2 -20   3  -55.12   87.02
   1 -20  -3  -81.76   86.08
   1 -20  -3    5.14  115.67
  -1  20  -3   73.20  103.61
  -1  20  -3 -268.43  101.82
   1 -20   3  -52.45  102.97
   1 -20   3   11.44   89.05
  -1  20   3  111.29  113.58
  -1  20   3  102.93  108.90
   0  20  -3  189.21   99.07
   0  20  -3    8.99  102.43
   0 -20  -3   23.49   87.45
   0 -20  -3   36.20  111.00
   0  20   3   10.09  114.79
   0 -20   3   17.43   74.22
   0 -20   3   18.63   98.84
   0  20   3 -106.19  111.45
   1  20  -3   73.42  100.19
   1  20  -3    9.04   97.55
  -1 -20  -3 -245.36  118.69
  -1 -20  -3  -53.40   84.51
   1  20   3  -10.36  124.52
  -1 -20   3 -179.62   77.48
   1  20   3  -74.28  102.76
  -1 -20   3  -42.49  108.89
  -2 -20  -3   82.68   88.38
   2  20  -3   18.22  103.51
   2  20  -3  -99.24   96.89
  -2 -20  -3 -224.03  120.48
   2  20   3   10.91  127.30
  -2 -20   3  -34.50   84.39
   2  20   3 -183.08  107.51
  -2 -20   3  -95.65  109.27
   3  20  -3   75.92  116.77
   3  20  -3  -26.72   98.95
  -3 -20  -3   75.00  123.39
  -3 -20  -3 -134.77   89.29
  -3 -20   3  -57.27  107.63
   3  20   3  -11.70  130.06
   3  20   3   49.96  100.58
  -3 -20   3   -5.61   80.68
  -4 -20  -3    5.94   87.27
   4  20  -3 -143.80   87.70
   4  20  -3   10.05  120.30
  -4 -20  -3 -152.47  127.60
  -4 -20   3    4.76  107.18
   4  20   3   78.51  152.80
   4  20   3   14.39   97.39
  -4 -20   3   76.80   79.17
   5  20  -3   52.90   91.64
  -5 -20  -3    6.27  117.10
   5  20  -3   10.74  126.49
  -5 -20  -3    5.94   81.10
  -5 -20   3   98.18   79.77
  -5 -20   3  -43.92  115.32
   5  20   3   29.32   92.63
   6  20  -3   67.76   93.03
   6  20  -3 -149.82  128.67
  -6 -20   3   59.81  113.35
  -6 -20   3  -32.46   79.73
   7  20  -3  -12.66  153.60
  -1 -21   3   63.22   95.71
   2  21  -3   51.39  113.58
  -2 -21   3    6.32   96.08
  -3 -21   3  -37.12   97.45
   0   0  -4 2772.12  557.57
   0   0   4 2896.59  579.49
   0   0   4 2699.26  521.88
   1   0  -4    9.27    5.57
   0  -1  -4   -5.13    5.46
   0   1  -4   12.84    9.77
  -1   0   4   -2.79    3.01
   0  -1   4   -5.89   12.35
  -1   0   4   -1.56    8.40
   0   1   4   -0.60    4.64
   1  -1  -4    1.32    3.31
   1   1  -4    3.35    7.13
   1  -1  -4    1.90    4.43
   1  -1  -4   10.58    4.94
  -1   1   4   -1.17    3.36
  -1   1   4    3.19    2.73
  -1   1   4   -2.20    2.05
  -1  -1   4   -1.84   10.14
  -1   1   4   -3.00    8.60
   1  -2  -4   13.89    5.64
   1  -2  -4   16.73    5.88
   1  -2  -4    5.96    7.72
  -1   2   4   15.06    8.44
  -1   2   4   10.03    4.85
  -2  -1   4    8.90   12.37
  -1   2   4    9.93    3.38
   0   2  -4  763.84  181.25
   0  -2  -4 1030.71  179.41
   2   0  -4  864.70  179.92
   0  -2  -4  612.63  183.35
  -2   0   4  875.85  159.04
   0  -2   4 1067.00  190.82
   0   2   4  893.70  160.10
   0  -2   4  939.18  166.62
  -2   0   4  983.80  183.61
   1   2  -4    3.95    9.33
   1   2  -4    9.76    4.16
   2  -1  -4    7.58    4.80
  -1  -2   4    5.68   11.93
  -1  -2   4   16.91    5.60
  -1  -2   4    9.23    4.18
  -2   1   4   21.97    3.58
  -2   1   4   11.85    4.01
  -1  -2   4    9.49    4.75
  -2   1   4    8.01   10.46
   2  -2  -4  312.53   84.29
   2  -2  -4  437.30   79.19
   2   2  -4  394.74   72.41
   2   2  -4  384.63   83.67
  -2  -2   4  449.86   84.73
  -2   2   4  391.05   74.48
  -2   2   4  475.96   81.00
  -2  -2   4  396.76   85.65
  -2  -2   4  421.29   84.69
  -2   2   4  403.08   85.68
   2  -3  -4  490.24   90.59
   2  -3  -4  439.45   96.46
  -2   3   4  484.47   91.72
  -3  -2   4  458.76   97.77
   1  -3  -4  182.18   30.66
   1  -3  -4  154.98   28.00
  -1   3   4  101.25   26.11
   0   3  -4    4.80    6.12
   3   0  -4    7.24    6.76
   0   3  -4  -19.86   15.35
   0  -3  -4    3.33    6.96
   0  -3  -4   -4.33   10.62
   0  -3   4   -0.83    6.82
  -3   0   4    1.07    4.04
   0  -3   4   -6.11    7.86
   0   3   4   -2.73    5.91
   0  -3   4    3.09   17.44
   1   3  -4  179.40   28.29
  -1  -3  -4  129.17   30.71
   1   3  -4  112.04   31.37
  -1  -3  -4  169.00   30.67
   3  -1  -4  106.14   29.73
  -1  -3   4  166.01   33.99
  -1  -3   4  188.13   27.12
  -1  -3   4  181.11   30.13
   1   3   4  161.14   27.07
  -1  -3   4  130.54   28.12
   2   3  -4  501.55   77.28
  -2  -3   4  345.65   76.81
  -2  -3   4  354.83   91.16
  -2  -3   4  391.52   91.71
  -2  -3   4  489.95   85.55
   3  -3  -4  797.47  142.48
  -3  -3   4  729.30  142.78
  -3   3   4  524.43  132.13
  -3  -3   4  706.20  122.43
  -3  -3   4  603.66  140.96
   3  -4  -4  455.53   89.48
   3  -4  -4  475.38   95.36
   2  -4  -4  269.13   63.60
   2  -4  -4  426.13   61.15
  -2   4   4  343.19   61.31
   1  -4  -4   15.26   10.87
   4   1  -4   13.58   10.76
   1  -4  -4   22.68   14.74
  -1   4   4   10.85    9.39
   0  -4  -4  984.17  247.57
   0   4  -4 1211.90  262.18
   0  -4  -4 1476.34  268.02
   0  -4   4 1501.80  277.75
   0  -4   4 1070.21  261.80
   0  -4   4 1326.42  249.18
   0  -4   4 1487.96  238.59
  -1  -4  -4   13.35   14.60
   1   4  -4   32.55    8.81
   1   4  -4   27.93   14.80
  -1  -4  -4    2.86   11.24
   1   4   4   20.41    9.71
  -1  -4   4   34.52   20.06
  -1  -4   4   14.31   12.09
  -1  -4   4   27.03    8.40
  -1  -4   4   32.75    9.53
  -2  -4  -4  303.93   55.93
   2   4  -4  286.34   56.93
   2   4  -4  253.58   49.75
  -2  -4   4  274.66   58.56
   2   4   4  320.04   50.49
  -2  -4   4  270.50   52.73
  -2  -4   4  284.40   56.41
   3   4  -4  374.00   78.08
  -3  -4   4  367.58   91.54
  -3  -4   4  433.40   88.33
  -3  -4   4  494.91   93.22
  -3  -4   4  458.67   78.07
  -4  -4   4  148.16   36.85
   5   4  -4  104.04   29.84
  -4   5   4  123.23   28.47
   2  -5  -4   -1.14   34.52
  -1   5   4  569.52   95.65
   1  -5   4  523.08  108.07
   0  -5  -4   17.53   12.95
   0   5  -4   20.11   23.75
   0   5  -4   13.23   12.16
   0  -5   4   20.79   15.82
   0  -5   4    3.11   12.98
   0  -5   4    3.69   28.16
   0  -5   4    4.68   10.62
   0   5   4   -6.61   11.53
   1   5  -4  478.75   86.85
   1   5  -4  404.83   80.82
   1   5  -4  434.38   95.01
  -1  -5   4  351.20   98.60
   2   5  -4  273.06   51.41
   2   5  -4  255.51   50.80
   2   5  -4  244.33   44.08
  -2  -5   4  230.35   55.64
  -2  -5   4  193.04   47.06
  -2  -5   4  258.70   43.30
  -2  -5   4  228.04   51.33
   3   5  -4   42.95   13.22
  -3  -5   4    6.90   11.80
  -3  -5   4    7.56   17.58
  -3  -5   4   -4.73   27.90
   4   5  -4   88.96   26.95
   4   5  -4   86.57   22.49
  -4  -5   4  119.58   28.53
  -4  -5   4   93.49   20.83
   5   5  -4  166.85   41.41
  -5  -5   4  172.63   51.23
   4  -6  -4   12.82   24.43
   4  -6  -4   10.11   23.51
  -4   6   4    4.69   17.82
   3  -6  -4   99.68   28.80
   3  -6  -4   84.07   25.05
  -3   6   4   34.67   23.36
   2  -6  -4  998.27  159.72
   1  -6  -4   -9.99   24.79
   1  -6  -4   26.57   17.66
  -1   6   4   45.85   16.69
   1  -6   4   11.72   16.10
   0  -6  -4   84.88   31.89
   0  -6  -4  134.35   26.59
   0   6  -4   83.85   37.54
   0   6   4  141.49   24.63
   0  -6   4   91.30   22.88
   0  -6   4   54.49   38.78
   1   6  -4    2.27   14.26
  -1  -6  -4    8.22   23.73
  -1  -6  -4  -15.09   15.83
   1   6  -4    4.81   26.35
  -1  -6   4    6.04   29.98
   1   6   4   -5.43   16.68
  -1  -6   4   -1.11   13.04
  -1  -6   4    3.42   10.11
  -3  -6  -4   92.21   25.15
   3   6   4   67.69   22.22
   4   6  -4  -11.12   18.12
  -4  -6   4   -9.37   11.86
  -4  -6   4  -24.00   33.85
   5   6  -4  117.16   40.00
  -5  -6   4  140.81   31.94
  -5  -6   4  224.52   50.65
  -5  -6   4  169.13   42.58
   5  -7  -4  164.40   46.44
   4  -7  -4   65.97   28.02
   4  -7  -4   72.58   34.00
  -4   7   4   60.49   29.01
   3  -7  -4   43.25   23.63
   3  -7  -4   40.20   28.72
  -3   7   4   20.61   22.79
  -2   7  -4   -9.27   18.76
   2  -7  -4  -31.78   27.05
   2  -7  -4   -6.29   20.00
   2  -7   4    9.36   25.93
   2  -7   4   -9.45   20.77
  -2   7   4  -19.78   18.77
   1  -7  -4    4.47   18.62
   1  -7  -4   17.56   26.87
  -1   7  -4   -2.15   18.25
  -1   7   4   18.79   17.29
   1  -7   4   30.02   23.80
   1  -7   4    3.08   19.96
  -1   7   4   -1.66   19.18
   1  -7   4    7.86   14.80
   0  -7  -4  -10.43   26.81
   0   7  -4   10.46   34.41
   0  -7  -4   -5.80   18.61
   0   7  -4  -39.13   19.57
   0  -7   4   15.60   34.87
   0  -7   4    5.86   19.50
   0   7   4  -20.43   19.61
   0  -7   4   -9.26   12.71
   0  -7   4  -38.43   24.93
   1   7  -4   -6.25   15.60
   1   7  -4   35.91   17.93
  -1  -7  -4    7.74   12.73
   1   7  -4   16.62   28.25
  -1  -7  -4   37.39   18.17
  -1  -7   4   31.66   23.78
   1   7   4   19.08   19.28
  -1  -7   4   33.22   18.17
  -1  -7   4   -0.92    9.43
  -1  -7   4   58.35   38.98
  -2  -7  -4  -18.41   18.73
   2   7  -4    3.97   17.71
  -2  -7   4   12.51   16.68
   2   7   4    3.33   18.28
  -2  -7   4  -35.22   25.48
   3   7  -4   36.92   20.45
  -3  -7  -4   53.88   21.99
   3   7  -4   50.70   21.58
  -3  -7  -4    5.27   31.79
  -3  -7   4   61.88   27.08
   3   7   4   58.73   22.03
  -3  -7   4   -1.32   28.23
  -3  -7   4   29.93   13.11
  -3  -7   4   39.80   17.92
   4   7  -4   37.32   26.21
   4   7  -4   88.36   27.73
  -4  -7   4   57.85   45.77
  -4  -7   4   69.68   18.17
  -4  -7   4   61.02   24.85
  -4  -7   4   93.15   33.17
   5   7  -4  130.63   42.07
  -5  -7   4  153.73   34.04
  -5  -7   4  197.02   46.32
  -5  -7   4  182.63   55.18
  -6  -7   4  270.88   65.79
  -6  -7   4  208.45   70.07
   5  -8  -4   87.72   38.66
  -5   8   4   88.34   39.29
   4  -8  -4   64.66   32.20
   4  -8  -4   74.79   36.46
  -4   8   4   58.49   30.37
   3  -8  -4   37.51   27.72
   3  -8  -4  -11.83   34.42
  -3   8   4   -5.14   24.23
   2  -8  -4  191.57   51.46
   2  -8  -4  281.70   59.16
  -2   8  -4  257.79   55.70
  -2   8   4  162.53   51.55
   1  -8  -4   -8.55   24.54
   1  -8  -4  -64.08   39.45
  -1   8  -4    2.47   26.42
   1  -8   4  -49.87   27.99
  -1   8   4  -22.27   21.68
  -1   8   4   -1.94   23.89
   0  -8  -4  179.64   38.27
   0  -8  -4  156.13   46.34
   0   8  -4  165.79   37.23
   0   8  -4  186.49   54.86
   0   8   4  228.89   36.74
   0  -8   4   53.39   43.82
   0  -8   4  180.05   39.35
   0  -8   4   25.33   57.28
   1   8  -4  -59.38   26.06
   1   8  -4  -31.49   21.96
  -1  -8  -4    1.12   15.91
  -1  -8  -4  -16.44   25.25
   1   8   4   -1.85   21.77
  -1  -8   4  -82.47   22.98
  -2  -8  -4  255.63   53.10
   2   8   4  220.39   51.25
   3   8  -4    7.41   30.92
  -3  -8  -4   11.51   36.15
   3   8  -4  -39.74   23.11
  -3  -8  -4   31.82   23.93
  -3  -8   4  -75.80   33.24
  -3  -8   4  -29.81   40.80
   3   8   4   27.92   23.56
  -3  -8   4  -10.01   13.02
  -3  -8   4  -42.35   20.74
   4   8  -4  107.46   30.95
   4   8  -4  108.57   28.86
  -4  -8  -4  103.50   46.31
  -4  -8   4  112.22   28.48
  -4  -8   4   90.80   37.45
  -4  -8   4   61.58   21.70
  -4  -8   4   65.04   47.49
   4   8   4  150.38   31.71
   5   8  -4  109.58   37.59
   5   8  -4  194.41   33.71
  -5  -8   4  123.52   42.37
  -5  -8   4   42.91   53.40
  -5  -8   4  122.01   27.45
  -5  -8   4  102.94   34.14
  -6  -8   4   97.11   43.60
  -6  -8   4   57.22   55.66
   5  -9  -4   93.94   46.15
   5  -9  -4  143.60   42.57
  -5   9   4   82.40   38.26
   4  -9  -4  340.85  134.02
   4  -9  -4  726.17  144.26
  -4   9   4  760.36  137.89
   3  -9  -4   60.86   38.13
   3  -9  -4   41.96   32.11
   3  -9   4   40.23   26.63
  -3   9   4   48.99   31.77
  -2   9  -4  156.12   38.60
   2  -9  -4   96.70   37.60
   2  -9  -4   98.55   46.74
   2  -9   4   99.17   41.72
  -2   9   4  165.46   38.42
   2  -9   4  133.46   37.63
  -2   9   4  110.43   37.05
  -1   9  -4  -22.34   28.06
   1  -9  -4   34.00   36.05
   1  -9  -4  -11.75   26.04
  -1   9   4   31.33   27.86
   1  -9   4   16.16   27.94
  -1   9   4  -25.93   23.73
   1  -9   4   21.04   35.73
   0  -9  -4  -21.15   28.25
   0  -9  -4   -1.91   39.30
   0   9  -4   -7.39   25.83
   0  -9   4   20.80   35.45
   0   9   4   14.78   28.23
   0  -9   4   -1.95   25.59
  -1  -9  -4    9.34   25.28
   1   9  -4    6.58   22.97
   1   9  -4  -50.23   25.87
   1   9   4  -19.05   25.53
  -1  -9   4   -8.50   33.54
  -1  -9   4   19.82   25.29
  -1  -9   4    9.19   13.27
   2   9  -4  115.20   35.90
  -2  -9  -4  185.79   35.76
   2   9  -4  126.19   33.83
   2   9  -4   73.77   47.67
  -2  -9  -4   57.58   48.81
   2   9  -4  141.51   33.12
   2   9   4   85.32   37.09
  -2  -9   4  183.62   27.31
  -2  -9   4  133.41   51.88
  -2  -9   4   90.46   42.77
  -2  -9   4   97.72   34.86
   3   9  -4   32.25   38.19
   3   9  -4   40.54   28.67
  -3  -9  -4   98.91   31.38
   3   9  -4   58.67   29.21
  -3  -9  -4   91.40   46.28
  -3  -9   4  165.38   47.14
   3   9   4  110.08   31.69
  -3  -9   4   50.03   19.14
  -3  -9   4  121.04   38.47
  -3  -9   4   91.57   27.84
  -4  -9  -4  862.54  160.09
   4   9  -4  768.22  156.95
  -4  -9  -4  776.53  147.56
   4   9  -4  630.28  139.53
  -4  -9   4  804.83  138.38
   4   9   4  932.69  140.70
  -4  -9   4  768.46  159.08
  -4  -9   4  587.30  159.29
  -4  -9   4  671.67  147.17
   5   9  -4   48.34   36.18
   5   9  -4  155.23   32.85
  -5  -9   4   78.38   43.27
  -5  -9   4   83.97   26.93
  -5  -9   4  105.45   33.85
  -5  -9   4  174.62   58.04
  -6  -9   4  752.60  172.92
  -6  -9   4  838.41  175.77
  -7  -9   4  197.75   76.31
  -7  -9   4  283.30   75.57
   5 -10  -4  561.54   84.75
   5 -10  -4  339.78   89.25
  -5  10   4  291.68   81.94
   4 -10  -4   27.64   40.32
   4 -10  -4   61.62   39.15
  -4  10   4   35.71   35.40
  -3  10  -4   36.09   37.22
   3 -10  -4   54.07   34.36
   3 -10  -4   -2.13   41.52
  -3  10   4   16.17   32.26
   3 -10   4   68.41   31.66
  -2  10  -4   97.37   35.88
   2 -10  -4   62.20   34.10
   2 -10  -4  119.48   45.89
   2 -10   4   47.99   26.43
  -2  10   4   69.06   33.29
   2 -10   4   87.61   32.01
  -2  10   4   10.81   35.58
   2 -10   4   30.83   39.62
   1 -10  -4  -24.51   30.68
   1 -10  -4   -6.42   46.29
  -1  10  -4  -21.91   30.63
   1 -10   4    9.79   38.87
   1 -10   4   20.27   32.29
  -1  10   4  -13.81   27.33
   1 -10   4   27.06   18.40
  -1  10   4  -30.65   35.04
   0  10  -4  410.73  105.54
   0 -10  -4  473.24  104.28
   0  10  -4  477.67   98.93
   0 -10   4  439.54   93.65
   0  10   4  593.35   98.17
   0 -10   4  463.96  111.64
   0 -10   4  753.76  121.80
   0 -10   4  517.67  104.97
   1  10  -4    5.08   26.13
   1  10  -4  -13.33   30.88
   1  10  -4    2.34   52.29
  -1 -10  -4   19.00   31.12
   1  10  -4  -10.87   27.72
  -1 -10   4   -3.63   55.20
   1  10   4  -12.02   31.94
  -1 -10   4   10.30   29.03
  -1 -10   4   -5.67   37.34
  -1 -10   4    5.21   13.61
   2  10  -4   30.95   30.14
   2  10  -4   58.73   31.00
   2  10  -4   20.76   26.82
  -2 -10  -4   59.45   31.30
   2  10  -4   38.88   45.94
  -2 -10  -4  130.53   48.64
  -2 -10   4   75.21   17.68
  -2 -10   4   47.33   28.47
  -2 -10   4   74.14   42.45
   2  10   4   97.94   34.09
  -2 -10   4   79.88   52.82
   3  10  -4   78.40   28.64
   3  10  -4   20.99   30.56
  -3 -10  -4   70.21   47.79
  -3 -10  -4  105.10   30.90
   3  10  -4   55.56   42.83
  -3 -10   4    9.33   50.09
  -3 -10   4  116.99   43.24
  -3 -10   4   28.20   17.89
  -3 -10   4   56.76   29.05
   3  10   4   15.04   33.20
  -4 -10  -4   31.25   52.84
   4  10  -4   29.53   45.26
   4  10  -4   20.00   27.31
  -4 -10  -4   40.55   31.67
   4  10  -4   43.80   28.30
  -4 -10   4    2.75   18.24
  -4 -10   4   77.78   51.74
  -4 -10   4   29.15   25.71
  -4 -10   4   35.10   41.73
   4  10   4  -16.14   33.53
   5  10  -4  364.84   70.10
  -5 -10  -4  477.98  102.64
   5  10  -4  363.44   79.03
  -5 -10   4  421.67   84.30
  -5 -10   4  232.91   71.85
  -5 -10   4  373.68   91.01
  -5 -10   4  242.82   66.83
   6  10  -4    7.87   31.90
  -6 -10   4  -20.82   49.11
  -6 -10   4   17.10   60.65
  -7 -10   4  237.20   78.28
  -7 -10   4  206.41   72.09
   6 -11  -4  197.76   63.20
   5 -11  -4   -2.99   42.40
   5 -11  -4  -96.59   51.40
  -5  11   4    4.23   44.05
   4 -11  -4  219.08   57.84
   4 -11  -4  185.23   66.51
  -4  11   4  240.41   58.39
   3 -11  -4   49.74   38.77
  -3  11  -4  139.84   43.23
   3 -11  -4  108.63   49.26
  -3  11   4  101.68   41.14
   3 -11   4   17.03   35.54
   2 -11  -4   54.05   55.03
  -2  11  -4   74.57   38.06
   2 -11  -4   61.18   39.21
  -2  11   4  143.55   41.76
  -2  11   4   61.68   45.62
   2 -11   4   87.88   48.44
   2 -11   4   27.50   37.40
   1 -11  -4  621.34  116.89
   1 -11  -4  540.63  108.75
  -1  11  -4  300.14  107.06
  -1  11   4  531.34  102.01
   1 -11   4  541.01  113.31
  -1  11   4  581.34  106.67
   1 -11   4  541.32  106.54
   0 -11  -4  -14.75   34.73
   0  11  -4  -21.10   36.92
   0  11  -4    6.30   32.12
   0  11   4   32.89   41.34
   0 -11   4  -29.84   35.40
   0 -11   4  -50.11   45.24
  -1 -11  -4  431.95   99.25
   1  11  -4  542.01   92.80
   1  11  -4  435.92  101.00
   1  11   4  458.82   94.52
  -1 -11   4  494.59  107.82
  -1 -11   4  372.29   99.30
  -2 -11  -4   36.07   52.42
   2  11  -4   43.33   37.27
   2  11  -4   65.80   33.04
  -2 -11  -4   52.22   36.75
   2  11  -4   77.05   34.60
   2  11  -4   40.38   51.57
   2  11   4  114.82   38.60
  -2 -11   4  111.23   47.38
  -2 -11   4   87.77   36.20
  -3 -11  -4   43.38   35.32
   3  11  -4   81.14   36.16
   3  11  -4   71.21   48.11
   3  11  -4   83.86   33.50
  -3 -11  -4   60.14   55.13
  -3 -11   4   72.78   32.83
   3  11   4  117.50   39.46
  -3 -11   4   71.60   47.20
  -4 -11  -4  252.52   77.43
   4  11  -4  155.08   68.06
   4  11  -4  176.18   52.31
   4  11  -4  225.17   52.15
  -4 -11  -4  208.24   55.51
  -4 -11   4  139.74   49.82
  -4 -11   4  203.11   41.98
  -4 -11   4  223.10   62.72
   4  11   4  242.31   52.93
  -4 -11   4  210.32   67.52
   5  11  -4  -17.98   34.54
  -5 -11  -4   24.24   70.26
   5  11  -4  -35.47   36.71
  -5 -11   4   -1.81   22.48
  -5 -11   4   68.80   58.81
   5  11   4   12.94   39.87
  -5 -11   4   33.51   47.93
  -5 -11   4   -2.30   31.97
   6  11  -4  120.44   38.14
  -6 -11   4   85.24   57.73
  -6 -11   4   86.18   39.12
  -6 -11   4  -28.48   67.10
  -7 -11   4   86.10   66.40
  -7 -11   4  101.99   69.94
   6 -12  -4    3.87   51.67
   5 -12  -4  -38.78   51.15
   5 -12  -4  102.82   52.13
  -5  12   4  101.40   46.14
   4 -12  -4   69.73   56.64
   4 -12  -4    2.97   44.29
  -4  12   4   17.42   43.20
  -3  12  -4  -35.23   38.83
   3 -12  -4  -46.53   43.32
   3 -12  -4   18.28   59.46
  -3  12   4   22.48   52.54
   3 -12   4    5.39   38.20
  -3  12   4  -16.32   44.52
   3 -12   4    2.62   50.67
   2 -12  -4   78.49   68.98
   2 -12  -4  104.50   53.71
  -2  12  -4  107.08   55.12
   2 -12   4  272.07   55.25
  -2  12   4  287.97   60.20
  -2  12   4  174.21   58.06
   2 -12   4  207.65   61.31
   1 -12  -4  -81.33   46.99
  -1  12  -4    3.88   40.04
   1 -12   4    2.80   40.46
  -1  12   4   14.84   43.22
   1 -12   4   23.96   50.91
  -1  12   4  -58.47   48.04
   0  12  -4  759.16  125.61
   0  12  -4  566.05  133.46
   0 -12  -4  672.44  133.88
   0 -12   4  623.93  142.06
   0  12   4  609.62  125.94
   0 -12   4  594.66  132.33
  -1 -12  -4  -15.94   37.38
   1  12  -4   36.58   36.32
  -1 -12  -4  -59.97   55.74
   1  12  -4   -8.50   43.56
  -1 -12   4  -39.40   50.98
   1  12   4 -125.17   47.10
  -1 -12   4  -10.67   39.91
  -2 -12  -4  192.65   72.97
   2  12  -4  192.19   50.70
   2  12  -4  185.81   53.20
  -2 -12  -4  174.43   55.21
  -2 -12   4  199.62   63.69
  -2 -12   4  172.98   53.79
   2  12   4  222.70   57.15
   3  12  -4  -13.49   36.65
  -3 -12  -4    2.66   35.77
   3  12  -4   -3.03   34.89
  -3 -12  -4   32.59   54.37
  -3 -12   4    2.41   33.99
   3  12   4    9.33   38.96
  -3 -12   4  -16.41   48.55
  -4 -12  -4  -50.38   39.90
  -4 -12  -4  -20.91   59.55
   4  12  -4  -50.15   37.14
   4  12   4   87.81   44.33
  -4 -12   4  -47.32   52.27
  -4 -12   4   16.72   32.73
   5  12  -4  -44.95   39.01
  -5 -12  -4    2.97   39.94
  -5 -12  -4   11.01   69.73
   5  12   4   91.48   43.43
  -5 -12   4  -81.20   55.08
  -5 -12   4  -14.91   35.88
   6  12  -4  -33.21   37.72
  -6 -12   4  -13.56   36.47
  -6 -12   4  -54.60   58.00
  -7 -12   4   -5.77   63.27
  -8 -12   4  -36.07   70.62
   6 -13  -4   61.42   62.73
  -6  13   4  -10.80   55.99
   5 -13  -4  -73.92   58.85
  -5  13   4  -15.12   52.32
   3 -13   4   38.17   41.07
   2 -13  -4  -27.97   50.77
  -2  13  -4   67.94   41.66
   2 -13   4    2.70   54.26
   2 -13   4  -15.01   42.73
  -2  13   4   23.69   56.40
  -1  13  -4   77.26   49.46
  -1  13  -4  161.73   53.13
   1 -13  -4   52.89   49.41
  -1  13   4  160.03   57.71
   1 -13   4  118.32   48.89
   1 -13   4   76.28   57.08
   0 -13  -4  -24.48   44.97
   0  13  -4  -11.86   42.81
   0  13  -4    6.76   50.14
   0 -13   4  -31.75   54.92
   0  13   4   35.04   46.24
   0 -13   4    6.10   39.69
   1  13  -4  102.18   49.61
  -1 -13  -4  239.69   53.16
   1  13  -4   33.84   47.65
  -1 -13   4  154.27   64.59
   1  13   4   44.30   52.16
  -1 -13   4  134.48   47.94
  -2 -13  -4  -20.57   42.63
   2  13  -4  -30.97   46.18
   2  13  -4   28.78   41.47
   2  13   4  -10.24   51.54
  -2 -13   4  -15.50   55.19
  -2 -13   4   -2.85   40.62
   3  13  -4   48.74   43.17
   3  13  -4   63.82   45.62
  -3 -13   4   69.14   57.32
  -3 -13   4    8.11   38.85
   4  13  -4  -65.56   45.18
  -4 -13   4   13.01   55.56
  -4 -13   4    2.66   39.15
  -5 -13  -4    3.80   84.22
   5  13  -4  -37.47   42.71
  -5 -13   4    2.71   37.87
  -5 -13   4  -26.85   58.73
   6  13  -4  -23.07   46.73
  -6 -13   4   46.29   38.95
  -6 -13   4   -8.47   60.70
  -7 -13   4  276.39   87.54
   6 -14  -4 -122.37   65.14
  -6  14   4  -46.88   63.02
   5 -14  -4    3.23   70.51
   5 -14  -4   -3.82   61.56
  -5  14   4   27.66   60.85
   4 -14  -4 -196.74   65.74
   4 -14  -4    7.21   55.24
  -4  14   4   53.47   54.26
  -4  14   4    5.18   75.86
  -3  14  -4  -42.20   54.19
   3 -14  -4   10.41   48.40
   3 -14  -4  -63.15   64.05
  -3  14   4  -42.84   68.88
  -3  14   4  -10.32   56.05
   3 -14   4  -52.61   64.10
  -2  14  -4   -4.97   52.47
   2 -14  -4   -3.20   73.81
   2 -14  -4   44.88   52.73
  -2  14   4   24.72   54.45
   2 -14   4   -2.95   61.37
  -2  14   4  -57.22   66.36
   1 -14  -4  137.61   57.96
  -1  14   4  261.87   63.75
   0 -14  -4  179.17   58.39
   0 -14  -4  106.66   80.87
   0  14   4  253.29   67.44
  -1 -14  -4   81.97   69.92
   1  14  -4   -3.56   56.99
  -1 -14  -4  134.72   51.58
   1  14   4   41.24   59.02
   1  14   4  129.71   53.96
   2  14  -4    3.50   52.91
  -2 -14  -4   39.07   48.27
  -2 -14  -4  -21.91   70.35
   2  14   4  240.36   54.68
  -2 -14   4   -3.18   46.91
   3  14  -4   -3.41   47.52
  -3 -14  -4  -19.27   67.13
  -3 -14  -4   42.13   49.30
   3  14   4  -19.15   54.16
  -3 -14   4   -3.02   44.80
  -4 -14  -4  -39.70   51.82
  -4 -14  -4  -20.68   76.72
   4  14   4  -23.45   55.49
  -5 -14  -4 -122.87   57.39
  -5 -14  -4   -3.97   86.75
   5  14   4   -4.15   58.86
  -6 -14  -4   15.97  117.29
  -7 -14   4  112.09   75.27
  -8 -14   4   47.67   76.23
   6 -15  -4   79.74   78.16
  -6  15   4  210.87   78.77
   5 -15  -4  -42.41   74.49
   5 -15  -4  -20.85   62.39
  -5  15   4  -18.27   60.40
   4 -15  -4   96.01   76.49
   4 -15  -4  -23.54   63.34
  -4  15   4  -65.34   64.80
  -4  15   4  -63.46   73.80
  -3  15  -4    5.76   61.68
   3 -15  -4  147.69   72.79
   3 -15  -4   30.19   58.75
  -3  15   4  -64.15   77.29
   3 -15   4   38.34   51.89
  -3  15   4  -11.59   59.87
   3 -15   4   -3.36   66.23
   2 -15  -4  -76.03   59.74
  -2  15  -4    8.45   59.53
  -2  15  -4    5.45   62.35
   2 -15   4  -93.50   63.41
   2 -15   4   10.94   50.97
  -2  15   4  -78.20   70.02
  -1  15  -4   -5.24   58.90
  -1  15  -4   17.02   59.32
   1 -15  -4  -45.44   55.95
   1 -15   4  -15.51   63.91
  -1  15   4  -18.31   69.22
   1 -15   4  -59.33   52.65
   0  15  -4   -4.97   55.07
   0  15  -4   61.65   56.73
   0 -15  -4   81.71   55.50
   0 -15  -4  145.23   79.82
   0  15   4   17.77   63.36
   0  15   4  -26.89   60.56
   0 -15   4  -11.26   53.11
   0 -15   4    3.12   67.84
  -1 -15  -4    3.64   52.23
   1  15  -4   15.81   57.92
  -1 -15  -4   37.34   75.39
   1  15  -4   61.95   55.52
   1  15   4   29.89   61.15
  -1 -15   4  -43.56   66.40
   1  15   4   10.45   58.45
  -1 -15   4   77.31   54.52
   2  15  -4  -11.75   55.83
  -2 -15  -4   -3.42   79.28
   2  15  -4   23.50   53.51
  -2 -15  -4   25.22   51.45
  -2 -15   4    9.09   67.45
  -2 -15   4  -98.49   48.83
   2  15   4    4.26   60.16
   3  15  -4   26.75   56.78
  -3 -15  -4   82.39   52.48
   3  15  -4   -4.61   47.93
  -3 -15  -4  -48.87   76.55
   3  15   4   12.74   57.57
  -3 -15   4  -24.68   69.32
  -3 -15   4  -57.49   50.57
   4  15  -4  -46.70   55.97
  -4 -15  -4  -63.61   82.73
  -4 -15  -4  112.47   53.92
   4  15  -4    4.69   52.59
  -4 -15   4  -36.07   48.44
   4  15   4   34.46   56.39
  -4 -15   4   44.13   66.82
  -5 -15  -4   -3.72   49.62
  -5 -15  -4   54.95   89.86
   5  15  -4  -34.71   55.07
   5  15   4   45.42   58.51
  -5 -15   4   98.95   71.80
  -5 -15   4  -26.14   48.58
   6  15  -4   96.01   57.30
  -6 -15  -4  146.41  118.02
  -6 -15   4   95.18   71.72
  -6 -15   4   26.94   50.69
   7  15  -4   -8.50   53.84
  -7 -15   4  -85.94   80.21
  -8 -15   4   35.72   86.36
   6 -16  -4  -66.86   74.85
  -6  16   4  -91.03   72.58
   5 -16  -4 -241.30   65.98
   5 -16  -4  115.94   82.94
  -5  16   4  208.26  106.43
  -5  16   4   13.47   73.41
   4 -16  -4  134.89   76.70
   4 -16  -4   21.26   60.18
  -4  16   4  -19.41   89.51
  -4  16   4   85.77   69.13
   3 -16  -4  149.51   89.05
   3 -16  -4    8.31   60.05
  -3  16  -4   -6.29   62.94
  -3  16   4  -29.58   86.91
   3 -16   4    3.81   52.63
   3 -16   4  -47.54   75.14
  -3  16   4  136.57   75.84
   2 -16  -4    4.17   63.48
  -2  16  -4    5.98   59.37
  -2  16  -4  -41.63   67.02
   2 -16   4   51.42   60.65
  -2  16   4  -43.39   84.55
   2 -16   4  109.01   76.77
   1 -16  -4   25.02   58.00
  -1  16  -4    5.78   64.16
  -1  16  -4  -32.73   68.69
  -1  16   4   72.25   73.37
   1 -16   4   43.95   71.59
   1 -16   4   80.57   62.88
   0 -16  -4  102.08   62.73
   0 -16  -4   11.14   79.78
   0  16  -4   11.14   66.77
   0  16  -4  -40.88   69.74
   0  16   4   59.66   76.96
   0 -16   4  -54.21   72.10
   0  16   4   85.77   73.39
   0 -16   4    4.13   58.18
  -1 -16  -4    4.04   54.55
  -1 -16  -4    7.37   84.04
   1  16  -4   44.25   65.41
   1  16  -4  -26.79   62.29
   1  16   4  -52.59   65.69
   1  16   4   12.05   72.33
  -1 -16   4  -52.92   61.01
  -1 -16   4  -13.60   71.44
   2  16  -4   87.22   67.32
   2  16  -4    5.32   61.78
  -2 -16  -4   11.93   63.07
  -2 -16  -4  -22.52   83.94
   2  16   4    6.12   72.72
  -2 -16   4    6.66   71.57
   2  16   4  -90.72   72.27
  -2 -16   4  -23.34   55.47
   3  16  -4    5.34   58.54
  -3 -16  -4   53.24   86.96
  -3 -16  -4   19.79   53.00
   3  16  -4  -51.13   62.59
  -3 -16   4   56.35   56.35
  -3 -16   4   -3.34   73.27
   3  16   4   56.52   63.23
  -4 -16  -4    3.99   54.63
   4  16  -4   21.61   61.02
  -4 -16  -4  -48.68   90.50
   4  16  -4    5.41   59.54
   4  16   4  -80.89   64.16
  -4 -16   4   -6.82   72.25
  -4 -16   4  -21.85   50.05
   5  16  -4   -5.69   65.37
  -5 -16  -4  -68.61   93.96
   5  16  -4    4.29   63.49
  -5 -16  -4   44.77   54.63
  -5 -16   4    3.60   51.08
  -5 -16   4  -20.95   80.61
   5  16   4  -44.86   63.52
   6  16  -4 -106.22   63.37
  -6 -16  -4  -11.31  135.50
   6  16   4  -26.74   71.83
  -6 -16   4  -18.32   56.12
  -6 -16   4   81.66   83.17
   7  16  -4   18.59   59.87
  -7 -16   4  -95.70   82.94
  -8 -16   4   45.46   79.64
   6 -17  -4  -22.29   77.58
  -6  17   4    7.71   76.51
  -6  17   4 -121.45  135.60
   5 -17  -4   54.90   87.88
   5 -17  -4    4.94   76.22
  -5  17   4    7.47   79.75
  -5  17   4   47.95  105.53
   4 -17  -4   32.86   87.30
   4 -17  -4   -4.61   68.16
  -4  17   4    7.35   80.38
  -4  17   4 -144.48  102.61
  -3  17  -4    6.87   69.70
   3 -17  -4  105.25   65.77
  -3  17  -4  -83.57   83.15
   3 -17   4   -7.96   83.63
   3 -17   4   41.44   60.69
  -3  17   4    7.29   68.70
  -3  17   4 -117.20   99.90
  -2  17  -4   13.13   73.13
   2 -17  -4  -95.77   69.32
  -2  17  -4   96.58   70.96
   2 -17   4  -81.19   65.17
   2 -17   4    7.65   80.81
  -2  17   4   48.49   95.31
  -1  17  -4   61.03   78.01
  -1  17  -4    6.40   68.77
   1 -17  -4   22.76   69.07
   1 -17  -4  127.35   98.83
  -1  17   4   -7.00   83.45
  -1  17   4   46.29   82.24
   1 -17   4  180.38   81.57
   1 -17   4   66.49   67.36
   0 -17  -4  443.39   99.18
   0 -17  -4   -4.48   68.01
   0  17  -4  104.42   77.27
   0  17  -4  137.15   77.21
   0 -17   4   36.12   70.25
   0 -17   4  124.01   88.88
   0  17   4  -77.93   79.60
   0  17   4   14.00   84.47
  -1 -17  -4  142.64   75.38
   1  17  -4   44.30   77.09
  -1 -17  -4  218.78   98.84
   1  17  -4  114.46   79.45
   1  17   4  122.95   83.34
  -1 -17   4  427.80   97.56
  -1 -17   4  263.53   79.64
   1  17   4   -7.00   87.27
  -2 -17  -4   64.60   96.27
   2  17  -4   58.09   70.51
  -2 -17  -4   -8.76   64.88
   2  17  -4  -30.08   67.81
  -2 -17   4 -115.87   67.07
   2  17   4    7.00   79.67
   2  17   4  101.73   71.12
  -2 -17   4 -116.68   90.06
  -3 -17  -4   13.10   61.90
   3  17  -4   12.26   70.49
   3  17  -4   33.30   66.06
  -3 -17  -4 -116.53   98.01
   3  17   4   -7.51   83.39
   3  17   4 -156.92   75.43
  -3 -17   4   -4.16   64.03
  -3 -17   4  -18.21   81.45
   4  17  -4  -76.46   70.60
  -4 -17  -4  158.58   98.57
   4  17  -4    6.21   66.82
  -4 -17  -4  -79.43   58.61
  -4 -17   4  -59.27   82.89
  -4 -17   4  108.86   61.41
   4  17   4   -5.27   70.81
  -5 -17  -4    4.94  112.61
   5  17  -4   38.06   66.38
   5  17  -4  -97.18   77.89
  -5 -17  -4   -4.46   62.29
  -5 -17   4  -60.06   86.19
  -5 -17   4   19.86   58.92
   5  17   4  -32.92   70.77
   6  17  -4   63.55   86.97
   6  17  -4  -19.60   65.06
  -6 -17  -4 -121.40  127.07
  -6 -17   4  -54.26   90.66
   6  17   4   75.96   72.68
  -6 -17   4   12.02   56.96
   7  17  -4   -5.12   68.59
  -7 -17   4  -11.80   81.33
   6 -18  -4 -247.52   92.55
  -6  18   4 -366.78   99.47
  -6  18   4 -164.18  151.25
   5 -18  -4  -27.67   97.41
   5 -18  -4  -96.33   79.89
  -5  18   4 -199.72   86.66
  -5  18   4   44.52  130.32
   4 -18  -4 -283.88  102.00
   4 -18  -4   86.15   74.52
  -4  18   4  -47.61  120.60
  -4  18   4   -8.18   90.54
  -3  18  -4  -58.86   80.70
   3 -18  -4    4.99   79.08
  -3  18  -4   37.64   78.70
  -3  18   4  -43.46  106.88
   3 -18   4 -138.74   69.75
   2 -18  -4    4.98   74.72
  -2  18  -4   50.66   78.38
  -2  18  -4   82.80   79.72
   2 -18   4  -62.38   88.09
  -2  18   4   13.49   95.09
   2 -18   4   36.89   64.61
  -1  18  -4  110.04   80.23
   1 -18  -4  -49.28  101.21
  -1  18  -4 -141.32   80.19
   1 -18  -4 -322.05   80.77
  -1  18   4    7.91   76.60
   1 -18   4   53.26   76.95
  -1  18   4  -19.47   93.02
   1 -18   4  -91.84   87.98
   0  18  -4   -6.97   77.24
   0  18  -4  108.97   80.82
   0 -18  -4    4.92   73.95
   0 -18  -4   70.01  101.73
   0  18   4   12.36   82.54
   0  18   4   -7.94   85.09
   0 -18   4  -55.19   86.81
   0 -18   4   19.72   78.21
  -1 -18  -4  -19.66   71.65
  -1 -18  -4    4.36   95.60
   1  18  -4 -125.57   84.33
   1  18  -4  -13.64   79.75
   1  18   4 -160.23   94.42
  -1 -18   4   98.93   86.29
  -1 -18   4    9.75   71.52
   1  18   4  -53.95   82.23
   2  18  -4    6.81   74.98
   2  18  -4  -31.96   83.45
  -2 -18  -4   38.92   72.48
  -2 -18  -4   87.78  101.73
   2  18   4   77.77   87.12
  -2 -18   4   -3.98   87.73
   2  18   4   -8.13   97.34
  -2 -18   4  -70.79   73.63
   3  18  -4    6.97   74.23
  -3 -18  -4  -91.61  104.45
  -3 -18  -4   19.32   68.08
   3  18  -4  -79.46   76.23
   3  18   4  227.21   80.01
   3  18   4    8.65  102.10
  -3 -18   4   73.66   63.31
  -3 -18   4  -74.82   89.62
   4  18  -4  -52.86   81.01
  -4 -18  -4    4.83  107.51
   4  18  -4   -7.21   82.70
  -4 -18  -4    4.89   64.87
  -4 -18   4  -43.98   88.69
  -4 -18   4   71.24   60.15
   4  18   4  -29.46   71.89
  -5 -18  -4 -182.71  126.05
  -5 -18  -4 -285.49   74.62
   5  18  -4  -31.64   76.93
   5  18  -4   14.99   88.64
  -5 -18   4  100.87   64.35
  -5 -18   4  -56.84   84.67
   5  18   4   54.54   81.44
   6  18  -4    8.01   86.21
  -6 -18  -4 -150.19  160.58
   6  18  -4  -10.86   74.47
   6  18   4  205.37   86.54
  -6 -18   4   71.40   99.37
  -6 -18   4 -197.91   65.51
   7  18  -4    5.66   76.08
   5 -19  -4  -11.64   83.25
   5 -19  -4 -141.69  104.35
  -5  19   4 -206.25  153.79
  -5  19   4   27.91  103.49
   4 -19  -4 -252.28   99.51
   4 -19  -4  -89.05   82.80
  -4  19   4   17.40  126.88
  -4  19   4 -173.81   99.58
  -3  19  -4   17.47   85.93
  -3  19  -4 -173.83   95.15
   3 -19  -4 -217.98   86.51
   3 -19   4 -139.54   67.95
  -3  19   4   -7.99  117.21
   2 -19  -4  505.16  104.47
  -2  19  -4    5.93   93.10
  -2  19  -4    7.99   95.65
   2 -19   4  230.02  112.52
  -2  19   4   98.52  124.29
   2 -19   4  277.73   87.93
  -1  19  -4    7.82   84.21
   1 -19  -4  118.43   91.85
  -1  19  -4   53.56   95.10
  -1  19   4    8.95  107.68
  -1  19   4  130.16  107.82
   1 -19   4   82.51   95.91
   1 -19   4   -5.26   79.52
   0  19  -4    7.78   86.60
   0  19  -4 -144.41   88.19
   0 -19   4 -226.34   77.74
   0 -19   4  -25.39   87.78
   0  19   4   55.20   97.96
   0  19   4   90.12  114.11
   1  19  -4    6.01   89.95
  -1 -19  -4    5.42   84.46
   1  19  -4   85.15   92.16
  -1 -19  -4  440.80  115.48
   1  19   4  -73.73  112.05
   1  19   4  128.05  104.01
  -1 -19   4  -38.53   94.99
  -1 -19   4  -37.12   81.15
   2  19  -4 -200.59   95.48
   2  19  -4  -17.66  101.35
   2  19   4  232.40  101.26
  -2 -19   4  147.36  106.15
   2  19   4    9.52  119.23
  -2 -19   4  181.55   82.79
   3  19  -4   31.75   95.79
   3  19  -4   23.66   87.77
  -3 -19   4 -228.61  106.89
   3  19   4 -413.24  120.86
  -3 -19   4   25.25   78.45
   3  19   4  -38.88   89.19
  -4 -19  -4    5.32  116.66
  -4 -19  -4   92.29   76.71
   4  19  -4    8.32  100.04
   4  19  -4   99.09   88.99
   4  19   4 -136.54  140.28
   4  19   4   13.12   92.38
  -4 -19   4  -44.31   70.28
  -4 -19   4   90.13   97.17
   5  19  -4   -8.73   97.95
  -5 -19  -4 -171.16  134.44
  -5 -19  -4    5.43   82.38
   5  19  -4   29.19   84.39
   5  19   4  -47.01   94.19
  -5 -19   4  -53.48  102.99
  -5 -19   4    9.68   71.30
  -6 -19  -4    7.10  157.62
   6  19  -4   12.02   80.31
   6  19  -4  -55.18  110.75
  -6 -19   4  -80.99  102.56
   6  19   4   56.64   89.54
  -6 -19   4  -24.11   72.55
  -4  20   4  -28.66  138.89
  -3  20  -4  -56.30   89.02
  -3  20  -4    9.14   96.21
   3 -20  -4 -309.12   96.52
   3 -20   4  -88.36   75.48
  -3  20   4   53.11  136.08
   2 -20  -4    5.20  109.70
  -2  20  -4  139.74   93.85
  -2  20  -4    8.87   97.91
   2 -20  -4   35.35   87.85
  -2  20   4   10.31  108.00
   2 -20   4  180.70  106.31
  -2  20   4  118.37  132.21
   2 -20   4    5.49   85.94
  -1  20  -4  -32.17   93.09
   1 -20  -4   17.61   80.30
  -1  20  -4    8.69   93.92
   1 -20  -4    5.21  115.37
  -1  20   4    8.07  113.38
   1 -20   4   37.88   97.64
   1 -20   4   74.26   89.29
  -1  20   4  153.25  120.18
   0 -20  -4  125.55  116.98
   0  20  -4   39.58  102.51
   0  20  -4   -8.70   98.11
   0 -20  -4    5.92   91.59
   0  20   4  -10.25  110.65
   0 -20   4  110.78   90.33
   0 -20   4  -92.13  104.46
   0  20   4   61.69  114.30
  -1 -20  -4   77.08   93.07
   1  20  -4   -8.77   98.47
   1  20  -4   85.71  101.77
  -1 -20  -4  -30.94  112.11
  -1 -20   4 -138.76   80.67
   1  20   4  -68.40  106.42
   1  20   4   10.54  118.59
  -1 -20   4    9.18  105.50
  -2 -20  -4    5.93   84.10
  -2 -20  -4    5.22  116.59
   2  20  -4   44.07   98.83
   2  20  -4  155.97   95.68
   2  20   4  -11.10  125.00
  -2 -20   4   65.18  102.31
   2  20   4   59.19  100.73
  -2 -20   4 -102.85   80.75
  -3 -20  -4 -125.04  118.70
   3  20  -4   98.66   98.46
  -3 -20  -4   23.74   82.27
   3  20  -4   -9.06   97.39
  -3 -20   4 -127.00   81.85
   3  20   4   14.52   93.98
   3  20   4   35.39  142.44
  -3 -20   4 -155.73  109.80
  -4 -20  -4 -228.53   89.10
   4  20  -4  180.38  101.60
  -4 -20  -4    5.78  127.21
   4  20  -4   -9.51   99.82
  -4 -20   4    9.40  109.06
   4  20   4  -43.91   96.03
  -4 -20   4    5.41   73.87
  -5 -20  -4 -125.88   79.18
   5  20  -4  103.34   92.23
   5  20  -4   10.11  115.60
  -5 -20   4  -47.98   76.03
   5  20   4   59.88   98.92
  -5 -20   4  -47.64  109.47
   6  20  -4  -10.70  117.63
   1  21  -4  -64.51  103.75
  -1 -21   4 -138.66   87.43
   2  21  -4   35.90  111.58
  -2 -21   4 -175.10   87.01
   3  21  -4  202.21  108.14
  -3 -21   4   -6.10   83.09
   4  21  -4  -35.52  102.52
  -4 -21   4    5.93   83.44
   0   0  -5    4.46   10.72
   0   0   5   -0.95   14.35
   0   0   5   -1.67    6.17
   0  -1  -5  259.78   50.03
   1   0  -5  246.27   49.64
   0   1  -5  270.62   50.15
  -1   0   5  204.49   43.83
   0   1   5  241.87   45.57
  -1   0   5  242.93   51.36
   0  -1   5  203.88   53.66
   1  -1  -5    3.71    3.97
   1  -1  -5    0.63    5.97
   1   1  -5    6.42    9.56
   1  -1  -5    3.20    8.14
  -1   1   5   -0.87    2.93
  -1   1   5    0.86    3.76
  -1   1   5    4.62   11.32
  -1  -1   5   -0.76   13.62
   1  -2  -5  296.65   67.59
   1  -2  -5  306.61   62.40
   1  -2  -5  382.87   67.85
  -2  -1   5  239.14   68.27
  -1   2   5  294.87   69.77
  -1   2   5  332.78   58.00
  -1   2   5  297.55   56.90
   0  -2  -5   -5.03    8.37
   0  -2  -5    0.64    6.88
   0   2  -5   -2.21   13.97
   2   0  -5    1.39    6.92
   0  -2   5   -4.49   17.10
   0   2   5    2.08    4.38
  -2   0   5    2.20   13.72
   0   2   5   -2.09    6.58
   0  -2   5   -5.64    7.25
  -2   0   5   -3.06    3.90
   2  -1  -5  322.37   64.83
   2  -1  -5  342.87   68.90
   1   2  -5  313.51   69.78
  -2   1   5  327.56   65.44
  -1  -2   5  315.92   72.02
  -2   1   5  289.14   70.39
  -2   1   5  365.49   59.82
  -1  -2   5  347.96   65.06
   2   2  -5   -0.90    9.35
   2  -2  -5    0.54    6.50
   2   2  -5    0.58    5.77
   2  -2  -5   -1.02    8.47
   2  -2  -5   -2.89    5.77
   2   2  -5    1.93    3.62
  -2  -2   5   -1.80   16.07
  -2  -2   5    3.74    3.92
  -2   2   5    1.78    3.42
  -2  -2   5    4.75    5.69
  -2  -2   5    5.97    5.56
  -2   2   5    2.88    5.38
  -2   2   5    1.63   12.76
   2  -3  -5   91.19   18.09
   2  -3  -5   71.00   19.71
   2  -3  -5   61.11   16.90
  -2   3   5   89.22   14.55
  -2   3   5   74.47   17.09
  -3  -2   5   58.92   25.29
  -2   3   5   53.91   20.39
   1  -3  -5  289.20   61.48
   1  -3  -5  318.99   62.63
  -3  -1   5  238.47   53.51
  -1   3   5  257.53   53.54
  -3  -1   5  350.77   64.17
  -1   3   5  345.75   63.86
   0  -3  -5   12.98   12.22
   3   0  -5    6.88    7.96
   0   3  -5   -1.23   18.00
   0  -3  -5   30.66    9.00
   0  -3   5   13.35   22.24
   0  -3   5   14.78    8.22
   0   3   5    9.23    7.03
  -3   0   5   -1.12    4.67
  -3   0   5   14.12   14.81
   1   3  -5  309.45   56.92
  -1  -3  -5  331.08   61.03
  -1  -3  -5  278.94   59.06
   1   3  -5  290.07   61.38
  -1  -3   5  313.04   60.08
  -3   1   5  279.48   52.99
  -3   1   5  137.26   61.99
  -1  -3   5  303.29   64.26
   1   3   5  316.20   52.25
  -1  -3   5  273.20   53.42
  -1  -3   5  281.15   56.46
   2   3  -5   67.43   15.97
   3  -2  -5   88.12   18.87
   2   3  -5  113.82   22.43
  -2  -3   5   73.75   16.09
  -2  -3   5   92.41   19.27
  -2  -3   5   58.08   26.17
  -2  -3   5   78.34   16.91
   3  -3  -5   11.31   11.35
   3  -3  -5   14.59   13.11
   3   3  -5    1.07   12.28
  -3   3   5    7.29    9.54
  -3  -3   5   23.67   23.77
  -3  -3   5   16.45    7.35
  -3  -3   5    6.41   10.74
   3  -4  -5  793.60  176.06
   3  -4  -5  700.11  164.19
   2  -4  -5  298.34   65.85
   2  -4  -5  288.25   70.56
  -2   4   5  375.03   69.60
  -4  -2   5  297.47   72.91
  -2   4   5  356.87   66.25
   1  -4  -5 1714.44  319.14
   1  -4  -5 1521.60  296.95
   4   1  -5 1646.77  317.46
  -1   4   5 1375.92  278.05
   4   0  -5   -1.02   11.45
   0  -4  -5    2.92   16.12
   0   4  -5   -1.09    8.09
   0  -4  -5   -9.62   10.07
   0   4  -5   17.74   22.30
   0  -4   5   13.12   26.07
   0  -4   5   -3.11   10.56
   0   4   5   -6.45    9.76
  -4   0   5   -2.23    5.93
   0  -4   5   -4.33    9.47
   0  -4   5    5.53   11.52
   1   4  -5 1305.86  304.94
  -1  -4  -5 1589.62  297.83
   1   4  -5 1494.69  290.78
  -1  -4  -5 1307.30  303.07
  -1  -4   5 1531.71  287.45
   1   4   5 1603.37  264.77
  -1  -4   5 1296.31  313.72
   2   4  -5  271.80   60.51
   2   4  -5  372.03   70.30
  -2  -4   5  324.38   65.10
  -2  -4   5  331.39   60.51
  -2  -4   5  376.52   73.73
  -2  -4   5  309.80   70.28
   3   4  -5 1102.81  177.68
  -3  -4   5 1093.93  205.59
  -3  -4   5  908.37  204.83
  -3  -4   5  913.97  195.95
   4   4  -5   -6.39   16.60
  -4  -4   5    9.16    9.32
  -4  -4   5    0.85   15.71
   5   4  -5   30.05   19.06
   4  -5  -5   -9.85   20.38
  -5  -4   5   10.90   10.85
  -5  -4   5   -3.01   35.85
  -4   5   5   -4.08   18.19
   5   3  -5  181.36   39.70
  -5  -3   5  149.70   33.00
   1  -5  -5   -1.05   15.96
  -1   5  -5   55.76   16.49
  -1   5   5   -1.16   15.92
   1  -5   5   53.35   16.96
   0   5  -5  201.52   40.59
   0   5  -5  240.58   49.68
   0  -5   5  229.34   43.10
   0  -5   5  160.67   37.87
   0  -5   5  148.37   39.95
   0  -5   5  195.16   53.62
   1   5  -5  112.45   27.06
  -1  -5   5   87.81   17.45
  -1  -5   5  103.43   33.97
  -1  -5   5   69.15   21.71
  -1  -5   5   70.90   18.53
   2   5  -5  105.70   30.90
   2   5  -5  111.13   21.97
  -2  -5  -5  130.93   30.19
  -2  -5   5   67.54   22.74
  -2  -5   5  144.92   36.68
  -2  -5   5   86.12   27.03
   3   5  -5  174.75   34.31
  -3  -5   5  174.32   40.77
  -3  -5   5  176.59   36.60
   4   5  -5    1.38   18.88
   4   5  -5    1.08   12.85
  -4  -5   5    4.92   10.57
  -4  -5   5   -1.40   33.17
  -4  -5   5   19.61   18.14
   5   5  -5  -14.35   21.82
  -5  -5   5   25.90   39.72
  -5  -5   5   84.69   23.96
  -5  -5   5  -19.84   12.53
   5  -6  -5   30.03   30.83
  -6  -5   5   17.90   43.79
   4  -6  -5  205.23   41.46
   4  -6  -5  164.49   46.01
  -4   6   5  160.96   42.50
   3  -6  -5 1288.50  269.20
   3  -6  -5 1519.90  284.59
   2  -6  -5   13.65   18.56
   2  -6  -5   17.50   23.19
  -2   6   5    3.29   15.84
   1  -6  -5  287.57   58.09
   1  -6  -5  310.64   53.12
  -1   6   5  249.18   50.23
   1  -6   5  222.94   51.60
   0  -6  -5    7.95   25.74
   0   6  -5   11.97   31.74
   0  -6  -5    3.77   17.54
   0  -6   5    6.06   34.91
   0  -6   5   27.58   13.47
   0   6   5   16.47   16.60
  -1  -6  -5  218.89   56.73
   1   6  -5  226.31   56.33
  -1  -6  -5  244.46   50.37
   1   6   5  333.72   47.74
  -1  -6   5  252.95   49.72
  -1  -6   5  181.88   62.63
  -2  -6  -5    1.44   25.23
  -2  -6  -5   44.13   18.83
   2   6  -5   -9.62   14.48
   2   6   5   32.32   16.48
  -2  -6   5   17.38   12.75
   3   6  -5 1480.34  288.96
   3   6   5 1315.21  260.52
  -3  -6   5 1554.51  256.63
  -3  -6   5 1540.13  276.30
   4   6  -5  185.64   44.78
  -4  -6   5  192.85   54.80
  -4  -6   5  178.44   36.02
   5   6  -5   -6.79   24.27
  -5  -6   5   -1.33   24.97
  -5  -6   5   30.89   45.16
  -5  -6   5    1.25   14.40
   6   6  -5  -16.08   26.47
  -6  -6   5   30.97   47.59
   5  -7  -5    4.32   31.65
  -5   7   5   38.41   28.11
   4  -7  -5   71.10   33.82
   4  -7  -5   74.31   38.98
  -4   7   5   44.54   32.24
   3  -7  -5   13.61   27.83
   3  -7  -5    8.26   21.64
  -3   7   5   11.15   20.93
   2  -7  -5  110.78   33.87
   2  -7  -5  102.97   28.35
  -2   7   5   50.27   24.50
  -2   7   5   82.45   27.19
  -1   7  -5   -8.66   20.40
   1  -7  -5   -2.99   21.48
   1  -7  -5    2.97   27.96
   1  -7   5   20.09   20.58
  -1   7   5   11.68   21.08
   1  -7   5  -12.62   24.79
   0   7  -5   17.58   19.52
   0  -7  -5   19.14   21.70
   0  -7  -5  -12.22   32.75
   0   7   5  -24.27   21.03
   0  -7   5   35.82   20.43
   0  -7   5   36.79   24.64
  -1  -7  -5   -8.01   29.42
   1   7  -5   -3.34   17.55
  -1  -7  -5   16.34   19.04
   1   7  -5   50.59   18.81
  -1  -7   5    6.27   23.47
   1   7   5  -19.64   19.35
  -1  -7   5    9.43   17.92
   2   7  -5   61.33   22.61
   2   7  -5   90.83   28.33
   2   7  -5  163.43   23.56
  -2  -7  -5   -1.64   34.58
  -2  -7  -5   69.97   25.81
  -2  -7   5  133.44   24.29
  -2  -7   5  127.18   31.39
   2   7   5   49.46   23.82
  -2  -7   5   48.10   19.71
   3   7  -5    8.82   21.82
  -3  -7  -5    7.25   23.49
   3   7  -5   49.01   17.92
   3   7  -5  -11.71   30.35
  -3  -7   5  -28.68   24.55
   3   7   5   42.36   21.20
  -3  -7   5    1.47   40.24
  -3  -7   5   -6.09   11.96
  -3  -7   5   -1.24   16.66
  -4  -7   5  127.72   32.74
  -4  -7   5   78.55   25.21
   5   7  -5    5.44   25.79
   5   7  -5   37.47   21.80
  -5  -7   5   12.11   14.55
  -5  -7   5   51.05   29.65
  -5  -7   5   34.20   47.26
   6   7  -5   -2.13   30.68
  -6  -7   5    8.09   51.34
  -6  -7   5    7.15   33.23
   5  -8  -5  -16.05   28.20
   5  -8  -5   -5.66   34.27
  -5   8   5   13.04   30.36
   4  -8  -5    2.00   26.23
   4  -8  -5  -12.08   31.40
  -4   8   5   17.43   27.38
   3  -8  -5   44.84   28.92
   3  -8  -5   39.51   35.12
  -3   8   5    7.57   26.15
   2  -8  -5   32.74   26.71
   2  -8  -5   77.05   35.63
  -2   8  -5   -2.69   26.68
  -2   8   5   65.26   21.00
   2  -8   5   -5.28   28.63
  -2   8   5   30.50   25.71
   1  -8  -5  225.49   52.16
   1  -8  -5  165.09   42.64
  -1   8  -5  140.73   42.97
  -1   8   5   23.24   36.09
  -1   8   5   52.89   37.40
   0  -8  -5   61.21   27.05
   0  -8  -5   39.73   41.88
   0   8  -5   -8.96   23.56
   0  -8   5   58.15   31.54
   0   8   5   18.76   23.25
   0  -8   5   18.16   40.21
   2   8  -5  -50.87   27.07
   2   8  -5    5.00   20.81
   2   8  -5  -21.00   43.87
  -2  -8  -5   49.43   23.30
  -2  -8   5    4.22   17.18
  -2  -8   5   23.41   22.67
   2   8   5   82.29   25.43
  -2  -8   5  -90.22   49.49
   3   8  -5    1.58   24.48
  -3  -8  -5   69.95   26.39
   3   8  -5   25.52   35.09
   3   8  -5   82.35   22.51
  -3  -8   5   18.69   30.41
  -3  -8   5   64.88   42.35
   3   8   5   12.43   26.09
  -3  -8   5   29.00   14.01
  -3  -8   5   24.31   21.16
   4   8  -5    6.58   21.78
   4   8  -5    1.70   26.08
  -4  -8   5   31.38   31.19
  -4  -8   5   22.71   13.82
  -4  -8   5  -57.89   44.44
  -4  -8   5   20.34   21.66
   5   8  -5   44.42   24.84
   5   8  -5   30.90   29.61
  -5  -8   5   33.06   17.02
  -5  -8   5   16.57   34.12
  -5  -8   5   76.47   54.87
  -5  -8   5   15.29   25.08
   6   8  -5  234.05   57.75
  -6  -8   5  218.93   59.40
  -6  -8   5  194.81   72.25
  -7  -8   5  241.47   78.84
   6  -9  -5  102.42   47.88
   5  -9  -5  434.87   95.20
   5  -9  -5  501.28   89.66
  -5   9   5  358.16   90.30
   4  -9  -5  -11.06   29.05
   4  -9  -5    7.65   37.69
  -4   9   5   35.36   33.28
   3  -9  -5   90.74   32.10
   3  -9  -5   38.69   37.57
  -3   9   5   42.70   30.72
   2  -9  -5  -17.11   38.87
  -2   9  -5   18.36   27.17
   2  -9  -5   12.33   28.72
   2  -9   5   62.81   33.77
   2  -9   5    9.90   27.27
  -2   9   5   16.50   29.02
   2  -9   5  -19.99   28.60
  -2   9   5   44.22   25.80
  -1   9  -5  -34.27   24.93
   1  -9  -5    1.99   28.37
   1  -9  -5   -9.73   38.83
   1  -9   5  -16.19   25.94
   1  -9   5   15.01   19.11
   1  -9   5   35.00   31.80
  -1   9   5    2.39   24.90
  -1   9   5   13.30   27.26
   0   9  -5   83.97   31.95
   0   9  -5  124.29   58.45
   0  -9  -5   83.52   30.38
   0  -9  -5  123.22   43.32
   0  -9   5   58.50   30.62
   0  -9   5  141.59   36.42
   0  -9   5   34.54   21.23
   0   9   5   69.01   30.19
   0  -9   5  -19.23   50.18
  -1  -9  -5    9.85   41.55
   1   9  -5  -20.39   22.90
   1   9  -5   12.93   47.00
  -1  -9  -5   43.61   26.49
   1   9  -5   59.37   27.46
  -1  -9   5  -32.75   33.63
  -1  -9   5    8.24   14.78
   1   9   5  -17.17   26.49
  -1  -9   5    1.81   25.39
  -1  -9   5  -49.90   53.36
   2   9  -5  -12.66   44.76
   2   9  -5   11.55   26.21
   2   9  -5   25.54   20.45
  -2  -9  -5    9.75   25.87
   2   9  -5   -7.21   22.55
  -2  -9   5   11.94   24.13
   2   9   5   58.22   28.02
  -2  -9   5   -6.75   48.39
  -2  -9   5   19.54   32.45
  -2  -9   5   -2.22   14.45
  -3  -9  -5  115.18   32.50
   3   9  -5   38.05   27.69
   3   9  -5   72.90   31.67
   3   9  -5  107.22   41.10
   3   9   5   83.14   32.44
  -3  -9   5   57.94   48.12
  -3  -9   5  104.62   38.27
  -3  -9   5   73.86   26.21
  -3  -9   5   29.22   19.35
   4   9  -5   27.10   40.52
   4   9  -5   32.10   25.50
  -4  -9  -5   -4.66   29.85
  -4  -9  -5   20.13   45.22
   4   9  -5   39.68   27.25
  -4  -9   5   25.36   37.71
   4   9   5   60.75   28.57
  -4  -9   5   19.10   16.04
  -4  -9   5   13.75   25.03
  -4  -9   5   15.62   51.82
   5   9  -5  432.98   75.39
   5   9  -5  371.58   87.30
  -5  -9   5  453.59   80.58
  -5  -9   5  363.49   89.94
  -5  -9   5  305.21   96.95
  -5  -9   5  322.56   73.38
   6   9  -5   53.13   40.24
  -6  -9   5  189.17   49.24
  -6  -9   5   63.32   64.39
  -7  -9   5  324.73   92.29
  -7  -9   5  291.94   81.08
   6 -10  -5  289.70   77.94
   5 -10  -5    2.69   36.89
   5 -10  -5   63.19   43.57
  -5  10   5  -15.42   38.47
   4 -10  -5  571.71  116.87
   4 -10  -5  705.35  123.23
  -4  10   5  526.05  119.11
   3 -10  -5   73.32   34.87
   3 -10  -5   17.31   45.15
   3 -10   5   15.17   29.85
  -3  10   5   70.54   32.08
  -2  10  -5   65.06   35.34
   2 -10  -5   53.36   45.77
   2 -10  -5   -6.88   31.54
   2 -10   5   35.51   28.24
  -2  10   5   35.30   37.58
  -2  10   5    6.01   31.43
   2 -10   5   43.14   28.62
   2 -10   5   33.43   38.80
   1 -10  -5  286.08   60.45
   1 -10  -5  180.87   67.68
  -1  10  -5  287.99   60.82
  -1  10   5  281.38   57.49
  -1  10   5  258.61   58.75
   1 -10   5  280.56   59.63
   1 -10   5  147.33   51.14
   1 -10   5  306.82   64.76
   0  10  -5  -27.14   75.94
   0  10  -5    5.74   29.75
   0 -10  -5   -2.20   33.66
   0 -10  -5   -4.34   41.68
   0 -10   5    7.76   16.57
   0 -10   5  -39.96   30.85
   0 -10   5   15.49   38.52
   0 -10   5   98.69   51.65
   0  10   5   36.94   32.07
   1  10  -5  277.12   57.72
   1  10  -5  335.83   80.24
   1  10  -5  248.73   59.59
  -1 -10  -5  271.12   58.38
  -1 -10   5  227.43   65.91
  -1 -10   5  184.43   50.13
  -1 -10   5  214.89   81.49
   1  10   5  301.48   57.28
  -1 -10   5  340.10   59.96
   2  10  -5  -12.50   33.49
   2  10  -5   14.26   47.28
   2  10  -5   24.38   30.11
   2  10  -5   34.71   25.69
  -2 -10  -5   17.26   31.66
  -2 -10   5   35.41   28.33
  -2 -10   5   57.38   37.83
   2  10   5   35.46   34.46
  -2 -10   5   26.38   16.38
  -2 -10   5   36.99   54.40
   3  10  -5  -10.42   29.69
  -3 -10  -5   28.94   50.07
   3  10  -5    1.95   43.64
   3  10  -5   21.53   25.96
  -3 -10  -5   20.40   31.13
  -3 -10   5   25.83   39.46
   3  10   5   18.05   31.45
  -3 -10   5   20.57   52.02
  -3 -10   5   18.74   15.71
  -3 -10   5    3.74   25.24
  -4 -10  -5  719.30  121.74
   4  10  -5  618.07  100.96
  -4 -10  -5  538.03  107.11
   4  10  -5  505.78  121.46
   4  10  -5  359.14  112.53
  -4 -10   5  526.74  116.10
  -4 -10   5  570.82  120.69
  -4 -10   5  310.78   96.50
   4  10   5  613.22  101.94
  -4 -10   5  570.06  105.46
   5  10  -5    4.35   35.02
   5  10  -5    4.44   28.96
  -5 -10   5   -5.94   58.32
  -5 -10   5   10.48   28.56
  -5 -10   5   17.75   40.63
  -5 -10   5    3.23   21.00
   6  10  -5  342.08   72.64
   6  10  -5  237.81   81.32
  -6 -10   5  486.89   86.22
  -6 -10   5  325.52   96.12
  -7 -10   5  375.77   82.71
  -7 -10   5  189.17   91.01
   6 -11  -5  -76.80   50.61
  -6  11   5   69.10   44.28
   5 -11  -5   49.28   52.29
   5 -11  -5   90.65   45.22
  -5  11   5   88.10   46.64
   4 -11  -5 -182.24   61.64
   4 -11  -5   13.44   44.99
  -4  11   5   90.41   44.69
   3 -11  -5   77.03   57.43
   3 -11  -5  147.89   44.27
  -3  11   5   65.74   53.61
  -3  11   5  133.37   46.26
   3 -11   5  148.10   39.93
   2 -11  -5  656.74  111.04
  -2  11  -5  421.67  111.48
   2 -11  -5  622.26  119.64
   2 -11   5  466.36  108.62
  -2  11   5  558.95  111.22
   2 -11   5  442.08  116.50
  -2  11   5  818.09  108.73
   1 -11  -5   28.99   52.44
  -1  11  -5   42.70   39.02
   1 -11  -5   68.34   37.50
  -1  11   5   69.19   42.49
  -1  11   5   32.05   35.64
   1 -11   5   49.35   44.42
   1 -11   5   62.86   37.95
   0 -11  -5 1343.08  251.31
   0  11  -5 1485.46  254.76
   0 -11   5 1248.77  251.54
   0  11   5 1446.04  234.05
   0 -11   5  842.29  262.70
   1  11  -5   20.20   34.01
  -1 -11  -5    9.58   34.32
   1  11  -5   84.80   67.48
   1  11  -5  -23.54   31.91
   1  11  -5   47.26   33.38
  -1 -11   5   14.52   40.44
   1  11   5   32.89   40.25
  -1 -11   5   35.19   34.87
   2  11  -5  484.13   89.23
   2  11  -5  445.01   96.42
   2  11  -5  419.82  101.70
  -2 -11  -5  448.77   97.52
   2  11  -5  457.96  114.25
  -2 -11   5  320.57   84.24
  -2 -11   5  445.05  106.11
   2  11   5  396.05   92.60
  -2 -11   5  546.26  117.68
  -2 -11   5  573.63   97.17
  -3 -11  -5  145.71   43.28
   3  11  -5  139.30   41.02
   3  11  -5  115.22   57.25
   3  11  -5  161.09   38.28
   3  11  -5   90.19   39.49
  -3 -11  -5   82.32   56.97
  -3 -11   5  149.07   51.20
   3  11   5   99.97   41.29
  -3 -11   5  142.25   39.78
  -3 -11   5  162.18   62.82
  -3 -11   5   58.39   25.98
   4  11  -5  140.91   38.45
   4  11  -5   58.24   38.34
  -4 -11  -5  119.59   65.88
   4  11  -5   64.99   53.90
  -4 -11  -5   92.28   39.60
  -4 -11   5   80.32   32.83
  -4 -11   5  142.49   59.66
   4  11   5  180.09   47.26
  -4 -11   5   96.12   48.94
  -4 -11   5   78.05   24.82
  -5 -11  -5   28.89   75.89
   5  11  -5  118.27   39.44
   5  11  -5   99.79   63.25
   5  11  -5   57.57   40.33
  -5 -11   5  126.21   64.51
  -5 -11   5  162.62   29.96
  -5 -11   5   41.53   53.59
  -5 -11   5  114.50   39.14
   6  11  -5    2.69   42.43
   6  11  -5   45.89   37.69
  -6 -11   5   95.44   69.61
  -6 -11   5   80.99   49.62
  -6 -11   5   45.98   36.92
  -7 -11   5   -7.65   56.08
  -7 -11   5 -121.17   71.33
  -8 -11   5  149.93   72.27
  -8 -11   5  110.82   65.03
   6 -12  -5   -3.73   52.79
   5 -12  -5  -60.42   47.55
  -5  12   5  114.64   46.44
   4 -12  -5    3.00   46.45
   4 -12  -5   64.56   55.54
  -4  12   5   61.00   46.15
  -3  12  -5   98.52   48.04
   3 -12  -5   40.66   46.07
   3 -12  -5   87.88   58.93
  -3  12   5  101.41   48.91
   3 -12   5   60.95   40.22
  -3  12   5  119.01   51.37
   2 -12  -5   79.19   41.96
   2 -12  -5   -2.63   53.34
  -2  12  -5   62.73   44.21
  -2  12   5   10.49   48.16
   2 -12   5   10.93   40.07
   2 -12   5  -77.61   50.96
  -2  12   5    3.89   43.25
  -1  12  -5  530.84  109.32
   1 -12  -5  367.04  117.00
   1 -12  -5  481.78  106.98
  -1  12   5  638.31  108.72
   1 -12   5  488.56  107.20
  -1  12   5  456.88  101.94
   1 -12   5  524.21  113.43
   0  12  -5   17.97   35.58
   0  12  -5  -59.09   38.41
   0 -12  -5  -27.55   43.91
   0 -12  -5   -2.68   58.34
   0  12   5  -34.70   44.86
   0 -12   5  -13.91   40.56
   0  12   5   32.13   33.54
   0 -12   5   61.22   48.64
   1  12  -5  371.75  103.16
  -1 -12  -5  524.01  103.62
   1  12  -5  442.66   95.31
   1  12   5  569.47   97.95
  -1 -12   5  444.73  103.22
  -1 -12   5  440.83  111.49
  -2 -12  -5  -79.71   41.31
   2  12  -5   10.84   39.22
  -2 -12  -5   -8.05   59.19
   2  12  -5  -34.29   35.84
  -2 -12   5   10.14   35.60
  -2 -12   5   22.66   46.46
   2  12   5   -9.46   43.31
  -3 -12  -5   80.83   43.60
   3  12  -5   72.56   38.01
   3  12  -5   64.85   38.98
  -3 -12  -5   74.84   62.93
   3  12   5  212.78   46.96
  -3 -12   5   56.89   51.75
  -3 -12   5   81.44   38.66
  -4 -12  -5   12.40   62.74
   4  12  -5    8.20   39.24
  -4 -12  -5   31.23   39.28
   4  12   5   -3.34   41.38
  -4 -12   5   16.17   48.48
  -4 -12   5  -16.51   33.87
   5  12  -5   27.44   37.01
  -5 -12   5   21.89   35.85
   5  12   5  -54.44   43.38
  -5 -12   5   69.13   54.29
   6  12  -5  -46.66   41.65
  -6 -12   5  -42.41   54.74
  -6 -12   5  -16.04   37.56
  -7 -12   5  114.71   61.43
  -8 -12   5  -64.06   68.36
   6 -13  -5   67.77   62.07
  -6  13   5  107.34   56.50
   5 -13  -5   26.53   59.36
  -5  13   5  100.50   57.52
   3 -13   5  -14.56   39.82
  -2  13  -5  297.95   66.90
   2 -13  -5   -3.15   62.02
  -2  13   5   -3.91   70.68
   2 -13   5  308.51   68.90
   2 -13   5  188.84   58.13
   1 -13  -5   12.51   50.93
  -1  13  -5   -8.65   41.01
  -1  13  -5   44.08   46.50
   1 -13   5   -6.21   41.52
  -1  13   5  -18.27   52.47
   1 -13   5   20.72   50.51
   0  13  -5  252.75   73.46
   0  13  -5  300.09   74.17
   0 -13  -5  311.63   77.48
   0  13   5  312.82   74.89
   0 -13   5  350.66   83.16
   0 -13   5  291.43   73.62
   1  13  -5   -7.48   43.40
   1  13  -5  -53.88   49.15
  -1 -13  -5  -29.78   43.78
  -1 -13   5  -45.90   56.69
   1  13   5  -10.35   48.25
  -1 -13   5    8.96   46.90
   2  13  -5  330.36   69.01
   2  13  -5  344.24   67.47
  -2 -13   5  242.82   66.64
  -2 -13   5  223.21   75.10
   3  13  -5  -57.29   40.20
   3  13  -5   30.69   38.35
  -3 -13   5   50.49   58.43
  -3 -13   5  -10.75   36.98
   4  13  -5   62.02   44.15
   4  13  -5   82.89   46.56
  -4 -13   5  123.12   60.75
  -4 -13   5   68.28   40.86
   5  13  -5    9.15   44.95
  -5 -13  -5   75.58   85.00
  -5 -13   5   86.13   60.86
  -5 -13   5   26.62   40.67
   6  13  -5   57.59   45.21
  -6 -13   5  -28.38   42.53
  -6 -13   5   38.11   57.24
  -7 -13   5  -31.26   63.92
   6 -14  -5   81.28   61.92
  -6  14   5   70.01   60.80
   5 -14  -5   38.13   57.25
   5 -14  -5  164.52   69.17
  -5  14   5  -60.76   58.04
   4 -14  -5  200.00   77.44
   4 -14  -5  144.03   66.32
  -4  14   5   66.68   76.64
  -4  14   5   69.85   64.17
   3 -14  -5  -69.20   51.45
  -3  14  -5    5.34   52.36
   3 -14  -5  -86.14   65.56
  -3  14   5  -23.80   66.88
  -3  14   5   82.39   58.70
  -2  14  -5   -5.01   50.76
   2 -14  -5 -115.63   65.44
   2 -14  -5  -93.95   54.08
  -2  14   5   -4.99   53.18
   2 -14   5   -2.97   58.91
  -2  14   5  -69.81   63.30
   1 -14  -5   22.33   73.09
   1 -14  -5   72.52   53.80
  -1  14   5  -45.07   61.61
  -1  14   5  -48.68   56.94
   0 -14  -5   23.60   57.00
   0  14   5  243.87   60.77
  -1 -14  -5   56.40   49.25
   1  14  -5   49.34   52.44
  -1 -14  -5   -3.18   75.74
  -1 -14   5   19.96   49.94
   1  14   5   73.38   54.37
  -2 -14  -5   15.90   70.67
   2  14  -5    3.46   51.47
  -2 -14  -5   45.65   47.22
   2  14   5  -15.67   53.39
  -2 -14   5   57.24   47.57
  -3 -14  -5   39.47   71.26
   3  14  -5   43.97   48.65
  -3 -14  -5   -3.27   48.48
   3  14   5  -70.10   54.91
  -3 -14   5  -72.08   43.47
   4  14  -5  192.47   56.39
  -4 -14  -5   74.75   53.03
  -4 -14  -5  380.25   91.97
  -4 -14   5   -2.92   45.02
   4  14   5   80.70   57.28
  -5 -14  -5   17.47   50.09
  -5 -14  -5  -37.29   87.96
   5  14   5  -30.08   59.40
  -7 -14   5   -3.06   63.85
   6 -15  -5   28.12   68.58
  -6  15   5  -63.74   63.57
   5 -15  -5  -66.98   62.60
   5 -15  -5  208.46   74.17
  -5  15   5  -18.29   55.36
  -5  15   5  161.72   98.33
   4 -15  -5    6.87   69.31
   4 -15  -5   19.56   55.45
  -4  15   5  -71.69   68.78
  -4  15   5  -46.34   83.53
  -3  15  -5   -5.81   59.80
   3 -15  -5 -118.71   81.34
   3 -15  -5    3.81   54.79
  -3  15   5   15.93   81.26
  -3  15   5  -93.12   51.68
   3 -15   5   -3.43   49.83
   2 -15  -5   11.47   60.19
  -2  15  -5  -20.49   58.41
  -2  15  -5   -5.47   60.12
   2 -15  -5   -7.06   84.73
   2 -15   5  -61.62   56.37
  -2  15   5  -63.16   71.48
   2 -15   5   48.50   65.64
  -2  15   5   45.05   59.19
  -1  15  -5   16.56   61.22
   1 -15  -5  -76.23   64.50
  -1  15  -5   62.64   56.92
  -1  15   5  -16.68   60.62
   1 -15   5   46.31   62.98
   1 -15   5   85.39   54.88
  -1  15   5   37.04   62.04
   0  15  -5   49.14   61.72
   0 -15  -5  -37.19   55.15
   0  15  -5   59.67   56.26
   0 -15   5  -37.37   55.42
   0 -15   5  -15.22   64.42
   0  15   5    4.47   63.97
   1  15  -5    4.69   50.89
  -1 -15  -5   51.43   52.49
   1  15  -5  -43.25   60.88
  -1 -15  -5  -94.10   75.59
  -1 -15   5  -46.03   65.02
   1  15   5   42.56   62.56
  -1 -15   5   44.21   51.89
   1  15   5   25.92   59.21
   2  15  -5  124.15   54.65
  -2 -15  -5   45.06   80.11
  -2 -15  -5   14.42   54.16
   2  15  -5    4.58   49.19
   2  15   5  -39.30   59.46
  -2 -15   5   49.27   50.79
  -2 -15   5   32.98   67.47
  -3 -15  -5   68.58   55.00
  -3 -15  -5  146.46   75.08
   3  15  -5    7.56   51.88
   3  15  -5   31.71   56.89
  -3 -15   5    9.01   68.50
   3  15   5   73.34   59.13
  -3 -15   5    3.35   48.85
  -4 -15  -5  -89.16   52.66
  -4 -15  -5   80.51   85.19
   4  15  -5  -26.95   55.02
   4  15  -5    4.48   49.94
  -4 -15   5   -9.17   66.52
   4  15   5  -26.65   58.84
  -4 -15   5   67.89   48.83
  -5 -15  -5  110.12   95.70
   5  15  -5   64.37   57.49
   5  15  -5    4.72   59.34
  -5 -15  -5  117.24   57.57
  -5 -15   5   86.47   48.07
   5  15   5  -23.46   65.60
  -5 -15   5  137.71   71.79
   6  15  -5   31.18   51.68
  -6 -15   5   19.80   42.08
  -6 -15   5  -38.33   66.79
   7  15  -5   -4.10   54.45
  -7 -15   5  -39.35   70.35
   6 -16  -5    5.11   75.14
  -6  16   5  -42.65  119.66
  -6  16   5   48.99   62.53
   5 -16  -5   -3.87   78.82
   5 -16  -5 -100.12   67.59
  -5  16   5   57.77   95.21
  -5  16   5  -60.80   72.73
   4 -16  -5 -123.04   67.83
   4 -16  -5 -101.75   73.79
  -4  16   5  -39.97   69.14
  -4  16   5   39.05   89.98
   3 -16  -5    4.22   62.64
  -3  16  -5    6.32   64.71
   3 -16  -5  132.56   87.10
  -3  16   5  -64.53   86.65
  -3  16   5   45.84   78.22
   3 -16   5    3.79   55.88
  -2  16  -5    5.98   63.77
  -2  16  -5  -40.08   63.62
   2 -16  -5  -67.06   58.62
   2 -16  -5  115.87   84.88
   2 -16   5   -7.92   58.05
  -2  16   5   49.05   78.10
  -2  16   5    6.35   68.33
   2 -16   5  -31.60   69.52
  -1  16  -5   22.91   69.10
  -1  16  -5   11.47   60.91
   1 -16  -5   75.07   61.67
   1 -16   5   10.05   69.20
   1 -16   5   -4.05   59.55
  -1  16   5   72.85   74.97
   0  16  -5    5.52   50.99
   0  16  -5   71.58   65.70
   0 -16  -5   -4.09   61.50
   0  16   5   50.14   74.32
   0 -16   5   39.53   70.96
   0 -16   5  -57.78   59.98
  -1 -16  -5  101.46   81.60
  -1 -16  -5  -73.12   62.73
   1  16  -5    5.26   63.59
   1  16  -5   30.51   60.00
  -1 -16   5  -33.29   66.69
   1  16   5  -12.07   72.14
   1  16   5   43.55   70.39
  -1 -16   5   36.56   60.18
  -2 -16  -5  -79.61   81.34
   2  16  -5  -60.39   65.73
   2  16  -5   -5.17   59.34
  -2 -16  -5   -4.00   56.88
   2  16   5   -6.22   75.93
  -2 -16   5    7.76   55.80
  -2 -16   5  -19.73   72.84
   2  16   5  -63.19   69.48
   3  16  -5   88.69   63.58
   3  16  -5    5.20   61.75
  -3 -16  -5   27.10   88.15
  -3 -16  -5  -27.87   55.82
  -3 -16   5   40.96   56.48
  -3 -16   5  -42.62   72.04
   3  16   5   71.75   62.37
   4  16  -5  -17.14   59.12
  -4 -16  -5  -40.81   55.62
  -4 -16  -5   74.64   93.79
   4  16  -5    5.19   61.68
   4  16   5    9.80   59.66
  -4 -16   5   16.65   74.71
  -4 -16   5  -35.89   51.54
   5  16  -5    4.21   59.62
   5  16  -5    5.38   62.85
  -5 -16  -5 -151.79  110.99
  -5 -16  -5 -197.96   62.38
  -5 -16   5  -40.55   77.33
  -5 -16   5  -74.43   51.29
   5  16   5  -20.48   70.80
  -6 -16  -5  -24.26  145.32
   6  16  -5   -8.64   57.70
  -6 -16   5  -76.39   82.01
  -6 -16   5   -7.19   53.06
   7  16  -5  -63.09   60.88
   6 -17  -5  184.10   88.30
  -6  17   5  -28.25  136.91
  -6  17   5   30.91   79.91
   5 -17  -5  -74.17   70.63
   5 -17  -5   38.15   91.78
  -5  17   5   75.13   86.37
  -5  17   5  -40.61  116.61
   4 -17  -5    9.33   68.78
   4 -17  -5   12.36   88.25
  -4  17   5 -200.69   81.79
  -4  17   5  -36.26  106.30
  -3  17  -5   -6.88   72.81
   3 -17  -5  -70.01   94.93
   3 -17  -5    4.62   63.68
  -3  17  -5    4.71   69.33
   3 -17   5   78.22   57.82
  -3  17   5    7.37   72.59
  -3  17   5  -72.13   96.05
  -2  17  -5   53.88   72.34
   2 -17  -5  123.76   70.48
   2 -17  -5   -4.19   94.34
  -2  17  -5  -13.08   73.54
   2 -17   5    4.27   65.36
   2 -17   5  -76.06   80.74
  -2  17   5  -66.94   89.06
  -2  17   5 -215.12   83.91
  -1  17  -5  -89.81   71.47
   1 -17  -5    4.55   67.01
  -1  17  -5   -6.29   67.02
  -1  17   5  -81.95   86.64
   1 -17   5    4.41   65.71
   1 -17   5 -142.02   81.33
   0 -17  -5   94.36   71.40
   0  17  -5    6.12   70.75
   0  17  -5   87.97   69.47
   0 -17  -5   -4.09   89.10
   0  17   5   -7.10   78.86
   0  17   5    5.58   79.66
   0 -17   5   42.87   81.24
   0 -17   5   40.66   72.71
   1  17  -5  -58.35   68.86
  -1 -17  -5  -67.15   67.83
   1  17  -5  -11.85   60.12
  -1 -17  -5 -138.61   98.33
  -1 -17   5 -116.25   74.31
  -1 -17   5 -114.46   86.91
   1  17   5   -6.99   79.14
   1  17   5  -16.28   73.25
  -2 -17  -5  -49.08   96.66
   2  17  -5  -23.29   68.56
   2  17  -5  -19.18   70.33
  -2 -17  -5  -48.76   65.66
   2  17   5    7.12   77.01
  -2 -17   5  -75.52   86.78
  -2 -17   5   -4.27   62.31
   2  17   5  -86.62   69.04
   3  17  -5  -14.09   67.19
   3  17  -5   23.55   68.09
  -3 -17  -5   26.37   60.52
  -3 -17  -5  165.20  100.37
   3  17   5   84.83   72.93
  -3 -17   5   42.57   79.18
  -3 -17   5  -70.09   59.39
  -4 -17  -5   -4.50   65.41
   4  17  -5   -6.02   68.79
   4  17  -5  -47.53   70.74
  -4 -17  -5    4.51  103.37
  -4 -17   5  -10.81   79.98
  -4 -17   5   11.93   60.40
   4  17   5  -54.17   77.45
   5  17  -5  -61.84   73.02
   5  17  -5   23.47   66.49
  -5 -17  -5  -27.08   66.09
  -5 -17  -5  214.96  117.81
  -5 -17   5    7.81   56.58
  -5 -17   5   22.18   83.25
   5  17   5   56.20   83.73
  -6 -17  -5   32.49  147.90
   6  17  -5 -273.66   74.80
   6  17  -5  -14.38   63.66
  -6 -17   5   94.25   55.13
  -6 -17   5   -7.56   80.31
  -6  18   5  111.37  106.54
  -6  18   5  210.88  162.98
   5 -18  -5    9.28   91.46
   5 -18  -5    5.38   73.50
  -5  18   5   18.12  130.63
  -5  18   5  -50.26   88.96
   4 -18  -5   67.01   76.91
   4 -18  -5   -4.51   99.89
  -4  18   5 -215.29  116.48
  -4  18   5   -8.30   87.02
   3 -18  -5   31.37   96.82
  -3  18  -5 -172.72   84.31
   3 -18  -5 -272.02   75.20
  -3  18  -5  -30.56   71.60
  -3  18   5  -24.88   96.75
   3 -18   5    8.91   63.88
  -3  18   5  109.20  102.83
   2 -18  -5 -185.76   74.72
  -2  18  -5   16.04   75.42
  -2  18  -5   -7.17   73.38
  -2  18   5   34.32   96.45
   2 -18   5  -65.76   91.32
   2 -18   5   22.98   68.53
  -1  18  -5   42.95   82.15
   1 -18  -5   34.67   75.20
  -1  18  -5    6.91   77.89
  -1  18   5   91.59   99.30
   1 -18   5   19.41   77.50
   1 -18   5   27.74   86.33
   0 -18  -5  123.20  104.37
   0  18  -5   -5.37   83.26
   0 -18  -5    9.86   71.56
   0  18  -5  -27.16   71.82
   0 -18   5  -72.90   84.26
   0 -18   5    4.94   70.24
   0  18   5  -93.51   91.76
   0  18   5    8.05   87.29
   1  18  -5  -20.03   75.13
  -1 -18  -5   30.82   91.40
  -1 -18  -5    4.95   73.95
   1  18  -5   64.55   84.26
  -1 -18   5  -54.19   83.56
   1  18   5 -259.26  100.29
   1  18   5  -85.29   83.18
  -1 -18   5  -63.44   71.49
  -2 -18  -5    4.49  106.02
   2  18  -5   13.15   75.15
  -2 -18  -5   88.21   70.93
   2  18  -5   26.34   72.48
   2  18   5 -197.46   95.27
   2  18   5  132.26   87.09
  -2 -18   5  105.75   85.38
  -2 -18   5   61.03   72.54
  -3 -18  -5   79.10  106.26
  -3 -18  -5    4.88   71.31
   3  18  -5  -52.25   74.68
   3  18  -5   -6.68   78.19
   3  18   5    5.89   83.27
  -3 -18   5    4.54   68.42
   3  18   5   35.00  100.85
  -3 -18   5  -23.35   86.20
  -4 -18  -5  123.35  111.40
  -4 -18  -5 -114.01   72.23
   4  18  -5  -26.20   72.60
   4  18  -5    6.92   77.41
  -4 -18   5    4.39   61.09
  -4 -18   5   86.20   85.75
   4  18   5   96.09   85.38
  -5 -18  -5   19.88   71.98
  -5 -18  -5 -234.47  130.33
   5  18  -5  -57.24   76.35
   5  18  -5   50.24   87.14
  -5 -18   5  -68.13   90.02
   5  18   5   37.27   82.35
  -5 -18   5  -51.58   58.06
  -6 -18  -5  659.92  168.26
   6  18  -5   21.26   77.36
   6  18  -5  -22.19   86.66
  -6 -18   5   12.90   64.10
   6 -19  -5 -178.61   91.75
  -6  19   5 -114.57  107.48
  -6  19   5 -272.18  181.22
   5 -19  -5  222.87  114.95
   5 -19  -5    5.95   91.59
  -5  19   5    9.37   94.99
  -5  19   5  -90.49  138.92
   4 -19  -5  -16.94   82.92
   4 -19  -5  -99.08  109.51
  -4  19   5  -53.39  139.28
  -4  19   5   -9.28  101.21
   3 -19  -5 -145.24  112.78
   3 -19  -5    5.51   87.95
  -3  19  -5  -77.65   77.70
  -3  19   5   48.60  122.34
  -3  19   5   -9.31  109.55
   3 -19   5 -278.29   74.80
  -2  19  -5 -142.07   88.10
  -2  19  -5  -74.71   84.33
   2 -19  -5 -267.33   92.44
   2 -19   5 -173.94   99.22
   2 -19   5  -20.11   76.95
  -2  19   5 -138.66  121.11
   1 -19  -5  340.62   99.19
  -1  19  -5   -7.63   90.24
  -1  19  -5  -17.37   91.69
  -1  19   5  198.02  113.52
   1 -19   5   10.55   90.09
   1 -19   5  159.76  100.65
   0  19  -5  234.92  101.18
   0  19  -5    7.55   84.58
   0 -19   5   -5.39   85.18
   0  19   5    9.14  118.10
   0 -19   5  125.36  104.58
   0  19   5   69.93  105.17
   1  19  -5   76.99   99.19
   1  19  -5   60.14   94.96
  -1 -19   5  143.13   82.80
   1  19   5   -9.34  118.04
   1  19   5  -48.14  103.24
  -1 -19   5  137.04  102.08
   2  19  -5   -7.46   83.94
  -2 -19  -5 -239.43  121.05
   2  19  -5  -98.66   87.89
  -2 -19  -5 -167.55   83.93
   2  19   5 -114.27  110.38
   2  19   5 -154.05  100.89
  -2 -19   5   56.65   79.24
  -2 -19   5 -109.33   96.50
  -3 -19  -5 -206.33  111.78
  -3 -19  -5   10.81   72.77
   3  19  -5  -52.31   81.05
   3  19  -5   -7.59   90.47
  -3 -19   5   -8.50   93.33
  -3 -19   5  -35.08   74.83
   3  19   5   10.12  119.44
   3  19   5  -59.36   85.28
  -4 -19  -5   21.76  124.36
  -4 -19  -5  -54.74   79.29
   4  19  -5    5.77   84.22
   4  19  -5   15.78   92.90
  -4 -19   5  -24.15   70.10
   4  19   5  153.66   90.12
   4  19   5   81.39  136.89
  -4 -19   5   88.84   94.95
   5  19  -5 -164.57   91.99
  -5 -19  -5  -98.02  130.64
  -5 -19  -5  -49.33   77.34
   5  19  -5  -57.57   83.25
   5  19   5  -96.74   93.30
  -5 -19   5   -4.74   70.25
  -5 -19   5  -47.27  100.12
  -6 -19  -5  -91.91  172.68
  -3  20  -5  -17.92   90.22
   3 -20  -5   30.16   92.21
  -3  20   5 -219.04  139.60
   3 -20   5   36.23   74.09
  -2  20  -5 -104.22   88.13
  -2  20  -5   -8.71   95.95
   2 -20  -5    5.92   90.65
   2 -20   5  -60.50   76.00
   2 -20   5  -29.14  100.28
  -2  20   5   43.15  128.57
  -1  20  -5    6.29   89.91
   1 -20  -5  123.92   86.91
  -1  20  -5   84.63   95.63
   1 -20  -5 -163.67  119.96
  -1  20   5 -162.87  113.25
  -1  20   5   10.32  109.49
   1 -20   5  -18.78   93.56
   1 -20   5  -40.15   79.16
   0  20  -5 -135.14   92.58
   0 -20  -5   15.82  124.19
   0  20  -5    8.41   91.17
   0 -20  -5   -5.96   89.27
   0 -20   5    5.85   88.25
   0  20   5   31.19  117.12
   0  20   5  101.81  112.80
   0 -20   5   68.01   97.13
   1  20  -5  -77.80   91.91
   1  20  -5   -8.46   92.12
  -1 -20  -5 -150.55  121.56
  -1 -20  -5  100.68   89.00
   1  20   5   61.99  110.96
  -1 -20   5  -76.49   95.91
   1  20   5   10.69  121.99
  -1 -20   5  -17.33   80.06
  -2 -20  -5    5.98   86.19
   2  20  -5   76.68   90.43
   2  20  -5  -17.05  100.17
  -2 -20  -5 -217.30  121.37
   2  20   5 -127.34  103.58
  -2 -20   5  -68.00   78.54
  -2 -20   5 -104.46  101.01
  -3 -20  -5 -132.02   93.53
   3  20  -5  -12.93   94.42
   3  20  -5   51.83   97.63
  -3 -20  -5  -82.73  122.93
   3  20   5   95.86  107.32
  -3 -20   5   16.40   78.55
  -3 -20   5  -69.40  107.50
   4  20  -5  -69.91   97.20
   4  20  -5 -170.83  108.75
  -4 -20  -5  -90.85   87.34
  -4 -20   5 -124.93  106.42
   4  20   5   -7.46   99.52
  -4 -20   5 -143.63   82.17
   5  20  -5    9.46  103.18
   0  21  -5  126.68  108.65
   0 -21   5 -139.20   86.13
   1  21  -5   14.07   96.74
  -1 -21   5 -100.62   90.98
   2  21  -5  -42.20  107.05
  -2 -21   5   -6.21   87.16
  -2 -21   5   82.88   94.76
   3  21  -5   78.46  107.88
  -3 -21   5    6.00   77.60
  -3 -21   5  -49.65   97.90
   4  21  -5   27.96  108.19
  -4 -21   5 -133.91   84.87
   0   0  -6   19.76   15.36
   0   0   6   24.99    8.63
   0   0   6   12.63   19.59
   1   0  -6    0.79   11.59
   0  -1  -6   11.32   12.81
   0   1  -6    4.74   15.50
   0  -1   6    7.39   20.06
  -1   0   6    1.30    5.33
   0   1   6    1.87    7.07
   0  -1   6    1.05    7.92
  -1   0   6   -3.41   16.14
   1  -1  -6  367.06   70.91
   1   1  -6  397.85   71.39
   1  -1  -6  349.08   71.19
   1  -1  -6  393.49   71.05
  -1  -1   6  293.97   73.94
  -1   1   6  269.53   61.10
  -1   1   6  356.53   62.92
   1  -2  -6   37.94   10.03
   2   1  -6   49.13   13.92
   1  -2  -6   27.18   14.17
   1  -2  -6   45.04   12.41
  -1   2   6   31.32   17.89
  -1   2   6   27.07    8.11
  -2  -1   6   28.57    8.95
  -1   2   6   49.24    8.42
  -2  -1   6   28.13   19.46
   0  -2  -6  673.50  158.45
   0   2  -6  840.33  158.50
   0  -2  -6  964.96  163.04
   0   2   6  703.59  138.54
   0   2   6  772.16  146.61
  -2   0   6  799.58  138.15
  -2   0   6  694.86  159.42
   1   2  -6   28.62   16.51
   2  -1  -6   37.93   10.25
   2  -1  -6   23.79    8.45
   2  -1  -6   35.62   10.65
  -2   1   6   40.97   17.70
  -1  -2   6   33.91    8.31
  -1  -2   6   52.74   22.07
  -2   1   6   23.65    8.32
  -2   1   6   45.32    7.86
   2  -2  -6 3609.66  722.91
   2  -2  -6 3736.25  754.88
   2  -2  -6 3947.57  771.41
  -2   2   6 3741.46  767.34
  -2  -2   6 3312.05  768.26
   2  -3  -6  336.80   76.51
  -3  -2   6  517.16   84.90
  -2   3   6  408.14   76.30
  -3  -2   6  356.89   80.85
  -2   3   6  368.74   81.90
   1  -3  -6  302.31   50.79
   3   1  -6  261.59   53.66
   1  -3  -6  273.92   55.20
   1  -3  -6  153.26   54.96
  -3  -1   6  281.95   57.21
  -3  -1   6  295.25   46.37
  -1   3   6  241.87   57.85
  -1   3   6  215.99   46.50
   0  -3  -6   10.54   12.56
   0  -3  -6    4.84    9.43
   0   3  -6  -15.56   20.86
   3   0  -6   -7.02   10.25
  -3   0   6   -8.04   18.37
   0  -3   6    3.40   10.03
   0   3   6   -9.76    8.76
   0  -3   6   -1.41   25.38
  -3   0   6   -3.10    5.41
   0   3   6    5.20    7.24
  -1  -3  -6  192.01   52.93
   1   3  -6  288.93   56.05
   1   3  -6  206.62   50.18
   3  -1  -6  285.66   53.58
  -1  -3   6  287.00   60.09
  -3   1   6  286.86   56.27
  -1  -3   6  298.62   48.21
  -1  -3   6  263.70   50.56
  -3   1   6  189.05   46.63
  -1  -3   6  271.83   53.42
   3  -2  -6  350.37   73.64
   2   3  -6  316.16   77.99
   2   3  -6  327.45   72.56
   3  -2  -6  418.55   78.42
   3  -2  -6  323.44   78.98
  -3   2   6  328.20   73.42
  -2  -3   6  404.92   82.15
  -2  -3   6  461.52   68.66
  -2  -3   6  431.67   73.26
  -3   2   6  394.91   80.71
  -2  -3   6  343.40   78.05
   3  -3  -6   -3.33   12.16
   3  -3  -6    3.54    9.63
   3  -3  -6   -0.75   13.77
   3   3  -6   -4.67    6.08
  -3   3   6    0.65   17.84
  -3  -3   6    2.89   10.39
  -3  -3   6   -8.50   27.69
  -3   3   6   -9.90    6.02
  -3   3   6    6.17   10.98
   4   3  -6  319.42   62.62
   3  -4  -6  343.85   58.35
   3  -4  -6  269.51   61.53
  -4  -3   6  311.12   52.66
  -3   4   6  312.38   62.76
  -3   4   6  209.67   59.17
  -4  -3   6  234.82   60.65
   2  -4  -6 1365.69  292.46
   2  -4  -6 1179.30  299.35
   2  -4  -6 1504.71  282.18
   2  -4  -6 1571.07  297.59
  -2   4   6 1367.80  301.20
  -2   4   6 1517.62  267.52
  -2   4   6 1553.04  261.52
   1  -4  -6  237.87   76.19
   1  -4  -6  356.71   72.15
   1  -4  -6  374.24   78.72
  -1   4   6  344.84   66.26
  -1   4   6  370.65   79.80
  -1   4   6  443.24   66.44
  -4  -1   6  411.16   80.62
   0  -4  -6    2.01   17.41
   0  -4  -6   -4.65   12.09
   0   4  -6   17.17    9.52
   4   0  -6    1.02   11.62
   0   4  -6    1.55   26.63
  -4   0   6    2.97   21.28
   0  -4   6   18.89   12.39
   0   4   6   25.64   10.40
  -4   0   6   12.96    6.93
   0  -4   6   -7.51   31.52
  -1  -4  -6  413.48   78.35
  -1  -4  -6  369.11   78.15
   1   4  -6  375.66   74.78
   1   4  -6  320.01   80.23
  -1  -4   6  476.77   77.86
   1   4   6  314.70   68.60
  -4   1   6  326.89   69.22
  -1  -4   6  369.19   85.82
  -1  -4   6  409.07   74.28
   2   4  -6 1329.62  292.00
   2   4  -6 1618.42  274.67
   2   4  -6 1408.61  255.81
  -2  -4   6 1299.40  297.05
  -2  -4   6 1314.45  275.93
  -2  -4   6 1422.19  294.41
   3   4  -6  307.83   51.44
  -3  -4   6  224.70   60.70
  -3  -4   6  288.15   56.81
   4   4  -6  295.42   69.37
   4  -4  -6  308.37   64.58
  -4   4   6  332.16   64.97
  -4  -4   6  304.94   68.43
  -4  -4   6  363.30   75.29
   4  -5  -6  481.11  106.35
   5   4  -6  522.70  106.80
  -5  -4   6  437.52  110.75
  -4   5   6  562.85  101.29
  -3   5   6 1222.33  262.92
   2  -5  -6  365.30   77.00
  -2   5   6  329.06   79.92
  -5  -2   6  479.12   84.35
   5   1  -6  738.25  143.94
   0   5  -6   -2.78   12.27
   0   5  -6  -29.08   31.74
   0  -5   6   -3.23   13.67
   0  -5   6  -20.82   36.92
   0  -5   6    0.97   16.92
   0  -5   6   -1.24   10.56
   1   5  -6  601.23  131.24
   1   5  -6  626.11  124.01
  -1  -5   6  612.70  122.33
  -1  -5   6  568.09  138.19
  -1  -5   6  635.85  129.93
   2   5  -6  329.15   64.76
   2   5  -6  348.83   69.47
  -2  -5  -6  341.57   75.43
  -2  -5   6  358.73   75.46
   3   5  -6 1455.90  237.32
   3   5  -6 1568.40  268.34
  -3  -5   6 1057.61  255.51
  -3  -5   6 1230.02  270.03
   4   5  -6  448.85   92.37
  -4  -5   6  504.90  101.18
  -4  -5   6  601.63  112.21
  -4  -5   6  484.40  107.75
   5   5  -6   18.22   23.23
  -5  -5   6   -2.17   21.22
  -5  -5   6    1.68   40.72
  -5  -5   6   10.79   12.96
   6   5  -6   73.61   32.28
   5  -6  -6  118.09   31.90
  -6  -5   6  112.76   52.59
  -6  -5   6   20.95   18.19
  -5   6   6   31.57   28.50
   4  -6  -6  602.22  126.04
   4  -6  -6  609.59  119.51
   6   4  -6  724.17  127.47
  -6  -4   6  629.13  113.41
  -6  -4   6  679.81  131.24
  -4   6   6  600.77  122.21
   3  -6  -6  186.62   52.01
   6   3  -6  202.44   50.41
   3  -6  -6  309.07   48.66
  -3   6   6  240.67   47.95
  -3   6   6  210.04   48.01
   2  -6  -6  937.46  198.09
  -2   6   6 1035.07  186.65
  -2   6   6 1040.30  176.37
   1  -6  -6    1.30   18.73
  -1   6  -6   -1.86   15.40
   1  -6  -6   14.45   24.87
  -1   6   6   15.47   15.61
   0  -6  -6  118.57   30.44
   0  -6  -6  135.41   37.55
   0   6   6  115.72   28.63
  -1  -6  -6   -1.44   25.33
  -1  -6  -6   20.39   18.53
   1   6   6   -1.46   16.34
  -1  -6   6  -11.23   14.79
  -2  -6  -6 1107.80  193.01
   2   6  -6  823.50  176.67
   2   6   6 1078.78  177.79
  -2  -6   6 1053.76  197.87
  -2  -6   6  971.81  188.22
  -2  -6   6 1081.94  177.50
   3   6  -6  214.30   53.27
   3   6  -6  250.14   42.25
   3   6  -6  263.33   50.12
  -3  -6   6  269.93   59.19
  -3  -6   6  162.46   40.98
  -3  -6   6  211.22   44.17
   4   6  -6  574.68  122.11
   4   6  -6  565.03  106.34
  -4  -6   6  607.85  126.72
  -4  -6   6  615.99  105.16
   5   6  -6   99.00   33.18
  -5  -6   6   85.51   22.68
   6   6  -6   47.30   32.26
  -6  -6   6   50.63   50.37
  -6  -6   6   80.58   32.69
  -6  -6   6   80.15   21.08
  -7  -6   6   61.71   55.08
   5  -7  -6   27.95   29.47
   5  -7  -6   32.21   31.55
  -5   7   6   88.60   30.98
   4  -7  -6   91.54   34.11
   4  -7  -6  144.30   38.82
  -4   7   6   98.75   34.94
   3  -7  -6  440.23   74.15
   3  -7  -6  239.55   81.10
  -3   7   6  358.12   75.00
  -3   7   6  353.22   75.57
   2  -7  -6  147.26   44.07
   2  -7  -6  190.40   39.31
  -2   7   6  169.73   35.59
  -2   7   6   98.05   36.42
   1  -7  -6   57.88   24.07
  -1   7  -6   37.30   22.29
   1  -7  -6   25.78   30.15
   1  -7   6   34.01   20.66
   1  -7   6   47.62   27.06
  -1   7   6   69.89   21.52
   1  -7   6   19.54   20.91
   0  -7  -6   23.70   20.56
   0   7  -6    2.05   19.93
   0  -7  -6   -4.70   29.45
   0  -7   6  -16.61   19.04
   0   7   6   -4.96   18.95
   0  -7   6    1.30   23.86
   0  -7   6    1.37   16.25
  -1  -7  -6   38.16   22.19
  -1  -7  -6    3.34   32.06
   1   7  -6   12.27   17.44
   1   7  -6   -1.76   31.56
  -1  -7   6   94.82   27.09
  -1  -7   6   30.35   16.35
   1   7   6   35.81   21.74
  -1  -7   6   74.38   19.05
   2   7  -6  189.53   36.42
   2   7  -6  196.24   48.67
  -2  -7  -6  129.83   47.05
  -2  -7  -6  170.64   39.40
  -2  -7   6  204.89   42.23
  -2  -7   6  134.73   36.52
   2   7   6  168.37   37.06
  -2  -7   6  135.93   32.74
  -2  -7   6  150.87   54.49
  -3  -7  -6  463.92   81.12
  -3  -7  -6  428.32   76.34
   3   7  -6  434.28   80.53
   3   7  -6  305.03   83.45
   3   7   6  339.33   70.20
  -3  -7   6  248.32   79.68
  -3  -7   6  358.65   67.01
  -3  -7   6  204.14   89.49
  -3  -7   6  396.43   72.69
   4   7  -6  192.73   36.63
   4   7  -6  180.28   28.19
  -4  -7   6   71.51   35.59
  -4  -7   6   91.50   29.05
  -4  -7   6   45.56   50.88
  -4  -7   6   80.12   24.18
   5   7  -6   58.97   22.84
   5   7  -6  111.07   31.35
  -5  -7   6   17.62   17.99
  -5  -7   6   63.45   51.40
  -5  -7   6   73.56   30.68
   6   7  -6    4.37   31.68
  -6  -7   6   15.74   32.02
  -6  -7   6   27.51   54.36
  -6  -7   6   39.39   18.47
  -7  -7   6  120.12   65.31
   6  -8  -6  -13.99   42.84
   5  -8  -6   55.96   37.76
   5  -8  -6   69.58   31.97
  -5   8   6   77.55   32.84
   4  -8  -6   35.43   27.36
   4  -8  -6    3.47   33.91
  -4   8   6    5.76   28.43
   3  -8  -6   35.88   28.29
   3  -8  -6   20.68   35.05
  -3   8   6   14.97   23.66
   2  -8  -6  198.71   47.56
   2  -8  -6  132.20   40.01
   2  -8   6  162.71   37.03
  -2   8   6  225.88   39.99
  -2   8   6   52.98   38.09
   1  -8  -6  -41.72   36.32
  -1   8  -6  -40.69   27.57
   1  -8  -6   -8.80   27.16
   1  -8   6  -62.01   27.25
   1  -8   6    4.99   21.16
  -1   8   6    5.82   25.59
   0  -8  -6   74.89   45.44
   0  -8  -6  213.07   35.83
   0   8  -6  167.67   37.51
   0   8  -6   12.29   65.15
   0  -8   6   95.31   35.93
   0  -8   6 -137.56   68.64
   0   8   6  130.73   34.91
   0  -8   6  216.29   31.85
   1   8  -6  -40.65   48.55
  -1  -8  -6  -31.14   36.76
  -1  -8  -6    8.61   23.21
   1   8  -6  -20.34   23.80
   1   8  -6  -63.11   24.35
  -1  -8   6 -103.23   57.31
   1   8   6   15.53   23.91
  -1  -8   6  -17.57   23.39
  -1  -8   6  -20.32   16.90
   2   8  -6   70.48   38.00
  -2  -8  -6  146.75   40.25
   2   8  -6  216.28   37.36
   2   8  -6  195.22   53.42
  -2  -8  -6  213.55   50.27
   2   8  -6  222.49   45.12
  -2  -8   6  215.26   39.60
   2   8   6  170.56   39.98
  -2  -8   6  290.98   60.19
  -2  -8   6  141.99   45.31
  -2  -8   6  131.10   33.97
  -3  -8  -6   66.76   26.38
   3   8  -6   41.84   39.75
   3   8  -6   27.55   22.52
   3   8  -6   30.81   27.00
  -3  -8   6    8.33   29.28
  -3  -8   6   19.99   15.75
   3   8   6   10.74   25.26
  -3  -8   6   16.69   45.16
  -3  -8   6   73.07   21.63
   4   8  -6    7.56   39.40
   4   8  -6   -1.83   28.58
   4   8  -6    4.80   21.79
  -4  -8   6   76.79   48.11
  -4  -8   6   19.74   19.52
  -4  -8   6   -1.23   15.05
  -4  -8   6   12.95   30.39
   5   8  -6    2.00   31.51
   5   8  -6   48.02   24.57
  -5  -8   6   82.53   26.59
  -5  -8   6   43.78   32.49
  -5  -8   6    6.00   52.04
  -5  -8   6   25.85   17.84
   6   8  -6   30.16   34.94
  -6  -8   6   62.20   58.89
  -6  -8   6   48.52   20.24
  -6  -8   6   -8.49   35.78
  -7  -8   6   33.40   41.05
  -7  -8   6    2.39   61.68
   6  -9  -6  361.11   79.45
   5  -9  -6   95.98   38.49
   5  -9  -6   65.50   41.80
  -5   9   6   59.75   38.04
   4  -9  -6   21.92   30.10
   4  -9  -6  -13.56   41.19
  -4   9   6    3.19   29.05
   3  -9  -6   42.76   41.34
   3  -9  -6   21.29   29.46
  -3   9   6   33.92   29.85
  -2   9  -6  114.70   41.10
   2  -9  -6   74.20   49.17
   2  -9  -6  110.83   41.39
  -2   9   6  282.67   41.47
   2  -9   6  129.44   38.04
   2  -9   6  111.58   42.23
  -2   9   6  119.42   39.62
   1  -9  -6   23.64   37.21
   1  -9  -6   -8.03   28.14
  -1   9  -6    8.70   28.00
   1  -9   6    1.78   32.88
   1  -9   6   15.16   21.26
   1  -9   6  -32.44   27.05
  -1   9   6    6.66   28.59
  -1   9   6   12.04   24.38
   0   9  -6   -2.68   26.98
   0   9  -6  -29.12   57.70
   0  -9  -6   33.11   26.54
   0  -9  -6    9.97   41.84
   0   9   6    4.41   28.50
   0  -9   6   41.29   27.57
   0  -9   6   -2.90   18.24
   0  -9   6  -64.07   32.18
   0  -9   6    3.92   52.49
   1   9  -6  -16.44   49.60
  -1  -9  -6  -24.28   42.98
   1   9  -6   39.74   25.87
  -1  -9  -6   -1.94   27.39
   1   9  -6    2.33   21.24
  -1  -9   6   -1.84   26.34
   1   9   6  -11.00   28.81
  -1  -9   6    1.64   32.10
  -1  -9   6  -63.00   53.73
  -1  -9   6   17.31   17.20
   2   9  -6  115.07   37.67
   2   9  -6  159.69   38.86
   2   9  -6   69.32   54.99
  -2  -9  -6  104.17   39.92
  -2  -9  -6  123.00   55.55
   2   9  -6  213.73   43.54
  -2  -9   6  200.51   32.91
  -2  -9   6  215.28   65.14
  -2  -9   6  191.88   46.13
   2   9   6  170.97   41.86
  -2  -9   6  115.81   38.95
   3   9  -6   48.11   26.18
  -3  -9  -6   26.01   28.55
   3   9  -6   26.98   42.56
   3   9  -6   44.87   25.66
  -3  -9   6    1.59   35.24
  -3  -9   6    8.62   15.59
   3   9   6   -2.40   30.97
  -3  -9   6   21.07   20.62
  -3  -9   6   24.74   51.58
   4   9  -6    7.39   24.84
   4   9  -6   -1.92   30.59
   4   9  -6  -44.36   44.78
  -4  -9   6   60.47   34.04
  -4  -9   6   31.81   23.35
  -4  -9   6  121.80   56.26
  -4  -9   6   34.95   17.05
   4   9   6   26.30   31.70
   5   9  -6   72.16   29.65
   5   9  -6   29.60   35.01
  -5  -9   6   28.39   58.24
  -5  -9   6  119.66   22.85
  -5  -9   6   90.84   39.79
  -5  -9   6   50.70   31.00
   6   9  -6  255.31   74.49
  -6  -9   6  292.75   60.33
  -6  -9   6  381.38   90.61
  -6  -9   6  308.27   76.96
  -7  -9   6  495.82  109.48
  -7  -9   6  356.75   96.21
   6 -10  -6  175.58   58.80
  -6  10   6  221.17   59.85
   5 -10  -6  568.25  128.49
   5 -10  -6  670.37  121.45
  -5  10   6  604.85  124.37
   4 -10  -6   58.11   48.18
   4 -10  -6   29.08   35.78
  -4  10   6   35.29   35.52
   3 -10  -6  468.21  106.35
   3 -10  -6  540.83   97.12
  -3  10   6  306.88   96.93
  -3  10   6  539.87   95.46
   2 -10  -6   84.34   45.31
  -2  10  -6   10.47   35.20
   2 -10  -6   41.28   37.17
   2 -10   6   77.70   32.40
  -2  10   6   56.86   31.96
   2 -10   6   66.00   29.11
  -2  10   6   46.12   37.71
  -1  10  -6    9.79   25.72
   1 -10  -6   45.37   33.93
   1 -10  -6   48.78   45.86
  -1  10   6   33.58   30.22
   1 -10   6   41.05   30.58
  -1  10   6    5.08   32.23
   1 -10   6   29.37   40.44
   1 -10   6   32.34   23.98
   0  10  -6  248.63   64.14
   0 -10  -6  284.01   63.54
   0 -10  -6  307.49   74.32
   0  10  -6  114.73   95.70
   0 -10   6  273.65   67.67
   0  10   6  383.58   61.24
   0 -10   6  221.72   54.56
   0 -10   6  343.89   63.84
   0 -10   6  194.14   82.91
   1  10  -6   43.43   62.13
  -1 -10  -6   56.21   45.59
  -1 -10  -6   26.08   32.46
   1  10  -6   13.23   26.00
   1  10  -6   -2.20   33.40
  -1 -10   6   57.38   37.41
  -1 -10   6  -54.17   61.76
  -1 -10   6   -2.75   17.75
  -1 -10   6   -2.09   29.71
   1  10   6   42.24   32.46
  -2 -10  -6   59.65   33.36
   2  10  -6   86.84   51.68
   2  10  -6   55.78   32.01
   2  10  -6   49.43   34.25
   2  10  -6   68.85   30.25
  -2 -10   6   78.26   40.62
  -2 -10   6  184.40   61.27
  -2 -10   6   45.05   30.96
  -2 -10   6   48.45   19.25
   2  10   6   51.36   34.69
  -3 -10  -6  379.79   95.10
   3  10  -6  326.07  109.48
   3  10  -6  452.01   87.80
   3  10  -6  465.04  100.65
   3  10  -6  372.84   92.64
  -3 -10   6  459.43  102.41
  -3 -10   6  493.92  110.81
  -3 -10   6  455.92   93.47
   3  10   6  641.20   90.95
  -3 -10   6  472.27   83.49
   4  10  -6   -4.04   35.26
  -4 -10  -6   -2.71   54.85
   4  10  -6   -2.19   50.23
  -4 -10  -6  -17.80   33.70
   4  10  -6   46.04   28.49
  -4 -10   6   -8.14   16.51
   4  10   6   14.42   34.86
  -4 -10   6  -21.85   38.98
  -4 -10   6   13.52   55.08
  -4 -10   6   -5.60   26.26
   5  10  -6  471.89  118.61
   5  10  -6  498.75  130.90
   5  10  -6  617.67  104.01
  -5 -10   6  511.27  128.99
  -5 -10   6  513.66  121.66
  -5 -10   6  468.49  101.18
  -5 -10   6  636.40  109.80
   6  10  -6  289.68   57.75
   6  10  -6  149.49   46.54
  -6 -10   6  285.28   59.28
  -6 -10   6  132.44   49.01
  -6 -10   6   88.18   39.19
  -6 -10   6  151.03   78.29
  -7 -10   6   48.98   73.03
  -7 -10   6   89.62   51.41
  -8 -10   6  306.06   73.41
  -8 -10   6  145.13   87.16
   6 -11  -6  228.40   55.06
  -6  11   6   77.76   55.76
   5 -11  -6  -17.18   42.23
   5 -11  -6  110.07   48.50
  -5  11   6   41.81   42.93
   4 -11  -6  169.15   63.65
   4 -11  -6  -24.48   50.90
  -4  11   6  152.71   47.73
   3 -11  -6   92.36   49.39
   3 -11  -6  133.76   57.92
  -3  11   6  179.09   55.49
   3 -11   6   87.68   42.89
  -3  11   6  180.36   46.99
  -2  11  -6   19.44   38.11
   2 -11  -6   28.96   51.62
   2 -11  -6    2.57   37.63
   2 -11   6   36.99   44.72
  -2  11   6   -6.90   36.72
  -2  11   6   46.19   42.54
   2 -11   6   -7.42   35.34
   1 -11  -6 1506.36  237.98
   1 -11  -6 1059.45  224.76
   1 -11   6  914.94  234.30
  -1  11   6 1121.05  209.98
   1 -11   6 1131.84  223.43
   0 -11  -6    2.45   53.91
   0  11  -6   52.26  103.95
   0  11  -6   -2.60   38.64
   0  11  -6   10.00   35.96
   0 -11  -6  -24.66   37.31
   0 -11   6  -14.65   44.75
   0  11   6  -22.71   37.55
   0 -11   6  -10.39   21.66
   0 -11   6   57.74   38.30
  -1 -11  -6 1257.25  217.80
   1  11  -6 1188.99  202.32
  -1 -11  -6 1056.48  233.32
   1  11  -6 1149.56  240.80
  -1 -11   6  999.32  252.30
   1  11   6 1084.05  203.62
  -1 -11   6  934.34  230.84
  -1 -11   6 1292.03  217.79
  -1 -11   6  854.74  200.32
   2  11  -6   -7.10   35.64
   2  11  -6  -20.16   32.99
   2  11  -6   -2.73   29.47
   2  11  -6    5.11   57.24
  -2 -11  -6   36.68   33.44
  -2 -11   6   18.06   41.37
  -2 -11   6    4.47   31.49
  -2 -11   6  -98.72   65.65
   2  11   6    5.76   37.59
  -2 -11   6   12.99   16.11
  -3 -11  -6  205.85   47.71
   3  11  -6  277.21   46.04
   3  11  -6  126.07   47.91
   3  11  -6  199.98   64.72
   3  11  -6  177.41   43.99
  -3 -11   6  107.47   41.82
  -3 -11   6  116.84   33.75
  -3 -11   6  217.80   69.29
  -3 -11   6  161.93   54.75
   3  11   6  179.30   46.46
   4  11  -6  103.77   42.88
  -4 -11  -6  197.35   66.43
   4  11  -6  189.21   40.84
   4  11  -6  115.62   60.99
  -4 -11  -6  108.28   43.97
  -4 -11   6   91.95   39.43
  -4 -11   6   41.81   64.81
   4  11   6  157.45   47.50
  -4 -11   6   99.40   50.41
  -4 -11   6  131.60   29.13
   5  11  -6   51.83   39.93
   5  11  -6   39.44   59.17
   5  11  -6    9.58   33.88
  -5 -11   6   49.98   63.92
  -5 -11   6    5.03   21.05
  -5 -11   6  -19.06   47.82
  -5 -11   6   28.52   30.00
   6  11  -6  149.58   48.97
   6  11  -6  131.57   40.82
  -6 -11   6  101.83   51.95
  -6 -11   6   63.06   32.64
  -6 -11   6  112.81   40.61
  -6 -11   6  123.27   72.40
  -7 -11   6   61.45   57.07
  -7 -11   6  212.63   79.52
  -8 -11   6   10.68   76.81
  -8 -11   6   30.39   53.52
   5 -12  -6  199.97   58.50
  -5  12   6  187.61   57.23
   4 -12  -6  241.84   73.78
   4 -12  -6  236.52   61.20
  -4  12   6  169.78   63.72
  -4  12   6  284.23   71.47
   3 -12  -6   28.98   43.24
   3 -12  -6   40.42   58.77
   3 -12   6    5.23   35.46
  -3  12   6  -44.51   52.07
  -3  12   6  -56.94   45.34
  -2  12  -6  474.94  122.65
   2 -12  -6  549.16  121.82
   2 -12  -6  697.64  134.20
   2 -12   6  586.04  128.11
  -2  12   6  573.90  121.74
  -2  12   6  759.50  117.05
   2 -12   6  443.54  118.31
   1 -12  -6  -72.35   56.16
  -1  12  -6   -3.99   38.70
   1 -12  -6   65.19   43.35
   1 -12   6  -16.75   39.17
  -1  12   6   12.97   47.49
   1 -12   6  -54.42   48.36
  -1  12   6  -22.32   41.38
   0 -12  -6  902.85  186.12
   0  12  -6  922.65  173.38
   0  12  -6  790.90  188.37
   0 -12  -6  988.38  199.64
   0  12   6 1119.67  174.92
   0  12   6 1115.17  188.73
   0 -12   6  718.76  193.65
   0 -12   6  849.81  186.07
   1  12  -6    5.68   41.95
  -1 -12  -6   -2.71   40.53
  -1 -12  -6   46.01   62.08
   1  12  -6  -30.05   37.98
   1  12   6    3.13   43.09
  -1 -12   6  -26.48   37.68
  -1 -12   6  -34.40   46.71
  -2 -12  -6  400.54  117.32
   2  12  -6  587.24  109.27
   2  12  -6  493.67  118.03
   2  12   6  660.15  112.28
  -2 -12   6  591.66  124.77
  -2 -12   6  594.18  117.33
   3  12  -6   -2.67   37.42
   3  12  -6  -20.33   30.52
  -3 -12  -6   13.85   37.76
  -3 -12  -6   -2.83   57.77
  -3 -12   6   21.41   34.22
  -3 -12   6   -4.47   47.79
   3  12   6   55.36   40.33
   4  12  -6  194.72   51.02
  -4 -12  -6   -3.18   76.20
  -4 -12  -6  183.86   55.98
   4  12  -6  210.31   52.05
   4  12   6  276.14   57.96
  -4 -12   6  135.54   49.88
  -4 -12   6  285.69   66.05
   5  12  -6    8.02   41.11
   5  12   6   -3.77   49.06
  -5 -12   6   76.02   39.04
  -5 -12   6   18.63   54.23
   6  12  -6   36.11   76.99
   6  12  -6   33.76   36.97
   6  12  -6  113.60   47.76
  -6 -12   6   12.11   54.65
  -6 -12   6  -15.74   37.02
  -7 -12   6   -7.57   55.00
  -8 -12   6  998.33  230.61
   6 -13  -6   39.88   67.16
   6 -13  -6   84.75   60.28
  -6  13   6   69.68   57.36
   5 -13  -6   29.34   59.65
  -5  13   6   10.05   52.20
   3 -13   6   63.47   45.00
  -2  13  -6  -37.40   52.06
   2 -13   6   32.96   41.55
   2 -13   6   24.61   55.04
  -1  13  -6  507.12  102.95
   1 -13   6  325.17   98.57
   1 -13   6  434.38  105.85
   0  13  -6   26.21   49.96
   0  13  -6  -32.67   46.70
   0 -13   6  -70.47   55.95
   0 -13   6  -36.95   44.37
   1  13  -6  516.24   99.70
   1  13  -6  466.53  106.40
  -1 -13   6  427.08  105.24
  -1 -13   6  541.85  113.43
   2  13  -6  -49.40   39.79
   2  13  -6  -30.40   47.10
  -2 -13   6  -17.05   42.41
  -2 -13   6  -70.57   56.69
   3  13  -6  105.37   46.65
   3  13  -6  133.63   43.70
  -3 -13   6   -8.01   42.46
  -3 -13   6  108.31   56.13
  -4 -13  -6   10.09   67.43
   4  13  -6    6.01   45.61
   4  13  -6    9.92   38.06
  -4 -13   6   -7.53   56.93
  -4 -13   6  -20.84   35.13
   5  13  -6   32.98   41.59
  -5 -13  -6   53.29   83.96
  -5 -13   6   70.44   37.82
  -5 -13   6   93.92   60.11
   5  13   6   28.55   50.60
   6  13  -6  130.27   46.51
  -6 -13   6   92.11   62.52
  -6 -13   6   66.79   45.70
  -7 -13   6   73.79   61.47
   6 -14  -6   54.68   61.55
   6 -14  -6    6.67   70.36
  -6  14   6   29.19   58.96
   5 -14  -6    3.80   55.77
   5 -14  -6  -51.46   67.14
  -5  14   6  -49.89   48.64
  -5  14   6  118.82   82.86
   4 -14  -6   -7.16   53.68
   4 -14  -6 -111.16   69.90
  -4  14   6   10.81   57.74
  -4  14   6   25.39   72.62
   3 -14  -6 -179.20   75.36
   3 -14  -6  -10.49   54.29
  -3  14   6  -10.33   65.12
  -3  14   6  113.03   64.57
   3 -14   6   40.95   43.81
  -2  14  -6   10.18   52.81
   2 -14  -6  -31.51   55.32
   2 -14  -6   19.42   76.33
  -2  14   6   86.51   66.31
  -2  14   6  -40.35   56.47
   1 -14  -6 -118.15   56.79
   1 -14  -6   51.61   73.42
  -1  14   6   14.79   60.05
  -1  14   6   29.05   64.82
   0 -14  -6  270.64   78.96
   0  14  -6   -3.67   59.97
   0 -14  -6  196.21   64.32
   0  14   6   88.64   60.21
   0  14   6   56.61   61.49
   1  14  -6   21.10   48.47
  -1 -14  -6 -100.33   53.67
   1  14   6  -35.31   56.78
  -1 -14   6  -39.89   47.83
   2  14  -6   72.05   45.99
  -2 -14  -6    6.62   48.86
  -2 -14   6   73.02   47.63
   2  14   6   19.91   54.20
   3  14  -6   10.08   50.46
  -3 -14  -6 -107.04   71.30
  -3 -14  -6  -63.31   49.39
   3  14   6   19.81   54.81
  -3 -14   6  -68.57   45.70
  -4 -14  -6 -122.60   84.80
  -4 -14  -6   30.87   49.04
   4  14  -6   -3.38   50.38
   4  14   6  -58.01   55.22
  -4 -14   6  -17.36   41.44
  -5 -14  -6  111.03   85.49
   5  14  -6   30.19   44.17
  -5 -14  -6   -7.24   50.82
   5  14   6   48.78   57.72
  -5 -14   6   -2.87   40.11
   6 -15  -6  211.20   79.18
   6 -15  -6    4.61   72.49
  -6  15   6   70.28   70.27
   5 -15  -6  -79.07   65.51
   5 -15  -6   -3.53   75.55
  -5  15   6    6.13   67.73
  -5  15   6   50.65   86.01
   4 -15  -6   31.34   57.61
   4 -15  -6  279.41   78.26
  -4  15   6   74.73   85.75
  -4  15   6    6.03   65.61
   3 -15  -6    3.53   75.10
   3 -15  -6  -65.81   56.54
   3 -15   6   61.69   48.03
  -3  15   6   36.49   79.44
  -3  15   6  116.73   65.92
   2 -15  -6  -53.86   60.21
  -2  15  -6   -5.53   58.23
   2 -15  -6   71.15   82.61
   2 -15   6 -115.86   64.49
  -2  15   6  131.26   69.51
  -2  15   6   53.49   70.63
   2 -15   6   21.72   46.75
  -1  15  -6   44.41   61.09
   1 -15  -6  -77.59   77.79
   1 -15  -6   95.32   61.18
  -1  15  -6   26.00   53.06
  -1  15   6    9.34   66.75
   1 -15   6   14.99   57.49
   1 -15   6    9.20   62.53
  -1  15   6   16.92   64.04
   0  15  -6   -4.96   55.40
   0 -15  -6  -93.27   59.53
   0  15  -6   52.71   63.93
   0 -15   6  -77.50   63.36
   0 -15   6  -78.26   57.56
   0  15   6  -31.57   61.36
   0  15   6   16.30   72.69
   1  15  -6   41.86   51.24
  -1 -15  -6   25.89   52.13
   1  15  -6  116.74   55.30
  -1 -15   6   20.78   64.29
   1  15   6   35.12   56.61
  -1 -15   6  -80.92   57.42
  -2 -15  -6  -35.17   80.55
   2  15  -6  284.24   55.82
  -2 -15  -6  -25.64   53.81
   2  15  -6 -129.72   51.03
  -2 -15   6  119.53   51.28
   2  15   6  -83.96   63.15
  -2 -15   6   44.30   63.53
   3  15  -6   -8.84   49.43
   3  15  -6  337.65   58.21
  -3 -15  -6  -80.74   53.75
  -3 -15  -6  -25.38   86.70
  -3 -15   6   58.70   66.36
   3  15   6   35.06   58.25
  -3 -15   6  178.99   48.42
  -4 -15  -6   41.32   57.68
   4  15  -6   -4.36   52.83
  -4 -15  -6   31.39   83.49
   4  15  -6   94.79   54.49
  -4 -15   6    2.98   64.62
  -4 -15   6  182.49   48.85
   4  15   6   22.74   62.95
   5  15  -6   58.10   54.19
   5  15  -6   41.18   53.05
  -5 -15  -6   46.68   55.53
  -5 -15  -6   45.29   93.15
  -5 -15   6  -33.81   68.43
  -5 -15   6   34.72   46.60
   5  15   6   29.00   64.63
   6  15  -6    7.60   51.67
  -6 -15   6   -3.12   69.77
  -6 -15   6   81.20   46.17
   6 -16  -6  171.09   88.22
   6 -16  -6 -262.89   73.90
  -6  16   6   14.06   77.28
  -6  16   6  182.43  113.19
   5 -16  -6    3.87   83.55
   5 -16  -6   45.21   69.67
  -5  16   6   54.42   74.09
  -5  16   6  -21.53  108.89
   4 -16  -6   11.34   78.68
   4 -16  -6  -85.53   68.35
  -4  16   6  -64.47   89.35
  -4  16   6  -60.59   75.07
   3 -16  -6  138.77   81.90
   3 -16  -6    8.48   61.89
   3 -16   6   15.04   51.10
  -3  16   6   19.76   70.88
  -3  16   6  -58.48   84.80
  -2  16  -6    4.31   64.27
  -2  16  -6    6.01   60.54
   2 -16  -6   -4.21   62.36
   2 -16  -6  105.44   91.97
   2 -16   6  -66.24   71.30
  -2  16   6  -70.79   77.87
   2 -16   6  -79.53   59.03
  -2  16   6   21.77   79.85
   1 -16  -6  -76.09   84.71
   1 -16  -6   -4.17   64.28
  -1  16  -6   -8.94   67.47
  -1  16  -6   51.07   63.35
   1 -16   6   20.01   65.50
   1 -16   6   44.75   61.18
  -1  16   6  -21.01   77.15
  -1  16   6 -159.56   81.10
   0  16  -6   -8.81   62.49
   0  16  -6   -5.46   61.02
   0 -16  -6 -106.70   58.69
   0 -16   6   53.73   60.16
   0  16   6   15.05   71.54
   0 -16   6  -41.66   65.77
   1  16  -6   10.40   57.35
   1  16  -6   25.92   63.14
  -1 -16  -6   45.04   60.20
  -1 -16   6   19.32   69.06
   1  16   6   29.50   68.03
  -1 -16   6  -85.14   59.22
  -2 -16  -6   11.52   82.82
  -2 -16  -6  -52.62   63.60
   2  16  -6    5.02   59.64
   2  16  -6   -4.28   64.69
   2  16   6   93.23   71.10
  -2 -16   6   61.55   72.46
  -2 -16   6   -3.87   55.28
  -3 -16  -6  117.34   58.11
  -3 -16  -6  114.18   85.50
   3  16  -6    5.00   58.56
   3  16  -6   20.90   58.93
   3  16   6   -4.87   65.02
  -3 -16   6   29.38   53.56
  -3 -16   6  -12.74   69.14
   4  16  -6    5.04   56.84
  -4 -16  -6   63.87   94.77
  -4 -16  -6    4.13   59.65
   4  16  -6  -59.34   61.22
  -4 -16   6   -7.06   48.77
   4  16   6   10.02   68.07
  -4 -16   6    6.46   69.27
   5  16  -6   35.86   64.98
  -5 -16  -6   63.28   65.33
   5  16  -6  104.18   59.50
  -5 -16  -6   14.68  110.97
  -5 -16   6   26.54   77.97
  -5 -16   6   41.65   53.78
   5  16   6   74.02   78.19
   6  16  -6    5.36   63.95
   6  16  -6   76.09   60.83
   6 -17  -6    5.53   78.68
   6 -17  -6 -135.11   91.30
  -6  17   6   54.29   78.38
  -6  17   6  149.56  128.71
   5 -17  -6    8.50   90.91
   5 -17  -6 -211.31   76.78
  -5  17   6 -121.58  118.11
  -5  17   6   30.26   85.11
   4 -17  -6  -94.63   73.45
   4 -17  -6   66.40   88.51
  -4  17   6 -156.87  100.50
  -4  17   6    7.53   84.36
   3 -17  -6 -129.88   70.94
   3 -17  -6  154.51   91.60
  -3  17  -6  -45.08   69.02
   3 -17   6  -24.62   62.24
  -3  17   6    7.45   82.44
  -3  17   6   26.09   87.72
   2 -17  -6  106.33   70.66
   2 -17  -6    8.50   99.57
  -2  17  -6   -6.54   77.93
  -2  17  -6   23.56   69.50
  -2  17   6    7.27   70.55
  -2  17   6  -79.93   94.64
   2 -17   6  -86.87   80.55
   2 -17   6  -17.22   73.31
  -1  17  -6   -6.20   61.93
   1 -17  -6 -221.10   91.23
   1 -17  -6  -50.01   68.36
  -1  17  -6  -73.21   73.51
  -1  17   6 -111.71   94.02
   1 -17   6   -3.62   79.22
   1 -17   6   57.43   70.04
  -1  17   6   57.68   74.78
   0 -17  -6   22.55   66.60
   0  17  -6   12.00   67.00
   0  17  -6    4.84   69.71
   0 -17   6  -99.78   72.42
   0 -17   6  -80.16   81.97
   0  17   6 -101.09   77.34
  -1 -17  -6    4.11   92.59
   1  17  -6   87.42   64.34
   1  17  -6   14.32   69.03
  -1 -17  -6    4.51   69.82
  -1 -17   6 -135.38   76.76
   1  17   6  -33.11   77.10
  -1 -17   6    4.46   65.14
  -2 -17  -6  -42.04   95.25
  -2 -17  -6  -40.20   64.35
   2  17  -6   23.69   68.97
   2  17  -6   -5.64   63.90
  -2 -17   6  -35.20   80.57
  -2 -17   6  -21.22   56.14
   2  17   6   -7.17   89.85
   2  17   6  -27.27   76.06
  -3 -17  -6    4.29   90.13
   3  17  -6   23.20   68.50
   3  17  -6   -5.65   67.37
  -3 -17  -6    8.94   64.36
  -3 -17   6   -8.14   59.73
  -3 -17   6   34.97   79.84
   3  17   6   91.91   70.04
  -4 -17  -6   54.39   65.30
   4  17  -6  -63.66   65.58
   4  17  -6 -160.08   66.44
  -4 -17  -6    4.63   98.71
  -4 -17   6   56.42   84.54
   4  17   6   16.60   74.87
  -4 -17   6  -35.16   61.17
  -5 -17  -6  -42.49  122.48
   5  17  -6  -32.31   66.16
  -5 -17  -6   -9.22   67.59
   5  17  -6   -5.86   70.64
  -5 -17   6   64.81   82.79
  -5 -17   6  -30.51   56.01
   5  17   6  214.69   80.60
   6 -18  -6  138.96   95.25
  -6  18   6    8.62   88.99
  -6  18   6 -127.42  155.06
   5 -18  -6 -149.12  101.73
   5 -18  -6   10.85   77.19
  -5  18   6 -117.99  138.87
  -5  18   6   -8.46   97.29
   4 -18  -6  158.77  102.57
   4 -18  -6   46.73   79.65
  -4  18   6  -40.03  119.96
  -4  18   6   -8.44   90.98
   3 -18  -6    4.53  104.51
   3 -18  -6   10.15   75.52
  -3  18  -6  -43.74   70.05
  -3  18   6    8.40   87.23
  -3  18   6 -124.67   99.89
   3 -18   6    4.47   66.15
   2 -18  -6 -164.94  100.65
   2 -18  -6   30.18   75.75
  -2  18  -6 -149.69   77.96
  -2  18  -6    7.13   79.79
  -2  18   6   48.46   99.51
  -2  18   6 -221.79  100.09
   2 -18   6  -61.44   80.86
   2 -18   6   -4.65   70.97
  -1  18  -6   -6.79   73.01
   1 -18  -6 -188.85   81.68
  -1  18  -6   36.66   77.78
   1 -18   6  -70.83   82.40
  -1  18   6    8.16   84.70
  -1  18   6   19.81   93.35
   1 -18   6   87.45   76.08
   0  18  -6  -63.17   76.11
   0  18  -6   19.87   71.96
   0 -18  -6    4.97   72.94
   0 -18   6   24.74   71.20
   0  18   6  -63.02   89.98
   0 -18   6   94.76   79.58
  -1 -18  -6  -40.65  106.63
   1  18  -6   -6.51   75.47
   1  18  -6  -26.39   74.58
  -1 -18  -6 -202.55   76.88
  -1 -18   6 -204.88   75.06
   1  18   6    8.19   88.01
  -1 -18   6  -82.40   83.26
   1  18   6   49.70   89.34
   2  18  -6 -127.43   74.64
   2  18  -6   26.17   80.90
  -2 -18  -6   27.14  103.31
  -2 -18  -6    4.95   68.61
  -2 -18   6  -97.86   67.57
  -2 -18   6   18.94   82.33
   2  18   6   18.19   82.42
   2  18   6  -16.42   98.55
   3  18  -6   31.98   73.85
  -3 -18  -6  -19.78   68.92
  -3 -18  -6   98.93   99.13
   3  18  -6  -20.58   78.64
   3  18   6  -48.10   81.24
  -3 -18   6  -94.23   63.36
  -3 -18   6   42.07   82.98
   3  18   6   -8.83  103.71
  -4 -18  -6  146.22  115.63
  -4 -18  -6   15.02   70.88
   4  18  -6    6.57   76.29
   4  18  -6   62.33   74.27
  -4 -18   6  -95.10   86.42
   4  18   6  -36.79   83.30
  -4 -18   6   60.38   64.27
   5  18  -6   -6.79   81.96
  -5 -18  -6   17.37  121.20
  -5 -18  -6 -192.45   76.37
   5  18   6  -38.37   90.65
   6 -19  -6  -66.30  101.47
  -6  19   6  -83.80  166.09
  -6  19   6   -9.62   98.99
   5 -19  -6    6.03   91.14
   5 -19  -6   25.52  108.61
  -5  19   6  -90.69  141.31
  -5  19   6    9.48  104.56
   4 -19  -6  -34.79  109.71
   4 -19  -6   51.24   87.72
  -4  19   6    9.44  105.69
  -4  19   6  -89.39  127.13
   3 -19  -6   11.12   88.15
  -3  19  -6   -5.31   74.59
   3 -19  -6    4.93  111.08
   3 -19   6   43.34   69.25
  -3  19   6  -16.48  112.43
  -3  19   6    9.47  108.42
  -2  19  -6  -11.17   83.34
   2 -19  -6   60.03   89.16
  -2  19  -6    7.77   82.75
   2 -19  -6 -277.54  115.29
  -2  19   6   -9.33  113.42
  -2  19   6   38.97  117.68
   2 -19   6  -25.20   70.34
   1 -19  -6 -266.05   98.08
  -1  19  -6  -45.53   85.31
  -1  19  -6    7.47   83.47
   1 -19   6  -10.61   78.40
   1 -19   6    4.27   90.05
  -1  19   6   -7.35   99.62
   0 -19  -6 -180.12   98.86
   0  19  -6 -138.74   83.88
   0  19  -6  103.34   90.72
   0 -19   6   10.79   85.22
   0  19   6  -63.61  103.15
   0 -19   6  -82.07   90.97
   1  19  -6 -157.22   88.80
  -1 -19  -6 -388.91  109.34
   1  19  -6   14.53   86.85
  -1 -19   6 -100.77   85.72
   1  19   6 -105.15  103.24
   1  19   6 -178.22  115.34
  -1 -19   6   16.06   86.94
   2  19  -6   -7.23   83.18
   2  19  -6   -5.72   87.21
  -2 -19  -6 -223.19   77.82
  -2 -19  -6   -4.93  112.49
  -2 -19   6  -16.36   91.39
  -2 -19   6   15.31   71.43
   2  19   6   -9.57  105.97
   2  19   6   27.10   97.99
  -3 -19  -6  -25.57  110.75
   3  19  -6   57.10   85.20
  -3 -19  -6  -93.12   83.13
   3  19  -6   50.71   82.83
  -3 -19   6   49.42   71.47
   3  19   6   93.84   97.64
   3  19   6   10.22  103.61
  -3 -19   6   83.38   94.88
  -4 -19  -6    5.56  122.72
   4  19  -6   79.89   84.57
  -4 -19  -6    5.52   76.13
   4  19  -6    7.47   89.52
  -4 -19   6  -71.13   67.53
  -4 -19   6  129.20   94.83
   4  19   6   61.40   89.83
   4  19   6 -353.00  144.37
  -5 -19  -6   -6.34  137.54
  -5 -19  -6   61.54   75.68
   5  19   6   28.33   92.86
   3 -20  -6   72.85  100.74
  -3  20   6   37.15  125.00
  -2  20  -6    8.53   88.80
  -2  20  -6   71.32   86.87
   2 -20  -6 -273.86   91.09
  -2  20   6    8.74  131.94
  -1  20  -6   -8.25   85.81
   1 -20  -6   29.69   90.67
  -1  20  -6  -61.32   95.30
  -1  20   6  107.11  112.89
   1 -20   6  -32.34   92.96
   1 -20   6   23.10   84.60
   0  20  -6   -8.09   87.46
   0 -20  -6  108.03   92.18
   0  20  -6   50.52   96.37
   0 -20   6  -17.66   81.06
   0  20   6  -95.54  117.55
   0 -20   6  -13.42   97.90
  -1 -20  -6   23.97   95.00
   1  20  -6   12.74   92.84
  -1 -20  -6   -5.24  121.05
   1  20  -6    8.11   90.59
   1  20   6   62.89  116.11
  -1 -20   6   48.05   98.34
  -1 -20   6    5.76   81.52
   1  20   6   32.45  132.10
   2  20  -6  144.61   94.78
   2  20  -6 -131.00   85.37
  -2 -20  -6 -209.88   92.06
  -2 -20   6  -39.13   81.33
  -2 -20   6  -96.80   98.41
   2  20   6 -113.71  109.03
   3  20  -6   32.99   85.52
  -3 -20  -6    6.08   80.33
   3  20  -6   -6.34   92.33
  -3 -20   6   49.19  101.18
   3  20   6   90.03   99.92
  -3 -20   6   10.79   79.15
   4  20  -6  101.83   98.31
   0  21  -6 -124.04  100.68
   0 -21   6  -76.50   88.47
   1  21  -6   83.29   98.62
  -1 -21   6    6.29   91.68
  -1 -21   6  -14.30   98.67
   2  21  -6  -34.50   96.65
  -2 -21   6  -79.91   90.58
   3  21  -6   28.05  108.48
  -3 -21   6   23.52   83.08
   0   0  -7    7.93   18.63
   0   0   7    4.65    9.79
   0   0   7   -8.12   24.19
   0   1  -7  256.92   47.72
   1   0  -7  168.77   44.78
   0  -1  -7  221.41   45.75
  -1   0   7  222.79   38.71
   0  -1   7  219.29   40.12
  -1   0   7  153.41   48.28
   0  -1   7  280.25   51.74
   0   1   7  156.78   40.03
   1  -1  -7    4.15    8.45
   1   1  -7   24.31   16.03
   1  -1  -7   -4.87    9.51
   1  -1  -7    7.20   13.91
  -1   1   7  -13.51   20.72
  -1   1   7    1.38    6.64
  -1   1   7    8.83    4.59
  -1  -1   7   17.11   21.38
  -1  -1   7   -0.89    7.09
   2   1  -7  124.99   28.72
   1  -2  -7  129.62   29.01
   1  -2  -7  110.24   24.76
   1  -2  -7  120.20   26.98
  -2  -1   7  109.26   32.71
  -1   2   7   97.38   21.73
  -1   2   7  137.77   32.87
  -2  -1   7  121.17   22.35
  -1   2   7  132.19   22.39
   2   0  -7    2.55   14.05
   0   2  -7   17.87   21.84
   0  -2  -7    4.16    9.37
   0  -2   7  -21.20   28.90
   0   2   7    2.04    9.77
  -2   0   7   -9.75   20.78
  -2   0   7   -0.72    6.32
   1   2  -7   90.50   28.50
   2  -1  -7  131.12   20.89
   2  -1  -7  102.68   24.87
   2  -1  -7   88.03   22.86
  -2   1   7   64.59   20.73
  -2   1   7  108.12   18.72
  -1  -2   7  113.35   33.62
  -2   1   7   94.07   19.57
  -2   1   7   91.24   28.74
   2  -2  -7    5.63    9.29
   2   2  -7    8.44   17.01
   2  -2  -7   -6.21   10.96
   2  -2  -7   -9.42   12.54
   2  -2  -7   -2.52    7.93
  -2   2   7    0.62    6.15
  -2  -2   7    3.50   24.60
  -2   2   7    1.63    5.30
  -2   2   7   -4.90    6.88
  -2   2   7    9.35   18.72
   2  -3  -7 2329.66  451.28
   2  -3  -7 2162.75  484.60
   2  -3  -7 2496.89  478.97
  -2   3   7 1919.38  417.97
  -2   3   7 2446.38  448.24
   1  -3  -7  235.53   48.61
   3   1  -7  233.42   47.24
   1  -3  -7  243.91   48.94
   1  -3  -7  215.38   44.33
  -3  -1   7  224.09   52.34
  -3  -1   7  220.91   40.32
  -1   3   7  171.77   40.52
  -1   3   7  227.38   52.59
   0  -3  -7 1755.71  369.86
   0  -3  -7 1827.18  368.45
   0   3  -7 1977.51  366.20
   0   3   7 1957.95  341.21
   0   3   7 1657.34  324.40
   0  -3   7 2074.43  392.89
  -3   0   7 1571.86  373.00
   3  -1  -7  200.72   41.63
   3  -1  -7  222.69   44.77
   1   3  -7  196.87   48.98
  -1  -3   7  141.46   53.22
  -1  -3   7  227.09   41.96
  -1  -3   7  280.29   40.64
  -3   1   7  186.03   38.24
  -3   1   7  137.71   49.95
   2   3  -7 2453.96  472.70
   3  -2  -7 2291.27  468.73
   3  -2  -7 2417.29  494.33
   2   3  -7 2351.10  431.71
   2   3  -7 2348.19  490.70
   3  -2  -7 2608.90  493.26
  -3   2   7 2404.94  500.21
  -2  -3   7 2360.79  497.16
  -3   2   7 2285.93  435.65
  -2  -3   7 2504.18  493.02
  -3   2   7 2456.33  468.84
  -2  -3   7 2295.03  464.01
   3  -3  -7    6.09   14.61
   3   3  -7   -0.87    6.67
   3  -3  -7   -4.11   11.33
   3  -3  -7    2.07   10.20
  -3  -3   7   -6.52    7.34
  -3   3   7    3.16   22.64
  -3  -3   7   -1.26   10.39
  -3   3   7   -2.42   11.21
  -3   3   7   -4.51    6.60
   3  -4  -7 1478.64  261.30
   3  -4  -7 1179.08  249.31
   3  -4  -7 1265.49  263.25
  -3   4   7 1338.89  265.03
  -4  -3   7 1300.86  264.73
  -4  -3   7 1384.46  267.28
  -4  -3   7 1192.98  229.21
   2  -4  -7   23.81   15.43
   2  -4  -7   55.86   12.01
   2  -4  -7   37.27   15.60
   2  -4  -7   44.62   19.50
  -2   4   7   41.35   12.85
  -2   4   7   22.81   21.90
  -2   4   7   36.34    9.09
  -2   4   7   38.73   14.20
   1  -4  -7  345.90   61.84
   1  -4  -7  307.60   66.79
   1  -4  -7  316.31   67.48
  -1   4   7  300.68   57.26
  -1   4   7  299.20   56.87
  -1   4   7  299.51   69.88
   0  -4  -7   13.93   13.22
   0  -4  -7   -3.16   18.20
   0   4  -7   24.32   28.92
   0   4   7   -8.95   10.50
   0  -4   7   15.26   37.17
  -4   0   7    3.28   24.97
   0   4   7   -6.11   10.90
   4  -1  -7  362.88   65.20
   1   4  -7  299.61   60.82
  -1  -4  -7  277.12   65.57
  -4   1   7  343.14   57.28
  -4   1   7  364.80   69.23
  -1  -4   7  340.98   64.71
   1   4   7  233.75   56.82
  -1  -4   7  252.00   61.17
   4  -2  -7   24.78   16.50
   2   4  -7   31.10   12.24
   2   4  -7   52.82   12.18
  -2  -4   7   44.78   11.78
  -2  -4   7   29.20   15.28
  -4   2   7   37.74   24.70
  -4   2   7   37.31   10.90
   4  -3  -7 1128.20  242.16
   3   4  -7 1305.54  226.69
  -3  -4   7 1259.61  247.44
  -3  -4   7 1005.88  259.54
  -4   3   7 1321.18  263.89
  -3  -4   7 1376.60  259.68
  -3  -4   7 1399.63  224.54
   4   4  -7   -3.02   20.08
   4  -4  -7   -1.02   15.87
   4  -4  -7   -1.13   17.21
  -4  -4   7   40.17   37.14
  -4  -4   7  -16.50   10.77
  -4   4   7   -3.22   22.56
  -4  -4   7   -4.13   14.58
  -4   4   7   24.33   13.08
   4  -5  -7  894.28  189.61
   5   4  -7  917.81  192.04
  -5  -4   7  925.30  166.00
  -4   5   7  907.98  193.60
  -4   5   7  824.25  182.24
  -3   5   7  652.03  131.51
  -5  -3   7  604.33  135.69
   2  -5  -7 1350.75  283.25
  -5  -2   7 1614.23  285.82
  -2   5   7 1516.87  288.77
   5   1  -7   35.41   16.89
  -5  -1   7   -6.02    9.33
  -1   5   7   10.11    4.73
  -5  -1   7   -6.64   32.04
   0   5  -7 2572.16  516.18
   0  -5   7 2731.45  523.75
   1   5  -7   15.48   13.36
  -1  -5  -7  -11.40   22.67
  -1  -5   7    5.11   16.67
  -1  -5   7   13.16   13.14
   2   5  -7 1490.39  260.35
  -2  -5  -7 1542.68  282.84
  -2  -5   7 1626.63  291.00
  -2  -5   7 1533.77  272.87
  -2  -5   7 1551.61  286.37
   3   5  -7  554.39  112.69
   3   5  -7  710.95  129.58
  -3  -5   7  634.56  121.64
  -3  -5   7  496.37  129.28
  -3  -5   7  719.66  133.75
   4   5  -7 1007.76  168.57
  -4  -5   7  799.44  197.60
  -4  -5   7  875.93  167.24
  -4  -5   7  990.84  198.67
  -4  -5   7  965.87  185.35
   5  -5  -7  -11.09   22.41
   5   5  -7  -12.21   25.34
  -5  -5   7   -1.22   13.04
  -5  -5   7   -4.92   20.46
  -5  -5   7  -54.85   45.73
   6   5  -7  191.17   44.06
   5  -6  -7   56.54   39.05
  -6  -5   7  110.86   33.52
  -5   6   7  161.10   39.79
  -6  -5   7  151.16   59.24
  -6  -5   7  282.05   42.97
   4  -6  -7  602.61  123.32
   6   4  -7  624.59  131.55
   4  -6  -7  633.35  129.52
  -4   6   7  595.26  126.40
  -6  -4   7  702.59  114.94
  -6  -4   7  656.62  137.26
   3  -6  -7  756.15  165.36
   3  -6  -7  826.69  176.17
  -3   6   7  793.50  167.10
  -3   6   7  804.88  175.47
  -6  -3   7 1034.24  180.02
   2  -6  -7  567.45  136.85
  -2   6   7  526.61  118.93
  -6  -2   7  740.42  139.37
  -6  -2   7  726.13  119.88
   6   1  -7  245.44   54.41
   1  -6  -7  231.57   49.89
   1  -6  -7  210.33   56.95
  -1   6   7  234.99   46.44
   1  -6   7  227.20   48.71
   0  -6  -7   -1.31   18.18
   0  -6  -7   -1.44   27.72
   0  -6   7    1.44   17.10
   0   6   7  -17.20   16.82
  -1  -6  -7  223.33   57.98
   1   6  -7  292.11   61.63
  -1  -6  -7  281.10   52.24
  -1  -6   7  313.58   48.15
  -1  -6   7  277.40   69.49
  -1  -6   7  181.30   50.35
   1   6   7  193.54   47.72
   2   6  -7  556.97  119.11
   2   6  -7  511.62  139.69
  -2  -6  -7  701.78  135.64
   2   6  -7  666.53  129.84
  -2  -6   7  635.49  119.61
  -2  -6   7  668.60  136.07
  -2  -6   7  722.50  143.13
   2   6   7  711.67  120.10
   3   6  -7  962.82  174.65
   3   6  -7  848.61  175.54
   3   6  -7  821.04  151.87
  -3  -6   7  680.27  150.54
  -3  -6   7  895.90  178.18
  -3  -6   7  848.84  162.52
  -3  -6   7  793.82  173.48
   4   6  -7  633.03  120.83
   4   6  -7  477.88  102.65
  -4  -6   7  481.83  112.27
  -4  -6   7  565.97  126.15
   5   6  -7   94.61   42.21
  -5  -6   7  176.11   32.11
  -5  -6   7  185.65   59.22
   6   6  -7  -27.36   28.14
   6  -6  -7   21.70   35.10
  -6  -6   7  -10.48   53.77
  -6  -6   7    6.02   16.86
   7   6  -7   83.42   43.94
   6  -7  -7   57.22   39.46
  -7  -6   7  185.00   63.60
   7   5  -7   48.95   31.48
   5  -7  -7   35.10   32.87
   5  -7  -7   41.68   28.94
  -7  -5   7   39.94   52.81
  -5   7   7   32.25   28.94
   4  -7  -7  542.21  119.77
   4  -7  -7  552.23  113.15
  -4   7   7  609.83  119.14
  -4   7   7  541.59  116.01
   3  -7  -7  706.16  109.46
   3  -7  -7  410.54  101.01
  -3   7   7  421.81  103.37
  -3   7   7  534.21  100.79
   2  -7  -7  877.79  162.20
   2  -7  -7  655.42  173.11
  -2   7   7  803.31  151.35
  -2   7   7  899.84  160.32
   1  -7  -7  -13.80   19.63
   1  -7  -7   20.21   30.68
   1  -7   7   -3.12   20.34
   1  -7   7    3.57   20.35
  -1   7   7    5.04   21.03
   0   7  -7   12.46   20.54
   0  -7  -7   53.53   33.81
   0  -7  -7   18.05   21.36
   0   7  -7   28.13   46.67
   0  -7   7   41.01   19.42
   0  -7   7   11.98   50.40
   0   7   7   35.32   21.52
   0  -7   7   35.13   21.86
   0  -7   7   45.53   24.49
   1   7  -7   19.75   41.75
  -1  -7  -7   17.37   21.65
  -1  -7  -7   10.31   32.96
   1   7  -7   -9.26   17.48
   1   7   7  -24.50   22.48
  -1  -7   7   -9.57   50.05
  -1  -7   7   20.64   15.94
  -1  -7   7   64.08   18.94
  -1  -7   7  -26.26   23.61
   2   7  -7  994.31  174.84
  -2  -7  -7  830.89  171.40
   2   7   7  926.49  149.50
  -2  -7   7  418.48  178.71
  -3  -7  -7  427.65   95.96
   3   7  -7  328.77  102.82
  -3  -7   7   72.43  109.07
  -3  -7   7  674.40   96.50
   3   7   7  430.57   84.05
   4   7  -7  562.87  119.89
   4   7  -7  619.27  123.17
  -4  -7   7  458.02  101.06
  -4  -7   7  508.77  119.11
  -4  -7   7  646.51  124.96
   5   7  -7   18.84   20.34
   5   7  -7   25.59   29.31
  -5  -7   7    7.32   24.06
  -5  -7   7   18.12   54.13
  -5  -7   7   33.12   29.28
  -5  -7   7    8.21   16.32
   6   7  -7  178.15   41.04
  -6  -7   7  116.15   28.96
  -6  -7   7  113.50   61.83
  -6  -7   7   83.64   39.39
   7   7  -7   33.66   37.39
  -7  -7   7   19.95   34.24
  -7  -7   7   -7.32   65.37
   6  -8  -7   45.06   34.91
   5  -8  -7  -20.34   35.85
   5  -8  -7   -2.11   28.99
  -5   8   7   16.01   31.09
   4  -8  -7  183.44   49.60
   4  -8  -7  184.01   43.93
  -4   8   7  119.47   43.38
   3  -8  -7   -5.72   28.27
   3  -8  -7  -10.37   35.48
  -3   8   7   14.87   26.37
  -3   8   7    8.64   27.44
   2  -8  -7  432.73   73.95
   2  -8  -7  319.73   82.17
  -2   8   7  263.79   69.96
  -2   8   7  297.50   72.77
   1  -8  -7  122.39   41.53
  -1   8  -7   79.92   30.25
   1  -8  -7  104.56   31.01
   1  -8   7  131.91   28.61
   1  -8   7   19.68   33.00
  -1   8   7   78.11   30.41
   1  -8   7   23.70   25.59
   0  -8  -7  -24.13   24.94
   0   8  -7  -14.60   25.79
   0  -8  -7   36.71   34.67
   0   8  -7   -2.68   51.86
   0  -8   7    4.72   20.02
   0   8   7    9.79   25.09
   0  -8   7  -20.89   51.87
   0  -8   7   16.26   26.49
   0  -8   7   -5.28   24.30
   1   8  -7   85.48   49.84
  -1  -8  -7   87.65   41.61
   1   8  -7   83.24   29.26
  -1  -8  -7   73.70   30.38
  -1  -8   7  126.57   29.51
   1   8   7   84.90   30.31
  -1  -8   7  144.64   35.51
  -1  -8   7  113.67   57.93
  -1  -8   7   51.89   24.39
  -2  -8  -7  357.49   78.41
   2   8  -7  399.13   77.88
   2   8  -7  447.06   71.81
   2   8  -7  307.71   88.76
  -2  -8  -7  327.68   86.75
  -2  -8   7  372.03   70.64
  -2  -8   7  379.23   95.31
  -2  -8   7  438.50   82.87
  -2  -8   7  418.80   76.21
   2   8   7  243.19   72.54
   3   8  -7   -1.88   29.46
  -3  -8  -7    7.99   38.26
   3   8  -7   24.01   21.57
   3   8  -7   21.04   40.04
   3   8  -7   -4.65   15.73
  -3  -8  -7   23.14   27.25
  -3  -8   7   17.98   14.75
   3   8   7   42.52   26.06
  -3  -8   7   -1.35   29.57
  -3  -8   7  -22.12   20.36
  -3  -8   7   40.13   50.31
   4   8  -7  152.51   47.14
   4   8  -7  207.31   56.01
   4   8  -7  160.69   36.91
  -4  -8   7  163.41   34.02
  -4  -8   7  225.85   46.22
  -4  -8   7   73.35   61.81
  -4  -8   7  143.04   38.63
   5   8  -7   -3.40   23.23
   5   8  -7  -16.66   30.97
  -5  -8   7    5.51   24.95
  -5  -8   7    2.88   17.96
  -5  -8   7   19.02   30.72
  -5  -8   7   49.54   54.44
   6   8  -7    2.35   34.46
  -6  -8   7   16.78   19.05
  -6  -8   7   45.03   62.09
  -6  -8   7    9.79   34.90
   7   8  -7   90.22   61.30
  -7  -8   7  349.73   61.92
  -7  -8   7  357.59   84.42
  -7  -8   7  195.82   47.42
  -8  -8   7   92.76   73.85
   6  -9  -7  280.91   62.00
  -6   9   7  180.70   61.27
   5  -9  -7  177.63   57.10
   5  -9  -7  344.49   64.42
  -5   9   7  227.20   60.73
   4  -9  -7    5.87   39.73
   4  -9  -7   32.78   31.69
  -4   9   7    9.45   30.44
   3  -9  -7   70.30   42.13
   3  -9  -7   30.08   32.90
  -3   9   7   66.78   33.34
  -3   9   7   50.75   32.19
   2  -9  -7  -33.02   30.16
   2  -9  -7  -17.68   41.46
  -2   9   7  -18.97   31.50
  -2   9   7   17.96   27.11
   2  -9   7   -1.96   26.93
   1  -9  -7   74.83   29.23
  -1   9  -7   38.50   29.55
   1  -9  -7   50.16   45.39
   1  -9   7   41.13   26.20
   1  -9   7   50.66   28.86
  -1   9   7   40.21   31.48
   1  -9   7   75.54   34.47
   0   9  -7   11.09   27.62
   0   9  -7   15.67   59.35
   0  -9  -7   15.67   27.04
   0  -9  -7   59.49   42.91
   0   9   7   26.90   30.42
   0  -9   7   45.82   29.21
   0  -9   7   -4.35   56.01
   0  -9   7   -6.50   19.70
   0  -9   7  -14.94   32.69
  -1  -9  -7   -6.23   45.26
  -1  -9  -7   65.18   29.23
   1   9  -7   24.41   28.01
   1   9  -7   63.06   28.37
   1   9  -7  -15.23   52.99
  -1  -9   7   28.74   62.59
  -1  -9   7   40.25   20.69
   1   9   7   40.94   31.32
  -1  -9   7   61.17   27.75
  -1  -9   7   50.90   34.96
  -2  -9  -7   16.39   27.40
   2   9  -7   -8.92   25.22
  -2  -9  -7    4.35   44.14
   2   9  -7  -10.88   47.26
   2   9  -7  -51.03   23.40
  -2  -9   7   -6.25   32.07
  -2  -9   7    2.81   17.40
   2   9   7   13.95   29.09
  -2  -9   7   35.15   56.51
  -2  -9   7  -11.86   23.14
   3   9  -7  102.85   25.38
  -3  -9  -7   26.62   43.18
   3   9  -7   41.26   35.88
  -3  -9  -7   60.68   33.97
   3   9  -7   96.58   27.76
   3   9  -7   50.58   47.39
   3   9   7   71.93   31.48
  -3  -9   7   79.71   57.15
  -3  -9   7   68.67   21.47
  -3  -9   7   90.22   36.59
  -3  -9   7   48.05   26.53
   4   9  -7  -45.15   47.31
   4   9  -7  -12.50   25.17
   4   9  -7    8.25   32.36
  -4  -9   7   15.59   34.07
  -4  -9   7    8.02   56.51
  -4  -9   7   14.74   22.35
  -4  -9   7  -17.61   15.94
   5   9  -7  231.09   56.63
   5   9  -7  181.90   69.27
   5   9  -7  232.30   47.51
  -5  -9   7  186.19   43.88
  -5  -9   7  352.50   77.17
  -5  -9   7  221.73   51.05
  -5  -9   7  149.48   58.50
   6   9  -7  238.68   61.24
  -6  -9   7  171.95   63.18
  -6  -9   7  285.79   47.97
  -6  -9   7  162.22   84.25
   7   9  -7   60.60   52.08
  -7  -9   7  170.73   53.01
  -7  -9   7  383.61   86.79
  -8  -9   7  800.45  187.19
   6 -10  -7  339.80   71.52
  -6  10   7  249.21   71.98
   5 -10  -7    2.57   38.06
   5 -10  -7   31.09   45.01
  -5  10   7   26.72   34.25
   4 -10  -7  165.01   49.66
   4 -10  -7  172.97   55.88
  -4  10   7  147.06   47.26
   3 -10  -7  -39.43   46.74
   3 -10  -7    4.78   36.65
  -3  10   7   -5.68   41.35
  -3  10   7    3.20   35.02
   2 -10  -7  -37.72   49.50
   2 -10  -7  107.46   35.40
   2 -10   7    2.64   35.19
  -2  10   7  -21.00   31.69
   2 -10   7   -4.41   31.02
  -2  10   7   61.91   36.92
   1 -10  -7  364.59   71.32
   1 -10  -7  299.59   60.51
  -1  10  -7  143.44   60.36
  -1  10   7  252.34   60.01
   1 -10   7  211.29   65.22
  -1  10   7  240.27   57.90
   1 -10   7  274.69   58.92
   1 -10   7  245.11   54.66
   0  10  -7   12.43   30.10
   0 -10  -7    2.21   30.02
   0 -10  -7   11.36   48.59
   0  10  -7   52.96   77.71
   0 -10   7   20.06   32.16
   0 -10   7  -13.33   21.83
   0 -10   7   47.35   59.92
   0  10   7   10.19   30.65
   0 -10   7   24.05   39.23
   1  10  -7  248.70   84.87
  -1 -10  -7  272.18   72.87
   1  10  -7  225.87   56.40
   1  10  -7  289.28   60.45
  -1 -10  -7  299.04   60.27
  -1 -10   7  164.24   51.23
  -1 -10   7  257.21   60.46
  -1 -10   7  356.55   86.91
  -1 -10   7  255.98   66.41
   1  10   7  312.04   58.67
  -2 -10  -7  -44.60   46.94
   2  10  -7   36.59   57.42
  -2 -10  -7   -6.77   31.58
   2  10  -7   37.17   30.86
   2  10  -7   26.78   33.90
   2  10  -7   46.30   27.65
  -2 -10   7   15.63   29.30
   2  10   7   -7.85   32.70
  -2 -10   7  -33.27   64.89
  -2 -10   7   36.56   37.32
  -2 -10   7   19.96   18.90
   3  10  -7  -31.04   32.93
   3  10  -7   12.19   27.93
  -3 -10  -7   -2.47   50.79
   3  10  -7    2.33   54.16
  -3 -10  -7   31.39   32.46
   3  10  -7   -8.54   22.90
  -3 -10   7    6.24   59.92
  -3 -10   7   20.81   19.53
   3  10   7   16.50   34.63
  -3 -10   7  -12.87   25.93
  -3 -10   7  -10.44   36.71
   4  10  -7  195.45   52.36
   4  10  -7  188.01   64.76
   4  10  -7  170.33   42.74
  -4 -10   7  173.23   42.64
  -4 -10   7   95.77   34.94
   4  10   7  140.29   47.05
  -4 -10   7  284.51   70.45
  -4 -10   7  219.81   53.73
   5  10  -7   26.95   30.94
   5  10  -7   17.83   57.37
   5  10  -7   67.33   38.56
  -5 -10   7   71.75   41.74
  -5 -10   7  -15.73   65.51
  -5 -10   7   81.82   30.85
  -5 -10   7   44.45   21.74
   6  10  -7  320.05   58.77
   6  10  -7  317.43   70.10
  -6 -10   7  188.30   53.35
  -6 -10   7  299.40   62.68
  -6 -10   7  312.15   89.89
  -6 -10   7  199.72   71.27
   7  10  -7  167.60   63.04
  -7 -10   7  237.61   66.02
  -7 -10   7  300.35   93.70
  -8 -10   7   11.33   79.75
   7 -11  -7   82.84   58.56
   6 -11  -7   66.09   46.28
   6 -11  -7   15.51   53.94
  -6  11   7   82.05   45.46
   5 -11  -7  522.22   87.78
   5 -11  -7  407.17   94.62
  -5  11   7  351.42   89.55
   4 -11  -7  -59.87   44.42
   4 -11  -7   33.96   53.90
  -4  11   7   50.67   40.31
  -4  11   7   -3.46   50.87
  -3  11   7   39.86   45.05
  -3  11   7  188.42   53.86
   2 -11  -7  347.00   96.74
   2 -11  -7  311.40   87.08
  -2  11  -7  424.45   88.27
  -2  11   7  513.07   84.91
  -2  11   7  462.54   85.90
   2 -11   7  281.94   80.62
   2 -11   7  445.85   84.74
   1 -11  -7  -66.71   39.94
  -1  11  -7  -66.62   41.15
   1 -11  -7   42.66   55.74
   1 -11   7   -1.88   26.25
  -1  11   7  -16.35   35.17
   1 -11   7   39.37   41.25
   1 -11   7  -22.89   36.75
  -1  11   7  -17.45   39.17
   0  11  -7  761.33  198.23
   0  11  -7  722.71  160.06
   0 -11  -7  853.38  156.44
   0 -11  -7  834.46  169.29
   0 -11   7  732.72  156.97
   0 -11   7  792.77  144.13
   0  11   7  667.42  146.84
   0 -11   7  740.27  163.25
   1  11  -7  -13.38   76.69
  -1 -11  -7  -12.61   53.46
   1  11  -7    2.49   34.97
  -1 -11  -7    2.47   36.41
   1  11  -7   -6.10   32.93
   1  11   7    5.73   39.01
  -1 -11   7   -6.27   19.36
  -1 -11   7    2.37   33.97
  -1 -11   7    2.04   42.88
  -1 -11   7    4.98   71.08
  -2 -11  -7  178.18   92.38
   2  11  -7  431.03   82.05
   2  11  -7  372.75   88.30
   2  11  -7  214.51  102.60
   2  11  -7  427.68   76.03
  -2 -11  -7  334.24   81.05
  -2 -11   7  389.96   87.94
  -2 -11   7  432.06   80.80
  -2 -11   7  395.25  109.29
   2  11   7  388.60   79.59
  -2 -11   7  359.88   70.03
   3  11  -7  148.44   45.03
   3  11  -7   93.91   63.19
   3  11  -7    7.49   32.70
   3  11  -7  118.38   41.25
  -3 -11  -7  152.11   45.42
  -3 -11   7  110.84   37.60
  -3 -11   7  385.84   75.40
  -3 -11   7  203.83   49.29
   3  11   7  301.76   49.02
  -3 -11   7   51.02   27.42
   4  11  -7   -4.81   28.57
   4  11  -7   25.81   60.96
   4  11  -7  -25.39   33.62
   4  11  -7   34.14   38.68
  -4 -11  -7   64.19   39.31
  -4 -11   7   40.94   19.43
  -4 -11   7   37.15   30.62
  -4 -11   7  -47.33   42.56
  -4 -11   7   41.03   63.87
   4  11   7  -13.09   41.14
   5  11  -7  296.61   64.79
   5  11  -7  308.92   94.77
   5  11  -7  339.26   77.46
  -5 -11   7  228.56   79.09
  -5 -11   7  258.58   59.65
  -5 -11   7  301.46   66.75
  -5 -11   7  349.58   93.90
   6  11  -7    5.54   46.27
   6  11  -7  -15.65   67.46
   6  11  -7   12.35   33.47
  -6 -11   7   51.81   35.79
  -6 -11   7   83.54   48.80
  -6 -11   7   60.30   77.24
  -6 -11   7   15.36   23.86
   7  11  -7   92.86   53.97
  -7 -11   7  -57.27   78.44
  -7 -11   7    6.74   50.56
  -8 -11   7  145.51   88.17
   5 -12  -7  175.35   62.40
  -5  12   7  294.24   60.88
   4 -12  -7   11.99   45.44
   4 -12  -7  138.51   59.84
  -4  12   7  -26.09   46.26
  -4  12   7  -31.11   50.38
   3 -12  -7  576.47   94.70
   3 -12  -7  466.93  107.28
  -3  12   7  420.69   94.82
  -3  12   7  294.57   95.57
  -2  12  -7  -30.61   43.74
   2 -12  -7   54.19   62.06
   2 -12  -7  107.61   45.28
  -2  12   7  -11.92   41.57
  -2  12   7  -65.21   49.23
   2 -12   7   -2.74   35.85
   1 -12  -7 1189.15  250.82
  -1  12  -7 1101.67  238.49
   1 -12  -7 1105.30  237.50
  -1  12   7 1279.47  220.90
   1 -12   7 1197.83  234.12
  -1  12   7 1160.14  236.45
   1 -12   7 1248.59  247.80
   0 -12  -7   -5.53   40.78
   0  12  -7   -5.77   38.50
   0  12  -7   11.35   41.25
   0 -12  -7   11.01   64.56
   0  12   7   71.20   46.67
   0 -12   7  -20.23   46.18
   0 -12   7   33.84   42.30
   1  12  -7 1114.50  235.14
   1  12  -7  981.49  212.55
  -1 -12  -7 1311.27  247.86
  -1 -12  -7 1148.60  231.26
  -1 -12   7 1104.30  242.52
  -1 -12   7 1157.59  230.53
  -2 -12  -7    2.78   62.27
   2  12  -7   52.99   35.20
  -2 -12  -7    5.52   41.01
   2  12  -7   45.41   40.54
   2  12   7  -13.04   45.37
  -2 -12   7  -49.97   47.33
  -2 -12   7   -2.52   34.76
   3  12  -7  244.62   82.03
   3  12  -7  369.94   79.03
  -3 -12  -7  414.79   83.78
  -3 -12   7  376.49   90.15
  -3 -12   7  309.18   81.30
   3  12   7  487.78   83.07
   4  12  -7    2.36   38.56
   4  12  -7  -27.72   34.09
  -4 -12  -7   20.87   37.69
   4  12  -7  -52.27   38.51
   4  12  -7   28.26   66.23
   4  12   7   28.52   46.35
  -4 -12   7   27.70   34.14
  -4 -12   7  -28.68   48.67
   5  12  -7  137.88   73.57
   5  12  -7  132.99   45.62
   5  12  -7   94.11   42.07
  -5 -12   7   91.08   39.40
  -5 -12   7   96.48   53.85
  -5 -12   7   60.60   29.48
   6  12  -7   -2.71   37.80
   6  12  -7   23.43   76.45
   6  12  -7   40.82   48.94
  -6 -12   7  -33.42   37.36
  -6 -12   7    2.33   53.26
  -6 -12   7   23.83   25.36
  -6 -12   7   54.14   77.63
   7  12  -7   90.60   47.56
  -7 -12   7  -69.90   86.06
  -8 -12   7 -128.60   93.50
   7 -13  -7   49.49   69.31
   6 -13  -7  204.93   67.64
  -6  13   7   53.42   63.56
   5 -13  -7   -3.44   38.71
   5 -13  -7   38.12   63.34
  -5  13   7   -4.85   53.15
  -5  13   7   40.42   54.15
   4 -13  -7   -2.93   64.50
  -4  13   7   -4.86   50.34
   3 -13   7   -5.77   41.43
  -2  13  -7  205.37   63.45
   2 -13   7  204.84   60.62
  -1  13  -7    4.43   47.93
   1 -13   7    3.12   45.27
   1 -13   7   15.63   52.86
   0  13  -7  410.24  109.71
   0  13  -7  428.67  103.24
   0 -13   7  572.79  114.90
   0 -13   7  526.08  109.89
   1  13  -7  -34.67   45.18
   1  13  -7   68.01   44.41
  -1 -13   7    9.77   47.65
  -1 -13   7  -95.09   43.99
   2  13  -7  168.07   54.16
   2  13  -7  161.99   54.93
  -2 -13   7  184.96   63.76
  -2 -13   7  163.91   54.68
   3  13  -7   47.80   42.69
   3  13  -7    3.32   34.68
  -3 -13   7  -26.49   33.93
  -3 -13   7   26.11   54.72
   4  13  -7    3.16   36.85
  -4 -13  -7  141.99   43.72
   4  13  -7   -2.95   45.45
  -4 -13  -7  -17.07   66.01
   4  13   7  237.76   51.68
  -4 -13   7   67.49   57.06
  -4 -13   7  -23.18   38.99
  -5 -13  -7   45.60   85.81
   5  13  -7    3.26   39.83
   5  13  -7   88.09   43.06
  -5 -13   7   24.81   56.23
  -5 -13   7   87.17   36.76
   6  13  -7  125.45   47.84
  -6 -13   7   73.48   46.33
  -6 -13   7  132.46   66.40
   7 -14  -7    4.85   73.21
   6 -14  -7    4.14   64.73
   6 -14  -7  113.11   73.15
  -6  14   7   58.29   63.98
   5 -14  -7  -64.15   55.47
   5 -14  -7    3.22   67.30
  -5  14   7   27.17   75.52
  -5  14   7  -16.74   63.58
   4 -14  -7   35.81   56.45
   4 -14  -7    9.62   70.67
  -4  14   7  175.48   70.01
  -4  14   7  -43.51   61.87
   3 -14  -7  118.88   84.48
   3 -14  -7  287.84   69.35
  -3  14   7   55.16   75.73
  -3  14   7    5.21   65.40
  -2  14  -7   -5.18   55.96
   2 -14  -7   28.24   55.91
   2 -14  -7  -84.83   79.18
  -2  14   7   25.95   61.41
  -2  14   7   56.28   58.50
   1 -14  -7  122.61   73.61
   1 -14  -7   87.00   58.75
  -1  14   7    8.38   60.56
  -1  14   7   39.97   69.61
   0 -14  -7  -88.35   70.68
   0 -14  -7    3.40   55.23
   0  14  -7   -3.61   54.24
   0 -14   7   -3.41   44.93
   0  14   7  -24.25   55.53
   0  14   7  -19.23   62.13
  -1 -14  -7   42.50   80.28
  -1 -14  -7    3.38   51.97
   1  14  -7   73.19   54.19
   1  14   7  -64.15   60.46
  -1 -14   7   83.03   51.06
  -2 -14  -7  -93.85   53.20
   2  14  -7  -37.26   49.17
  -2 -14   7  222.07   57.21
   2  14   7   80.52   58.49
  -2 -14   7  -60.00   48.89
   3  14  -7   -3.79   45.56
   3  14  -7   46.95   53.92
  -3 -14  -7  173.53   60.96
  -3 -14   7  415.11   71.92
  -3 -14   7   88.62   51.59
   3  14   7  187.05   64.36
   4  14  -7   89.77   50.95
  -4 -14  -7    3.51   55.45
  -4 -14  -7  146.29   88.74
   4  14   7   72.61   60.00
  -4 -14   7  354.21   66.47
  -4 -14   7  157.49   48.93
   5  14  -7   32.93   49.36
  -5 -14  -7   56.37   93.61
  -5 -14   7   -8.47   39.38
   5  14   7   64.32   57.26
   6  14  -7    6.64   47.60
   7 -15  -7  133.53   84.35
   6 -15  -7    4.53   67.00
   6 -15  -7  101.68   74.01
  -6  15   7  -28.18   95.94
  -6  15   7   57.58   65.19
   5 -15  -7  -32.80   64.55
   5 -15  -7   42.37   76.41
  -5  15   7    6.18   60.04
  -5  15   7   86.42   82.88
   4 -15  -7   -3.51   71.03
   4 -15  -7   66.50   57.27
  -4  15   7    5.64   82.60
  -4  15   7   -6.09   65.93
   3 -15  -7   -7.79   58.72
   3 -15  -7   10.83   82.64
   3 -15   7   10.33   49.05
  -3  15   7 -139.56   76.75
  -3  15   7  -17.64   64.16
   2 -15  -7  -23.23   57.35
  -2  15  -7    5.61   56.23
   2 -15  -7 -107.73   78.15
   2 -15   7    3.65   55.10
  -2  15   7  -48.51   70.51
  -2  15   7   17.36   64.70
   1 -15  -7 -156.09   68.42
   1 -15  -7   39.33   86.08
  -1  15  -7    5.23   58.72
  -1  15  -7  -35.44   52.82
  -1  15   7  -96.72   72.14
  -1  15   7   89.43   67.89
   1 -15   7   30.69   62.22
   1 -15   7   86.86   55.28
   0 -15  -7  -52.49   59.95
   0  15  -7   -4.94   54.46
   0 -15  -7  -35.82   85.57
   0  15  -7  -47.93   60.92
   0  15   7  -18.08   68.03
   0  15   7    5.50   64.51
   0 -15   7   23.34   57.85
   0 -15   7   44.72   54.98
   1  15  -7   92.24   59.22
   1  15  -7    9.31   51.73
  -1 -15  -7    3.73   56.60
  -1 -15  -7    3.57   80.90
   1  15   7    5.47   67.52
  -1 -15   7   77.17   55.79
   1  15   7   17.92   60.71
  -1 -15   7    8.68   62.10
   2  15  -7   35.04   52.72
   2  15  -7   -3.79   46.31
  -2 -15  -7   14.80   56.15
   2  15   7   40.20   59.29
  -2 -15   7   28.97   63.17
  -2 -15   7  234.57   52.63
   3  15  -7   -4.28   51.57
   3  15  -7   -3.72   43.56
  -3 -15  -7  -65.99   76.98
  -3 -15  -7   -3.74   53.77
   3  15   7   17.97   59.01
  -3 -15   7  -96.65   64.45
   4  15  -7   21.22   51.96
  -4 -15  -7   19.83   84.02
  -4 -15  -7    3.83   50.92
   4  15  -7   -3.74   45.64
  -4 -15   7   14.38   63.41
   4  15   7  -18.75   59.46
   5  15  -7   -4.22   43.72
  -5 -15  -7   64.46  101.05
   5  15  -7  173.10   50.78
  -5 -15   7  111.69   43.83
   5  15   7   -4.99   66.30
  -5 -15   7  -23.66   67.03
   7 -16  -7  105.65   85.44
  -7  16   7  -87.51  141.37
   6 -16  -7   19.84   73.72
   6 -16  -7    3.97   80.78
  -6  16   7  -47.78  114.02
  -6  16   7  -56.47   74.68
   5 -16  -7  -85.40   66.47
   5 -16  -7  -89.08   87.82
  -5  16   7   -6.86   75.24
  -5  16   7 -126.44  101.12
   4 -16  -7  -72.32   84.95
   4 -16  -7 -125.46   63.97
  -4  16   7  -37.89   90.56
  -4  16   7 -109.21   73.88
   3 -16  -7  -35.17   88.65
   3 -16  -7    4.27   62.64
  -3  16   7   73.22   79.44
   3 -16   7  -63.87   52.22
  -3  16   7   92.42   85.09
   2 -16  -7  -78.78   94.01
  -2  16  -7   54.49   70.10
  -2  16  -7   41.93   57.72
   2 -16  -7  131.78   66.41
  -2  16   7  -87.79   83.61
   2 -16   7   -3.99   54.60
  -2  16   7   19.64   71.85
   1 -16  -7    4.17   60.06
  -1  16  -7   17.44   65.10
   1 -16  -7  -23.11   90.74
  -1  16  -7  -51.05   61.29
  -1  16   7  -58.42   77.13
  -1  16   7    5.27   77.88
   1 -16   7   89.76   68.68
   1 -16   7    4.10   58.32
   0 -16  -7   15.53   92.39
   0 -16  -7   61.94   59.81
   0  16  -7  -75.53   61.05
   0  16  -7  -13.11   65.00
   0  16   7 -125.45   80.34
   0 -16   7   -4.13   62.50
   0 -16   7  -85.51   66.14
   0  16   7   86.01   75.82
   1  16  -7   -5.16   57.83
  -1 -16  -7  -65.67   59.84
   1  16  -7   17.04   59.48
  -1 -16   7  -12.14   62.86
   1  16   7   -6.21   72.82
  -1 -16   7  -12.45   66.57
   1  16   7   20.09   74.38
  -2 -16  -7  -73.80   61.76
   2  16  -7   -4.89   58.98
   2  16  -7   50.80   64.61
   2  16   7  188.29   71.45
  -2 -16   7  -19.25   58.40
  -2 -16   7   31.48   71.82
  -3 -16  -7 -152.33   62.65
   3  16  -7  -78.61   59.74
  -3 -16  -7   -3.99   95.70
   3  16  -7   14.46   59.29
  -3 -16   7   21.76   53.42
   3  16   7  -29.81   65.81
  -3 -16   7   25.00   70.81
  -4 -16  -7   -4.19   62.19
  -4 -16  -7   25.89   86.55
   4  16  -7  -96.10   61.46
  -4 -16   7 -107.03   73.80
  -4 -16   7   87.18   52.28
   4  16   7  -61.87   75.92
  -5 -16  -7    4.96  105.55
   5  16  -7   53.41   59.28
   5  16  -7   -4.87   59.19
   5  16   7   65.33   74.86
   7 -17  -7 -110.31  101.32
  -7  17   7  -11.00  155.90
   6 -17  -7    4.35   89.08
   6 -17  -7  -27.12   81.92
  -6  17   7  127.63  129.23
  -6  17   7  -23.47   82.61
   5 -17  -7  119.19   96.56
   5 -17  -7   64.02   71.71
  -5  17   7   71.40  116.79
  -5  17   7    7.65   84.42
   4 -17  -7    8.34   90.54
   4 -17  -7  -95.14   73.91
  -4  17   7  -22.91   78.99
  -4  17   7   -7.06   99.21
   3 -17  -7    4.67   66.22
   3 -17  -7   29.79   94.23
  -3  17   7  -67.94   85.04
  -3  17   7  117.09   95.44
   3 -17   7 -140.32   67.19
   2 -17  -7 -185.18   64.73
  -2  17  -7 -214.38   87.94
   2 -17  -7   -8.62   95.93
  -2  17   7    7.38   80.76
  -2  17   7   43.24   91.05
   1 -17  -7  -33.66  102.26
  -1  17  -7   95.92   72.02
   1 -17  -7 -118.67   62.33
  -1  17  -7   12.32   71.93
  -1  17   7  -35.51   83.49
   1 -17   7   43.15   74.07
   1 -17   7   22.20   71.75
  -1  17   7    7.33   80.29
   0  17  -7    5.89   60.82
   0 -17  -7   87.87   98.14
   0  17  -7  133.18   71.23
   0 -17  -7  -45.54   69.87
   0 -17   7   30.84   74.60
   0  17   7   -7.24   83.87
   0 -17   7   22.69   67.82
   0  17   7  -34.00   79.99
  -1 -17  -7   72.15   68.08
   1  17  -7   37.53   67.61
   1  17  -7 -159.89   63.02
  -1 -17   7  115.50   68.54
  -1 -17   7   13.48   70.85
   1  17   7   84.71   81.00
  -2 -17  -7 -103.82   66.43
   2  17  -7   37.41   67.07
   2  17  -7    5.50   59.91
   2  17   7  -71.77   73.27
  -2 -17   7   47.38   75.78
  -2 -17   7 -113.78   63.67
  -3 -17  -7    4.54   66.53
  -3 -17  -7 -126.30  104.77
   3  17  -7   10.86   64.28
   3  17  -7   36.72   66.52
  -3 -17   7    4.01   59.97
  -3 -17   7   30.79   76.52
   3  17   7   93.58   74.39
   4  17  -7   55.91   69.77
  -4 -17  -7 -183.17   98.82
  -4 -17  -7 -115.00   65.53
   4  17  -7   93.60   67.06
  -4 -17   7  -34.47   56.83
   4  17   7  -68.27   82.19
  -4 -17   7  -20.42   75.93
  -5 -17  -7  156.90  127.82
   5  17   7  -77.62   79.93
   6 -18  -7   41.64   93.95
   6 -18  -7 -219.76  108.65
  -6  18   7   -8.71   97.08
  -6  18   7  271.10  153.73
   5 -18  -7 -364.80  113.94
   5 -18  -7 -114.97   87.16
  -5  18   7   94.09   96.14
  -5  18   7   44.25  135.71
   4 -18  -7   10.43   73.33
   4 -18  -7   -4.58   97.07
  -4  18   7   23.73  116.14
  -4  18   7    8.57   97.83
   3 -18  -7 -165.48  102.52
   3 -18  -7  173.77   75.49
  -3  18   7   21.99  105.15
  -3  18   7    8.53   95.33
  -2  18  -7   -7.08   81.67
   2 -18  -7    5.04   71.86
   2 -18  -7   14.04   95.05
  -2  18  -7  -35.05   68.45
  -2  18   7   27.87  101.07
  -2  18   7    8.32   89.06
   2 -18   7  -37.67   69.89
  -1  18  -7  -31.06   80.13
   1 -18  -7   -4.99   75.77
   1 -18  -7    4.60  102.91
  -1  18  -7 -268.46   78.60
   1 -18   7  -73.80   78.06
  -1  18   7   72.54   87.73
  -1  18   7   33.11  101.69
   1 -18   7   -4.89   76.70
   0  18  -7   38.66   76.56
   0  18  -7   46.55   78.70
   0 -18  -7 -175.10   72.41
   0 -18   7  122.87   76.96
   0  18   7   12.73   88.87
   0  18   7   -8.28   99.56
   0 -18   7  -44.65   73.38
   1  18  -7   -6.31   67.73
   1  18  -7   15.61   79.07
  -1 -18  -7    9.94   71.17
   1  18   7 -145.80   89.53
  -1 -18   7  -29.24   67.94
  -1 -18   7    3.61   76.30
  -2 -18  -7   91.63   97.22
  -2 -18  -7   64.62   76.78
   2  18  -7   12.40   70.70
   2  18  -7  -31.00   75.87
  -2 -18   7   69.28   68.74
  -2 -18   7  -33.00   81.51
   2  18   7  -86.03   83.77
   2  18   7 -223.27   97.86
  -3 -18  -7   25.11   75.07
   3  18  -7  -91.31   78.57
   3  18  -7  -12.24   66.58
  -3 -18  -7    4.78  110.18
  -3 -18   7  -37.30   78.09
   3  18   7  -18.38   87.93
   3  18   7    8.87  110.57
  -3 -18   7  -22.08   66.43
   4  18  -7   -6.23   71.40
  -4 -18  -7 -138.14  117.00
  -4 -18  -7    5.07   74.63
   4  18   7  -94.43   83.95
  -5 -18  -7    5.91  133.45
   5  18   7   -6.57   90.28
   6 -19  -7   -6.65   99.94
  -6  19   7   -9.72   98.64
  -6  19   7 -177.02  169.33
   5 -19  -7 -128.36  113.80
   5 -19  -7   24.18   89.40
  -5  19   7   60.19  147.47
  -5  19   7    9.60  100.04
   4 -19  -7   15.00  109.35
   4 -19  -7   11.46   83.52
  -4  19   7 -107.38  126.69
  -4  19   7   28.87  107.66
   3 -19  -7    4.99  109.44
   3 -19  -7   44.71   78.48
  -3  19   7   19.25  110.65
  -3  19   7  -74.60  125.93
  -2  19  -7    7.70   78.49
  -2  19  -7  -59.74   83.88
   2 -19  -7    5.48   82.79
   2 -19  -7 -166.06  110.38
  -2  19   7  164.39  109.46
  -2  19   7   -9.45  108.53
   2 -19   7   35.71   74.84
  -1  19  -7  -50.11   84.82
   1 -19  -7    5.46   79.10
   1 -19  -7    5.03  114.29
  -1  19  -7  -88.16   78.62
   1 -19   7  -41.88   85.66
  -1  19   7   -9.36  107.74
  -1  19   7   66.58  115.17
   1 -19   7  144.84   85.59
   0 -19  -7   22.01   80.77
   0  19  -7 -124.47   86.21
   0  19  -7   35.41   76.92
   0  19   7  -86.13  105.20
   0 -19   7  -28.33   86.01
   0 -19   7   -5.42   80.99
   1  19  -7    7.00   78.11
  -1 -19  -7    5.48   76.91
   1  19  -7   85.89   89.79
  -1 -19   7   11.81   83.90
   1  19   7 -120.33   93.20
  -1 -19   7  -95.44   73.62
   2  19  -7   -6.97   77.46
  -2 -19  -7 -213.42   82.77
  -2 -19  -7 -231.67  111.78
   2  19  -7  -45.12   85.02
  -2 -19   7 -146.57   74.91
   2  19   7   13.73   93.82
   2  19   7   57.50  115.33
  -2 -19   7   -3.94   86.56
   3  19  -7   41.59   80.85
   3  19  -7   61.75   86.04
  -3 -19  -7    5.55   82.67
  -3 -19  -7    5.26  116.10
  -3 -19   7  -72.64   68.55
   3  19   7   10.24  118.96
   3  19   7  163.88   94.71
  -4 -19  -7  -95.95  133.93
  -4 -19  -7 -235.09   82.34
   4  19   7 -132.83  100.01
  -5 -19  -7  -45.47  144.92
   5  19   7   72.71  100.72
   2 -20  -7  119.75   90.97
  -2  20  -7 -110.73   87.38
   2 -20   7  -67.46   84.83
  -2  20   7 -193.95  127.14
  -1  20  -7    8.07   81.35
  -1  20  -7  -24.02   88.73
   1 -20  -7 -174.07   93.84
   1 -20   7    4.55   96.96
   1 -20   7 -204.73   87.74
  -1  20   7 -133.32  121.30
   0  20  -7  -80.35   90.22
   0 -20  -7   -6.02   86.34
   0  20  -7    7.83   80.91
   0 -20   7   23.74   85.97
   0 -20   7  -44.09   90.21
   0  20   7 -203.13  120.16
  -1 -20  -7    6.03   91.01
   1  20  -7   85.49   91.78
   1  20  -7  -87.56   92.08
   1  20   7 -134.29  116.02
  -1 -20   7   59.78   88.61
  -1 -20   7   92.14   83.22
  -2 -20  -7    6.06   91.67
   2  20  -7   49.42   92.99
   2  20  -7   -7.83   87.87
  -2 -20   7 -110.54   83.00
  -2 -20   7  -93.84   89.48
   2  20   7  -15.35  108.66
   0  21  -7  -60.85   95.46
   0 -21   7   32.22   97.58
   1  21  -7   13.68  100.04
  -1 -21   7   -6.28   93.37
   2  21  -7   -8.79   78.04
   0   0  -8 1082.65  208.10
   0   0   8  866.00  190.55
   0   0   8 1156.34  216.33
   1   0  -8    7.03   19.64
   0   1  -8   -8.13   24.79
   0  -1  -8   -8.96   21.99
  -1   0   8   -3.74   25.52
   0  -1   8   -4.10   10.94
   0   1   8   -1.27   11.98
   0  -1   8   -6.53   28.49
  -1   0   8   -0.94    8.62
   1  -1  -8  447.37   80.49
   1   1  -8  410.36   80.48
   1  -1  -8  437.84   77.74
  -1  -1   8  512.38   86.43
  -1  -1   8  188.50   70.35
  -1   1   8  303.67   85.31
   1  -2  -8   72.47   24.01
   1  -2  -8   54.34   17.69
   1  -2  -8   49.36   14.99
   2   1  -8   65.14   22.05
  -1   2   8   43.29   11.58
  -2  -1   8   50.60   13.15
  -1   2   8   43.28   28.75
  -2  -1   8   36.17   28.67
  -1   2   8   65.48   12.83
   0  -2  -8   31.46   15.17
   0   2  -8   59.81   29.50
   2   0  -8   55.20   21.03
  -2   0   8   66.19   27.39
  -2   0   8   63.97   13.03
   0  -2   8   73.65   34.77
   0   2   8   69.74   16.77
   2  -1  -8   44.54   18.98
   2  -1  -8   62.34   13.74
   2  -1  -8   32.08   11.93
   1   2  -8   43.19   24.37
  -2   1   8   44.86   11.81
  -2   1   8   60.30   25.55
  -1  -2   8   45.91   33.08
  -2   1   8   55.70   10.31
   2  -2  -8   24.61   16.05
   2  -2  -8    2.12    8.73
   2   2  -8   -9.70   20.52
   2  -2  -8    4.85   12.45
  -2   2   8   10.03   24.34
  -2   2   8   10.87    7.51
  -2   2   8    7.90    7.25
  -2  -2   8   -1.31   28.20
   2  -3  -8   34.32   17.45
   2  -3  -8   33.67   17.49
   2  -3  -8   43.60   14.34
   2  -3  -8   29.40   13.30
  -2   3   8   41.36   25.46
  -2   3   8   28.10   11.82
  -2   3   8   44.63   10.11
   1  -3  -8  481.85   83.77
   1  -3  -8  290.23   85.05
   1  -3  -8  320.68   79.44
  -1   3   8  464.82   73.26
  -1   3   8  416.57   89.87
  -1   3   8  418.73   71.94
   0  -3  -8  -15.89   16.71
   3   0  -8   21.13   15.14
   0  -3  -8  -11.88   14.18
   0   3  -8   -1.81   31.08
  -3   0   8   -1.63    7.53
   0   3   8  -12.72   12.31
   0  -3   8   -1.80   34.18
   0   3   8   10.39    8.89
  -3   0   8    7.02   26.18
   3  -1  -8  361.77   76.17
   3  -1  -8  395.29   80.26
  -3   1   8  435.53   84.75
  -3   1   8  391.47   70.26
  -3   1   8  372.70   74.92
   3  -2  -8   35.14   14.43
   3  -2  -8   39.99   14.98
   2   3  -8   31.38   10.20
   3  -2  -8   46.00   12.90
   2   3  -8   37.68   10.71
  -3   2   8   19.84   12.53
  -2  -3   8   40.24    9.85
  -2  -3   8   39.15   12.59
  -3   2   8   39.92   10.26
  -3   2   8   40.67   27.24
   3  -3  -8 2486.09  532.97
   3   3  -8 2546.20  487.94
   3   3  -8 2611.55  554.77
   3  -3  -8 2740.07  563.46
  -3   3   8 2945.29  563.59
  -3   3   8 2844.30  541.70
  -3  -3   8 2722.73  564.18
  -3  -3   8 2843.33  565.93
   3  -4  -8  808.26  152.18
  -4  -3   8  623.32  153.35
  -3   4   8  695.61  145.55
  -3   4   8  802.95  136.46
  -3   4   8  639.01  153.08
  -4  -3   8  823.59  156.48
   2  -4  -8  526.10  103.20
   2  -4  -8  475.83  110.76
   2  -4  -8  544.80  106.89
   2  -4  -8  574.28  110.58
  -2   4   8  553.51   95.20
  -4  -2   8  587.65  115.73
  -2   4   8  541.02   94.92
  -2   4   8  393.91  115.02
  -4  -2   8  462.11  108.72
  -4  -2   8  503.06   94.04
   1  -4  -8    4.62   13.56
   4   1  -8  -20.74   17.45
   1  -4  -8   -4.02   20.26
   1  -4  -8   20.02   22.89
  -1   4   8    8.13    7.42
  -4  -1   8   -6.35    9.47
  -1   4   8    6.85   11.41
  -1   4   8    5.68   28.52
   0  -4  -8 2780.14  514.91
   0  -4  -8 2232.34  532.29
   0   4   8 2839.31  487.73
   1   4  -8   -4.17   10.58
  -1  -4   8   15.42   13.63
  -4   1   8   13.55   28.38
  -1  -4   8    4.63   11.18
   2   4  -8  497.39   96.74
   4  -2  -8  593.27  110.71
   4  -2  -8  502.29  103.64
  -4   2   8  385.12  114.27
  -2  -4   8  445.15  109.63
  -2  -4   8  721.35  119.08
  -2  -4   8  562.88  103.28
  -2  -4   8  590.22   98.19
   3   4  -8  786.84  157.04
   3   4  -8  858.15  159.33
   3   4  -8  796.31  139.51
   4  -3  -8  696.54  148.54
   4  -3  -8  749.76  157.30
  -4   3   8  771.56  148.93
  -4   3   8  853.16  160.27
  -3  -4   8  770.56  149.91
  -3  -4   8  695.01  156.69
  -3  -4   8  790.38  161.92
  -4   3   8  912.28  141.97
  -4   4   8  962.57  181.19
  -4  -4   8  960.31  181.90
  -4  -4   8  940.31  183.46
  -4   4   8 1043.67  173.28
   4  -5  -8   56.39   26.88
   5   4  -8   36.37   27.34
  -5  -4   8   44.94   21.68
  -4   5   8   66.14   30.35
  -5  -4   8   72.02   17.36
  -4   5   8  105.37   24.77
  -5  -4   8   95.40   43.89
  -5  -3   8 1374.29  294.96
  -3   5   8 1341.17  293.23
   2  -5  -8  155.04   32.76
   2  -5  -8  140.79   36.45
   5   2  -8  174.28   39.08
  -2   5   8  153.01   29.08
  -2   5   8  195.07   41.62
  -5  -2   8  132.34   30.54
  -5  -2   8  154.95   46.47
   5   1  -8 1217.39  244.05
  -1   5   8 1065.83  216.25
   1  -5   8 1330.01  227.89
  -5  -1   8 1197.72  216.04
   0   5  -8   88.38   36.92
   0  -5  -8  -11.84   24.79
   5   0  -8    8.06   17.11
   0  -5   8  115.65   44.90
   0  -5   8   13.68   15.63
  -5   0   8  -13.18   10.43
  -5   0   8   37.00   31.45
   0   5   8    2.32   11.25
  -1  -5  -8 1103.36  241.69
   1   5  -8 1217.40  244.21
   1   5  -8 1127.23  227.73
  -1  -5   8 1300.08  258.11
  -1  -5   8 1157.59  240.58
   1   5   8 1220.65  213.76
   2   5  -8  102.49   44.04
   2   5  -8   93.18   31.99
   2   5  -8  164.12   29.57
  -2  -5   8  140.61   35.32
  -2  -5   8  150.76   51.20
  -2  -5   8  147.54   30.99
  -2  -5   8  206.59   30.91
   3   5  -8 1469.67  303.36
   3   5  -8 1277.89  267.34
   3   5  -8 1746.67  307.51
   3   5  -8 1481.26  286.00
  -5   3   8 1611.40  310.30
  -3  -5   8 1697.08  308.06
  -3  -5   8 1231.91  303.98
  -3  -5   8 1471.18  286.90
   4   5  -8   45.72   18.10
   4   5  -8   90.10   29.06
  -4  -5   8   85.98   21.16
  -5   4   8   91.55   32.04
  -4  -5   8   73.76   22.56
  -4  -5   8   51.92   19.20
  -4  -5   8   62.59   46.03
   5   5  -8  993.53  215.45
  -5  -5   8 1026.64  222.18
  -5   5   8  953.30  203.02
  -5  -5   8 1151.70  185.40
  -5  -5   8  971.17  217.74
   5  -6  -8  267.30   71.61
   6   5  -8  301.63   71.93
   5  -6  -8  318.25   66.65
  -6  -5   8  265.67   59.77
  -6  -5   8  323.22   69.74
  -6  -5   8  373.04   83.77
  -5   6   8  364.13   68.02
   4  -6  -8  709.94  138.14
   4  -6  -8  801.68  146.00
   6   4  -8  755.18  146.54
  -4   6   8  470.66  140.42
  -6  -4   8  632.92  152.88
  -4   6   8  755.49  146.69
  -6  -4   8  632.07  126.85
   3  -6  -8 1811.14  291.21
   3  -6  -8 1438.97  300.55
   3  -6  -8 1674.43  307.12
  -3   6   8 1450.42  311.56
  -3   6   8 1368.51  269.55
  -3   6   8 1102.14  293.08
   2  -6  -8  483.92  126.71
   2  -6  -8  512.59  130.60
   2  -6  -8  615.93  124.93
  -2   6   8  671.54  111.28
  -2   6   8  526.16  133.48
  -2   6   8  658.06  113.02
  -6  -2   8  616.13  134.00
  -2   6   8  670.87  118.76
   6   1  -8  164.82   37.57
   1  -6  -8  125.25   27.48
   1  -6  -8  173.46   40.13
   1  -6  -8  129.33   33.15
  -6  -1   8  109.39   46.05
  -6  -1   8  151.28   27.55
  -1   6   8  113.73   30.07
   1  -6   8  102.82   33.19
   6   0  -8   63.43   28.16
   0   6  -8   11.53   46.71
   0  -6  -8   84.73   35.76
   0  -6  -8   81.58   25.03
  -6   0   8   75.21   38.62
   0  -6   8   90.02   54.29
   0  -6   8  112.48   24.20
   0   6   8   91.09   18.40
   0   6   8   75.43   22.67
  -1  -6  -8  192.62   41.41
  -1  -6  -8  168.37   34.98
   1   6  -8  123.88   48.22
  -1  -6   8  184.18   32.36
  -1  -6   8  174.16   56.68
  -1  -6   8  143.29   32.35
   1   6   8   93.36   32.31
   2   6  -8  643.13  136.90
  -2  -6  -8  557.09  131.32
   2   6  -8  774.45  127.88
   2   6  -8  767.79  116.73
  -2  -6   8  647.33  132.50
   2   6   8  492.65  118.20
  -2  -6   8  651.17  117.83
  -2  -6   8  614.71  124.46
  -2  -6   8  676.90  142.68
   3   6  -8 1803.56  313.98
   3   6  -8 1359.03  292.49
   3   6  -8 1408.23  273.39
   3   6  -8 1562.46  312.65
  -3  -6   8 1670.82  313.91
  -3  -6   8 1357.66  310.01
   4   6  -8  846.63  150.48
   4   6  -8  927.37  131.03
   4   6  -8  787.53  153.70
  -4  -6   8  634.20  156.90
  -4  -6   8  596.94  140.44
  -4  -6   8  625.33  128.93
  -4  -6   8  623.17  149.35
   5   6  -8  342.23   73.22
   6  -5  -8  342.16   69.22
  -5  -6   8  372.62   84.51
  -5  -6   8  269.58   60.29
   6  -6  -8   -1.99   26.77
   6   6  -8   36.84   31.56
  -6  -6   8   31.03   57.36
  -6  -6   8   36.82   17.89
   7   6  -8   12.55   34.63
   6  -7  -8  -14.89   32.28
  -7  -6   8    9.71   64.30
  -7  -6   8   -8.26   29.17
  -7  -6   8   -1.75   18.70
   5  -7  -8   35.30   28.04
   5  -7  -8  109.45   34.27
   7   5  -8   21.41   35.02
  -7  -5   8   31.69   22.42
  -7  -5   8  138.08   61.01
  -5   7   8   92.98   31.76
   4  -7  -8  918.18  186.64
   4  -7  -8  783.50  176.12
   7   4  -8 1031.88  189.71
  -7  -4   8 1062.67  193.43
  -4   7   8  802.96  181.12
  -7  -4   8  832.78  165.49
   3  -7  -8  459.30   82.42
   3  -7  -8  411.77   78.36
  -3   7   8  425.02   77.80
  -3   7   8  346.90   79.54
  -7  -3   8  389.54   91.29
  -3   7   8  481.12   74.06
   2  -7  -8  892.63  187.37
   2  -7  -8  724.28  174.98
  -2   7   8 1051.02  162.11
   1  -7  -8  307.94   80.89
   1  -7  -8  309.43   72.38
   1  -7   8  337.82   71.26
   1  -7   8  474.57   70.03
  -1   7   8  350.72   67.15
   0  -7  -8   -6.18   23.38
   0  -7  -8  -43.69   37.92
   0   7  -8  -89.76   63.60
   0  -7   8  -19.94   21.14
   0  -7   8  -18.51   23.47
   0   7   8    1.72   20.42
   0  -7   8 -188.86   66.62
   1   7  -8  244.75   69.70
  -1  -7  -8  326.70   68.09
   1   7  -8  339.29   84.77
  -1  -7  -8  326.86   77.38
   1   7   8  305.94   64.04
  -1  -7   8  409.45   63.80
  -1  -7   8  369.31   67.31
  -1  -7   8  271.79   94.04
  -1  -7   8  233.80   72.18
   2   7  -8  733.02  183.26
  -2  -7  -8  834.93  171.02
  -2  -7   8  769.36  190.47
   2   7   8  973.48  156.25
   3   7  -8  377.34   81.13
   3   7  -8  304.76   84.37
  -3  -7   8  497.33   91.13
  -3  -7   8  423.54   68.99
   4   7  -8  847.50  185.64
  -4  -7   8  765.45  183.24
  -4  -7   8  880.21  189.18
  -4  -7   8  936.34  157.45
   5   7  -8   -1.50   18.53
   5   7  -8   37.24   33.77
  -5  -7   8   56.17   29.65
  -5  -7   8   74.45   19.89
  -5  -7   8  134.66   27.77
  -5  -7   8  104.15   57.68
   6   7  -8   -4.57   29.85
  -6  -7   8   29.96   29.11
  -6  -7   8    7.10   63.94
  -6  -7   8   24.19   18.03
   7   7  -8  185.16   55.77
  -7  -7   8  200.70   49.58
  -7  -7   8  174.48   39.45
  -7  -7   8  112.35   78.80
   7  -8  -8    6.04   41.75
  -8  -7   8  -90.73   73.80
   6  -8  -8  196.07   43.06
  -6   8   8   90.43   43.19
  -8  -6   8   65.92   71.39
   5  -8  -8   -4.15   31.02
   5  -8  -8  -43.92   37.07
  -5   8   8  -28.66   31.58
   4  -8  -8  -19.74   29.07
   4  -8  -8   -8.87   35.03
  -4   8   8   30.78   28.84
   3  -8  -8  927.53  189.18
   3  -8  -8  888.21  201.10
  -3   8   8  979.79  175.58
  -3   8   8  979.78  190.64
   2  -8  -8   30.00   36.82
   2  -8  -8   27.69   28.51
  -2   8   8   26.36   24.50
  -2   8   8   55.00   27.36
   1  -8  -8  275.12   61.78
   1  -8  -8  245.20   70.50
  -1   8   8  258.89   57.46
   1  -8   8  290.51   59.37
   1  -8   8  302.81   57.67
   0  -8  -8  343.97   57.36
   0  -8  -8  257.37   65.44
   0   8  -8  266.49   81.60
   0   8  -8  350.06   58.09
   0  -8   8  119.33   51.15
   0  -8   8  275.60   83.49
   0   8   8  209.87   52.78
   0  -8   8  235.52   56.48
   0  -8   8  304.20   60.07
   1   8  -8  214.92   62.56
  -1  -8  -8  270.03   72.40
  -1  -8  -8  144.96   61.15
   1   8  -8  370.67   79.38
  -1  -8   8  321.89   64.73
  -1  -8   8  308.11   56.67
  -1  -8   8  265.89   85.79
   1   8   8  330.39   58.67
  -1  -8   8  345.68   60.81
   2   8  -8   55.11   23.94
   2   8  -8   -1.93   21.89
  -2  -8  -8   58.28   40.75
  -2  -8  -8   39.66   28.50
   2   8  -8   -6.44   46.74
  -2  -8   8  124.70   60.71
   2   8   8   34.21   27.70
  -2  -8   8   10.79   27.84
  -2  -8   8   37.98   18.62
  -2  -8   8   49.94   22.14
   3   8  -8 1034.35  206.07
   3   8  -8 1012.19  203.37
  -3  -8  -8  948.79  198.61
  -3  -8   8  869.63  207.14
  -3  -8   8  944.43  187.28
  -3  -8   8  995.76  173.32
  -3  -8   8  894.78  198.70
   3   8   8  879.63  176.87
   4   8  -8  -14.27   32.54
   4   8  -8    3.01   20.73
   4   8  -8    4.22   44.51
  -4  -8   8    4.30   18.98
  -4  -8   8  -12.41   56.80
  -4  -8   8   -6.53   28.10
  -4  -8   8    9.81   15.93
   5   8  -8   56.66   22.01
   5   8  -8    8.73   29.69
  -5  -8   8   -8.30   30.07
  -5  -8   8    4.40   59.73
  -5  -8   8    5.91   18.18
  -5  -8   8    3.62   24.66
   6   8  -8  115.75   46.04
  -6  -8   8  254.37   73.77
  -6  -8   8  111.67   29.08
  -6  -8   8   87.73   42.55
   7   8  -8   55.77   43.37
  -7  -8   8   21.67   75.85
  -7  -8   8   41.00   35.89
  -7  -8   8  -23.13   21.49
  -8  -8   8  314.81  104.24
   7  -9  -8  436.76   93.16
   6  -9  -8  151.84   47.86
  -6   9   8  159.91   49.32
   5  -9  -8   52.40   41.73
   5  -9  -8  -13.79   33.90
  -5   9   8   -6.98   34.15
   4  -9  -8   51.70   42.61
   4  -9  -8   62.10   35.05
  -4   9   8   71.62   35.63
   3  -9  -8   37.28   42.93
   3  -9  -8   55.85   34.27
  -3   9   8   17.38   37.23
  -3   9   8   84.69   32.68
   2  -9  -8  -12.05   42.75
   2  -9  -8   69.28   33.12
  -2   9   8   11.73   29.31
  -2   9   8   12.89   26.49
   2  -9   8   25.68   27.85
  -1   9  -8  -24.06   29.66
   1  -9  -8   30.61   43.04
   1  -9  -8  -20.39   28.39
   1  -9   8   18.33   28.72
   1  -9   8    2.04   23.21
  -1   9   8    2.29   29.68
   0  -9  -8   14.71   44.24
   0  -9  -8  -13.86   25.68
   0   9  -8   30.19   69.27
   0   9  -8  -22.69   27.48
   0  -9   8   16.74   32.16
   0   9   8   18.09   29.99
   0  -9   8  -50.24   58.97
   0  -9   8   14.33   23.68
   0  -9   8    4.02   28.87
   1   9  -8   41.29   26.17
   1   9  -8   10.93   59.67
   1   9  -8  -72.38   27.66
  -1  -9  -8   23.58   44.76
  -1  -9  -8    8.05   27.01
  -1  -9   8   11.71   19.90
   1   9   8    9.41   31.53
  -1  -9   8    4.81   32.15
  -1  -9   8  -20.48   25.08
  -1  -9   8   31.13   64.69
  -2  -9  -8   44.19   47.40
   2   9  -8   -6.64   25.63
  -2  -9  -8    8.52   26.97
   2   9  -8  -55.48   26.47
   2   9  -8  -14.24   48.72
  -2  -9   8   12.32   32.09
  -2  -9   8   11.16   19.00
   2   9   8   14.34   29.49
  -2  -9   8    6.76   64.76
  -2  -9   8   46.97   24.32
   3   9  -8   75.38   25.56
   3   9  -8   62.40   37.78
   3   9  -8   51.75   28.58
  -3  -9  -8   39.44   33.91
  -3  -9  -8   94.97   45.71
   3   9  -8   90.07   52.09
   3   9   8   92.50   32.53
  -3  -9   8   63.62   26.89
  -3  -9   8   53.33   22.99
  -3  -9   8  121.84   61.92
  -3  -9   8   46.18   33.63
   4   9  -8   78.61   49.59
   4   9  -8   75.71   37.32
   4   9  -8   10.32   27.62
  -4  -9   8   51.58   25.69
  -4  -9   8   96.07   62.32
  -4  -9   8   74.33   21.65
  -4  -9   8   32.96   35.06
   5   9  -8   48.02   25.02
   5   9  -8   34.47   55.54
   5   9  -8   71.30   38.36
  -5  -9   8   13.91   19.29
  -5  -9   8   20.37   26.32
  -5  -9   8  108.53   65.82
  -5  -9   8    9.41   34.96
   6   9  -8  193.06   50.71
   6   9  -8  133.22   35.45
  -6  -9   8  109.02   47.05
  -6  -9   8   93.89   31.82
  -6  -9   8   89.53   72.15
   7   9  -8  293.38   85.23
  -7  -9   8  412.73   67.76
  -7  -9   8  188.08  107.11
  -8  -9   8  -77.25   82.91
   7 -10  -8   59.90   54.25
   6 -10  -8  118.83   44.04
   6 -10  -8   70.96   52.68
  -6  10   8   54.68   45.57
   5 -10  -8  671.33  106.02
  -5  10   8  500.45  109.05
   4 -10  -8  -86.73   38.28
   4 -10  -8  -46.48   47.31
  -4  10   8    2.97   40.17
  -4  10   8   41.62   37.90
   3 -10  -8    2.21   46.64
   3 -10  -8    2.40   36.19
  -3  10   8   51.44   30.28
  -3  10   8   31.28   39.95
   2 -10  -8  241.73   57.04
   2 -10  -8  108.98   42.60
  -2  10   8  104.54   42.83
   2 -10   8  119.37   37.61
  -2  10   8  104.44   44.05
   1 -10  -8   41.24   47.22
   1 -10  -8  -18.42   35.69
  -1  10  -8   17.12   34.20
   1 -10   8   20.12   37.23
   1 -10   8   -6.93   31.98
  -1  10   8   49.40   34.14
   1 -10   8   -8.39   26.28
   0  10  -8  147.67   96.03
   0 -10  -8  241.19   66.94
   0 -10  -8  249.83   55.48
   0  10  -8  207.66   55.32
   0 -10   8  284.18   54.56
   0 -10   8  261.96   58.24
   0  10   8  146.30   51.04
   0 -10   8  166.50   82.54
   0 -10   8  149.54   47.11
  -1 -10  -8    8.91   30.14
  -1 -10  -8   51.61   50.40
   1  10  -8    2.15   32.80
   1  10  -8  -17.32   30.46
   1  10  -8   36.90   65.77
  -1 -10   8  -25.35   66.36
  -1 -10   8   46.73   37.04
  -1 -10   8    1.72   21.50
  -1 -10   8  -21.23   30.72
   1  10   8    2.65   36.42
  -2 -10  -8  159.87   41.36
  -2 -10  -8   94.07   55.37
   2  10  -8   84.16   37.25
   2  10  -8   72.68   36.16
   2  10  -8   53.25   63.93
  -2 -10   8  147.47   45.15
  -2 -10   8   97.29   38.37
  -2 -10   8  224.99   76.53
  -2 -10   8  145.22   30.07
   2  10   8  136.15   42.19
  -3 -10  -8   74.74   35.19
   3  10  -8   66.13   29.71
   3  10  -8   44.31   25.99
  -3 -10  -8   12.31   46.98
   3  10  -8    2.51   56.61
   3  10  -8    2.26   36.98
  -3 -10   8  -12.80   27.23
  -3 -10   8   -6.87   65.45
  -3 -10   8    8.49   37.12
  -3 -10   8   37.99   19.76
   3  10   8   28.44   33.87
   4  10  -8    2.01   23.84
   4  10  -8  -21.70   28.42
   4  10  -8   20.70   36.14
   4  10  -8    2.53   57.88
  -4 -10   8   44.69   64.05
  -4 -10   8  -27.05   26.46
  -4 -10   8   11.92   37.37
  -4 -10   8   12.02   18.86
   5  10  -8  395.29   65.99
   5  10  -8  221.59   93.20
   5  10  -8  363.47   81.25
  -5 -10   8  236.82   61.67
  -5 -10   8  233.62   79.69
  -5 -10   8  449.97   98.61
  -5 -10   8  305.87   69.95
   6  10  -8   38.77   70.27
   6  10  -8  107.22   48.92
   6  10  -8  153.39   35.76
  -6 -10   8   30.98   77.60
  -6 -10   8  132.99   39.65
  -6 -10   8   66.96   46.12
  -6 -10   8  109.20   30.28
   7  10  -8  178.94   60.37
  -7 -10   8  173.50   38.98
  -7 -10   8    2.83   85.30
  -8 -10   8  322.26  113.08
   7 -11  -8  107.34   58.28
   6 -11  -8  214.29   59.34
   6 -11  -8  231.37   67.42
  -6  11   8   95.14   57.37
   5 -11  -8   83.14   53.54
   5 -11  -8   64.96   44.79
  -5  11   8   50.33   46.04
   4 -11  -8   17.16   54.37
   4 -11  -8   84.74   47.26
  -4  11   8  104.29   47.44
  -4  11   8   85.32   47.24
   3 -11  -8 -156.56   49.40
   3 -11  -8 -172.42   68.93
  -3  11   8   76.55   38.94
  -3  11   8   80.55   45.89
   2 -11   8   31.36   45.24
  -2  11   8  268.28   51.97
  -2  11   8  193.15   53.92
  -1  11  -8  500.19   99.24
   1 -11  -8  299.21   99.21
  -1  11   8  649.76   93.98
   1 -11   8  448.58   89.13
   1 -11   8  414.87   97.11
  -1  11   8  422.10   95.49
   1 -11   8  500.93  102.23
   0  11  -8   10.06  100.65
   0  11  -8   21.24   34.23
   0 -11   8  -14.34   40.77
   0  11   8  -43.44   40.64
   0 -11   8   -1.87   24.22
   0 -11   8   32.93   33.76
  -1 -11  -8  333.30   94.88
   1  11  -8  409.09  123.06
  -1 -11  -8  102.97  111.17
   1  11  -8  508.39   95.79
   1  11  -8  411.29   86.28
  -1 -11   8  622.00   93.60
  -1 -11   8  512.08   83.29
  -1 -11   8  458.05   97.99
   1  11   8  355.27   91.03
  -1 -11   8  510.94  122.42
   2  11  -8   33.39   73.86
   2  11  -8  131.60   40.08
   2  11  -8   67.62   37.15
   2  11  -8   65.71   46.29
  -2 -11  -8  243.20   50.64
  -2 -11   8    8.09   26.53
  -2 -11   8  246.69   82.10
  -2 -11   8   62.09   36.59
  -2 -11   8  114.26   47.26
  -3 -11  -8  103.88   59.88
   3  11  -8  154.76   42.84
  -3 -11  -8  -16.11   43.58
   3  11  -8  140.41   36.76
   3  11  -8   73.80   32.79
   3  11  -8   49.25   63.53
  -3 -11   8  -80.30   71.06
   3  11   8  106.63   39.79
  -3 -11   8   56.37   42.36
  -3 -11   8   57.48   23.56
  -3 -11   8   83.13   32.69
   4  11  -8   94.78   36.73
   4  11  -8   51.31   31.35
   4  11  -8   21.93   44.47
   4  11  -8   83.16   66.58
  -4 -11   8  174.13   36.76
  -4 -11   8   92.74   26.03
  -4 -11   8   93.69   73.02
  -4 -11   8  118.85   47.73
   4  11   8  105.04   46.01
   5  11  -8   60.82   33.14
   5  11  -8   67.11   69.99
   5  11  -8   25.40   39.14
  -5 -11   8   25.34   42.85
  -5 -11   8   20.97   31.17
  -5 -11   8  -41.18   70.97
  -5 -11   8   40.36   22.78
   6  11  -8  247.53   52.05
   6  11  -8  146.80   87.65
   6  11  -8  180.43   63.70
  -6 -11   8  220.20   48.75
  -6 -11   8  367.86   92.20
   7  11  -8   77.62   50.33
  -7 -11   8   66.27   31.11
  -7 -11   8   28.63   81.40
  -8 -11   8 -342.41  105.55
   5 -12  -8   68.33   45.65
  -5  12   8   -4.11   54.33
   4 -12  -8  -23.92   44.85
   4 -12  -8  178.74   58.66
  -4  12   8    4.34   46.13
  -4  12   8  -22.96   54.72
   3 -12  -8   16.42   58.03
   3 -12  -8  -41.29   45.92
  -3  12   8   72.61   56.86
  -3  12   8   95.02   45.83
   2 -12  -8  571.35  126.74
   2 -12  -8  583.20  113.45
   2 -12   8  546.79  110.61
  -2  12   8  477.61  106.67
  -2  12   8  551.22  115.27
  -1  12  -8  -29.33   42.26
   1 -12  -8   11.46   42.24
   1 -12  -8  -89.02   65.10
   1 -12   8  -19.85   42.49
  -1  12   8  -26.72   43.88
   1 -12   8   40.72   47.75
  -1  12   8   64.76   45.14
   0  12  -8  779.74  184.27
   0 -12  -8 1031.43  199.34
   0 -12  -8 1286.59  215.42
   0  12  -8 1001.02  202.96
   0  12   8  950.29  186.78
   0 -12   8  830.08  207.76
   0 -12   8 1037.03  199.79
   1  12  -8    3.52   41.55
  -1 -12  -8    2.80   61.51
  -1 -12  -8  -13.83   42.95
   1  12  -8   14.01   42.50
  -1 -12   8  -15.22   44.45
  -1 -12   8   15.94   39.54
   1  12   8   62.91   49.07
  -2 -12  -8  399.21  101.09
   2  12  -8  351.37  130.23
   2  12  -8  399.44  102.29
   2  12  -8  433.61  108.78
  -2 -12  -8  686.65  114.49
   2  12  -8  461.21   94.54
  -2 -12   8  388.07  100.44
  -2 -12   8  486.86  110.08
   2  12   8  505.04   97.30
   3  12  -8   96.03   67.75
   3  12  -8   37.92   33.47
   3  12  -8    9.70   42.23
   3  12  -8   -2.62   37.39
  -3 -12  -8   49.71   43.64
  -3 -12   8   44.46   35.24
  -3 -12   8   39.60   43.66
   3  12   8   10.38   46.12
   4  12  -8   -6.05   72.17
   4  12  -8   27.10   33.08
   4  12  -8   38.10   41.07
   4  12  -8   51.26   35.90
  -4 -12   8   40.82   34.27
  -4 -12   8   29.56   47.36
  -4 -12   8  -59.50   76.10
  -4 -12   8   42.74   21.69
   5  12  -8   13.37   41.72
   5  12  -8   -5.40   33.17
   5  12  -8  -60.46   73.45
   5  12  -8   35.63   38.42
  -5 -12   8 -237.57   78.44
  -5 -12   8   -4.34   48.48
  -5 -12   8   25.25   33.61
  -5 -12   8    3.49   23.59
   6  12  -8  -45.20   80.18
   6  12  -8   68.08   51.04
  -6 -12   8   10.85   80.50
  -6 -12   8   33.89   27.01
   7  12  -8  -40.72   54.50
   7  12  -8 -186.21   92.98
  -7 -12   8   17.80   88.05
  -7 -12   8   -9.15   30.95
  -8 -12   8 -108.10   95.77
   7 -13  -8   16.73   58.61
   6 -13  -8 -113.31   65.10
   6 -13  -8  -11.01   60.53
  -6  13   8   32.01   53.61
   5 -13  -8  263.27   53.20
   5 -13  -8    5.90   68.55
  -5  13   8  379.08   69.76
  -5  13   8  -30.52   55.20
   4 -13  -8    2.98   66.69
  -4  13   8   43.92   48.83
   2 -13   8   51.71   44.39
  -1  13  -8  182.21   77.28
   1 -13   8  322.45   76.61
   1 -13   8  289.61   82.29
   0  13  -8  -53.88   47.80
   0  13  -8   59.00   46.40
   0 -13   8   15.68   46.72
   0 -13   8   26.92   48.11
   1  13  -8  321.58   81.02
   1  13  -8  247.99   78.11
  -1 -13   8  401.36   81.98
  -1 -13   8  408.08   87.01
   2  13  -8   17.94   45.27
   2  13  -8   52.52   35.42
  -2 -13  -8   70.83   63.16
  -2 -13   8   21.26   50.99
  -2 -13   8  -14.04   38.63
  -3 -13  -8   -9.46   65.51
   3  13  -8   67.99   43.06
  -3 -13  -8   -3.19   37.35
   3  13  -8   29.64   38.44
  -3 -13   8   78.65   40.37
  -3 -13   8   75.25   52.12
   3  13   8   -3.81   41.00
  -4 -13  -8  -26.35   45.82
   4  13  -8   63.88   43.37
   4  13  -8   31.15   36.17
  -4 -13   8  -30.24   53.42
  -4 -13   8   68.29   34.98
   4  13   8  -36.26   51.44
   5  13  -8   -3.09   37.61
   5  13  -8  -54.58   44.90
  -5 -13   8    2.52   36.79
  -5 -13   8   -4.81   54.11
   7 -14  -8  -32.18   71.32
  -7  14   8   -6.20   60.68
   6 -14  -8  130.27   67.26
   6 -14  -8   84.49   63.85
  -6  14   8   76.08   89.49
  -6  14   8   11.67   54.56
   5 -14  -8  207.08   76.27
   5 -14  -8   59.43   59.17
  -5  14   8  -22.54   61.14
  -5  14   8   -5.26   72.93
   4 -14  -8   74.74   73.87
   4 -14  -8   57.33   54.30
  -4  14   8   34.32   71.06
  -4  14   8  -76.66   61.16
   3 -14  -8  -80.25   75.59
   3 -14  -8  -50.27   56.92
  -3  14   8  -31.64   60.21
  -3  14   8  -13.66   63.11
   2 -14  -8  170.92   62.71
   2 -14  -8   49.36   80.22
  -2  14   8  -34.57   64.20
  -2  14   8    5.21   59.25
   1 -14  -8  -41.80   63.59
   1 -14  -8   70.30   83.57
  -1  14   8 -130.25   87.90
  -1  14   8  -75.76   60.38
   0 -14  -8 -232.77   85.04
   0 -14  -8  -51.40   59.64
   0  14  -8   74.39   50.24
   0  14   8   78.03   58.43
   0  14   8  -20.42   56.92
   0 -14   8   -3.42   50.54
  -1 -14  -8  -74.57   53.29
   1  14  -8   34.48   50.49
  -1 -14  -8  -36.57   77.61
  -1 -14   8   -2.58   44.08
   1  14   8  -24.70   60.77
  -1 -14   8  -59.51   52.64
   2  14  -8   43.46   50.68
  -2 -14  -8   81.51   53.49
  -2 -14  -8    6.67   75.64
   2  14  -8  205.97   48.51
  -2 -14   8   50.04   50.32
  -2 -14   8  149.60   61.82
   2  14   8   32.73   58.14
  -3 -14  -8  -90.46   53.76
   3  14  -8   26.60   52.24
   3  14  -8  118.47   43.58
  -3 -14   8  206.95   59.14
  -3 -14   8   46.77   44.88
   3  14   8   37.50   56.71
   4  14  -8   -3.27   48.17
  -4 -14  -8   42.97   52.66
   4  14  -8   93.64   41.22
  -4 -14   8  121.86   56.15
   4  14   8    4.40   53.49
  -4 -14   8   22.48   43.72
   7 -15  -8   76.07   76.72
  -7  15   8   20.21   63.97
   6 -15  -8  -25.50   74.99
   6 -15  -8  110.59   63.98
  -6  15   8   33.06   92.51
  -6  15   8  -57.75   73.21
   5 -15  -8   12.22   57.51
  -5  15   8  -53.99   85.14
  -5  15   8  -43.76   58.32
   4 -15  -8   -3.96   61.94
   4 -15  -8 -117.33   81.24
  -4  15   8   98.48   65.65
  -4  15   8   43.93   72.81
   3 -15  -8  109.80   78.72
   3 -15  -8    3.93   54.48
  -3  15   8  -66.16   74.55
  -3  15   8   11.91   68.67
   2 -15  -8  -58.58   57.02
  -2  15  -8  -45.74   58.60
   2 -15  -8   -3.63   81.98
  -2  15   8   47.16   66.39
   2 -15   8  -55.14   48.92
  -2  15   8   97.74   69.33
   1 -15  -8 -210.50   64.49
  -1  15  -8   73.14   59.91
  -1  15  -8    5.31   56.86
   1 -15  -8   -3.62   76.76
  -1  15   8   28.36   68.40
   1 -15   8   27.40   58.71
   1 -15   8   26.71   55.26
  -1  15   8   57.74   77.95
   0  15  -8   -4.94   49.17
   0  15  -8  -31.58   56.83
   0 -15  -8  119.51   82.60
   0 -15  -8   22.76   60.62
   0 -15   8   20.18   55.60
   0 -15   8    3.76   57.39
   0  15   8 -100.60   65.22
   0  15   8    5.54   66.16
   1  15  -8  321.37   56.29
   1  15  -8   74.54   53.03
  -1 -15  -8  -61.63   82.88
  -1 -15  -8  -59.81   54.21
  -1 -15   8  245.04   56.29
  -1 -15   8   53.13   62.63
   1  15   8   36.85   65.34
  -2 -15  -8   21.68   80.30
  -2 -15  -8  -48.69   53.68
   2  15  -8  -56.30   50.11
  -2 -15   8   -3.48   40.20
  -2 -15   8  -55.71   59.63
   2  15   8   -4.54   61.21
  -3 -15  -8  -91.49   51.81
   3  15  -8    4.16   47.08
   3  15   8  -50.58   59.02
  -3 -15   8   -5.55   59.46
   4  15  -8  -78.18   47.18
  -4 -15  -8   89.52   56.60
  -4 -15   8   33.40   65.12
   4  15   8   33.75   66.40
  -5 -15  -8 -138.75  103.08
   5  15   8   31.04   61.25
   7 -16  -8    5.61   81.84
  -7  16   8 -194.86  131.29
  -7  16   8   -7.37   77.85
   6 -16  -8    9.66   69.25
   6 -16  -8 -162.92   78.59
  -6  16   8 -113.45   77.79
  -6  16   8  -37.89  108.80
   5 -16  -8  151.42   83.88
   5 -16  -8  -35.65   67.08
  -5  16   8  -20.37  100.08
  -5  16   8  -83.43   73.67
   4 -16  -8   30.47   62.47
   4 -16  -8  132.21   91.60
  -4  16   8   76.05   85.11
  -4  16   8  -36.87   92.76
   3 -16  -8  -17.18   68.26
   3 -16  -8  -83.35   90.09
  -3  16   8  108.93   81.03
  -3  16   8  -74.04   68.83
   2 -16  -8  -55.37   67.23
  -2  16  -8    4.09   53.52
   2 -16  -8   55.71   93.65
  -2  16   8   71.43   78.37
   2 -16   8  -52.58   60.74
  -2  16   8   13.32   80.90
  -1  16  -8    5.72   59.54
  -1  16  -8  -55.30   63.97
   1 -16  -8   -3.95   86.82
   1 -16  -8   -4.19   66.00
   1 -16   8   59.14   68.89
  -1  16   8  143.06   70.61
   1 -16   8  -29.16   60.96
  -1  16   8  -59.42   79.23
   0 -16  -8    3.92   86.53
   0  16  -8  -58.78   59.76
   0 -16  -8   20.88   68.58
   0  16  -8  -64.92   62.13
   0  16   8   61.36   72.58
   0 -16   8  -24.74   60.98
   0  16   8   19.07   78.47
   0 -16   8   21.89   61.56
   1  16  -8   71.35   62.29
  -1 -16  -8 -128.07   60.95
   1  16  -8  105.13   67.61
  -1 -16  -8 -209.64   90.00
  -1 -16   8  -95.96   67.23
  -1 -16   8   -4.03   62.31
   1  16   8  -12.52   69.09
   1  16   8  -46.24   71.88
   2  16  -8   -9.66   52.14
  -2 -16  -8    4.12   58.82
   2  16  -8   41.72   60.81
   2  16   8  -45.31   63.17
  -2 -16   8  -66.43   65.88
  -2 -16   8   -3.82   57.31
   3  16  -8   45.05   60.55
   3  16  -8  -32.59   51.60
  -3 -16  -8   25.14   60.31
   3  16   8  -25.40   69.29
  -3 -16   8  -97.58   69.88
  -3 -16   8   17.87   54.90
  -4 -16  -8   86.83   91.00
   4  16  -8   97.55   62.89
  -4 -16  -8   29.83   60.39
   4  16   8   63.58   75.11
  -5 -16  -8   -4.96  110.96
   5  16   8   33.86   70.30
   7 -17  -8   37.25   89.10
  -7  17   8  -30.65  142.99
   6 -17  -8 -147.90   93.03
   6 -17  -8   15.97   76.30
  -6  17   8  -34.88  135.62
  -6  17   8   63.03   89.89
   5 -17  -8  -38.40   88.71
   5 -17  -8    4.94   73.91
  -5  17   8   23.28   84.65
  -5  17   8 -145.47  111.84
   4 -17  -8  -79.90   85.04
   4 -17  -8  -52.47   68.86
  -4  17   8  -62.05  107.23
  -4  17   8   54.45   84.03
   3 -17  -8  -98.72   66.92
   3 -17  -8  -12.94   97.65
  -3  17   8    7.64   84.39
  -3  17   8  -51.63   93.28
   2 -17  -8 -115.91   68.47
  -2  17  -8 -133.07   69.75
   2 -17  -8   82.73   99.60
   2 -17   8  -93.17   91.23
  -2  17   8   49.57   87.25
  -2  17   8   82.68   79.91
  -1  17  -8   -6.17   67.36
   1 -17  -8 -201.81   71.59
   1 -17  -8  -55.27   97.20
  -1  17  -8   61.00   71.22
  -1  17   8  -76.70   81.37
  -1  17   8 -186.58   94.70
   1 -17   8    4.52   70.82
   1 -17   8  -17.72   74.16
   0  17  -8   23.20   63.65
   0 -17  -8  -68.84   95.66
   0 -17  -8   18.35   72.08
   0  17  -8   93.71   73.45
   0 -17   8  182.47   71.90
   0  17   8  -28.67   76.22
   0 -17   8  -88.08   72.99
   0  17   8   29.31   91.40
   1  17  -8    5.58   64.47
  -1 -17  -8    4.56   64.51
   1  17  -8   83.02   71.02
  -1 -17  -8    4.24   98.01
  -1 -17   8  -92.86   66.90
   1  17   8   -7.11   76.17
  -1 -17   8   -9.77   69.51
   1  17   8   17.21   81.07
  -2 -17  -8  -13.63   66.55
   2  17  -8   -5.39   61.33
   2  17  -8   64.83   69.60
   2  17   8  151.18   77.00
  -2 -17   8  -33.44   64.26
  -2 -17   8  -26.03   73.05
   3  17  -8  -83.53   62.23
  -3 -17  -8    4.62   65.53
   3  17  -8  -31.71   63.98
   3  17   8   28.37   76.21
  -3 -17   8  -27.54   59.06
  -4 -17  -8    4.72   99.04
  -4 -17  -8 -163.52   65.21
   4  17   8   93.41   79.65
  -5 -17  -8  157.84  116.31
   5  17   8   18.53   76.33
   7 -18  -8    6.88   94.21
  -7  18   8  -35.74  167.74
   6 -18  -8 -129.55   91.99
   6 -18  -8  119.31  100.75
  -6  18   8  -39.88  140.45
  -6  18   8    8.80   92.14
   5 -18  -8  355.33  103.51
   5 -18  -8  417.63  122.44
  -5  18   8   -8.69  102.49
  -5  18   8   25.91  128.45
   4 -18  -8  -73.77  100.94
   4 -18  -8 -130.97   83.48
  -4  18   8   17.46   94.86
  -4  18   8 -164.10  112.74
   3 -18  -8    5.14   73.87
   3 -18  -8  -79.75  107.25
  -3  18   8   60.67  101.87
  -3  18   8  -36.71  103.71
   2 -18  -8  151.24   69.77
   2 -18  -8   61.75  110.07
  -2  18  -8   34.08   73.71
  -2  18   8  -48.74   99.21
  -2  18   8 -229.06   99.10
   2 -18   8   76.88   71.40
  -1  18  -8    5.11   73.53
   1 -18  -8 -230.88   82.85
   1 -18  -8    4.66  106.51
  -1  18  -8   20.02   77.11
   1 -18   8  -22.99   79.82
   1 -18   8 -182.60   73.77
  -1  18   8  -26.47   85.09
  -1  18   8 -109.48   98.15
   0 -18  -8  -70.67   73.58
   0 -18  -8 -101.55  108.53
   0  18  -8 -265.26   71.70
   0  18  -8  -45.78   77.04
   0 -18   8   33.08   73.05
   0  18   8 -154.77   95.45
   0  18   8    8.33   98.90
   0 -18   8   94.96   78.10
   1  18  -8    6.13   65.76
   1  18  -8  -45.98   75.93
  -1 -18  -8 -160.70   75.92
  -1 -18  -8  -73.52  101.70
   1  18   8    8.18   89.36
  -1 -18   8  106.95   73.70
  -1 -18   8   17.71   72.58
   1  18   8 -108.46   92.89
   2  18  -8  -66.19   71.92
   2  18  -8 -102.19   65.84
  -2 -18  -8  -79.96   73.83
   2  18   8  -56.09   85.60
  -2 -18   8  -18.25   69.54
  -2 -18   8  -21.08   78.39
  -3 -18  -8  -19.26  115.75
  -3 -18  -8   10.21   68.31
   3  18   8   18.91   82.13
  -4 -18  -8 -211.55  120.16
  -4 -18  -8   -5.15   81.30
   4  18   8 -129.09   90.01
  -5 -18  -8  202.06  151.02
   5  18   8   81.51   99.27
  -7  19   8  249.49  199.45
   6 -19  -8  -13.24   95.23
  -6  19   8 -158.22  148.95
  -6  19   8 -108.47  101.93
   5 -19  -8    6.04   89.54
   5 -19  -8   -5.16  108.49
  -5  19   8 -253.68  108.96
  -5  19   8  -29.37  143.49
   4 -19  -8  -63.28   86.82
   4 -19  -8    5.06  109.87
  -4  19   8   62.04  128.56
  -4  19   8   -9.82  109.15
   3 -19  -8    5.06  114.77
   3 -19  -8 -190.27   78.85
  -3  19   8   49.03  116.15
  -3  19   8  166.25  127.65
  -2  19  -8   10.67   76.27
   2 -19  -8    5.15  112.50
   2 -19  -8 -110.13   75.41
   2 -19   8   26.06   75.54
  -2  19   8   -9.59  115.13
  -2  19   8 -149.09  121.01
  -1  19  -8   -7.23   77.72
  -1  19  -8   21.92   80.37
   1 -19  -8  -40.67  118.31
   1 -19  -8 -292.40   87.04
   1 -19   8   21.83   80.19
  -1  19   8   14.90  101.33
   1 -19   8   -4.15   86.98
  -1  19   8   -9.51  109.62
   0 -19  -8   -4.95  110.96
   0  19  -8    6.91   75.43
   0  19  -8  -11.12   79.86
   0 -19  -8   27.59   81.86
   0 -19   8 -131.22   80.45
   0 -19   8   -7.97   82.00
   0  19   8    9.51   96.97
   0  19   8   29.18   99.38
   1  19  -8    6.75   71.27
   1  19  -8  112.44   86.26
  -1 -19  -8 -253.99   85.61
   1  19   8   -9.49  119.25
  -1 -19   8   38.37   84.01
   1  19   8 -106.70   95.90
  -1 -19   8   26.48   72.77
  -2 -19  -8 -144.06   81.56
   2  19  -8  -46.86   75.65
   2  19  -8  -11.17   84.30
   2  19   8   48.62   98.97
  -3 -19  -8    5.30  124.18
  -3 -19  -8   -5.66   91.60
   3  19   8   10.09  113.00
   3  19   8 -119.37  101.94
  -4 -19  -8    5.68  127.29
  -4 -19  -8    5.67   83.76
   4  19   8  -43.00   99.94
  -5 -19  -8  150.69  153.73
   5  19   8   75.07   92.16
  -2  20  -8   28.72   89.31
   2 -20   8  103.46   88.02
  -1  20  -8 -126.10   90.99
  -1  20  -8   53.15   85.93
   1 -20   8   17.92   94.15
   0  20  -8  -53.17   81.32
   0  20  -8   12.15   86.45
   0 -20   8  -56.09   86.51
   0 -20   8  -41.87   93.06
   1  20  -8   29.75   78.63
   1  20  -8   49.40   91.99
  -1 -20   8  -28.76   85.98
  -1 -20   8   58.54   88.96
   0  21  -8  -19.94   94.43
   0 -21   8   13.08  101.08
   0   0  -9   14.37   28.99
   0   0   9   12.46   36.02
   0   0   9    1.50   14.51
   1   0  -9 2012.40  359.15
   0  -1  -9 1799.20  357.52
   0   1  -9 1855.93  357.42
   0  -1   9 1400.17  372.06
  -1   0   9 2136.93  325.91
  -1   0   9 2109.79  372.54
   1  -1  -9    3.02   11.74
   1   1  -9   26.46   27.39
   1  -1  -9    8.09   23.25
  -1   1   9    1.38   32.39
  -1   1   9    4.91   11.12
  -1  -1   9    3.09   35.29
   1  -2  -9   60.26   16.44
   1  -2  -9   55.13   18.56
   1  -2  -9   56.72   26.42
  -1   2   9   39.54   12.66
  -1   2   9   34.81   10.81
  -1   2   9   10.43   33.23
   2   0  -9   -4.68   21.11
   0  -2  -9    7.95   10.82
  -2   0   9   14.14    9.48
  -2   0   9    6.38   31.32
   0   2   9   -2.68   13.94
   2  -1  -9   33.64   12.53
   2  -1  -9   33.55   21.17
   2  -1  -9   53.44   13.37
  -2   1   9   27.45    8.54
  -2   1   9   21.20   11.59
  -2   1   9   14.14   29.48
   2  -2  -9    8.55    9.81
   2  -2  -9   12.98   20.54
   2  -2  -9    7.95   14.12
  -2   2   9   15.29    8.68
  -2   2   9    6.72    7.88
  -2  -2   9   -1.13   12.05
  -2   2   9    1.09   29.57
   2  -3  -9  199.30   45.01
   2  -3  -9  228.29   41.66
   3   2  -9  291.12   49.52
   2  -3  -9  223.79   46.74
  -3  -2   9  203.70   39.26
  -2   3   9  201.10   38.49
  -3  -2   9  290.60   55.76
  -2   3   9  174.46   38.31
  -2   3   9  210.55   52.03
   1  -3  -9  154.13   39.44
   1  -3  -9  176.74   32.32
   1  -3  -9  112.54   36.37
  -1   3   9  136.30   45.97
  -1   3   9  196.65   28.87
  -1   3   9  118.84   28.33
   0  -3  -9   63.53   20.09
   0   3   9   52.82   13.68
   0  -3   9   26.70   18.69
   0   3   9   43.81   16.75
   3  -1  -9  106.23   26.35
   3  -1  -9  164.84   31.56
   3  -1  -9   75.10   33.66
   3  -1  -9  100.29   28.26
  -3   1   9  183.85   25.23
  -3   1   9  117.44   24.15
  -3   1   9  108.68   41.37
  -1  -3   9  156.63   29.02
  -3   1   9  122.03   26.46
   3  -2  -9   84.50   40.92
   3  -2  -9  144.96   38.15
   2   3  -9  132.25   46.03
   3  -2  -9  148.22   35.00
   3  -2  -9  187.90   38.59
  -3   2   9  193.20   36.01
  -2  -3   9  267.62   54.12
  -2  -3   9  188.72   33.97
  -3   2   9  149.89   31.94
  -3   2   9  170.01   32.12
  -3   2   9  127.43   48.08
   3   3  -9   -0.48    6.45
   3   3  -9    7.33   29.99
   3  -3  -9   10.88   12.29
   3   3  -9   -3.72    5.96
   3  -3  -9    0.78   13.02
   3  -3  -9   12.41   18.87
   3  -3  -9    0.77   16.92
  -3  -3   9   -4.17    7.44
  -3  -3   9    0.69    8.88
  -3  -3   9   19.59   37.61
  -3   3   9    9.72   11.22
  -3   3   9    1.04   28.41
  -3   3   9   -2.67    7.73
  -3   3   9   -1.12   10.88
   3  -4  -9  383.80   76.62
   3  -4  -9  385.96   72.76
   3  -4  -9  391.57   75.88
   3  -4  -9  258.80   77.68
  -3   4   9  299.60   73.53
  -3   4   9  445.31   66.39
  -3   4   9  387.70   82.22
  -3   4   9  327.22   66.63
  -4  -3   9  142.42   83.76
  -4  -3   9  376.05   77.27
   2  -4  -9    4.35   20.33
   2  -4  -9   28.52   13.34
   4   2  -9    7.52   18.99
   2  -4  -9   -0.93   12.95
   2  -4  -9   19.10   19.94
  -4  -2   9    4.67   36.92
  -2   4   9   -0.99   12.80
  -2   4   9    6.82    7.72
  -4  -2   9   19.46   11.63
  -2   4   9   35.34   29.99
   1  -4  -9  321.60   54.85
   4   1  -9  292.63   52.75
   1  -4  -9  214.18   49.51
   1  -4  -9  240.36   56.99
  -1   4   9  224.58   44.77
  -1   4   9  239.53   60.74
  -1   4   9  214.40   44.71
  -4  -1   9  249.32   43.91
  -4  -1   9  110.89   61.98
   4   0  -9    3.82   17.74
   0   4  -9   12.98   40.06
   0  -4  -9    8.46   16.24
   0   4   9   -4.32   11.67
   0  -4   9   14.65   47.37
   0   4   9   -2.14   13.13
   0  -4   9   11.24   15.72
  -4   0   9   -0.93    9.61
   4  -1  -9  191.06   45.37
   1   4  -9  244.15   58.98
  -1  -4   9  222.74   45.52
  -1  -4   9  152.44   66.62
  -1  -4   9  264.77   46.36
   4  -2  -9   13.52   12.86
   2   4  -9   11.25   10.28
   2   4  -9   28.42   10.30
   2   4  -9   18.21   30.99
  -4   2   9   20.69   31.23
  -2  -4   9   12.63   12.64
  -2  -4   9   18.50   14.92
  -2  -4   9   12.61    9.77
  -2  -4   9   10.45   39.61
   4  -3  -9  414.22   82.20
   4  -3  -9  401.86   78.65
   3   4  -9  420.31   85.86
   3   4  -9  333.62   78.70
   3   4  -9  400.21   72.06
  -3  -4   9  407.45   73.12
  -4   3   9  393.42   87.89
  -4   3   9  405.47   73.98
  -3  -4   9  356.21   81.86
  -3  -4   9  405.93   93.12
  -3  -4   9  452.68   77.94
  -4   3   9  431.77   78.53
   4   4  -9    1.74   25.00
   4  -4  -9   -1.00   15.21
   4  -4  -9   -2.91   13.80
   4  -4  -9   -7.81   17.34
  -4   4   9   40.15   18.09
  -4   4   9    7.39   31.27
  -4  -4   9  -11.93   13.69
  -4  -4   9    5.35   41.47
  -4  -4   9   -6.14   13.12
  -4   4   9   -6.70    9.23
   4  -5  -9  777.32  166.80
   5   4  -9  892.67  171.05
  -5  -4   9  780.44  146.47
  -5  -4   9  825.97  176.35
  -5  -4   9  849.88  171.00
  -4   5   9  821.99  171.74
   3  -5  -9  661.29  161.35
   3  -5  -9  956.84  163.45
   3  -5  -9  807.02  161.33
  -5  -3   9  849.85  169.35
  -5  -3   9  952.49  163.25
  -3   5   9  653.91  148.70
  -3   5   9  840.29  166.53
   2  -5  -9  511.06  108.99
   2  -5  -9  474.12  113.88
   5   2  -9  520.59  113.60
  -2   5   9  577.60   98.86
  -2   5   9  533.50  120.59
  -5  -2   9  634.98  119.41
  -5  -2   9  512.87   97.26
   1  -5  -9  438.28   88.67
   5   1  -9  435.96   86.96
  -1   5   9  425.62   75.22
  -5  -1   9  343.52   91.73
   0   5  -9  293.17   61.86
   0  -5  -9  246.26   53.52
   5   0  -9  234.16   49.84
  -5   0   9  302.61   42.98
  -5   0   9  164.55   58.10
   0  -5   9  269.53   71.29
   0  -5   9  165.36   45.87
   0   5   9  256.58   44.42
   5  -1  -9  434.32   82.66
   1   5  -9  444.35   89.41
   1   5  -9  411.48   75.58
  -1  -5  -9  346.47   82.96
  -1  -5  -9  462.00   81.07
  -5   1   9  349.20   88.15
  -1  -5   9  347.77   77.33
  -5   1   9  370.96   71.97
  -1  -5   9  346.49   99.40
   1   5   9  344.52   72.12
  -1  -5   9  313.96   73.77
   2   5  -9  564.61  100.97
   5  -2  -9  585.17  115.57
   2   5  -9  531.88  120.11
  -2  -5   9  610.00  103.31
  -2  -5   9  545.52  125.64
  -2  -5   9  523.99  112.94
  -2  -5   9  539.96  108.50
  -5   2   9  633.11  103.37
   5  -3  -9  894.11  150.21
   3   5  -9  846.78  153.84
   3   5  -9  701.03  141.43
   3   5  -9  812.68  162.85
  -3  -5   9  813.30  141.87
  -3  -5   9 1022.74  166.88
  -3  -5   9  722.87  150.48
  -3  -5   9  600.90  159.55
   4   5  -9  837.14  164.12
   4   5  -9  755.70  140.83
  -4  -5   9  625.65  163.21
  -4  -5   9  791.45  169.19
  -4  -5   9  983.91  155.11
  -4  -5   9  681.24  140.21
  -5   4   9  686.39  166.96
   5   5  -9   23.66   30.28
   5  -5  -9  -59.55   25.27
  -5   5   9  -28.06   23.63
  -5  -5   9  -12.58   19.74
  -5  -5   9   43.90   50.36
  -5  -5   9    5.32   14.87
  -5   5   9   -2.16   33.66
   6   5  -9  115.12   42.56
   5  -6  -9  133.70   38.27
   5  -6  -9   79.85   34.74
  -6  -5   9  126.28   60.31
  -5   6   9   99.54   34.26
  -6  -5   9  124.19   34.54
  -6  -5   9  102.88   28.24
  -5   6   9  145.99   42.50
   4  -6  -9  882.50  200.84
   4  -6  -9 1116.48  191.15
  -6  -4   9  910.84  208.61
  -6  -4   9  914.99  201.21
  -4   6   9  914.56  203.77
  -4   6   9 1077.77  195.46
   3  -6  -9  892.51  217.26
   3  -6  -9  745.24  216.30
   3  -6  -9 1128.32  205.35
  -6  -3   9 1122.36  221.94
  -3   6   9 1100.99  190.69
  -3   6   9 1249.88  223.74
  -3   6   9 1136.94  206.15
   2  -6  -9  606.00  122.92
   2  -6  -9  505.78  126.10
   2  -6  -9  557.94  121.00
  -2   6   9  549.36  130.86
  -2   6   9  688.89  110.25
  -6  -2   9  555.30  130.41
   1  -6  -9  409.08   84.57
   6   1  -9  481.09   80.80
   1  -6  -9  461.27   76.59
  -1   6   9  297.60   70.24
  -1   6   9  393.95   71.99
   1  -6   9  413.80   76.62
  -6  -1   9  364.61   71.45
  -6  -1   9  453.91   88.97
   0  -6  -9    4.75   30.55
   0  -6  -9   16.86   20.05
   6   0  -9    3.35   20.90
   0   6  -9   58.25   50.07
   0  -6   9   20.65   55.24
   0  -6   9  -12.01   18.76
   0   6   9   10.11   12.45
   0   6   9  -10.73   18.75
  -6   0   9  -14.15   39.04
  -6   0   9   12.37   13.32
  -1  -6  -9  431.13   86.25
   6  -1  -9  340.95   83.80
  -1  -6  -9  509.07   81.96
   1   6  -9  434.01   93.61
  -1  -6   9  436.00   79.28
  -1  -6   9  455.22  101.53
  -6   1   9  331.32   88.75
   1   6   9  507.51   75.59
  -1  -6   9  435.04   76.95
  -2  -6  -9  489.72  124.93
   2   6  -9  619.00  122.41
   2   6  -9  774.60  132.35
   2   6  -9  654.27  110.87
  -2  -6   9  537.12  125.33
  -2  -6   9  534.28  119.20
  -2  -6   9  734.15  139.57
  -2  -6   9  686.65  113.03
  -6   2   9  550.85  132.93
   3   6  -9  929.06  207.34
   3   6  -9 1160.28  190.06
  -3  -6   9 1028.14  189.88
  -3  -6   9 1027.13  202.66
  -6   3   9 1114.21  221.38
  -3  -6   9 1056.21  215.92
   4   6  -9  987.66  177.15
   4   6  -9  886.08  203.73
   4   6  -9 1165.50  204.82
  -4  -6   9  935.96  208.68
  -4  -6   9  885.19  202.62
   6  -5  -9  143.81   36.40
   5   6  -9  114.79   43.50
  -5  -6   9   52.34   65.38
  -5  -6   9  176.71   36.85
  -5  -6   9  151.19   30.22
   6  -6  -9   18.02   26.81
   6   6  -9  -35.97   33.56
  -6  -6   9   -1.56   17.41
  -6  -6   9   21.00   60.27
   6  -7  -9   -9.95   28.41
   7   6  -9    7.64   36.73
  -7  -6   9  -30.29   21.09
  -7  -6   9  -37.82   67.51
   5  -7  -9  282.20   85.71
   5  -7  -9  399.03   80.47
   7   5  -9  410.76   88.90
  -7  -5   9  402.75   73.98
  -7  -5   9  399.79  103.55
  -5   7   9  450.58   83.49
   7   4  -9   -2.33   32.20
   4  -7  -9  -21.33   26.22
   4  -7  -9   -9.53   31.58
  -7  -4   9   -3.24   15.67
  -4   7   9    2.47   24.78
  -7  -4   9  -11.18   56.35
   3  -7  -9 2581.39  540.46
  -3   7   9 2730.01  543.98
  -3   7   9 2804.39  500.08
   2  -7  -9   17.50   31.87
   2  -7  -9   25.69   22.92
   7   2  -9   10.66   30.10
  -2   7   9   22.77   18.83
  -7  -2   9   -4.54   16.21
  -2   7   9   -1.74   22.52
  -7  -2   9  -13.87   47.14
   1  -7  -9  592.15  132.02
   1  -7  -9  605.68  142.66
   7   1  -9 1054.56  142.01
  -7  -1   9  687.99  146.12
   1  -7   9  440.22  129.21
  -1   7   9  769.28  123.82
   0  -7  -9   12.27   36.99
   0   7  -9  -25.13   59.67
   0  -7  -9   41.04   23.63
  -7   0   9   -1.74   45.59
   0   7   9   14.22    9.79
   0  -7   9  -79.27   63.75
   0  -7   9   16.15   21.94
   0  -7   9    4.72   22.99
   0   7   9   39.17   22.57
   1   7  -9  650.74  155.57
  -1  -7  -9  746.31  150.62
  -1  -7  -9  842.46  141.30
   1   7   9  722.12  132.88
  -1  -7   9  794.90  163.64
  -1  -7   9  819.77  134.67
  -2  -7  -9  -27.31   33.66
   2   7  -9   -1.79   19.96
   2   7  -9   27.76   44.29
  -2  -7  -9   21.31   25.88
   2   7   9   41.64   24.22
  -2  -7   9   28.18   57.06
  -2  -7   9   -6.40   18.32
   3   7  -9 3381.80  606.41
   3   7  -9 3096.29  605.17
  -3  -7   9 2550.79  527.34
  -3  -7   9 2917.17  606.05
   4   7  -9  -12.47   28.87
   4   7  -9   62.42   43.65
  -4  -7   9   -4.36   15.67
  -4  -7   9   14.87   54.30
   5   7  -9  255.84   89.16
   5   7  -9  273.15   84.12
  -5  -7   9  441.13   68.14
  -5  -7   9  405.56   99.10
  -5  -7   9  360.20   81.31
   6   7  -9  -18.93   34.68
  -6  -7   9  -36.58   66.05
  -6  -7   9  -12.91   29.06
  -6  -7   9  -16.34   19.36
   7   7  -9   -5.35   38.72
   7  -7  -9   -7.37   36.52
  -7  -7   9   13.06   21.73
  -7  -7   9   81.02   75.86
   8   7  -9  287.66   80.74
   7  -8  -9  390.87   73.20
  -8  -7   9  251.19  100.71
   6  -8  -9  115.18   37.85
   8   6  -9  106.32   44.74
  -6   8   9  129.26   44.27
  -8  -6   9   85.59   73.61
   5  -8  -9   12.74   35.74
   8   5  -9    8.46   38.97
   5  -8  -9    4.11   31.43
  -5   8   9   -3.18   31.98
  -8  -5   9  -10.47   63.46
   4  -8  -9  151.10   44.14
   4  -8  -9  140.43   37.85
  -4   8   9  156.66   38.51
  -4   8   9  104.81   37.17
  -8  -4   9   34.50   64.77
   3  -8  -9   36.41   30.30
   3  -8  -9   37.20   39.12
  -3   8   9   29.72   26.29
  -3   8   9   30.22   30.68
   2  -8  -9  484.19   95.89
   2  -8  -9  475.80  103.56
  -2   8   9  478.75   93.29
  -2   8   9  369.70   87.43
   1  -8  -9  309.95   71.33
   1  -8  -9  395.24   81.21
  -1   8   9  366.91   67.06
   1  -8   9  258.58   68.58
   1  -8   9  386.39   70.78
   0  -8  -9   27.20   37.90
   0  -8  -9   -1.79   25.41
   0   8  -9   -7.49   22.76
   0   8  -9   -3.13   59.67
   0  -8   9  100.31   61.25
   0  -8   9    1.80   24.92
   0  -8   9   12.06   26.82
   0  -8   9   -5.67   22.87
   0   8   9   -6.09   25.25
  -1  -8  -9  286.34   69.19
  -1  -8  -9  280.63   79.53
   1   8  -9  430.40   90.64
   1   8  -9  238.43   69.02
  -1  -8   9  409.13   67.81
  -1  -8   9  283.81   71.68
  -1  -8   9  310.45   63.12
  -1  -8   9  361.22   95.12
   1   8   9  302.63   63.61
   2   8  -9  518.83   98.32
  -2  -8  -9  361.58  104.57
   2   8  -9  423.42   88.70
  -2  -8  -9  399.80   97.21
   2   8  -9  683.25  111.55
  -2  -8   9  371.95   94.75
  -2  -8   9  591.99   89.51
   2   8   9  376.31   90.57
  -2  -8   9  456.57  102.05
  -2  -8   9  693.30  120.89
  -3  -8  -9   13.42   36.30
   3   8  -9   48.91   22.26
   3   8  -9    4.59   50.12
   3   8  -9   15.50   20.92
   3   8  -9   56.55   35.31
  -3  -8   9    3.13   18.14
  -3  -8   9   16.47   27.10
  -3  -8   9   61.80   61.29
  -3  -8   9   31.04   20.54
   4   8  -9   96.51   25.60
   4   8  -9   17.55   35.08
   4   8  -9   50.08   52.44
   4   8  -9   57.44   26.64
  -4  -8   9   80.84   24.86
  -4  -8   9  147.51   64.88
  -4  -8   9   86.38   32.64
  -4  -8   9  111.96   26.35
   5   8  -9   13.92   33.26
   5   8  -9   -3.07   22.14
   5   8  -9   19.06   49.51
  -5  -8   9  -14.14   63.94
  -5  -8   9    6.52   30.54
  -5  -8   9  -12.51   25.37
  -5  -8   9  -18.47   19.17
   6   8  -9   89.69   43.63
  -6  -8   9   90.58   27.50
  -6  -8   9  110.39   72.39
   7   8  -9  354.07   75.44
  -7  -8   9  195.34  100.81
  -7  -8   9  261.59   58.88
   8   8  -9  -22.74   50.15
  -8  -8   9 -223.01   86.05
  -8  -8   9  -33.31   26.62
   7  -9  -9   64.38   45.94
   6  -9  -9  -73.37   48.78
   6  -9  -9  -21.89   39.44
  -6   9   9  -27.16   36.54
   5  -9  -9   96.94   50.01
   5  -9  -9  107.29   41.04
  -5   9   9  142.63   46.23
   4  -9  -9  225.21   60.49
   4  -9  -9  229.60   53.46
  -4   9   9  157.33   53.03
  -4   9   9  224.60   53.28
   3  -9  -9   47.47   35.30
   3  -9  -9   67.24   42.56
  -3   9   9   17.33   34.73
  -3   9   9    2.84   30.41
   2  -9  -9   52.83   43.85
   2  -9  -9   29.62   32.88
  -2   9   9    9.35   33.43
  -2   9   9   59.59   29.68
   1  -9  -9  -10.17   31.56
   1  -9  -9   29.32   45.67
   1  -9   9    2.21   28.31
   1  -9   9   29.06   29.63
  -1   9   9   25.54   32.87
   0   9  -9   32.23   69.09
   0  -9  -9    8.06   26.95
   0   9  -9   34.91   28.85
   0  -9  -9   -2.17   47.11
   0  -9   9  -57.57   70.00
   0  -9   9    2.05   28.57
   0  -9   9  -21.90   32.62
   0  -9   9   25.51   23.91
   0   9   9  -34.58   30.95
   1   9  -9   35.05   61.17
  -1  -9  -9   30.96   30.50
  -1  -9  -9    6.61   47.13
   1   9  -9   57.18   31.01
  -1  -9   9  144.40   70.53
  -1  -9   9    9.36   30.77
  -1  -9   9   22.13   24.51
   1   9   9   45.06   30.30
  -1  -9   9   39.43   28.50
   2   9  -9   53.91   26.82
  -2  -9  -9   48.85   30.70
   2   9  -9  -10.72   26.45
   2   9  -9   -7.77   57.38
  -2  -9  -9   31.02   45.90
  -2  -9   9   45.66   23.31
  -2  -9   9   35.36   32.74
   2   9   9   17.34   32.27
  -2  -9   9  100.69   68.98
  -2  -9   9    8.30   26.33
   3   9  -9   84.72   52.92
   3   9  -9   27.73   36.98
   3   9  -9   27.18   26.20
   3   9  -9   24.08   23.78
  -3  -9  -9   81.00   43.42
  -3  -9   9  -89.52   67.72
  -3  -9   9   51.95   25.10
  -3  -9   9   52.21   31.83
   3   9   9    2.68   30.97
  -3  -9   9   24.26   21.79
   4   9  -9  172.85   44.97
   4   9  -9  189.85   45.90
   4   9  -9  194.84   69.63
   4   9  -9  329.38   58.75
  -4  -9   9  139.78   45.70
  -4  -9   9  251.52   76.72
  -4  -9   9  154.83   54.18
  -4  -9   9  257.62   42.67
   5   9  -9  178.24   35.42
   5   9  -9  142.38   66.31
   5   9  -9  136.54   47.56
  -5  -9   9  115.53   36.90
  -5  -9   9  117.41   73.61
  -5  -9   9  120.64   43.62
  -5  -9   9  114.08   31.57
   6   9  -9    5.24   42.49
   6   9  -9   -2.85   59.99
  -6  -9   9  -86.85   73.96
  -6  -9   9    3.58   21.73
   7   9  -9   97.49   54.18
  -7  -9   9   55.01   83.38
  -7  -9   9  134.51   34.01
   8   9  -9  460.37   98.51
  -8  -9   9  373.64   81.28
  -8  -9   9  404.53  124.12
  -9  -9   9 -125.27   94.00
   7 -10  -9  154.98   52.65
   6 -10  -9  520.12  103.27
   6 -10  -9  352.63   95.66
  -6  10   9  517.52   99.57
   5 -10  -9   33.31   39.48
   5 -10  -9  -91.32   51.67
  -5  10   9   34.33   41.82
   4 -10  -9  -39.91   41.84
   4 -10  -9  -97.19   54.05
  -4  10   9   58.37   43.69
  -4  10   9   69.06   38.87
   3 -10  -9    2.43   35.84
   3 -10  -9  -28.84   48.63
  -3  10   9    8.46   40.37
  -3  10   9  -51.83   36.34
   2 -10  -9   64.17   52.76
   2 -10  -9    2.39   35.42
  -2  10   9   16.02   38.93
  -2  10   9   99.91   34.55
   1 -10  -9   91.04   55.94
   1 -10  -9  133.32   42.01
  -1  10   9  111.10   39.98
   1 -10   9  135.40   39.94
   1 -10   9   75.52   36.11
   0 -10  -9  -16.74   54.49
   0 -10  -9  -22.65   32.68
   0  10  -9    4.22   87.92
   0  10  -9  -13.18   31.11
   0  10   9    7.83   33.83
   0 -10   9  -31.99   33.48
   0 -10   9   -7.51   37.62
   0 -10   9  -21.81   74.58
   0 -10   9   18.27   24.70
   1  10  -9   91.49   70.23
   1  10  -9  143.12   35.83
   1  10  -9  173.39   39.86
  -1 -10  -9  103.23   54.10
  -1 -10  -9  134.70   41.26
   1  10   9   56.41   37.22
  -1 -10   9   76.70   37.04
  -1 -10   9   92.31   40.25
  -1 -10   9   57.30   31.10
  -1 -10   9   57.39   75.22
   2  10  -9   45.21   31.71
  -2 -10  -9  119.69   36.08
   2  10  -9   23.59   26.08
  -2 -10  -9   22.14   47.13
   2  10  -9  -11.61   65.00
  -2 -10   9   -5.17   35.22
  -2 -10   9   49.26   24.92
  -2 -10   9   49.99   73.02
  -2 -10   9    1.92   28.67
   2  10   9   -8.24   35.52
  -3 -10  -9   19.50   53.54
   3  10  -9  -58.32   38.04
   3  10  -9    2.70   60.77
  -3 -10  -9   -5.11   35.03
   3  10  -9   -4.59   25.37
   3  10  -9  -25.61   29.19
  -3 -10   9   25.90   35.08
  -3 -10   9   44.95   70.78
  -3 -10   9   16.31   24.65
   3  10   9   29.44   37.94
  -3 -10   9  -13.45   22.48
   4  10  -9   24.09   39.05
   4  10  -9   30.03   60.55
   4  10  -9   67.17   30.15
   4  10  -9   87.57   26.47
  -4 -10   9   65.51   26.42
  -4 -10   9  -26.67   70.55
  -4 -10   9    6.48   38.27
  -4 -10   9    3.26   22.03
   5  10  -9  -36.81   67.04
   5  10  -9  -20.33   42.47
   5  10  -9    7.65   27.37
  -5 -10   9   36.00   28.18
  -5 -10   9   -1.66   37.65
  -5 -10   9   13.39   20.49
  -5 -10   9   20.09   73.99
   6  10  -9  381.04  113.92
   6  10  -9  533.83  100.27
  -6 -10   9  272.79   79.07
  -6 -10   9  558.67  119.35
   7  10  -9  102.56   55.64
  -7 -10   9   44.14   82.84
  -7 -10   9   67.83   29.54
   8  10  -9   -3.58   54.59
  -8 -10   9  261.19   92.80
  -9 -10   9    3.31   94.58
   7 -11  -9  112.15   55.08
   6 -11  -9   43.88   46.06
   6 -11  -9   10.32   53.24
  -6  11   9   54.12   44.03
   5 -11  -9   70.54   46.76
   5 -11  -9  122.51   53.47
  -5  11   9    8.40   45.94
  -5  11   9   20.94   51.92
   4 -11  -9   32.35   55.90
   4 -11  -9  -57.51   42.76
  -4  11   9   -3.87   44.74
  -4  11   9   56.70   49.54
   3 -11  -9   47.16   55.32
   3 -11  -9   10.86   41.24
  -3  11   9   22.09   46.71
  -3  11   9  -18.41   41.21
   2 -11  -9  167.92   53.26
   2 -11  -9   -5.07   70.76
   2 -11   9  218.31   52.12
  -2  11   9  279.09   56.21
  -2  11   9  129.16   53.73
  -1  11  -9   58.85   40.64
   1 -11  -9 -272.03   71.58
   1 -11   9   -7.84   36.62
  -1  11   9  -17.91   42.89
   1 -11   9    7.05   29.96
  -1  11   9  -20.47   40.41
   0 -11  -9  891.71  131.10
   0  11  -9  530.50  159.56
   0 -11  -9  641.12  114.11
   0  11  -9  518.53  111.32
   0 -11   9  376.63  101.27
   0 -11   9  432.37  116.54
   0 -11   9  521.34  110.32
   0  11   9  447.24  105.45
   1  11  -9   26.05   86.28
  -1 -11  -9  -83.60   43.22
   1  11  -9    6.70   35.79
  -1 -11  -9 -231.74   70.01
   1  11  -9  -43.80   35.42
  -1 -11   9    8.67   80.53
  -1 -11   9   -4.78   35.95
  -1 -11   9  -23.11   40.36
   1  11   9  -72.50   47.06
  -1 -11   9  -11.66   25.97
  -2 -11  -9  255.29   53.93
   2  11  -9  110.72   53.26
  -2 -11  -9  179.95   72.25
   2  11  -9  189.03   86.23
   2  11  -9  298.77   52.28
   2  11   9  287.64   58.55
  -2 -11   9  189.49   51.16
  -2 -11   9  196.85   58.73
  -2 -11   9  209.76   95.29
  -2 -11   9  220.73   45.61
   3  11  -9    2.27   33.07
  -3 -11  -9   16.46   59.01
   3  11  -9   44.11   68.05
   3  11  -9   -2.55   40.86
   3  11  -9   18.18   29.04
  -3 -11  -9   -8.26   38.19
   3  11   9   77.80   40.22
  -3 -11   9   13.15   71.24
  -3 -11   9    6.82   22.54
  -3 -11   9  -30.93   30.78
  -3 -11   9  -30.82   40.08
   4  11  -9  -13.98   27.50
   4  11  -9   58.65   43.50
   4  11  -9   26.47   33.03
   4  11  -9   53.84   70.60
  -4 -11   9   30.79   40.11
  -4 -11   9    3.98   26.97
  -4 -11   9   43.35   74.28
  -4 -11   9   35.08   22.58
   5  11  -9   31.06   68.45
   5  11  -9  -54.37   34.20
   5  11  -9   42.50   27.04
   5  11  -9   90.51   46.78
  -5 -11   9  121.49   75.09
  -5 -11   9   52.09   24.51
   6  11  -9   86.26   81.93
   6  11  -9   28.90   47.93
  -6 -11   9   21.43   24.13
  -6 -11   9    5.61   82.82
   7  11  -9   49.19   54.55
   7  11  -9   21.97   79.51
  -7 -11   9  -48.53   89.31
  -7 -11   9   43.87   28.96
   8  11  -9   75.29   59.87
  -8 -11   9 -154.26   90.32
   5 -12  -9    3.11   46.62
  -5  12   9  -19.65   53.34
   4 -12  -9  312.71   62.68
   4 -12  -9   84.27   49.97
  -4  12   9  147.91   53.46
  -4  12   9   15.14   62.38
   3 -12  -9   52.46   62.73
   3 -12  -9   -3.00   43.02
  -3  12   9    4.18   47.93
  -3  12   9   85.51   56.15
   2 -12  -9    2.96   42.46
   2 -12  -9   11.32   66.29
  -2  12   9    6.84   51.47
  -2  12   9   16.23   48.01
   2 -12   9  -30.94   41.39
   1 -12  -9  596.78  112.85
  -1  12  -9  609.76  116.12
   1 -12  -9  448.43  125.93
  -1  12   9  363.65  114.79
  -1  12   9  572.08  109.88
   1 -12   9  498.63  112.31
   0 -12  -9   25.42   41.20
   0 -12  -9  -71.45   65.62
   0  12  -9  -15.96   42.49
   0 -12   9  -25.71   41.92
   0 -12   9  -83.64   46.45
   0  12   9   33.04   43.89
   1  12  -9  556.56  108.24
   1  12  -9  505.81  155.56
   1  12  -9  643.61  119.27
  -1 -12  -9  727.06  129.06
  -1 -12  -9  438.01  115.47
  -1 -12   9  515.16  114.76
  -1 -12   9  456.30  121.11
   1  12   9  555.91  111.00
   2  12  -9   66.21   40.10
  -2 -12  -9   -2.87   44.12
   2  12  -9    2.64   42.97
   2  12  -9   90.61   83.17
   2  12  -9   22.58   36.95
  -2 -12  -9   31.37   43.64
  -2 -12   9    2.49   34.40
  -2 -12   9   -5.42   23.08
  -2 -12   9   88.13   81.88
   2  12   9  -71.35   47.46
  -2 -12   9   35.47   43.44
   3  12  -9  -35.05   35.87
   3  12  -9  -18.17   38.50
   3  12  -9   45.34   72.17
  -3 -12  -9   65.50   43.44
   3  12  -9   65.83   46.72
  -3 -12   9   67.76   25.72
  -3 -12   9    2.77   78.24
   3  12   9   -3.56   43.98
  -3 -12   9   32.52   33.97
  -3 -12   9   68.72   46.31
   4  12  -9    2.70   43.95
   4  12  -9   54.57   73.10
   4  12  -9    2.71   25.79
   4  12  -9  -32.74   37.01
  -4 -12   9    5.38   78.20
  -4 -12   9   -6.69   29.79
  -4 -12   9   38.67   46.69
  -4 -12   9    6.78   22.96
   5  12  -9   71.02   76.46
   5  12  -9   69.92   48.50
  -5 -12   9 -196.15   80.53
  -5 -12   9    1.79   22.55
   6  12  -9  -47.33   83.55
   6  12  -9  -42.50   50.30
  -6 -12   9    2.01   24.88
  -6 -12   9  173.18   84.80
   7  12  -9  103.06   97.92
   7  12  -9  148.48   66.59
  -7 -12   9   38.43   35.78
   8  12  -9   -4.31  100.66
  -9 -12   9  973.57  224.11
   7 -13  -9  114.54   64.20
  -7  13   9   22.93   55.81
   6 -13  -9   14.32   53.66
   6 -13  -9    3.07   69.22
  -6  13   9  -19.31   66.27
  -6  13   9  -16.03   54.19
   5 -13  -9  381.65   76.64
  -5  13   9  259.32   83.54
   4 -13  -9    3.02   65.73
  -4  13   9   14.69   57.09
   3 -13  -9   12.23   66.87
  -3  13   9   -4.74   51.15
   2 -13   9  109.00   52.31
  -1  13  -9    4.70   49.34
   1 -13   9   37.89   47.62
   0  13  -9  323.74   72.98
   0  13  -9  231.54   64.56
   0 -13   9  240.94   73.06
   0 -13   9  208.50   67.71
  -1 -13  -9  -28.12   70.00
   1  13  -9   52.78   48.48
   1  13  -9 -158.92   45.57
  -1 -13   9   17.60   42.93
  -1 -13   9   -2.30   48.25
  -2 -13  -9   46.97   73.55
   2  13  -9   77.00   48.93
   2  13  -9  171.22   48.99
  -2 -13   9   88.98   46.63
  -2 -13   9   86.62   52.03
  -3 -13  -9   31.71   72.42
   3  13  -9   73.44   45.31
   3  13  -9   29.44   35.87
  -3 -13  -9    9.73   45.39
   3  13   9   -3.92   54.57
  -3 -13   9  105.07   50.50
  -3 -13   9   85.52   39.28
  -4 -13  -9   44.38   43.84
   4  13  -9   37.08   36.00
  -4 -13  -9 -113.09   72.68
   4  13  -9    5.71   44.10
   4  13   9  -41.88   54.94
   7 -14  -9   -4.37   59.65
  -7  14   9   24.81   59.63
   6 -14  -9    3.94   60.30
   6 -14  -9    3.35   72.22
  -6  14   9  -17.57   59.74
  -6  14   9  -10.89   76.59
   5 -14  -9  -42.23   68.48
   5 -14  -9  -48.12   56.25
  -5  14   9  -45.50   63.18
  -5  14   9   35.68   69.83
   4 -14  -9   10.92   56.87
   4 -14  -9   79.41   74.41
  -4  14   9 -114.30   71.65
  -4  14   9   38.70   58.44
   3 -14  -9   21.72   58.18
   3 -14  -9   13.49   77.94
  -3  14   9  -35.87   66.15
  -3  14   9   37.53   59.38
   2 -14  -9   10.77   60.72
   2 -14  -9  -40.51   80.13
  -2  14   9  139.03   64.71
  -2  14   9   42.51   65.92
   1 -14  -9  -87.62   64.90
   1 -14  -9 -244.15   79.87
  -1  14   9   21.23   61.01
  -1  14   9    5.10   62.18
   0 -14  -9  -85.64   82.44
   0 -14  -9   20.84   59.70
   0  14  -9   27.88   52.06
   0  14   9  -24.92   61.21
   0 -14   9  -45.00   53.69
   0  14   9   -4.14   60.90
  -1 -14  -9   13.75   52.83
  -1 -14  -9 -155.32   76.32
   1  14  -9   17.22   48.83
   1  14   9  -58.89   58.08
  -1 -14   9  180.35   56.06
  -1 -14   9  -58.99   51.88
  -2 -14  -9  -37.95   50.80
   2  14  -9   19.67   35.68
   2  14  -9    3.32   50.09
  -2 -14  -9 -118.94   70.53
   2  14   9   49.95   56.12
  -2 -14   9  -68.08   46.90
  -2 -14   9   27.26   52.85
   3  14  -9   85.58   48.01
  -3 -14  -9    3.55   48.80
   3  14  -9   40.14   41.30
  -3 -14  -9   -3.44   77.45
  -3 -14   9   39.39   55.12
  -3 -14   9   37.46   41.90
   3  14   9   25.88   59.99
  -4 -14  -9  -47.59   51.53
   4  14   9   -4.57   55.77
   7 -15  -9  -48.45   74.06
  -7  15   9  -13.99  106.67
  -7  15   9   13.51   67.77
   6 -15  -9  -18.30   80.45
   6 -15  -9   68.71   70.80
  -6  15   9  143.52   87.58
  -6  15   9   25.83   65.37
   5 -15  -9   24.95   77.72
   5 -15  -9   56.56   64.36
  -5  15   9   82.36   71.54
  -5  15   9  -57.66   81.58
   4 -15  -9    3.99   58.31
   4 -15  -9   25.23   78.26
  -4  15   9  -95.97   79.63
  -4  15   9  -68.50   74.15
   3 -15  -9    3.96   59.71
   3 -15  -9   26.00   85.12
  -3  15   9  133.30   72.04
  -3  15   9  -80.82   75.44
   2 -15  -9  -70.57   58.62
   2 -15  -9  -25.65   84.66
  -2  15   9   66.16   65.06
  -2  15   9   78.42   70.08
   2 -15   9   14.95   56.17
   1 -15  -9   23.11   64.65
   1 -15  -9   59.73   92.66
  -1  15  -9  -45.53   58.67
  -1  15  -9  -16.27   60.03
  -1  15   9    5.88   82.71
   1 -15   9   91.70   60.49
  -1  15   9   56.92   70.35
   1 -15   9  -11.63   58.85
   0  15  -9   19.96   54.28
   0 -15  -9   -7.66   59.91
   0 -15  -9 -106.81   86.67
   0  15  -9   34.96   56.71
   0  15   9    4.63   61.71
   0  15   9   84.66   70.63
   0 -15   9 -121.06   52.69
   0 -15   9   37.40   59.79
   1  15  -9   -3.78   47.14
  -1 -15  -9   -3.80   58.73
   1  15  -9    4.66   54.56
  -1 -15  -9  -80.86   84.55
   1  15   9   -9.34   63.28
  -1 -15   9  214.84   52.49
  -1 -15   9   43.51   57.31
   2  15  -9    4.35   49.29
  -2 -15  -9  -99.31   82.64
  -2 -15  -9 -163.39   56.07
  -2 -15   9   -5.38   59.95
   2  15   9   78.40   62.08
  -3 -15  -9   -3.90   53.96
  -3 -15  -9    3.75   82.98
   3  15  -9   12.20   47.50
   3  15   9   52.28   61.89
  -4 -15  -9   -3.97   60.18
   4  15   9  -39.99   64.62
   7 -16  -9  -90.88   80.91
  -7  16   9  -56.32  122.58
  -7  16   9   66.60   80.52
   6 -16  -9 -192.00   79.41
   6 -16  -9   14.19   67.60
  -6  16   9  -50.03   75.21
  -6  16   9  -64.58  105.63
   5 -16  -9 -116.29   62.46
   5 -16  -9 -144.26   78.71
  -5  16   9   63.59   72.13
  -5  16   9  162.73   98.81
   4 -16  -9   30.60   65.55
   4 -16  -9   51.14   92.01
  -4  16   9   -7.02   74.21
  -4  16   9   47.78   89.18
   3 -16  -9  141.90   97.89
   3 -16  -9  -60.63   70.68
  -3  16   9  -41.06   74.25
  -3  16   9    5.68   80.71
   2 -16  -9    4.26   62.84
   2 -16  -9  -40.28   84.21
  -2  16   9   16.53   75.28
   2 -16   9   -4.14   54.63
  -2  16   9 -108.73   85.11
   1 -16  -9    4.22   59.43
  -1  16  -9   -5.80   58.54
  -1  16  -9    4.18   64.03
   1 -16  -9   12.05   80.79
  -1  16   9  137.36   80.94
   1 -16   9    4.24   65.85
  -1  16   9   26.75   77.15
   0 -16  -9  -38.02   62.25
   0  16  -9    5.37   59.52
   0 -16  -9 -132.81   89.68
   0  16  -9   29.91   63.12
   0  16   9  -57.08   77.44
   0 -16   9    4.13   60.26
   0 -16   9   18.63   61.99
   0  16   9  -38.67   75.17
  -1 -16  -9    4.18   59.04
   1  16  -9   -5.06   58.80
  -1 -16  -9   20.02   83.77
   1  16  -9   66.33   64.11
   1  16   9  -31.64   69.16
   1  16   9   -5.18   73.94
  -1 -16   9  112.24   63.47
  -1 -16   9  -76.64   62.74
   2  16  -9  -49.33   57.03
  -2 -16  -9 -108.86   65.97
  -2 -16  -9   51.67   88.84
   2  16  -9    4.79   54.84
   2  16   9  -40.86   71.14
  -2 -16   9  -20.25   61.89
  -2 -16   9  -34.01   57.42
  -3 -16  -9   59.87   62.34
  -3 -16  -9   16.27   85.77
   3  16   9   94.41   75.69
  -4 -16  -9   51.99   69.13
   4  16   9  -16.39   71.23
   7 -17  -9 -159.48   88.68
  -7  17   9  -81.65   91.83
  -7  17   9  -28.16  134.06
   6 -17  -9 -135.53   93.15
   6 -17  -9  -20.85   73.73
  -6  17   9  -15.92   90.50
  -6  17   9   82.14  119.57
   5 -17  -9   -4.94   78.53
   5 -17  -9   25.69   92.82
  -5  17   9  153.80  102.82
  -5  17   9    7.90   78.25
   4 -17  -9    4.79   64.89
   4 -17  -9   25.78   94.44
  -4  17   9   39.56   87.10
  -4  17   9  108.19   97.04
   3 -17  -9   18.91   70.90
   3 -17  -9  -74.56   95.29
  -3  17   9  122.50   87.85
  -3  17   9   31.04   90.88
   2 -17  -9   46.50   71.02
   2 -17  -9   13.23   97.25
  -2  17  -9   21.77   67.71
  -2  17   9  -61.79   80.33
  -2  17   9   -7.68   88.20
   2 -17   9  -54.83   72.40
  -1  17  -9  -64.59   70.66
   1 -17  -9    4.62   67.13
  -1  17  -9  -24.80   69.96
   1 -17  -9  112.22   97.74
   1 -17   9   27.68   66.98
  -1  17   9   53.27   81.18
  -1  17   9  -41.43   78.97
   0 -17  -9 -147.93  102.47
   0  17  -9   23.12   64.03
   0 -17  -9  -60.20   68.56
   0  17  -9 -106.25   66.74
   0 -17   9  -77.91   67.48
   0  17   9  -21.97   90.76
   0 -17   9  -50.25   68.61
   0  17   9  116.57   80.86
   1  17  -9   -5.48   55.37
  -1 -17  -9  -94.54   98.49
   1  17  -9  -41.13   70.44
  -1 -17  -9   32.24   62.46
  -1 -17   9    8.81   64.05
   1  17   9   28.67   81.24
   1  17   9   -5.76   78.55
  -1 -17   9   63.69   68.41
   2  17  -9  -36.49   69.78
  -2 -17  -9   21.66   97.77
   2  17  -9    5.28   58.17
  -2 -17  -9 -189.02   68.81
   2  17   9   17.02   76.20
  -3 -17  -9    4.71   72.73
   3  17   9   23.21   76.30
  -4 -17  -9 -118.54   67.65
   4  17   9   54.12   75.95
   7 -18  -9 -104.99  101.78
  -7  18   9   81.52   92.72
  -7  18   9  109.78  154.47
   6 -18  -9   19.13   97.76
   6 -18  -9 -116.82   81.71
  -6  18   9    8.90   95.99
  -6  18   9  -28.11  137.64
   5 -18  -9 -348.37  106.01
   5 -18  -9    5.44   75.82
  -5  18   9   17.70   96.93
  -5  18   9  -58.06  122.13
   4 -18  -9  215.26   99.26
   4 -18  -9  674.22  122.98
  -4  18   9   68.90  113.72
  -4  18   9   17.84  105.85
   3 -18  -9  -56.56   80.56
   3 -18  -9  -76.22  106.30
  -3  18   9   -8.80   97.24
  -3  18   9 -131.25  104.01
   2 -18  -9 -139.89  105.02
  -2  18  -9  -28.66   66.08
   2 -18  -9    5.07   80.69
   2 -18   9  -29.88   76.70
  -2  18   9    8.65   98.62
  -2  18   9  -27.81   94.72
  -1  18  -9   19.95   69.19
   1 -18  -9  -50.77   77.98
  -1  18  -9   30.24   75.27
   1 -18  -9  150.82  108.77
   1 -18   9   60.33   79.05
  -1  18   9   -8.57   96.63
  -1  18   9  159.59   90.26
   0 -18  -9  106.20   77.04
   0 -18  -9  -37.43  110.80
   0  18  -9   55.61   77.65
   0  18  -9   -6.25   62.94
   0  18   9 -118.24   87.57
   0 -18   9  -36.09   75.65
   0 -18   9  -55.35   72.28
   0  18   9  -16.83   94.97
   1  18  -9   -5.96   61.85
  -1 -18  -9   -4.70  104.34
  -1 -18  -9    5.07   76.30
   1  18  -9  110.53   74.26
  -1 -18   9   -3.46   73.76
  -1 -18   9   14.48   74.29
   1  18   9    8.21   95.67
   1  18   9  -38.52   88.31
  -2 -18  -9   52.13  107.18
  -2 -18  -9   -5.09   74.46
   2  18   9   -6.34   84.08
   2  18   9   -8.22   98.60
  -3 -18  -9 -149.93   79.56
   3  18   9  -19.32   84.03
  -4 -18  -9   -5.15  117.22
  -4 -18  -9   10.43   85.12
   4  18   9  265.68  102.27
   6 -19  -9  -84.68   98.06
   6 -19  -9    5.26   96.27
  -6  19   9 -225.88  148.24
   5 -19  -9    5.18  113.11
   5 -19  -9  -84.24   95.92
  -5  19   9   -9.94  104.15
  -5  19   9   -9.51  139.16
   4 -19  -9 -259.67   93.54
   4 -19  -9   -5.10  101.08
  -4  19   9   96.58  118.10
  -4  19   9  -10.03  111.50
   3 -19  -9 -108.07  116.60
   3 -19  -9  117.51   81.46
  -3  19   9   41.33  126.57
  -3  19   9   10.00  115.96
  -2  19  -9  -31.51   82.02
   2 -19  -9  172.66  120.00
   2 -19  -9   66.46   81.97
  -2  19   9   -9.76  112.08
  -2  19   9  -93.40  111.98
   2 -19   9  -59.78   76.11
   1 -19  -9  -82.36  119.29
  -1  19  -9   14.32   77.50
   1 -19  -9   77.83   84.38
  -1  19  -9   10.82   78.80
   1 -19   9 -128.33   77.22
  -1  19   9    9.67  110.38
  -1  19   9  -22.48  100.64
   0 -19  -9   20.31  118.21
   0 -19  -9   49.71   75.50
   0  19  -9    6.79   67.57
   0  19  -9   49.41   80.40
   0  19   9 -215.40  108.15
   0  19   9   -9.61  110.49
   0 -19   9   42.73   85.08
   0 -19   9  -44.13   83.52
  -1 -19  -9  133.93   80.58
   1  19  -9   13.03   67.66
  -1 -19  -9  -96.70  119.01
   1  19   9   64.65  105.61
   1  19   9   -9.38  113.71
  -2 -19  -9   -5.62   86.72
   2  19   9   46.99  103.34
   2  19   9  162.94   97.17
  -3 -19  -9 -147.92   90.57
   3  19   9   28.69  103.57
  -4 -19  -9 -237.99  112.11
  -4 -19  -9   22.97   87.35
   4  19   9  -29.59   95.15
  -2  20  -9   62.68   88.87
   2 -20   9   35.77   86.75
  -1  20  -9   -5.89   87.13
   1 -20   9  -79.85   92.02
   0  20  -9    7.41   72.55
   0  20  -9   35.92   87.52
   0 -20   9   -6.05   90.11
   0   0 -10 6725.08 1473.67
   0   0  10 7723.93 1526.92
   1   0 -10   -1.62   29.18
   0   1  10   -9.62   17.52
  -1   0  10   19.95   39.19
   1  -1 -10  662.14  153.75
   1  -1 -10  804.99  158.81
  -1   1  10  867.14  167.14
   1  -2 -10  143.78   32.23
   1  -2 -10  190.56   41.51
  -1   2  10  158.38   47.25
  -1   2  10  129.91   27.91
  -2  -1  10  110.43   28.31
   2  -1 -10  167.71   37.20
   2  -1 -10  140.58   30.62
  -1  -2  10   -1.85   49.21
  -2   1  10  146.68   26.11
  -1  -2  10  200.25   30.49
  -2   1  10  146.15   45.79
   2   2 -10  317.87   78.44
   2  -2 -10  332.48   73.57
   2  -2 -10  285.32   75.63
   2  -2 -10  368.39   71.03
  -2   2  10  334.20   62.78
  -2   2  10  318.02   63.40
  -2  -2  10  388.23   64.88
  -2   2  10  288.85   81.42
  -2  -2  10  493.47   84.91
   3   2 -10  344.56   80.88
   2  -3 -10  300.03   78.77
   2  -3 -10  283.04   73.61
   2  -3 -10  488.67   80.22
  -2   3  10  411.58   66.95
  -2   3  10  341.42   86.84
  -3  -2  10  361.47   86.68
  -3  -2  10  343.04   67.53
  -2   3  10  369.82   66.40
   1  -3 -10   85.82   27.36
   1  -3 -10   60.69   34.58
   1  -3 -10  111.90   24.09
   3   1 -10   88.21   33.00
  -3  -1  10   78.45   20.40
  -1   3  10  103.68   19.10
  -3  -1  10  159.76   42.88
  -1   3  10   77.07   19.60
  -1   3  10   37.10   41.50
   0   3 -10  -34.22   40.88
   0  -3 -10    4.66   17.85
   0  -3  10    3.44   18.85
   0   3  10    4.10   14.85
   0  -3  10   24.26   49.78
  -3   0  10    6.20   10.73
   1   3 -10   45.98   40.33
   3  -1 -10   67.39   17.02
   3  -1 -10   91.55   18.83
  -3   1  10   73.40   15.11
  -3   1  10   64.97   17.57
  -1  -3  10   62.86   51.01
   3  -2 -10  311.66   81.93
   3  -2 -10  426.12   80.09
   3  -2 -10  427.45   79.33
   2   3 -10  388.32   86.20
  -3   2  10  393.07   69.16
  -2  -3  10  456.32   92.74
  -3   2  10  426.22   86.20
  -2  -3  10  309.11   74.33
   3  -3 -10    2.26   12.31
   3  -3 -10   -4.63   17.53
   3   3 -10  -11.40   29.84
   3   3 -10    3.74    5.98
   3  -3 -10   10.09   20.92
   3  -3 -10   -8.62   14.37
   3   3 -10    2.66    5.75
  -3   3  10    7.94   11.00
  -3   3  10   -1.16   31.90
  -3   3  10   11.50    8.79
  -3   3  10   -6.53   11.53
  -3  -3  10    7.08   44.03
  -3  -3  10    4.73    7.30
  -3  -3  10    0.91    6.94
   4   3 -10  -23.25   32.31
   3  -4 -10    5.73   13.55
   3  -4 -10   -2.90   16.02
   3  -4 -10  -10.15   22.61
   3  -4 -10   20.39   20.30
  -3   4  10   23.31   32.18
  -3   4  10    2.72    8.83
  -4  -3  10    2.82    8.45
  -4  -3  10  -27.37   46.27
  -3   4  10    1.04   13.75
  -3   4  10   10.47   13.85
   2  -4 -10  271.21   45.99
   2  -4 -10  180.87   52.63
   2  -4 -10  135.01   50.83
   4   2 -10  247.19   52.15
  -2   4  10  206.03   40.48
  -4  -2  10  142.55   60.80
  -4  -2  10  205.06   40.67
  -2   4  10  147.71   60.02
  -2   4  10  252.17   41.20
   1  -4 -10  240.16   50.59
   4   1 -10  155.78   42.93
   1  -4 -10  174.18   40.12
  -1   4  10  173.06   35.95
  -4  -1  10  163.67   35.58
  -4  -1  10  145.76   55.36
  -1   4  10  261.97   36.36
   4   0 -10   -1.38   19.99
   0   4 -10  -40.83   43.17
   0  -4  10   48.23   51.85
  -4   0  10   15.08   36.09
  -4   0  10   10.27   11.43
   0  -4  10   -1.75   18.14
   0   4  10    4.89   14.38
   4  -1 -10  181.17   37.70
   4  -1 -10  218.61   42.33
   1   4 -10  154.00   55.20
  -1  -4  10  186.29   38.87
  -1  -4  10  189.63   38.55
  -4   1  10  182.90   35.05
  -1  -4  10  204.56   65.33
   2   4 -10  304.64   63.17
   4  -2 -10  254.22   50.18
  -2  -4  10  218.26   49.01
  -2  -4  10  262.88   49.19
  -2  -4  10  261.20   70.55
   3   4 -10   -2.09    9.55
   3   4 -10   -8.88   32.44
   4  -3 -10    8.04   17.85
   3   4 -10   11.08   10.58
   4  -3 -10  -12.30   15.65
  -3  -4  10   -9.44   47.16
  -3  -4  10   -0.57    9.61
  -3  -4  10   -1.42   13.31
  -3  -4  10    7.51   12.67
  -4   3  10   26.18   34.65
  -4   3  10   11.61   14.27
   4  -4 -10  539.63   97.55
   4   4 -10  511.69  100.78
   4   4 -10  470.16  101.46
   4  -4 -10  590.04   94.42
  -4   4  10  533.92  102.56
  -4  -4  10  525.11  109.54
  -4  -4  10  333.54   97.13
  -4  -4  10  545.59   87.21
  -4   4  10  459.56   89.41
   4  -5 -10  657.84  149.31
   5   4 -10  768.09  151.31
  -5  -4  10  647.69  152.17
  -4   5  10  736.50  152.28
  -5  -4  10  861.46  131.39
  -4   5  10  781.27  136.55
  -4   5  10  767.99  145.14
  -5  -4  10  815.82  156.83
   3  -5 -10  131.60   42.78
   3  -5 -10  192.81   38.04
   3  -5 -10  135.14   43.40
  -5  -3  10  196.49   61.45
  -3   5  10  160.34   38.88
  -3   5  10  179.84   33.01
  -3   5  10  171.92   49.62
  -5  -3  10  157.24   38.00
   2  -5 -10  511.61  109.25
   2  -5 -10  489.07  104.24
   5   2 -10  420.10  108.03
   2  -5 -10  530.09  109.34
  -5  -2  10  517.28   91.50
  -2   5  10  524.35  116.46
  -5  -2  10  513.89  115.78
   1  -5 -10   40.54   27.61
   5   1 -10   -1.61   21.68
  -1   5  10   -1.27   12.81
  -5  -1  10   -1.69   40.92
  -5  -1  10    7.97   12.06
  -1   5  10   32.88   10.43
   0   5 -10  -12.82   47.15
   5   0 -10  -16.30   20.22
   0  -5 -10    4.24   27.15
   0  -5 -10   -9.58   19.19
  -5   0  10   -5.44   10.93
   0  -5  10   14.32   17.51
  -5   0  10  -26.93   40.42
   0   5  10   14.55   15.41
   0  -5  10   14.37   56.90
   0   5  10    2.15   15.20
  -1  -5 -10   31.03   23.10
   1   5 -10   26.52   43.39
   5  -1 -10  -11.01   18.78
  -5   1  10   21.11   11.97
  -1  -5  10   19.97   54.44
  -1  -5  10  -18.21   18.21
   1   5  10    3.04   17.04
  -1  -5  10    2.04   15.65
  -5   1  10   25.45   37.79
   2   5 -10  493.13  112.29
   5  -2 -10  631.68  106.92
   5  -2 -10  566.11   99.36
  -2  -5  10  382.21   95.43
  -2  -5  10  464.79  121.78
  -2  -5  10  462.92  104.76
  -5   2  10  510.02  112.99
  -5   2  10  580.20   94.93
  -2  -5  10  442.95   99.98
   5  -3 -10  203.92   42.58
   3   5 -10  152.23   35.12
   5  -3 -10  160.18   39.52
   3   5 -10  222.00   39.20
   3   5 -10  191.68   54.55
  -5   3  10  251.22   36.40
  -3  -5  10  203.32   37.31
  -3  -5  10  137.71   41.10
  -3  -5  10  155.92   37.26
  -3  -5  10  106.64   64.06
   4   5 -10  693.69  145.62
   4   5 -10  672.10  133.96
   4   5 -10  774.07  124.48
   4   5 -10  687.89  146.02
  -4  -5  10  709.22  124.56
  -4  -5  10  631.41  152.70
  -4  -5  10  648.47  142.03
   5  -5 -10   17.72   24.67
   5  -5 -10  -12.88   21.27
   5   5 -10   -2.07   30.14
  -5  -5  10    2.16   17.93
  -5   5  10   23.29   23.78
  -5  -5  10   -8.41   53.95
  -5   5  10   11.86   36.87
  -5  -5  10   14.18   17.06
   6   5 -10  175.26   48.59
   5  -6 -10  129.55   44.78
   5  -6 -10  211.09   41.89
  -6  -5  10  149.51   34.37
  -5   6  10  194.63   43.15
  -6  -5  10  166.85   66.18
  -5   6  10  148.91   50.56
   4  -6 -10  119.51   36.60
   4  -6 -10  102.64   30.16
   4  -6 -10   57.71   32.20
   6   4 -10   85.98   36.09
  -4   6  10   45.63   28.80
  -4   6  10  137.09   31.29
  -6  -4  10  122.59   25.93
  -4   6  10   96.70   41.37
  -6  -4  10  115.61   56.93
   3  -6 -10 2232.49  384.04
   3  -6 -10 1817.92  409.66
   3  -6 -10 1994.50  402.42
  -6  -3  10 1842.04  413.34
  -3   6  10 1913.22  384.29
  -3   6  10 1878.22  355.22
  -3   6  10 1957.11  425.57
   6   2 -10  280.10   61.87
  -6  -2  10  256.12   49.91
  -2   6  10  234.53   49.50
  -2   6  10  196.67   51.80
  -6  -2  10  242.60   73.67
  -2   6  10  328.54   72.93
   1  -6 -10  832.12  165.03
   1  -6 -10  675.62  152.75
   1  -6  10  848.23  149.51
  -1   6  10  742.22  140.11
  -6  -1  10  693.46  167.75
   0  -6 -10  121.50   28.29
   0  -6 -10  135.46   41.18
   0   6 -10   49.79   61.62
   6   0 -10  122.02   29.98
  -6   0  10   74.45   22.55
   0   6  10   58.27   22.97
   0  -6  10   59.09   25.10
   0  -6  10  100.06   67.42
   0   6  10  131.83   26.98
  -6   0  10  109.58   46.89
  -1  -6 -10  731.67  160.17
   1   6 -10  713.02  172.22
  -1  -6 -10  880.77  165.93
   6  -1 -10  773.40  165.71
  -1  -6  10  785.16  156.37
  -6   1  10  790.30  171.48
  -1  -6  10  698.12  184.56
   1   6  10  776.61  145.92
  -6   1  10  893.56  146.46
  -1  -6  10  842.30  148.50
   2   6 -10  319.30   57.37
   2   6 -10  302.66   50.65
   2   6 -10  227.34   75.02
  -2  -6  10  278.35   84.43
  -2  -6  10  250.20   53.23
  -2  -6  10  187.58   53.95
  -6   2  10  206.76   69.75
   3   6 -10 1934.43  403.97
  -3  -6  10 2137.29  424.24
  -3  -6  10 2064.15  369.21
  -3  -6  10 1924.65  415.01
  -6   3  10 2314.20  424.45
  -3  -6  10 1995.51  392.63
   4   6 -10  123.91   38.58
   4   6 -10   78.63   24.64
   4   6 -10  138.43   47.14
   4   6 -10   98.70   24.43
  -4  -6  10  190.73   62.27
  -4  -6  10   95.54   29.95
  -6   4  10  101.29   45.03
  -4  -6  10  104.88   25.88
  -4  -6  10  104.27   26.47
   5   6 -10  144.03   46.05
   5   6 -10  123.17   53.95
   6  -5 -10  145.84   37.21
  -5  -6  10  199.84   67.70
  -5  -6  10   92.16   36.37
  -5  -6  10  141.82   30.76
   6   6 -10   -4.67   34.69
   6  -6 -10   -3.46   27.29
  -6  -6  10  -14.41   65.06
  -6  -6  10  -12.78   17.96
   6  -7 -10   -7.78   29.53
   7   6 -10   -2.60   37.35
  -6   7  10   -6.57   30.89
  -7  -6  10  -47.72   67.69
  -7  -6  10   41.88   21.17
   5  -7 -10   44.28   34.44
   7   5 -10  136.50   37.72
   5  -7 -10   93.01   38.28
  -7  -5  10   93.68   67.75
  -7  -5  10   71.89   23.60
  -5   7  10   77.61   32.63
   4  -7 -10 1035.86  218.91
   4  -7 -10  922.66  207.85
  -4   7  10 1118.09  191.37
  -4   7  10  948.76  209.39
  -7  -4  10 1191.36  225.15
   3  -7 -10   15.12   25.99
   7   3 -10    2.26   30.64
   3  -7 -10  -12.61   36.32
  -3   7  10   -2.13   22.66
  -3   7  10   20.22   25.46
  -7  -3  10   15.12   53.17
  -7  -3  10  -12.89   16.90
   2  -7 -10 1248.72  295.31
   2  -7 -10 1467.77  313.58
  -7  -2  10 1367.26  317.12
  -2   7  10 1688.02  270.53
  -7  -2  10 1586.11  272.73
   1  -7 -10  592.46  116.86
   1  -7 -10  632.07  127.15
   7   1 -10  698.72  124.90
  -7  -1  10  570.57  131.32
  -7  -1  10  546.20  109.72
   1  -7  10  662.31  115.15
  -1   7  10  620.51  109.66
   7   0 -10    6.13   25.70
   0   7 -10   24.23   58.13
   0  -7 -10   -1.82   36.81
   0  -7 -10  -30.87   22.01
   0  -7  10   -1.61   22.31
  -7   0  10    7.39   45.53
   0  -7  10    5.78   23.19
   0  -7  10   60.04   62.59
   0   7  10   21.78   23.50
   1   7 -10  469.89  134.24
  -1  -7 -10  676.53  128.93
  -1  -7 -10  652.94  121.52
  -1  -7  10  624.98  144.62
  -7   1  10  562.32  130.71
  -1  -7  10  716.06  123.45
   1   7  10  700.15  112.86
   2   7 -10 1631.61  319.60
  -2  -7 -10 1357.56  311.80
  -2  -7  10 1642.27  280.47
   2   7  10 1534.40  280.55
  -2  -7  10 1598.00  332.89
  -7   2  10 1418.29  322.22
   3   7 -10    2.29   48.30
  -3  -7  10   13.36   20.71
  -7   3  10  -24.96   46.87
  -3  -7  10   18.22   61.30
   4   7 -10 1054.05  230.18
   4   7 -10 1024.44  227.68
  -4  -7  10 1321.32  231.78
  -7   4  10 1004.84  228.19
   7  -5 -10   21.17   32.71
   5   7 -10   43.95   50.80
   5   7 -10   53.07   38.69
  -5  -7  10   93.96   21.73
  -5  -7  10   28.67   65.46
  -7   5  10   45.44   46.57
   6   7 -10    2.46   35.89
   7  -6 -10   36.11   28.50
  -6  -7  10    5.01   18.59
  -6  -7  10  -22.57   68.30
   7  -7 -10   10.87   31.93
   7   7 -10  -32.73   42.33
  -7  -7  10   81.32   74.45
  -7  -7  10  -24.70   21.34
   7  -8 -10   54.61   37.70
   8   7 -10   15.71   49.11
  -8  -7  10   55.61   27.93
  -8  -7  10  183.80   86.08
   6  -8 -10   10.81   33.83
   8   6 -10   15.00   42.28
   6  -8 -10  -23.50   38.45
  -8  -6  10   43.19   24.40
  -8  -6  10   22.91   73.87
  -6   8  10   -7.14   34.25
   5  -8 -10   37.48   32.70
   5  -8 -10    7.30   37.31
   8   5 -10   -2.86   36.34
  -5   8  10   -6.31   31.26
  -8  -5  10   48.61   68.05
  -8  -5  10   13.82   22.68
   4  -8 -10  361.33   61.97
   4  -8 -10  210.81   67.63
  -8  -4  10  217.27   85.86
  -4   8  10  257.76   61.45
  -4   8  10  344.19   59.39
   8   3 -10  216.38   56.17
   3  -8 -10  263.61   50.05
   3  -8 -10  201.24   57.11
  -8  -3  10  204.67   72.69
  -3   8  10  189.78   47.92
  -3   8  10  217.23   48.20
   2  -8 -10  276.28   69.22
   2  -8 -10  394.89   62.00
  -8  -2  10  329.92   80.26
  -2   8  10  218.07   59.03
  -2   8  10  245.04   57.00
   1  -8 -10  163.22   50.62
   1  -8 -10  151.96   38.22
   1  -8  10  130.93   40.37
  -1   8  10  139.85   38.97
   1  -8  10  166.64   39.67
   0   8 -10  158.40   84.08
   0  -8 -10  298.85   64.42
   0  -8 -10  210.18   52.98
   0   8  10  210.14   48.78
   0  -8  10  114.49   86.76
   0  -8  10  223.22   49.80
   0  -8  10  279.93   53.19
  -1  -8 -10  121.74   38.83
  -1  -8 -10  120.93   51.41
   1   8 -10  215.13   61.19
   1   8 -10  109.05   37.58
  -1  -8  10  125.09   39.84
  -1  -8  10  112.38   35.77
  -1  -8  10  265.34   76.71
  -1  -8  10  110.45   35.00
   1   8  10  187.89   36.57
   2   8 -10  287.04   56.00
   2   8 -10  155.15   48.47
   2   8 -10  225.15   74.35
  -2  -8 -10  218.47   63.07
  -2  -8 -10  253.62   56.88
  -2  -8  10  290.87   84.56
  -2  -8  10  243.42   56.39
  -2  -8  10  262.94   51.91
  -2  -8  10  137.22   48.46
   2   8  10  238.45   52.57
   3   8 -10  186.69   37.55
   3   8 -10  147.63   41.86
   3   8 -10  208.40   66.06
   3   8 -10  172.26   53.42
  -3  -8  10  144.87   44.68
  -3  -8  10  147.08   37.88
  -3  -8  10  267.37   77.11
  -3  -8  10  116.71   37.83
   4   8 -10  175.46   60.45
   4   8 -10  253.26   46.94
   4   8 -10  156.23   48.93
   4   8 -10  187.48   71.26
  -4  -8  10  320.93   49.69
  -4  -8  10  257.12   82.45
  -4  -8  10  217.53   54.47
  -4  -8  10  165.86   46.23
   5   8 -10   -4.88   35.84
   5   8 -10   18.88   21.36
   5   8 -10  -42.70   55.52
  -5  -8  10    4.91   20.10
  -5  -8  10   74.96   65.24
   6   8 -10  -10.32   40.14
   6   8 -10   21.75   57.57
  -6  -8  10  -22.70   20.71
  -6  -8  10  -39.82   72.84
   7   8 -10  125.91   51.99
  -7  -8  10  229.11   87.36
  -7  -8  10   61.46   28.72
   8   8 -10  138.24   81.65
  -8  -8  10  354.56   60.70
  -8  -8  10  397.42  112.40
  -9  -8  10   16.79   92.23
   7  -9 -10   80.82   43.14
  -9  -7  10    3.21   88.61
   6  -9 -10  309.13   73.55
   6  -9 -10  279.17   67.30
  -6   9  10  292.01   70.58
   5  -9 -10   54.55   47.40
   5  -9 -10  134.88   41.58
  -5   9  10   79.82   38.78
   4  -9 -10  -38.44   35.25
   4  -9 -10   49.29   46.31
  -4   9  10   22.87   38.31
  -4   9  10   -3.08   33.18
   3  -9 -10  202.98   52.20
   3  -9 -10  229.34   61.16
  -3   9  10  232.96   53.74
  -3   9  10  133.82   50.89
   2  -9 -10  182.75   54.46
   2  -9 -10  195.82   43.20
  -2   9  10   92.86   38.49
  -2   9  10   63.54   41.18
   1  -9 -10   32.15   48.53
   1  -9 -10   95.79   33.18
  -1   9  10   28.07   34.11
   1  -9  10   55.19   33.10
   1  -9  10   61.80   32.25
   0  -9 -10    4.07   29.24
   0   9 -10   41.37   29.31
   0  -9 -10   26.63   47.39
   0   9 -10   11.44   82.46
   0  -9  10   16.91   26.57
   0  -9  10  -20.73   27.74
   0   9  10   14.27   31.29
   0  -9  10   56.97   72.14
  -1  -9 -10   38.72   46.91
   1   9 -10   46.67   66.40
   1   9 -10   84.62   34.12
  -1  -9 -10   73.46   33.03
  -1  -9  10  127.50   29.54
  -1  -9  10   54.24   30.11
  -1  -9  10  108.39   77.49
  -1  -9  10   68.57   35.34
   1   9  10   72.46   34.45
   2   9 -10  168.39   39.65
   2   9 -10  128.05   35.81
  -2  -9 -10   90.76   51.61
  -2  -9 -10   84.25   41.26
   2   9 -10  220.66   67.64
  -2  -9  10  101.82   78.57
   2   9  10  120.31   39.97
  -2  -9  10  168.07   42.22
  -2  -9  10  131.49   35.52
  -2  -9  10   99.32   36.09
   3   9 -10  178.05   46.04
   3   9 -10  186.36   61.47
   3   9 -10  158.39   75.28
  -3  -9 -10  229.58   59.78
   3   9 -10  225.74   49.91
  -3  -9  10  195.54   54.43
  -3  -9  10  235.22   44.64
  -3  -9  10  187.88   47.35
  -3  -9  10  320.97   85.54
   4   9 -10   22.30   39.38
   4   9 -10   -5.32   20.93
   4   9 -10  -59.20   63.03
   4   9 -10   27.27   24.41
  -4  -9  10   13.75   30.56
  -4  -9  10   -8.60   21.43
  -4  -9  10   16.89   21.68
  -4  -9  10   57.68   69.93
   5   9 -10  116.14   48.45
   5   9 -10   79.85   65.63
  -5  -9  10  119.27   30.76
  -5  -9  10  186.14   78.60
   6   9 -10  270.14   69.49
   6   9 -10  163.29   87.96
  -6  -9  10  264.29   54.10
  -6  -9  10  293.07   99.23
   7   9 -10   81.12   51.57
  -7  -9  10    2.08   26.73
  -7  -9  10  149.28   87.07
   8   9 -10   -3.45   52.32
  -8  -9  10   72.87   95.75
  -8  -9  10   27.87   28.61
  -9  -9  10   20.95   98.50
   8 -10 -10   47.26   49.73
   7 -10 -10   51.23   46.09
   6 -10 -10  -20.99   41.55
   6 -10 -10   51.98   46.15
  -6  10  10  -16.61   40.43
   5 -10 -10  250.16   61.34
   5 -10 -10  129.20   54.18
  -5  10  10  193.70   54.11
  -5  10  10  114.59   55.52
   4 -10 -10  150.68   49.09
   4 -10 -10   86.95   60.54
  -4  10  10  148.50   49.14
  -4  10  10  193.70   49.25
   3 -10 -10 -130.16   56.18
   3 -10 -10 -103.88   41.73
  -3  10  10  -11.09   38.86
  -3  10  10   85.21   35.74
   2 -10 -10    2.41   38.74
   2 -10 -10   27.82   51.99
  -2  10  10   18.31   32.98
  -2  10  10  -53.81   38.35
   1 -10 -10  -13.84   35.77
   1 -10 -10  -45.37   50.73
  -1  10  10   -2.66   34.86
   1 -10  10    2.48   32.54
   1 -10  10   21.44   31.20
   0  10 -10   75.64   93.94
   0 -10 -10  127.36   56.95
   0 -10 -10   94.11   38.30
   0  10 -10   40.81   38.20
   0 -10  10   97.02   38.63
   0 -10  10   68.41   80.22
   0  10  10  101.67   41.27
   0 -10  10   93.97   40.95
   0 -10  10   92.36   34.69
   1  10 -10   -2.13   31.01
  -1 -10 -10    2.46   51.69
   1  10 -10    3.45   74.66
  -1 -10 -10  -16.27   34.01
   1  10 -10   12.71   33.10
  -1 -10  10   -8.70   36.05
  -1 -10  10  -20.91   25.67
  -1 -10  10    8.50   31.19
  -1 -10  10 -111.67   79.44
   1  10  10    2.72   35.90
   2  10 -10   28.30   31.51
  -2 -10 -10   19.90   51.06
  -2 -10 -10  -64.26   35.04
   2  10 -10   12.64   68.51
   2  10 -10  -14.38   30.28
  -2 -10  10   28.47   26.68
  -2 -10  10  -11.73   34.18
   2  10  10   28.43   34.01
  -2 -10  10   -8.02   25.57
  -2 -10  10   99.54   78.27
  -3 -10 -10  -96.29   40.31
  -3 -10 -10  -90.92   50.01
  -3 -10  10  229.93   45.92
   3  10  10  -70.41   38.49
   4  10 -10   64.94   69.06
   4  10 -10   83.99   35.59
   4  10 -10  147.76   49.28
   4  10 -10   85.32   34.67
  -4 -10  10  151.49   31.81
  -4 -10  10   60.60   79.12
   5  10 -10  200.00   59.25
   5  10 -10  184.40   81.56
  -5 -10  10  176.45   40.32
  -5 -10  10  144.05   84.06
   6  10 -10  -19.88   45.13
   6  10 -10  -72.97   72.96
  -6 -10  10  115.11   83.76
  -6 -10  10  -38.13   24.75
   7  10 -10   65.92   82.15
   7  10 -10  141.95   55.51
  -7 -10  10  142.80   92.79
  -7 -10  10  107.85   35.40
   8  10 -10  -10.83   58.86
  -8 -10  10  166.59  102.00
  -8 -10  10   -4.84   28.78
   8 -11 -10   29.24   61.03
   7 -11 -10   18.69   46.98
  -7  11  10   39.55   43.29
   6 -11 -10   17.58   46.15
   6 -11 -10    2.58   52.64
  -6  11  10   49.49   45.96
   5 -11 -10  -51.17   44.15
   5 -11 -10    2.46   52.88
  -5  11  10   37.95   46.78
  -5  11  10   40.44   49.73
   4 -11 -10   27.88   57.94
   4 -11 -10    2.76   42.47
  -4  11  10   93.20   45.32
  -4  11  10   43.01   47.25
   3 -11 -10   80.03   54.04
   3 -11 -10   13.78   44.33
  -3  11  10   25.15   46.30
  -3  11  10   37.36   41.92
   2 -11 -10    2.57   60.21
   2 -11 -10   24.23   42.93
  -2  11  10   42.61   41.20
  -2  11  10    3.06   41.58
   1 -11 -10  383.67   86.99
   1 -11 -10  302.89   70.88
  -1  11  10  195.95   66.78
   1 -11  10  345.04   65.34
   1 -11  10  287.97   68.58
   0 -11 -10  -88.52   60.99
   0 -11 -10   30.81   35.23
   0  11 -10   97.13  120.59
   0  11 -10   34.33   39.54
   0 -11  10  -56.86   31.11
   0  11  10    9.01   41.40
   0 -11  10  -18.59   39.89
   0 -11  10   -2.56   38.33
   1  11 -10  311.47   65.40
   1  11 -10  255.89  100.79
  -1 -11 -10  238.49   77.75
  -1 -11 -10  283.62   66.60
   1  11 -10  319.55   59.68
   1  11  10  243.81   62.09
  -1 -11  10  296.63  109.69
  -1 -11  10  217.36   55.70
  -1 -11  10  215.49   63.24
  -1 -11  10  180.71   66.38
   2  11 -10  -20.80   75.23
   2  11 -10   37.32   36.22
   2  11 -10   12.44   34.80
  -2 -11 -10  -37.51   39.55
  -2 -11 -10   42.88   58.47
  -2 -11  10   95.74   79.98
  -2 -11  10   10.88   32.66
  -2 -11  10   27.83   39.28
  -2 -11  10    6.06   26.75
   2  11  10  -34.48   41.22
  -3 -11 -10   43.55   55.04
   3  11 -10    2.25   34.20
  -3 -11 -10   39.48   38.93
   3  11 -10  -63.52   72.90
   3  11 -10  -13.40   30.87
   3  11 -10    5.47   45.74
  -3 -11  10 -130.79   82.17
   3  11  10   33.52   43.21
  -3 -11  10    8.15   30.60
  -3 -11  10    1.89   24.65
  -3 -11  10   -3.59   38.68
   4  11 -10  -25.46   71.79
   4  11 -10   51.75   32.38
   4  11 -10   21.48   28.73
   4  11 -10   80.57   45.83
  -4 -11  10  224.93   81.68
  -4 -11  10   32.71   24.18
   5  11 -10   -6.59   71.85
   5  11 -10   25.44   45.29
  -5 -11  10   30.96   23.35
  -5 -11  10   83.36   82.27
   6  11 -10  -55.75   77.04
   6  11 -10  -29.87   48.04
  -6 -11  10  185.12   88.83
  -6 -11  10   19.79   25.04
   7  11 -10   19.88   52.63
   7  11 -10  145.85   88.37
  -7 -11  10   15.59   28.95
  -7 -11  10   86.71   94.93
  -8 -11  10   -3.43  109.06
  -9 -11  10   -3.54   75.06
   8 -12 -10  142.86   66.34
  -7  12  10   -5.31   51.92
   5 -12 -10  -80.46   49.06
  -5  12  10    3.83   55.57
   4 -12 -10   24.41   50.29
  -4  12  10   69.93   48.81
  -4  12  10  -33.41   55.82
   3 -12 -10   39.53   44.80
   3 -12 -10  284.19   65.57
  -3  12  10   67.92   50.14
  -3  12  10   63.41   54.42
   2 -12 -10   11.94   42.10
   2 -12 -10    2.86   63.95
  -2  12  10  141.35   53.77
  -2  12  10  102.18   51.53
   2 -12  10   11.57   43.64
   1 -12 -10 -114.14   67.40
   1 -12 -10    2.89   45.04
  -1  12  10   -3.99   44.18
  -1  12  10  -33.92   48.12
   1 -12  10   -5.89   42.32
   0  12 -10  379.48   68.58
   0 -12 -10  174.59   68.56
   0 -12 -10  400.62   85.48
   0 -12  10  202.61   56.56
   0  12  10  202.27   66.16
   0 -12  10  236.94   68.42
   0 -12  10  249.43   66.99
   1  12 -10    8.18   41.13
  -1 -12 -10    2.86   42.92
   1  12 -10   46.39  102.19
  -1 -12 -10   -2.93   49.57
   1  12 -10   26.62   40.84
  -1 -12  10  -49.59   28.72
   1  12  10   30.71   47.15
  -1 -12  10    8.42   43.90
  -1 -12  10   13.24   39.15
  -1 -12  10  -22.68   95.69
  -2 -12 -10  122.86   47.30
   2  12 -10  170.56   42.04
   2  12 -10  142.80   43.22
   2  12 -10   57.39   88.98
  -2 -12  10   29.48   38.88
  -2 -12  10   65.67   88.15
  -2 -12  10   38.47   45.41
   2  12  10   55.61   46.65
  -2 -12  10   54.81   28.68
   3  12 -10   28.00   79.69
   3  12 -10   -2.98   31.30
   3  12 -10  -10.25   36.93
   3  12 -10    2.86   49.00
  -3 -12  10  -26.55   26.05
  -3 -12  10  -47.75   44.58
  -3 -12  10   11.98   87.87
  -3 -12  10  -18.36   34.14
   4  12 -10   22.68   49.29
   4  12 -10   75.26   77.49
  -4 -12  10  -82.82   23.63
  -4 -12  10 -133.60   87.26
   5  12 -10   38.15   48.29
   5  12 -10   10.84   80.02
  -5 -12  10  -43.13   24.83
  -5 -12  10   23.12   83.53
   6  12 -10   -9.41   52.76
   6  12 -10   23.04   87.93
  -6 -12  10 -183.20   90.69
  -6 -12  10  -18.48   27.23
   7  12 -10 -102.78   99.42
  -7 -12  10  165.38   34.75
  -7 -12  10   22.90   96.77
  -9 -12  10 -128.18  105.03
 -10 -12  10   -3.48  100.23
   8 -13 -10 -164.16   69.41
   7 -13 -10  -26.65   58.19
  -7  13  10   34.34   56.88
   6 -13 -10   45.93   55.38
   6 -13 -10  -43.04   64.87
  -6  13  10  -26.78   59.69
  -6  13  10 -306.80   67.96
   5 -13 -10   -3.39   53.72
   5 -13 -10  -50.52   68.03
  -5  13  10    8.71   61.44
  -5  13  10   56.90   56.69
   4 -13 -10   -3.37   46.19
   4 -13 -10  140.57   72.86
  -4  13  10   -4.12   53.61
  -4  13  10  -54.21   54.95
   3 -13 -10   -3.09   71.44
  -3  13  10   -4.82   57.03
   2 -13 -10   43.68   94.22
  -2  13  10  -89.90   56.66
   2 -13  10  -22.48   43.07
   1 -13 -10   79.27   76.06
   1 -13  10   58.23   47.72
  -1  13  10   81.95   57.48
   0 -13 -10    6.38   68.85
   0  13 -10   24.80   47.60
   0  13 -10  -31.47   45.02
   0 -13  10   44.22   50.49
   0 -13  10  -15.86   45.82
  -1 -13 -10  126.99   70.72
   1  13 -10   36.94   48.06
   1  13 -10    4.10   43.37
  -1 -13  10   29.38   43.71
  -1 -13  10   82.40   51.19
   2  13 -10   49.84   41.27
   2  13 -10   88.87   44.77
  -2 -13 -10  -53.67   71.28
  -2 -13 -10   44.82   45.41
   2  13  10   73.13   51.02
  -2 -13  10  -32.99   41.88
  -2 -13  10  -28.65   46.13
  -3 -13 -10  149.56   69.97
   3  13 -10   -3.30   38.48
  -3 -13 -10  -39.74   49.30
   3  13 -10   63.89   45.20
   3  13  10   44.50   54.93
  -4 -13 -10  151.41   74.60
   4  13  10  -43.49   52.95
   6  13 -10  214.16   58.24
   6  13 -10   29.38   93.98
   8  13 -10  643.65  116.91
   8  13 -10    8.35   73.84
  -8 -13  10  303.03  107.67
   9  13 -10   89.50  111.29
  -9 -13  10 -112.91  105.21
 -10 -13  10 -485.09  143.85
   8 -14 -10  260.33   93.19
   7 -14 -10   25.12   66.03
  -7  14  10  -18.62   61.56
  -7  14  10  -61.01   80.42
   6 -14 -10  114.16   70.71
   6 -14 -10  -38.43   55.88
  -6  14  10    5.89   62.08
  -6  14  10   -5.15   73.57
   5 -14 -10  114.13   73.63
   5 -14 -10  -70.12   55.99
  -5  14  10  -23.03   63.06
  -5  14  10   98.27   72.49
   4 -14 -10    3.69   62.09
   4 -14 -10    3.35   73.08
  -4  14  10   -5.57   60.38
  -4  14  10    9.27   70.67
   3 -14 -10   13.63   80.35
   3 -14 -10   32.96   57.29
  -3  14  10  -66.61   68.65
  -3  14  10  -65.61   63.07
   2 -14 -10   13.73   83.29
   2 -14 -10   61.28   58.42
  -2  14  10  -26.26   68.73
  -2  14  10  -32.37   60.99
   1 -14 -10   24.73   54.59
   1 -14 -10   -3.49   79.61
  -1  14  10   21.21   64.15
  -1  14  10  -31.25   61.69
   0  14 -10   44.62   48.83
   0 -14 -10   35.15   55.49
   0 -14 -10   31.31   75.13
   0 -14  10  -24.44   50.97
   0  14  10  -12.66   63.65
   0  14  10  -25.51   60.55
  -1 -14 -10   10.43   54.83
   1  14 -10   -4.39   36.82
   1  14 -10   20.52   50.15
  -1 -14 -10   -3.43   82.37
  -1 -14  10    3.24   49.29
  -1 -14  10  161.18   51.54
   1  14  10  -80.42   62.81
   2  14 -10   32.21   45.46
   2  14 -10  -13.12   51.30
  -2 -14 -10    3.43   71.78
  -2 -14 -10    3.52   52.96
   2  14  10   42.61   56.48
  -2 -14  10   26.26   54.38
  -2 -14  10   12.22   46.66
  -3 -14 -10   24.01   75.04
  -3 -14 -10  -79.45   53.79
   3  14  10   44.50   58.85
  -4 -14 -10  -32.50   79.74
   4  14  10   37.83   60.88
   8 -15 -10    5.36   80.71
   7 -15 -10   73.89   70.33
  -7  15  10  -20.32   67.82
  -7  15  10 -114.01   86.34
   6 -15 -10  183.48   80.15
   6 -15 -10   21.10   67.44
  -6  15  10  -17.72   84.80
  -6  15  10   32.53   74.19
   5 -15 -10  -96.69   77.79
   5 -15 -10  138.52   61.69
  -5  15  10   60.79   84.11
  -5  15  10  -25.67   69.00
   4 -15 -10   55.03   75.76
   4 -15 -10  -48.32   65.04
  -4  15  10    5.19   72.88
  -4  15  10   25.19   64.11
   3 -15 -10  292.61   88.85
   3 -15 -10  -56.19   58.22
  -3  15  10   10.03   76.87
  -3  15  10   43.31   69.08
   2 -15 -10    3.93   62.21
   2 -15 -10   89.08   88.27
  -2  15  10   -9.79   68.43
  -2  15  10  -67.76   69.90
   2 -15  10  -23.14   51.72
   1 -15 -10   93.27   57.53
  -1  15 -10  -71.35   57.38
  -1  15 -10   16.78   59.76
   1 -15 -10  -60.55   93.43
  -1  15  10  -66.42   68.08
   1 -15  10   55.33   60.74
  -1  15  10   -5.93   70.45
   0  15 -10  -30.62   58.85
   0 -15 -10 -117.89   90.88
   0 -15 -10 -116.08   60.36
   0  15 -10    5.12   57.01
   0 -15  10  -17.08   61.58
   0  15  10  -23.65   64.50
   0  15  10  -11.54   63.93
   0 -15  10  -19.05   55.14
  -1 -15 -10  111.73   85.17
  -1 -15 -10    7.68   57.02
   1  15 -10  -14.11   52.53
  -1 -15  10  -75.05   56.76
   1  15  10  -65.84   66.22
  -2 -15 -10  -65.74   56.28
   2  15 -10    4.38   46.93
  -2 -15 -10   66.83   85.08
   2  15  10   89.64   64.78
  -3 -15 -10 -197.30   57.44
  -3 -15 -10  -45.03   80.56
   3  15  10  -48.81   62.58
  -4 -15 -10  -12.29   58.01
  -4 -15 -10    3.91   84.91
   4  15  10   25.85   60.84
   7 -16 -10  -55.83   74.50
  -7  16  10  198.52  106.44
  -7  16  10   29.76   74.30
   6 -16 -10  -36.13   83.66
   6 -16 -10   13.88   70.66
  -6  16  10   36.12   78.55
  -6  16  10   13.46  100.49
   5 -16 -10  -62.75   75.16
   5 -16 -10    7.86   85.63
  -5  16  10  -18.58   92.32
  -5  16  10    7.19   76.03
   4 -16 -10   83.73   91.56
   4 -16 -10   57.23   65.45
  -4  16  10 -135.67   91.52
  -4  16  10  -35.11   84.56
   3 -16 -10  -74.09   94.51
   3 -16 -10  -30.55   71.66
  -3  16  10   16.95   79.84
  -3  16  10   -7.00   79.32
   2 -16 -10  -57.10   93.50
   2 -16 -10   90.20   70.75
  -2  16  10  -20.89   81.99
  -2  16  10   32.98   77.88
   2 -16  10   99.05   68.40
   1 -16 -10 -110.20   92.25
   1 -16 -10 -226.75   67.01
  -1  16 -10  -28.81   61.13
  -1  16  10   40.92   80.00
   1 -16  10  -78.22   70.00
  -1  16  10   58.46   78.10
   0  16 -10    5.46   60.22
   0 -16 -10   42.43   69.12
   0  16 -10  -63.29   65.77
   0 -16 -10 -142.65   99.63
   0 -16  10 -107.14   68.81
   0  16  10  -19.43   72.13
   0  16  10  -79.54   74.98
   0 -16  10 -103.87   64.06
  -1 -16 -10   -4.25   66.65
   1  16 -10  -45.33   64.00
   1  16 -10    5.04   58.19
  -1 -16 -10 -141.66   93.69
   1  16  10  -15.67   74.33
  -1 -16  10  -89.85   69.71
  -1 -16  10  111.68   65.73
   1  16  10  -63.89   82.60
  -2 -16 -10  -51.09   65.50
  -2 -16 -10   56.16   94.93
   2  16  10   10.45   71.75
  -3 -16 -10    8.64   61.37
  -3 -16 -10    4.06   90.69
   3  16  10  -69.94   74.85
  -4 -16 -10   31.13   60.89
  -4 -16 -10  227.25  100.45
   4  16  10   16.99   70.87
   7 -17 -10    5.61   82.48
  -7  17  10  -98.76   89.87
  -7  17  10   51.28  123.77
   6 -17 -10   48.36   92.96
   6 -17 -10 -206.40   80.60
  -6  17  10   32.22   85.17
  -6  17  10  -30.63  103.31
   5 -17 -10  152.58   77.63
   5 -17 -10   -4.30   87.50
  -5  17  10   -6.99  102.33
  -5  17  10  104.70   92.41
   4 -17 -10    4.81   69.46
   4 -17 -10    8.70   96.48
  -4  17  10   52.82   89.74
  -4  17  10  -16.15   85.43
   3 -17 -10 -260.25  101.32
   3 -17 -10    4.74   70.68
  -3  17  10   63.29   92.68
  -3  17  10  -19.18   89.70
  -2  17 -10   99.31   61.58
   2 -17 -10   60.89   70.43
   2 -17 -10   84.93  100.07
  -2  17  10   15.70   89.79
   2 -17  10 -161.21   69.56
  -2  17  10 -147.89   85.12
  -1  17 -10   22.79   63.07
   1 -17 -10    4.44   97.75
   1 -17 -10    4.69   65.10
  -1  17  10   41.66   87.12
   1 -17  10  -56.76   69.31
  -1  17  10  -23.28   93.70
   0  17 -10   -5.83   63.32
   0 -17 -10 -162.40   67.48
   0 -17 -10   44.06  103.74
   0  17 -10   13.81   70.33
   0  17  10   96.31   89.49
   0 -17  10 -108.54   67.79
   0 -17  10  -69.01   69.14
   0  17  10   59.49   89.30
  -1 -17 -10  125.89   67.70
  -1 -17 -10  132.46  102.37
   1  17 -10    5.42   59.54
   1  17  10 -104.85   86.37
   1  17  10   43.34   90.37
  -2 -17 -10   -4.69   64.28
  -2 -17 -10 -213.65  100.86
   2  17  10   34.82   73.28
  -3 -17 -10   13.24   98.50
  -3 -17 -10    4.75   65.11
   3  17  10   11.90   82.18
  -4 -17 -10    9.71   67.68
   4  17  10 -136.87   78.80
   7 -18 -10 -132.63   99.44
  -7  18  10   27.48  104.56
  -7  18  10   49.67  148.82
   6 -18 -10   -9.63  102.10
   6 -18 -10 -114.78   93.33
  -6  18  10   -8.74  123.74
  -6  18  10   54.18   90.80
   5 -18 -10    5.42   78.00
   5 -18 -10 -193.84  109.82
  -5  18  10   45.19   99.70
  -5  18  10  -23.97  107.73
   4 -18 -10 -375.02  114.71
   4 -18 -10  -10.54   87.74
  -4  18  10 -155.07  110.89
  -4  18  10 -113.07  113.87
   3 -18 -10  551.59  125.99
   3 -18 -10  113.22   89.04
  -3  18  10   -7.20  107.24
  -3  18  10  -53.94  110.35
  -2  18 -10  -75.69   72.11
   2 -18 -10 -478.76  123.57
   2 -18 -10 -178.75   85.60
   2 -18  10   98.98   79.81
  -2  18  10  -13.76   95.36
  -2  18  10   26.57  108.88
  -1  18 -10  124.88   77.15
   1 -18 -10   -4.77  107.78
   1 -18 -10 -225.44   76.19
  -1  18  10  -33.47   89.21
  -1  18  10   -8.75  102.61
   1 -18  10   51.65   80.55
   0 -18 -10  -30.62   80.18
   0 -18 -10   -4.74  108.71
   0  18 -10 -168.45   65.38
   0  18 -10  -10.01   77.13
   0  18  10  -60.15   97.45
   0 -18  10   14.18   69.77
   0 -18  10  -55.92   74.87
   0  18  10   34.07   94.47
  -1 -18 -10 -112.57   75.96
  -1 -18 -10   99.45  107.65
   1  18  10  -24.41   94.93
   1  18  10   84.34   89.19
  -2 -18 -10 -371.12  103.47
  -2 -18 -10   -5.18   80.74
   2  18  10  -65.22  102.78
   2  18  10   51.63  100.56
  -3 -18 -10  193.44   90.08
  -3 -18 -10  385.01  129.87
   3  18  10   72.55  102.95
  -4 -18 -10 -181.24   84.92
   4  18  10  -96.13  100.38
   6 -19 -10  -12.77   97.75
  -6  19  10  -80.47  159.64
   5 -19 -10  -36.45  117.89
   5 -19 -10 -119.61   94.41
  -5  19  10  -82.31  130.09
  -5  19  10   10.17  117.36
   4 -19 -10 -102.88  115.57
   4 -19 -10 -115.05   82.71
  -4  19  10   61.73  115.61
  -4  19  10  198.02  116.88
   3 -19 -10    5.62   73.67
   3 -19 -10 -273.48  122.00
  -3  19  10  -81.63  121.82
  -3  19  10   92.02  119.36
   2 -19 -10   27.90   84.14
   2 -19 -10    5.32  118.12
  -2  19  10 -139.75  109.24
  -2  19  10   54.27  118.03
   1 -19 -10  -39.33   83.96
   1 -19 -10   62.58  120.90
  -1  19 -10  -16.27   79.36
   1 -19  10 -143.70   83.14
  -1  19  10  -15.13  105.07
  -1  19  10   19.68  110.52
   0 -19 -10   25.77  111.75
   0 -19 -10    5.61   85.10
   0  19 -10    6.70   64.51
   0  19  10  -22.41  110.43
   0  19  10    9.70  101.92
  -1 -19 -10   -5.61   83.89
  -1 -19 -10   97.39  118.83
   1  19  10  -79.80   95.17
   1  19  10    9.37  111.02
  -2 -19 -10    5.13  119.46
  -2 -19 -10    5.70   86.52
   2  19  10  -43.26   99.62
   2  19  10   18.57  106.92
  -3 -19 -10 -126.98   83.03
  -3 -19 -10   10.62  122.22
   3  19  10   81.06  107.77
   3  19  10   -9.65  123.60
  -4 -19 -10  -58.83   90.26
   4  19  10   38.09  100.12
  -1  20 -10  140.88   89.96
   1   1 -11   34.35   33.29
   1  -1 -11    7.40   13.82
  -1  -1  11   81.95   44.38
  -1  -1  11   11.62   16.38
   2   1 -11  390.45   83.97
   1  -2 -11  465.01   84.54
   1  -2 -11  339.84   79.83
  -1   2  11  207.82   92.94
  -1   2  11  458.10   70.54
  -2  -1  11  363.49   70.26
  -2  -1  11  306.66   91.06
   0   2 -11   22.06   41.79
   0   2  11   24.74   15.65
   0  -2  11  -11.30   20.31
  -2   0  11   -7.28   13.09
   0  -2  11  -63.15   50.08
   2  -1 -11  393.33   81.07
   1   2 -11  372.41   89.11
  -1  -2  11  339.33   72.85
  -1  -2  11  436.96   97.13
   2   2 -11  -48.76   30.32
   2  -2 -11   16.41   27.93
   2  -2 -11   -8.39   13.57
   2  -2 -11   -5.73   15.89
  -2  -2  11  -60.76   43.54
  -2  -2  11    1.41   15.23
  -2   2  11   -8.45    8.87
  -2   2  11   16.45   37.08
   3   2 -11   74.18   36.61
   2  -3 -11   76.45   25.77
   2  -3 -11  114.61   32.27
   2  -3 -11  126.22   22.01
  -3  -2  11   36.81   43.79
  -2   3  11   76.82   19.23
  -2   3  11   95.74   18.92
  -3  -2  11   57.98   21.76
  -2   3  11   47.31   44.99
   3   1 -11   17.29   29.13
   1  -3 -11   -1.00   22.09
   1  -3 -11    3.62   17.65
   1  -3 -11  -27.98   34.32
  -1   3  11   17.96   38.95
  -1   3  11   19.89   11.34
  -3  -1  11    3.77   13.68
  -3  -1  11   -6.90   43.08
  -1   3  11   12.76   12.83
   3   0 -11  137.52   37.67
   0   3 -11  119.32   51.09
   0  -3 -11   80.13   29.36
  -3   0  11  149.89   23.97
   0  -3  11   96.60   59.67
   0   3  11   76.98   27.19
  -3   0  11   69.56   45.54
   3  -1 -11    4.04   11.48
   3  -1 -11    9.84    9.25
   1   3 -11   29.62   40.30
  -1  -3  11   25.95   49.03
  -3   1  11    3.77    8.16
  -3   1  11    6.39   12.30
  -3   1  11    5.91    6.39
   3  -2 -11   84.63   18.04
   2   3 -11   78.52   37.14
   3  -2 -11   87.47   21.93
  -2  -3  11   44.55   50.14
  -3   2  11   53.96   17.83
  -3   2  11   75.24   15.71
  -2  -3  11   50.90   16.05
   3  -3 -11  -33.80   25.91
   3   3 -11  -18.19   37.97
   3  -3 -11   -1.09   13.61
   3  -3 -11   -0.79   19.19
   3  -3 -11  -20.36   13.28
  -3   3  11    3.16   11.47
  -3   3  11   -5.26   12.29
  -3  -3  11  -15.68   45.65
  -3   3  11   34.36   37.02
   3  -4 -11   59.42   20.20
   3  -4 -11   22.42   19.92
   4   3 -11   73.62   37.29
   3  -4 -11  151.46   25.47
   3  -4 -11   50.00   28.28
  -3   4  11   79.89   18.67
  -4  -3  11   28.01   51.91
  -3   4  11   97.81   18.82
  -3   4  11   87.89   39.94
  -3   4  11   45.65   15.49
   4   2 -11  413.36   95.28
   2  -4 -11  505.32   97.11
   4   2 -11  620.28   96.72
  -4  -2  11  436.82   80.66
  -2   4  11  375.87   80.73
  -4  -2  11  289.90  102.63
  -2   4  11  500.51  105.23
  -2   4  11  442.08   81.03
   4   1 -11    8.33   23.41
   4   1 -11  -15.91   31.04
   1  -4 -11  -11.21   36.53
   1  -4 -11   16.15   17.53
  -1   4  11  -11.93   12.61
  -4  -1  11    1.79   43.51
  -4  -1  11    4.80   14.06
  -1   4  11   -4.78   12.53
   4   0 -11   -6.11   19.92
   0   4 -11    5.30   49.03
   4   0 -11  -30.15   28.93
  -4   0  11    2.25   12.94
  -4   0  11   -1.69   41.71
   0  -4  11  -20.73   19.82
   0   4  11   -9.55   15.71
   0  -4  11   17.53   59.30
   4  -1 -11   -3.15    8.33
   4  -1 -11  -14.27   29.16
   1   4 -11    4.50   45.46
   4  -1 -11   -6.89   19.94
  -4   1  11    4.10    7.57
  -4   1  11  -13.58   12.22
  -1  -4  11  -25.10   53.36
  -1  -4  11   30.87   19.39
  -4   1  11    9.51   40.24
   2   4 -11  416.44   98.64
   4  -2 -11  485.39   87.98
   4  -2 -11  502.77   92.29
  -4   2  11  386.15   80.90
  -4   2  11  468.66   81.38
  -2  -4  11  406.93   84.38
  -2  -4  11  439.73  111.36
  -4   2  11  482.95   87.39
  -2  -4  11  473.29   87.00
   4  -3 -11   72.32   20.75
   4  -3 -11   35.24   17.77
   3   4 -11   66.63   42.29
   3   4 -11   38.63   13.05
   3   4 -11   37.96   12.67
  -4   3  11   86.53   15.90
  -3  -4  11   41.75   14.86
  -4   3  11   27.51   18.65
  -3  -4  11   35.03   13.37
  -3  -4  11   75.02   51.94
  -3  -4  11   37.14   18.68
   4   4 -11  124.00   41.06
   4   4 -11  165.18   50.78
  -4  -4  11   59.84   27.42
   4  -5 -11  -13.06   23.66
   5   4 -11    8.19   30.64
   4  -5 -11  -10.47   15.92
   4  -5 -11   19.59   25.61
  -4   5  11    9.14   11.59
  -5  -4  11  -11.59   16.62
  -4   5  11   72.48   19.75
  -5  -4  11    4.28   54.01
  -4   5  11   -1.90   18.63
  -4   5  11   26.45   38.39
   3  -5 -11  368.52   95.50
   3  -5 -11  390.93  100.56
   3  -5 -11  433.30  100.12
   5   3 -11  574.21   99.34
  -5  -3  11  402.69  109.13
  -3   5  11  461.57   85.89
  -3   5  11  467.70   92.30
  -5  -3  11  621.49   84.78
   2  -5 -11  -19.70   31.99
   5   2 -11   36.50   26.16
   2  -5 -11  -62.33   38.93
  -2   5  11   -3.49   13.24
  -5  -2  11   36.22   14.89
  -5  -2  11   30.29   50.71
  -2   5  11   -1.25   15.43
   5   1 -11  103.50   37.07
   1  -5 -11  126.71   32.08
   1  -5 -11  161.34   39.79
  -5  -1  11   93.64   26.59
  -1   5  11  109.47   26.52
  -5  -1  11  137.39   52.28
  -1   5  11  134.33   28.12
   0  -5 -11   20.56   29.15
   0   5 -11   -2.81   51.70
   0  -5 -11  -17.89   21.70
   5   0 -11   11.94    8.80
   5   0 -11   28.79   23.88
   0   5  11   25.24   17.05
   0  -5  11  -13.50   20.52
  -5   0  11   20.77   45.45
  -5   0  11    4.59   13.22
   0   5  11   -6.17   17.04
   0  -5  11  -13.02   61.19
   1   5 -11  173.35   55.94
   5  -1 -11  106.56   35.54
  -1  -5 -11  125.97   37.38
   5  -1 -11  144.47   29.78
  -5   1  11  153.02   28.20
  -1  -5  11  127.09   33.22
  -5   1  11  151.68   51.29
  -1  -5  11  146.99   31.02
  -1  -5  11  122.98   66.01
   5  -2 -11  -36.45   22.87
   5  -2 -11   11.34   18.32
   2   5 -11   30.26   43.19
  -5   2  11   41.92   12.72
  -5   2  11  -34.67   47.16
  -2  -5  11   43.44   13.81
  -2  -5  11   22.45   20.34
  -2  -5  11  -11.42   64.20
   5  -3 -11  382.35   94.06
   3   5 -11  497.17   86.00
   3   5 -11  666.83  107.84
   5  -3 -11  538.73   98.81
   3   5 -11  600.83   93.68
  -3  -5  11  212.85  119.04
  -5   3  11  660.78   89.08
  -5   3  11  492.04  106.82
  -3  -5  11  339.82   95.32
  -3  -5  11  489.50   91.69
  -3  -5  11  413.52   88.24
   4   5 -11   10.80   30.47
   4   5 -11  -14.62   13.17
   4   5 -11   66.49   45.11
   4   5 -11   12.10   13.41
   5  -4 -11  -16.42   19.14
  -5   4  11   -1.12   12.47
  -4  -5  11    9.99   17.70
  -4  -5  11    2.57   16.47
  -4  -5  11   35.45   58.65
  -4  -5  11    1.55   17.83
   5   5 -11   -6.49   31.94
   5  -5 -11  -20.06   24.79
   5   5 -11    2.12   40.63
   5  -5 -11   -6.32   24.80
  -5  -5  11   22.69   56.20
  -5   5  11   13.83   23.98
  -5  -5  11   22.94   17.34
   5  -6 -11  152.24   44.09
   6   5 -11  111.21   51.31
   5  -6 -11  128.52   47.07
  -6  -5  11  158.62   35.31
  -5   6  11  162.22   44.00
  -6  -5  11  172.33   74.15
  -5   6  11  262.35   55.28
   4  -6 -11 1441.50  311.16
   4  -6 -11 1748.78  298.18
  -4   6  11 1520.57  276.17
  -4   6  11 1568.51  300.49
  -4   6  11 1456.51  319.07
  -6  -4  11 1584.89  320.32
   3  -6 -11   11.43   24.24
   6   3 -11   35.31   30.98
   3  -6 -11   39.21   31.44
   3  -6 -11   16.03   26.37
   3  -6 -11    0.70   13.54
  -3   6  11  -30.65   39.21
  -3   6  11   17.30   10.32
  -3   6  11   23.41   20.43
  -6  -3  11  -12.81   54.21
  -3   6  11   12.20   20.50
  -6  -3  11   14.52   15.67
   2  -6 -11 2389.53  476.88
   6   2 -11 2809.28  472.85
   2  -6 -11 2473.62  476.25
   2  -6 -11 2013.62  466.33
   2  -6 -11 2075.37  448.92
  -2   6  11 2272.97  425.32
  -2   6  11 2454.11  498.86
  -2   6  11 2188.23  415.70
  -6  -2  11 2306.69  413.96
  -6  -2  11 2346.50  483.04
   6   1 -11  334.76   76.17
   1  -6 -11  332.50   79.60
   1  -6 -11  330.74   71.23
  -1   6  11  403.70   65.70
  -6  -1  11  278.88   87.17
  -1   6  11  341.68   64.19
  -6  -1  11  340.50   64.50
   0   6 -11  -24.17   55.06
   0  -6 -11   -6.82   33.71
   6   0 -11   15.72   27.23
   0  -6 -11    1.55   22.69
   0  -6  11  -84.08   66.21
   0   6  11   -4.43   16.38
  -6   0  11  -23.26   46.77
  -6   0  11    5.30   15.34
   0   6  11    1.59   20.06
   0  -6  11   -7.91   20.97
   1   6 -11  396.33   88.50
  -1  -6 -11  277.99   77.66
  -1  -6 -11  370.55   74.08
   6  -1 -11  344.20   76.35
  -1  -6  11  352.29   70.49
  -1  -6  11  509.06  102.53
  -1  -6  11  290.74   68.59
  -6   1  11  339.73   85.10
  -6   1  11  341.35   65.59
   1   6  11  325.40   66.25
   2   6 -11 2135.59  432.55
   6  -2 -11 2094.17  430.71
   2   6 -11 2556.47  464.98
  -6   2  11 2381.17  470.29
  -2  -6  11 2385.43  412.97
  -2  -6  11 2272.89  438.25
  -2  -6  11 2096.14  485.15
  -2  -6  11 2054.75  454.23
  -6   2  11 2228.17  415.52
   3   6 -11   18.87   15.61
   6  -3 -11   20.91   24.28
   3   6 -11   55.29   46.98
   6  -3 -11   20.23   19.00
   3   6 -11   28.39   18.90
  -6   3  11  -26.78   42.87
  -3  -6  11   25.51   19.69
  -3  -6  11   31.72   21.02
  -3  -6  11   21.19   61.41
  -3  -6  11   30.19   14.88
   4   6 -11 1353.14  297.47
   4   6 -11 1740.79  311.29
   4   6 -11 1355.24  270.23
   4   6 -11 1732.61  310.72
  -6   4  11 1719.22  310.38
  -4  -6  11 1397.85  289.13
  -4  -6  11 1490.67  313.58
  -4  -6  11 1227.25  305.88
   5   6 -11  104.25   60.58
   6  -5 -11  219.60   44.28
   5   6 -11  239.81   52.40
  -5  -6  11  169.34   73.14
  -5  -6  11  149.73   38.26
   6   6 -11  -36.56   37.01
   6  -6 -11  -27.80   27.68
  -6  -6  11   67.37   68.62
  -6  -6  11  -11.62   19.00
   6  -7 -11   -7.78   30.46
   7   6 -11   42.66   40.10
  -7  -6  11   13.05   21.45
  -6   7  11    3.25   32.01
  -7  -6  11  -21.92   71.43
   5  -7 -11   24.52   33.44
   7   5 -11   30.52   33.20
   5  -7 -11    5.70   31.07
  -7  -5  11   28.64   20.94
  -5   7  11   -5.70   30.00
  -7  -5  11   23.47   70.87
   4  -7 -11  100.09   40.09
   4  -7 -11   85.71   34.68
  -4   7  11   43.63   30.75
  -4   7  11  101.01   32.43
  -7  -4  11   82.56   68.46
   3  -7 -11  447.72   81.61
   3  -7 -11  417.36   88.09
   7   3 -11  333.45   88.19
  -7  -3  11  317.00   72.68
  -7  -3  11  389.73  101.83
  -3   7  11  380.04   79.83
  -3   7  11  373.88   73.57
   2  -7 -11  178.52   54.33
   2  -7 -11  251.00   44.88
   7   2 -11  190.22   53.16
  -7  -2  11  127.02   39.86
  -7  -2  11  177.60   65.76
  -2   7  11  191.66   42.61
   7   1 -11  182.35   48.64
   1  -7 -11  196.73   43.99
   1  -7 -11  249.34   53.64
  -7  -1  11  123.21   37.68
  -1   7  11  152.95   39.46
   1  -7  11  226.56   45.49
  -7  -1  11  165.20   66.25
   0  -7 -11  903.73  193.97
   7   0 -11 1080.31  205.72
   0  -7 -11 1028.21  209.81
   0   7 -11  777.86  215.31
  -7   0  11 1078.01  180.75
  -7   0  11  945.39  211.96
   0  -7  11  958.71  232.09
  -1  -7 -11  212.73   51.87
   7  -1 -11  182.58   46.09
   1   7 -11  139.51   67.40
  -1  -7 -11  135.88   43.41
  -1  -7  11  215.80   40.28
  -7   1  11  142.21   61.85
   1   7  11  157.20   39.77
  -1  -7  11  174.21   78.09
   2   7 -11  198.99   69.16
  -2  -7 -11  223.94   53.41
  -2  -7  11  241.82   80.88
  -2  -7  11  161.79   44.15
  -7   2  11  203.27   63.61
   3   7 -11  242.96   96.43
  -7   3  11  376.51   96.85
  -3  -7  11  454.23  106.64
  -3  -7  11  462.82   75.32
   4   7 -11  130.78   45.11
   4   7 -11  124.83   57.34
   7  -4 -11  127.23   33.85
  -4  -7  11   71.12   69.86
  -7   4  11  134.65   54.86
  -4  -7  11  136.87   30.81
   7  -5 -11   -4.99   26.62
   5   7 -11    4.82   34.15
   5   7 -11  -63.92   53.45
  -5  -7  11    8.44   20.36
  -5  -7  11  -45.74   68.73
  -7   5  11  -36.53   47.25
   6   7 -11   -2.56   37.74
   6   7 -11    7.83   55.30
   7  -6 -11   25.76   29.91
  -6  -7  11   61.12   70.12
  -6  -7  11   20.84   19.88
   7  -7 -11  -26.70   30.93
   7   7 -11   -8.38   41.54
  -7  -7  11 -108.86   82.26
  -7  -7  11   -1.94   24.06
   8   7 -11    3.17   42.20
   7  -8 -11    9.11   34.53
  -8  -7  11   69.51   25.36
  -8  -7  11   -6.41   84.70
   8   6 -11   33.41   45.97
   6  -8 -11   30.27   34.22
   6  -8 -11  -11.66   39.82
  -8  -6  11   50.04   26.87
  -8  -6  11  -75.31   85.49
  -6   8  11   -3.53   34.62
   5  -8 -11  470.90  105.84
   8   5 -11  510.04  115.54
   5  -8 -11  392.85  111.11
  -5   8  11  503.40   97.60
  -8  -5  11  506.51  128.77
  -8  -5  11  592.13   95.81
  -5   8  11  540.72  107.60
   4  -8 -11   40.77   40.21
   4  -8 -11  136.18   36.71
  -4   8  11   42.08   34.90
  -8  -4  11  112.42   69.93
  -4   8  11   16.42   31.13
   3  -8 -11  425.29  105.82
   8   3 -11  530.26  105.25
   3  -8 -11  509.82   98.66
  -8  -3  11  558.53  116.47
  -3   8  11  372.21   96.19
  -8  -3  11  424.85   89.07
  -3   8  11  536.92   90.55
   2  -8 -11  425.27   82.77
   8   2 -11  312.50   81.58
   2  -8 -11  408.18   73.19
  -2   8  11  254.02   68.15
  -8  -2  11  333.09   92.47
  -8  -2  11  366.06   66.92
   1  -8 -11  311.90   77.53
   8   1 -11  173.02   74.52
   1  -8 -11  260.55   65.82
   1  -8  11  275.85   65.02
  -8  -1  11  389.26   86.45
  -1   8  11  354.01   61.75
   0  -8 -11  -14.58   44.62
   0   8 -11   25.32   72.56
   0  -8 -11  -16.75   27.55
   0  -8  11   56.09   74.98
  -8   0  11   10.71   54.01
   0  -8  11  -18.71   26.97
   0   8  11   -8.45   26.48
   0  -8  11   -8.66   26.38
   1   8 -11  364.52   69.65
  -1  -8 -11  382.59   70.55
   1   8 -11  272.74   95.72
  -1  -8 -11  322.35   80.19
  -1  -8  11  249.03  103.54
  -1  -8  11  365.37   68.67
   1   8  11  254.10   64.90
  -1  -8  11  327.16   66.19
  -8   1  11  333.00   87.11
   2   8 -11  301.81   67.98
   2   8 -11  237.48   59.32
   2   8 -11  343.60   87.33
  -2  -8 -11  335.11   75.39
  -2  -8  11  312.69   64.56
   2   8  11  194.33   63.83
  -2  -8  11  457.71  103.41
  -2  -8  11  331.61   68.88
  -2  -8  11  217.74   61.97
   3   8 -11  630.85  112.11
   3   8 -11  324.00   96.32
   3   8 -11  407.96   85.41
  -3  -8  11  438.35   98.71
  -3  -8  11  504.85   91.86
  -3  -8  11  495.24  122.11
  -3  -8  11  456.57   87.75
   4   8 -11   56.44   42.56
   4   8 -11   45.29   57.23
  -4  -8  11   96.33   27.44
  -4  -8  11  183.77   75.00
   5   8 -11  410.96  122.16
   5   8 -11  428.30  111.29
  -5  -8  11  518.26  127.86
  -5  -8  11  570.91   93.04
   6   8 -11   37.62   40.28
   6   8 -11  -25.18   60.77
  -6  -8  11   11.27   77.98
  -6  -8  11   -1.81   22.14
   7   8 -11    2.93   45.84
   8  -7 -11   16.59   37.21
  -7  -8  11   -5.98   85.13
  -7  -8  11   18.21   23.26
   8   8 -11   43.03   50.04
   8  -8 -11  -17.87   38.91
  -8  -8  11   -2.26   26.10
  -8  -8  11   -3.32   91.82
   8  -9 -11   -5.58   41.69
  -9  -8  11   78.86  102.15
   9   7 -11    3.65   53.36
   7  -9 -11  112.62   41.48
  -9  -7  11    3.43   94.48
   6  -9 -11  -14.38   37.46
   6  -9 -11   -8.62   43.33
   9   6 -11  -28.02   54.96
  -6   9  11   -7.63   39.92
  -9  -6  11   -3.21   91.29
   5  -9 -11  435.31   83.30
   9   5 -11  339.67   88.85
   5  -9 -11  273.08   76.86
  -9  -5  11  386.05  106.69
  -5   9  11  301.54   77.47
  -5   9  11  248.69   71.35
   4  -9 -11  450.61   90.76
   4  -9 -11  348.16   82.02
  -4   9  11  273.78   78.12
  -4   9  11  376.56   82.89
   3  -9 -11    8.87   34.14
   3  -9 -11  -16.44   43.89
  -3   9  11  -25.80   30.93
  -3   9  11  -36.12   33.42
   2  -9 -11  380.41   72.28
   2  -9 -11  205.44   60.35
  -2   9  11  262.74   60.36
  -2   9  11  199.85   57.52
   1  -9 -11  112.78   50.30
   1  -9 -11   57.56   32.79
  -1   9  11   37.52   33.13
   1  -9  11   70.69   34.80
   1  -9  11   33.12   34.27
   0   9 -11   77.15   85.67
   0  -9 -11  109.29   52.18
   0  -9 -11   47.58   34.19
   0  -9  11  154.00   80.97
   0   9  11   53.25   35.89
   0  -9  11  165.00   35.48
   0  -9  11    2.26   32.33
  -1  -9 -11   49.06   49.82
   1   9 -11   55.27   33.66
   1   9 -11  108.76   70.59
  -1  -9 -11   19.59   33.78
  -1  -9  11   34.92   28.23
  -1  -9  11   89.67   78.10
   1   9  11   49.34   31.47
  -1  -9  11   58.49   32.42
  -1  -9  11   81.79   29.60
   2   9 -11  325.33   54.49
   2   9 -11  202.64   59.79
  -2  -9 -11  254.05   60.22
   2   9 -11  126.63   85.11
  -2  -9 -11  258.53   71.39
  -2  -9  11  237.90   54.68
  -2  -9  11  224.08   60.06
  -2  -9  11  313.12   99.36
   2   9  11  333.25   58.50
  -2  -9  11  233.57   55.41
   3   9 -11   24.46   25.90
   3   9 -11   13.93   25.08
   3   9 -11  -57.82   62.79
  -3  -9  11   28.38   31.69
  -3  -9  11   21.35   22.84
  -3  -9  11 -103.52   78.19
  -3  -9  11   34.06   25.71
   4   9 -11  319.58   94.43
   4   9 -11  452.20  108.48
  -4  -9  11  395.88   76.37
  -4  -9  11  476.45  113.08
   5   9 -11  302.86   82.09
   5   9 -11  271.64   98.66
  -5  -9  11  289.67   64.08
  -5  -9  11  570.39  110.07
   6   9 -11   -9.12   66.91
   6   9 -11   -5.63   44.39
  -6  -9  11  -32.26   87.25
  -6  -9  11   24.63   23.20
   7   9 -11   12.27   53.83
   7   9 -11   -3.29   72.96
  -7  -9  11  118.13   29.06
  -7  -9  11  160.28   92.17
   8   9 -11   -3.47   53.81
  -8  -9  11   37.29   96.10
  -8  -9  11    2.35   27.85
   8 -10 -11   24.38   48.51
   7 -10 -11   35.70   41.15
  -7  10  11   50.39   44.89
   6 -10 -11   23.62   52.34
   6 -10 -11   58.82   43.43
  -6  10  11   70.25   42.04
   5 -10 -11   61.39   53.74
   5 -10 -11  128.21   45.75
  -5  10  11    7.64   42.73
  -5  10  11   29.22   43.69
   4 -10 -11   78.68   52.84
   4 -10 -11  -25.45   40.80
  -4  10  11   46.14   39.82
  -4  10  11    3.48   36.78
   3 -10 -11  -48.32   60.43
   3 -10 -11   94.93   44.55
  -3  10  11   41.23   39.21
  -3  10  11  112.12   35.44
   2 -10 -11   55.15   41.35
   2 -10 -11 -207.83   64.36
  -2  10  11   -2.72   35.33
  -2  10  11   15.69   31.23
   1 -10 -11 -188.26   61.33
   1 -10 -11 -108.84   41.90
   1 -10  11   18.67   34.24
  -1  10  11  -18.67   36.55
   1 -10  11   -2.46   35.17
   0 -10 -11 -178.74   56.40
   0  10 -11   -9.38   96.13
   0 -10 -11  -27.67   36.62
   0 -10  11    7.07   34.02
   0 -10  11  -84.01   85.14
   0  10  11   -5.51   35.74
   0 -10  11  -21.30   30.79
   1  10 -11  -43.28   36.33
  -1 -10 -11  -65.72   56.24
  -1 -10 -11  -59.32   37.16
   1  10 -11  -21.98   79.00
   1  10  11    5.54   36.55
  -1 -10  11   89.58   32.91
  -1 -10  11    2.27   28.00
  -1 -10  11  110.20   86.54
  -1 -10  11   43.57   34.43
  -2 -10 -11   27.81   38.67
   2  10 -11   22.39   31.49
  -2 -10 -11  -47.68   54.88
   2  10 -11   21.35   33.10
   2  10 -11   40.54   77.28
   2  10  11   35.21   36.60
  -2 -10  11    2.19   26.79
  -2 -10  11   42.68   85.98
  -2 -10  11   21.09   34.21
  -2 -10  11   71.18   30.78
   3  10 -11  126.35   33.20
   3  10 -11  123.58   50.30
  -3 -10 -11  105.26   47.61
   3  10 -11   72.13   36.26
   3  10 -11   78.32   71.99
  -3 -10  11   69.19   30.14
  -3 -10  11   37.99   90.21
   3  10  11   44.65   43.31
   4  10 -11   19.47   41.09
   4  10 -11    3.15   69.78
  -4 -10  11  -54.54   78.60
  -4 -10  11   29.22   25.11
   5  10 -11   56.80   46.27
   5  10 -11  131.17   76.92
  -5 -10  11   62.99   82.78
  -5 -10  11   69.91   27.99
   6  10 -11   29.55   47.89
   6  10 -11  129.70   79.50
  -6 -10  11  -84.60   84.92
  -6 -10  11   51.23   24.49
   7  10 -11    3.55   82.07
   7  10 -11   64.27   51.88
  -7 -10  11  203.42   97.58
  -7 -10  11   56.98   30.83
  -8 -10  11  181.19  108.51
   9  10 -11    4.18   67.63
 -10 -10  11   76.53  111.58
   8 -11 -11  -29.87   51.62
   7 -11 -11  -12.06   46.37
  -7  11  11   19.66   46.09
   6 -11 -11    2.93   45.72
   6 -11 -11  -69.73   56.47
  -6  11  11   40.48   44.80
  -6  11  11    6.74   44.07
   5 -11 -11   42.86   48.26
   5 -11 -11  178.03   57.67
  -5  11  11   76.07   49.12
  -5  11  11   89.83   54.31
   4 -11 -11  104.83   51.65
   4 -11 -11  274.50   67.45
  -4  11  11  129.35   53.96
  -4  11  11  181.47   58.20
   3 -11 -11    2.56   55.64
   3 -11 -11   25.07   42.62
  -3  11  11    3.12   42.56
  -3  11  11   -3.80   41.75
   2 -11 -11   26.32   57.52
   2 -11 -11    2.69   40.45
  -2  11  11  -21.57   38.68
  -2  11  11    6.16   46.13
   1 -11 -11   -2.70   62.38
   1 -11 -11   36.45   37.81
  -1  11  11   18.10   40.07
   1 -11  11   -5.51   40.15
   1 -11  11   -2.80   35.89
   0  11 -11  348.41  131.67
   0  11 -11  300.70   70.58
   0 -11 -11  285.24   82.82
   0 -11 -11  397.54   70.92
   0 -11  11  145.50   63.26
   0  11  11  324.71   68.62
   0 -11  11  285.72   69.03
   1  11 -11  112.43   90.28
   1  11 -11   11.06   34.99
  -1 -11 -11    2.73   57.70
   1  11 -11   45.22   36.67
  -1 -11 -11   -2.60   40.66
   1  11  11   40.29   39.67
  -1 -11  11   25.14   38.30
  -1 -11  11  181.38   92.57
  -1 -11  11   14.34   33.26
  -1 -11  11  -16.39   29.27
   2  11 -11   34.81   35.77
  -2 -11 -11  -56.84   54.73
   2  11 -11  -33.31   35.07
  -2 -11 -11  -35.58   41.03
   2  11 -11   29.52   84.72
  -2 -11  11  -12.82   32.19
  -2 -11  11  -21.53   38.70
  -2 -11  11    2.25   29.71
   2  11  11  106.98   43.91
  -2 -11  11 -124.54   88.03
   3  11 -11  -14.70   50.24
  -3 -11 -11   31.91   57.01
   3  11 -11   65.03   74.93
  -3 -11  11  -14.60   28.23
  -3 -11  11   36.81   86.68
   3  11  11   13.94   45.47
   4  11 -11   72.48   46.31
   4  11 -11  186.64   82.05
  -4 -11  11   47.98   87.70
  -4 -11  11  119.22   34.41
   5  11 -11   80.66   81.74
   5  11 -11  143.97   55.31
  -5 -11  11   77.67   31.12
  -5 -11  11   86.46   87.00
   6  11 -11   27.80   53.81
   6  11 -11   76.70   82.32
  -6 -11  11    8.16   26.21
  -6 -11  11   55.66   93.46
   7  11 -11   15.52   87.95
   7  11 -11   -3.37   49.00
  -7 -11  11  102.10   27.32
  -7 -11  11    3.37   94.93
   9  11 -11 -140.05   67.37
  -9 -11  11    7.50  104.60
 -10 -11  11   19.01  106.74
   8 -12 -11  -65.15   56.93
  -7  12  11   -5.29   53.25
   5 -12 -11   -3.13   47.49
   4 -12 -11  -12.50   46.67
  -4  12  11   50.67   50.12
   3 -12 -11   -2.81   48.02
   3 -12 -11    3.08   45.17
  -3  12  11   60.63   46.62
  -3  12  11   -3.50   54.11
   2 -12 -11   68.67   47.53
  -2  12  11  100.15   46.35
  -2  12  11   31.33   51.65
   1 -12 -11  110.47   51.24
   1 -12  11   91.38   48.13
   1 -12  11   97.54   41.57
  -1  12  11  115.59   55.45
  -1  12  11  214.41   54.22
   0 -12 -11   34.34   44.37
   0  12 -11    4.37   42.76
   0 -12  11  -50.47   35.68
   0  12  11  -72.73   48.54
   0 -12  11  -17.27   42.95
   1  12 -11   51.95   46.96
   1  12 -11   87.26  105.77
   1  12 -11   96.86   44.55
  -1 -12 -11   20.17   46.42
  -1 -12  11   13.81   97.34
  -1 -12  11   71.21   35.89
  -1 -12  11   82.57   48.11
   1  12  11   41.53   49.88
  -1 -12  11  129.96   45.09
   2  12 -11   41.58   39.20
   2  12 -11   12.11   91.60
   2  12 -11   10.79   40.63
  -2 -12  11   36.70   98.12
  -2 -12  11   19.40   36.70
  -2 -12  11   11.23   31.41
   3  12 -11    6.10   53.66
   3  12 -11  -71.78   86.31
  -3 -12  11   -8.40   25.77
  -3 -12  11   51.53   94.41
   4  12 -11   -7.31   84.73
   4  12 -11    5.97   51.16
  -4 -12  11    2.02   25.84
  -4 -12  11  106.39   92.25
   5  12 -11   -3.83   82.99
   5  12 -11   59.35   53.62
  -5 -12  11    3.97   26.21
  -5 -12  11   65.48   93.19
   6  12 -11  156.57  103.51
   6  12 -11  126.65   59.09
  -6 -12  11  259.04   99.89
  -6 -12  11   29.64   31.03
   8  12 -11  530.29  140.86
  -8 -12  11  809.44  146.18
   9  12 -11  -28.29  103.90
   9  12 -11 -101.14   76.66
  -9 -12  11  -26.80  108.15
 -10 -12  11    3.77  107.75
   8 -13 -11   -4.02   59.89
   7 -13 -11  -11.03   55.61
  -7  13  11   34.33   59.66
  -7  13  11   58.02   66.65
   6 -13 -11  -41.80   57.46
   6 -13 -11  -82.96   67.31
  -6  13  11  -17.25   62.89
  -6  13  11  -64.67   56.80
   5 -13 -11    3.02   64.19
   5 -13 -11  -54.51   54.41
  -5  13  11   33.83   64.99
  -5  13  11   36.61   48.94
   4 -13 -11  301.47   60.92
   4 -13 -11   43.60   75.98
  -4  13  11   14.95   58.36
  -4  13  11  280.58   65.64
   3 -13 -11   43.65   80.51
   3 -13 -11   -3.39   45.99
  -3  13  11   -3.95   49.91
  -3  13  11   49.26   60.28
   2 -13 -11  -67.54   89.20
  -2  13  11   62.96   48.48
   1 -13 -11   -3.28   79.43
   1 -13  11  -63.31   49.55
  -1  13  11  -18.78   53.60
   0 -13 -11   84.74   76.78
   0  13 -11    4.72   50.51
   0 -13 -11   -3.18   45.23
   0  13  11  232.48   50.99
   0 -13  11   73.46   46.24
  -1 -13 -11  152.81   47.86
   1  13 -11   18.22   45.89
   1  13 -11   -4.27   46.73
  -1 -13 -11  -41.93   72.56
  -1 -13  11  -23.39   43.63
   1  13  11   80.92   52.62
  -1 -13  11  -16.09   48.19
  -2 -13 -11   -3.28   47.90
   2  13 -11  -34.73   44.14
  -2 -13 -11 -130.08   71.93
   2  13  11   63.54   55.43
  -3 -13 -11  176.72   72.47
  -3 -13 -11    6.75   54.65
   3  13  11   58.42   54.78
   4  13 -11  -43.42   94.25
   4  13 -11  -46.88   51.25
   5  13 -11   20.51   94.64
   5  13 -11   32.53   52.61
   6  13 -11   -4.42  101.68
   7  13 -11  -37.41   58.76
  -7 -13  11    7.24   28.97
   8  13 -11   -4.22   66.55
   8  13 -11   -5.05  123.62
  -8 -13  11  179.95  112.97
  -8 -13  11  -10.71   32.66
   9  13 -11   30.92  127.61
  -9 -13  11   27.37  118.51
  10  13 -11   59.80  109.67
 -10 -13  11    7.64  108.53
   8 -14 -11  -35.66   70.66
   7 -14 -11  -80.74   62.88
  -7  14  11   49.79   67.48
  -7  14  11    5.07   75.36
   6 -14 -11   43.67   69.54
   6 -14 -11   72.34   63.01
  -6  14  11   -9.83   71.79
  -6  14  11  106.96   63.85
   5 -14 -11    3.28   72.64
   5 -14 -11   30.01   59.15
  -5  14  11   18.91   70.30
  -5  14  11  -99.19   68.15
   4 -14 -11   13.57   77.29
   4 -14 -11    3.73   57.97
  -4  14  11   33.85   65.57
  -4  14  11   36.28   65.85
   3 -14 -11  104.00   62.74
   3 -14 -11   37.91   85.28
  -3  14  11   67.03   59.09
  -3  14  11  -40.15   67.09
   2 -14 -11  -32.64   57.57
   2 -14 -11    3.49   83.90
  -2  14  11  105.12   71.29
  -2  14  11 -218.99   78.00
   1 -14 -11  -39.39   57.12
   1 -14 -11  -70.76   80.91
  -1  14  11  -21.20   63.66
  -1  14  11   64.17   66.86
   0  14 -11   13.54   51.16
   0 -14 -11   -3.52   53.13
   0 -14 -11  -53.28   82.16
   0 -14  11   38.83   54.00
   0  14  11   82.36   57.24
  -1 -14 -11  -59.78   50.17
   1  14 -11  109.07   44.92
  -1 -14 -11  -73.29   79.62
   1  14 -11   47.30   50.54
  -1 -14  11  143.92   51.39
   1  14  11   51.43   56.85
  -1 -14  11   28.92   46.99
  -2 -14 -11    3.59   55.13
  -2 -14 -11  -89.76   72.34
   2  14  11  -13.07   57.98
  -3 -14 -11  -17.10   65.99
  -3 -14 -11   14.70   56.17
   3  14  11   -4.58   59.40
  -4 -14 -11  -98.44   77.84
   4  14  11  -14.75   59.63
   8 -15 -11  -69.47   80.81
  -8  15  11 -173.03   91.71
   7 -15 -11   35.36   65.49
  -7  15  11  -47.67   71.66
  -7  15  11   29.09   82.85
   6 -15 -11   77.15   73.60
   6 -15 -11   41.58   68.07
  -6  15  11   22.27   83.57
  -6  15  11   59.19   74.10
   5 -15 -11   20.53   63.19
   5 -15 -11   68.34   80.44
  -5  15  11 -169.62   75.70
  -5  15  11  -15.85   72.51
   4 -15 -11 -107.69   82.90
   4 -15 -11   32.57   65.32
  -4  15  11  128.13   74.90
  -4  15  11   56.08   77.25
   3 -15 -11   22.79   95.36
   3 -15 -11  -48.47   63.12
  -3  15  11  -12.68   66.31
  -3  15  11  -35.03   69.06
   2 -15 -11  297.58   92.70
   2 -15 -11  206.35   69.70
  -2  15  11   12.64   80.08
  -2  15  11  260.00   81.41
   2 -15  11   20.32   63.46
   1 -15 -11 -142.14   87.86
   1 -15 -11  -82.79   60.80
   1 -15  11   16.26   59.72
  -1  15  11  -23.92   70.20
  -1  15  11  -78.86   72.44
   0  15 -11   30.16   53.30
   0  15 -11 -223.27   58.19
   0 -15 -11   50.38   61.26
   0 -15 -11   46.48   90.18
   0 -15  11   -7.69   58.11
   0  15  11    4.84   65.49
   0  15  11   29.30   66.79
  -1 -15 -11  -45.42   86.52
   1  15 -11   -4.82   53.48
  -1 -15 -11  -46.55   56.51
   1  15  11  -38.10   70.63
  -2 -15 -11   51.24   60.05
  -2 -15 -11   22.39   85.43
   2  15  11  -33.73   66.37
  -3 -15 -11  -76.49   59.62
  -3 -15 -11   48.61   81.66
   3  15  11   55.35   61.45
  -4 -15 -11   99.18   83.16
   4  15  11  -75.09   66.98
   8 -16 -11 -204.36   95.24
  -8  16  11  -14.38  108.04
   7 -16 -11   -4.88   74.75
  -7  16  11   -7.50   76.32
  -7  16  11   26.90   98.35
   6 -16 -11  -40.23   82.58
   6 -16 -11  -87.57   73.70
  -6  16  11  -56.60   86.81
  -6  16  11  117.02   82.20
   5 -16 -11 -154.10   90.10
   5 -16 -11  -22.43   71.66
  -5  16  11   87.77   83.14
  -5  16  11   82.95   78.64
   4 -16 -11  115.35   74.26
   4 -16 -11   24.36   93.53
  -4  16  11  -50.97   72.46
  -4  16  11   11.46   79.55
   3 -16 -11   70.99   97.04
   3 -16 -11   13.15   61.63
  -3  16  11  -16.89   77.88
  -3  16  11 -179.25   83.62
   2 -16 -11 -128.07   95.53
   2 -16 -11   17.33   66.77
   2 -16  11   76.76   65.42
  -2  16  11  -65.44   70.05
  -2  16  11   42.90   72.26
  -1  16 -11  -57.14   65.31
   1 -16 -11   21.63   68.54
   1 -16 -11 -122.37   98.90
  -1  16  11  -74.95   73.74
  -1  16  11  -27.89   85.44
   1 -16  11  -98.74   71.01
   0 -16 -11  -62.10   95.39
   0  16 -11    4.19   64.55
   0  16 -11   -5.60   60.20
   0 -16 -11 -107.06   61.01
   0 -16  11  105.44   64.95
   0  16  11  -85.74   76.17
   0  16  11  107.88   74.49
  -1 -16 -11  -61.62   98.34
  -1 -16 -11 -145.26   66.04
   1  16  11  -68.82   78.11
  -2 -16 -11  -28.22   93.54
  -2 -16 -11    4.34   64.87
   2  16  11  -74.70   75.13
  -3 -16 -11   32.51   89.52
  -3 -16 -11   48.43   62.66
   3  16  11  171.86   77.67
  -4 -16 -11   12.54   96.89
   4  16  11  -87.75   77.98
   8 -17 -11  -67.85   92.75
  -8  17  11 -135.41  119.06
   7 -17 -11 -124.52   84.75
  -7  17  11 -139.41  113.93
  -7  17  11   83.11   88.03
   6 -17 -11   86.58   81.07
   6 -17 -11   22.04  105.61
  -6  17  11   40.89   96.88
  -6  17  11 -149.67  110.41
   5 -17 -11  -34.42   75.38
   5 -17 -11   26.04   89.41
  -5  17  11  -41.15   94.81
  -5  17  11 -215.21  100.03
   4 -17 -11   22.03   96.66
   4 -17 -11  -38.72   75.36
  -4  17  11  -16.51   93.75
  -4  17  11   65.10   90.11
   3 -17 -11   -4.75   72.10
   3 -17 -11  154.94  103.19
  -3  17  11  -48.71   90.96
  -3  17  11  -37.89   94.37
   2 -17 -11 -122.41  106.25
   2 -17 -11  -61.42   72.99
  -2  17  11   24.42   86.98
  -2  17  11   16.12   94.07
   1 -17 -11  -80.70   72.11
  -1  17 -11  -40.68   65.52
   1 -17 -11  -76.82  103.06
  -1  17  11   12.02   80.22
  -1  17  11   23.66   88.57
   1 -17  11  -73.44   77.60
   0 -17 -11   35.72  100.03
   0  17 -11    5.92   61.98
   0 -17 -11   51.84   66.05
   0  17  11    7.51   91.23
   0  17  11  -30.07   83.63
  -1 -17 -11 -129.47   94.51
  -1 -17 -11    4.70   69.33
   1  17  11  100.21   75.61
   1  17  11  -21.65   85.64
  -2 -17 -11 -114.63   70.01
  -2 -17 -11  -26.24   94.32
   2  17  11   47.36   78.84
  -3 -17 -11   38.66   70.40
  -3 -17 -11  110.27   99.95
   3  17  11  177.54   82.53
  -4 -17 -11   45.80  100.14
   4  17  11  102.85   85.20
   7 -18 -11  110.05   88.03
  -7  18  11 -148.33  102.67
  -7  18  11  177.29  129.82
   6 -18 -11  -29.02   93.94
   6 -18 -11  146.47   90.15
  -6  18  11 -156.17  107.39
  -6  18  11  -24.39  125.41
   5 -18 -11   -5.39   82.16
   5 -18 -11 -123.62  104.89
  -5  18  11  120.57   97.77
  -5  18  11  107.07  112.21
   4 -18 -11   78.94   78.63
   4 -18 -11 -134.60  108.12
  -4  18  11  168.38  105.29
  -4  18  11  -14.77  100.64
   3 -18 -11  -82.79   85.77
  -3  18  11 -174.73  100.04
  -3  18  11   99.77   99.46
   2 -18 -11  351.70  115.06
  -2  18  11  227.36  136.65
  -2  18  11  329.13  129.14
   1 -18 -11  -88.07   86.50
   1 -18 -11  232.38  120.18
  -1  18 -11   15.01   77.11
  -1  18  11  114.97   92.13
  -1  18  11  -80.43  107.37
   0 -18 -11   -5.17   77.42
   0  18  11 -180.76   94.16
   0  18  11   60.20  104.40
  -1 -18 -11   77.37   74.65
  -1 -18 -11 -138.34  118.74
   1  18  11  -45.92   91.85
   1  18  11   -8.14   92.13
  -2 -18 -11  553.46  121.74
   2  18  11    8.04  128.34
   2  18  11  212.49  116.74
  -3 -18 -11 -325.63  108.37
  -3 -18 -11  -37.25   81.75
   3  18  11 -210.36   98.09
  -4 -18 -11   45.14  107.84
   4  18  11 -120.51   92.09
   6 -19 -11    6.27   96.32
  -6  19  11 -338.97  147.52
   5 -19 -11   11.90   90.30
   5 -19 -11 -271.88  109.36
  -5  19  11 -203.03  126.66
  -5  19  11  -62.65  110.69
   4 -19 -11   28.64   88.79
   4 -19 -11  145.62  112.00
  -4  19  11  190.29  118.47
  -4  19  11   92.57  127.67
   3 -19 -11   39.49   87.39
   3 -19 -11    5.34  114.66
  -3  19  11  -95.97  115.54
  -3  19  11   10.45  116.43
   2 -19 -11  146.22  120.14
   2 -19 -11  -73.46   87.07
  -2  19  11   69.62  113.73
  -2  19  11  -10.22  112.36
   1 -19 -11  -58.17  122.63
   1 -19 -11  -39.47   84.06
  -1  19  11  -91.99  103.35
  -1  19  11  -10.04  108.24
   0 -19 -11  240.22  126.67
   0 -19 -11    5.66   83.98
   0  19  11  -59.81  102.71
   0  19  11   19.45  114.23
  -1 -19 -11 -185.66  114.30
  -1 -19 -11    5.70   84.15
   1  19  11   18.61  107.91
   1  19  11   36.63   97.31
  -2 -19 -11 -296.92  124.52
  -2 -19 -11  -29.12   90.85
   2  19  11    7.41  100.96
   2  19  11  -27.42  108.15
  -3 -19 -11   58.58   85.76
   3  19  11  120.81   94.79
   4  19  11   47.10  101.91
   0   0  12 3415.24  627.75
   0   1 -12  -21.42   47.09
   1   0 -12  -12.26   39.95
   0   1  12    3.86   20.12
   0  -1  12  -22.63   56.23
  -1   0  12   -2.07   48.83
   0  -1  12   14.33   21.84
  -1   0  12  -19.53   16.79
   1   1 -12  683.98  141.12
   1  -1 -12  677.94  131.99
  -1   1  12  596.04  120.35
  -1  -1  12  536.95  152.33
   2   1 -12    5.46   34.86
   1  -2 -12  -14.81   19.66
  -2  -1  12   10.22   16.53
  -2  -1  12   -5.94   48.67
   0   2 -12  195.89   64.08
   2   0 -12  175.68   40.98
   2   0 -12  158.67   52.52
  -2   0  12  216.17   38.51
   0  -2  12  128.30   72.92
   0  -2  12  234.82   42.24
  -2   0  12  184.10   63.40
   1   2 -12   28.80   41.66
   2  -1 -12   -6.15   14.85
  -2   1  12   -5.02   13.43
  -2   1  12   -1.78   34.45
  -1  -2  12   -1.68   17.47
  -1  -2  12    4.49   52.06
   2   2 -12   48.38   46.68
   2  -2 -12   97.69   30.41
  -2  -2  12  118.66   28.07
  -2   2  12  136.66   23.48
  -2  -2  12  140.43   60.00
   2  -3 -12  -13.85   20.74
   2  -3 -12   -4.75   32.99
   3   2 -12   -1.88   35.57
   2  -3 -12  -15.34   16.02
  -2   3  12    3.30   46.77
  -2   3  12    6.04   11.57
  -3  -2  12   -6.12   50.16
  -3  -2  12   11.89   15.55
   1  -3 -12  -22.35   38.19
   1  -3 -12   11.65   24.13
   3   1 -12   15.79   32.41
  -1   3  12   77.75   49.52
  -3  -1  12   12.49   14.70
  -3  -1  12   40.24   48.01
   0  -3 -12   41.77   18.56
   3   0 -12    8.20   34.96
   0   3 -12   -2.80   49.52
  -3   0  12  -18.04   45.80
   0  -3  12   26.35   58.51
  -3   0  12   10.37   15.38
   3  -1 -12   22.41   12.60
   1   3 -12    2.33   48.67
   3  -1 -12   23.91   14.58
   3  -1 -12   53.66   31.12
  -3   1  12   19.29    8.68
  -1  -3  12    2.36   57.68
  -3   1  12   20.43   43.82
  -3   1  12   13.25   14.20
  -3   1  12   18.53    7.83
   3  -2 -12    2.58   12.18
   2   3 -12   26.84   42.46
   3  -2 -12    9.38   16.66
  -3   2  12   16.80    9.69
  -3   2  12   -0.81    9.84
  -3   2  12   10.95   13.25
  -2  -3  12    0.43    7.39
  -2  -3  12  -51.10   56.47
   3  -3 -12  370.19   60.03
   3   3 -12  351.95   75.01
   3  -3 -12  295.99   63.61
  -3   3  12  264.91   58.80
  -3  -3  12  279.38   82.62
  -3   3  12  281.56   54.90
   4   3 -12  496.83   92.59
   4   3 -12  510.36   88.09
  -3   4  12  426.98  100.58
  -4  -3  12  288.89   72.46
  -4  -3  12  353.82  100.88
   2  -4 -12  -21.59   18.58
   2  -4 -12  -96.05   40.85
   4   2 -12  -33.21   39.97
   4   2 -12   -9.65   29.69
  -4  -2  12  -59.53   54.97
  -2   4  12  -30.30   14.05
  -4  -2  12    1.41   14.48
  -2   4  12 -115.31   56.29
  -2   4  12  -34.37   16.11
   4   1 -12  -26.06   35.25
   4   1 -12  -21.56   22.28
  -4  -1  12   19.74   14.93
  -1   4  12   23.32   14.65
  -4  -1  12    5.86   48.52
   0  -4 -12   -1.28   25.56
   4   0 -12   14.75   31.96
   4   0 -12   19.96   23.48
   0   4 -12   58.35   55.75
  -4   0  12   -1.24   14.63
   0   4  12   22.74   19.64
   0  -4  12   29.93   62.81
   0  -4  12   22.47   21.84
  -4   0  12   20.40   47.50
   4  -1 -12   -1.53   23.31
   1   4 -12   27.07   51.65
   4  -1 -12   -9.28   33.19
   4  -1 -12   -3.50    8.21
  -4   1  12    7.11    6.93
  -1  -4  12   20.35   19.92
  -1  -4  12  -17.31   60.12
  -4   1  12   31.56   47.55
  -4   1  12  -16.04   13.95
   2   4 -12  -22.11   49.97
   4  -2 -12  -10.32   12.70
   4  -2 -12  -17.43   15.75
   4  -2 -12  -50.70   33.57
   4  -2 -12  -55.92   20.39
  -2  -4  12   -5.29   19.53
  -4   2  12  -21.25   13.58
  -2  -4  12  -63.58   61.08
  -4   2  12  -20.66   11.12
  -4   2  12  -13.89   13.22
  -4   2  12  -28.09   52.91
  -2  -4  12   11.92   10.96
   3   4 -12  299.94   68.50
   3   4 -12  401.33   92.82
  -3  -4  12  337.96  101.69
  -4   3  12  442.61   70.21
  -3  -4  12  298.72   71.46
  -4   3  12  408.07   77.75
  -4   3  12  549.90   70.14
  -3  -4  12  330.00   72.84
   4   4 -12  113.61   63.54
   4  -4 -12  250.75   48.58
  -4   4  12  217.52   44.30
  -4  -4  12  317.17   76.96
   4  -5 -12  268.49   63.39
   4  -5 -12  255.72   63.21
   5   4 -12  120.53   71.21
   4  -5 -12  395.92   58.59
  -4   5  12  283.55   53.94
  -4   5  12  305.68   71.96
  -5  -4  12  178.97   81.64
  -4   5  12  272.18   58.32
   5   3 -12   72.32   42.07
   5   3 -12   28.96   32.01
   3  -5 -12   23.27   17.88
   3  -5 -12   42.70   29.51
   3  -5 -12   91.13   22.17
   3  -5 -12   55.63   29.12
  -3   5  12  114.22   19.90
  -3   5  12   24.27   19.08
  -3   5  12   41.12   45.35
  -3   5  12   35.25   13.24
  -5  -3  12   49.06   19.71
  -5  -3  12   13.10   56.46
   2  -5 -12 1155.51  239.06
   5   2 -12 1284.41  248.44
   2  -5 -12 1466.40  251.25
   2  -5 -12 1188.69  253.76
  -2   5  12 1051.57  270.39
  -5  -2  12 1008.62  215.97
  -2   5  12 1195.65  220.28
  -5  -2  12 1165.68  257.07
  -2   5  12 1238.92  217.98
   1  -5 -12    1.44   37.03
   5   1 -12   28.95   27.01
   1  -5 -12  -18.55   24.39
  -5  -1  12   43.35   16.42
  -1   5  12   17.38   20.02
  -5  -1  12  -45.32   58.16
  -1   5  12   46.51   16.58
   5   0 -12    5.10   26.37
   0  -5 -12   65.96   37.27
   5   0 -12   27.61    7.64
   0   5 -12  -27.66   60.06
   0  -5 -12   13.21   29.74
   0   5  12  -29.03   20.75
   0   5  12  -15.00   19.78
   0  -5  12   67.71   70.88
   0  -5  12    4.15   23.37
  -5   0  12   -2.47   14.35
  -5   0  12    5.58   49.71
   5  -1 -12   26.36   13.21
   5  -1 -12   29.99   25.61
   1   5 -12   31.38   55.52
  -1  -5 -12   20.55   25.48
  -5   1  12  -71.05   52.28
  -1  -5  12   -1.92   21.75
  -1  -5  12   29.04   17.76
  -1  -5  12  -88.47   70.85
  -5   1  12   55.84   15.18
   5  -2 -12 1361.30  236.17
   2   5 -12 1339.38  252.66
  -5   2  12 1037.64  252.73
  -2  -5  12 1175.30  232.78
  -5   2  12 1193.53  217.25
  -2  -5  12  921.90  266.21
   3   5 -12   17.50   14.23
   5  -3 -12   72.64   19.71
   3   5 -12   29.33   14.11
   5  -3 -12   36.97   22.04
   3   5 -12   88.46   49.96
  -5   3  12   44.12   15.38
  -3  -5  12    4.89   66.11
  -3  -5  12   22.81   13.55
  -3  -5  12   34.36   22.41
  -5   3  12   28.97   47.44
   5  -4 -12  263.48   60.34
   4   5 -12  276.03   67.67
   4   5 -12  136.67   73.20
  -4  -5  12  356.30   54.24
  -5   4  12  349.01   72.29
  -5   4  12  249.79   53.95
  -4  -5  12  220.10   86.64
   5  -5 -12  155.50   38.56
   5   5 -12  130.37   44.05
   5   5 -12   74.21   57.24
   5  -5 -12  178.48   37.48
  -5  -5  12  168.90   73.10
  -5   5  12  119.61   31.36
  -5   5  12  207.07   39.30
  -5  -5  12  155.63   33.03
   6   5 -12   68.70   37.75
   5  -6 -12   30.30   30.49
   5  -6 -12   41.93   33.65
  -5   6  12   81.60   31.51
  -6  -5  12   67.76   68.48
  -5   6  12   51.47   25.51
  -6  -5  12   58.14   21.86
   4  -6 -12  324.70   69.80
   4  -6 -12  319.87   75.29
  -6  -4  12  353.69   91.67
  -4   6  12  333.91   70.41
  -4   6  12  272.09   82.45
  -4   6  12  301.77   63.36
   3  -6 -12 1114.61  212.53
   3  -6 -12 1012.66  224.44
  -3   6  12 1237.91  208.33
  -3   6  12  990.92  192.11
  -3   6  12 1049.31  200.28
  -6  -3  12  626.73  231.74
  -3   6  12 1076.76  242.88
  -6  -3  12 1027.39  190.27
   6   2 -12  461.47   78.77
   2  -6 -12  222.93   70.56
   2  -6 -12  242.13   71.23
   2  -6 -12  339.43   79.11
  -6  -2  12  356.94   94.12
  -2   6  12  383.99   64.98
  -6  -2  12  383.95   64.01
   6   1 -12  162.73   45.95
   1  -6 -12  127.40   39.76
   1  -6 -12  196.77   50.70
  -1   6  12  107.21   33.61
  -6  -1  12  130.67   63.71
  -6  -1  12  229.32   34.68
  -1   6  12  183.41   36.29
   6   0 -12 2500.03  498.56
   0  -6 -12 2416.18  505.82
   0  -6 -12 2668.10  481.90
   0   6  12 2525.47  441.17
   0  -6  12 2840.92  547.53
   0   6  12 2395.89  453.37
   0  -6  12 2354.48  451.72
  -6   0  12 2211.12  511.32
  -6   0  12 2182.83  439.64
  -1  -6 -12  139.95   47.83
   1   6 -12  186.83   68.30
   6  -1 -12  227.62   36.34
   6  -1 -12  107.83   41.74
  -6   1  12  153.30   62.19
  -1  -6  12  127.13   40.51
  -1  -6  12  213.56   39.26
  -1  -6  12  172.61   78.28
  -6   1  12  165.18   35.37
   6  -2 -12  363.11   79.56
   6  -2 -12  430.46   73.69
   2   6 -12  428.51   92.61
  -2  -6  12  322.42   73.57
  -6   2  12  366.89   70.79
  -6   2  12  385.12   92.18
  -2  -6  12  439.05  105.13
  -2  -6  12  379.06   72.32
   6  -3 -12 1273.23  230.39
   6  -3 -12 1153.29  243.30
   3   6 -12 1138.39  212.92
   3   6 -12 1114.41  229.72
   3   6 -12 1157.94  248.44
  -3  -6  12 1408.43  217.39
  -6   3  12 1166.51  250.16
  -3  -6  12 1251.43  257.65
  -6   3  12 1270.87  220.97
   6  -4 -12  421.44   76.01
   4   6 -12  156.48   87.96
   4   6 -12  355.68   82.51
  -4  -6  12  326.91   66.90
  -4  -6  12  356.12   99.07
  -6   4  12  441.60   87.68
   5   6 -12   43.69   51.70
   5   6 -12   14.74   36.61
   6  -5 -12   86.95   28.28
  -5  -6  12   27.90   22.64
  -6   5  12   64.66   48.78
  -5  -6  12   85.12   70.85
   6   6 -12  103.82   63.36
   6   6 -12  175.55   57.15
   6  -6 -12  171.03   45.37
  -6  -6  12  174.05   38.23
  -6  -6  12  154.03   79.80
  -6   6  12  203.46   47.83
   7   6 -12   49.35   41.46
   6  -7 -12   61.16   35.48
   6  -7 -12   40.06   36.79
  -6   7  12   19.29   31.22
  -7  -6  12   53.25   80.59
  -7  -6  12   74.06   24.24
   5  -7 -12  181.07   64.94
   7   5 -12  285.54   71.28
   5  -7 -12  279.99   69.49
  -5   7  12  282.79   65.25
  -5   7  12  370.03   59.13
  -7  -5  12  217.33   93.49
  -7  -5  12  291.82   56.30
   4  -7 -12   37.99   36.96
   4  -7 -12   23.08   31.04
  -7  -4  12  109.33   71.30
  -4   7  12   84.69   30.82
  -4   7  12   75.34   29.50
   3  -7 -12  349.62   69.94
   3  -7 -12  365.30   76.26
   7   3 -12  295.55   77.06
  -3   7  12  369.47   64.39
  -7  -3  12  445.01   94.67
  -7  -3  12  261.45   62.19
  -3   7  12  309.67   67.39
   2  -7 -12  250.10   66.31
   7   2 -12  204.11   65.12
   2  -7 -12  292.25   58.36
  -7  -2  12  239.86   51.88
  -7  -2  12  228.72   81.94
  -2   7  12  329.91   53.72
   1  -7 -12  376.15   90.26
   7   1 -12  292.51   86.82
   1  -7 -12  423.34   79.76
  -1   7  12  498.45   73.99
  -7  -1  12  284.78   72.21
  -7  -1  12  380.16   97.71
   7   0 -12  -16.58   28.17
   0   7 -12  -17.68   68.28
   0  -7 -12   -3.96   40.90
   0  -7 -12    8.77   22.15
   0  -7  12   14.08   24.16
  -7   0  12   12.25   53.38
  -7   0  12    1.58   16.75
   0  -7  12  -64.14   74.04
   0   7  12   -3.76   22.63
   0  -7  12    4.37   26.23
   7  -1 -12  423.64   88.87
  -1  -7 -12  409.14   91.59
  -1  -7 -12  454.52   84.75
   1   7 -12  379.75  105.09
  -1  -7  12  485.62  117.32
   1   7  12  346.54   78.10
  -7   1  12  319.36   76.34
  -1  -7  12  510.80   80.75
  -7   1  12  411.45   99.63
   2   7 -12  217.67   80.30
  -2  -7 -12  205.15   61.17
   7  -2 -12  256.53   61.01
  -2  -7  12  219.21   92.26
  -7   2  12  349.98   74.57
  -2  -7  12  252.15   55.09
   7  -3 -12  377.93   68.87
   3   7 -12  289.13   90.82
  -3  -7  12  319.90  103.05
  -7   3  12  378.01   87.63
  -3  -7  12  395.98   67.72
   4   7 -12   36.54   44.84
   7  -4 -12  123.09   28.14
   4   7 -12   34.49   59.67
  -4  -7  12   37.33   75.32
  -4  -7  12  101.16   27.24
  -7   4  12   64.83   54.55
   5   7 -12  398.38   86.56
   7  -5 -12  302.77   63.14
   5   7 -12  239.95   72.51
  -7   5  12  360.75   80.77
  -5  -7  12  254.66   58.34
  -5  -7  12  301.37   95.48
   6   7 -12   27.10   42.50
   7  -6 -12   16.45   30.33
   6   7 -12   16.23   56.77
  -6  -7  12   73.51   76.81
  -6  -7  12   32.79   23.67
   7  -7 -12   28.61   33.65
   7   7 -12    2.87   50.79
  -7  -7  12   -5.93   25.95
  -7  -7  12  236.86   86.26
   7  -8 -12   20.29   34.78
   8   7 -12    3.21   48.51
  -8  -7  12    8.90   26.22
  -8  -7  12    9.81   94.60
   8   6 -12  128.98   53.34
   6  -8 -12   72.06   44.56
   6  -8 -12   80.13   39.61
  -6   8  12  121.91   42.56
  -8  -6  12   93.55   85.61
  -8  -6  12   47.08   29.93
   8   5 -12   -2.94   42.10
   5  -8 -12   49.79   35.07
   5  -8 -12   20.45   39.94
  -8  -5  12    5.86   81.34
  -5   8  12    3.12   30.39
  -8  -5  12   43.29   25.28
  -5   8  12   26.76   32.46
   4  -8 -12  536.85  120.92
   4  -8 -12  633.74  127.49
  -4   8  12  626.93  111.63
  -8  -4  12  502.70  143.57
  -4   8  12  644.43  119.96
   3  -8 -12  119.18   47.91
   3  -8 -12  156.90   39.39
   8   3 -12  127.89   44.25
  -8  -3  12   76.66   30.91
  -3   8  12  101.47   36.16
  -8  -3  12  207.08   70.85
  -3   8  12  105.81   35.54
   2  -8 -12  355.75   83.54
   2  -8 -12  283.53   73.09
   8   2 -12  262.46   81.22
  -8  -2  12  354.78   94.88
  -8  -2  12  383.17   65.76
  -2   8  12  332.51   67.19
   8   1 -12   68.14   45.98
   1  -8 -12  151.05   54.36
   1  -8 -12  105.64   37.06
  -1   8  12  159.21   35.90
  -8  -1  12  143.72   32.10
  -8  -1  12  127.28   65.82
   1  -8  12  132.04   42.17
   0  -8 -12  619.83  111.24
   0   8 -12  581.09  142.67
   0  -8 -12  448.24  123.51
   8   0 -12  591.97  120.48
   0   8  12  581.71  103.22
   0  -8  12  585.03  148.49
   0  -8  12  468.70  105.95
  -8   0  12  335.91  129.23
   0  -8  12  628.94  110.69
  -1  -8 -12  195.39   52.98
   1   8 -12  122.86   74.43
  -1  -8 -12  102.40   38.92
  -1  -8  12  114.34   36.28
  -8   1  12   95.78   62.95
   1   8  12   63.99   37.12
  -1  -8  12  246.44   85.30
  -1  -8  12  157.87   36.62
   2   8 -12  338.71   95.24
   2   8 -12  238.90   65.36
  -2  -8 -12  351.02   79.56
   2   8 -12  397.09   74.39
  -2  -8  12  252.05  108.58
  -2  -8  12  324.22   74.02
  -2  -8  12  429.00   68.92
  -8   2  12  336.17   92.77
  -2  -8  12  336.57   71.16
   3   8 -12  169.95   64.80
  -3  -8  12   63.46   82.54
  -3  -8  12   94.13   30.92
  -8   3  12   31.46   62.42
   4   8 -12  509.40  134.28
   4   8 -12  584.02  124.40
  -4  -8  12  378.60  102.53
  -4  -8  12  489.05  138.73
  -8   4  12  728.81  130.70
   5   8 -12   57.78   61.65
   8  -5 -12   44.95   30.97
   5   8 -12   29.60   39.88
  -5  -8  12    2.81   77.86
  -8   5  12  129.05   57.56
  -5  -8  12   36.43   25.26
   6   8 -12   91.03   66.02
   6   8 -12   22.74   48.15
   8  -6 -12   54.94   31.89
  -6  -8  12   14.82   91.18
  -6  -8  12   76.15   25.58
   7   8 -12  -21.99   68.03
   8  -7 -12   23.70   33.71
   7   8 -12   -3.01   47.01
  -7  -8  12 -191.64   89.29
  -7  -8  12    2.06   23.37
   8  -8 -12  -31.00   33.94
   8   8 -12    3.35   53.39
  -8  -8  12    2.31   25.67
  -8  -8  12   10.13   96.08
   8  -9 -12   20.95   41.56
   7  -9 -12   24.78   39.13
  -9  -7  12    3.61   95.88
  -9  -7  12   -2.49   21.83
   6  -9 -12  180.85   51.42
   9   6 -12    3.53   59.96
   6  -9 -12  142.68   46.16
  -9  -6  12    3.39   91.44
  -6   9  12  155.11   48.68
  -9  -6  12  160.66   37.26
   5  -9 -12  310.76   66.09
   9   5 -12   10.19   71.93
   5  -9 -12  225.58   59.95
  -5   9  12  183.95   57.33
  -9  -5  12    3.15   93.84
  -9  -5  12  314.78   51.42
  -5   9  12  259.11   61.94
   4  -9 -12   37.59   51.64
   4  -9 -12   39.58   42.19
  -4   9  12   86.82   38.56
   3  -9 -12  552.70  112.22
   3  -9 -12  640.99  121.13
   9   3 -12  371.89  121.00
  -3   9  12  498.99  110.73
  -3   9  12  356.84  102.14
  -9  -3  12  743.76  135.12
   2  -9 -12   56.36   49.07
   2  -9 -12   71.34   33.46
  -9  -2  12   90.44   73.27
  -2   9  12   16.66   32.85
  -2   9  12   36.32   34.39
   1  -9 -12  222.07   73.38
   1  -9 -12  223.77   59.74
   1  -9  12  269.76   59.81
   1  -9  12  284.25   60.96
  -1   9  12  282.99   57.06
   0  -9 -12   -2.36   51.57
   0   9 -12   60.70   90.86
   0  -9 -12   16.80   32.32
   0  -9  12   76.54   87.06
   0  -9  12  -30.32   31.96
   0  -9  12   14.43   28.35
   0   9  12    7.30   32.08
   1   9 -12  210.83   90.57
  -1  -9 -12  274.78   59.10
  -1  -9 -12  404.60   74.66
  -1  -9  12  227.32  102.21
  -1  -9  12  204.33   55.37
   1   9  12  196.21   57.26
  -1  -9  12  211.11   56.71
   2   9 -12   24.25   30.42
   2   9 -12   63.19   34.71
  -2  -9 -12   81.05   48.15
   2   9 -12   46.50   68.68
  -2  -9  12  128.19   31.65
  -2  -9  12   78.07   89.21
   2   9  12   55.13   36.75
   3   9 -12  630.75  142.90
  -3  -9  12  590.22  116.42
  -3  -9  12  788.95  156.06
   4   9 -12   12.51   72.09
   4   9 -12   46.29   50.73
  -4  -9  12   24.72   28.00
  -4  -9  12  272.83   93.97
   5   9 -12  250.45   91.58
   5   9 -12  262.59   73.26
  -5  -9  12  244.64  100.94
  -5  -9  12  309.02   55.31
   6   9 -12  182.58   77.48
   6   9 -12   14.88   51.40
  -6  -9  12  172.43   94.18
  -6  -9  12   77.42   29.97
   7   9 -12    3.15   48.87
   7   9 -12    3.38   72.13
  -7  -9  12   92.84   93.70
  -7  -9  12   30.08   27.94
  -8  -9  12   -3.52   98.92
   9   9 -12  -16.03   61.26
  -9  -9  12   21.41   32.00
 -10  -9  12    4.05  117.89
   8 -10 -12  -17.17   43.94
 -10  -8  12    3.94  110.91
   7 -10 -12  -16.40   43.60
  -7  10  12    4.54   39.73
   6 -10 -12  -11.79   46.83
   6 -10 -12  -29.90   42.90
  -6  10  12  -69.24   45.97
  -6  10  12    4.12   37.49
   5 -10 -12  160.69   58.49
   5 -10 -12  203.91   53.76
  -5  10  12   99.02   51.60
  -5  10  12   61.20   50.39
   4 -10 -12  213.64   70.96
   4 -10 -12  437.73   80.08
  -4  10  12  203.39   68.85
  -4  10  12  234.14   66.75
   3 -10 -12   69.88   52.97
   3 -10 -12   37.72   40.94
  -3  10  12  -36.82   37.96
  -3  10  12  -16.47   38.39
   2 -10 -12   95.43   39.03
   2 -10 -12   85.27   59.79
  -2  10  12    2.72   40.73
  -2  10  12   54.69   38.17
   1 -10 -12 -135.34   45.32
  -1  10  12    5.40   39.44
   1 -10  12   41.66   38.02
   1 -10  12  -17.17   33.22
   0 -10 -12    2.59   62.59
   0  10 -12   44.53  105.96
   0 -10 -12   14.02   37.16
   0 -10  12   50.56   35.51
   0  10  12   55.07   40.34
   0 -10  12    2.52   33.90
  -1 -10 -12 -203.83   60.32
   1  10 -12  -17.29   37.42
  -1 -10 -12  -56.03   40.21
   1  10 -12    3.90   87.23
  -1 -10  12    7.35   28.97
  -1 -10  12   35.99   31.54
   1  10  12   36.77   37.77
  -1 -10  12   87.25   88.67
   2  10 -12   61.12   81.00
   2  10 -12   76.73   35.18
  -2 -10 -12  110.54   55.70
  -2 -10 -12   69.95   36.40
   2  10 -12    3.26   39.99
   2  10  12   51.43   41.86
  -2 -10  12   97.47   32.75
  -2 -10  12  114.12   87.61
   3  10 -12   10.14   76.32
  -3 -10  12   72.52   92.07
  -3 -10  12  -22.62   28.89
   4  10 -12  286.66   83.52
   4  10 -12  335.51  101.20
  -4 -10  12  323.11   63.15
  -4 -10  12  366.78  111.85
   5  10 -12  133.93   62.31
   5  10 -12  339.14   89.45
  -5 -10  12  204.31   44.58
  -5 -10  12  184.84   97.36
   6  10 -12  -10.54   75.39
   6  10 -12   37.39   53.18
  -6 -10  12 -168.27   93.84
  -6 -10  12    4.13   24.89
   7  10 -12  162.18   85.81
   7  10 -12  155.52   55.28
  -7 -10  12  116.57   31.47
  -7 -10  12 -243.78  101.90
   9  10 -12    4.19   65.15
  -9 -10  12   13.86   34.20
  -9 -10  12    3.89  108.90
 -10 -10  12    4.08  110.59
   8 -11 -12   21.84   51.00
   7 -11 -12   48.09   51.09
  -7  11  12   29.30   47.91
   6 -11 -12  121.29   58.72
   6 -11 -12   97.70   49.52
  -6  11  12   18.00   49.59
  -6  11  12   35.83   47.79
   5 -11 -12   98.49   50.61
   5 -11 -12  182.12   62.05
  -5  11  12  135.92   53.27
  -5  11  12   -3.28   50.52
   4 -11 -12   31.06   57.81
   4 -11 -12   57.89   46.89
  -4  11  12   47.58   42.97
  -4  11  12    6.38   48.83
   3 -11 -12  233.56   65.28
   3 -11 -12  121.17   46.70
  -3  11  12   71.79   44.79
  -3  11  12   -3.85   45.10
   2 -11 -12    8.01   60.70
   2 -11 -12   45.65   42.91
  -2  11  12   43.23   43.20
  -2  11  12  -33.35   45.70
   1 -11 -12   26.26   40.10
   1 -11 -12   13.78   62.76
   1 -11  12    9.09   40.05
  -1  11  12   15.23   43.78
   1 -11  12  -25.90   42.70
   0 -11 -12    7.82   40.88
   0 -11 -12   11.32   64.66
   0  11 -12  -35.21  111.58
   0 -11  12  -10.59   38.69
   0 -11  12  -18.57   35.81
   0  11  12  -55.96   41.53
   1  11 -12    7.84   39.60
   1  11 -12  -25.99   33.81
   1  11 -12   22.05   95.99
  -1 -11 -12  -41.94   58.94
  -1 -11 -12    8.00   41.33
  -1 -11  12   77.29   94.47
  -1 -11  12   47.99   39.73
  -1 -11  12   35.59   37.14
   1  11  12   15.78   41.72
  -1 -11  12    2.54   35.87
  -2 -11 -12  -57.54   62.78
   2  11 -12   93.69   86.84
  -2 -11 -12   47.59   42.64
  -2 -11  12    9.80   31.99
  -2 -11  12   61.06   91.03
   2  11  12   26.73   40.59
   3  11 -12   40.68   85.20
  -3 -11 -12   -2.59   58.03
   3  11 -12   59.66   46.97
   3  11  12   65.24   45.91
  -3 -11  12   86.12   96.96
  -3 -11  12  143.58   33.34
   4  11 -12   -7.23   86.07
   4  11 -12   15.53   52.76
  -4 -11  12   -3.24   92.61
  -4 -11  12  -34.77   28.03
   5  11 -12  123.78   89.01
   5  11 -12   21.91   50.30
  -5 -11  12   90.16   93.99
  -5 -11  12   18.90   29.15
   6  11 -12  113.20   56.71
   6  11 -12  123.81   91.15
  -6 -11  12   85.76   97.18
  -6 -11  12    2.14   26.64
   8  11 -12   -4.27   72.46
   9  11 -12   49.78  104.28
   9  11 -12   39.54   70.19
  -9 -11  12   -4.00  112.08
  -9 -11  12   -5.73   30.09
 -10 -11  12 -153.78  122.24
   8 -12 -12    3.45   54.82
   7 -12 -12    2.96   59.94
  -7  12  12   26.44   57.49
   4 -12 -12  -12.71   50.36
  -4  12  12  -17.81   54.94
   3 -12 -12   62.37   50.60
  -3  12  12   42.44   55.34
   2 -12 -12   38.96   48.49
  -2  12  12   38.34   50.50
   1 -12 -12   14.69   44.06
   1 -12  12  -18.87   39.05
   1 -12  12    9.53   45.00
  -1  12  12    3.43   50.20
   0 -12 -12  287.29   57.79
   0 -12  12  145.08   56.20
   0 -12  12  159.32   48.17
   0  12  12   59.36   59.06
   1  12 -12  -86.63  112.12
   1  12 -12    8.56   44.28
   1  12 -12 -108.73   40.93
  -1 -12  12 -136.09  100.75
  -1 -12  12    2.58   34.23
   2  12 -12   46.80   97.21
  -2 -12  12  -85.15   33.91
  -2 -12  12   24.84   98.25
   3  12 -12   52.75   93.76
  -3 -12 -12    2.89   60.97
   3  12 -12   48.92   57.32
  -3 -12  12 -110.48  102.20
  -3 -12  12   16.03   28.45
   4  12 -12   51.47   46.33
   4  12 -12  120.79   89.36
  -4 -12  12   97.04  100.16
  -4 -12  12   -6.60   31.33
   5  12 -12  -23.11   56.30
   5  12 -12   80.68   97.48
  -5 -12  12  181.51  105.78
  -5 -12  12   17.07   27.56
   6  12 -12   -4.25   97.27
   7  12 -12  -54.61   59.08
  -7 -12  12  -50.75   29.79
   8  12 -12   24.36   58.89
   8  12 -12  -80.12  110.97
  -8 -12  12    2.65   33.10
  -8 -12  12    7.76  110.65
   9  12 -12    4.60   69.32
   9  12 -12   53.65  114.20
  -9 -12  12  -50.16   35.68
  -9 -12  12   -4.10  119.97
  10  12 -12   78.08  115.16
 -10 -12  12   12.32  120.29
   8 -13 -12   11.43   61.32
   7 -13 -12 -108.28   58.60
   7 -13 -12  186.03   67.09
  -7  13  12   22.95   60.12
  -7  13  12  -20.77   61.19
   6 -13 -12 -104.59   65.82
   6 -13 -12   66.39   56.66
  -6  13  12  -12.53   57.19
  -6  13  12  -16.29   55.30
   5 -13 -12  150.47   59.93
   5 -13 -12  201.04   73.71
  -5  13  12  -32.60   63.80
  -5  13  12   42.25   60.37
   4 -13 -12   28.35   72.79
   4 -13 -12 -114.90   58.28
  -4  13  12  -10.15   55.43
  -4  13  12   39.98   61.74
   3 -13 -12  232.98   59.89
   3 -13 -12  -44.02   89.40
  -3  13  12  -65.58   62.49
  -3  13  12  369.10   71.17
   2 -13 -12  140.11   99.99
  -2  13  12   34.42   64.97
  -2  13  12  273.92   74.09
   1 -13 -12  329.92   60.08
   1 -13 -12  120.55   85.27
  -1  13  12   28.96   62.10
   1 -13  12   13.91   59.50
  -1  13  12  231.37   61.90
   0 -13 -12  -41.91   53.28
   0 -13 -12   36.63   74.06
   0 -13  12  -45.50   49.83
   0  13  12  -31.30   54.53
  -1 -13 -12  102.42   75.91
  -1 -13 -12   16.16   48.97
   1  13  12   -3.90   54.48
  -2 -13 -12  -16.63   55.70
   2  13 -12  121.72  109.86
  -2 -13 -12   28.64   71.00
   2  13  12   89.44   58.98
  -3 -13 -12   -6.94   48.31
  -3 -13 -12   18.69   68.03
   3  13 -12   48.00   95.67
   3  13 -12   30.36   54.82
   3  13  12  -34.64   58.88
   4  13 -12   85.52   57.30
   4  13 -12   33.83  100.90
  -4 -13  12  -15.51   28.13
  -4 -13  12   59.03  102.10
   5  13 -12   30.35  103.20
   6  13 -12  -10.62   57.74
   7  13 -12   -4.99  114.13
   7  13 -12    3.83   57.97
  -7 -13  12   32.28   32.05
  -7 -13  12   55.50  109.65
   8  13 -12   12.89   71.04
   8  13 -12  -99.99  119.65
  -8 -13  12  -58.74  120.96
  -8 -13  12  -18.95   33.67
   9  13 -12    4.85   76.59
   9  13 -12 -145.44  124.48
  -9 -13  12 -385.36  125.98
  10  13 -12   -5.25  117.10
 -10 -13  12   91.48  125.43
   8 -14 -12   -4.21   61.87
  -8  14  12  100.91   70.88
   7 -14 -12   66.71   62.23
   7 -14 -12  163.47   77.57
  -7  14  12   75.70   72.83
  -7  14  12   93.87   70.38
   6 -14 -12   34.20   58.65
   6 -14 -12   -3.36   71.01
  -6  14  12   23.46   68.80
  -6  14  12   -5.99   66.46
   5 -14 -12   38.11   64.03
   5 -14 -12   70.08   75.56
  -5  14  12   -5.92   61.44
  -5  14  12   -4.56   70.34
   4 -14 -12  -86.45   78.23
   4 -14 -12  110.00   56.29
  -4  14  12 -120.57   51.45
  -4  14  12   49.06   64.71
   3 -14 -12    3.74   61.06
   3 -14 -12    6.96   80.47
  -3  14  12   11.47   69.71
  -3  14  12   75.81   68.66
   2 -14 -12  -47.54   55.23
   2 -14 -12  131.09   90.82
  -2  14  12  -45.50   65.14
  -2  14  12   17.44   71.07
   1 -14 -12  -90.20   81.31
   1 -14 -12   25.30   58.64
  -1  14  12   60.12   69.87
  -1  14  12   43.23   63.09
   0 -14 -12  -25.35   77.71
   0  14 -12   20.14   51.86
   0 -14 -12   35.71   56.19
   0  14  12   26.21   62.33
  -1 -14 -12   17.82   83.56
  -1 -14 -12  -49.96   51.31
   1  14  12   -4.34   56.06
  -2 -14 -12   52.07   74.22
  -2 -14 -12  -87.73   56.04
   2  14  12  -31.46   58.37
  -3 -14 -12  -29.93   52.87
  -3 -14 -12   10.12   74.74
   3  14  12  -56.94   61.00
   8 -15 -12  204.47   80.31
  -8  15  12   33.11   83.36
   7 -15 -12   86.94   78.24
   7 -15 -12   38.69   65.92
  -7  15  12   75.79   75.89
  -7  15  12   48.08   71.18
   6 -15 -12  132.26   81.18
   6 -15 -12   71.12   65.09
  -6  15  12  -26.29   78.76
  -6  15  12   59.92   74.81
   5 -15 -12 -198.86   84.68
   5 -15 -12   -4.14   58.07
  -5  15  12   86.55   72.29
  -5  15  12  119.59   77.69
   4 -15 -12    4.13   68.35
   4 -15 -12   11.27   85.02
  -4  15  12   39.14   77.88
  -4  15  12   70.39   77.27
   3 -15 -12   44.71   65.37
   3 -15 -12   72.91   88.71
  -3  15  12  149.77   79.78
  -3  15  12   -5.00   78.18
   2 -15 -12  -27.22   94.07
   2 -15 -12  -92.21   63.36
  -2  15  12   38.81   73.16
  -2  15  12  -24.36   66.55
   1 -15 -12   23.74   88.69
   1 -15 -12   31.96   64.90
  -1  15  12   31.19   73.96
   1 -15  12   42.50   61.88
  -1  15  12   48.45   70.82
   0 -15 -12   -7.89   58.95
   0 -15 -12  -35.44   89.80
   0  15  12    9.73   63.37
   0  15  12   11.99   62.67
  -1 -15 -12  118.82   89.76
  -1 -15 -12   -3.94   55.41
   1  15  12  130.08   66.13
  -2 -15 -12   -4.03   60.69
  -2 -15 -12  -56.12   80.77
   2  15  12   14.90   62.33
  -3 -15 -12   52.99   62.76
  -3 -15 -12  228.64   84.77
   3  15  12   62.28   68.71
   8 -16 -12  462.66  108.08
  -8  16  12  121.69  107.61
   7 -16 -12   75.68   75.69
   7 -16 -12  -57.64   85.93
  -7  16  12   37.91   73.26
  -7  16  12  104.82   87.70
   6 -16 -12  -32.13   72.96
   6 -16 -12  108.58   86.85
  -6  16  12  -66.80   77.33
  -6  16  12   53.10   87.29
   5 -16 -12 -158.62   89.05
   5 -16 -12   22.58   67.23
  -5  16  12   59.78   80.75
  -5  16  12   74.54   87.80
   4 -16 -12  102.72   89.58
   4 -16 -12    8.97   68.79
  -4  16  12  -29.71   80.43
  -4  16  12  -73.76   83.91
   3 -16 -12    4.42   65.36
   3 -16 -12  -42.22   86.82
  -3  16  12    7.38   76.34
  -3  16  12  -61.41   79.22
   2 -16 -12   62.90   98.83
   2 -16 -12   13.15   62.95
  -2  16  12  147.46   90.94
  -2  16  12  -21.78   74.56
  -1  16 -12   -8.18   60.79
   1 -16 -12 -153.19   62.70
   1 -16 -12   21.41   95.09
  -1  16  12   21.22   78.37
  -1  16  12   43.43   66.81
   0 -16 -12  -99.88   61.47
   0 -16 -12   92.80   99.40
   0  16  12  -16.24   81.31
   0  16  12 -121.26   77.76
  -1 -16 -12    4.16   94.23
  -1 -16 -12   43.38   66.94
   1  16  12   53.57   69.73
  -2 -16 -12   66.39   68.70
  -2 -16 -12   92.90   89.82
   2  16  12  104.48   81.10
  -3 -16 -12  -44.62   60.30
  -3 -16 -12 -116.31   88.51
   3  16  12   34.23   77.80
  -4 -16 -12  222.10   97.81
   8 -17 -12 -177.30   90.75
  -8  17  12 -111.98  110.95
   7 -17 -12  -71.97   92.55
   7 -17 -12  -47.58   81.90
  -7  17  12    8.41   88.57
  -7  17  12   20.91  107.26
   6 -17 -12 -233.92  102.59
   6 -17 -12 -171.25   85.68
  -6  17  12   59.95  105.51
  -6  17  12  108.15   94.32
   5 -17 -12 -182.18   81.82
   5 -17 -12 -366.18  107.83
  -5  17  12  -58.93   97.28
  -5  17  12    6.47   94.03
   4 -17 -12  -58.25   72.40
   4 -17 -12 -202.18  106.67
  -4  17  12  -89.47   86.56
  -4  17  12   42.32   97.03
   3 -17 -12  -46.27  108.28
   3 -17 -12  105.52   74.03
  -3  17  12   16.72   94.02
  -3  17  12  -18.78   88.06
   2 -17 -12   27.61  104.63
   2 -17 -12  -67.19   70.41
  -2  17  12 -166.28   95.34
  -2  17  12   54.94   91.99
   1 -17 -12  147.20  109.38
   1 -17 -12    4.78   75.20
  -1  17  12  -12.21   86.92
  -1  17  12   -8.07   95.40
   0 -17 -12   18.34  108.31
   0 -17 -12   85.82   73.50
   0  17  12  102.42   85.56
   0  17  12   15.25   86.68
  -1 -17 -12   47.78   73.70
  -1 -17 -12   49.58  104.34
   1  17  12   53.83   76.26
   1  17  12  -79.61   83.29
  -2 -17 -12    8.74   91.93
  -2 -17 -12 -150.44   75.35
   2  17  12   18.29   78.99
  -3 -17 -12   48.92   74.02
  -3 -17 -12    4.35  101.31
   3  17  12  125.98   85.08
  -4 -17 -12  -79.88   92.25
   4  17  12  133.41   87.92
   8 -18 -12 -110.55   94.68
  -8  18  12   17.34  130.15
   7 -18 -12    5.89   85.53
  -7  18  12    9.40  100.03
  -7  18  12   72.46  116.24
   6 -18 -12  -27.77   87.96
   6 -18 -12  -53.31  105.31
  -6  18  12   38.14  118.04
  -6  18  12  -84.36  100.11
   5 -18 -12    4.80   97.26
   5 -18 -12  -75.44   80.29
  -5  18  12   22.17  112.97
  -5  18  12  -38.07  107.45
   4 -18 -12   48.63  110.10
   4 -18 -12    5.26   83.18
  -4  18  12   -7.23  100.37
  -4  18  12   48.09  102.46
   3 -18 -12  145.97   83.78
   3 -18 -12 -141.02  111.94
  -3  18  12  -56.77   98.93
  -3  18  12 -125.77  101.90
   2 -18 -12 -296.85  108.71
   2 -18 -12 -109.92   81.87
  -2  18  12 -102.90  104.42
  -2  18  12   68.49   92.96
   1 -18 -12 -364.03   91.99
   1 -18 -12  -69.77  128.02
  -1  18  12  -36.58  111.63
  -1  18  12  -27.51   99.35
   0 -18 -12 -152.13   83.93
   0  18  12  -25.79  107.35
   0  18  12  107.38  103.95
  -1 -18 -12 -236.82   88.15
  -1 -18 -12 -346.61  119.74
   1  18  12 -140.10   96.21
   1  18  12 -195.26   98.33
  -2 -18 -12 -214.02   84.35
  -2 -18 -12 -229.02  118.73
   2  18  12  -54.24   90.64
   2  18  12   15.83   92.59
  -3 -18 -12  -66.14  108.30
  -3 -18 -12   75.35   73.01
   3  18  12 -125.52  100.65
  -4 -18 -12  291.54  114.33
   4  18  12   44.11   97.09
   5 -19 -12   94.22   89.62
  -5  19  12   67.78  119.95
   4 -19 -12 -120.39   88.11
  -4  19  12  122.69  117.38
  -4  19  12  262.00  118.00
   3 -19 -12 -176.21   87.48
   3 -19 -12  -43.44  121.25
  -3  19  12   15.75  105.54
  -3  19  12   10.75  123.50
   2 -19 -12   62.73   88.26
   2 -19 -12    5.50  126.42
  -2  19  12  -30.94  107.80
  -2  19  12  -10.52  115.63
   1 -19 -12  -96.84   87.58
   1 -19 -12  -53.60  122.86
  -1  19  12 -112.57  112.08
  -1  19  12  -84.88  104.00
   0 -19 -12 -222.21  123.14
   0 -19 -12    5.73   81.24
   0  19  12   -9.80  116.64
   0  19  12  -67.62  104.27
  -1 -19 -12  129.58  120.69
  -1 -19 -12  -23.19   80.08
   1  19  12   37.28  105.17
   1  19  12   -9.25  106.61
  -2 -19 -12    5.88   86.45
   2  19  12  -68.05  103.07
  -3 -19 -12  -94.80   88.32
   3  19  12   93.17  100.60
   0   0 -13   35.90   50.80
   0   0  13    6.56   22.54
   0   1 -13  718.04  155.20
   1   0 -13  758.54  149.35
  -1   0  13  635.09  162.63
   0   1  13  693.32  131.32
   0  -1  13  676.77  131.20
   1   1 -13   -6.99   44.40
   1  -1 -13   -2.24   43.48
   1  -1 -13   -8.22   14.99
  -1   1  13   -4.65   17.56
  -1   1  13  -30.92   53.60
  -1  -1  13  -14.18   54.12
  -1  -1  13    1.73   18.26
   2   1 -13  112.32   45.76
   1  -2 -13   -2.27   43.34
   1  -2 -13   81.96   27.43
  -2  -1  13   80.09   23.69
  -2  -1  13   74.81   59.71
  -1   2  13   60.98   22.99
   2   0 -13    9.66   11.90
   2   0 -13  -33.21   35.91
   0   2 -13  -30.18   56.49
  -2   0  13    2.10   53.77
   0   2  13   15.72   22.75
  -2   0  13    3.00   16.36
   0  -2  13    6.69   22.43
   0  -2  13   33.59   62.75
   2  -1 -13   97.78   26.00
   2  -1 -13   62.44   42.37
   1   2 -13  161.98   50.62
  -2   1  13   62.42   56.91
  -1  -2  13   68.79   62.81
  -2   1  13  110.85   24.19
  -1  -2  13  102.02   27.14
   2  -2 -13    9.42   19.64
   2   2 -13   23.69   43.99
   2  -2 -13  146.25   38.36
  -2  -2  13  -55.55   59.98
  -2   2  13    7.81   15.81
  -2   2  13  157.05   51.94
  -2  -2  13  -17.04   20.46
   3   2 -13  -70.77   46.95
  -2   3  13   -1.21   15.18
  -3  -2  13    1.63   18.69
  -3  -2  13  -88.38   65.72
   3   1 -13   13.68   40.66
   1  -3 -13    2.26   26.61
  -3  -1  13  -13.70   17.75
  -3  -1  13  -10.70   53.61
   0   3 -13   58.52   58.71
   3   0 -13  -33.06   39.22
  -3   0  13  -30.39   52.27
  -3   0  13   -1.43   16.06
   0  -3  13    5.72   67.24
   3  -1 -13   -4.34   12.57
   3  -1 -13   13.74   35.33
   1   3 -13  -25.30   52.94
  -3   1  13    4.05    7.90
  -1  -3  13    7.70   64.16
  -3   1  13  -15.35   53.65
  -3   1  13   16.02   14.43
  -1  -3  13   -1.90   21.93
   3  -2 -13  -74.96   20.03
   2   3 -13  -61.72   48.29
  -2  -3  13   14.48   21.96
  -3   2  13 -145.65   67.78
  -3   2  13    3.73   16.30
  -2  -3  13   63.45   67.30
  -3   2  13    1.55   11.45
  -2  -3  13    3.26    8.88
   3  -3 -13   37.81   32.77
   3   3 -13  -86.24   50.92
  -3   3  13  -32.53   16.73
  -3   3  13  -67.81   16.81
  -3  -3  13   -6.96   19.25
  -3  -3  13 -107.93   67.89
  -3   3  13  -27.07   16.00
   3  -4 -13   81.07   23.74
   4   3 -13   58.64   45.75
   4   3 -13   95.67   38.31
  -4  -3  13   72.63   63.63
  -3   4  13   69.76   20.97
  -4  -3  13   93.67   23.85
   4   2 -13   81.19   35.74
   4   2 -13  155.61   48.08
  -4  -2  13  108.87   60.37
  -4  -2  13  115.68   27.04
   4   1 -13    1.94   27.70
   4   1 -13  -65.14   43.71
  -4  -1  13 -198.16   71.13
  -4  -1  13    7.23   16.45
   4   0 -13  155.63   38.28
   0   4 -13   92.46   71.54
   4   0 -13  229.77   52.09
   0  -4  13   22.12   30.74
   0  -4  13   76.67   78.15
  -4   0  13   38.97   23.68
  -4   0  13  238.24   65.37
   4  -1 -13  -24.97   24.00
   4  -1 -13   38.29   12.57
   1   4 -13   -2.66   58.92
   4  -1 -13   11.93   43.00
  -1  -4  13  -29.54   70.30
  -4   1  13  -41.17    9.93
  -4   1  13 -183.96   70.26
  -1  -4  13  -25.83   23.26
  -4   1  13  -13.91   16.60
   4  -2 -13  100.17   24.25
   4  -2 -13   75.02   21.54
   4  -2 -13   34.82   30.51
   2   4 -13   51.19   50.23
   4  -2 -13   89.45   40.79
  -4   2  13   90.99   23.73
  -4   2  13  111.82   19.40
  -2  -4  13   -1.92   29.93
  -2  -4  13   77.33   65.30
  -4   2  13   89.63   54.26
  -2  -4  13   80.70   21.04
  -4   2  13  141.34   22.09
   4  -3 -13   68.17   26.69
   3   4 -13   30.63   52.66
   4  -3 -13   70.37   37.46
   4  -3 -13  112.50   22.29
   4  -3 -13   74.21   26.91
  -4   3  13  111.10   21.18
  -4   3  13   72.45   19.60
  -4   3  13   41.41   22.96
  -4   3  13  155.78   53.14
  -3  -4  13  152.05   63.49
   4   4 -13    2.31   47.27
   4  -4 -13   -5.89   16.42
   4  -4 -13    9.47   18.20
  -4   4  13   -1.02   14.92
  -4   4  13   10.79   13.07
  -4  -4  13   34.61   63.41
   4  -5 -13  463.60   94.18
   4  -5 -13  482.15   89.39
   5   4 -13  193.48  103.52
  -4   5  13  452.04   80.43
  -5  -4  13  362.23  113.23
  -4   5  13  478.69   89.44
   3  -5 -13 1254.45  288.99
   5   3 -13 1394.94  288.36
   3  -5 -13 1545.73  271.65
  -3   5  13 1409.01  248.32
  -3   5  13 1269.68  264.93
  -3   5  13 1424.31  307.94
  -5  -3  13 1189.86  293.87
   5   2 -13  390.27   78.61
   5   2 -13  220.86   84.68
   2  -5 -13  316.32   71.36
   2  -5 -13  256.73   78.99
   2  -5 -13  411.79   84.24
  -2   5  13  344.60   65.28
  -5  -2  13  346.66   95.32
  -2   5  13  351.66   64.68
  -2   5  13  361.05   91.49
  -5  -2  13  383.96   64.92
   1  -5 -13  330.06   68.96
   1  -5 -13  297.98   61.31
   5   1 -13  361.78   65.67
   5   1 -13  214.09   72.10
  -5  -1  13  213.15   54.80
  -5  -1  13  246.57   82.96
  -1   5  13  331.00   55.84
  -1   5  13  309.24   55.49
   5   0 -13  936.12  184.38
   0  -5 -13  997.31  187.47
   0   5 -13  735.09  199.64
  -5   0  13  903.44  194.94
   0  -5  13  979.33  168.71
   0   5  13  911.28  168.71
  -5   0  13  694.35  161.02
   0  -5  13 1076.12  215.91
   5  -1 -13  254.75   61.34
   5  -1 -13  384.34   68.63
   1   5 -13  264.57   82.56
  -1  -5 -13  166.57   59.74
  -5   1  13  255.63   50.23
  -1  -5  13  264.80   93.79
  -1  -5  13  168.53   54.09
  -5   1  13  294.22   78.53
  -1  -5  13  295.38   55.59
   2   5 -13  266.75   89.12
   5  -2 -13  409.50   69.43
   5  -2 -13  316.97   81.10
   5  -2 -13  340.70   75.58
  -5   2  13  353.98   63.88
  -2  -5  13  333.11  103.81
  -2  -5  13  320.63   68.13
  -5   2  13  277.09   88.86
   5  -3 -13 1639.98  292.11
   3   5 -13 1711.40  296.05
   5  -3 -13 1354.80  279.30
  -3  -5  13 1221.76  307.20
  -5   3  13 1413.66  258.96
  -3  -5  13 1346.79  257.77
  -5   3  13 1229.24  297.91
   4   5 -13  223.14  109.90
   5  -4 -13  493.67   96.67
   4   5 -13  344.61  103.74
   5  -4 -13  550.63  100.48
  -4  -5  13  402.21  118.60
  -5   4  13  571.76  107.85
  -4  -5  13  550.79   86.16
  -5   4  13  429.40   87.12
   5   5 -13    2.50   36.14
   5   5 -13   -7.30   48.39
   5  -5 -13   -1.37   32.42
   5  -5 -13    2.49   27.90
   5  -5 -13  -29.72   20.97
   5  -5 -13   -9.72   24.06
  -5   5  13  178.05   49.84
  -5   5  13   -6.83   21.08
  -5   5  13  -10.92   15.38
  -5  -5  13  -21.50   18.92
  -5   5  13   -2.25   25.25
  -5  -5  13   23.53   72.08
   6   5 -13  174.21   63.83
   5  -6 -13  252.10   43.71
   6   5 -13  118.89   50.37
   5  -6 -13  179.32   47.23
  -6  -5  13  150.42   85.59
  -6  -5  13  169.40   37.45
  -5   6  13  143.53   45.65
  -5   6  13  175.77   40.51
   4  -6 -13   13.38   24.52
   4  -6 -13   39.36   32.69
   6   4 -13    2.37   48.47
  -4   6  13   40.19   23.85
  -4   6  13   23.10   22.32
  -6  -4  13   -5.04   64.57
   3  -6 -13  314.26   62.54
   6   3 -13  230.95   65.44
   3  -6 -13  242.90   55.43
  -3   6  13  243.30   54.62
  -6  -3  13  252.86   50.01
  -3   6  13  236.60   51.20
  -6  -3  13  279.74   84.10
   6   2 -13  190.86   52.63
   2  -6 -13  146.57   51.92
   2  -6 -13  191.23   44.31
  -6  -2  13  169.46   38.82
  -6  -2  13  196.08   71.07
  -2   6  13  220.60   40.07
   1  -6 -13  747.88  162.31
   1  -6 -13  788.48  151.85
  -1   6  13  829.02  140.93
  -6  -1  13  722.26  167.49
  -1   6  13  766.96  139.65
   0   6 -13  -17.70   73.12
   6   0 -13   11.45   28.35
   0  -6 -13   21.25   25.10
   0  -6 -13   -9.03   38.86
   0   6  13   -7.23   20.64
   0  -6  13   -9.05   26.67
   0   6  13   -1.76   21.83
  -6   0  13   -1.41   16.65
  -6   0  13  -12.46   52.30
   0  -6  13   -3.16   79.87
  -1  -6 -13  704.02  153.15
  -6   1  13  594.14  133.92
  -6   1  13  777.46  162.67
  -1  -6  13  914.05  181.06
   6  -2 -13  162.32   48.20
   2   6 -13  287.27   69.73
  -6   2  13  222.99   39.63
  -2  -6  13   77.72   85.46
  -6   2  13  248.34   67.67
  -2  -6  13  153.40   44.36
   3   6 -13  155.80   82.27
  -3  -6  13  297.34   57.93
  -6   3  13  357.31   55.57
  -6   3  13  303.52   78.77
  -3  -6  13  287.98   95.93
   4   6 -13  -15.99   54.32
   6  -4 -13    9.43   25.09
   4   6 -13  -31.92   41.34
  -4  -6  13   25.40   24.22
  -6   4  13   21.59   16.06
  -4  -6  13   79.68   76.78
  -6   4  13   45.96   51.16
   5   6 -13  178.28   65.50
   5   6 -13  155.25   51.86
   6  -5 -13  178.53   42.35
  -5  -6  13   67.96   34.99
  -5  -6  13  221.33   86.91
  -6   5  13  245.55   59.44
   6   6 -13    5.29   56.06
   6   6 -13    8.13   38.54
   6  -6 -13  -18.17   30.43
  -6   6  13    8.70   28.65
  -6  -6  13   -5.55   22.41
  -6  -6  13   22.69   75.87
   6  -7 -13  199.09   55.61
   7   6 -13  199.28   64.09
   6  -7 -13  213.10   52.99
  -7  -6  13  250.19   45.72
  -7  -6  13  126.89   95.91
  -6   7  13  208.44   52.81
   7   5 -13   13.59   44.77
   5  -7 -13   -1.91   31.93
   5  -7 -13   58.28   36.72
  -7  -5  13   52.32   78.14
  -7  -5  13   11.25   23.00
  -5   7  13   44.40   28.17
  -5   7  13   14.00   31.00
   4  -7 -13  852.52  181.18
   4  -7 -13  823.04  173.60
  -4   7  13  920.22  172.79
  -7  -4  13  801.72  193.41
  -4   7  13  836.73  157.32
   3  -7 -13  329.68   80.83
   3  -7 -13  211.88   73.74
   7   3 -13  349.71   81.28
  -7  -3  13  384.33   66.71
  -3   7  13  317.43   72.86
  -7  -3  13  398.80   99.84
  -3   7  13  446.85   68.45
   7   2 -13  208.92   69.98
   2  -7 -13  241.62   71.33
   2  -7 -13  244.79   61.80
  -7  -2  13  262.47   55.00
  -2   7  13  366.57   56.62
  -7  -2  13  304.41   87.31
   7   1 -13   33.43   35.21
   1  -7 -13   76.14   26.23
   1  -7 -13  100.91   43.39
  -7  -1  13   87.71   60.55
  -7  -1  13   33.19   21.98
  -1   7  13   84.83   27.00
   0  -7 -13  812.64  144.57
   0  -7 -13  773.49  156.61
   0   7 -13  753.14  169.59
   7   0 -13  472.72  150.30
  -7   0  13  738.68  132.59
   0  -7  13  871.63  136.76
   0  -7  13  410.36  184.14
   0   7  13  773.37  132.65
  -7   0  13  713.17  162.55
   7  -1 -13   28.37   32.47
   1   7 -13   48.04   68.47
  -1  -7 -13   51.27   40.26
  -1  -7  13   -1.48   20.54
   1   7  13   21.76   26.51
  -1  -7  13   49.30   28.37
  -7   1  13    8.56   57.14
  -1  -7  13    9.32   81.63
  -7   1  13   93.06   21.13
   7  -2 -13  262.82   70.36
   2   7 -13  219.88   89.41
  -7   2  13  301.14   85.76
  -2  -7  13  455.49  105.93
  -2  -7  13  333.02   63.60
  -7   2  13  357.55   61.07
   7  -3 -13  338.61   79.91
   3   7 -13  311.79   98.56
  -7   3  13  402.68   94.99
  -3  -7  13  411.73   71.51
  -3  -7  13  309.10  109.92
   4   7 -13  863.04  188.32
   4   7 -13  670.30  193.14
  -4  -7  13  949.43  199.91
  -7   4  13  849.01  190.43
  -4  -7  13  973.84  159.77
   5   7 -13   -8.55   62.79
   5   7 -13    2.77   45.93
  -5  -7  13   40.22   81.19
  -7   5  13   34.89   55.63
  -5  -7  13  -11.82   21.05
   6   7 -13  114.27   72.10
   7  -6 -13  192.69   45.98
   6   7 -13   91.32   55.86
  -6  -7  13  201.51   40.03
  -6  -7  13   20.90   94.05
   7   7 -13   -3.02   66.44
   7   7 -13    2.98   48.39
   7  -7 -13   -4.16   32.77
  -7  -7  13   16.31   24.96
  -7  -7  13 -115.45   84.37
   7  -8 -13   13.73   39.30
   8   7 -13    3.26   52.27
  -8  -7  13    3.33   93.05
  -8  -7  13   72.71   29.97
   6  -8 -13   80.36   41.93
   8   6 -13   12.49   52.63
   6  -8 -13  134.28   44.40
  -6   8  13   82.59   40.99
  -6   8  13   80.12   36.91
  -8  -6  13  115.97   30.82
  -8  -6  13   92.21   87.76
   8   5 -13  395.99   87.54
   5  -8 -13  352.80   78.72
   5  -8 -13  306.26   73.60
  -5   8  13  295.18   66.74
  -8  -5  13  284.92   63.34
  -5   8  13  149.15   72.38
   8   4 -13   -2.88   44.42
   4  -8 -13  -28.13   40.56
   4  -8 -13    6.14   32.05
  -4   8  13   -5.50   24.28
  -8  -4  13   14.36   77.83
  -4   8  13   19.04   30.03
   3  -8 -13  621.18  129.95
   3  -8 -13  780.22  139.24
   8   3 -13  645.83  139.45
  -8  -3  13  671.26  118.55
  -3   8  13  491.00  119.19
  -3   8  13  561.21  127.56
  -8  -3  13  680.02  156.17
   2  -8 -13   35.17   44.25
   2  -8 -13   73.09   32.56
   8   2 -13   39.74   37.94
  -8  -2  13   90.37   26.55
  -2   8  13   92.23   31.09
  -8  -2  13  107.57   68.37
   8   1 -13  340.98  100.79
   1  -8 -13  344.35  106.19
   1  -8 -13  422.36   93.75
  -8  -1  13  487.59  115.46
  -1   8  13  547.47   87.65
  -8  -1  13  499.89   85.20
   0  -8 -13   13.77   29.84
   0   8 -13  -12.48   85.05
   0  -8 -13   11.12   47.24
   8   0 -13   -7.40   35.88
   0  -8  13  -10.28   87.01
  -8   0  13   11.20   20.91
   0   8  13   28.44   28.72
   0  -8  13   -2.04   30.68
  -8   0  13   18.70   64.10
   0  -8  13   -2.43   24.22
  -1  -8 -13  590.72   97.61
   8  -1 -13  440.25  104.08
  -1  -8 -13  571.02  107.69
   1   8 -13  515.37  122.27
  -8   1  13  549.65  116.89
  -1  -8  13  395.91   94.67
  -1  -8  13  472.52  136.29
   1   8  13  335.89   91.01
  -1  -8  13  418.82   91.80
  -2  -8 -13   52.84   39.95
   2   8 -13   26.33   72.55
  -8   2  13  109.15   64.69
  -2  -8  13  101.24   31.61
  -2  -8  13   31.94   87.19
   3   8 -13  647.73  149.86
  -3  -8  13  843.98  162.43
  -8   3  13  655.61  148.69
  -3  -8  13  525.35  121.96
   4   8 -13  -27.99   68.51
   4   8 -13   85.78   48.38
  -4  -8  13   12.95   27.69
  -4  -8  13  101.18   84.85
  -8   4  13   23.42   59.06
   5   8 -13  241.02   86.29
   5   8 -13  329.18  101.27
  -5  -8  13  359.36   67.85
  -8   5  13  397.08   94.10
   6   8 -13   56.15   72.59
   6   8 -13   21.02   50.56
  -6  -8  13  240.02   92.30
  -6  -8  13   60.72   28.52
   7   8 -13  -19.39   72.00
   7   8 -13    6.24   50.10
  -7  -8  13   23.39   24.39
  -7  -8  13   16.58   90.19
   8  -8 -13  -11.66   38.29
  -8  -8  13    3.54   98.05
   9   8 -13 -163.02   61.12
   8  -9 -13   12.80   41.77
  -9  -8  13   33.84   34.24
   7  -9 -13   63.71   42.35
  -7   9  13   33.34   38.28
   6  -9 -13   32.22   43.69
   9   6 -13   -3.58   45.82
   6  -9 -13   50.63   40.52
  -6   9  13   33.87   38.27
  -9  -6  13 -130.37   93.11
  -6   9  13   45.32   38.56
  -9  -6  13   -2.43   25.65
   5  -9 -13   92.20   47.34
   9   5 -13   -3.44   53.46
   5  -9 -13   26.70   41.44
  -5   9  13  -20.38   37.56
  -9  -5  13  103.45   30.73
  -5   9  13   20.66   37.95
  -9  -5  13   39.60   92.11
   4  -9 -13  494.93  107.50
   4  -9 -13  634.47  115.26
   9   4 -13  327.00  117.12
  -4   9  13  528.06  106.37
  -9  -4  13  347.62  135.34
  -4   9  13  424.51   96.87
  -9  -4  13  398.29   94.12
   3  -9 -13   63.73   40.15
   9   3 -13   79.59   55.72
   3  -9 -13  148.66   54.91
  -3   9  13   43.71   37.69
  -9  -3  13  104.00   79.42
  -9  -3  13   62.39   28.78
  -3   9  13   31.24   35.33
   9   2 -13  334.80   86.50
   2  -9 -13  355.46   89.07
   2  -9 -13  338.03   75.77
  -2   9  13  292.23   71.57
  -9  -2  13  350.77  102.45
   1  -9 -13   53.34   54.28
   1  -9 -13   35.18   31.84
   9   1 -13   71.64   42.87
  -1   9  13    9.75   32.23
   1  -9  13   -2.91   36.56
  -9  -1  13  107.96   69.98
   0   9 -13  235.14  134.66
   0  -9 -13  537.80  112.23
   0  -9 -13  567.49   96.85
   0   9  13  379.71   89.28
   0  -9  13  448.64  141.60
  -9   0  13  432.73  117.53
   0  -9  13  503.83   96.35
   0  -9  13  392.37   91.36
   1   9 -13   22.53   80.95
  -1  -9 -13   51.33   51.72
  -1  -9 -13   46.20   32.61
  -9   1  13    7.51   67.30
  -1  -9  13   47.28   33.10
  -1  -9  13  -23.92   89.16
   1   9  13   15.77   32.61
   2   9 -13  371.57  113.28
  -2  -9 -13  370.02   86.38
  -2  -9  13  367.71   73.53
  -2  -9  13  313.28  121.07
   3   9 -13    3.36   77.92
  -3  -9  13  197.93   93.22
  -3  -9  13   24.24   32.53
   4   9 -13  579.14  154.32
   4   9 -13  714.60  143.59
  -4  -9  13  765.51  124.42
  -4  -9  13  807.15  162.81
   5   9 -13   21.26   51.16
   5   9 -13   33.60   74.78
  -5  -9  13  164.88   94.45
  -5  -9  13   58.16   27.93
   6   9 -13  -33.92   76.61
   6   9 -13    6.27   54.19
  -6  -9  13  -16.18   89.83
  -6  -9  13    4.21   25.90
   7   9 -13   52.78   80.70
   7   9 -13  113.96   55.95
  -7  -9  13  170.76   34.64
  -7  -9  13   34.67  102.57
   9   9 -13  312.06  102.83
  -9  -9  13  756.24  146.87
  10   9 -13    4.63   72.13
 -10  -9  13    8.49  123.70
  10   8 -13  124.27   80.98
   8 -10 -13  128.13   59.14
 -10  -8  13  589.30  133.47
   7 -10 -13    2.79   44.68
  10   7 -13   17.08   62.96
  -7  10  13   26.94   42.95
 -10  -7  13  107.35  103.61
  10   6 -13   -4.11   67.18
   6 -10 -13  203.85   52.86
   6 -10 -13  122.62   57.36
  -6  10  13  122.69   47.56
  -6  10  13  173.06   54.06
   5 -10 -13  183.93   52.36
   5 -10 -13  111.39   58.06
  -5  10  13  145.37   46.65
  -5  10  13  100.83   50.58
   4 -10 -13   21.06   53.33
   4 -10 -13  123.66   46.13
  -4  10  13   11.13   39.48
  -4  10  13   56.76   42.65
   3 -10 -13  292.36   77.41
   3 -10 -13  506.74   89.33
  -3  10  13  267.27   72.55
  -3  10  13  269.58   76.25
   2 -10 -13    2.38   35.98
   2 -10 -13   44.55   56.23
  -2  10  13   -5.39   34.57
  -2  10  13  -19.99   36.09
   1 -10 -13   -2.33   33.41
   1 -10 -13   43.83   58.31
  -1  10  13  -22.06   39.65
   1 -10  13   15.30   37.24
   1 -10  13   33.55   39.70
   0  10 -13   41.80  107.90
   0 -10 -13   30.64   36.38
   0 -10 -13    5.31   57.06
   0 -10  13  -37.79   31.67
   0 -10  13   14.83   34.96
   0  10  13  -24.99   38.53
  -1 -10 -13  -52.45   38.04
   1  10 -13   33.28   91.18
  -1 -10 -13   10.54   56.94
   1  10  13  -20.40   38.55
  -1 -10  13   -2.61   33.78
  -1 -10  13  103.62   95.88
   2  10 -13   72.66   83.48
  -2 -10 -13    2.49   53.14
  -2 -10  13  100.43   94.40
  -2 -10  13   18.00   32.73
   2  10  13   18.89   40.85
   3  10 -13  353.96  105.55
  -3 -10  13  204.65  118.74
  -3 -10  13  306.26   67.12
   4  10 -13  182.55   82.58
   4  10 -13   77.84   57.07
  -4 -10  13  104.34   35.99
  -4 -10  13  104.07   96.27
   5  10 -13   95.56   90.02
   5  10 -13  106.75   55.58
  -5 -10  13  182.99   39.86
  -5 -10  13  189.46   98.22
   6  10 -13  119.46   88.65
   6  10 -13   45.95   62.93
  -6 -10  13  368.67  104.72
  -6 -10  13  150.66   37.00
   8  10 -13    3.74   59.24
  -8 -10  13   -3.88  105.23
  -8 -10  13    2.55   32.48
   9  10 -13    4.24   68.25
   9  10 -13   -4.35   92.87
  -9 -10  13    5.60   32.81
  -9 -10  13   -4.12  113.86
  10  10 -13    4.83   72.85
 -10 -10  13   -4.27  114.99
   8 -11 -13   -3.08   50.64
   7 -11 -13  -12.18   49.90
  -7  11  13  -12.50   44.52
  -7  11  13   58.39   51.86
   6 -11 -13  -41.27   59.19
   6 -11 -13   24.05   48.52
  -6  11  13  -12.91   48.55
  -6  11  13  -45.17   49.56
   5 -11 -13   71.90   50.82
   5 -11 -13   10.23   57.03
  -5  11  13   16.11   47.20
  -5  11  13  -17.05   45.61
   4 -11 -13   14.64   46.33
   4 -11 -13   31.20   55.98
  -4  11  13   44.28   41.48
  -4  11  13   85.04   47.50
   3 -11 -13 -125.93   61.24
   3 -11 -13  -22.45   45.47
  -3  11  13  -25.06   43.74
  -3  11  13    3.93   43.37
   2 -11 -13   45.62   45.78
   2 -11 -13  -70.62   65.15
  -2  11  13  -55.11   44.79
  -2  11  13    7.68   43.01
   1 -11 -13 -149.75   62.76
   1 -11 -13   15.75   40.98
   1 -11  13   -3.27   41.06
   1 -11  13   79.43   46.07
  -1  11  13   12.42   41.56
   0 -11 -13   63.75   66.00
   0 -11 -13   55.08   40.25
   0  11  13  -24.98   40.41
   0 -11  13   13.52   41.43
   0 -11  13    2.85   37.47
   1  11 -13   14.03  101.88
  -1 -11 -13   71.15   64.12
  -1 -11 -13    8.21   39.91
  -1 -11  13   78.39  102.83
  -1 -11  13    2.72   35.77
   1  11  13   -3.24   40.36
  -2 -11 -13  145.48   55.58
   2  11 -13   74.17   92.73
  -2 -11 -13   74.20   42.56
   2  11  13   20.75   43.80
  -2 -11  13  162.69  107.42
  -2 -11  13  -21.27   34.62
   3  11 -13   37.11   58.70
   3  11 -13   -4.00   83.70
  -3 -11  13    3.56  105.61
  -3 -11  13    7.47   33.25
   4  11 -13  -16.81   50.94
   4  11 -13   50.06   87.76
  -4 -11  13   91.99   33.00
  -4 -11  13  -62.48  101.51
   5  11 -13   72.32   54.11
   5  11 -13  -23.77   89.67
  -5 -11  13  163.60  104.37
  -5 -11  13   31.84   29.21
   6  11 -13   -4.10   95.12
   7  11 -13    3.58   56.98
  -7 -11  13    2.41   31.74
   8  11 -13    4.45  103.56
   8  11 -13    3.92   62.36
  -8 -11  13   31.92  111.71
  -8 -11  13    7.96   33.63
   9  11 -13    4.44   73.25
   9  11 -13    4.66  103.75
  -9 -11  13    2.90   34.65
  -9 -11  13   17.03  122.52
  10  11 -13   15.18   79.90
 -10 -11  13 -166.01  124.81
   9 -12 -13   59.99   55.17
   8 -12 -13   13.49   54.96
   7 -12 -13  -79.67   62.76
  -7  12  13    5.28   51.84
   3 -12 -13   68.54   51.11
  -3  12  13   -3.54   50.18
   2 -12 -13   36.08   49.01
  -2  12  13   31.14   53.41
   1 -12 -13   -2.94   46.51
  -1  12  13   -3.49   47.16
   1 -12  13   80.51   47.38
   1 -12  13   48.05   46.55
   0 -12  13  -32.85   39.95
   1  12 -13  192.45  123.31
  -1 -12  13   30.73   33.35
  -1 -12  13  152.58  112.32
   2  12 -13   58.02   97.90
  -2 -12 -13    2.96   61.31
  -2 -12  13   89.81   37.45
  -2 -12  13  -60.33  108.61
  -3 -12 -13 -124.13   64.82
   3  12 -13   10.40   54.17
   3  12 -13  -98.75   98.28
  -3 -12  13   73.53  105.89
  -3 -12  13  -10.10   30.73
   4  12 -13   24.06   55.72
   4  12 -13   12.52   96.09
  -4 -12  13    2.41   32.47
  -4 -12  13 -215.44  114.50
   5  12 -13  110.66  104.37
  -5 -12  13   -3.61  109.93
   6  12 -13    3.55   59.05
   7  12 -13   63.88   62.16
   7  12 -13  183.66  110.52
  -7 -12  13    2.49   33.20
  -7 -12  13   -3.81  108.73
   8  12 -13   -4.12   68.73
   8  12 -13  118.48  115.43
  -8 -12  13   48.64  123.10
  -8 -12  13   32.77   34.99
   9  12 -13    4.65   68.31
   9  12 -13  -91.52  114.70
  -9 -12  13   -3.00   37.68
  -9 -12  13  120.99  130.91
  10  12 -13  -20.40  119.94
 -10 -12  13    4.44  131.79
   9 -13 -13    3.94   61.49
   8 -13 -13  -66.58   61.72
  -8  13  13   15.50   58.49
   7 -13 -13  107.25   58.90
   7 -13 -13    6.39   66.12
  -7  13  13   22.98   59.86
  -7  13  13   -3.98   59.67
   6 -13 -13   17.73   54.55
   6 -13 -13    3.07   67.34
  -6  13  13  -44.47   53.33
  -6  13  13  -93.28   58.08
   5 -13 -13  -10.73   59.60
   5 -13 -13   15.33   69.20
  -5  13  13  -26.73   61.97
  -5  13  13   12.02   61.17
   4 -13 -13    6.36   73.80
   4 -13 -13  -74.46   59.32
  -4  13  13  -41.36   61.47
  -4  13  13   59.62   60.11
   3 -13 -13 -120.32   54.68
   3 -13 -13  -22.22   74.66
  -3  13  13   -3.98   67.90
  -3  13  13   36.30   52.83
   2 -13 -13   66.87   55.30
   2 -13 -13 -122.16   79.96
  -2  13  13   38.91   61.83
  -2  13  13  -45.73   55.38
   1 -13 -13   44.34   81.93
   1 -13 -13  -65.63   49.60
   1 -13  13    3.66   56.19
  -1  13  13   27.46   55.55
  -1  13  13  -80.21   59.52
   0 -13 -13   10.21   79.42
   0 -13 -13    3.25   49.52
   0  13  13  -11.74   53.58
   1  13 -13    6.27  142.20
  -1 -13 -13    6.70   75.64
  -1 -13 -13    3.29   48.98
   1  13  13  -11.93   53.04
  -2 -13 -13  236.79   74.71
  -2 -13 -13  -33.88   50.94
   2  13 -13   24.73  113.17
  -2 -13  13    7.85  114.21
  -2 -13  13   10.77   34.68
   2  13  13   29.26   56.22
   3  13 -13   92.33  103.61
   3  13 -13  235.71   56.43
  -3 -13 -13   -9.16   69.64
  -3 -13  13   68.12  107.77
  -3 -13  13   32.70   32.25
   3  13  13  -53.66   57.01
   4  13 -13   -4.54  102.58
   5  13 -13   -3.63   59.58
   6  13 -13    4.89  114.41
   6  13 -13    7.40   61.25
  -6 -13  13    3.81  117.64
  -6 -13  13  -57.31   31.08
   7  13 -13   15.78   64.52
   7  13 -13    5.22  114.84
  -7 -13  13  -10.33   33.93
  -7 -13  13 -408.91  115.95
   8  13 -13  -49.68  143.13
   8  13 -13   52.05   72.82
  -8 -13  13 -384.30  126.57
  -8 -13  13    2.80   37.18
   9  13 -13    5.63  128.59
   9  13 -13   -4.89   72.09
  -9 -13  13    6.17   37.79
  -9 -13  13   65.40  125.25
  10  13 -13  115.96  131.20
 -10 -13  13    4.45  130.17
  -9  14  13  170.96   73.32
   8 -14 -13   -4.04   65.18
  -8  14  13   48.45   63.28
   7 -14 -13  123.62   62.51
   7 -14 -13   -6.93   70.45
  -7  14  13   25.13   66.87
  -7  14  13  -98.93   62.39
   6 -14 -13   77.69   61.63
   6 -14 -13  -80.53   73.65
  -6  14  13  -30.38   69.26
  -6  14  13   17.83   63.87
   5 -14 -13   89.16   63.79
   5 -14 -13  100.66   77.25
  -5  14  13   62.25   71.07
  -5  14  13   30.05   70.20
   4 -14 -13  -34.89   77.02
   4 -14 -13   42.49   62.83
  -4  14  13   17.61   66.21
  -4  14  13   49.13   67.98
   3 -14 -13   11.31   55.48
   3 -14 -13    7.03   82.26
  -3  14  13   62.20   69.38
  -3  14  13   11.80   64.67
   2 -14 -13   11.12   54.82
   2 -14 -13   84.06   83.63
  -2  14  13    5.88   69.38
  -2  14  13  -82.86   68.06
   1 -14 -13  191.48   88.28
   1 -14 -13   10.90   58.12
  -1  14  13   -5.67   63.16
  -1  14  13  123.26   60.99
   0 -14 -13   22.14   86.26
   0 -14 -13   25.29   52.06
   0  14  13   21.86   61.66
  -1 -14 -13  -75.95   85.37
  -1 -14 -13 -119.84   57.09
   1  14  13   -4.42   58.64
  -2 -14 -13   41.85   82.50
  -2 -14 -13   37.07   53.07
   2  14  13   41.54   62.30
  -3 -14 -13    3.31   69.75
   3  14  13   -4.90   60.97
   9  14 -13    5.15   76.13
   8 -15 -13   -4.42   64.67
  -8  15  13  -25.22   69.18
   7 -15 -13 -139.32   80.60
   7 -15 -13 -262.70   70.18
  -7  15  13  -80.96   78.59
  -7  15  13  138.35   75.88
   6 -15 -13  -80.67   80.81
   6 -15 -13 -227.86   71.31
  -6  15  13    9.99   77.32
  -6  15  13  108.01   76.62
   5 -15 -13   33.08   80.80
   5 -15 -13  -88.27   58.78
  -5  15  13   47.41   75.40
  -5  15  13   29.85   73.96
   4 -15 -13  -65.05   87.67
   4 -15 -13    4.18   65.03
  -4  15  13    4.99   73.87
  -4  15  13   -6.67   75.86
   3 -15 -13   34.92   87.50
   3 -15 -13   57.54   66.35
  -3  15  13  -89.42   74.00
  -3  15  13   13.43   81.07
   2 -15 -13    3.95   86.43
   2 -15 -13   73.30   68.00
  -2  15  13   -6.70   75.19
  -2  15  13    9.76   74.63
   1 -15 -13    4.01   58.31
   1 -15 -13  -16.09   93.14
  -1  15  13   57.98   72.70
  -1  15  13  -34.52   69.96
   0 -15 -13    4.00   93.35
   0 -15 -13    7.98   56.64
   0  15  13  107.26   65.51
   0  15  13  -36.93   75.40
  -1 -15 -13  -48.06   58.09
  -1 -15 -13   -3.88   89.54
   1  15  13  186.63   71.84
  -2 -15 -13    4.06   57.00
  -2 -15 -13  135.70   89.36
   2  15  13   15.25   71.16
  -3 -15 -13    3.61   79.83
  -3 -15 -13  -29.40   62.39
   3  15  13   16.13   70.72
   8 -16 -13  -53.45   72.70
  -8  16  13   52.09   77.39
   7 -16 -13  -89.11   80.44
   7 -16 -13 -278.73   96.60
  -7  16  13   38.31   80.73
  -7  16  13  -22.57   85.21
   6 -16 -13   96.38   68.66
   6 -16 -13  -24.09   88.60
  -6  16  13   67.94   83.71
  -6  16  13   83.73   83.17
   5 -16 -13   43.81   82.70
   5 -16 -13  -18.25   72.74
  -5  16  13   -7.64   85.97
  -5  16  13   -5.57   77.21
   4 -16 -13   22.58   70.47
   4 -16 -13    4.15   96.42
  -4  16  13  137.12   87.87
  -4  16  13   55.96   80.89
   3 -16 -13  -26.82   71.40
   3 -16 -13   12.82   94.14
  -3  16  13   76.35   88.48
  -3  16  13   60.89   77.81
   2 -16 -13   17.06   98.35
   2 -16 -13   -8.92   66.83
  -2  16  13   30.54   83.60
  -2  16  13   54.55   78.76
   1 -16 -13  166.78   70.29
   1 -16 -13    4.35   98.85
  -1  16  13  -94.63   89.47
  -1  16  13  -11.06   76.38
   0 -16 -13   79.07   59.17
   0 -16 -13 -104.48  102.66
   0  16  13   34.48   85.97
   0  16  13 -103.47   76.73
  -1 -16 -13    4.20   96.20
  -1 -16 -13   39.76   66.06
   1  16  13   60.04   76.04
  -2 -16 -13   -4.47   62.77
  -2 -16 -13   20.31   84.16
   2  16  13  -11.25   68.92
  -3 -16 -13  -73.25   62.10
  -3 -16 -13  118.19   79.78
   3  16  13   -5.91   76.02
   8 -17 -13    5.45   85.45
  -8  17  13  118.81   98.47
   7 -17 -13   44.77   93.85
   7 -17 -13 -123.95   83.05
  -7  17  13 -102.74   92.53
  -7  17  13   25.61   91.07
   6 -17 -13 -101.48   96.92
   6 -17 -13  -30.08   76.76
  -6  17  13  -50.90   91.87
  -6  17  13   37.88   95.74
   5 -17 -13    4.95   82.04
   5 -17 -13   78.72  105.94
  -5  17  13  100.86   93.80
  -5  17  13  -17.28   95.54
   4 -17 -13 -141.40   79.69
   4 -17 -13 -367.91  114.83
  -4  17  13  -75.10   88.72
  -4  17  13  -87.12  107.67
   3 -17 -13   37.57  109.21
   3 -17 -13    4.85   74.73
  -3  17  13  -49.23   90.14
  -3  17  13  -69.14   91.29
   2 -17 -13    4.67  105.49
   2 -17 -13   63.20   67.73
  -2  17  13  -36.66   89.62
  -2  17  13    8.59   97.28
   1 -17 -13   28.07   99.60
   1 -17 -13  -53.10   65.71
  -1  17  13  -49.49   88.65
  -1  17  13   16.59   93.64
   0 -17 -13   38.61   77.99
   0 -17 -13  264.88  107.92
   0  17  13   84.50   92.35
   0  17  13  -24.25   83.87
  -1 -17 -13   40.87  106.65
  -1 -17 -13  -63.33   66.87
   1  17  13   14.52   82.67
   1  17  13  -66.77   87.12
  -2 -17 -13    9.83   75.48
  -2 -17 -13   43.71  101.19
   2  17  13  124.74   81.69
  -3 -17 -13  149.64   97.07
  -3 -17 -13 -150.38   74.69
   3  17  13  -13.04   80.60
   8 -18 -13   -6.15   97.33
  -8  18  13  -45.40  111.52
   7 -18 -13    5.71   82.99
   7 -18 -13   34.34  103.89
  -7  18  13   95.55  102.76
  -7  18  13   -7.32  105.92
   6 -18 -13  -98.89   91.54
   6 -18 -13  -87.24  108.17
  -6  18  13  -86.13  109.70
  -6  18  13   -9.58  100.12
   5 -18 -13 -139.65  108.39
   5 -18 -13  -69.81   83.79
  -5  18  13  114.17  108.18
  -5  18  13   78.37  110.27
   4 -18 -13    4.93  111.21
   4 -18 -13   21.16   83.94
  -4  18  13   77.52  104.14
  -4  18  13    9.93  114.89
   3 -18 -13    5.27   77.89
   3 -18 -13 -261.02  114.38
  -3  18  13   34.48  104.09
  -3  18  13   39.14  108.55
   2 -18 -13  111.52   82.31
   2 -18 -13  -35.79  121.80
  -2  18  13   28.99  109.88
  -2  18  13   13.75   97.46
   1 -18 -13   40.63  114.33
   1 -18 -13  -21.17   84.60
  -1  18  13   68.91   89.53
  -1  18  13   28.14  104.49
   0 -18 -13 -126.98   81.08
   0 -18 -13   -5.00  115.89
   0  18  13  128.54   95.91
   0  18  13   17.41   87.49
  -1 -18 -13    5.37   82.42
  -1 -18 -13    4.85  104.54
   1  18  13    8.13   95.93
   1  18  13   47.41   90.11
  -2 -18 -13  -97.56   85.31
  -2 -18 -13 -146.98  104.58
   2  18  13   -6.96   93.30
  -3 -18 -13 -106.66  110.87
  -3 -18 -13    5.51   78.15
   3  18  13   28.87   90.42
   5 -19 -13    5.84   89.42
  -5  19  13  178.87  124.94
   4 -19 -13  -92.01   88.95
  -4  19  13  -47.64  114.31
  -4  19  13   90.31  104.03
   3 -19 -13  237.56  128.10
   3 -19 -13  -57.55   81.01
  -3  19  13 -194.23  115.83
  -3  19  13  -11.10  126.89
   2 -19 -13 -178.64  129.26
   2 -19 -13 -276.33   91.63
  -2  19  13   93.16  103.97
  -2  19  13  -10.85  114.24
   1 -19 -13 -152.17  125.90
   1 -19 -13   -5.78   84.03
  -1  19  13 -293.56  121.05
  -1  19  13  -46.10  102.57
   0 -19 -13   34.70   81.84
   0  19  13 -385.52  121.61
   0  19  13   -7.56  100.07
  -1 -19 -13   -5.90   87.03
  -1 -19 -13    5.27   93.09
   1  19  13  -52.98  108.10
  -2 -19 -13   71.58   95.28
   2  19  13   -7.75   99.02
   0   0  14  983.12  184.11
   1   0 -14  -25.15   49.14
   0   1 -14  -33.07   59.69
   0  -1  14   19.43   26.03
  -1   0  14   -5.36   20.08
  -1   0  14  -10.00   61.53
   0   1  14  -11.30   23.94
   1   1 -14  377.39   84.74
   1  -1 -14  322.42   86.48
   1  -1 -14  326.98   70.22
  -1   1  14  329.67   95.95
  -1  -1  14  328.96   66.38
  -1  -1  14  196.21  101.20
  -1   1  14  368.49   65.60
   2   1 -14    4.59   46.92
   1  -2 -14   -1.94   28.06
   1  -2 -14    2.57   58.04
  -1   2  14   15.96   19.31
  -1   2  14  -37.73   68.16
  -2  -1  14   46.15   69.94
  -2  -1  14   33.14   20.75
   2   0 -14   19.94   47.13
   0   2 -14   86.43   68.05
   2   0 -14   66.62   20.06
   0  -2  14   82.51   33.21
   0   2  14   29.54   29.30
  -2   0  14   16.28   68.82
  -2   0  14   93.69   22.93
   0  -2  14  201.66   74.36
   2  -1 -14    2.14   43.97
   1   2 -14   65.63   50.79
   2  -1 -14   -0.60   20.79
  -2   1  14   26.76   65.79
  -1  -2  14   -2.67   71.33
  -1  -2  14   53.09   23.56
  -2   1  14   18.58   19.13
   2  -2 -14  -48.62   26.89
   2   2 -14  -86.60   56.44
  -2   2  14   -8.75   19.20
  -2  -2  14    3.69   23.19
  -2  -2  14 -124.74   71.10
   2  -3 -14   -8.45   23.53
   2  -3 -14   -2.02   43.48
   3   2 -14   65.70   45.90
  -2   3  14    6.79   17.64
  -3  -2  14   14.22   22.72
  -2   3  14  -17.89   13.37
  -3  -2  14   14.94   60.10
  -2   3  14  -47.25   58.55
   3   1 -14  -51.26   46.20
   1  -3 -14   -7.10   27.29
   1  -3 -14  163.18   50.89
  -3  -1  14    7.09   62.34
  -1   3  14  -19.61   19.99
  -3  -1  14  -10.04   18.55
   3   0 -14  -46.37   44.48
   0   3 -14 -121.79   72.52
  -3   0  14    4.72   18.59
   0   3  14  -21.39   24.62
   0  -3  14  -74.52   81.92
  -3   0  14  -71.85   66.87
   0  -3  14   -7.25   27.37
   3  -1 -14  -28.47   42.90
   3  -1 -14  -45.12   15.71
   1   3 -14   19.20   55.41
  -3   1  14   22.07   17.20
  -3   1  14   -1.66    8.57
  -1  -3  14  -41.74   68.10
  -3   1  14  -68.44   64.14
  -1  -3  14  -16.35   23.45
   2   3 -14   15.20   50.51
   3  -2 -14  -32.36   37.68
   3  -2 -14   20.02   19.35
  -3   2  14   -1.38   16.98
  -3   2  14    0.73   10.74
  -3   2  14    2.33   10.36
  -2  -3  14    2.67   66.65
  -2  -3  14   13.67   21.51
  -3   2  14   -8.15   53.51
   3  -3 -14  211.73   58.42
   3  -3 -14  220.48   45.73
   3   3 -14  177.38   65.67
   3  -3 -14  259.35   48.91
  -3   3  14  197.76   40.07
  -3   3  14  174.05   42.69
  -3  -3  14  212.66   81.73
  -3   3  14  207.85   41.87
  -3  -3  14  194.60   44.97
  -3   3  14  223.48   72.17
   4   3 -14  325.57   77.64
   3  -4 -14  356.50   68.24
  -4  -3  14  343.86   89.12
  -4  -3  14  163.43   55.39
  -3   4  14  273.44   53.08
  -3   4  14  525.90   80.26
   4   2 -14   17.95   45.86
  -4  -2  14  -17.08   62.50
  -4  -2  14    8.53   18.57
  -2   4  14   13.80   16.02
   4   1 -14  296.73   70.29
   1  -4 -14  341.61   70.21
   4   1 -14  348.08   76.53
  -4  -1  14  208.78   88.21
  -4  -1  14  346.71   58.26
   4   0 -14   11.74   30.83
   4   0 -14    7.98   43.21
   0   4 -14   13.95   67.87
   0  -4 -14    5.40   28.09
   0  -4  14   -2.39   25.87
   0  -4  14   38.19   80.16
  -4   0  14   -4.46   16.23
  -4   0  14   11.03   59.69
   0   4  14   21.61   22.34
   4  -1 -14  332.91   73.05
   4  -1 -14  277.56   66.30
   1   4 -14  267.08   86.47
  -4   1  14  304.13   84.42
  -1  -4  14  278.40   95.90
  -4   1  14  312.17   55.07
   4  -2 -14   23.01   13.12
   4  -2 -14  -31.49   26.01
   4  -2 -14    5.32   37.87
   2   4 -14  -10.76   52.25
   4  -2 -14    4.27   17.00
  -4   2  14   24.56   14.08
  -2  -4  14    5.63   66.74
  -4   2  14  -13.94   57.82
   4  -3 -14  232.38   49.20
   4  -3 -14  295.67   61.22
   4  -3 -14  289.01   52.50
   4  -3 -14  166.51   52.77
   3   4 -14  229.70   69.13
  -3  -4  14  132.90   86.37
  -4   3  14  240.64   49.97
  -4   3  14  245.14   44.77
  -4   3  14  248.54   45.40
  -4   3  14  262.39   75.03
   4  -4 -14  211.93   42.08
   4  -4 -14  217.91   52.37
   4   4 -14  192.21   65.74
  -4   4  14  175.44   36.14
  -4  -4  14  148.31   79.94
  -4   4  14  288.89   66.46
   5   4 -14   84.28   56.49
   4  -5 -14  120.54   37.56
   4  -5 -14   87.71   31.49
   4  -5 -14  144.18   29.81
  -4   5  14   -1.74   54.32
  -4   5  14   60.23   30.39
  -4   5  14  155.95   25.66
  -5  -4  14   58.55   78.01
  -4   5  14   99.76   27.08
   5   3 -14  323.77   75.14
   3  -5 -14  232.85   56.08
   5   3 -14  279.80   67.82
   3  -5 -14  287.93   63.23
  -3   5  14  216.57   51.08
  -5  -3  14  183.54   89.74
  -5  -3  14  355.54   52.96
  -3   5  14  210.82   54.94
   2  -5 -14  266.87   64.21
   5   2 -14  203.55   66.66
   5   2 -14  219.79   73.51
   2  -5 -14  245.79   57.43
  -5  -2  14  249.44   83.41
  -5  -2  14  295.91   51.01
  -2   5  14  220.30   50.71
   1  -5 -14  726.56  170.97
   5   1 -14 1040.90  171.94
  -5  -1  14  719.38  178.71
  -1   5  14  851.68  148.31
   0   5 -14   18.11   70.33
   5   0 -14   57.03   42.48
   5   0 -14  -23.39   27.56
   0  -5 -14  -11.42   33.98
   0  -5  14  -16.41   80.01
  -5   0  14    7.28   16.39
  -5   0  14  -11.22   58.34
   0  -5  14   31.00   28.16
   1   5 -14  761.49  163.52
   5  -1 -14  663.41  156.61
  -5   1  14  800.70  163.46
  -1  -5  14  813.02  180.15
  -1  -5  14  424.40  135.54
  -5   1  14  763.87  130.45
   5  -2 -14  332.14   73.56
   2   5 -14  232.80   85.20
   5  -2 -14  292.57   67.18
  -2  -5  14  282.48   61.13
  -5   2  14  260.10   84.71
  -2  -5  14  281.37  104.35
  -5   2  14  384.90   56.94
   5  -3 -14  211.24   63.15
   3   5 -14  291.20   81.48
   5  -3 -14  327.78   70.27
  -5   3  14  283.59   81.36
  -3  -5  14  209.88   96.62
  -5   3  14  281.71   54.07
  -3  -5  14  382.84   58.45
   4   5 -14   76.03   62.83
   5  -4 -14  163.26   45.83
   5  -4 -14   78.70   33.82
  -5   4  14   89.46   59.09
  -4  -5  14  163.09   33.29
  -4  -5  14   79.70   78.49
  -5   4  14  146.14   27.50
   5   5 -14  260.96   93.24
   5  -5 -14  367.45   74.98
   5  -5 -14  304.67   72.85
   5   5 -14  300.54   83.50
   5  -5 -14  369.40   74.93
   5  -5 -14  326.83   80.43
  -5  -5  14  384.75   67.20
  -5   5  14  348.84   67.97
  -5  -5  14  379.68  106.69
  -5   5  14  440.91   90.79
  -5   5  14  249.59   73.30
  -5   5  14  403.58   66.23
   5  -6 -14  -36.76   27.45
   6   5 -14   -5.26   55.38
   6   5 -14  -29.67   43.63
   5  -6 -14   13.21   33.17
  -5   6  14   -1.60   23.37
  -6  -5  14  -19.96   73.02
  -5   6  14  -22.38   25.81
  -6  -5  14   11.34   23.43
   4  -6 -14  250.90   66.87
   4  -6 -14  268.26   60.93
   6   4 -14  361.40   78.73
  -4   6  14  257.69   53.97
  -4   6  14  221.60   60.07
  -6  -4  14  311.97   94.34
   3  -6 -14  315.88   63.19
   3  -6 -14  281.75   70.87
   6   3 -14  250.54   72.02
   6   3 -14  262.83   79.88
  -6  -3  14  330.53   95.79
  -3   6  14  326.18   62.03
  -6  -3  14  329.17   58.01
  -3   6  14  297.31   58.08
   6   2 -14  249.96   67.19
   6   2 -14  255.03   74.65
   2  -6 -14  266.23   66.26
   2  -6 -14  239.66   58.36
  -2   6  14  235.02   53.35
  -6  -2  14  293.27   88.33
  -6  -2  14  303.46   52.25
   6   1 -14    4.53   49.69
   1  -6 -14   64.37   40.11
   6   1 -14   58.88   36.26
   1  -6 -14  107.11   29.99
  -1   6  14   86.92   26.24
  -6  -1  14   70.31   65.66
  -6  -1  14   89.59   23.54
   6   0 -14  183.30   62.37
   0  -6 -14  279.20   67.47
   0   6 -14  164.98   94.97
   0  -6  14  203.10   55.96
  -6   0  14  316.26   48.36
   0   6  14  212.41   51.06
  -6   0  14  241.42   80.41
   0  -6  14  101.96   99.21
   1   6 -14  118.17   73.00
   6  -1 -14   73.16   33.29
  -1  -6 -14   27.66   35.07
  -6   1  14  109.97   21.30
  -1  -6  14   38.69   29.18
  -1  -6  14   57.21   78.53
  -6   1  14   19.57   60.57
   6  -2 -14  271.78   62.59
   2   6 -14  215.54   87.41
  -2  -6  14  298.68  104.91
  -2  -6  14  236.30   57.35
  -6   2  14  289.00   84.69
  -6   2  14  298.89   53.16
   6  -3 -14  243.20   65.13
   3   6 -14  317.08   85.25
  -6   3  14  196.59   56.54
  -3  -6  14  332.70  101.83
  -3  -6  14  346.92   59.04
  -6   3  14  369.18   85.94
   4   6 -14  290.31   88.29
   6  -4 -14  237.46   66.27
  -4  -6  14  339.77   61.04
  -6   4  14  309.72   59.44
  -6   4  14  367.65   84.53
  -4  -6  14  386.87  102.93
   6  -5 -14   76.37   41.49
   5   6 -14   28.53   43.57
   6  -5 -14    1.56   23.77
   5   6 -14   28.42   58.54
  -5  -6  14    6.09   22.69
  -6   5  14   -9.34   18.96
  -5  -6  14  -26.48   85.30
  -6   5  14   46.56   54.75
   6   6 -14   70.48   60.72
   6   6 -14  144.65   52.72
   6  -6 -14  179.09   40.00
   6  -6 -14   99.01   40.41
  -6  -6  14    9.01   85.48
  -6  -6  14  117.03   32.95
   7   6 -14   -2.93   60.69
   7   6 -14   14.81   47.87
   6  -7 -14   14.58   35.03
   6  -7 -14   12.15   36.74
  -6   7  14   24.82   32.57
  -6   7  14   17.38   28.68
  -7  -6  14  -14.25   27.26
  -7  -6  14   12.48   87.68
   5  -7 -14  331.13   70.52
   5  -7 -14  266.22   66.87
   7   5 -14  214.71   83.70
  -5   7  14  255.19   65.61
  -7  -5  14  236.71  105.31
  -7  -5  14  384.89   58.76
  -5   7  14  290.24   59.42
   7   4 -14   64.61   39.75
   4  -7 -14   43.43   39.97
   4  -7 -14    1.72   28.74
  -7  -4  14  -32.88   76.77
  -4   7  14   53.31   28.36
  -7  -4  14   56.27   25.36
  -4   7  14  119.09   28.57
   3  -7 -14  371.21   84.58
   7   3 -14  366.99   93.26
   3  -7 -14  442.13   92.90
  -7  -3  14  387.44  109.46
  -3   7  14  408.18   78.01
  -7  -3  14  405.73   76.76
  -3   7  14  459.61   82.33
   2  -7 -14  122.41   40.37
   2  -7 -14  133.47   52.50
   7   2 -14  104.49   50.52
  -7  -2  14  166.78   75.40
  -2   7  14  167.16   37.58
  -7  -2  14  165.28   35.18
   1  -7 -14  605.36  126.84
   1  -7 -14  594.94  114.96
   7   1 -14  486.95  122.84
  -7  -1  14  541.05  135.99
  -7  -1  14  643.50  104.31
  -1   7  14  469.02  105.39
   0  -7 -14    9.68   28.96
   7   0 -14    6.56   31.42
   0  -7 -14  -21.25   45.27
   0   7 -14   16.40   84.96
   0  -7  14   10.48   30.36
   0   7  14   10.22   25.38
   0  -7  14    3.53   88.99
   0  -7  14  -22.25   29.89
  -7   0  14   18.38   19.06
  -7   0  14  -14.09   62.59
   1   7 -14  542.52  139.10
  -1  -7 -14  519.38  122.80
   7  -1 -14  604.16  121.40
  -7   1  14  591.76  134.34
  -1  -7  14  638.63  154.44
  -7   1  14  651.68  105.99
  -1  -7  14  378.95  108.04
   7  -2 -14  182.12   45.69
   2   7 -14  289.29   79.18
  -2  -7  14  148.52   44.42
  -7   2  14  173.89   39.35
  -7   2  14  230.19   75.72
  -2  -7  14  211.71   94.41
   7  -3 -14  439.22   90.15
   3   7 -14  488.28  112.87
  -7   3  14  428.60  105.58
  -3  -7  14  472.85  124.81
  -3  -7  14  557.96   81.73
  -7   3  14  205.09   79.40
   7  -4 -14   40.41   31.17
   4   7 -14   15.14   48.38
   4   7 -14   15.48   68.49
  -4  -7  14   79.20   88.29
  -7   4  14   63.48   60.77
  -4  -7  14   35.75   28.14
   5   7 -14  217.52   86.67
   5   7 -14  134.84   78.13
  -5  -7  14  388.46   61.29
  -7   5  14  428.39   84.82
  -5  -7  14  322.54  105.86
   6   7 -14 -131.16   69.12
   6   7 -14    2.97   46.36
  -6  -7  14   20.79   26.95
  -6  -7  14 -144.51   90.10
   7   7 -14    9.37   81.47
   7   7 -14  108.61   66.27
  -7  -7  14  227.55   42.32
  -7  -7  14  310.15  103.57
  -8  -7  14    3.48  102.70
   6  -8 -14   65.09   42.45
   8   6 -14    3.21   56.85
   6  -8 -14  122.44   44.64
  -6   8  14   17.01   39.24
  -8  -6  14   89.99   31.51
  -8  -6  14   -9.77   94.28
  -6   8  14  142.15   36.28
   5  -8 -14  -17.18   43.22
   5  -8 -14   15.30   37.00
  -5   8  14  -23.84   31.88
  -5   8  14  -24.69   33.83
  -8  -5  14   -3.08   84.08
   8   4 -14  447.20  155.34
   4  -8 -14  566.93  151.02
  -8  -4  14  846.65  126.38
  -4   8  14  512.48  141.12
  -4   8  14  657.31  126.72
   8   3 -14   42.23   44.52
   3  -8 -14   39.10   31.52
   3  -8 -14   26.77   46.52
  -3   8  14   84.19   31.64
  -3   8  14  107.02   33.14
  -8  -3  14   95.42   26.44
  -8  -3  14   50.55   79.94
   2  -8 -14  455.30  103.33
   2  -8 -14  625.08  113.90
   8   2 -14  589.53  111.54
  -8  -2  14  339.60   94.74
  -2   8  14  531.97   96.47
  -8  -2  14  548.56  127.56
   8   1 -14    2.59   38.51
   1  -8 -14   -9.35   28.77
   1  -8 -14   38.92   48.41
  -1   8  14   -6.39   28.55
  -8  -1  14   25.13   21.70
  -8  -1  14   10.34   72.81
   8   0 -14  187.52   98.25
   0   8 -14  280.21  129.72
   0  -8 -14  318.42   91.19
   0  -8 -14  598.03  105.23
  -8   0  14  425.99  115.87
   0  -8  14  763.38  141.13
   0  -8  14  291.04   87.52
   0   8  14  493.98   85.15
   0  -8  14  607.72   91.56
  -8   0  14  503.17   84.16
  -1  -8 -14   -6.60   46.57
   1   8 -14  -11.05   78.45
   8  -1 -14  -19.28   34.22
   1   8  14   24.91   29.74
  -8   1  14   12.22   66.71
  -8   1  14   32.34   22.40
  -1  -8  14   74.80   30.51
  -1  -8  14  -66.14   90.61
   2   8 -14  266.92  127.85
   8  -2 -14  275.59  108.01
  -8   2  14  630.70  123.24
  -2  -8  14  613.35   96.59
  -2  -8  14  732.54  141.18
   3   8 -14  -23.45   74.95
  -8   3  14   86.26   66.25
  -3  -8  14   20.08   96.15
  -3  -8  14   94.81   34.62
   4   8 -14 1063.06  203.07
   4   8 -14  904.96  193.27
  -4  -8  14 1480.73  213.78
  -4  -8  14  989.94  169.27
  -8   4  14  644.52  196.13
   5   8 -14   92.74   73.10
   5   8 -14 -136.99   51.51
  -8   5  14   34.22   64.05
  -5  -8  14   -6.51   93.11
  -5  -8  14    2.24   27.81
   6   8 -14   13.21   75.05
   6   8 -14  -12.53   52.89
  -6  -8  14   75.49   99.80
  -6  -8  14  123.86   31.98
   7   8 -14   30.47   77.75
   7   8 -14   74.69   53.55
  -7  -8  14  197.93   35.88
  -7  -8  14  -90.29  100.09
   9   8 -14   -3.90   62.23
  -9  -8  14    3.94  112.51
  -9  -8  14   -2.68   33.20
   7  -9 -14    7.94   42.03
   9   7 -14    3.74   57.88
  -9  -7  14  -10.32   32.12
   6  -9 -14  159.91   51.39
   6  -9 -14  163.17   56.34
  -6   9  14  101.10   48.74
  -6   9  14  187.63   47.80
   5  -9 -14  125.39   53.41
   5  -9 -14  161.21   49.40
  -9  -5  14  -47.62   98.57
  -5   9  14  136.69   43.40
  -5   9  14  134.09   46.84
   9   4 -14    3.35   54.89
   4  -9 -14   18.58   34.87
   4  -9 -14    6.33   45.77
  -4   9  14    9.47   34.80
  -9  -4  14   29.09   86.33
  -4   9  14   24.10   34.77
  -9  -4  14   23.23   29.35
   3  -9 -14  471.95  114.63
   9   3 -14  339.34  117.34
   3  -9 -14  633.57  105.05
  -9  -3  14  435.50   94.39
  -9  -3  14  228.06  132.53
  -3   9  14  608.80  103.94
  -3   9  14  505.08   96.65
   2  -9 -14   12.50   33.96
   2  -9 -14  -73.94   53.77
   9   2 -14  -43.48   50.22
  -9  -2  14   28.94   74.25
  -9  -2  14  -17.83   26.04
  -2   9  14  -28.35   33.64
   1  -9 -14  333.00   87.54
   9   1 -14  296.22   80.92
   1  -9 -14  201.17   69.50
  -1   9  14  309.66   65.55
  -9  -1  14  324.81  101.78
   0  -9 -14   39.70   35.99
   0   9 -14  -14.70  102.44
   9   0 -14   43.70   46.31
   0   9  14    5.02   35.25
   0  -9  14   13.45   35.42
  -9   0  14   32.02   75.65
   1   9 -14  309.38  114.86
  -1  -9 -14  392.50   79.12
  -1  -9 -14  436.67   94.69
  -1  -9  14  276.52  124.17
   1   9  14  308.38   75.30
  -9   1  14  488.02  102.89
  -1  -9  14  359.82   75.36
   2   9 -14  -15.09   80.71
  -2  -9 -14  -84.02   43.70
  -9   2  14  -38.62   72.09
  -2  -9  14    3.55   99.14
  -2  -9  14  -60.07   33.46
   3   9 -14  340.39  137.15
  -3  -9  14  659.99  103.96
  -3  -9  14  522.84  149.23
  -9   3  14  540.65  130.61
   4   9 -14    3.33   57.41
   4   9 -14   53.29   78.57
  -4  -9  14   34.14   32.93
  -9   4  14   24.82   73.47
  -4  -9  14  163.21  103.47
   5   9 -14   10.84   86.29
   5   9 -14   71.59   59.89
  -5  -9  14  148.66   36.52
  -5  -9  14    3.42  101.23
   6   9 -14   36.20   86.82
   6   9 -14  108.80   61.39
  -6  -9  14  220.86  104.40
  -6  -9  14  144.28   37.18
   8   9 -14  -69.49   62.29
  -8  -9  14   40.55   32.58
  -8  -9  14   -3.89   84.94
   9   9 -14    4.07   55.47
   9   9 -14    4.18   92.21
  -9  -9  14   13.88   34.80
  -9  -9  14   29.06  120.91
  10   9 -14 -120.80   76.44
 -10  -9  14  -21.54   37.85
 -10  -9  14  100.88  130.45
  10   8 -14    4.46   69.89
 -10  -8  14  136.64  120.77
 -10  -8  14  -68.38   37.20
  10   7 -14    4.29   69.26
   7 -10 -14   46.08   49.01
  -7  10  14   80.15   49.34
 -10  -7  14   40.21   37.61
  -7  10  14   57.39   40.63
 -10  -7  14 -218.18  125.58
   6 -10 -14   14.16   50.52
  10   6 -14   12.36   62.90
   6 -10 -14   14.07   47.51
 -10  -6  14    8.34   33.30
  -6  10  14    8.58   42.72
 -10  -6  14  153.53  104.99
  -6  10  14   28.81   44.06
   5 -10 -14   63.74   45.26
   5 -10 -14   49.35   55.01
  -5  10  14   87.93   44.98
  -5  10  14   22.55   42.12
   4 -10 -14  204.47   64.44
   4 -10 -14  229.63   56.51
  -4  10  14   96.94   54.04
  -4  10  14  212.67   53.08
  10   3 -14   -3.72   48.15
   3 -10 -14  -60.06   55.76
   3 -10 -14   -4.93   38.10
 -10  -3  14    3.24   92.50
  -3  10  14    3.44   38.71
  -3  10  14  -43.73   40.80
   2 -10 -14   61.75   39.20
   2 -10 -14  130.36   58.30
  -2  10  14  104.00   46.15
  -2  10  14   40.40   40.38
   1 -10 -14  -39.59   62.16
   1 -10 -14  -35.17   37.18
  -1  10  14   22.03   38.53
   0  10 -14   27.67  112.99
   0 -10 -14    2.41   36.92
   0 -10 -14    2.72   60.59
   0 -10  14    2.86   36.37
   0  10  14  -16.87   37.73
   1  10 -14  -22.15   91.59
  -1 -10 -14  -51.08   36.96
  -1 -10 -14   32.23   57.55
  -1 -10  14   16.60   35.62
  -1 -10  14  -34.21  102.56
   1  10  14  -29.98   42.39
  -2 -10 -14  160.71   56.78
   2  10 -14   60.61   91.05
  -2 -10  14   70.20  101.30
  -2 -10  14   24.70   36.53
   3  10 -14   59.21   87.23
  -3 -10  14   64.06   35.77
  -3 -10  14 -314.72  104.73
   4  10 -14  251.56   93.70
   4  10 -14   79.65   67.64
  -4 -10  14  266.17  116.84
  -4 -10  14  175.57   46.21
   5  10 -14   27.10   53.92
   5  10 -14    3.89   88.34
  -5 -10  14   45.81   32.81
  -5 -10  14   17.98  107.33
   6  10 -14   -3.96   90.76
   7  10 -14 -110.39   59.43
  -7 -10  14  -21.72   32.01
   8  10 -14 -126.69   93.56
   8  10 -14   26.78   65.42
  -8 -10  14  -13.18   32.34
  -8 -10  14  -89.06  116.56
   9  10 -14   -4.26   69.36
   9  10 -14    4.46   96.61
  -9 -10  14   11.49   35.85
  -9 -10  14   91.26  130.78
  10  10 -14    4.84   75.31
 -10 -10  14   72.86  130.70
 -10 -10  14   38.19   39.24
 -11 -10  14 -262.39  136.94
   7 -11 -14   -3.10   49.86
  -7  11  14  116.04   48.74
  -7  11  14   -6.14   46.70
   6 -11 -14  -43.88   60.65
   6 -11 -14   -9.25   50.61
  -6  11  14   54.29   46.90
  -6  11  14  -40.86   49.86
   5 -11 -14   15.50   59.15
   5 -11 -14   21.45   50.46
  -5  11  14   30.03   50.17
  -5  11  14   63.46   48.73
   4 -11 -14    5.22   60.74
   4 -11 -14   44.41   47.93
  -4  11  14   50.22   47.21
  -4  11  14  -20.43   47.00
   3 -11 -14   55.79   45.60
   3 -11 -14  116.28   61.43
  -3  11  14   -4.03   46.83
  -3  11  14    6.23   44.57
   2 -11 -14   40.36   43.33
   2 -11 -14    2.80   64.43
  -2  11  14   -3.06   42.89
  -2  11  14    8.00   45.38
   1 -11 -14  129.07   43.02
   1 -11 -14   23.12   69.49
   1 -11  14   35.07   45.74
  -1  11  14   46.94   44.95
   0 -11 -14 -101.04   68.83
   0 -11 -14  -15.93   41.11
   0 -11  14   -9.09   39.12
   0  11  14  -12.60   39.35
  -1 -11 -14    2.90   63.72
   1  11 -14   14.88  105.97
  -1 -11 -14    2.77   42.39
  -1 -11  14  103.20  107.80
   1  11  14   56.29   44.72
  -1 -11  14  -31.91   34.96
   2  11 -14  -47.90   96.95
  -2 -11  14   11.40   37.46
  -2 -11  14 -265.68  110.02
   2  11  14   14.28   44.61
   3  11 -14  -25.58   94.63
  -3 -11  14   19.20   35.60
  -3 -11  14   26.62  109.30
   4  11 -14   45.37   94.23
   4  11 -14   68.55   58.22
  -4 -11  14   -3.73  110.63
  -4 -11  14    2.59   34.02
   5  11 -14   33.54   98.15
   6  11 -14   -3.62   63.76
   7  11 -14   -3.71   60.66
   7  11 -14  -22.43  102.40
  -7 -11  14 -148.36  116.75
  -7 -11  14  -55.06   31.99
   8  11 -14   27.97  100.84
   8  11 -14   -4.01   64.81
  -8 -11  14   58.17  120.95
  -8 -11  14   16.38   35.39
   9  11 -14   -4.48   68.90
   9  11 -14   -4.82  108.88
  -9 -11  14   -5.93   36.86
  -9 -11  14    4.46  134.91
  10  11 -14    5.07   76.32
  10  11 -14   29.95  114.81
 -10 -11  14   46.34  139.71
 -11 -11  14    4.68  157.75
   8 -12 -14  -40.56   54.55
   7 -12 -14  100.08   64.48
   7 -12 -14   -3.35   45.87
  -7  12  14   -3.45   41.18
  -7  12  14   57.84   53.57
   6 -12 -14  -67.63   56.84
   1 -12  14   -3.73   46.61
   0 -12  14   54.57   44.59
  -1 -12 -14    3.14   69.28
   1  12 -14   39.30  123.78
  -1 -12  14   21.19   41.64
  -1 -12  14 -365.07  122.30
   2  12 -14  -37.78  107.27
  -2 -12 -14  -88.69   66.47
   2  12  14   -3.92   41.91
  -2 -12  14  -23.46   39.10
  -2 -12  14 -268.34  121.29
   3  12 -14   -3.72   55.96
   3  12 -14  159.57  108.12
  -3 -12  14  121.03   40.60
   5  12 -14   -3.63   57.23
   6  12 -14  -61.83  107.90
   6  12 -14   11.29   61.89
  -6 -12  14 -224.47  118.99
  -6 -12  14    2.47   31.68
   7  12 -14    3.89   62.85
   7  12 -14   79.30  115.46
  -7 -12  14    2.60   29.49
  -7 -12  14  -24.32  114.60
   8  12 -14 -164.39   71.43
   8  12 -14    5.19  118.15
  -8 -12  14   64.93   37.03
  -8 -12  14  102.06  122.44
   9  12 -14  201.68  129.40
   9  12 -14    4.72   75.50
  -9 -12  14  -42.78   40.83
  -9 -12  14  -63.65  135.75
  10  12 -14 -159.64   90.38
  10  12 -14   -5.34  115.72
 -10 -12  14   -4.73  136.77
  11  12 -14    5.23  122.21
 -11 -12  14   13.98  132.06
   8 -13 -14  -25.58   64.31
  -8  13  14   33.03   51.25
   7 -13 -14   46.82   57.86
   7 -13 -14  114.85   70.93
  -7  13  14  -51.70   66.09
  -7  13  14  -61.80   55.94
   6 -13 -14  -51.32   59.15
   6 -13 -14  116.74   71.02
  -6  13  14  -27.32   59.87
  -6  13  14  -16.63   56.90
   5 -13 -14   76.74   55.30
   5 -13 -14   55.61   69.81
  -5  13  14   62.98   60.98
  -5  13  14  -37.88   61.81
   4 -13 -14   17.94   57.21
   4 -13 -14    3.20   71.01
  -4  13  14   39.74   53.02
  -4  13  14   10.57   54.10
   3 -13 -14    3.21   76.90
   3 -13 -14   41.53   54.95
  -3  13  14   15.83   56.95
  -3  13  14    5.35   62.45
   2 -13 -14   43.49   83.41
   2 -13 -14    3.38   53.01
  -2  13  14    5.26   62.08
  -2  13  14   23.39   57.07
   1 -13 -14  -42.84   52.45
   1 -13 -14   45.19   80.66
  -1  13  14  -67.59   61.52
  -1  13  14  -26.19   61.08
   0 -13 -14 -104.27   79.39
   0 -13 -14    6.52   47.90
   0  13  14  -27.61   51.03
   0 -13  14   63.54   45.86
  -1 -13 -14   16.82   52.09
   1  13 -14   32.58  135.31
  -1 -13 -14   51.01   77.79
   1  13  14   12.23   59.52
  -1 -13  14  201.34   41.67
  -1 -13  14 -131.27  124.84
   2  13 -14   57.62  118.80
  -2 -13 -14   15.98   69.90
  -2 -13 -14   -3.42   51.62
   2  13  14  -25.76   53.96
  -2 -13  14 -252.93  118.71
  -3 -13 -14   59.70   64.15
   4  13 -14   45.22   58.04
  -4 -13  14   -2.64   34.31
   5  13 -14  131.45  112.80
   5  13 -14   34.12   60.55
  -5 -13  14   12.66   32.24
  -5 -13  14 -103.07  113.75
   6  13 -14  -51.35  116.28
   6  13 -14  -15.53   61.61
  -6 -13  14  321.67  126.17
  -6 -13  14   27.84   33.21
   7  13 -14  110.20  125.77
   7  13 -14   -4.09   56.92
  -7 -13  14 -234.97  119.40
  -7 -13  14    2.68   32.75
   8  13 -14   -4.43   70.90
  -8 -13  14 -451.33  128.95
  -8 -13  14   55.41   36.89
   9  13 -14    5.90  137.09
   9  13 -14 -158.88   82.71
  -9 -13  14  164.85  138.67
  -9 -13  14 -103.98   40.39
  10  13 -14  -81.85  140.05
  10  13 -14   -5.60   82.78
 -10 -13  14  123.42  135.78
  11  13 -14   11.03  130.06
 -11 -13  14  200.89  138.38
   8 -14 -14  -90.88   63.61
  -8  14  14   -4.15   61.87
   7 -14 -14   19.60   61.61
   7 -14 -14  -31.11   71.49
  -7  14  14  -51.42   63.10
  -7  14  14  -12.61   70.83
   6 -14 -14 -103.07   65.80
   6 -14 -14 -127.32   77.33
  -6  14  14   -4.34   67.70
  -6  14  14   18.47   57.29
   5 -14 -14  -64.04   76.19
   5 -14 -14   31.68   64.38
  -5  14  14  -56.79   63.77
  -5  14  14   -6.11   65.98
   4 -14 -14  249.59   85.82
   4 -14 -14    3.90   58.35
  -4  14  14   48.13   71.81
  -4  14  14   80.10   62.82
   3 -14 -14    3.81   61.72
   3 -14 -14 -109.80   84.67
  -3  14  14 -123.24   66.04
  -3  14  14    6.11   73.36
   2 -14 -14   -7.48   59.87
   2 -14 -14    7.41   88.54
  -2  14  14  -18.06   66.82
  -2  14  14  -21.90   66.72
   1 -14 -14   40.33   56.62
   1 -14 -14 -220.97   83.61
  -1  14  14   29.56   66.20
  -1  14  14  -31.19   64.19
   0 -14 -14  187.96   91.42
   0 -14 -14   14.49   52.87
   0  14  14   39.67   60.75
  -1 -14 -14  -55.52   51.25
  -1 -14 -14  -29.28   84.78
   1  14  14  -22.65   59.31
  -2 -14 -14  -38.26   80.91
  -2 -14 -14    3.76   58.77
   2  14  14   56.74   61.77
  -3 -14 -14   81.08   74.39
   3  14  14   30.45   65.19
   7  14 -14   55.64   72.93
   8  14 -14   28.00   75.14
   8  14 -14   25.81  152.59
   9  14 -14   -6.67  153.72
   9  14 -14    5.22   83.99
  -9 -14  14   23.41  134.39
  -9 -14  14   -3.24   39.71
  10  14 -14   -6.53  157.14
 -10 -14  14 -549.29  152.18
  11  14 -14    6.01  136.79
 -11 -14  14    4.64  133.00
   8 -15 -14 -111.47   68.91
  -8  15  14  103.17   67.97
   7 -15 -14   41.26   78.22
   7 -15 -14   21.42   68.04
  -7  15  14   56.73   67.98
  -7  15  14  104.43   74.02
   6 -15 -14  153.97   70.91
   6 -15 -14   76.82   82.10
  -6  15  14  -19.21   71.20
  -6  15  14   27.45   74.04
   5 -15 -14    3.69   78.36
   5 -15 -14  -98.73   67.54
  -5  15  14   76.00   75.50
  -5  15  14   19.55   70.85
   4 -15 -14    4.22   70.52
   4 -15 -14  138.88   87.98
  -4  15  14    6.85   74.28
  -4  15  14    9.93   77.06
   3 -15 -14   37.46   62.97
   3 -15 -14  105.78   89.00
  -3  15  14   68.73   71.96
  -3  15  14   27.83   81.21
   2 -15 -14  116.45   95.88
   2 -15 -14   53.54   66.92
  -2  15  14   -4.90   74.73
  -2  15  14   20.86   83.74
   1 -15 -14   45.01   92.57
   1 -15 -14   24.35   66.38
  -1  15  14   -6.62   76.50
  -1  15  14  -59.64   73.87
   0 -15 -14    8.02   61.49
   0 -15 -14   57.25   97.94
   0  15  14    4.92   66.17
   0  15  14  107.88   79.87
  -1 -15 -14  236.65   66.64
  -1 -15 -14  172.96   92.80
   1  15  14  -70.45   72.91
  -2 -15 -14 -105.23   84.59
  -2 -15 -14  156.52   63.34
   2  15  14  -15.66   67.37
  -3 -15 -14   -3.53   76.83
   3  15  14  -33.35   69.60
   8 -16 -14   99.45   73.47
  -8  16  14  -26.30   76.44
   7 -16 -14    9.34   73.78
   7 -16 -14 -371.10   99.59
  -7  16  14   21.21   83.76
  -7  16  14 -108.34   89.88
   6 -16 -14 -164.15   90.69
   6 -16 -14   -4.63   68.49
  -6  16  14  128.89   78.69
  -6  16  14   92.28   84.29
   5 -16 -14   44.40   91.54
   5 -16 -14   13.86   68.01
  -5  16  14  -92.87   75.50
  -5  16  14   54.85   83.59
   4 -16 -14  142.62   97.71
   4 -16 -14   68.51   74.94
  -4  16  14  -11.04   84.08
  -4  16  14   -7.84   87.37
   3 -16 -14   13.60   70.20
   3 -16 -14  -77.71   93.53
  -3  16  14 -118.79   92.51
  -3  16  14   54.72   82.95
   2 -16 -14  136.07   96.71
   2 -16 -14  -31.69   74.54
  -2  16  14  -71.42   77.07
  -2  16  14   76.97   83.24
   1 -16 -14   84.10   98.23
   1 -16 -14  -75.97   68.79
  -1  16  14    7.53   86.08
  -1  16  14 -143.93   80.01
   0 -16 -14  146.05  106.30
   0 -16 -14   53.07   60.58
   0  16  14   54.81   73.59
   0  16  14  -14.05   79.53
  -1 -16 -14    4.50   64.72
  -1 -16 -14   -4.23   94.30
   1  16  14   22.38   74.83
  -2 -16 -14   31.76   65.11
  -2 -16 -14 -109.32   90.32
   2  16  14  -11.55   77.81
  -3 -16 -14 -173.50   85.18
   3  16  14   91.45   73.36
   8 -17 -14    5.26   79.94
  -8  17  14  -29.58   90.18
   7 -17 -14   61.07   82.79
   7 -17 -14  -44.47   93.13
  -7  17  14 -190.47   96.89
  -7  17  14  -53.54   90.73
   6 -17 -14  140.65   93.08
   6 -17 -14   95.46   82.37
  -6  17  14    8.67   92.95
  -6  17  14 -114.43   92.14
   5 -17 -14  -61.38   97.10
   5 -17 -14   -4.97   75.06
  -5  17  14  -18.42   93.93
  -5  17  14   26.69  102.17
   4 -17 -14 -201.59  117.06
   4 -17 -14 -177.59   87.62
  -4  17  14   17.96  108.64
  -4  17  14  129.44   97.32
   3 -17 -14 -466.00  123.71
   3 -17 -14   -9.89   87.56
  -3  17  14  -35.95  105.29
  -3  17  14  -97.86   92.91
   2 -17 -14 -103.44   80.48
   2 -17 -14  -75.77  112.37
  -2  17  14  -92.40   87.23
  -2  17  14  -26.83  105.90
   1 -17 -14  280.88  104.11
   1 -17 -14   14.71   71.81
  -1  17  14 -111.26   84.98
  -1  17  14  -80.08   86.42
   0 -17 -14   75.35  108.10
   0 -17 -14 -161.55   74.17
   0  17  14  -46.99   91.81
   0  17  14  -54.91   83.12
  -1 -17 -14   54.69   76.57
  -1 -17 -14  141.60   99.26
   1  17  14   87.42   87.76
   1  17  14  112.09   82.38
  -2 -17 -14   59.92   74.10
  -2 -17 -14 -204.46  101.65
   2  17  14  -83.15   86.04
   3  17  14 -107.46   93.65
   8 -18 -14  -29.24   91.13
  -8  18  14   67.78  103.38
   7 -18 -14  -72.64   87.35
   7 -18 -14 -102.29  102.40
  -7  18  14  -87.71  109.64
  -7  18  14 -182.83  115.52
   6 -18 -14   48.36  100.21
   6 -18 -14    5.47   79.88
  -6  18  14  -82.23  100.44
  -6  18  14   49.10  104.94
   5 -18 -14   42.92   86.81
   5 -18 -14 -207.61  108.83
  -5  18  14   91.02  111.01
  -5  18  14  158.78  103.80
   4 -18 -14  -58.72   85.68
   4 -18 -14  -19.94  105.91
  -4  18  14   92.53  114.45
  -4  18  14  -13.70  100.42
   3 -18 -14    5.37   81.44
   3 -18 -14  462.52  125.60
  -3  18  14  -20.50  100.55
  -3  18  14  -30.55  115.25
   2 -18 -14   96.16   80.20
   2 -18 -14  114.24  120.98
  -2  18  14  -41.57   98.23
  -2  18  14   70.28  111.23
   1 -18 -14   80.44   86.26
   1 -18 -14  103.32  126.10
  -1  18  14   76.75  115.26
  -1  18  14    6.86  100.05
   0 -18 -14  -69.92   77.98
   0 -18 -14  121.39  115.76
   0  18  14 -149.64   89.37
   0  18  14 -167.69  100.16
  -1 -18 -14   71.32   80.55
  -1 -18 -14   44.55  113.85
   1  18  14   -8.12   97.59
   1  18  14   13.88   91.03
  -2 -18 -14  -87.79   84.39
  -2 -18 -14  150.68  106.77
   2  18  14 -135.14   90.57
  -3 -18 -14  -67.86  103.98
   3  18  14  -74.34   90.91
   4 -19 -14   11.59   86.55
  -4  19  14   84.62  108.71
   3 -19 -14   17.47   88.76
  -3  19  14 -169.25  106.29
   2 -19 -14  174.55   94.04
  -2  19  14   11.26  107.51
  -2  19  14   70.28  119.29
   1 -19 -14   29.34   83.94
  -1  19  14  -38.25  106.96
  -1  19  14   10.77  105.67
   0 -19 -14 -124.09   89.84
   0  19  14 -137.38  112.92
  -1 -19 -14 -102.35   87.39
   1  19  14  -93.03  107.94
   0   0  15  -25.61   28.68
   1   0 -15 1272.02  271.72
  -1   0  15 1348.29  292.82
   1   1 -15   -2.81   56.69
   1  -1 -15   76.29   57.77
  -1   1  15  -27.52   21.90
  -1   1  15   18.53   63.97
  -1  -1  15  -50.40   72.68
  -1  -1  15    4.06   23.31
   1  -2 -15   20.27   60.96
   1  -2 -15   21.46   25.76
   2   1 -15   15.23   50.53
  -2  -1  15  -18.53   66.14
  -2  -1  15   41.51   21.80
  -1   2  15   -5.22   20.41
  -1   2  15  -41.54   66.88
   2   0 -15  -19.46   48.45
   0   2 -15   -3.65   69.79
   0  -2  15   13.17   28.94
  -2   0  15  -48.26   66.04
   0   2  15    4.53   27.59
  -2   0  15    1.79   20.24
   2  -1 -15  -22.23   18.36
   2  -1 -15   96.59   49.16
   1   2 -15    8.62   56.87
  -2   1  15  -22.03   19.87
  -2   1  15  -19.52   63.85
  -1  -2  15   38.10   24.99
  -1  -2  15   17.39   69.66
   2   2 -15   47.81   48.35
   2  -2 -15    5.69   21.49
   2  -2 -15   -9.16   46.94
  -2   2  15  -46.99   57.74
  -2  -2  15    1.99   25.25
  -2   2  15   -1.61   20.24
  -2  -2  15  -41.59   70.92
   3   2 -15   24.70   51.93
   2  -3 -15    2.23   49.12
   2  -3 -15   14.64   24.14
  -2   3  15  -45.40   62.02
  -2   3  15    4.55   19.36
  -3  -2  15   10.86   73.43
  -3  -2  15    7.70   19.15
   3   1 -15  231.45   73.57
   1  -3 -15  228.70   81.67
  -1   3  15  236.47   52.35
  -3  -1  15  314.46   52.56
  -3  -1  15  224.82   90.17
   0   3 -15    3.70   70.79
   3   0 -15   44.33   47.28
   0  -3  15   18.28   28.93
  -3   0  15   29.22   20.32
   0   3  15  -12.55   25.56
  -3   0  15  -54.16   66.97
   1   3 -15  284.58   80.23
   3  -1 -15  247.68   70.43
  -1  -3  15  289.44   54.62
  -3   1  15  243.74   51.73
  -3   1  15  201.94   84.30
  -1  -3  15  258.36   95.61
   3  -2 -15  -12.04   44.15
   2   3 -15   27.90   56.93
  -2  -3  15   -5.81   74.52
  -3   2  15   74.21   63.73
  -2  -3  15   -2.09   24.85
  -3   2  15   53.45   19.30
   3  -3 -15   -1.10   19.59
   3  -3 -15  -13.56   40.78
   3  -3 -15   -5.28   23.80
   3   3 -15   78.49   54.21
  -3   3  15   26.14   64.64
  -3   3  15    1.43   17.90
  -3  -3  15   54.20   76.89
  -3  -3  15    6.11   24.48
   4   3 -15   96.72   54.80
   3  -4 -15  120.03   49.17
  -3   4  15   93.26   23.21
  -4  -3  15   61.18   28.89
  -4  -3  15   39.31   77.55
  -3   4  15  132.29   65.14
   4   2 -15  257.24   90.09
   2  -4 -15  220.21   86.89
  -2   4  15  457.30   66.02
  -4  -2  15  325.85   66.56
  -4  -2  15  339.83  101.44
  -2   4  15  364.09   97.64
   1  -4 -15  100.79   38.36
   4   1 -15   74.96   52.38
  -4  -1  15  122.37   68.79
  -1   4  15   52.43   26.01
  -4  -1  15  133.34   27.47
   4   0 -15  -19.96   45.89
   0  -4 -15    1.39   29.33
   0   4 -15  -68.24   72.55
   0  -4  15    3.44   85.60
  -4   0  15   24.74   16.67
  -4   0  15   46.16   65.71
   0   4  15   -5.80   23.53
   4  -1 -15   90.29   35.60
   1   4 -15  101.95   67.49
   4  -1 -15   90.10   47.97
  -1  -4  15  112.58   81.46
  -4   1  15   51.89   23.05
  -4   1  15   46.36   67.04
   4  -2 -15  486.96   84.13
   2   4 -15  244.43   96.25
   4  -2 -15  235.53   77.07
  -4   2  15  337.75   65.06
  -2  -4  15  289.32  111.80
  -4   2  15  491.69   99.77
   3   4 -15   46.99   56.15
   4  -3 -15   36.79   42.99
   4  -3 -15   59.28   30.73
  -4   3  15   74.36   20.62
  -4   3  15   23.35   62.11
  -3  -4  15   86.81   84.11
   4  -4 -15   17.25   22.82
   4  -4 -15    6.86   39.23
   4   4 -15    5.54   55.74
  -4  -4  15   -2.95   81.40
  -4   4  15    1.20   15.30
  -4   4  15   26.49   62.33
   4  -5 -15  102.80   26.07
   5   4 -15   44.08   45.86
   4  -5 -15   70.52   42.49
   4  -5 -15  101.96   28.13
   4  -5 -15   81.74   34.75
   5   4 -15   35.17   58.28
  -4   5  15   50.96   66.37
  -5  -4  15   17.26   81.42
  -5  -4  15   89.29   28.46
  -4   5  15   96.42   22.25
   5   3 -15   25.67   55.59
   3  -5 -15   53.29   47.11
   5   3 -15   31.19   40.67
   3  -5 -15   93.52   34.18
   3  -5 -15   68.35   26.29
   3  -5 -15   34.76   23.44
  -3   5  15   38.90   21.85
  -5  -3  15   52.13   73.78
  -3   5  15   10.22   18.19
  -3   5  15  130.31   22.56
  -5  -3  15   33.81   24.65
   5   2 -15  158.76   47.48
   5   2 -15   75.24   56.08
   2  -5 -15   97.94   40.01
   2  -5 -15   97.67   31.52
  -5  -2  15  120.51   71.54
  -2   5  15   90.79   27.37
  -2   5  15  155.60   28.79
  -5  -2  15  123.20   28.64
   5   1 -15  255.49   56.85
   1  -5 -15  171.80   57.22
   5   1 -15  174.17   67.05
  -5  -1  15  163.21   82.72
  -1   5  15  183.23   42.38
  -1   5  15  210.12   43.25
  -5  -1  15  220.13   42.08
   5   0 -15   80.07   50.77
   0   5 -15   35.42   76.25
   5   0 -15   98.79   38.83
   0  -5 -15  139.79   41.80
  -5   0  15  134.85   68.24
  -5   0  15   72.78   26.10
   0   5  15   90.32   31.31
   0  -5  15  -14.15   89.94
   0  -5  15  167.14   36.93
   5  -1 -15  139.64   50.95
   1   5 -15  249.90   80.42
   5  -1 -15  174.10   62.51
  -5   1  15  184.41   77.12
  -5   1  15  259.70   40.14
  -1  -5  15  118.61   45.64
  -1  -5  15  260.71   93.51
   5  -2 -15  126.72   47.93
   5  -2 -15   49.25   33.52
   2   5 -15  130.79   68.35
  -5   2  15   74.79   66.35
  -2  -5  15  101.81   87.28
  -2  -5  15   90.06   32.81
  -5   2  15  118.82   24.56
   3   5 -15   35.31   64.08
   5  -3 -15   90.56   47.06
   5  -3 -15   82.78   30.21
  -3  -5  15  103.59   85.56
  -5   3  15   37.28   20.83
  -3  -5  15  146.00   32.19
  -5   3  15  -10.47   63.21
   5  -4 -15   88.13   44.50
   4   5 -15   32.31   64.96
   5  -4 -15   39.39   30.66
  -5   4  15   72.09   22.04
  -4  -5  15  143.34   90.92
  -4  -5  15  167.92   31.83
  -5   4  15   87.79   62.27
   5   5 -15  -40.07   58.41
   5   5 -15   -2.91   46.98
  -5   5  15  -10.98   15.74
  -5   5  15   22.85   59.33
  -5  -5  15   39.28   83.67
  -5  -5  15   16.75   26.16
   6   5 -15   76.40   63.27
  -6  -5  15    6.05   84.76
   6   4 -15  288.33   72.11
   4  -6 -15  251.93   67.35
   6   4 -15  267.26   83.08
   4  -6 -15  246.51   61.02
  -6  -4  15  264.11   55.98
  -4   6  15  276.21   61.54
  -4   6  15  315.01   55.88
  -6  -4  15  304.04   95.91
   3  -6 -15  123.93   45.72
   6   3 -15   91.97   61.33
   3  -6 -15  116.43   35.71
   6   3 -15  112.41   49.73
  -3   6  15  156.75   32.63
  -6  -3  15  113.45   32.68
  -3   6  15  122.82   34.43
  -6  -3  15  132.74   82.10
   2  -6 -15  483.77   96.59
   2  -6 -15  445.19   87.07
   6   2 -15  325.33   96.07
   6   2 -15  591.94  104.71
  -6  -2  15  419.22  116.47
  -6  -2  15  300.86   77.77
  -2   6  15  344.77   78.98
   6   1 -15   96.45   47.94
   6   1 -15  253.22   61.58
   1  -6 -15  167.02   51.75
   1  -6 -15  185.96   41.80
  -6  -1  15  196.45   77.59
  -1   6  15  145.82   36.88
  -6  -1  15  131.79   34.47
   0   6 -15  -66.18   79.51
   0  -6 -15   15.41   41.86
   6   0 -15   -2.17   32.86
   6   0 -15   14.01   50.01
  -6   0  15   -2.46   67.75
   0  -6  15  -31.08   31.71
   0  -6  15  -36.58   87.15
  -6   0  15   -9.40   19.60
   1   6 -15  147.67   82.35
  -1  -6 -15  108.59   46.38
   6  -1 -15  204.73   47.83
   6  -1 -15  248.55   58.69
  -1  -6  15  119.05   92.96
  -1  -6  15  144.50   39.35
  -6   1  15  146.75   34.73
  -6   1  15  187.44   76.52
   6  -2 -15  554.41  102.55
   6  -2 -15  556.71  112.04
   2   6 -15  448.04  121.83
  -2  -6  15  523.15   93.42
  -6   2  15  445.09  119.07
  -2  -6  15  420.16  137.57
   3   6 -15  125.65   75.09
   6  -3 -15  219.28   58.71
   6  -3 -15  169.85   42.20
  -3  -6  15  149.35   41.62
  -6   3  15  154.29   33.44
  -3  -6  15  128.51   91.48
  -6   3  15  152.87   71.93
   6  -4 -15  249.58   67.84
   6  -4 -15  379.44   75.75
   4   6 -15  298.48   94.35
  -6   4  15  408.31   88.38
  -6   4  15  267.55   60.83
  -4  -6  15  349.98  106.61
  -4  -6  15  349.21   64.04
   5   6 -15  141.14   75.43
   5   6 -15  304.33   62.04
  -6   5  15  146.78   37.54
  -6   5  15  212.58   69.13
  -5  -6  15  167.78   42.70
  -5  -6  15  149.68   91.30
   6   6 -15   -3.03   67.52
   6   6 -15  -14.92   50.34
  -6  -6  15  -31.93   27.43
   7   6 -15   82.76   72.13
   7   6 -15    6.27   58.12
  -7  -6  15  166.59   35.12
  -7  -6  15  183.57  101.65
   5  -7 -15  -20.20   30.62
   7   5 -15  -11.60   67.61
   5  -7 -15    3.42   38.70
   7   4 -15   25.04   63.22
   4  -7 -15  157.40   50.37
   7   4 -15  167.80   58.10
   4  -7 -15  169.86   41.40
  -4   7  15  162.98   41.43
  -4   7  15  181.11   37.95
  -7  -4  15 -198.93  104.10
  -7  -4  15  172.36   36.37
   3  -7 -15   60.10   31.66
   3  -7 -15   94.65   43.54
   7   3 -15   91.27   46.60
   7   3 -15    5.41   59.60
  -3   7  15   64.01   31.36
  -3   7  15   97.50   30.44
  -7  -3  15  176.74   30.01
  -7  -3  15  150.53   80.05
   7   2 -15  536.29  113.96
   2  -7 -15  427.69  104.05
   2  -7 -15  572.17  114.31
  -2   7  15  551.37   96.08
  -7  -2  15  478.85   94.35
  -7  -2  15  470.20  127.52
   7   1 -15   38.56   40.31
   1  -7 -15    9.93   45.03
   1  -7 -15   19.78   29.50
  -1   7  15   68.17   27.47
  -7  -1  15   47.26   21.53
  -7  -1  15  -20.40   72.37
   0  -7 -15  298.30   64.42
   0   7 -15  149.70   99.28
   7   0 -15  269.84   57.94
  -7   0  15  172.81   79.98
   0   7  15  144.78   46.79
   0  -7  15  376.33  107.64
   0  -7  15  252.59   51.46
  -7   0  15  148.94   44.46
   7  -1 -15   51.35   34.08
  -1  -7 -15  119.37   45.48
   1   7 -15   40.39   75.68
  -7   1  15   67.66   23.93
  -7   1  15   59.89   68.74
  -1  -7  15   14.97   33.00
  -1  -7  15  181.11   99.47
   7  -2 -15  432.94  111.64
   2   7 -15  673.73  134.82
  -7   2  15  498.82   98.21
  -2  -7  15  577.88  100.93
  -7   2  15  556.85  125.23
  -2  -7  15  393.70  143.98
   3   7 -15  107.59   75.14
   7  -3 -15   71.64   38.71
  -3  -7  15  161.63   39.06
  -7   3  15  157.15   29.71
  -3  -7  15   75.84   95.64
  -7   3  15   26.83   67.79
   4   7 -15  152.57   82.52
   7  -4 -15  187.95   44.97
  -4  -7  15  112.88  108.10
  -7   4  15  148.98   37.37
  -4  -7  15  142.07   40.99
  -7   4  15  136.70   71.93
   5   7 -15   -3.23   49.96
   5   7 -15  -23.07   73.98
  -5  -7  15    2.30   28.84
  -5  -7  15 -201.03  102.22
   6   7 -15   59.03   76.79
   6   7 -15    3.14   58.57
  -6  -7  15  109.80   95.25
  -6  -7  15  200.79   36.83
   7   7 -15  -52.72   73.73
   7   7 -15   32.83   54.01
  -7  -7  15    3.46  101.98
  -7  -7  15   78.17   29.48
   8   6 -15   29.55   70.26
  -8  -6  15  -34.17   94.08
   5  -8 -15  240.53   58.93
   5  -8 -15  243.09   53.28
  -8  -5  15   22.38   98.05
  -5   8  15  147.60   47.15
  -5   8  15  214.24   51.54
   4  -8 -15   18.85   46.22
   4  -8 -15  123.00   36.35
   8   4 -15    3.03   44.95
  -8  -4  15   15.14   88.65
  -8  -4  15   81.51   29.35
  -4   8  15   59.81   32.73
  -4   8  15   92.11   35.81
   8   3 -15  513.21  101.76
   3  -8 -15  400.56  101.06
   3  -8 -15  319.52   91.27
  -8  -3  15  392.49  122.47
  -3   8  15  559.95   89.82
  -3   8  15  383.89   83.60
  -8  -3  15  411.73   82.69
   2  -8 -15   90.94   53.84
   2  -8 -15  125.89   38.13
   8   2 -15   44.32   47.32
  -8  -2  15  162.59   31.75
  -2   8  15   75.55   34.43
  -8  -2  15   95.02   85.56
   8   1 -15  294.11   83.78
   1  -8 -15  477.51   90.66
   1  -8 -15  278.92   75.75
  -8  -1  15  271.71  106.89
  -1   8  15  300.67   68.90
  -8  -1  15  321.26   67.45
   0  -8 -15  -40.59   53.26
   0   8 -15   61.76  101.41
   8   0 -15    5.06   33.77
   0  -8 -15   16.94   31.90
  -8   0  15   13.66   22.15
  -8   0  15  -36.99   76.37
   0  -8  15   30.02   33.73
   0   8  15    2.35   29.97
   1   8 -15  423.03  118.55
   8  -1 -15  370.88   91.70
  -1  -8 -15  394.83   96.29
  -8   1  15  401.26  111.17
  -1  -8  15  482.24   82.97
  -8   1  15  486.24   79.10
  -1  -8  15  352.16  132.49
   2   8 -15  205.95   88.85
   8  -2 -15  169.44   46.00
  -8   2  15   40.55   73.76
  -2  -8  15  141.21  106.43
  -8   2  15  107.46   31.63
  -2  -8  15   76.77   37.83
   8  -3 -15  430.02   97.89
   3   8 -15  529.01  122.47
  -3  -8  15  391.07   87.50
  -8   3  15  475.72  116.72
  -3  -8  15  365.42  138.35
   4   8 -15   95.64   81.17
   4   8 -15    3.42   59.85
  -4  -8  15   75.34  108.85
  -4  -8  15   93.52   33.67
  -8   4  15  118.30   70.94
   5   8 -15   43.92   68.38
   5   8 -15  100.02   89.92
  -5  -8  15    7.05  107.28
  -5  -8  15  250.65   44.24
   6   8 -15   32.96   55.34
   6   8 -15  194.51   82.12
  -6  -8  15   56.14  103.86
  -6  -8  15    9.33   27.90
   8   8 -15    3.61   52.18
  -8  -8  15   22.48   31.71
   9   8 -15   -3.97   64.36
   9   8 -15  224.66   99.93
  -9  -8  15   -4.11  111.70
  -9  -8  15  -27.57   34.15
   9   7 -15   -3.81   61.87
  -9  -7  15   -3.86  103.58
  -9  -7  15   47.80   33.13
   6  -9 -15   42.01   42.13
   9   6 -15   -3.66   51.70
   6  -9 -15    2.15   47.77
  -9  -6  15   -7.68   29.26
   5  -9 -15   79.12   46.47
   5  -9 -15   56.87   42.39
  -5   9  15   51.04   36.37
  -5   9  15   13.69   34.29
   4  -9 -15  409.05   62.10
   4  -9 -15  346.41   71.14
   9   4 -15   -3.38   68.87
  -4   9  15  261.64   59.70
  -4   9  15  232.18   56.29
  -9  -4  15  152.13  105.43
   3  -9 -15   -2.12   34.97
   3  -9 -15  -26.05   51.40
   9   3 -15  -35.86   54.66
  -9  -3  15    3.16   86.05
  -9  -3  15   -6.98   25.85
  -3   9  15    7.00   33.67
  -3   9  15    3.04   34.00
   9   2 -15  419.78   97.80
   2  -9 -15  421.77   98.58
   2  -9 -15  479.47   86.55
  -2   9  15  297.46   80.42
  -9  -2  15  280.05  119.48
  -9  -2  15  411.76   78.22
   1  -9 -15    2.11   30.58
   1  -9 -15  -36.74   54.58
   9   1 -15  -60.64   40.84
  -9  -1  15   -2.24   25.26
  -9  -1  15   40.90   84.26
  -1   9  15   -2.43   33.66
   9   0 -15   38.04   45.54
   0  -9 -15   92.42   57.50
   0  -9 -15   69.89   35.04
   0   9 -15   83.56  110.69
  -9   0  15   93.94   79.83
   0   9  15   25.90   33.95
   0  -9  15   22.73   38.12
  -9   0  15   53.33   28.48
   9  -1 -15   11.37   40.68
   1   9 -15  -64.55   94.89
  -1  -9 -15  -50.72   56.64
  -1  -9  15   52.44   34.85
  -1  -9  15   19.35  104.04
  -9   1  15   19.54   75.87
   1   9  15  -11.36   31.14
   2   9 -15  307.51  123.09
  -2  -9 -15  413.63   92.12
  -9   2  15  417.31  113.44
  -2  -9  15  272.62   80.20
  -2  -9  15  551.11  138.34
   3   9 -15  -82.30   88.83
  -3  -9  15   71.67  110.30
  -3  -9  15   11.13   35.03
  -9   3  15   56.16   74.39
   4   9 -15  280.33  106.64
   4   9 -15  135.58   81.08
  -9   4  15  274.84   91.64
  -4  -9  15  297.60  120.97
  -4  -9  15  386.67   60.52
   5   9 -15  -49.82   81.05
   5   9 -15    3.52   55.12
  -5  -9  15 -166.80  103.31
  -5  -9  15   50.37   31.75
   6   9 -15   -3.85   85.06
   7   9 -15   -3.59   60.82
  -7  -9  15   85.40   33.87
   8   9 -15   -3.78   58.11
   8   9 -15  157.18   99.18
  -8  -9  15   12.16  121.03
  -8  -9  15   -2.61   31.49
   9   9 -15   21.36   89.61
   9   9 -15   -4.14   59.03
  -9  -9  15   20.02   35.14
  -9  -9  15    8.71  128.80
  10   9 -15   -4.69   72.00
 -10  -9  15    4.62  129.72
 -10  -9  15   40.82   38.32
  10   8 -15    4.50   74.82
 -10  -8  15  122.77  125.80
 -10  -8  15  -27.26   37.04
  10   7 -15 -302.77   73.51
 -10  -7  15   -8.79   34.08
 -10  -7  15    4.19  120.80
  10   6 -15    4.16   68.18
   6 -10 -15    2.93   48.67
   6 -10 -15    4.72   51.00
  -6  10  15   19.74   40.79
  -6  10  15   65.93   45.07
 -10  -6  15   11.34   33.28
 -10  -6  15   -4.02  112.66
   5 -10 -15   75.51   54.01
   5 -10 -15   67.05   48.73
  -5  10  15   23.01   44.57
 -10  -5  15  445.71  105.53
  -5  10  15   91.44   43.55
   4 -10 -15   25.88   54.71
   4 -10 -15   13.00   40.89
  -4  10  15  -38.51   41.73
  -4  10  15    7.29   40.28
   3 -10 -15  160.58   52.10
   3 -10 -15  180.74   67.71
  -3  10  15  117.96   48.13
  -3  10  15  116.56   51.87
   2 -10 -15   25.85   37.05
   2 -10 -15  -27.98   58.45
  10   2 -15   -3.62   53.67
 -10  -2  15 -107.46   91.12
  -2  10  15    2.72   36.28
   1 -10 -15   59.29   59.97
   1 -10 -15   25.81   35.73
 -10  -1  15   56.01   90.11
  -1  10  15   54.91   35.58
   0 -10 -15  -46.95   35.66
   0 -10 -15    5.57   58.42
   0 -10  15    3.02   37.83
   0  10  15   14.39   37.66
 -10   0  15  102.91   88.60
  -1 -10 -15  -31.36   39.73
   1  10 -15   28.39  100.62
  -1 -10 -15   46.79   61.37
  -1 -10  15   23.30   37.75
 -10   1  15  -26.77   83.39
   1  10  15    6.21   38.45
  -1 -10  15  -96.83  103.48
   2  10 -15   51.32   93.33
  -2 -10 -15  -70.94   52.89
  -2 -10  15  169.14  107.99
  -2 -10  15  -29.06   37.77
   3  10 -15  224.11  118.77
  -3 -10  15  306.03   68.85
  -3 -10  15  705.89  133.00
   4  10 -15  -73.54   93.44
   4  10 -15  171.12   62.45
  -4 -10  15   54.67   36.90
  -4 -10  15  -46.35  114.65
   5  10 -15   -4.12   94.33
   6  10 -15   -3.63   58.20
   7  10 -15    3.72   62.02
   7  10 -15    4.30  101.12
  -7 -10  15  -17.79   33.53
  -7 -10  15 -289.80  121.97
   8  10 -15    3.95   66.15
   8  10 -15   -4.43   99.70
  -8 -10  15    5.44   34.30
  -8 -10  15  117.79  130.42
   9  10 -15  -59.82  104.55
   9  10 -15 -147.30   72.42
  -9 -10  15   29.69   37.04
  -9 -10  15 -303.32  136.02
  10  10 -15    4.89   80.96
  10  10 -15    4.87  107.60
 -10 -10  15  -22.77   38.77
 -10 -10  15    4.78  136.45
 -11 -10  15    4.91  141.61
 -11  -9  15   24.00  134.21
 -11  -8  15  -89.41  135.93
   6 -11 -15  243.32   60.15
   6 -11 -15   35.37   55.19
  -6  11  15  -27.29   51.45
  -6  11  15   75.05   48.19
   5 -11 -15   21.76   51.35
   5 -11 -15   46.70   63.88
  -5  11  15   60.27   48.82
  -5  11  15   18.79   49.33
   4 -11 -15   28.72   58.65
   4 -11 -15   73.43   48.75
  -4  11  15    9.39   47.23
  -4  11  15   74.83   50.24
   3 -11 -15   59.39   62.68
   3 -11 -15  -16.60   44.97
  -3  11  15  -36.70   44.79
  -3  11  15   -4.14   45.69
   2 -11 -15  -28.35   65.24
   2 -11 -15   16.05   43.39
  -2  11  15   45.66   45.64
  -2  11  15   24.69   44.41
   1 -11 -15   -2.95   69.13
   1 -11 -15  -57.98   39.65
  -1  11  15   21.74   44.49
   0 -11 -15   72.81   40.14
   0 -11 -15  140.12   73.05
   0 -11  15   80.28   43.02
   0  11  15   50.94   42.77
   1  11 -15  -41.99  119.02
  -1 -11 -15   -2.81   39.81
   1  11  15  -23.77   42.52
  -1 -11  15   21.64   39.19
  -1 -11  15  -84.32  116.67
   2  11 -15  -91.68  106.23
  -2 -11  15   24.55  111.43
  -2 -11  15  -36.38   39.23
   3  11 -15   -4.51  103.32
  -3 -11  15    4.04  110.16
  -3 -11  15   -2.96   32.76
   5  11 -15   -3.76   62.40
   6  11 -15    3.82   62.01
   6  11 -15   18.43  104.23
  -6 -11  15   68.80  121.98
  -6 -11  15 -100.93   34.78
   7  11 -15    4.73  109.81
   7  11 -15    3.89   64.28
  -7 -11  15  120.44  122.79
  -7 -11  15   13.20   33.26
   8  11 -15    4.14   65.24
   8  11 -15   48.71  115.33
  -8 -11  15   28.42   36.56
  -8 -11  15 -130.28  126.25
   9  11 -15    5.04  112.18
   9  11 -15    4.54   65.85
  -9 -11  15    6.15   39.80
  -9 -11  15  -88.79  136.10
  10  11 -15    5.12   83.94
  10  11 -15  -62.22  118.61
 -10 -11  15  -23.56   37.58
 -10 -11  15 -202.41  145.96
  11  11 -15 -438.10  151.66
 -11 -11  15    5.01  145.34
   7 -12 -15  -99.79   61.91
   6 -12 -15  101.55   63.71
  -6  12  15   -5.04   52.69
   0 -12 -15  151.17   89.43
   0 -12  15  195.85   56.77
   1  12 -15   71.11  131.99
  -1 -12 -15    3.18   75.59
  -1 -12  15  476.49  137.31
  -1 -12  15   -3.23   36.68
   2  12 -15 -205.38  115.13
  -2 -12 -15 -171.14   70.26
   2  12  15  -16.15   53.03
  -2 -12  15   -4.24  110.80
   4  12 -15    3.98   68.34
  -4 -12  15    5.72   38.14
   5  12 -15    3.84   59.35
   5  12 -15 -138.69  111.79
  -5 -12  15  -13.71   36.61
  -5 -12  15    4.12  123.16
   6  12 -15   -4.98  111.95
   6  12 -15   -3.97   66.96
  -6 -12  15   -4.21  118.50
  -6 -12  15   -2.65   34.21
   7  12 -15    4.07   66.06
   7  12 -15  -62.97  119.54
  -7 -12  15    4.32  127.05
  -7 -12  15   -2.73   33.40
   8  12 -15  -91.99  129.30
   8  12 -15 -112.68   73.92
  -8 -12  15 -193.80  130.07
  -8 -12  15    2.94   38.13
   9  12 -15   -5.57  132.77
   9  12 -15    4.77   80.58
  -9 -12  15  -44.41   41.59
  -9 -12  15  427.31  141.34
  10  12 -15   61.86  127.47
  10  12 -15    5.37   85.38
 -10 -12  15   25.03  138.27
 -10 -12  15  -52.08   44.14
  11  12 -15   27.64  129.14
 -11 -12  15   -5.06  140.63
   7 -13 -15   59.80   68.18
   7 -13 -15  219.94   76.74
   6 -13 -15   30.74   72.48
   6 -13 -15  -60.33   57.92
  -6  13  15   50.35   61.85
  -6  13  15   34.41   56.14
   5 -13 -15    3.11   69.30
   5 -13 -15  -56.21   61.00
  -5  13  15  -60.35   60.80
  -5  13  15   11.74   55.03
   4 -13 -15   -3.20   76.53
   4 -13 -15   43.25   56.13
  -4  13  15   55.35   59.84
  -4  13  15    5.41   62.61
   3 -13 -15   -3.48   51.77
   3 -13 -15    3.27   75.60
  -3  13  15  -99.57   60.97
  -3  13  15  -70.29   56.32
   2 -13 -15   44.58   77.71
   2 -13 -15    3.38   49.17
  -2  13  15   62.92   54.84
  -2  13  15   76.94   62.51
   1 -13 -15 -102.92   51.99
   1 -13 -15 -135.06   83.90
  -1  13  15  -23.62   51.03
  -1  13  15  104.69   65.41
   0 -13 -15    3.31   48.27
   0 -13 -15   17.76   83.70
   0  13  15  -59.64   52.81
  -1 -13 -15 -138.10   77.54
  -1 -13 -15  -60.72   51.04
   1  13  15   70.48   57.08
  -2 -13 -15    3.19   66.13
   2  13  15   35.44   56.66
   3  13 -15  -20.21   69.18
  -3 -13  15   27.03   40.57
  -3 -13  15   -4.26   93.20
   4  13 -15   20.69  114.61
   4  13 -15   68.77   68.53
  -4 -13  15  123.19  122.84
  -4 -13  15   -8.58   37.70
   5  13 -15   47.74   65.94
   5  13 -15   67.29  118.70
  -5 -13  15   13.72   32.30
  -5 -13  15  177.63  124.84
   6  13 -15   -5.40  120.50
   6  13 -15   20.59   66.97
  -6 -13  15   82.58  127.52
  -6 -13  15   18.90   35.10
   7  13 -15  547.89  177.53
  -7 -13  15  686.96  170.35
   8  13 -15    4.55   64.85
   8  13 -15   -6.03  138.07
  -8 -13  15  -97.79  133.29
  -8 -13  15  -12.12   39.78
   9  13 -15   93.34  147.26
   9  13 -15    5.04   82.57
  -9 -13  15   19.41  138.33
  -9 -13  15   -9.76   39.88
  10  13 -15   -5.64   79.88
  10  13 -15    6.20  141.58
 -10 -13  15   15.04  139.20
 -10 -13  15   10.70   45.36
  11  13 -15  130.21  165.16
 -11 -13  15  724.97  176.96
   7 -14 -15   16.13   62.19
   7 -14 -15 -131.09   73.76
  -7  14  15 -145.74   71.09
  -7  14  15  -36.90   59.50
   6 -14 -15   12.20   65.06
   6 -14 -15   10.01   74.90
  -6  14  15 -105.85   67.55
  -6  14  15  -31.21   67.24
   5 -14 -15   16.20   63.66
   5 -14 -15   57.48   71.77
  -5  14  15   21.86   62.22
  -5  14  15  -18.64   65.80
   4 -14 -15 -137.65   85.33
   4 -14 -15 -134.18   68.75
  -4  14  15 -123.73   67.22
  -4  14  15 -160.74   69.38
   3 -14 -15 -135.45   82.28
   3 -14 -15   77.18   59.91
  -3  14  15    4.38   59.25
  -3  14  15  -44.38   75.95
   2 -14 -15   11.25   92.26
   2 -14 -15  -56.37   58.17
  -2  14  15  106.25   61.80
  -2  14  15   12.57   72.15
   1 -14 -15  -89.36   82.81
   1 -14 -15    3.70   58.15
  -1  14  15   26.50   61.31
  -1  14  15  166.32   74.69
   0 -14 -15  138.32   88.06
   0 -14 -15  -25.71   52.17
   0  14  15  -97.76   61.45
  -1 -14 -15  -29.74   55.41
  -1 -14 -15  -18.51   84.62
   1  14  15  -18.42   65.48
  -2 -14 -15  -69.22   72.22
  -2 -14 -15  -15.28   59.35
   2  14  15  -19.49   61.67
  -3 -14 -15   -3.16   66.73
   5  14 -15  -33.07   70.51
   5  14 -15 -247.57  139.83
   6  14 -15   21.12   67.21
   6  14 -15   76.07  139.60
   7  14 -15    4.44   75.35
   7  14 -15   75.56  150.88
  -7 -14  15   48.96   41.40
  -7 -14  15 -199.39  135.57
   8  14 -15   -6.78  152.03
   8  14 -15    4.79   73.20
  -8 -14  15  274.13  146.14
  -8 -14  15   -3.12   38.00
   9  14 -15 -255.57   89.61
   9  14 -15  -83.75  172.10
  -9 -14  15    4.98  146.76
  -9 -14  15   43.27   43.50
  10  14 -15   -5.95   90.10
  10  14 -15  -27.75  155.65
  11  14 -15  -32.38  142.71
 -11 -14  15    9.96  147.90
   7 -15 -15   82.02   76.97
   7 -15 -15   13.03   63.62
  -7  15  15  -42.08   75.22
  -7  15  15  -27.27   69.75
   6 -15 -15   43.71   79.65
   6 -15 -15  -56.77   69.82
  -6  15  15  -48.88   72.49
  -6  15  15   74.69   71.48
   5 -15 -15   30.50   71.87
   5 -15 -15   25.86   83.03
  -5  15  15   33.97   72.96
  -5  15  15   56.52   72.67
   4 -15 -15   15.51   84.56
   4 -15 -15   60.01   69.05
  -4  15  15   14.14   78.84
  -4  15  15   93.43   68.24
   3 -15 -15  -80.46   70.98
   3 -15 -15  -51.33   90.27
  -3  15  15   19.58   75.97
  -3  15  15   -7.25   85.71
   2 -15 -15   44.79   87.12
   2 -15 -15  -49.76   60.51
  -2  15  15   19.85   70.92
  -2  15  15  -79.92   81.96
   1 -15 -15  -28.74   63.10
   1 -15 -15   91.72   95.49
  -1  15  15   41.47   76.68
  -1  15  15   29.61   72.45
   0 -15 -15   -4.16   97.32
   0 -15 -15 -134.44   64.32
   0  15  15   69.46   66.03
  -1 -15 -15 -119.36   62.94
  -1 -15 -15 -162.88   91.29
   1  15  15   10.22   71.88
  -2 -15 -15   50.06   63.88
  -2 -15 -15    3.74   73.06
   2  15  15   53.75   67.43
  -3 -15 -15    3.44   74.34
   7 -16 -15  -68.80   87.01
   7 -16 -15    4.68   71.15
  -7  16  15  -93.83   88.45
  -7  16  15   20.08   73.41
   6 -16 -15  673.66  146.87
   6 -16 -15 1011.25  159.73
  -6  16  15  298.45  152.89
   5 -16 -15 -113.08   89.03
   5 -16 -15 -121.36   75.00
  -5  16  15  -40.20   91.78
  -5  16  15   64.72   71.30
   4 -16 -15 -157.75   74.49
   4 -16 -15  -21.10   94.11
  -4  16  15   48.57   94.93
  -4  16  15   10.90   82.79
   3 -16 -15   78.45  103.10
   3 -16 -15   60.12   66.35
  -3  16  15  -65.46   77.86
  -3  16  15  -99.01   92.75
   2 -16 -15  -18.17   68.36
   2 -16 -15   17.86   99.89
  -2  16  15   -8.24   96.16
  -2  16  15  -27.84   76.93
   1 -16 -15    4.53   71.54
   1 -16 -15  -76.54  104.97
  -1  16  15  -60.56   74.28
  -1  16  15   39.13   90.86
   0 -16 -15    4.50   95.14
   0 -16 -15   36.07   67.69
   0  16  15  -66.42   79.32
   0  16  15 -122.97   81.37
  -1 -16 -15   98.07   97.19
  -1 -16 -15   31.81   65.41
   1  16  15   -5.68   74.52
  -2 -16 -15  -40.24   88.70
  -2 -16 -15   18.33   66.81
   2  16  15   65.35   76.20
  -3 -16 -15  116.49   84.16
   7 -17 -15   35.47   81.81
   7 -17 -15    4.41   92.17
  -7  17  15   87.79   90.01
  -7  17  15  196.87   87.77
   6 -17 -15   40.45   75.56
   6 -17 -15    4.37   98.04
  -6  17  15   79.91   92.90
  -6  17  15  -46.57   80.18
   5 -17 -15    5.02   75.97
   5 -17 -15  -52.60  101.18
  -5  17  15   73.46  108.82
  -5  17  15   29.90   85.85
   4 -17 -15   87.69  106.74
   4 -17 -15  -65.11   77.64
  -4  17  15    9.30  107.07
  -4  17  15 -156.70   85.76
   3 -17 -15 -311.89  125.18
   3 -17 -15 -110.49   77.98
  -3  17  15 -133.93   89.17
  -3  17  15 -168.98  112.24
   2 -17 -15  139.37  109.57
  -2  17  15  218.24  113.30
  -2  17  15   93.53  126.61
   1 -17 -15  168.90   82.35
   1 -17 -15  536.06  137.69
  -1  17  15   49.26   94.59
  -1  17  15   53.32  106.98
   0 -17 -15   -4.98   74.35
   0 -17 -15  138.55  118.44
   0  17  15  -40.10   97.67
   0  17  15  -43.21   85.43
  -1 -17 -15  673.35  128.36
  -1 -17 -15  255.96   90.87
   1  17  15   37.95   97.14
   1  17  15  -95.25   98.24
  -2 -17 -15  919.62  197.47
  -2 -17 -15 1102.16  191.51
   7 -18 -15  -38.58   98.85
   7 -18 -15  -55.34   88.02
  -7  18  15  -69.50  101.98
  -7  18  15  202.66   96.53
   6 -18 -15  -65.34   81.42
   6 -18 -15   38.47  107.48
  -6  18  15 -121.17  111.27
  -6  18  15   19.66   89.97
   5 -18 -15   -4.83  107.26
   5 -18 -15   32.44   82.77
  -5  18  15  -31.43  116.31
  -5  18  15   80.19   99.33
   4 -18 -15  -48.90   83.75
   4 -18 -15   65.74  116.56
  -4  18  15   10.71  120.86
  -4  18  15   60.45   95.17
   3 -18 -15  -54.60   85.66
   3 -18 -15  221.27  120.46
  -3  18  15  -40.87   97.15
  -3  18  15  -42.62  119.86
   2 -18 -15  105.45  117.31
   2 -18 -15    5.44   74.16
  -2  18  15 -241.41  126.44
  -2  18  15   20.85   95.27
   1 -18 -15  141.93  123.93
   1 -18 -15   86.90   81.80
  -1  18  15  -59.62  111.21
  -1  18  15  171.50   97.95
   0 -18 -15 -281.44  122.69
   0 -18 -15   10.97   82.05
   0  18  15   61.99   96.39
   0  18  15   -8.99   97.56
  -1 -18 -15   71.75   78.19
  -1 -18 -15 -208.67  117.62
   1  18  15   16.13   91.55
   1  18  15   49.36   94.92
  -2 -18 -15   27.93  101.96
  -2 -18 -15 -177.97   85.58
   2  18  15   43.91   92.92
  -3 -18 -15 -206.78   98.32
  -2  19  15  -61.72  106.37
   1   0 -16   37.28   59.68
  -1   0  16   -2.94   73.87
   0   1  16  -18.12   29.69
  -1   0  16   22.91   24.03
   0  -1  16  -11.33   33.39
   1  -1 -16  972.92  180.60
   1   1 -16  683.00  178.41
  -1   1  16  702.01  192.99
  -1  -1  16  656.58  194.58
  -1  -1  16  910.15  149.25
   1  -2 -16   58.26   64.69
   2   1 -16  121.45   58.10
   1  -2 -16   35.71   28.07
  -2  -1  16   51.01   24.79
  -2  -1  16   20.05   71.52
  -1   2  16   49.05   26.49
   2   0 -16  119.83   55.48
   0   2 -16  180.85   77.73
   0   2  16   16.84   27.85
   0  -2  16   45.94   33.99
  -2   0  16   25.25   25.08
  -2   0  16    8.24   69.69
   1   2 -16  110.21   64.21
   2  -1 -16   66.94   55.61
  -2   1  16   44.22   23.38
  -2   1  16   29.21   68.50
  -1  -2  16   34.11   28.95
  -1  -2  16   93.51   80.49
   2  -2 -16  167.54   61.12
   2   2 -16  109.25   64.00
  -2  -2  16  244.96   83.23
  -2   2  16  159.68   76.02
  -2  -2  16  117.90   37.37
  -2   2  16  112.67   32.65
   2  -3 -16  520.34  108.95
   2  -3 -16  584.16  117.72
   3   2 -16  555.06  119.26
  -3  -2  16  506.95  131.53
  -3  -2  16  427.55   96.17
  -2   3  16  487.39  133.24
  -2   3  16  528.96   95.29
   3   1 -16  107.53   58.22
  -1   3  16   50.57   24.95
  -3  -1  16   35.48   25.01
  -3  -1  16   56.32   75.79
   3   0 -16    4.88   51.46
   0   3 -16   40.33   76.47
   0  -3  16  -22.77   34.13
  -3   0  16    9.34   22.78
   0   3  16  -15.57   26.60
  -3   0  16   -5.38   70.89
   1   3 -16    3.23   57.77
   3  -1 -16   16.32   48.41
  -1  -3  16   77.56   26.91
  -3   1  16   19.55   24.03
  -1  -3  16  -41.93   76.64
  -3   1  16   59.40   71.38
   2   3 -16  568.50  121.07
   3  -2 -16  587.29  112.89
  -2  -3  16  290.77   93.25
  -2  -3  16  545.93  139.13
  -3   2  16  541.61  128.60
  -3   2  16  445.25   90.39
   3   3 -16  213.41   77.05
   3  -3 -16  206.39   65.51
  -3   3  16  209.48   83.12
  -3  -3  16  201.62   46.56
  -3  -3  16  281.37   94.22
  -3   3  16  194.21   43.38
   4   3 -16  -81.86   64.15
   3  -4 -16  -35.93   49.17
  -4  -3  16    9.24   83.85
  -3   4  16  -62.27   66.26
  -4  -3  16  -32.60   26.27
  -3   4  16    7.41   19.06
   2  -4 -16    1.18   29.14
   4   2 -16   53.58   57.09
   2  -4 -16    2.57   59.79
  -2   4  16   54.73   66.84
  -4  -2  16  -55.85   82.44
  -2   4  16    6.42   20.25
  -4  -2  16    4.11   25.69
   4   1 -16  284.96   79.30
   1  -4 -16  318.77   66.98
  -4  -1  16  238.73   93.95
  -4  -1  16  265.61   54.60
  -1   4  16  198.19   53.94
   0  -4 -16   50.45   33.05
   4   0 -16  168.75   54.70
   0   4 -16   74.04   87.27
  -4   0  16   72.49   75.62
   0   4  16   27.04   27.96
  -4   0  16   54.07   24.92
   4  -1 -16  314.25   80.39
   1   4 -16  214.63   93.90
  -4   1  16  305.36   96.17
  -1  -4  16  221.08  107.90
  -4   1  16  331.32   57.21
   4  -2 -16   34.29   49.56
   4  -2 -16   -7.84   32.13
   2   4 -16   31.63   68.94
  -4   2  16  -36.85   69.24
  -4   2  16   -1.57   19.15
  -2  -4  16  149.96   88.29
   4  -3 -16   12.55   28.51
   3   4 -16   21.08   63.96
   4  -3 -16   32.16   45.48
  -4   3  16   -5.80   18.17
  -4   3  16    2.36   65.62
  -3  -4  16   11.55   29.02
  -3  -4  16  -29.08   83.89
   4  -4 -16   -1.60   25.96
   4  -4 -16   24.62   42.76
   4   4 -16    2.97   63.01
  -4  -4  16   32.12   28.62
  -4   4  16  -11.91   16.27
  -4  -4  16    3.23   90.16
  -4   4  16  -42.92   67.53
   5   4 -16   20.61   43.20
   5   4 -16   58.74   64.80
  -4   5  16  156.63   70.04
  -4   5  16   65.99   20.05
  -5  -4  16   62.56   88.84
  -5  -4  16   40.54   29.48
   3  -5 -16    1.28   32.44
   5   3 -16   16.75   58.23
   5   3 -16   19.42   39.56
   3  -5 -16    1.27   20.69
  -3   5  16  130.77   67.76
  -5  -3  16    2.99   85.26
  -3   5  16  -26.15   17.26
  -5  -3  16  -14.16   26.22
   2  -5 -16  533.30  121.34
   5   2 -16  501.13  124.11
   2  -5 -16  585.72  113.39
   5   2 -16  684.27  130.58
   2  -5 -16  450.62  131.69
  -2   5  16  621.82  103.25
  -5  -2  16  383.79  102.45
  -5  -2  16  653.72  143.95
   5   1 -16   -2.46   38.67
   1  -5 -16   -1.69   39.02
   5   1 -16   30.50   54.33
  -5  -1  16    5.48   76.31
  -1   5  16  -15.29   23.63
  -5  -1  16   -3.64   22.08
   0   5 -16   59.54   83.01
   0  -5 -16   -8.71   35.51
   5   0 -16   11.45   31.65
   5   0 -16   -9.72   51.29
   0   5  16   30.18   27.54
  -5   0  16   27.29   20.49
   0  -5  16   -8.33   31.77
  -5   0  16  -36.80   71.49
   5  -1 -16   12.58   33.90
   5  -1 -16   -9.27   51.95
   1   5 -16   80.80   78.17
  -5   1  16   -3.23   19.85
  -1  -5  16   24.39   88.82
  -1  -5  16    2.47   27.50
  -5   1  16    5.04   71.61
   5  -2 -16  766.10  130.90
   2   5 -16  550.74  142.13
   5  -2 -16  438.96  122.13
  -5   2  16  617.96  107.34
  -2  -5  16  587.35  111.53
  -5   2  16  636.51  142.49
  -2  -5  16  524.64  156.05
   3   5 -16   -6.39   68.45
   5  -3 -16  -13.85   28.57
   5  -3 -16    8.25   46.65
  -5   3  16   -2.79   17.19
  -3  -5  16   37.28   90.26
  -3  -5  16  -19.46   31.63
  -5   3  16    9.24   69.60
   4   5 -16   34.61   69.86
   5  -4 -16   86.97   30.47
   5  -4 -16    9.60   44.64
  -4  -5  16  -53.98   96.49
  -5   4  16   44.10   20.17
  -5   4  16   79.66   69.84
   5   5 -16  -24.89   67.99
  -5  -5  16  -19.64   89.39
   6   5 -16   51.80   79.62
   6   4 -16   25.80   44.84
   6   4 -16   26.04   62.44
  -6  -4  16  -61.39   83.65
  -6  -4  16    2.08   24.68
   6   3 -16  176.14   60.01
   6   3 -16  188.42   77.18
   3  -6 -16  165.37   44.08
   3  -6 -16  131.92   53.32
  -3   6  16  222.35   40.90
  -6  -3  16  106.17   89.39
  -3   6  16  157.83   42.46
  -6  -3  16  182.00   42.80
   2  -6 -16   57.42   39.31
   2  -6 -16   78.87   26.97
   6   2 -16  135.62   60.57
   6   2 -16   30.70   37.69
  -2   6  16   30.01   24.06
  -6  -2  16   99.38   79.84
  -6  -2  16   22.39   22.12
   6   1 -16  318.98   72.96
   6   1 -16  200.43   58.87
   1  -6 -16  118.54   62.08
  -1   6  16  202.72   44.68
  -6  -1  16  199.96   42.58
  -6  -1  16  123.52   87.18
   0  -6 -16  149.05   53.12
   6   0 -16  127.60   61.59
   6   0 -16  150.42   44.94
   0   6 -16  106.84   94.60
  -6   0  16  116.64   77.09
  -6   0  16  112.18   32.25
   0  -6  16  152.98   42.80
   6  -1 -16  148.16   70.92
   6  -1 -16  208.24   56.95
   1   6 -16  252.19   87.25
  -1  -6  16  165.65   50.93
  -1  -6  16  203.15  109.67
  -6   1  16  166.25   86.45
  -6   1  16  297.16   44.47
   2   6 -16   60.06   79.23
   6  -2 -16   66.88   35.70
   6  -2 -16   63.05   52.42
  -6   2  16   56.22   23.94
  -2  -6  16   89.13   34.04
  -2  -6  16  -46.26   94.94
  -6   2  16  125.32   72.34
   6  -3 -16  187.99   57.18
   3   6 -16  126.03   82.62
   6  -3 -16  427.94   73.12
  -6   3  16  246.44   85.79
  -6   3  16  224.02   49.02
  -3  -6  16  394.70  113.61
  -3  -6  16  358.76   55.54
   4   6 -16   13.33   73.93
   6  -4 -16   29.71   26.45
   6  -4 -16  -70.62   48.48
  -4  -6  16  -10.03   29.54
  -6   4  16  -22.20   68.27
  -6   4  16   16.23   17.55
  -4  -6  16  -53.05   90.67
   5   6 -16   10.00   84.00
   5   6 -16  118.18   57.96
  -5  -6  16  102.05   32.79
  -5  -6  16 -134.35  107.97
   6   6 -16    3.27   71.30
   6   6 -16    3.20   47.39
  -6  -6  16    3.38   93.70
  -6  -6  16  101.22   30.62
   7   6 -16   13.04   73.12
   7   6 -16  132.26   57.78
  -7  -6  16    3.45   98.96
  -7  -6  16  223.39   37.35
   7   5 -16  -89.20   66.17
  -7  -5  16    3.29   89.81
   4  -7 -16  145.82   48.49
   7   4 -16    3.00   54.57
   4  -7 -16  178.32   38.77
   7   4 -16    2.92   73.69
  -7  -4  16  156.39   35.84
  -7  -4  16  231.59   94.97
   7   3 -16   71.11   55.18
   3  -7 -16  111.06   39.21
   3  -7 -16  151.30   51.41
   7   3 -16    2.83   68.38
  -3   7  16  160.37   36.80
  -7  -3  16  454.86  103.34
  -3   7  16  135.87   38.48
  -7  -3  16  153.78   37.00
   7   2 -16  360.73   87.58
   2  -7 -16  235.80   74.44
   2  -7 -16  233.34   64.31
   7   2 -16  215.44   74.10
  -2   7  16  301.76   59.35
  -7  -2  16  284.85  105.93
  -7  -2  16  364.13   58.43
   1  -7 -16  187.43   55.57
   7   1 -16  142.95   66.19
   7   1 -16  128.66   50.86
   1  -7 -16  159.97   41.69
  -7  -1  16  195.43   85.06
  -7  -1  16  150.07   35.01
  -1   7  16  121.98   37.96
   0  -7 -16    4.51   48.48
   0   7 -16   33.06   95.99
   7   0 -16   21.91   58.91
   7   0 -16    2.38   36.87
  -7   0  16  -80.03   76.30
  -7   0  16   -5.31   22.22
   0  -7  16   30.90   34.93
   7  -1 -16   88.99   43.96
  -1  -7 -16  152.69   49.63
   7  -1 -16   -2.73   64.11
   1   7 -16    3.95   80.28
  -1  -7  16  121.10   41.26
  -1  -7  16  162.56  107.43
  -7   1  16  155.32   80.80
  -7   1  16  169.84   31.76
   7  -2 -16  410.54   91.42
   2   7 -16  277.29  105.74
   7  -2 -16  206.84   73.63
  -2  -7  16  392.39   68.47
  -2  -7  16  336.59  124.05
  -7   2  16  364.99   63.47
  -7   2  16  343.32   97.12
   7  -3 -16  108.56   45.11
   3   7 -16   65.67   90.96
   7  -3 -16  254.83   68.23
  -3  -7  16  440.01  124.91
  -3  -7  16  253.62   48.36
  -7   3  16  176.07   38.73
  -7   3  16  156.64   80.19
   4   7 -16   10.66   85.86
   7  -4 -16  134.14   60.10
   7  -4 -16  156.31   43.61
  -7   4  16  185.14   74.39
  -4  -7  16  108.02   42.34
  -4  -7  16  136.91  111.79
  -7   4  16  158.07   35.11
   5   7 -16    3.45   57.46
   5   7 -16   10.68   80.66
  -5  -7  16   10.88   98.57
  -5  -7  16  -10.00   33.92
   6   7 -16   97.71   80.65
   6   7 -16    3.34   56.45
  -6  -7  16    7.14  111.09
  -6  -7  16  103.84   35.05
   8   7 -16    3.58   60.25
  -8  -7  16  -12.41   31.01
   8   5 -16    3.24   64.80
  -8  -5  16    3.38   97.50
   8   4 -16  119.05   56.97
   8   4 -16   62.92   74.82
   4  -8 -16  120.39   37.91
   4  -8 -16  139.42   50.24
  -8  -4  16    6.41   90.43
  -4   8  16  112.94   35.23
  -4   8  16  126.81   41.49
  -8  -4  16   61.97   32.91
   3  -8 -16   55.74   44.58
   8   3 -16    3.00   46.00
   3  -8 -16   29.02   30.84
  -3   8  16   62.73   28.46
  -3   8  16   26.47   25.59
  -8  -3  16   34.24   28.01
  -8  -3  16  -64.28   83.45
   2  -8 -16  144.93   50.74
   2  -8 -16  283.73   66.33
   8   2 -16  148.72   64.45
  -2   8  16  204.68   47.94
  -8  -2  16  200.25   45.46
  -8  -2  16  224.41   90.38
   8   1 -16   54.49   44.19
   1  -8 -16   33.75   31.97
   1  -8 -16   74.44   54.20
  -8  -1  16   42.94   25.57
  -8  -1  16    5.63   78.66
  -1   8  16   15.65   29.74
   0   8 -16    5.09  107.30
   8   0 -16   10.38   41.50
   0  -8 -16   49.26   54.66
  -8   0  16   64.11   22.09
   0   8  16   29.64   31.74
   0  -8  16   60.84   37.29
  -8   0  16  -21.92   78.51
   8  -1 -16   -2.47   35.71
   1   8 -16   38.22   89.90
  -1  -8 -16  -18.09   49.32
  -8   1  16  126.09   74.78
  -8   1  16   27.69   23.43
  -1  -8  16    3.94  107.20
  -1  -8  16   -5.51   34.05
   8  -2 -16  219.24   60.69
   2   8 -16  138.89   98.52
  -2  -8  16  239.70   56.10
  -2  -8  16  424.81  124.96
  -8   2  16  220.41   90.09
  -8   2  16  277.14   50.71
   3   8 -16   82.46   86.17
   8  -3 -16   66.73   40.34
  -8   3  16   48.15   75.48
  -8   3  16   72.89   24.91
  -3  -8  16   93.09   38.05
  -3  -8  16 -209.74  110.01
   4   8 -16  -26.49   88.69
  -4  -8  16    3.84  114.10
  -8   4  16  164.47   74.53
  -4  -8  16  132.39   40.65
   5   8 -16   90.88   61.50
   5   8 -16    3.80   83.68
  -5  -8  16  -30.54  112.83
  -5  -8  16   41.91   31.87
   6   8 -16   -3.78   81.26
   7   8 -16    3.63   59.29
  -7  -8  16    2.47   30.58
   8   8 -16 -209.55   64.65
   8   8 -16    3.89   87.67
  -8  -8  16  -15.54   34.39
  -8  -8  16 -181.04  120.43
   9   8 -16   -4.05   69.00
   9   8 -16   69.84   91.16
  -9  -8  16  -98.87  122.05
  -9  -8  16   93.61   37.86
   9   7 -16  -81.42   89.29
   9   7 -16    3.89   66.45
  -9  -7  16 -297.97  116.35
  -9  -7  16  -27.28   34.51
   9   6 -16   -3.73   60.19
  -9  -6  16    3.80  107.86
  -9  -6  16   47.33   29.98
   4  -9 -16  -35.78   48.38
   4  -9 -16  -33.01   33.82
  -4   9  16    3.23   38.34
  -4   9  16   16.41   34.70
   3  -9 -16  269.08   67.01
   3  -9 -16  202.74   53.59
   9   3 -16   -3.32   63.46
  -3   9  16  191.33   54.48
  -3   9  16  236.24   49.68
  -9  -3  16   87.29  100.47
   9   2 -16   -3.19   49.57
   2  -9 -16   80.32   52.26
   2  -9 -16   60.10   33.77
  -9  -2  16  125.50   84.87
  -2   9  16   49.85   34.00
  -9  -2  16   39.64   31.05
   1  -9 -16    6.46   33.00
   9   1 -16    9.24   48.42
   1  -9 -16   80.07   58.07
  -1   9  16   51.76   35.93
  -9  -1  16   50.05   30.60
  -9  -1  16  -67.03   85.95
   0  -9 -16   -2.31   32.98
   0   9 -16  -22.29  112.65
   0  -9 -16   45.02   59.53
   9   0 -16  -26.66   43.16
  -9   0  16   50.80   81.28
   0  -9  16  -72.11   38.36
   0   9  16  -37.50   36.47
  -9   0  16   -9.05   26.09
  -1  -9 -16   33.56   56.72
   9  -1 -16   68.23   46.18
   1   9 -16    4.60   97.69
  -1  -9  16   55.00   37.81
  -1  -9  16   94.46  109.34
  -9   1  16   29.41   27.53
  -9   1  16   -8.83   86.31
   2   9 -16  118.39   92.39
   9  -2 -16   11.10   43.28
  -9   2  16    8.71   83.97
  -2  -9  16  -76.46  108.94
  -2  -9  16   52.70   38.40
   3   9 -16  349.45  116.64
  -3  -9  16  447.89   70.73
  -3  -9  16  193.88  129.86
  -9   3  16  306.05  103.47
   4   9 -16 -101.65   92.25
   4   9 -16  153.42   66.91
  -9   4  16   73.46   81.08
  -4  -9  16    3.99  111.97
  -4  -9  16  138.94   38.83
   5   9 -16   -4.07   95.39
   6   9 -16   -3.66   60.70
   7   9 -16    3.79   64.09
   7   9 -16  -78.71   96.14
  -7  -9  16    4.01  118.86
  -7  -9  16  -49.01   33.57
   8   9 -16    4.24   97.69
   8   9 -16    3.92   68.89
  -8  -9  16   58.93  118.76
  -8  -9  16   19.01   35.82
   9   9 -16   17.65   93.73
   9   9 -16   -4.24   64.47
  -9  -9  16    4.52  127.03
  -9  -9  16   11.81   37.62
  10   9 -16    4.72  100.03
  10   9 -16    4.76   67.31
 -10  -9  16    4.85  132.73
 -10  -9  16   28.78   41.19
  10   8 -16    4.57   69.55
 -10  -8  16  -15.41   39.29
 -10  -8  16 -174.11  131.62
  10   7 -16    4.39   65.25
 -10  -7  16    8.60  117.99
 -10  -7  16  -14.88   37.32
  10   6 -16    4.23   63.88
 -10  -6  16   11.51   37.05
 -10  -6  16 -170.15  115.74
   5 -10 -16   -5.56   45.28
   5 -10 -16   35.51   51.66
  10   5 -16   28.52   63.90
 -10  -5  16   -2.80   34.02
 -10  -5  16   -3.87  110.46
   4 -10 -16  100.89   58.54
   4 -10 -16  206.00   49.10
  10   4 -16    3.93   66.41
  -4  10  16  102.68   44.67
 -10  -4  16   60.10   39.32
 -10  -4  16  385.01  105.51
  -4  10  16  122.14   50.01
   3 -10 -16   50.61   56.43
   3 -10 -16    2.41   39.34
 -10  -3  16   -2.67   30.43
  -3  10  16   -2.65   37.70
  -3  10  16    3.62   40.42
   2 -10 -16   25.74   39.33
   2 -10 -16  141.17   61.59
  -2  10  16   97.48   40.09
  10   1 -16   -3.53   45.20
   1 -10 -16  -27.46   60.91
   1 -10 -16  -37.93   36.72
 -10  -1  16   -9.88   93.05
  -1  10  16  -27.60   35.06
   0 -10 -16   39.95   65.34
   0 -10 -16   -2.49   35.51
 -10   0  16  -45.16   91.75
   0  10  16   -5.89   37.79
   0 -10  16   31.84   41.39
  -1 -10 -16    2.80   62.19
   1  10 -16   -5.04  108.74
  -1 -10  16   64.29  118.94
   1  10  16  -12.90   37.22
  -1 -10  16  -67.26   39.24
 -10   1  16   22.26   85.80
  -2 -10 -16   48.56   55.48
   2  10 -16    4.50   96.05
  -2 -10  16    4.19  116.68
  -2 -10  16   27.53   41.60
 -10   2  16   -6.29   89.72
   3  10 -16   -4.48  103.50
 -10   3  16  -18.57   87.93
  -3 -10  16 -116.63  123.16
 -10   4  16  192.18   94.60
   5  10 -16   -3.92   63.95
  -5 -10  16   -2.82   34.11
   6  10 -16    4.48  103.36
   6  10 -16   -3.83   68.03
  -6 -10  16   59.58   36.81
   7  10 -16    4.54  107.00
   7  10 -16    3.95   68.28
  -7 -10  16    4.23  119.85
  -7 -10  16   18.81   37.33
   8  10 -16    4.10   64.30
   8  10 -16   -4.63  106.13
  -8 -10  16  118.47  129.06
  -8 -10  16   25.47   37.12
   9  10 -16    4.44   71.19
   9  10 -16   67.38  104.59
  -9 -10  16   46.31   39.16
  -9 -10  16   -4.72  133.26
  10  10 -16    4.97   85.28
  10  10 -16   -5.03  108.11
 -10 -10  16   -5.05  142.58
 -10 -10  16   53.11   39.42
  11  10 -16    5.28  123.17
  11  10 -16   -5.61   91.32
 -11 -10  16 -267.16  153.34
  11   9 -16 -134.40   82.61
 -11  -9  16 -157.90  147.70
  11   8 -16    5.17   84.57
 -11  -8  16    4.84  134.79
  11   7 -16   29.88   79.01
 -11  -7  16  -27.89  134.42
 -11  -6  16    4.45  125.68
  11   5 -16    4.65   70.14
   5 -11 -16  -12.97   59.36
   5 -11 -16   53.17   51.98
 -11  -5  16   50.73  118.85
  -5  11  16   38.98   49.59
  -5  11  16   21.85   46.57
   4 -11 -16  -63.79   50.03
   4 -11 -16  -49.48   63.35
  -4  11  16   29.69   47.36
  -4  11  16   27.78   46.21
   3 -11 -16 -170.15   71.44
   3 -11 -16   57.79   44.14
  -3  11  16   12.65   42.52
  -3  11  16   42.40   45.65
   2 -11 -16  -18.58   40.51
   2 -11 -16   14.30   66.32
  -2  11  16   12.35   44.28
  -2  11  16   39.24   50.36
   1 -11 -16  -58.05   40.73
   1 -11 -16  234.62   72.53
  -1  11  16  -21.62   43.43
   0 -11 -16   -3.11   50.71
   0 -11 -16  -16.35   41.19
   0 -11  16   -3.40   37.53
   0  11  16  -22.76   46.88
   1  11 -16  -16.68  121.33
  -1 -11 -16  -28.83   43.80
  -1 -11  16   17.88  124.19
   1  11  16   -3.51   42.52
   2  11 -16   -4.87  112.31
   4  11 -16   12.35   66.22
  -4 -11  16    9.00   38.87
   5  11 -16   14.10  108.18
   5  11 -16   -4.02   62.96
  -5 -11  16   43.38   35.85
  -5 -11  16    4.28  123.18
   6  11 -16    4.01   61.20
   6  11 -16    4.84  111.36
  -6 -11  16   36.33   35.37
  -6 -11  16   -4.35  123.00
   7  11 -16  -54.82  121.66
   7  11 -16    4.09   67.08
  -7 -11  16  198.98  133.98
  -7 -11  16  -16.75   35.40
   8  11 -16 -123.21  116.47
   8  11 -16  -55.82   70.46
  -8 -11  16  -20.64   38.97
  -8 -11  16 -216.07  144.39
   9  11 -16 -333.66  119.75
   9  11 -16    9.31   82.35
  -9 -11  16  209.01  149.12
  -9 -11  16    9.60   39.87
  10  11 -16    5.20   81.02
  10  11 -16   16.32  122.84
 -10 -11  16   10.38  154.90
 -10 -11  16   41.37   45.48
  11  11 -16   -5.86   86.48
  11  11 -16   27.63  120.24
 -11 -11  16   -5.38  149.24
   5 -12 -16  -31.24   58.51
  -5  12  16   -4.90   54.39
   4 -12 -16   -2.88   63.07
   2 -12 -16   -3.13   73.46
   1 -12 -16   66.03   77.48
   0 -12 -16  142.21   86.25
  -1 -12 -16  204.54   55.22
  -1 -12 -16   93.55   76.75
   1  12  16   80.95   53.76
  -2 -12 -16  -55.91   67.92
  -3 -12  16   48.78   43.33
  -3 -12  16   -4.39  106.23
   4  12 -16   61.60  117.80
   4  12 -16    4.22   63.24
  -4 -12  16   -6.17   37.13
  -4 -12  16    4.42  128.65
   5  12 -16  -35.65  119.53
   5  12 -16    4.14   67.70
  -5 -12  16   71.11   39.31
  -5 -12  16   17.64  126.82
   6  12 -16    5.24  119.36
   6  12 -16    4.20   67.48
  -6 -12  16   22.82   36.04
  -6 -12  16 -261.02  130.12
   7  12 -16    5.51  124.12
   7  12 -16    4.26   71.42
  -7 -12  16 -327.76  139.31
  -7 -12  16   -2.89   37.14
   8  12 -16  187.75  141.89
   8  12 -16   17.96   75.29
  -8 -12  16   30.65   41.00
  -8 -12  16   62.21  141.94
   9  12 -16   52.86  128.98
   9  12 -16    4.88   80.58
  -9 -12  16   42.97   44.12
  -9 -12  16  -50.05  145.20
  10  12 -16   -5.45   87.89
  10  12 -16   -5.95  128.54
 -10 -12  16  -68.40  155.06
 -10 -12  16    3.58   43.22
  11  12 -16    6.15   91.49
  11  12 -16  -94.11  140.21
 -11 -12  16 -221.75  156.74
   6 -13 -16  198.56   77.64
   6 -13 -16   15.57   64.07
   5 -13 -16   89.94   68.14
   5 -13 -16   94.84   63.84
  -5  13  16   35.26   57.99
  -5  13  16   33.31   64.51
   4 -13 -16 -159.64   60.23
   4 -13 -16    6.38   72.11
  -4  13  16   -5.56   63.52
  -4  13  16   27.47   58.12
   3 -13 -16    3.29   74.51
   3 -13 -16   24.50   57.21
  -3  13  16  -31.10   57.78
  -3  13  16   45.66   63.26
   2 -13 -16   96.97   84.39
   2 -13 -16  -87.68   53.73
  -2  13  16  -97.12   67.34
  -2  13  16  -43.51   55.08
   1 -13 -16   19.80   51.27
   1 -13 -16 -177.12   85.68
  -1  13  16  -47.08   53.36
   0 -13 -16    3.35   51.50
   0 -13 -16  -54.70   86.77
   0  13  16  -12.12   56.39
   0 -13  16   39.27   47.14
  -1 -13 -16   47.61   50.20
  -1 -13 -16   13.99   79.96
  -1 -13  16   17.93   46.98
   1  13  16   29.62   54.05
   2  13 -16    5.87  127.31
  -2 -13 -16   63.56   68.73
  -2 -13  16    3.48   47.68
  -2 -13  16   27.78  125.74
   2  13  16   50.26   55.89
   3  13 -16  -30.23   73.59
   3  13 -16   64.51  122.38
  -3 -13  16  -19.52   42.42
  -3 -13  16  -81.33  126.54
   4  13 -16   -8.65   72.24
   4  13 -16  -16.36  120.90
  -4 -13  16    4.50  126.11
  -4 -13  16  -55.72   39.47
   5  13 -16   -5.52  120.40
   5  13 -16    4.20   69.87
  -5 -13  16  -29.82   38.88
  -5 -13  16  213.34  136.80
   6  13 -16   96.40  149.90
   6  13 -16  260.96   81.14
  -6 -13  16  -20.30   40.42
  -6 -13  16    4.62  134.17
   7  13 -16    4.44   74.01
   7  13 -16    6.01  144.22
  -7 -13  16   47.49   35.84
  -7 -13  16 -244.21  141.52
   8  13 -16    6.36  142.33
   8  13 -16    4.70   76.27
  -8 -13  16   12.71   39.66
  -8 -13  16    4.96  144.51
   9  13 -16   -5.13   80.00
   9  13 -16  -84.83  152.80
  -9 -13  16   30.61   44.05
  -9 -13  16    5.15  142.77
  10  13 -16    5.72   86.40
  10  13 -16   52.18  153.85
 -10 -13  16    7.37   44.88
 -10 -13  16 -249.26  153.67
  11  13 -16   37.93  138.07
 -11 -13  16 -268.87  168.92
   6 -14 -16   41.94   68.61
   6 -14 -16   -3.32   74.10
  -6  14  16   75.89   67.93
  -6  14  16  -71.33   63.69
   5 -14 -16   53.37   64.60
   5 -14 -16 -169.58   74.37
  -5  14  16   69.62   62.59
  -5  14  16   25.33   71.35
   4 -14 -16  107.78   66.80
   4 -14 -16    3.53   84.81
  -4  14  16  -17.43   65.38
  -4  14  16   63.73   73.75
   3 -14 -16    3.89   60.40
   3 -14 -16   85.99   84.26
  -3  14  16    8.74   63.44
  -3  14  16   33.05   78.16
   2 -14 -16    3.77   61.08
   2 -14 -16 -117.49   90.04
  -2  14  16   33.06   73.17
  -2  14  16  -66.71   67.86
   1 -14 -16  106.81   91.92
   1 -14 -16  -99.68   53.56
  -1  14  16   71.51   76.96
  -1  14  16  -66.06   58.14
   0 -14 -16   54.85   89.56
   0 -14 -16  100.40   57.34
   0  14  16  -53.70   58.79
  -1 -14 -16   15.00   54.27
  -1 -14 -16    3.74   76.99
   1  14  16  -37.51   63.46
  -2 -14 -16 -134.23   78.68
   2  14  16   65.01   61.66
   3  14 -16  746.26  149.38
   3  14 -16  140.12   94.05
   4  14 -16  -21.65   71.06
   4  14 -16 -322.86  146.98
   5  14 -16  -17.37   73.50
   5  14 -16  -12.04  131.24
  -5 -14  16   -2.97   38.56
  -5 -14  16    4.64  132.68
   6  14 -16   37.16  143.13
   6  14 -16   -4.48   75.95
  -6 -14  16    4.73  132.81
  -6 -14  16    2.93   35.95
   7  14 -16  111.89  155.08
   7  14 -16   -4.61   73.32
  -7 -14  16    4.93  146.54
  -7 -14  16   18.27   39.08
   8  14 -16    7.04  151.22
   8  14 -16   -9.83   76.09
  -8 -14  16    5.14  156.21
  -8 -14  16  -26.03   41.26
   9  14 -16  -58.46  171.02
   9  14 -16    5.42   88.45
  -9 -14  16 -349.15  166.74
  -9 -14  16  -48.71   47.90
  10  14 -16    6.04   98.34
  10  14 -16   -7.28  166.34
 -10 -14  16   10.80  160.06
 -10 -14  16   -3.78   45.74
  11  14 -16 -110.38  165.11
 -11 -14  16  271.71  156.21
   6 -15 -16   -4.49   67.03
   6 -15 -16    3.61   81.37
  -6  15  16 -106.62   77.90
  -6  15  16  -92.90   68.28
   5 -15 -16   -3.69   86.80
   5 -15 -16  -17.71   67.46
  -5  15  16  -36.15   80.31
  -5  15  16  -57.60   69.64
   4 -15 -16 -195.97   70.24
   4 -15 -16  -38.83   83.88
  -4  15  16   38.75   70.93
  -4  15  16  -51.20   87.10
   3 -15 -16  -31.74   89.76
   3 -15 -16    4.30   68.79
  -3  15  16  -48.99   70.35
  -3  15  16    7.57   87.91
   2 -15 -16   12.59   93.72
   2 -15 -16   46.07   66.10
  -2  15  16   68.74   88.70
  -2  15  16  -19.97   71.92
   1 -15 -16 -343.94  101.24
   1 -15 -16   12.33   60.09
  -1  15  16  -98.69   71.22
  -1  15  16    7.28   86.03
   0 -15 -16   24.75   61.38
   0 -15 -16 -160.92   91.23
   0  15  16  -24.99   72.36
  -1 -15 -16   33.19   65.61
  -1 -15 -16   12.04   93.44
   1  15  16   62.51   69.36
  -2 -15 -16    3.72   77.48
   2  15  16   27.53   67.97
   6 -16 -16   59.21   85.96
   6 -16 -16    9.58   74.08
  -6  16  16  -25.61   77.11
  -6  16  16   24.08   88.90
   5 -16 -16  971.06  145.27
  -5  16  16  132.44  151.69
   4 -16 -16 -179.66   71.12
   4 -16 -16  106.56  104.45
  -4  16  16   -8.39   88.21
  -4  16  16   42.98   80.70
   3 -16 -16   74.62   95.44
   3 -16 -16  -18.81   72.01
  -3  16  16   -5.47   77.33
  -3  16  16  -17.31   98.79
   2 -16 -16 -135.79  105.02
   2 -16 -16  -60.06   70.44
  -2  16  16   27.77   77.77
  -2  16  16    8.67   99.02
   1 -16 -16   95.49   66.66
   1 -16 -16 -245.80  102.94
  -1  16  16    5.52   70.83
  -1  16  16  -81.95   99.80
   0 -16 -16   73.22   71.80
   0 -16 -16  -32.00  103.53
   0  16  16   29.96   80.93
   0  16  16   -5.58   75.95
  -1 -16 -16   90.48   97.12
  -1 -16 -16   68.96   64.18
   1  16  16  -34.74   71.01
  -2 -16 -16  231.74   93.39
   2  16  16    6.09   80.64
   7 -17 -16   30.49   94.80
   6 -17 -16 -108.21   93.11
   6 -17 -16 -117.22   75.78
  -6  17  16  130.62   82.45
  -6  17  16   18.21   99.01
   5 -17 -16   10.21   71.36
   5 -17 -16  -53.01   95.01
  -5  17  16  -93.86   83.21
  -5  17  16 -113.93  103.93
   4 -17 -16   27.84  100.44
   4 -17 -16  -46.12   83.59
  -4  17  16  101.39   89.32
  -4  17  16  145.43  110.62
   3 -17 -16 -132.67   83.97
  -3  17  16   29.65  116.23
  -3  17  16   61.08   91.02
   2 -17 -16   -5.06   79.58
   2 -17 -16   87.84  113.86
  -2  17  16  -24.70   84.01
  -2  17  16   19.71  112.67
   1 -17 -16 -249.90  118.05
   1 -17 -16   65.09   77.99
  -1  17  16   -9.17  106.84
  -1  17  16  -61.60   87.94
   0 -17 -16    5.07   75.09
   0 -17 -16 -111.69  116.62
   0  17  16  -90.94  101.39
   0  17  16   68.53   84.72
  -1 -17 -16 -132.15   75.43
  -1 -17 -16 -384.38  114.23
   1  17  16  -45.14   86.32
  -2 -17 -16  -62.28   74.07
  -2 -17 -16  -21.38   99.17
   2  17  16  -27.00   84.76
   6 -18 -16    5.46   83.56
   6 -18 -16  -52.43  100.67
  -6  18  16   51.97  118.31
  -6  18  16  -69.21   95.30
   5 -18 -16 -178.06  109.39
   5 -18 -16    5.48   87.08
  -5  18  16  -65.45  115.35
  -5  18  16  -25.85   87.74
   4 -18 -16   11.06   85.08
   4 -18 -16   -5.08  110.30
  -4  18  16   46.37   88.63
  -4  18  16 -134.13  123.09
   3 -18 -16   33.06   87.99
   3 -18 -16    5.33  120.84
  -3  18  16  -11.22  122.41
  -3  18  16  -95.72   99.37
   2 -18 -16 -352.82  123.41
   2 -18 -16  -82.86   83.49
  -2  18  16  -33.15  127.56
  -2  18  16  -34.31   92.42
   1 -18 -16 -149.67  121.98
   1 -18 -16   22.10   77.35
  -1  18  16    6.85   95.12
  -1  18  16  -82.64  119.17
   0 -18 -16    5.24  121.65
   0 -18 -16    5.59   76.27
   0  18  16 -133.28   98.04
   0  18  16   18.37  101.96
  -1 -18 -16 -159.39  117.10
  -1 -18 -16 -230.45   86.80
   1  18  16  -86.33   97.56
   1  18  16   16.17  100.32
  -2 -18 -16  -57.29   86.88
  -2 -18 -16   68.98  109.20
   2  18  16   60.02   99.26
   0   0  17    2.94   33.35
   1   0 -17 1639.83  409.32
   0  -1  17 1987.25  358.82
  -1   0  17 2028.65  354.22
   0   1  17 2004.38  359.11
   1  -1 -17   73.23   68.31
   1   1 -17   47.86   71.38
  -1  -1  17   14.07   27.35
  -1   1  17   12.58   80.02
  -1   1  17  -19.19   26.39
  -1  -1  17  -22.81   78.76
   2   1 -17   77.48   64.31
   1  -2 -17  -57.82   69.50
  -1   2  17   24.45   24.95
  -2  -1  17   -6.16   78.91
  -2  -1  17    8.75   25.38
   2   0 -17  -14.40   57.10
   0   2  17   10.24   28.45
  -2   0  17  -23.82   76.24
  -2   0  17  -12.53   24.48
   0  -2  17  -21.74   36.04
   2  -1 -17   36.25   57.17
   1   2 -17  -20.70   70.03
  -1  -2  17   12.17   28.40
  -2   1  17    2.89   74.94
  -2   1  17    5.97   24.78
  -1  -2  17  -23.43   84.68
   2  -2 -17   82.71   58.45
   2   2 -17    3.10   56.85
  -2  -2  17   -2.29   29.33
  -2   2  17  -13.41   24.70
  -2   2  17  -50.39   73.94
  -2  -2  17   -9.59   84.80
   3   2 -17  383.72  110.10
   2  -3 -17  575.03  110.06
  -2   3  17  369.52   83.21
  -3  -2  17  534.39  130.27
  -3  -2  17  426.99   84.61
  -2   3  17  305.66  122.80
   3   1 -17   92.90   66.86
  -1   3  17  143.24   36.15
  -3  -1  17  110.58   88.52
  -3  -1  17  152.00   36.79
   0   3 -17  167.58   87.16
   3   0 -17  172.46   63.49
  -3   0  17   88.27   85.79
  -3   0  17  151.85   36.74
   0   3  17  154.08   39.63
   0  -3  17   93.08   46.78
   3  -1 -17  150.86   64.02
   1   3 -17  158.79   82.43
  -1  -3  17  151.10   41.70
  -1  -3  17   79.54   91.43
  -3   1  17  175.95   37.23
  -3   1  17   76.43   86.58
   2   3 -17  674.54  118.74
   3  -2 -17  587.02  113.05
  -3   2  17  406.84  130.37
  -2  -3  17  266.95   90.73
  -2  -3  17  575.96  137.25
  -3   2  17  515.24   89.35
   3   3 -17  -21.74   64.66
   3  -3 -17  -69.83   54.89
  -3  -3  17  -14.18   29.43
  -3   3  17   -8.81   21.68
  -3  -3  17   56.99   89.98
  -3   3  17   39.34   72.85
   3  -4 -17  371.29   85.92
   4   3 -17  318.98   92.47
  -3   4  17  237.19   62.15
  -4  -3  17  324.29  118.49
  -4  -3  17  303.54   64.90
  -3   4  17  404.05  105.44
   2  -4 -17  731.34  159.09
   4   2 -17  432.77  156.76
  -2   4  17  723.62  171.05
  -4  -2  17  813.60  128.40
  -2   4  17  678.47  129.11
  -4  -2  17  735.32  173.42
   1  -4 -17  161.21   49.78
   4   1 -17  266.01   66.21
  -4  -1  17  146.87   91.06
  -1   4  17  113.32   38.37
  -4  -1  17  122.16   37.29
   4   0 -17  -23.45   56.73
   0   4 -17  -53.66   89.44
   0  -4 -17    9.01   31.60
  -4   0  17   -5.86   81.47
   0   4  17   -2.24   28.41
  -4   0  17   -5.90   22.68
   1   4 -17   94.80   82.07
   4  -1 -17  204.99   63.15
  -4   1  17  149.01   82.80
  -4   1  17  215.95   35.99
  -1  -4  17   -2.59   42.04
  -1  -4  17  128.91   96.79
   2   4 -17  581.19  161.37
   4  -2 -17  752.09  152.99
   4  -2 -17  663.67  147.22
  -4   2  17  731.52  125.72
  -2  -4  17  770.88  181.94
  -4   2  17  679.19  168.10
  -2  -4  17  588.82  129.37
   4  -3 -17  345.90   82.38
   3   4 -17  203.42   95.26
   4  -3 -17  361.17   72.92
  -3  -4  17  342.74   65.78
  -4   3  17  351.73   60.89
  -3  -4  17  164.60  116.75
  -4   3  17  190.95  102.76
   4  -4 -17  -97.19   33.06
   4   4 -17  -16.01   67.45
   4  -4 -17  -18.87   47.38
  -4   4  17   -4.43   20.41
  -4  -4  17  -29.54   31.27
  -4  -4  17   66.44   96.59
  -4   4  17   49.85   75.56
   5   4 -17  134.71   73.20
   5   4 -17   50.65   54.40
  -5  -4  17   23.16   28.61
  -5  -4  17   17.01   89.12
   5   3 -17  351.36  116.14
   5   3 -17  450.28  104.00
  -5  -3  17  545.05   84.16
  -5  -3  17  292.86  125.63
   2  -5 -17   68.35   36.48
   5   2 -17   31.90   61.91
   5   2 -17    5.60   43.53
  -5  -2  17   80.51   27.72
  -5  -2  17  -18.72   91.90
  -2   5  17   72.99   25.82
   1  -5 -17  279.47   76.84
   5   1 -17  285.82   75.07
   5   1 -17  283.08   87.36
  -5  -1  17  277.77  106.04
  -5  -1  17  327.63   60.48
  -1   5  17  314.79   62.43
   5   0 -17  -18.57   57.73
   0   5 -17   -4.60   98.63
   0  -5 -17   -1.80   37.96
   5   0 -17  -17.26   38.52
  -5   0  17  -11.18   22.35
   0  -5  17    6.02   35.69
  -5   0  17  -43.19   83.56
   0   5  17  -45.74   30.29
   1   5 -17  293.44  100.80
   5  -1 -17  296.90   73.99
   5  -1 -17  298.16   87.14
  -5   1  17  312.81   59.47
  -5   1  17  362.06  104.54
  -1  -5  17  159.85  120.88
  -1  -5  17  328.99   66.60
   5  -2 -17   68.57   37.81
   5  -2 -17  120.28   56.30
   2   5 -17   67.70   76.91
  -5   2  17   23.86   79.71
  -2  -5  17  148.60   96.03
  -5   2  17   93.45   25.07
   5  -3 -17  406.02   93.75
   5  -3 -17  609.33  104.64
   3   5 -17  445.10  117.95
  -3  -5  17  451.14  137.89
  -5   3  17  345.53   80.85
  -5   3  17  392.71  120.02
   5  -4 -17  104.56   46.87
   5  -4 -17   43.89   30.82
   4   5 -17   37.22   76.70
  -5   4  17   39.16   19.35
  -5   4  17   64.06   72.46
  -4  -5  17    7.31   98.55
   5   5 -17  -50.72   87.97
   6   5 -17   23.10   75.90
  -6  -5  17    3.46   98.13
   6   4 -17   24.73   57.28
  -6  -4  17  131.42   34.74
   6   3 -17 -116.81   54.50
   6   3 -17 -271.34   82.11
  -6  -3  17  -50.84   30.54
  -6  -3  17 -246.65  101.04
   6   2 -17  554.77  103.01
   2  -6 -17  359.97  101.02
   2  -6 -17  465.53   92.66
   6   2 -17  605.55  113.72
  -6  -2  17  423.35   84.92
  -6  -2  17  634.56  128.92
  -2   6  17  313.15   85.02
   6   1 -17   23.03   41.16
   1  -6 -17    5.72   44.49
   6   1 -17    2.79   61.60
  -6  -1  17    9.53   23.57
  -6  -1  17    2.93   85.70
   6   0 -17   12.04   38.60
   0   6 -17  -33.62   96.72
   6   0 -17  -56.90   59.78
   0  -6 -17  -10.26   45.27
  -6   0  17   -1.80   21.99
  -6   0  17    2.83   76.87
   0  -6  17   23.88   34.40
   1   6 -17    4.01   83.53
   6  -1 -17    2.26   36.80
   6  -1 -17   -2.62   56.72
  -1  -6  17   13.50   35.25
  -6   1  17   -2.73   77.14
  -1  -6  17   46.40   99.21
  -6   1  17    1.70   21.68
   6  -2 -17  260.79   95.04
   6  -2 -17  511.53  105.50
   2   6 -17  454.56  119.49
  -6   2  17  338.31  117.65
  -2  -6  17  397.35   85.28
  -6   2  17  554.55   79.65
  -2  -6  17  280.09  136.83
   6  -3 -17  -32.33   32.15
   3   6 -17 -151.93   87.28
   6  -3 -17   35.51   54.43
  -3  -6  17 -348.47  120.86
  -6   3  17  -37.70   76.70
  -6   3  17   -4.63   21.88
  -3  -6  17   51.56   36.34
   6  -4 -17  186.28   55.71
   4   6 -17 -265.43   86.97
   6  -4 -17   39.77   29.83
  -4  -6  17 -459.85  120.47
  -6   4  17  136.97   75.23
  -4  -6  17  128.33   37.18
   5   6 -17   -3.53   52.35
   5   6 -17 -171.86   81.56
  -5  -6  17   18.75  108.65
  -5  -6  17  -12.72   32.54
   6   6 -17   20.60   57.62
   6   6 -17   17.56   82.38
  -6  -6  17   71.45   34.41
  -6  -6  17   -3.64  107.23
   7   5 -17    3.30   62.94
  -7  -5  17  -62.28   97.44
   7   4 -17   81.56   72.47
   7   4 -17   -6.35   49.04
  -7  -4  17   -3.32   89.23
  -7  -4  17   34.96   27.85
   3  -7 -17  381.35   89.97
   7   3 -17  141.69   93.43
  -7  -3  17  529.78   74.29
  -7  -3  17  414.54  123.72
   7   2 -17 -141.87   70.62
   7   2 -17   45.53   48.13
   2  -7 -17   41.93   43.36
   2  -7 -17   22.73   28.34
  -7  -2  17  -21.50   84.35
  -7  -2  17    5.98   26.42
  -2   7  17   11.56   25.90
   1  -7 -17  137.43   57.53
   7   1 -17  107.22   50.62
   7   1 -17   20.30   74.36
  -1   7  17  168.20   36.96
  -7  -1  17  145.70   33.96
  -7  -1  17    2.97   93.85
   7   0 -17   97.34   43.99
   0  -7 -17   53.36   55.00
   7   0 -17  249.46   74.45
   0   7 -17   45.73  104.38
  -7   0  17   27.81   25.69
  -7   0  17  -25.97   83.67
   0  -7  17   15.04   38.89
  -1  -7 -17  111.07   48.96
   7  -1 -17  198.46   70.62
   1   7 -17    4.25   97.60
   7  -1 -17  123.90   45.47
  -1  -7  17   88.85   41.09
  -1  -7  17   96.50  114.41
  -7   1  17  118.32   32.10
  -7   1  17  165.22   83.60
   2   7 -17   -3.97   89.35
   7  -2 -17   33.30   61.99
   7  -2 -17   30.47   34.93
  -2  -7  17 -217.37  108.87
  -2  -7  17    5.61   34.79
  -7   2  17   54.13   77.86
  -7   2  17  -10.58   21.68
   3   7 -17  221.90  120.57
   7  -3 -17  609.24  105.15
   7  -3 -17  349.64   91.51
  -7   3  17  405.95   81.35
  -7   3  17  420.28  114.64
  -3  -7  17  307.49  147.86
  -3  -7  17  593.08   86.06
   7  -4 -17   20.12   58.38
   7  -4 -17   -3.85   32.44
   4   7 -17    3.80   85.34
  -7   4  17   -2.47   72.32
  -4  -7  17    3.96  109.63
  -7   4  17  -12.47   22.34
  -4  -7  17  -31.01   35.74
   5   7 -17  -11.36   83.44
   5   7 -17   40.80   60.80
  -5  -7  17   45.51   33.94
  -5  -7  17    3.93  110.20
   7   7 -17    3.67   63.46
  -7  -7  17    5.03   32.18
   8   7 -17   34.18   82.27
   8   7 -17    3.74   61.08
  -8  -7  17   -2.60   33.40
  -8  -7  17  -87.50  120.04
   8   6 -17   -3.58   56.06
  -8  -6  17   22.36   35.23
  -8  -6  17   -3.77   85.67
   8   4 -17   -6.54   72.25
  -8  -4  17    3.40  100.06
   3  -8 -17   14.36   31.40
   8   3 -17   57.72   69.41
   8   3 -17    3.11   48.68
   3  -8 -17  149.68   45.82
  -8  -3  17    3.26   90.96
  -8  -3  17   35.38   27.25
   2  -8 -17  154.07   52.00
   8   2 -17   62.25   46.57
   2  -8 -17   56.25   35.84
   8   2 -17  121.33   73.26
  -8  -2  17   79.54   30.68
  -2   8  17   93.18   33.50
  -8  -2  17  236.55   90.35
   1  -8 -17   14.38   32.88
   8   1 -17  -12.86   70.62
   1  -8 -17  -18.37   53.28
   8   1 -17  -31.06   41.56
  -8  -1  17  111.68   83.98
  -1   8  17   41.78   32.22
  -8  -1  17  -14.69   25.65
   0  -8 -17   48.15   56.66
   8   0 -17   -2.68   43.68
  -8   0  17    8.26   24.73
  -8   0  17   35.30   85.12
   0  -8  17  -27.76   39.26
   1   8 -17   -4.57   95.32
   8  -1 -17  -38.07   43.23
  -1  -8 -17   -2.30   48.25
  -1  -8  17   -2.89   36.74
  -8   1  17   60.28   81.29
  -1  -8  17  196.86  119.70
  -8   1  17   30.60   24.75
   2   8 -17    4.21   91.19
   8  -2 -17   40.96   40.64
  -2  -8  17    4.11  113.38
  -2  -8  17   61.71   39.00
  -8   2  17  108.76   30.50
  -8   2  17  181.44   81.76
   3   8 -17    4.21   85.36
   8  -3 -17   -4.65   33.57
  -3  -8  17   -2.98   37.47
  -8   3  17   51.14   78.07
  -8   3  17   85.24   26.15
  -3  -8  17 -186.92  116.90
   4   8 -17   28.48   89.24
   8  -4 -17  -20.31   36.15
  -4  -8  17    4.12  120.60
  -8   4  17   40.94   76.29
  -4  -8  17  229.66   39.30
   6   8 -17   -3.77   57.06
  -6  -8  17   -2.71   32.37
   7   8 -17    3.85   67.46
   7   8 -17    4.04   86.63
  -7  -8  17  109.21  119.92
  -7  -8  17   57.87   34.36
   8   8 -17   -3.92   66.67
   8   8 -17    4.11   97.02
  -8  -8  17  -24.42   35.44
  -8  -8  17   -4.17  119.34
   9   8 -17   98.21   90.76
   9   8 -17    4.18   71.89
  -9  -8  17   38.27   38.32
  -9  -8  17   26.74  129.70
   9   7 -17  -31.90   90.68
   9   7 -17    4.01   62.13
  -9  -7  17   28.25   33.42
  -9  -7  17    4.21  113.08
   9   6 -17   -7.59   90.09
  -9  -6  17   -2.72   31.66
  -9  -6  17    3.97  113.35
   9   5 -17    7.34   78.62
   9   5 -17    3.69   55.00
  -9  -5  17   78.18   99.49
  -9  -5  17    2.62   32.71
   9   4 -17    3.53   57.93
  -9  -4  17   37.98   34.87
   3  -9 -17   75.84   39.51
   3  -9 -17  131.74   55.51
  -3   9  17  109.77   38.04
  -3   9  17   82.56   43.18
   2  -9 -17   37.25   33.62
   2  -9 -17   29.98   51.74
  -9  -2  17  190.72   91.56
  -2   9  17   -2.37   31.61
   1  -9 -17   37.26   34.37
   1  -9 -17   91.70   58.44
   9   1 -17    3.12   50.83
  -9  -1  17  125.52   87.73
  -9  -1  17   46.96   31.03
  -1   9  17   20.29   34.75
   9   0 -17   18.05   45.80
   0  -9 -17   13.60   58.84
   0  -9  17    3.18   38.94
  -9   0  17   66.62   29.49
   0   9  17   16.78   34.02
  -9   0  17    9.26   90.05
   9  -1 -17   74.96   47.15
  -1  -9 -17   13.15   57.04
   1   9 -17   24.63  109.71
  -9   1  17    9.20   25.71
  -9   1  17  -18.23   83.91
  -1  -9  17   12.14   38.45
  -1  -9  17  104.74  115.92
   9  -2 -17  -11.09   42.84
   2   9 -17   -4.46   97.64
  -2  -9  17  147.38   38.75
  -2  -9  17  -59.96  119.28
  -9   2  17  -38.80   87.12
   3   9 -17   40.17   99.85
  -9   3  17  121.65   86.67
  -3  -9  17  107.23  126.80
  -9   4  17  220.60   89.06
   5   9 -17    4.07   58.72
  -5  -9  17   14.68   38.24
   6   9 -17    3.89   67.83
   6   9 -17 -210.44  102.09
  -6  -9  17  -39.64   37.92
  -6  -9  17 -494.51  136.70
   7   9 -17    4.01   68.93
   7   9 -17   -4.39   96.76
  -7  -9  17 -282.12  121.73
  -7  -9  17  -16.48   34.46
   8   9 -17    4.10   68.04
   8   9 -17  -31.17   98.51
  -8  -9  17   70.85   37.78
  -8  -9  17    4.39  117.60
   9   9 -17    4.62   99.26
   9   9 -17    4.37   72.71
  -9  -9  17 -159.73  140.03
  -9  -9  17   15.34   37.09
  10   9 -17   72.95  113.19
  10   9 -17   -4.82   76.83
 -10  -9  17    5.04  139.23
 -10  -9  17   -3.32   41.87
  10   8 -17   -4.58   98.28
  10   8 -17   -4.62   72.75
 -10  -8  17  -33.51  135.52
 -10  -8  17   44.68   39.45
  10   7 -17  -82.93   95.69
  10   7 -17    4.44   69.34
 -10  -7  17   55.35   40.07
 -10  -7  17    4.47  125.81
 -10  -6  17    4.22  119.83
  10   5 -17    4.13   67.65
 -10  -5  17 -312.26  117.07
 -10  -5  17   14.34   37.74
  10   4 -17    3.99   62.61
   4 -10 -17  -83.79   55.31
   4 -10 -17   -4.97   44.75
 -10  -4  17    3.75  107.46
 -10  -4  17  -50.01   34.54
   3 -10 -17  136.21   60.54
  10   3 -17  -53.86   62.18
   3 -10 -17  141.20   40.89
  -3  10  17   10.64   37.85
  -3  10  17   37.36   47.90
 -10  -3  17   21.75   36.71
   2 -10 -17   23.23   58.34
   2 -10 -17   30.16   36.63
  -2  10  17   64.21   37.67
 -10  -2  17   42.82   35.00
   1 -10 -17  -26.55   38.18
   1 -10 -17  114.47   67.49
  -1  10  17   -5.62   37.21
   0 -10 -17   32.86   39.47
   0 -10 -17    2.94   66.29
   0  10  17   79.01   41.46
 -10   0  17    3.38   94.68
   1  10 -17   80.40  120.02
  -1 -10 -17  -31.39   64.80
  -1 -10  17 -200.49  126.93
 -10   1  17 -110.47   95.80
 -10   2  17   29.79   93.10
 -10   3  17   71.31   93.56
   4  10 -17 -102.17   70.67
  -4 -10  17  -44.01   42.52
   5  10 -17   -9.27  114.13
   5  10 -17  -84.16   75.80
  -5 -10  17 -500.13  141.87
  -5 -10  17   -3.02   39.44
   6  10 -17   -4.05   56.75
   6  10 -17   94.31  108.73
  -6 -10  17    8.93  129.67
  -6 -10  17   73.00   38.19
   7  10 -17    4.80  104.09
   7  10 -17    4.18   66.22
  -7 -10  17   28.56   38.95
  -7 -10  17    4.50  136.58
   8  10 -17    4.27   69.38
   8  10 -17    4.90  107.37
  -8 -10  17  -11.84   39.22
  -8 -10  17 -264.45  134.02
   9  10 -17 -136.49  117.81
   9  10 -17    4.57   71.98
  -9 -10  17    9.78  148.36
  -9 -10  17   25.56   40.83
  10  10 -17    5.05   79.74
  10  10 -17   -5.25  120.91
 -10 -10  17 -163.11  148.40
 -10 -10  17  -82.62   43.46
  11  10 -17    5.48  118.35
  11  10 -17   -5.66   90.32
 -11 -10  17    5.56  163.94
 -11 -10  17   67.78   48.20
  11   9 -17   46.98  116.04
  11   9 -17    5.44   74.00
 -11  -9  17    3.63   45.26
 -11  -9  17 -148.86  154.46
  11   8 -17   -5.22   79.95
 -11  -8  17    5.08  142.53
 -11  -8  17    3.51   44.74
  11   7 -17    5.03   78.67
 -11  -7  17    3.39   40.89
 -11  -7  17   38.19  128.07
 -11  -6  17    4.51  124.32
  11   5 -17    4.68   64.00
 -11  -5  17   38.77  124.68
   4 -11 -17  -31.39   46.08
   4 -11 -17  149.97   59.84
  11   4 -17   -4.53   71.15
  -4  11  17  -45.09   43.72
 -11  -4  17  160.71  117.35
  -4  11  17   51.95   48.47
  11   3 -17   -4.38   72.77
   3 -11 -17    5.41   46.68
   3 -11 -17   64.59   65.81
 -11  -3  17   -3.94  105.17
  -3  11  17  -15.12   46.44
  -3  11  17  139.36   54.33
   2 -11 -17  -44.74   45.07
   2 -11 -17  181.21   68.04
  -2  11  17   54.64   45.70
  -2  11  17   64.55   55.84
   1 -11 -17  162.06   59.79
   0 -11 -17  178.97   54.20
   0  11  17   36.49   50.58
  -2 -11 -17 -163.30   63.17
  -2 -11  17   -3.39   45.85
   3  11 -17  594.27  138.18
   4  11 -17    5.09  110.76
   4  11 -17  -21.98   76.94
  -4 -11  17   38.98   43.62
  -4 -11  17   -4.58  139.77
   5  11 -17   -5.01  113.90
   5  11 -17    4.32   73.06
  -5 -11  17   -3.13   40.20
  -5 -11  17  242.34  136.27
   6  11 -17   -4.24   59.97
   6  11 -17  -10.18  117.39
  -6 -11  17   36.07   41.60
  -6 -11  17    4.64  134.75
   7  11 -17   58.14  117.74
   7  11 -17   -4.35   63.91
  -7 -11  17 -264.45  137.79
  -7 -11  17   53.39   39.08
   8  11 -17   -4.47   70.89
   8  11 -17  -32.42  120.45
  -8 -11  17   -9.75  137.76
  -8 -11  17  -68.09   39.96
   9  11 -17   -4.78   80.78
   9  11 -17    5.58  125.05
  -9 -11  17  -16.62   42.83
  -9 -11  17   20.40  143.21
  10  11 -17   11.45  130.32
  10  11 -17   -5.30   84.17
 -10 -11  17 -110.45   41.48
 -10 -11  17    5.41  152.55
  11  11 -17    5.92   94.15
  11  11 -17  180.49  138.60
 -11 -11  17 -142.09  161.59
   4 -12 -17   -2.86   63.20
  -4  12  17   24.84   50.25
   3 -12 -17    3.01   70.21
  -3  12  17   20.51   57.78
   2 -12 -17 -112.04   72.51
  -2  12  17  -63.71   62.82
   1 -12 -17   26.84   79.50
  -1  12  17   -3.48   40.64
   0 -12 -17  112.04   45.11
   0 -12 -17 -159.02   78.82
   0 -12  17   11.69   51.41
   0  12  17   80.86   51.09
  -1 -12 -17  199.65   78.39
  -1 -12  17   65.39   52.37
   1  12  17   82.91   53.55
  -2 -12 -17 -102.85   69.16
   2  12 -17   62.36  129.85
  -2 -12  17  175.66  137.03
  -2 -12  17  -99.69   48.19
   3  12 -17  -42.79  115.46
  -3 -12  17    4.67  130.94
  -3 -12  17    3.48   46.01
   4  12 -17   16.24  124.49
   4  12 -17 -216.31   77.10
  -4 -12  17 -112.53  133.60
  -4 -12  17  -46.35   42.64
   5  12 -17   48.53   75.77
   5  12 -17 -374.33  128.97
  -5 -12  17   -3.19   42.44
  -5 -12  17 -396.09  141.87
   6  12 -17   -4.41   74.70
   6  12 -17  -16.59  124.76
  -6 -12  17    3.08   39.79
  -6 -12  17   -4.80  138.42
   7  12 -17    5.76  139.41
   7  12 -17   67.28   85.76
  -7 -12  17 -162.83  153.20
  -7 -12  17   -3.07   40.22
   8  12 -17   18.03  134.29
   8  12 -17   -4.68   74.15
  -8 -12  17    9.64   41.23
  -8 -12  17  340.69  155.10
   9  12 -17   -5.03   81.48
   9  12 -17    6.13  134.33
  -9 -12  17   52.99  162.39
  -9 -12  17   17.32   44.06
  10  12 -17   -6.24  132.51
  10  12 -17 -184.01   91.86
 -10 -12  17 -375.67  159.32
 -10 -12  17  -73.68   48.09
  11  12 -17    6.22   99.09
  11  12 -17    6.24  143.15
   5 -13 -17  117.08   76.71
   4 -13 -17  -66.54   69.11
   4 -13 -17  -32.85   60.21
  -4  13  17  -11.57   54.64
  -4  13  17   11.44   68.05
   3 -13 -17  154.55   78.92
   3 -13 -17    3.48   52.84
  -3  13  17    3.90   57.50
  -3  13  17  -35.73   65.49
   2 -13 -17  -30.38   51.76
   2 -13 -17    3.49   82.57
  -2  13  17    7.77   55.59
  -2  13  17   54.46   69.17
   1 -13 -17  -99.62   55.20
   1 -13 -17  -58.80   86.34
  -1  13  17   -7.83   52.64
   0 -13 -17  284.40   61.00
   0 -13 -17  119.13   87.94
   0 -13  17   16.93   57.69
   0  13  17  -44.82   56.41
  -1 -13 -17 -240.98   80.86
  -1 -13 -17  -79.34   49.41
   1  13 -17 -322.45  165.45
  -1 -13  17   -7.68   51.02
   1  13  17  -43.39   57.03
   2  13 -17  218.34  137.81
  -2 -13 -17   79.25   71.88
  -2 -13  17  -92.70   51.72
  -2 -13  17 -102.87  135.61
   3  13 -17 -147.81  133.30
   3  13 -17    4.60   77.76
  -3 -13  17   38.32  140.02
  -3 -13  17    3.55   44.86
   4  13 -17    4.62   77.41
   4  13 -17    5.76  127.17
  -4 -13  17   27.01   40.90
  -4 -13  17   71.55  142.14
   5  13 -17   89.96   88.95
   5  13 -17  277.42  153.47
  -5 -13  17   -3.24   42.40
  -5 -13  17  101.69  146.68
   6  13 -17 -138.10  135.96
   6  13 -17    4.60   66.98
  -6 -13  17  -43.72   40.77
  -6 -13  17 -186.89  142.99
   7  13 -17    4.65   76.63
   7  13 -17    6.28  146.47
  -7 -13  17  -72.64   38.78
  -7 -13  17 -407.76  153.41
   8  13 -17    6.65  144.75
   8  13 -17    4.88   80.93
  -8 -13  17   56.50   42.90
  -8 -13  17  -89.85  158.01
   9  13 -17 -410.23  156.74
   9  13 -17  -68.53   82.60
  -9 -13  17 -251.93  160.92
  -9 -13  17   32.11   46.11
  10  13 -17   41.44  166.31
  11  13 -17    6.54  106.34
  11  13 -17    6.75  153.96
 -11 -13  17 -154.42  174.05
   5 -14 -17 -104.33   71.91
   5 -14 -17   -4.18   64.07
   4 -14 -17   16.19   65.47
   4 -14 -17   -3.50   81.27
  -4  14  17  -52.66   75.61
  -4  14  17  -47.59   67.39
   3 -14 -17    3.89   63.52
   3 -14 -17   10.77   80.27
  -3  14  17  -35.17   64.64
  -3  14  17   41.54   79.27
   2 -14 -17    3.82   91.37
   2 -14 -17   26.53   58.88
  -2  14  17  -78.81   65.83
  -2  14  17   48.95   82.97
   1 -14 -17   22.30   56.88
   1 -14 -17   84.45  100.69
  -1  14  17   92.35   65.51
  -1  14  17  -76.23   77.02
   0 -14 -17    3.73   56.38
   0 -14 -17   99.84   96.12
   0  14  17   -4.54   58.67
  -1 -14 -17    3.82   84.46
  -1 -14 -17    3.77   56.21
   1  14  17   14.39   65.51
   2  14 -17 -158.32  157.58
  -2 -14 -17   65.07   76.55
   3  14 -17   18.53   69.58
   3  14 -17 -135.03  142.93
  -3 -14  17   -7.05   48.32
  -3 -14  17 -185.87  138.60
   4  14 -17  206.49  147.90
   4  14 -17   32.54   80.18
  -4 -14  17  140.39  147.78
  -4 -14  17  120.88   48.68
   5  14 -17  -13.67   73.83
   5  14 -17   69.85  146.01
  -5 -14  17   16.14   42.38
  -5 -14  17   39.47  143.19
   6  14 -17  -39.35  148.41
   6  14 -17    4.72   78.31
  -6 -14  17   81.88   42.75
   7  14 -17   96.67  155.25
   7  14 -17   -4.82   77.05
  -7 -14  17  -16.09   40.26
  -7 -14  17   -5.22  148.73
   8  14 -17   -7.33  167.64
   8  14 -17    5.10   86.96
  -8 -14  17   10.29   46.62
  -8 -14  17 -464.84  161.03
   9  14 -17    5.53   88.41
   9  14 -17    7.69  185.58
  -9 -14  17 -384.72  176.70
  -9 -14  17   18.27   45.82
  10  14 -17 -292.00  185.02
  10  14 -17   -6.14   95.82
 -10 -14  17   11.79   48.98
 -10 -14  17 -132.86  166.66
  11  14 -17    6.89  102.50
  11  14 -17  -37.04  169.39
 -11 -14  17   -5.74  167.30
   5 -15 -17   54.27   65.19
   5 -15 -17  -43.96   78.97
  -5  15  17   61.95   63.44
  -5  15  17   66.66   83.66
   4 -15 -17 -228.55   89.78
   4 -15 -17  -62.24   73.23
  -4  15  17   57.78   72.42
  -4  15  17   60.72   85.49
   3 -15 -17  -81.80   66.69
   3 -15 -17  262.24   94.85
  -3  15  17 -111.49   92.64
  -3  15  17   39.46   69.47
   2 -15 -17   84.65   98.91
   2 -15 -17   63.42   69.00
  -2  15  17  -40.51   86.81
  -2  15  17   63.91   73.15
   1 -15 -17  -25.92  103.03
   1 -15 -17   33.20   65.58
  -1  15  17  -69.09   66.60
  -1  15  17  123.81   93.17
   0 -15 -17    8.61  102.27
   0 -15 -17   87.28   64.97
   0  15  17  142.10   67.25
  -1 -15 -17  -40.78   96.39
  -1 -15 -17  -45.82   61.88
   1  15  17  111.28   67.39
  -2 -15 -17 -118.32   83.65
   5 -16 -17    4.00   84.43
   5 -16 -17  -38.92   74.76
  -5  16  17   -5.22   74.38
  -5  16  17   59.70   90.36
   4 -16 -17  -96.74   89.10
  -4  16  17  131.40  100.25
  -4  16  17  171.00   80.80
   3 -16 -17 -141.60   79.32
  -3  16  17  -71.81   80.93
  -3  16  17 -155.38  110.98
   2 -16 -17  -41.23  107.61
   2 -16 -17   56.13   71.93
  -2  16  17    9.21   91.05
  -2  16  17  -49.38   83.98
   1 -16 -17   14.13  107.38
   1 -16 -17    9.23   73.58
  -1  16  17 -105.04   78.84
  -1  16  17   78.08  106.84
   0 -16 -17    4.64  102.51
   0 -16 -17   18.47   74.15
   0  16  17   39.71   78.66
   0  16  17    7.82   94.64
  -1 -16 -17   23.09   68.19
  -1 -16 -17  -13.02   99.38
   1  16  17  -11.77   70.82
  -2 -16 -17 -114.87   90.49
   2  16  17   43.81   81.45
   5 -17 -17    5.22   77.93
   5 -17 -17   96.58   97.52
  -5  17  17  -88.53  100.16
  -5  17  17  120.54   87.99
   4 -17 -17   31.37   79.47
   4 -17 -17   13.93  102.88
  -4  17  17   81.16  113.85
  -4  17  17  -29.65   83.29
   3 -17 -17    4.87  105.79
   3 -17 -17   51.72   80.16
  -3  17  17  -52.35  115.65
  -3  17  17  -86.14   80.89
   2 -17 -17   35.93   73.04
   2 -17 -17    4.95  114.49
  -2  17  17  -24.53   80.94
  -2  17  17  -62.83  111.14
   1 -17 -17   40.88   81.88
   1 -17 -17    5.08  112.46
  -1  17  17  -30.89   89.70
  -1  17  17  -57.98  109.06
   0 -17 -17  -34.50  110.31
   0 -17 -17   61.48   74.54
   0  17  17   17.15   94.77
   0  17  17  -19.01   82.81
  -1 -17 -17   56.24   79.48
  -1 -17 -17   74.46  110.00
   1  17  17  209.87   88.30
  -2 -17 -17   29.64   94.08
   2  17  17   27.75   88.03
   6 -18 -17  -37.59   98.97
   5 -18 -17  124.31  108.90
   5 -18 -17   56.11   88.49
  -5  18  17   50.64   97.62
  -5  18  17  147.98  130.20
   4 -18 -17  -79.14   84.21
   4 -18 -17    5.09  108.98
  -4  18  17  -13.16   95.38
  -4  18  17  -58.92  125.39
   3 -18 -17  230.90  125.27
   3 -18 -17  -67.56   82.93
  -3  18  17   88.53  101.29
  -3  18  17  -47.72  128.25
   2 -18 -17   97.44  125.74
   2 -18 -17 -112.12   82.09
  -2  18  17  252.33   96.66
  -2  18  17  -35.17  132.48
   1 -18 -17 -140.83   88.45
   1 -18 -17 -184.68  122.83
  -1  18  17    6.90   88.61
  -1  18  17  -21.70  120.26
   0 -18 -17   22.62   78.43
   0 -18 -17   -5.30  121.64
   0  18  17  -70.84   90.52
   0  18  17  -94.59  110.96
  -1 -18 -17  134.89  111.30
  -1 -18 -17   -5.66   81.61
   1  18  17   80.51   95.72
   1  18  17    8.13   98.17
   2  18  17  -77.15   98.68
   1   0 -18  -11.32   72.26
  -1   0  18   65.54   82.09
  -1   0  18  -45.65   30.55
   1  -1 -18  700.14  157.25
   1   1 -18  550.66  157.03
  -1   1  18  652.31  121.99
  -1  -1  18  645.96  172.70
  -1  -1  18  647.55  122.62
   2   1 -18   89.80   69.37
  -2  -1  18  -63.04   87.62
  -1   2  18    6.56   27.53
  -2  -1  18  -25.70   28.49
   2   0 -18   52.73   69.81
  -2   0  18   82.82   31.18
  -2   0  18  173.67   89.88
   1   2 -18   -3.78   74.46
   2  -1 -18  -24.40   64.73
  -1  -2  18  -17.96   93.03
  -1  -2  18   -2.61   30.66
  -2   1  18   21.44   26.34
  -2   1  18    6.24   81.79
   2   2 -18   73.19   72.94
   2  -2 -18  183.31   70.74
  -2  -2  18  158.29   93.32
  -2  -2  18  124.45   37.08
  -2   2  18  141.15   36.41
  -2   2  18   78.67   87.31
   2  -3 -18    3.11   64.20
   3   2 -18   25.97   68.53
  -2   3  18   -5.87   79.51
  -3  -2  18   13.84   89.99
  -3  -2  18   62.56   31.15
  -2   3  18   -2.03   24.30
   3   1 -18  372.71  112.60
  -1   3  18  420.12   86.69
  -3  -1  18  507.57   85.95
  -3  -1  18  464.45  133.12
   3   0 -18  -56.45   67.10
  -3   0  18   73.39   85.99
  -3   0  18   33.00   28.27
   0   3  18   17.71   30.99
   3  -1 -18  401.05  109.04
   1   3 -18  519.76  120.69
  -1  -3  18  329.27   84.92
  -3   1  18  306.40  127.88
  -1  -3  18  551.08  138.72
  -3   1  18  448.74   81.43
   2   3 -18   45.03   75.39
   3  -2 -18  -21.82   58.01
  -2  -3  18   -3.58   95.17
  -3   2  18   -2.95   79.47
  -2  -3  18   10.13   30.97
  -3   2  18   40.46   24.81
   3  -3 -18  665.90  167.61
   3   3 -18  793.92  174.74
  -3   3  18  953.40  138.61
  -3  -3  18  760.37  140.17
  -3  -3  18  584.93  192.38
  -3   3  18  476.53  189.13
   3  -4 -18  526.02  126.41
   4   3 -18  253.08  133.35
  -3   4  18  311.30  148.37
  -3   4  18  490.96   99.47
  -4  -3  18  342.07  150.47
  -4  -3  18  845.32  102.26
   4   2 -18  872.47  191.41
   2  -4 -18  701.98  195.25
  -2   4  18  841.02  212.49
  -4  -2  18  773.41  210.60
   4   1 -18  440.65  100.38
  -1   4  18  322.78   72.40
  -4  -1  18  415.52   72.58
  -4  -1  18  254.84  122.01
   4   0 -18  479.47  110.59
  -4   0  18  589.89  129.85
   0   4  18  417.72   88.10
  -4   0  18  375.21   83.57
   4  -1 -18  303.09   91.64
   1   4 -18  174.15  105.32
  -4   1  18  270.65  113.77
  -4   1  18  400.42   65.44
  -1  -4  18  331.78   70.33
  -1  -4  18  256.06  127.19
   2   4 -18 1176.46  220.45
   4  -2 -18 1112.14  213.29
  -2  -4  18  948.12  241.59
  -4   2  18  993.40  232.56
   3   4 -18  448.17  146.23
   4  -3 -18  640.38  128.26
   4  -3 -18  641.11  136.84
  -3  -4  18  652.41  168.66
  -3  -4  18  717.11  114.88
  -4   3  18  501.56  155.32
   4  -4 -18  680.05  136.96
   4  -4 -18  670.29  126.79
  -4   4  18  619.20  110.58
  -4  -4  18   67.54  172.59
  -4   4  18  576.89  156.36
  -4  -4  18  683.73  114.44
   5   4 -18 -330.75   95.87
   5   4 -18  -57.26   65.58
  -5  -4  18   52.17   32.33
   5   3 -18  110.93   64.66
  -5  -3  18 -302.26  119.13
   5   2 -18  377.15   91.93
   5   2 -18  281.54  102.85
  -5  -2  18  245.89  125.48
  -5  -2  18  417.45   71.74
   5   1 -18  115.13   69.71
   5   1 -18   78.67   48.03
  -5  -1  18   99.31   32.11
  -5  -1  18  196.50   95.88
   5   0 -18   34.74   63.78
   5   0 -18    2.63   43.59
   0  -5 -18   -7.50   40.51
  -5   0  18   24.17   26.24
   0   5  18   35.54   31.12
  -5   0  18  -53.69   86.40
   5  -1 -18  121.10   65.95
   5  -1 -18   71.41   43.51
   1   5 -18  111.17   85.15
  -5   1  18  164.67   33.92
  -5   1  18  -69.86   91.62
  -1  -5  18  158.38  104.96
   5  -2 -18  385.87  100.36
   2   5 -18  421.34  113.29
   5  -2 -18  336.97   86.89
  -5   2  18  411.99   71.53
  -2  -5  18  426.41  134.58
  -5   2  18  184.16  117.53
   3   5 -18  177.93  101.73
   5  -3 -18  248.87   56.33
   5  -3 -18  261.63   73.13
  -5   3  18  176.82   46.57
  -3  -5  18  499.52  137.33
  -5   3  18  236.37   97.56
   4   5 -18    3.64   90.91
   5  -4 -18   83.40   31.30
   5  -4 -18  105.82   54.35
  -5   4  18  -21.75   86.92
  -5   4  18   51.90   21.54
  -4  -5  18 -160.30  114.51
   5   5 -18    3.61   84.37
  -5  -5  18   42.59  110.24
   6   5 -18    3.57   72.60
   6   5 -18   -3.49   57.63
  -6  -5  18    3.73  107.45
   6   4 -18    3.31   56.65
   6   4 -18   23.81   75.04
  -6  -4  18    3.58  102.13
  -6  -4  18   98.50   32.99
   6   3 -18  437.13  144.86
   6   3 -18  584.49  157.07
  -6  -3  18  531.40  169.62
  -6  -3  18  732.68  116.75
   6   2 -18 -269.89   83.55
   6   2 -18   38.22   49.49
  -6  -2  18   15.12   30.41
  -6  -2  18 -362.51  116.05
   6   1 -18  223.49   69.37
   1  -6 -18  252.74   70.65
  -6  -1  18  269.60   53.49
  -6  -1  18  254.67  109.80
   6   0 -18  435.80   83.26
   0  -6 -18   21.21   52.96
   6   0 -18  153.33   55.45
  -6   0  18   93.36   35.04
   0  -6  18  154.96   50.27
   6  -1 -18  439.51   83.70
   6  -1 -18  196.59   62.88
   1   6 -18    4.33  103.62
  -6   1  18   91.96  101.93
  -1  -6  18  398.96  124.12
  -1  -6  18  226.23   55.89
  -6   1  18  181.80   45.11
   6  -2 -18   13.50   59.32
   6  -2 -18   42.60   37.18
  -2  -6  18  128.09   38.67
  -6   2  18   74.31   24.27
  -6   2  18   20.00   87.77
   3   6 -18  627.63  168.32
   6  -3 -18  666.07  144.06
   6  -3 -18  766.09  155.15
  -3  -6  18  520.60  189.66
  -3  -6  18  715.30  129.29
  -6   3  18  773.48  125.14
  -6   3  18  475.37  166.32
   4   6 -18   92.44   87.87
   6  -4 -18  152.05   59.73
   6  -4 -18   38.55   33.24
  -6   4  18   97.46   79.84
  -4  -6  18   66.79   38.19
  -4  -6  18   65.30  116.21
  -6   4  18   64.36   24.18
   5   6 -18    3.81   87.51
   5   6 -18   68.19   67.11
  -5  -6  18  189.77   40.68
  -5  -6  18    4.05  122.29
   7   6 -18   -3.67   61.99
  -7  -6  18   51.20   34.00
   7   4 -18    3.38   80.38
  -7  -4  18    3.50   99.07
   7   3 -18  -34.86   52.84
   7   3 -18   -3.27   72.31
  -7  -3  18  -26.63   30.74
  -7  -3  18    3.37   98.08
   7   2 -18  497.51  109.11
   7   2 -18  262.27   89.41
  -7  -2  18  398.30   70.57
  -7  -2  18  287.36  117.68
   7   1 -18  -34.05   44.66
   7   1 -18  -68.74   74.62
   1  -7 -18   33.85   49.94
  -7  -1  18   75.02   26.86
  -7  -1  18   47.55   88.59
   0  -7 -18    4.77   53.09
   7   0 -18  -31.91   42.54
   7   0 -18  -89.21   70.98
   0  -7  18  -45.31   40.68
  -7   0  18   92.36   90.17
  -7   0  18    1.95   25.67
   1   7 -18   91.79  106.13
   7  -1 -18   36.18   64.12
   7  -1 -18    2.46   40.53
  -1  -7  18   -4.28  106.68
  -7   1  18   15.06   23.36
  -7   1  18  -23.88   85.93
  -1  -7  18   17.59   32.90
   7  -2 -18  350.85   79.80
   2   7 -18    4.19  112.71
   7  -2 -18  272.60  101.14
  -7   2  18  241.95  108.59
  -7   2  18  378.91   65.97
  -2  -7  18  202.00  142.81
  -2  -7  18  438.85   72.83
   3   7 -18    4.23   84.63
   7  -3 -18   19.09   36.21
   7  -3 -18  -16.86   67.06
  -3  -7  18    4.25  121.45
  -3  -7  18   -3.00   39.52
  -7   3  18   32.43   22.78
  -7   3  18  -30.32   80.58
   4   7 -18   -8.19  100.08
  -7   4  18   83.60   85.20
  -7   4  18  189.76   35.21
  -4  -7  18   76.46  121.79
   6   7 -18   -3.86   66.66
  -6  -7  18   13.85   35.45
   7   7 -18    3.86   71.91
   7   7 -18   -3.98   88.44
  -7  -7  18    4.08  121.00
  -7  -7  18  -32.19   34.79
   8   7 -18   58.96   69.51
   8   7 -18  -88.59   97.22
  -8  -7  18    5.46   35.98
  -8  -7  18   12.41  127.79
   8   6 -18    3.79   79.64
  -8  -6  18    3.94  104.36
   8   5 -18    3.58   55.32
  -8  -5  18   -3.76   98.84
  -8  -5  18   14.99   32.97
   8   3 -18    3.37   73.79
  -8  -3  18    3.44   95.82
   8   2 -18   10.02   73.69
   2  -8 -18   -5.79   31.48
   2  -8 -18   -8.27   48.40
   8   2 -18   37.19   49.05
  -8  -2  18   53.35   96.34
  -8  -2  18   66.81   28.85
   8   1 -18   26.78   75.17
   1  -8 -18    9.32   56.09
   8   1 -18   55.75   48.72
  -1   8  18   39.14   34.25
  -8  -1  18   71.23   95.88
  -8  -1  18   58.67   28.55
   8   0 -18  -38.94   44.30
   8   0 -18 -158.62   78.00
   0  -8 -18    2.61   55.68
  -8   0  18  -14.86   24.42
   0  -8  18    3.30   41.30
  -8   0  18   91.58   94.40
   8  -1 -18   20.41   79.26
   1   8 -18    4.89  103.39
   8  -1 -18  104.95   46.28
  -1  -8 -18   79.99   53.32
  -8   1  18   66.97   27.04
  -1  -8  18   54.77   40.97
  -8   1  18   -6.16   89.99
  -1  -8  18   -4.45  125.80
   2   8 -18    4.45   95.88
   8  -2 -18    2.48   37.39
   8  -2 -18  -16.98   72.55
  -2  -8  18  107.67   39.06
  -8   2  18  -32.85   90.75
  -8   2  18   10.36   26.07
  -2  -8  18    4.38  121.66
   8  -3 -18    7.05   40.99
   8  -3 -18   -6.63   76.87
   3   8 -18    4.46  102.53
  -8   3  18  111.18   29.07
  -8   3  18  243.89   89.16
  -3  -8  18   13.23  127.28
  -8   4  18   42.47   28.65
   5   8 -18    4.16   68.99
  -5  -8  18   -6.00   38.86
   6   8 -18    4.03   61.91
   6   8 -18  -30.28  104.16
  -6  -8  18   47.89  136.56
  -6  -8  18   20.32   37.83
   7   8 -18    4.05   69.56
   7   8 -18  -42.99  108.71
  -7  -8  18    4.31  135.32
  -7  -8  18   33.71   37.99
   8   8 -18    4.37   94.74
   8   8 -18    4.11   71.66
  -8  -8  18    4.38  125.00
  -8  -8  18   42.83   37.89
   9   8 -18    4.48  100.18
   9   8 -18 -186.60   71.13
  -9  -8  18  -33.54   40.32
  -9  -8  18  -55.40  133.91
   9   7 -18 -104.41   94.81
   9   7 -18    4.15   69.39
  -9  -7  18    5.84   39.17
  -9  -7  18    4.38  128.04
   9   6 -18    3.94   86.30
  -9  -6  18   90.86  117.56
   9   5 -18    3.79   86.31
   9   5 -18    3.81   62.96
  -9  -5  18   37.83   33.56
  -9  -5  18   -3.92  112.68
   9   4 -18   -3.71   84.28
   9   4 -18    3.65   57.59
  -9  -4  18   22.40  110.28
  -9  -4  18   -7.86   32.75
   9   3 -18   -3.50   60.06
  -9  -3  18   30.49   32.01
   2  -9 -18  108.55   53.26
   2  -9 -18   12.59   34.18
  -2   9  18   23.97   33.36
   1  -9 -18   44.79   34.38
   1  -9 -18   18.08   56.43
  -9  -1  18  -60.13   99.12
  -1   9  18   -5.24   34.63
   0  -9 -18  -50.25   60.64
   9   0 -18   -3.06   46.40
  -9   0  18  -45.07   30.56
  -9   0  18  -78.51   92.55
  -1  -9 -18   51.00   60.43
   9  -1 -18   14.70   46.20
   1   9 -18   -5.26  108.93
  -9   1  18   28.57   91.98
  -1  -9  18   -4.64  123.61
  -9   1  18   55.90   29.55
   9  -2 -18   58.91   46.85
  -9   2  18   21.69   89.02
  -9   2  18   42.28   30.78
   9  -3 -18  -29.80   40.32
  -9   3  18   77.80   87.78
  -4  -9  18  -32.65   40.15
   5   9 -18    4.33   72.99
   5   9 -18  -87.27  106.30
  -5  -9  18 -305.70  138.37
  -5  -9  18   72.14   44.23
   6   9 -18   32.35  105.43
   6   9 -18    4.20   68.06
  -6  -9  18    9.14  142.91
  -6  -9  18   51.56   40.53
   7   9 -18 -178.26  109.57
   7   9 -18    4.25   68.35
  -7  -9  18   45.56  139.42
  -7  -9  18   23.46   36.21
   8   9 -18   -4.30   70.14
   8   9 -18   -4.72   99.76
  -8  -9  18  -13.94  141.08
  -8  -9  18    8.97   38.93
   9   9 -18   -4.86  108.47
   9   9 -18    4.54   73.64
  -9  -9  18  145.63  144.66
  -9  -9  18   25.50   40.27
  10   9 -18    5.08  114.93
  10   9 -18   -4.94   77.56
 -10  -9  18   17.21   45.34
 -10  -9  18    5.23  149.79
  10   8 -18    4.73   76.23
  10   8 -18 -113.37  105.33
 -10  -8  18  -29.77   42.58
 -10  -8  18    4.95  140.86
  10   7 -18   17.89   94.78
  10   7 -18    4.54   69.66
 -10  -7  18  177.51  127.15
 -10  -7  18   41.37   41.01
  10   6 -18   -4.30  100.40
 -10  -6  18    4.36  118.96
  10   5 -18   -4.19   91.55
  10   5 -18    4.19   65.41
 -10  -5  18   17.78   36.26
 -10  -5  18   -4.12  110.32
  10   4 -18   -4.04   65.71
 -10  -4  18   62.82  113.42
 -10  -4  18    2.87   33.31
  10   3 -18    3.90   72.24
 -10  -3  18  298.35  122.87
 -10  -3  18   55.68   44.63
   2 -10 -18  -13.96   38.54
   2 -10 -18  -59.42   64.75
  10   2 -18   -3.77   58.85
  -2  10  18  -37.45   36.39
 -10  -2  18    7.20   93.45
 -10  -2  18   19.08   33.87
   1 -10 -18   24.24   36.18
  10   1 -18   -3.62   53.89
   1 -10 -18   90.46   68.16
 -10  -1  18  -67.33   31.71
  -1  10  18   48.73   39.31
   0 -10 -18  117.31   72.60
   0  10  18   40.88   42.49
  -1 -10 -18   55.36   64.94
 -10   1  18  -48.19  102.29
  -2 -10  18  -30.43   41.64
 -10   2  18 -166.24  108.71
   3  10 -18  716.04  159.55
 -10   3  18  666.08  155.30
   4  10 -18   -4.56   76.58
   4  10 -18  -25.34  112.96
  -4 -10  18 -180.39  137.34
  -4 -10  18   54.27   42.38
   5  10 -18   -4.95  106.54
   5  10 -18    4.52   74.84
  -5 -10  18    9.46  141.03
  -5 -10  18   13.06   41.89
   6  10 -18   -4.32   62.06
   6  10 -18    4.97  110.45
  -6 -10  18    4.77  139.89
  -6 -10  18   18.93   41.41
   7  10 -18   -4.45   61.64
   7  10 -18   -5.10  108.04
  -7 -10  18   21.37   39.96
  -7 -10  18   -4.81  134.36
   8  10 -18   -4.49   72.74
   8  10 -18  -62.03  120.23
  -8 -10  18    4.92  142.86
  -8 -10  18  -28.08   41.38
   9  10 -18    4.75   77.29
   9  10 -18  138.65  125.26
  -9 -10  18    3.34   43.07
  -9 -10  18   76.80  150.77
  10  10 -18   38.58  128.99
  10  10 -18   -5.16   81.14
 -10 -10  18   17.92   46.09
 -10 -10  18   10.91  150.53
  11  10 -18 -126.90   93.87
  11  10 -18  160.54  131.40
 -11 -10  18    5.82  164.59
 -11 -10  18  -19.44   46.49
  11   9 -18    5.38  114.06
  11   9 -18    5.52   84.26
 -11  -9  18   27.92  158.47
 -11  -9  18   11.23   47.22
  11   8 -18   15.38  113.50
  11   8 -18    5.30   88.48
 -11  -8  18    5.31  151.34
 -11  -8  18  -32.44   43.78
  11   7 -18   24.70  105.40
  11   7 -18    5.10   82.13
 -11  -7  18   59.16   43.69
 -11  -7  18   -4.97  136.78
 -11  -6  18   -4.64  129.11
  11   5 -18    4.74   70.54
 -11  -5  18   61.44  125.71
 -11  -5  18    9.80   39.41
  11   4 -18   -4.58   72.47
 -11  -4  18    4.18  111.74
 -11  -4  18   41.36   39.11
   3 -11 -18   -2.67   47.48
   3 -11 -18   15.98   43.09
  11   3 -18    4.42   65.52
 -11  -3  18 -161.36  110.26
  11   2 -18    4.27   69.62
   2 -11 -18   -7.83   41.22
 -11  -2  18   35.41  111.90
  -2  11  18    3.00   40.22
  -2  11  18   -4.90   53.67
   1 -11 -18   64.00   42.85
 -11  -1  18  142.31  105.15
  -1  11  18   37.89   46.14
 -11   0  18   11.41  106.28
   0 -11  18 -152.28   52.76
   1  11 -18  119.30  131.19
  -1 -11  18   15.20  142.61
  -1 -11  18   82.57   51.30
   2  11 -18   88.57  124.05
  -2 -11  18 -106.63   44.43
  -2 -11  18  233.44  136.52
   3  11 -18    5.31  117.39
 -11   3  18   69.79  106.66
  -3 -11  18    3.61   44.99
  -3 -11  18   43.44  133.00
   4  11 -18    4.68   75.27
   4  11 -18    5.39  116.75
  -4 -11  18   -3.46   44.17
  -4 -11  18   -4.87  133.43
   5  11 -18    4.64   73.03
   5  11 -18  -37.37  123.35
  -5 -11  18  -30.11   44.15
  -5 -11  18  278.63  146.84
   6  11 -18    5.39  117.14
   6  11 -18    4.48   73.49
  -6 -11  18 -173.57  140.42
  -6 -11  18   35.59   41.81
   7  11 -18    5.53  127.72
   7  11 -18    4.61   65.43
  -7 -11  18   28.48   42.43
  -7 -11  18   50.51  147.18
   8  11 -18  -40.07  140.55
   8  11 -18    9.39   79.55
  -8 -11  18  -29.23   41.29
  -8 -11  18  268.78  149.58
   9  11 -18   -5.83  125.36
   9  11 -18   -4.96   81.35
  -9 -11  18    3.48   43.41
  -9 -11  18    5.38  158.99
  10  11 -18   95.87  136.53
  10  11 -18   -5.41   84.36
 -10 -11  18    7.45   42.54
 -10 -11  18   -5.65  157.26
  11  11 -18   -6.04   80.43
  11  11 -18   85.81  144.28
 -11 -11  18    5.99  172.65
 -11 -11  18  -56.48   52.25
  12  11 -18   80.33  138.20
 -12 -11  18  -18.43  172.81
  12  10 -18  -29.70  133.57
 -12 -10  18   60.53  167.13
  12   9 -18    5.76  123.61
 -12  -9  18    5.82  170.49
 -12  -8  18   -5.58  152.80
   3 -12 -18  -32.88   75.06
  -3  12  18   -3.41   42.73
  -3  12  18   58.76   62.59
   2 -12 -18   96.39   81.77
   2 -12 -18  270.56   54.03
  -2  12  18  -33.72   73.88
  -2  12  18  196.82   54.52
   1 -12 -18  -98.67   78.97
   1 -12 -18   89.83   45.41
  -1  12  18  -28.16   50.86
   0 -12 -18    7.05   80.18
   0 -12 -18  193.99   53.04
   0  12  18   26.10   56.86
   0 -12  18  111.99   59.37
   1  12 -18    6.98  146.35
  -1 -12 -18   -6.69   75.82
  -1 -12  18   -7.66   51.60
   2  12 -18    6.05  132.63
  -2 -12  18  -67.48   49.26
  -2 -12  18   55.20  139.08
   3  12 -18   16.87  132.03
  -3 -12  18  -99.07  140.41
  -3 -12  18 -107.14   43.97
   4  12 -18  -22.91  130.68
   4  12 -18   -4.81   81.57
  -4 -12  18 -208.73  145.27
  -4 -12  18   24.70   47.47
   5  12 -18   92.87  130.91
   5  12 -18    4.71   81.63
  -5 -12  18  -27.59   44.32
  -5 -12  18 -211.37  148.62
   6  12 -18 -177.36   90.27
   6  12 -18 -594.98  148.78
  -6 -12  18 -168.01  161.89
  -6 -12  18   -3.31   44.34
   7  12 -18   -4.77   80.02
   7  12 -18    6.02  142.34
  -7 -12  18  110.22  160.64
  -7 -12  18   52.28   42.29
   8  12 -18    6.30  144.86
   8  12 -18    4.88   78.48
  -8 -12  18   -5.41  153.99
  -8 -12  18  -71.17   43.10
   9  12 -18    5.19   83.64
   9  12 -18    6.46  150.45
  -9 -12  18  -50.60   47.29
  -9 -12  18    5.62  161.64
  10  12 -18   19.81  150.95
  10  12 -18    5.69   91.88
 -10 -12  18   23.42  175.99
 -10 -12  18   -3.86   50.49
  11  12 -18   -6.63  148.56
  11  12 -18   38.01  100.65
 -11 -12  18 -223.87  182.83
 -11 -12  18   20.89   54.62
  12  12 -18  123.45  147.59
 -12 -12  18   -6.16  178.98
   3 -13 -18    3.27   77.58
   3 -13 -18    3.46   57.94
  -3  13  18   -3.88   52.27
  -3  13  18   18.67   70.88
   2 -13 -18   19.99   48.89
   2 -13 -18    3.50   80.50
  -2  13  18   96.94   78.97
  -2  13  18  -23.02   53.42
   1 -13 -18   93.22   89.69
   1 -13 -18   56.78   55.22
  -1  13  18   86.76   56.14
   0 -13 -18  -22.79   88.36
   0 -13 -18  -43.61   52.34
   0 -13  18    4.54   59.71
   0  13  18   28.88   54.85
  -1 -13 -18  209.44   91.36
  -1 -13  18   69.51   60.94
   1  13  18  155.62   63.88
   2  13 -18   52.88  144.43
  -2 -13 -18   66.55   71.62
  -2 -13  18    3.96   52.13
  -2 -13  18 -176.30  147.84
   3  13 -18    6.04  133.27
  -3 -13  18   -3.80   49.15
  -3 -13  18 -410.55  148.84
   4  13 -18   96.81  141.60
   4  13 -18   19.56   92.20
  -4 -13  18   28.98   49.26
  -4 -13  18  428.53  150.74
   5  13 -18    4.80   73.21
   5  13 -18    6.28  144.72
  -5 -13  18    3.49   46.77
  -5 -13  18 -190.80  153.37
   6  13 -18  -69.94  145.74
   6  13 -18  -53.09   83.82
  -6 -13  18  -94.18  154.23
  -6 -13  18   -3.36   45.51
   7  13 -18  -48.99   86.49
   7  13 -18    6.60  144.73
  -7 -13  18 -580.90  168.05
  -7 -13  18    6.72   42.23
   8  13 -18    5.09   83.54
   8  13 -18   69.20  151.93
  -8 -13  18  231.41  164.40
  -8 -13  18   35.01   45.92
   9  13 -18  158.82  167.67
   9  13 -18    5.45   82.90
  -9 -13  18   -5.83  165.47
  -9 -13  18   -3.74   48.43
  10  13 -18    6.00   97.88
  10  13 -18 -378.81  160.20
 -10 -13  18   11.90   50.48
 -10 -13  18 -204.98  182.43
  11  13 -18   -7.22  156.29
  11  13 -18    6.64  104.68
 -11 -13  18   30.61  176.94
  12  13 -18  -55.07  161.32
 -12 -13  18   -6.07  172.46
   4 -14 -18 -166.46   83.48
   3 -14 -18  -77.87   58.45
   3 -14 -18   29.00   82.61
  -3  14  18   21.90   63.32
  -3  14  18  109.28   89.50
   2 -14 -18   46.13   94.95
   2 -14 -18   11.28   56.62
  -2  14  18   37.38   87.22
  -2  14  18    4.33   60.94
   1 -14 -18   18.70   59.88
   1 -14 -18 -114.25   92.16
  -1  14  18  -43.92   59.70
  -1  14  18  112.00   83.48
   0 -14 -18   -3.74   56.32
   0 -14 -18   57.00   93.92
   0  14  18   55.10   59.10
  -1 -14 -18   65.70   86.82
   1  14  18  -34.16   65.61
  -1 -14  18   -4.37   58.30
   2  14 -18  102.22  159.12
  -2 -14 -18  -44.37   73.65
  -2 -14  18   24.71   52.19
  -2 -14  18   42.92  151.33
   3  14 -18  -26.17  150.53
   3  14 -18    4.94   81.69
  -3 -14  18  124.08  154.12
  -3 -14  18    3.80   47.89
   4  14 -18  140.74  143.91
   4  14 -18   19.83   89.43
  -4 -14  18   30.79  141.78
  -4 -14  18    3.62   46.29
   5  14 -18    6.67  151.63
   5  14 -18   -4.82   77.37
  -5 -14  18    5.22  148.66
  -5 -14  18  -35.17   44.91
   6  14 -18   24.98   83.04
   6  14 -18 -160.26  164.33
  -6 -14  18  -71.22   43.16
  -6 -14  18   10.75  161.54
   7  14 -18    5.05   84.87
   7  14 -18    7.24  166.93
  -7 -14  18   -5.54  160.94
  -7 -14  18   48.08   46.70
   8  14 -18 -358.94  188.10
   8  14 -18   -5.30   88.06
  -8 -14  18   43.25   49.24
  -8 -14  18    5.81  190.49
   9  14 -18    5.71   93.68
   9  14 -18 -208.25  189.65
  -9 -14  18    3.85   46.11
  -9 -14  18  332.84  185.92
  10  14 -18  -97.83  178.18
  10  14 -18    6.31   99.09
 -10 -14  18   -6.17  175.26
 -10 -14  18   12.26   50.24
  11  14 -18    7.00  107.46
  11  14 -18 -268.07  182.96
 -11 -14  18    6.18  179.90
  12  14 -18  -58.87  165.27
 -12 -14  18    5.98  172.50
   4 -15 -18    4.51   68.00
   4 -15 -18  -76.80   85.07
   3 -15 -18   30.43   66.93
   3 -15 -18    3.96   88.08
  -3  15  18   29.43   69.51
  -3  15  18  126.41   95.94
   2 -15 -18 -123.60   95.16
   2 -15 -18  -80.00   68.92
  -2  15  18   94.42   95.64
   1 -15 -18   79.50   60.67
   1 -15 -18    4.39   96.64
  -1  15  18  -64.07   63.21
  -1  15  18 -158.15   94.60
   0 -15 -18    4.17   62.78
   0 -15 -18   91.98   99.93
   0  15  18  -41.02   68.02
  -1 -15 -18  -41.22   95.06
   1  15  18   54.08   73.88
  -2 -15 -18 -117.86   83.47
   9  15 -18   53.75   89.28
  10  15 -18  -66.13  103.91
  11  15 -18  -96.04  112.86
  11  15 -18  -61.09  204.84
 -11 -15  18  548.90  191.45
   4 -16 -18    4.92   74.89
   4 -16 -18   21.15   91.66
  -4  16  18   55.11  104.23
  -4  16  18  -80.28   79.26
   3 -16 -18 -370.20  109.87
   3 -16 -18 -259.65   87.07
  -3  16  18  -98.29   83.19
  -3  16  18   19.45  111.47
   2 -16 -18 -143.39  111.44
   2 -16 -18 -126.56   84.76
  -2  16  18  158.30   83.27
  -2  16  18    9.89  106.51
   1 -16 -18  798.58  164.00
   0 -16 -18  603.46  140.58
   0 -16 -18  455.69  100.94
   0  16  18   32.95  116.93
   0  16  18  103.18   94.60
  -1 -16 -18  602.07  136.80
  -1 -16 -18 1002.46  164.02
   1  16  18  120.20  135.34
  -2 -16 -18  220.17  102.64
   4 -17 -18   37.26   79.89
   4 -17 -18  110.98  106.05
  -4  17  18   53.59   83.11
  -4  17  18   96.27  121.44
   3 -17 -18    5.27   82.13
   3 -17 -18 -326.60  111.16
  -3  17  18 -167.86  129.67
  -3  17  18   36.34   86.81
   2 -17 -18  -36.40   80.31
   2 -17 -18 -212.34  117.96
  -2  17  18 -101.25  117.77
  -2  17  18   79.14   85.52
   1 -17 -18 -350.42  118.72
   1 -17 -18   31.16   81.20
  -1  17  18   -6.19   83.57
  -1  17  18 -268.02  122.81
   0 -17 -18  -71.00  111.79
   0 -17 -18  -87.92   77.27
   0  17  18  -35.94   98.71
   0  17  18   38.47   85.83
  -1 -17 -18   10.43   78.74
  -1 -17 -18   46.81  105.19
   1  17  18  -13.41   86.99
  -2 -17 -18    4.20   92.45
   4 -18 -18   71.05  111.75
   4 -18 -18    5.72   84.51
  -4  18  18   19.83   87.90
  -4  18  18   12.51  135.90
   3 -18 -18   26.97  121.66
   3 -18 -18   34.53   84.67
  -3  18  18   64.03  145.77
  -3  18  18   53.64   88.94
   2 -18 -18 -164.15  125.11
   2 -18 -18 -102.79   86.35
  -2  18  18  149.04   95.90
  -2  18  18 -100.84  144.56
   1 -18 -18  -57.50   86.69
  -1  18  18 -104.65   91.21
  -1  18  18  -23.04  139.23
   0 -18 -18  -59.01  123.07
   0 -18 -18   91.69   84.85
   0  18  18  -71.75   96.24
   0  18  18  -87.57  116.54
  -1 -18 -18  -35.03   95.64
  -1 -18 -18 -179.44   87.42
   1  18  18   74.06  101.59
   1  18  18   -7.49   94.16
   1   0 -19  579.02  158.04
  -1   0  19  636.50  119.32
   1   1 -19   -8.21   82.79
   1  -1 -19   72.29   84.41
  -1  -1  19  -16.15   31.04
  -1   1  19  -17.11   30.62
  -1  -1  19   -3.78   99.13
   2   1 -19   58.63   73.56
  -1   2  19  -30.49   31.30
  -2  -1  19   46.33   95.19
  -2  -1  19   97.12   34.47
   2   0 -19  -16.89   73.92
  -2   0  19  -75.97   87.91
  -2   0  19    2.39   29.93
   2  -1 -19   16.75   69.80
   1   2 -19  -36.99   86.28
  -1  -2  19    8.42   32.53
  -2   1  19   52.81   31.31
  -1  -2  19  115.48  103.82
  -2   1  19   73.80   93.18
   2  -2 -19 -104.68   70.91
   2   2 -19   14.22   72.67
  -2   2  19    6.71   27.74
  -2  -2  19   59.00   96.67
  -2  -2  19   -2.60   32.61
  -2   2  19    3.27   91.45
   2  -3 -19  816.46  189.65
   3   2 -19 1039.78  188.09
  -3  -2  19  812.77  153.16
  -2   3  19  576.35  206.49
  -3  -2  19  766.07  209.22
  -2   3  19  880.28  153.54
   3   1 -19   30.04   74.14
  -3  -1  19   41.73   30.89
  -3  -1  19  -46.23   97.12
  -1   3  19   -9.14   28.66
   3   0 -19  409.06   95.61
  -3   0  19  321.18  116.53
   1   3 -19   25.09   79.47
   3  -1 -19   46.03   66.50
  -1  -3  19   -3.96  102.02
  -3   1  19   -6.79   28.84
  -1  -3  19   40.54   37.86
  -3   1  19   52.61   89.30
   2   3 -19  627.31  183.05
   3  -2 -19  865.40  180.61
  -2  -3  19  828.29  150.36
  -3   2  19  942.14  202.40
  -3   2  19  721.53  147.22
  -2  -3  19  780.61  209.33
   3   3 -19  -51.38   87.52
   3  -3 -19   79.39   62.99
  -3  -3  19    2.68   34.72
  -3   3  19   17.05   28.11
  -3   3  19    6.14   86.86
  -3  -3  19 -135.03  117.27
   4   3 -19  553.53  174.46
   3  -4 -19  676.26  160.34
  -4  -3  19  759.69  194.26
  -4  -3  19  685.07  132.35
  -3   4  19  625.96  182.81
  -3   4  19  811.25  131.21
   2  -4 -19  150.13   82.75
   4   2 -19  -47.35   87.99
  -4  -2  19  175.64   45.15
  -4  -2  19  -18.61  122.18
  -2   4  19  227.49   43.41
   4   1 -19  586.87  144.89
  -1   4  19  570.21  115.95
  -4  -1  19  663.09  114.35
  -4  -1  19  570.40  164.92
   4   0 -19   46.12   67.72
   0   4  19    2.56   31.86
  -4   0  19   21.05   29.83
  -4   0  19  -41.10   98.31
   1   4 -19  399.74  153.82
   4  -1 -19  946.23  139.87
  -1  -4  19  522.36  174.72
  -4   1  19  673.91  163.13
  -1  -4  19  420.60  116.06
  -4   1  19  555.19  111.39
   4  -2 -19  179.30   74.24
   2   4 -19   15.39   96.67
  -4   2  19  297.53   44.42
  -2  -4  19  -15.89  126.21
  -4   2  19   60.71  104.27
  -2  -4  19  186.98   50.30
   4  -3 -19  570.26  153.56
   3   4 -19  823.74  172.69
   4  -3 -19  834.39  161.59
  -3  -4  19  293.37  203.22
  -4   3  19  472.99  184.11
  -3  -4  19 1055.85  135.17
  -4   3  19  636.53  130.93
   4  -4 -19  -33.37   56.59
   4  -4 -19   18.77   35.26
   4   4 -19    3.73   85.16
  -4  -4  19   39.13   34.05
  -4   4  19    7.31   22.30
  -4  -4  19   -4.03  114.62
  -4   4  19   41.70   89.94
   5   4 -19   75.78   76.25
   5   4 -19   62.89   98.81
  -5  -4  19   56.08  119.67
   5   3 -19  491.68  129.42
  -5  -3  19  535.13  160.95
  -5  -3  19  699.04  107.69
   5   2 -19  562.86  149.86
   5   2 -19  597.52  139.32
  -5  -2  19  646.47  116.06
  -5  -2  19  776.20  172.18
   5   1 -19   92.71   56.28
   5   1 -19   32.48   84.98
  -5  -1  19 -139.28  120.58
  -5  -1  19  211.67   38.31
   5   0 -19  378.68   95.26
   5   0 -19  617.00  112.63
  -5   0  19  339.11   76.09
  -5   0  19  261.54  130.12
   5  -1 -19  128.37   49.52
   1   5 -19  -35.68  107.96
   5  -1 -19   26.53   70.05
  -1  -5  19 -177.36  122.88
  -5   1  19  166.23   32.47
  -5   1  19   76.06   99.59
   2   5 -19  185.34  145.86
   5  -2 -19  700.67  123.16
   5  -2 -19  541.47  133.42
  -2  -5  19  405.45  168.34
  -5   2  19  570.95  156.20
  -5   2  19  532.12  101.12
   3   5 -19  185.54  133.91
   5  -3 -19  514.58  108.30
   5  -3 -19  594.56  119.04
  -5   3  19  550.61  142.75
  -3  -5  19  439.45  162.94
  -5   3  19  476.68   91.75
   4   5 -19  266.92  110.99
  -5   4  19  302.04  107.01
  -4  -5  19  197.39  137.83
  -5   4  19  292.65   54.64
   5   5 -19    3.87   88.64
   5   5 -19   -3.83   48.85
  -5  -5  19   -4.18  120.80
   6   4 -19   -3.56   53.22
   6   4 -19    3.70   85.49
  -6  -4  19    3.87  109.05
   6   3 -19  207.98   70.68
   6   3 -19   88.39   89.11
  -6  -3  19  261.67   48.62
  -6  -3  19    3.72  115.46
   6   2 -19  351.72  121.61
   6   2 -19  329.45  102.98
  -6  -2  19  498.98  140.19
  -6  -2  19  489.88   83.44
   6   1 -19  120.81   55.29
   6   1 -19    6.61   76.95
  -6  -1  19   38.04  101.78
  -6  -1  19  106.02   34.01
   6   0 -19    6.38   68.54
   0  -6 -19    4.39   48.42
   6   0 -19   33.07   44.23
  -6   0  19   -6.69   92.01
  -6   0  19   -4.21   26.78
   6  -1 -19   85.86   71.77
   1   6 -19    4.67  103.40
   6  -1 -19   68.61   44.30
  -1  -6  19    4.38  116.87
  -6   1  19   75.37   29.50
  -6   1  19  100.36   94.23
  -1  -6  19   64.05   38.61
   2   6 -19  182.10  122.11
   6  -2 -19  284.23   88.52
   6  -2 -19  242.03  104.93
  -6   2  19  500.70   73.24
  -2  -6  19  241.01  153.06
  -6   2  19  433.71  124.78
   3   6 -19  195.51  106.09
   6  -3 -19  211.43   54.58
   6  -3 -19  220.74   73.07
  -6   3  19  255.38   99.78
  -3  -6  19    8.70  127.84
  -3  -6  19  210.78   53.53
  -6   3  19  178.04   42.75
   4   6 -19    4.16   99.76
  -4  -6  19   74.52  131.34
  -6   4  19  173.48   34.19
  -6   4  19  200.88   95.99
   7   6 -19    4.02   94.44
  -7  -6  19    4.14  125.90
   7   5 -19    3.69   60.22
  -7  -5  19   33.97   32.81
   7   3 -19  194.98   95.65
  -7  -3  19  195.35  115.47
   7   2 -19   31.58   52.56
   7   2 -19   34.64   81.15
  -7  -2  19  -10.48   96.17
  -7  -2  19   51.95   30.42
   7   1 -19   78.16   53.59
   7   1 -19  -23.59   78.73
  -7  -1  19  128.55  100.93
  -7  -1  19  110.02   33.91
   0  -7 -19    9.81   54.99
   7   0 -19   11.28   46.75
   7   0 -19   66.13   78.04
  -7   0  19    6.18   27.06
  -7   0  19   65.69   93.78
   1   7 -19   -4.93   96.27
   7  -1 -19  126.04   48.06
   7  -1 -19  109.74   78.08
  -1  -7  19  -27.32  127.41
  -7   1  19  130.52   94.03
  -7   1  19  142.72   30.73
  -1  -7  19   -3.11   47.29
   2   7 -19   31.31  101.95
   7  -2 -19   34.62   74.12
   7  -2 -19   33.75   42.86
  -7   2  19   49.16   90.07
  -2  -7  19    4.48  123.34
  -7   2  19   95.57   26.01
   7  -3 -19  195.58   62.47
   7  -3 -19  244.48   85.01
   3   7 -19   -4.49  104.08
  -3  -7  19   -4.51  138.73
  -7   3  19  314.65   50.56
  -7   3  19  366.08  102.59
   5   7 -19    4.27   75.04
  -5  -7  19   21.53   38.93
   6   7 -19   -4.30   95.99
   6   7 -19   -4.13   76.62
  -6  -7  19   -8.93   37.95
  -6  -7  19  240.71  142.82
   7   7 -19  138.57  125.62
   7   7 -19   72.59  107.42
  -7  -7  19  -14.38   39.65
   8   7 -19    4.18   74.36
   8   7 -19   30.09   99.39
  -8  -7  19  103.51   39.10
  -8  -7  19   17.50  139.16
   8   6 -19   -4.02   90.88
  -8  -6  19   74.33  120.43
   8   5 -19 -145.84   86.66
   8   5 -19   -3.80   60.62
  -8  -5  19 -192.57  106.84
  -8  -5  19   31.49   33.52
   8   4 -19  549.30  120.33
  -8  -4  19  622.80  133.43
   8   2 -19   -3.57   81.22
   1  -8 -19   49.35   55.78
   8   1 -19 -120.93   80.51
   8   1 -19   21.53   45.98
  -8  -1  19  139.88   30.11
  -8  -1  19 -130.94   96.83
   8   0 -19    2.90   40.39
   8   0 -19  -46.34   80.40
   0  -8 -19  -29.41   63.31
  -8   0  19   20.16   94.31
  -8   0  19    2.20   27.88
   8  -1 -19  -81.95   77.03
   8  -1 -19    8.19   41.25
  -8   1  19   19.62   94.05
  -8   1  19   36.67   27.18
   8  -2 -19   35.86   46.41
   8  -2 -19   52.72   82.53
  -8   2  19  101.32   90.52
  -8   2  19  138.12   32.72
   8  -3 -19  -44.16   76.94
   8  -3 -19  -41.02   40.56
  -8   3  19   25.29   25.65
  -8   3  19   21.23   90.58
  -4  -8  19   -6.74   41.73
  -4  -8  19   -4.74   95.14
   5   8 -19   82.53  104.34
   5   8 -19   -4.47   74.31
  -5  -8  19   -9.55   38.68
  -5  -8  19   79.82  142.84
   6   8 -19    4.32   71.97
   6   8 -19  -95.93  118.35
  -6  -8  19   -4.68  153.82
  -6  -8  19    9.37   38.39
   7   8 -19   -4.61   98.42
   7   8 -19    4.27   77.98
  -7  -8  19   13.82  140.09
  -7  -8  19    3.01   40.81
   8   8 -19    4.37   72.99
   8   8 -19  -13.78  109.35
  -8  -8  19  -45.19   39.73
  -8  -8  19   -4.64  140.80
   9   8 -19    4.53   71.86
   9   8 -19    4.71  101.87
  -9  -8  19   92.04   45.17
  -9  -8  19  162.81  137.81
   9   7 -19   -4.41   95.79
   9   7 -19    4.33   72.44
  -9  -7  19  -86.18  133.54
  -9  -7  19   15.19   39.83
   9   6 -19   -4.16   90.49
  -9  -6  19    4.31  115.70
   9   5 -19   27.72   62.29
   9   5 -19   -3.99   87.80
  -9  -5  19   95.16   38.73
  -9  -5  19    4.10  112.81
   9   4 -19    3.79   59.51
   9   4 -19  104.64   94.73
  -9  -4  19   54.09   35.04
  -9  -4  19  382.97  123.76
   9   3 -19    3.62   60.83
   9   3 -19    3.84   84.09
  -9  -3  19   34.09   33.24
  -9  -3  19   -3.77  103.83
   9   2 -19    6.92   57.30
  -9  -2  19  -15.36   31.41
   1  -9 -19   59.95   59.55
  -1   9  19   30.20   35.18
   9   0 -19   64.79   93.90
   0  -9 -19   14.28   66.19
  -9   0  19  -34.85  102.87
  -1  -9 -19   46.74   57.96
   9  -1 -19  -14.96   42.93
   9  -1 -19  141.83   95.21
  -9   1  19  156.78  102.44
  -1  -9  19   60.21   42.54
  -9   1  19   84.08   31.04
   9  -2 -19   51.04   95.42
   9  -2 -19  -14.34   44.90
  -2  -9  19  -40.17   41.96
  -9   2  19   -4.75   29.69
  -9   2  19   29.84   96.01
   3   9 -19  189.98  104.16
   9  -3 -19  -38.27   44.53
   9  -3 -19  -63.46   97.58
  -3  -9  19  245.78  135.86
  -9   3  19    9.65   29.98
  -3  -9  19   17.16   44.40
  -9   3  19  -38.22   96.67
   4   9 -19  500.61  156.44
  -4  -9  19  951.81  189.88
   5   9 -19    4.64   76.16
   5   9 -19   -4.91  112.12
  -5  -9  19   10.00   43.72
  -5  -9  19   -4.88  150.46
   6   9 -19    4.89  110.54
   6   9 -19   -4.50   72.90
  -6  -9  19 -503.87  149.88
  -6  -9  19   19.44   43.34
   7   9 -19   69.52  116.23
   7   9 -19   -4.48   76.53
  -7  -9  19   53.28   42.02
  -7  -9  19  -82.83  148.85
   8   9 -19   34.98  110.73
   8   9 -19    4.53   78.84
  -8  -9  19   -4.92  142.12
  -8  -9  19   69.37   42.51
   9   9 -19  -46.20  114.39
   9   9 -19   -4.74   76.14
  -9  -9  19 -478.21  150.44
  -9  -9  19   16.61   43.00
  10   9 -19   90.55  116.89
  10   9 -19  -66.30   81.68
 -10  -9  19  -35.95   45.80
 -10  -9  19 -183.60  159.90
  10   8 -19    4.94  107.42
  10   8 -19   14.64   81.52
 -10  -8  19   62.08   46.87
 -10  -8  19    5.13  149.89
  10   7 -19   51.44   76.85
  10   7 -19   65.11   99.61
 -10  -7  19    4.83  140.96
 -10  -7  19  122.51   45.46
  10   6 -19   -4.43   94.89
 -10  -6  19   41.06  130.95
  10   5 -19    4.31   61.37
  10   5 -19  -21.55   94.50
 -10  -5  19   30.26  124.66
 -10  -5  19  -36.81   38.82
  10   4 -19  -41.39   67.22
  10   4 -19   -4.27   91.97
 -10  -4  19   -4.08  117.31
 -10  -4  19  -38.57   34.53
  10   3 -19    3.98   60.46
  10   3 -19   64.48  105.97
 -10  -3  19   31.70   36.94
 -10  -3  19   62.74  114.04
  10   2 -19   -3.83   57.49
 -10  -2  19 -216.86  110.00
 -10  -2  19   -5.61   35.00
  10   1 -19 -144.21   64.28
   1 -10 -19  103.65   73.67
   1 -10 -19  122.39   42.60
 -10  -1  19 -241.97  107.65
  -1  10  19   56.10   39.70
 -10  -1  19   49.37   35.36
   0 -10 -19  -52.24   71.88
  10   0 -19   74.14   59.99
 -10   0  19  -21.79   35.98
  -1 -10 -19   -2.98   53.05
   1  10 -19 -439.40  134.37
  -1 -10  19 -427.97  148.30
  -1 -10  19   28.33   46.97
   2  10 -19   -5.47  120.94
  -2 -10  19 -164.49  146.46
 -10   2  19  160.71  102.27
  -2 -10  19  -24.68   46.10
   3  10 -19    5.29  122.49
 -10   3  19  -40.45   97.94
  -3 -10  19    4.97  138.35
  -3 -10  19  -57.70   47.06
   4  10 -19   42.95  117.53
  -4 -10  19   -5.04  138.99
  -4 -10  19  -46.63   44.42
   5  10 -19  -58.07  120.71
   5  10 -19 -235.39   84.10
  -5 -10  19  101.11  149.56
  -5 -10  19   10.43   44.60
   6  10 -19  -36.90  117.73
   6  10 -19   -4.66   78.46
  -6 -10  19  -16.86   42.84
  -6 -10  19    5.10  151.51
   7  10 -19    4.70   76.31
   7  10 -19    5.35  116.83
  -7 -10  19   77.14  142.13
  -7 -10  19   39.14   43.79
   8  10 -19    5.49  120.08
   8  10 -19    4.73   69.18
  -8 -10  19 -229.42  153.37
  -8 -10  19   36.31   42.58
   9  10 -19    5.57  121.98
   9  10 -19  -19.79   81.23
  -9 -10  19  129.38  147.72
  -9 -10  19   10.45   46.06
  10  10 -19   -5.77  127.18
  10  10 -19  111.98   83.61
 -10 -10  19 -124.67  167.65
 -10 -10  19  -29.96   48.92
  11  10 -19 -100.63   92.22
  11  10 -19    6.00  125.08
 -11 -10  19   16.04   47.71
 -11 -10  19    6.05  168.96
  11   9 -19    5.61  128.22
  11   9 -19    5.67   94.81
 -11  -9  19 -162.40  165.21
 -11  -9  19  -34.63   47.88
  11   8 -19  -21.73   84.43
  11   8 -19   15.83  117.85
 -11  -8  19    5.50  150.58
 -11  -8  19   62.89   47.82
  11   7 -19   -5.22   86.13
  11   7 -19    5.05  112.63
 -11  -7  19  -46.65  147.75
 -11  -7  19  -17.82   44.56
  11   6 -19   -4.90  105.30
 -11  -6  19  101.66  130.53
  11   5 -19    4.84   75.21
 -11  -5  19   68.66  125.50
 -11  -5  19  -33.51   41.41
  11   4 -19    4.65   64.10
 -11  -4  19    3.26   39.34
 -11  -4  19   -4.32  121.90
  11   3 -19   -4.49   75.79
 -11  -3  19   50.99   39.10
 -11  -3  19    4.15  118.82
  11   2 -19   -4.32   55.34
 -11  -2  19    4.02  113.10
  11   1 -19    4.17   67.32
 -11  -1  19 -161.87  112.22
 -11   0  19  199.80  120.45
   1  11 -19 -160.13  141.96
  -1 -11 -19    3.18   72.32
  -1 -11  19    3.76   48.02
 -11   1  19  -54.42  107.20
   2  11 -19 -135.86  135.51
  -2 -11  19   25.72  140.15
  -2 -11  19   44.54   49.27
   3  11 -19    5.58  131.38
  -3 -11  19   87.02  149.65
  -3 -11  19   71.91   49.27
   4  11 -19    4.99   83.27
   4  11 -19    5.69  127.02
  -4 -11  19    5.16  136.98
  -4 -11  19   29.33   49.32
   5  11 -19   -4.97   86.24
   5  11 -19  -34.30  126.54
  -5 -11  19  -17.82   46.45
  -5 -11  19   15.68  153.43
   6  11 -19   -4.77   82.78
   6  11 -19   -5.69  130.90
  -6 -11  19  -17.46   47.02
  -6 -11  19    5.26  147.86
   7  11 -19   87.27  135.36
   7  11 -19    4.90   83.63
  -7 -11  19  107.51  159.54
  -7 -11  19  -33.80   43.90
   8  11 -19  108.26  142.12
   8  11 -19    4.93   81.03
  -8 -11  19  198.08  164.60
  -8 -11  19   -6.88   43.78
   9  11 -19   -6.15  135.28
   9  11 -19   15.52   83.98
  -9 -11  19   29.13   45.77
  -9 -11  19   11.38  167.23
  10  11 -19    5.58   91.88
  10  11 -19    6.33  129.71
 -10 -11  19  160.79  171.32
 -10 -11  19   15.59   47.53
  11  11 -19  -32.43  155.56
  11  11 -19   -6.19   97.95
 -11 -11  19   -6.25  182.16
 -11 -11  19  -58.60   56.29
  12  11 -19 -105.22  153.08
  12  11 -19    6.92  108.87
 -12 -11  19    6.52  183.14
  12  10 -19   33.09  115.04
  12  10 -19    6.22  142.08
 -12 -10  19  464.80  196.97
  12   9 -19    6.34  103.07
  12   9 -19   83.41  134.12
 -12  -9  19 -460.41  166.86
  12   8 -19    6.09  101.97
  12   8 -19  -86.26  124.90
 -12  -8  19    5.80  154.89
  12   7 -19  205.26   99.96
  12   7 -19  145.72  128.26
 -12  -7  19  -71.33  158.38
  12   6 -19   -5.66   88.48
 -12  -6  19  -76.97  142.94
  12   5 -19    5.47   83.10
 -12  -5  19  -43.68  136.28
   2 -12 -19  -26.51   45.38
   2 -12 -19    3.21   73.82
  -2  12  19  -47.13   46.96
   1 -12 -19   71.14   47.03
   1 -12 -19  203.08   86.25
  -1  12  19  -17.76   49.73
   0 -12 -19 -107.96   76.86
   0  12  19   45.84   50.33
  -1 -12 -19  309.86   88.11
   1  12 -19   22.25  163.65
  -1 -12  19   72.68   58.56
   2  12 -19   -6.43  140.12
  -2 -12  19  -70.79   53.77
  -2 -12  19 -441.13  156.88
   3  12 -19   23.88  130.21
  -3 -12  19 -231.07  153.50
  -3 -12  19   39.68   53.76
   4  12 -19 -297.03   94.41
   4  12 -19   12.05  135.46
  -4 -12  19  -47.26  158.58
  -4 -12  19    3.79   49.61
   5  12 -19   50.62   92.47
   5  12 -19   92.98  138.73
  -5 -12  19   36.76   49.25
  -5 -12  19    5.37  154.95
   6  12 -19    4.92   85.05
   6  12 -19   -6.19  139.36
  -6 -12  19   -5.42  149.14
  -6 -12  19  -60.51   47.06
   7  12 -19    5.06   86.51
   7  12 -19  -82.39  155.49
  -7 -12  19  -73.18   44.76
  -7 -12  19    5.59  166.05
   8  12 -19    5.14   78.11
   8  12 -19   -6.58  143.16
  -8 -12  19   63.56  165.44
  -8 -12  19  -28.56   39.99
   9  12 -19 -129.75  158.59
   9  12 -19    5.41   91.21
  -9 -12  19   -3.81   47.79
  -9 -12  19   11.94  171.24
  10  12 -19  157.99   98.88
  10  12 -19    6.95  154.91
 -10 -12  19  658.87  200.83
 -10 -12  19   36.43   59.23
  11  12 -19 -226.84  102.61
  11  12 -19 -162.19  164.90
 -11 -12  19 -134.76  187.17
 -11 -12  19   17.40   52.19
  12  12 -19   34.87  161.02
  12  12 -19   14.52  115.64
 -12 -12  19    6.54  191.10
   2 -13 -19    3.33   52.71
   2 -13 -19  140.12   84.63
  -2  13  19  -27.87   79.64
  -2  13  19   30.39   52.78
   1 -13 -19  233.86   93.87
   1 -13 -19   82.76   54.94
  -1  13  19   -7.89   52.53
   0 -13 -19  121.40   61.65
   0 -13 -19  468.08   99.96
   0  13  19   50.44   65.89
  -1 -13 -19    3.67   84.29
  -1 -13  19    4.38   57.21
   2  13 -19   14.08  161.66
  -2 -13  19  153.60  165.34
  -2 -13  19   -4.19   52.60
   3  13 -19    6.43  144.77
  -3 -13  19    5.36  155.96
  -3 -13  19    4.04   53.91
   4  13 -19   63.72  152.41
   4  13 -19    5.20   83.69
  -4 -13  19  -69.56   52.71
  -4 -13  19   -5.36  154.67
   5  13 -19   -6.60  147.58
   5  13 -19    5.11   81.12
  -5 -13  19  -67.34   46.66
  -5 -13  19    5.46  154.91
   6  13 -19  -60.85  153.78
   6  13 -19    5.08   87.39
  -6 -13  19    5.60  156.29
  -6 -13  19   21.75   45.54
   7  13 -19  -96.99  163.82
   7  13 -19    5.21   90.39
  -7 -13  19   -7.16   45.47
  -7 -13  19    5.74  165.11
   8  13 -19  -64.90  164.99
   8  13 -19    5.33   89.04
  -8 -13  19   81.56   49.08
  -8 -13  19   17.99  177.60
   9  13 -19    5.65   89.48
   9  13 -19  -30.22  185.44
  -9 -13  19  -19.68   53.18
  10  13 -19    7.67  161.11
  10  13 -19   30.74  100.98
 -10 -13  19 -205.71  194.52
 -10 -13  19   -4.18   53.18
  11  13 -19   27.23  107.77
  11  13 -19  -38.11  175.68
 -11 -13  19  -54.01   55.36
 -11 -13  19   -6.55  190.41
  12  13 -19   -7.44  164.94
 -12 -13  19  123.96  187.65
   2 -14 -19  -11.29   56.64
   2 -14 -19  128.66   94.50
  -2  14  19   72.73   99.08
  -2  14  19  -38.59   58.36
   1 -14 -19  -59.63   56.62
   1 -14 -19  268.45   99.10
  -1  14  19   35.37   60.61
  -1  14  19  -57.30   96.53
   0 -14 -19  -93.11   57.71
   0 -14 -19   37.33   94.12
   0  14  19   27.94   56.50
  -1 -14 -19  -54.88   92.07
  -1 -14  19   -4.71   62.12
   2  14 -19  231.90  168.81
  -2 -14  19  -39.69   64.27
   3  14 -19  -47.50   88.88
   3  14 -19  -27.86  152.86
  -3 -14  19   73.54   54.81
  -3 -14  19  136.48  161.85
   4  14 -19    5.28   88.41
   4  14 -19    6.72  154.95
  -4 -14  19    3.93   51.01
  -4 -14  19   -5.44  153.38
   5  14 -19  372.79  170.32
   5  14 -19    5.16   84.42
  -5 -14  19  115.95  156.42
  -5 -14  19   75.75   50.57
   6  14 -19   37.12  161.91
   6  14 -19    5.25   85.21
  -6 -14  19 -320.25  168.33
  -6 -14  19    3.65   46.79
   7  14 -19  106.81  188.17
   8  14 -19   -5.53   85.83
   8  14 -19    8.00  180.90
  -8 -14  19   98.86  176.33
  -8 -14  19   -7.62   48.66
   9  14 -19  -66.77  196.78
   9  14 -19   11.82   91.63
  -9 -14  19  -32.43   51.07
  -9 -14  19   25.77  189.72
  10  14 -19    6.48  101.57
  10  14 -19   -8.56  191.21
 -10 -14  19    6.60  190.91
 -10 -14  19    4.29   52.78
  11  14 -19 -192.84  112.62
  11  14 -19    8.38  191.24
 -11 -14  19    4.63   59.42
 -11 -14  19   13.27  196.04
   3 -15 -19  -98.44   91.95
   2 -15 -19   42.38   65.58
   2 -15 -19  265.08  101.26
  -2  15  19   46.53  103.58
  -2  15  19   72.48   66.12
   1 -15 -19   54.50   61.03
   1 -15 -19 -144.44  106.69
  -1  15  19  -89.33   64.53
  -1  15  19    9.10  102.84
   0 -15 -19   45.78   68.77
   0 -15 -19  236.04  106.36
   0  15  19   30.99   72.35
  -1 -15 -19  -58.40   92.74
   1  15  19   22.06   67.08
   6  15 -19   16.06   89.87
   7  15 -19   -5.45   90.24
   8  15 -19    8.90  193.57
   8  15 -19   -5.73   91.85
  -8 -15  19   12.60  184.86
   9  15 -19   -9.33  206.72
   9  15 -19   -6.17   98.67
  -9 -15  19   33.20   48.44
  -9 -15  19 -250.94  188.87
  10  15 -19  -57.18  223.60
  10  15 -19    6.81   96.24
 -10 -15  19  -65.80   58.44
 -10 -15  19 -338.69  193.51
   3 -16 -19 -109.61   99.63
   3 -16 -19  130.94   68.63
  -3  16  19   37.70   74.33
   2 -16 -19   97.75  102.58
   2 -16 -19    4.75   73.28
  -2  16  19 -129.05  124.89
  -2  16  19 -119.43   78.78
   1 -16 -19   -4.70   66.43
   1 -16 -19  -58.15  116.01
  -1  16  19  -39.01   74.68
  -1  16  19   60.05  109.18
   0 -16 -19   18.56   74.79
   0 -16 -19 -110.14  112.73
   0  16  19 -109.80   82.67
   0  16  19 -132.04  106.68
  -1 -16 -19   79.58  103.66
   1  16  19  -36.73   80.75
   3 -17 -19   63.28  109.65
   3 -17 -19   -5.35   79.25
  -3  17  19   17.97   87.05
  -3  17  19  -24.18  134.20
   2 -17 -19   26.40   83.02
   2 -17 -19 -137.79  119.83
  -2  17  19   49.08  149.79
  -2  17  19   12.15   83.01
   1 -17 -19   15.67  123.13
   1 -17 -19  -68.15   77.81
  -1  17  19    6.25   86.75
  -1  17  19   44.64  130.65
   0 -17 -19 -370.25  116.14
   0 -17 -19    5.19   80.41
   0  17  19   12.93   86.82
   0  17  19   76.28  104.31
  -1 -17 -19   28.26  106.18
   1  17  19   81.92   89.70
   3 -18 -19 -140.07   90.05
  -3  18  19 -111.45  158.56
  -3  18  19   13.28   98.16
   2 -18 -19  169.16   94.58
  -2  18  19  196.59  100.66
  -2  18  19  -96.38  166.02
   1 -18 -19   75.55   87.10
   1 -18 -19    5.59  114.20
  -1  18  19  -41.98   91.24
  -1  18  19 -260.80  149.17
   0 -18 -19  -51.90   90.27
   0  18  19   -7.25   99.06
   1  18  19  -60.86  103.22
   1   0 -20   58.95   94.86
  -1   0  20    2.75   34.06
   1   1 -20   58.14   93.09
  -1   1  20   62.72   35.76
  -1  -1  20   86.60   36.61
   2   1 -20  -82.52   82.98
  -1   2  20   37.64   31.93
  -2  -1  20    2.65   28.28
  -2  -1  20   22.86  101.36
   2   0 -20   44.40   78.17
  -2   0  20  -17.75   32.98
  -2   0  20 -107.29   98.55
   1   2 -20 -103.10   93.40
   2  -1 -20 -110.26   74.62
  -1  -2  20  -82.85  113.09
  -2   1  20   10.81   96.24
  -2   1  20  -22.09   31.05
  -1  -2  20   -3.01   35.53
   2   2 -20  269.05  103.03
   2  -2 -20  292.79   94.75
  -2  -2  20  350.48  129.95
  -2  -2  20  197.85   55.67
  -2   2  20  233.02   54.44
  -2   2  20  151.66  110.93
   3   2 -20 -224.61  100.16
   2  -3 -20   -3.79   83.43
  -2   3  20  131.49   33.08
  -3  -2  20 -252.33  121.20
  -3  -2  20   32.66   35.85
  -2   3  20  -34.74   98.41
  -3  -1  20  816.55  148.87
  -3  -1  20  423.97   81.50
  -1   3  20  247.72   80.92
   3   0 -20   47.98   78.49
  -3   0  20  -27.74   31.90
  -3   0  20  142.20  101.13
   1   3 -20  736.61  137.24
   3  -1 -20  558.94  115.00
  -3   1  20  444.41  139.02
  -1  -3  20  189.56   83.58
  -1  -3  20  520.78  150.44
  -3   1  20  335.88   79.92
   2   3 -20  -23.83   90.66
   3  -2 -20   25.33   65.19
  -2  -3  20   62.86   38.35
  -3   2  20   69.03   32.55
  -3   2  20   71.74   93.15
  -2  -3  20 -191.89  121.92
   3  -3 -20  907.07  173.98
   3   3 -20  591.54  180.83
  -3  -3  20  862.33  204.19
  -3   3  20  715.51  198.48
   4   3 -20   -3.85   90.21
  -4  -3  20    4.18  118.52
  -4  -3  20    8.55   35.33
  -3   4  20   11.46   30.12
  -3   4  20  -69.91   95.94
   4   2 -20  804.18  155.66
  -4  -2  20  598.24  182.33
  -4  -2  20  633.38  120.93
  -2   4  20  615.14  121.65
   4   1 -20   49.13   77.50
  -4  -1  20  -46.36  106.74
  -1   4  20  -17.18   31.45
  -4  -1  20    2.61   31.40
   4   0 -20  674.20  147.82
  -4   0  20  460.41  169.55
  -4   0  20  596.64  113.16
   1   4 -20   37.17   99.12
   4  -1 -20 -112.46   71.67
  -1  -4  20    9.47   37.75
  -4   1  20  -96.68  104.57
  -1  -4  20   34.84  110.38
  -4   1  20    7.30   30.60
   4  -2 -20  624.89  136.04
   2   4 -20  194.01  146.30
  -2  -4  20  742.93  106.13
  -4   2  20  595.76  101.82
  -2  -4  20   21.20  169.31
  -4   2  20  394.08  159.31
   4  -3 -20   69.88   66.64
   3   4 -20   41.04   90.76
  -3  -4  20    2.95   34.55
  -3  -4  20    4.27  117.86
  -4   3  20   19.81   29.94
  -4   3  20   46.63   98.68
   4   4 -20   24.24  101.07
  -4  -4  20    4.35  135.17
  -4   4  20  308.44   50.39
  -4   4  20  236.16  108.38
  -4  -4  20  232.53   57.11
   5   4 -20    3.97   88.67
  -5  -4  20  181.51  129.83
   5   3 -20  281.29  127.70
   5   3 -20  270.21  110.00
  -5  -3  20  387.31  154.42
   5   2 -20  637.60  138.03
   5   2 -20  323.92  118.97
  -5  -2  20  608.76  100.41
  -5  -2  20  670.12  165.16
   5   1 -20  549.59  139.93
   5   1 -20  802.85  154.11
  -5  -1  20  616.12  117.34
  -5  -1  20  610.98  174.48
   5   0 -20   46.68   75.01
   5   0 -20   92.19   50.43
  -5   0  20  -55.88  113.24
  -5   0  20   16.60   30.47
   5  -1 -20  763.55  142.74
   5  -1 -20  596.48  131.40
   1   5 -20  120.18  160.59
  -5   1  20  790.28  166.38
  -1  -5  20  521.84  176.08
  -5   1  20  540.03  108.79
   5  -2 -20  250.71  117.27
   5  -2 -20  481.14  103.48
   2   5 -20  388.77  132.94
  -5   2  20  433.56  139.06
  -2  -5  20  259.83  161.34
  -5   2  20  512.92   84.84
   5  -3 -20  393.83  114.98
   3   5 -20  378.91  148.57
   5  -3 -20  579.64  129.13
  -3  -5  20  617.42  103.43
  -5   3  20  592.10  152.50
  -3  -5  20  399.98  171.29
  -5   3  20  626.20  100.29
   4   5 -20  114.86   93.65
  -4  -5  20   18.10  134.01
   6   5 -20   -4.03   59.51
  -6  -5  20   40.31   39.87
   6   3 -20  176.60  104.18
  -6  -3  20  231.05  136.90
   6   2 -20  114.46   62.27
   6   2 -20  222.92   99.43
  -6  -2  20  232.08   46.93
  -6  -2  20  210.98  118.06
   6   1 -20  134.91   57.35
   6   1 -20   61.10   82.71
  -6  -1  20   83.05  111.01
  -6  -1  20    7.17   30.99
   6   0 -20   13.87   76.96
   6   0 -20   41.16   47.06
  -6   0  20   22.66   30.37
  -6   0  20  -47.52  106.21
   1   6 -20   25.10  106.63
   6  -1 -20   57.42   47.17
   6  -1 -20   92.93   79.76
  -1  -6  20  102.58  132.45
  -6   1  20  -35.40  102.58
  -6   1  20  174.79   33.29
   6  -2 -20  169.18   80.10
   6  -2 -20   73.10   53.66
   2   6 -20   86.28  102.39
  -6   2  20  136.71  106.86
  -6   2  20  203.98   38.09
  -2  -6  20  118.85  133.55
   6  -3 -20  345.87   93.47
   6  -3 -20  332.65   75.99
  -6   3  20  197.86  119.65
  -6   3  20  310.70   61.99
   6   6 -20  121.26  113.67
  -6  -6  20   -4.58  129.25
   7   6 -20   86.70  115.89
  -7  -6  20    4.44  140.53
   7   5 -20   41.04   92.95
   7   5 -20 -171.26   67.00
  -7  -5  20  -72.62   37.44
  -7  -5  20    4.22  122.45
   7   4 -20    3.69   61.80
  -7  -4  20   -4.05   86.66
  -7  -4  20   23.93   37.98
   7   2 -20  273.12  104.04
  -7  -2  20  309.90  123.03
   7   1 -20  -32.83   83.72
   7   1 -20  -31.55   52.76
  -7  -1  20   32.97  104.41
  -7  -1  20   78.31   29.97
   7   0 -20    2.99   41.31
   7   0 -20   -3.57   82.31
  -7   0  20  -60.47   99.18
  -7   0  20   -8.80   28.38
   7  -1 -20  -72.86   78.06
   7  -1 -20   39.05   45.51
  -7   1  20   29.41   27.14
  -7   1  20  110.46  102.90
   7  -2 -20  140.78   59.65
   7  -2 -20  187.38   87.66
  -7   2  20  209.64   43.54
  -7   2  20  126.61  104.91
   7  -3 -20  -53.67   74.20
   7  -3 -20   11.77   37.83
  -7   3  20  -23.25   26.41
  -7   3  20  -22.41   98.78
  -3  -7  20   -3.30   43.50
   4   7 -20  659.61  145.15
  -4  -7  20  712.11  168.18
   5   7 -20  -50.76  103.26
   5   7 -20   72.66   69.91
  -5  -7  20 -217.53  136.60
  -5  -7  20   42.44   43.94
   6   7 -20   18.30  109.96
   6   7 -20   26.77   80.29
  -6  -7  20    6.34   43.07
  -6  -7  20    4.78  152.91
  -7  -7  20  595.66  128.21
   8   7 -20    4.42   77.30
   8   7 -20   -4.57  100.42
  -8  -7  20  -41.83  138.17
  -8  -7  20  -27.33   38.34
   8   6 -20   77.59  100.42
  -8  -6  20    4.40  132.41
   8   5 -20   28.91   93.38
   8   5 -20    4.01   70.63
  -8  -5  20   24.93   36.78
  -8  -5  20    8.35  125.70
   8   4 -20 -308.29  105.15
   8   4 -20    3.82   70.00
  -8  -4  20 -235.72  120.56
  -8  -4  20  -37.11   36.84
   8   3 -20  -28.99   62.07
   8   3 -20   89.34   84.62
  -8  -3  20  184.74  108.02
  -8  -3  20   33.09   31.51
  -8  -2  20   -2.45   31.25
   8   0 -20  148.59   90.28
   8   0 -20  103.57   51.04
  -8   0  20   67.48  100.63
  -8   0  20   -2.29   25.13
   8  -1 -20    2.85   46.93
   8  -1 -20   75.59   86.33
  -8   1  20   44.75   28.94
  -1  -8  20   67.98   45.69
  -8   1  20  -48.34  100.71
   8  -2 -20   -8.02   40.83
   8  -2 -20   81.39   85.34
   2   8 -20   -5.10   99.87
  -2  -8  20   -3.37   39.07
  -8   2  20    4.41   27.70
  -8   2  20   -3.33   96.22
   8  -3 -20   32.46   42.04
   3   8 -20  -39.99  107.50
   8  -3 -20  120.29   83.73
  -3  -8  20    4.95  146.28
  -8   3  20   25.46   93.28
  -8   3  20   30.30   28.12
  -3  -8  20   17.19   45.47
   4   8 -20 -101.27  118.76
  -4  -8  20   63.74   47.18
   5   8 -20 -117.91  115.43
   5   8 -20   -4.77   74.36
  -5  -8  20    6.82   43.26
  -5  -8  20   -5.02  147.09
   6   8 -20    4.66   81.44
   6   8 -20    4.85  107.31
  -6  -8  20   39.86   41.07
  -6  -8  20    5.01  151.41
   7   8 -20  -44.00  115.61
   7   8 -20   -4.53   84.01
  -7  -8  20   25.70   43.15
   8   8 -20    4.89  105.16
   8   8 -20    4.63   76.68
  -8  -8  20  127.35   43.93
  -8  -8  20   93.46  150.83
   9   8 -20   37.87   75.68
   9   8 -20   35.02  113.46
  -9  -8  20  -19.97   44.90
  -9  -8  20    5.03  150.06
   9   7 -20   27.91  110.65
   9   7 -20    9.04   76.46
  -9  -7  20  104.86   44.88
  -9  -7  20    9.46  138.54
   9   6 -20    4.42   97.75
  -9  -6  20    4.47  130.14
   9   5 -20    4.13   66.68
   9   5 -20    4.24   98.40
  -9  -5  20  -35.01   39.36
  -9  -5  20   -4.27  117.63
   9   4 -20    3.94   64.43
   9   4 -20  -70.10   92.72
  -9  -4  20    8.43   36.57
  -9  -4  20    4.11  117.27
   9   3 -20    4.08   98.14
   9   3 -20    3.77   62.81
  -9  -3  20    3.97  110.59
  -9  -3  20   -8.15   35.14
   9   2 -20  155.32   98.48
   9   2 -20    3.60   53.41
  -9  -2  20   50.25   33.97
  -9  -2  20 -123.33  117.95
   9   1 -20    3.42   58.31
  -9  -1  20   69.94   33.89
   0  -9 -20  -61.31   69.25
   9  -1 -20    4.29  102.81
   1   9 -20   48.22  134.79
  -9   1  20  244.42  115.83
  -1  -9  20   14.10   47.59
  -1  -9  20    5.26  144.14
   2   9 -20    5.45  127.16
   9  -2 -20  114.01   57.26
  -9   2  20  -27.86  107.18
  -9   2  20   87.79   35.31
  -2  -9  20  388.02  160.43
  -2  -9  20   52.47   48.24
   3   9 -20 -153.16  124.01
   9  -3 -20  -16.73   49.15
   9  -3 -20 -135.15   99.77
  -9   3  20 -136.60  103.21
  -3  -9  20  -28.63   47.58
  -3  -9  20   -5.12  144.33
  -9   3  20   17.09   31.32
   4   9 -20  -74.78  124.90
  -4  -9  20  327.95  154.22
  -4  -9  20   10.87   47.17
   5   9 -20  -78.83  122.43
   5   9 -20   -4.97   84.98
  -5  -9  20 -354.82  154.51
  -5  -9  20    3.52   45.00
   6   9 -20   67.53  120.79
   6   9 -20    4.82   84.80
  -6  -9  20  119.65  150.66
  -6  -9  20   20.84   45.93
   7   9 -20    4.74   84.20
   7   9 -20 -120.14  119.97
  -7  -9  20  130.91   48.13
  -7  -9  20  192.96  157.56
   8   9 -20  175.61  126.62
   8   9 -20    4.84   80.89
  -8  -9  20  -43.39   41.98
  -8  -9  20    5.23  153.64
   9   9 -20    4.95   85.13
   9   9 -20   -5.38  121.10
  -9  -9  20    5.36  144.93
  -9  -9  20   94.15   47.77
  10   9 -20  139.47  121.50
  10   9 -20   21.11   90.63
 -10  -9  20    5.60  161.22
 -10  -9  20   -3.74   46.81
  10   8 -20   45.41   80.90
  10   8 -20    5.20  118.05
 -10  -8  20  232.60  153.52
 -10  -8  20   32.18   45.67
  10   7 -20  160.81  113.54
  10   7 -20   19.31   79.68
 -10  -7  20   27.41   44.54
 -10  -7  20   -5.00  142.32
  10   6 -20    4.63   75.65
  10   6 -20   -4.64  102.59
 -10  -6  20   36.22   41.46
 -10  -6  20  326.97  136.82
  10   5 -20    4.44   69.56
  10   5 -20   -4.49   97.11
 -10  -5  20    4.50  127.13
 -10  -5  20  120.57   43.33
  10   4 -20  -61.94   99.46
  10   4 -20  -76.80   68.18
 -10  -4  20  -58.57   36.87
 -10  -4  20 -107.52  122.96
  10   3 -20    4.09   65.90
  10   3 -20 -186.89   96.80
 -10  -3  20  -20.90   36.73
 -10  -3  20    4.14  113.96
  10   2 -20    4.55   98.67
  10   2 -20   31.39   65.96
 -10  -2  20   46.46   36.27
 -10  -2  20    4.03  112.47
  10   1 -20   67.78   58.10
  10   1 -20    4.73  103.28
 -10  -1  20 -224.71  114.38
 -10  -1  20   -5.67   34.67
  10   0 -20  129.20  121.09
  10   0 -20  -28.98   63.05
 -10   0  20  276.62  115.00
 -10   0  20   94.44   42.05
   1  10 -20    6.51  141.72
  10  -1 -20  -17.22   53.84
  -1 -10  20   -3.72   46.48
 -10   1  20  -30.38   33.89
   2  10 -20  -35.09  128.27
  -2 -10  20   51.44   47.59
  -2 -10  20 -274.30  142.42
   3  10 -20  -94.56  118.07
  -3 -10  20   -7.52   48.18
 -10   3  20  -59.88  103.72
  -3 -10  20   68.63  154.21
   4  10 -20  -17.01  127.63
  -4 -10  20  -41.45   49.94
  -4 -10  20  122.91  147.46
   5  10 -20    5.13   83.51
   5  10 -20  141.49  132.76
  -5 -10  20 -118.88  155.00
  -5 -10  20   25.73   49.73
   6  10 -20   -4.98   76.54
   6  10 -20   16.73  125.40
  -6 -10  20   -5.40  157.02
  -6 -10  20    3.59   45.86
   7  10 -20 -348.32  132.42
   7  10 -20    4.96   85.10
  -7 -10  20 -350.08  158.85
  -7 -10  20  -17.41   46.77
   8  10 -20   -5.01   82.02
   8  10 -20   -5.78  132.38
  -8 -10  20   83.81   47.41
  -8 -10  20   44.41  165.76
   9  10 -20  -58.89  138.72
   9  10 -20   -5.18   70.69
  -9 -10  20  -58.38   46.23
  -9 -10  20   -5.70  162.08
  10  10 -20   79.15  138.85
  10  10 -20   -5.54   90.35
 -10 -10  20   -5.96  173.02
 -10 -10  20   27.36   48.58
  11  10 -20   -6.09   98.84
  11  10 -20   18.95  145.29
 -11 -10  20   -6.28  179.40
 -11 -10  20   45.76   51.85
  11   9 -20   29.09   99.86
  11   9 -20  -58.68  133.27
 -11  -9  20   23.98  166.90
 -11  -9  20    3.99   51.79
  11   8 -20  -22.05  124.54
  11   8 -20  -66.84   87.96
 -11  -8  20    5.69  162.89
 -11  -8  20  -15.33   47.79
  11   7 -20  -15.65  118.26
 -11  -7  20   26.76  149.24
 -11  -7  20   -3.68   45.19
  11   6 -20   50.40  108.81
  11   6 -20    5.14   84.16
 -11  -6  20  -60.29   44.85
 -11  -6  20   25.25  151.07
  11   5 -20    4.95   77.52
  11   5 -20  -34.66  106.41
 -11  -5  20 -368.57  142.07
 -11  -5  20   -3.43   40.10
  11   4 -20   34.76  106.91
  11   4 -20    4.77   79.09
 -11  -4  20  -95.04  128.59
 -11  -4  20   13.37   42.14
  11   3 -20   -4.58   69.63
  11   3 -20  -45.67  115.22
 -11  -3  20  -13.09   39.77
 -11  -3  20    8.72  118.65
  11   2 -20    4.40   72.74
 -11  -2  20   25.45  119.45
 -11  -2  20  -25.64   36.63
  11   1 -20    4.23   71.54
 -11  -1  20   82.40  120.88
   0 -11 -20   -3.40   77.15
  11   0 -20    8.14   63.84
 -11   0  20   20.35  116.57
  -1 -11 -20  185.56   78.72
   1  11 -20   71.25  155.38
  -1 -11  20  146.20   58.04
 -11   1  20   92.45  124.44
   2  11 -20  157.99  141.50
  -2 -11  20  109.04  149.10
  -2 -11  20   88.98   53.53
 -11   2  20 -244.19  119.97
   3  11 -20    5.92  130.13
  -3 -11  20  -39.47   51.15
  -3 -11  20   10.87  151.37
   4  11 -20   -6.01  143.77
   4  11 -20    5.32   98.50
  -4 -11  20    5.45  153.70
  -4 -11  20   -3.86   50.93
   5  11 -20 -232.62  142.11
   5  11 -20   -5.30   91.59
  -5 -11  20   -5.57  156.17
  -5 -11  20  -57.28   48.30
   6  11 -20    6.04  140.18
   6  11 -20    5.13   87.00
  -6 -11  20   29.79   52.07
  -6 -11  20  772.76  174.12
   7  11 -20    5.19   87.42
   7  11 -20   42.82  151.90
  -7 -11  20   32.48   49.72
  -7 -11  20  338.00  165.05
   8  11 -20  150.79  147.09
   8  11 -20    5.21   89.75
  -8 -11  20  410.84  170.11
  -8 -11  20   87.56   48.07
   9  11 -20    6.50  145.10
   9  11 -20   54.21   92.65
  -9 -11  20   38.22   47.41
  -9 -11  20  205.04  176.05
  10  11 -20   73.23  150.99
  10  11 -20    5.80   95.97
 -10 -11  20   50.35  172.15
 -10 -11  20  -41.01   52.22
  11  11 -20 -446.51  151.84
  11  11 -20   -6.39  106.94
 -11 -11  20  295.70  189.04
 -11 -11  20  -56.42   58.52
  12  11 -20  -76.99  153.35
  12  11 -20    7.08  112.22
 -12 -11  20  102.65  198.04
  12  10 -20    6.75  110.89
  12  10 -20   -6.58  146.99
 -12 -10  20    6.68  190.55
  12   9 -20    6.23  143.83
  12   9 -20   -6.46  108.38
 -12  -9  20    6.40  191.39
  12   8 -20    5.93  129.72
  12   8 -20  192.12  101.86
 -12  -8  20    6.07  173.43
  12   7 -20    5.74  121.81
 -12  -7  20    5.73  169.25
  12   6 -20  -22.52  123.64
  12   6 -20   -5.75   91.88
 -12  -6  20   -5.35  151.61
  12   5 -20  -61.04   90.23
 -12  -5  20   70.97  141.32
  12   4 -20    5.36   85.70
 -12  -4  20 -272.93  131.19
 -12  -3  20    4.61  129.10
 -12  -2  20    8.96  125.22
   1 -12 -20    3.47   80.91
 -12  -1  20 -145.52  129.18
   0 -12 -20  161.34   91.52
  -1 -12 -20    3.48   79.35
  -1 -12  20  -59.48   56.63
   2  12 -20    6.84  153.80
  -2 -12  20   39.37  163.76
  -2 -12  20  -12.35   54.40
   3  12 -20  -50.87  149.65
  -3 -12  20   50.00  158.02
  -3 -12  20  -45.77   54.42
   4  12 -20 -418.27  144.71
   4  12 -20    5.42   98.93
  -4 -12  20 -144.84  159.41
  -4 -12  20    4.00   52.42
   5  12 -20   -6.54  149.44
   5  12 -20   48.65   90.52
  -5 -12  20    5.69  155.60
  -5 -12  20   -3.91   51.37
   6  12 -20   13.16  139.72
   6  12 -20 -240.20   91.32
  -6 -12  20    5.81  164.96
  -6 -12  20   -3.81   49.23
   7  12 -20    5.38   88.74
   7  12 -20  -46.60  159.92
  -7 -12  20  118.31  175.88
  -7 -12  20   -3.72   45.84
   8  12 -20    5.41   90.79
   8  12 -20  103.29  164.51
  -8 -12  20   45.47   50.63
  -8 -12  20 -183.94  184.64
   9  12 -20  -42.94  181.41
   9  12 -20   16.97  100.98
  -9 -12  20    6.37  197.07
  -9 -12  20   15.96   52.99
  10  12 -20 -182.12  103.27
  10  12 -20    7.31  163.97
 -10 -12  20   -4.26   51.56
 -10 -12  20   13.15  194.53
  11  12 -20   37.09  160.74
  11  12 -20  127.14  112.26
 -11 -12  20   18.10   58.05
 -11 -12  20   40.93  201.61
  12  12 -20   -7.42  117.27
  12  12 -20   14.98  174.70
 -12 -12  20  208.75  198.27
   1 -13 -20  125.51   92.37
   1 -13 -20   26.33   49.51
  -1  13  20   35.74   54.68
   0 -13 -20 -236.53   97.28
   0  13  20    4.28   54.93
  -1 -13 -20   18.67   83.93
  -1 -13  20  -92.76   62.62
   2  13 -20   29.93  162.16
  -2 -13  20    5.83  158.89
  -2 -13  20   -4.42   57.86
   3  13 -20 -123.45  159.64
  -3 -13  20    8.55   55.65
  -3 -13  20    5.67  155.19
   4  13 -20   40.07  151.27
   4  13 -20  -38.80   99.47
  -4 -13  20   85.98   49.72
  -4 -13  20 -187.40  159.89
   5  13 -20  -76.47  165.56
   5  13 -20    5.44   93.36
  -5 -13  20 -335.15  157.83
  -5 -13  20    4.02   51.88
   6  13 -20   -5.37   92.11
   6  13 -20  -43.22  163.55
  -6 -13  20 -315.54  169.37
  -6 -13  20  -62.17   48.36
   7  13 -20   -5.52   87.33
   7  13 -20   -7.32  176.73
  -7 -13  20  -24.38  186.07
  -7 -13  20   11.46   46.76
   8  13 -20   16.84   99.76
   8  13 -20  204.41  183.72
  -8 -13  20   97.83   59.29
   9  13 -20    5.90   94.39
   9  13 -20  -31.43  185.47
  -9 -13  20   26.52  187.62
  -9 -13  20    4.16   53.28
  10  13 -20    8.12  177.90
  10  13 -20   -6.35  101.47
 -10 -13  20  -75.35  200.09
 -10 -13  20   22.04   58.06
  11  13 -20  -40.57  183.47
  11  13 -20    7.00  109.74
 -11 -13  20  -14.02  196.00
 -11 -13  20  -94.23   59.31
   1 -14 -20  -51.79   57.61
   1 -14 -20 -212.60   98.69
  -1  14  20   17.74   60.53
  -1  14  20  100.67   90.45
   0 -14 -20  118.20   97.74
   0  14  20  -32.96   61.80
  -1 -14 -20   11.95   83.86
  -1 -14  20   50.57   67.51
   2  14 -20   -8.21  176.49
  -2 -14  20 -164.92   67.10
   3  14 -20  -44.59  166.57
   3  14 -20  -11.27   90.26
  -3 -14  20 -468.14  167.49
  -3 -14  20   -4.37   58.19
   4  14 -20    5.62   93.15
   4  14 -20    7.12  166.85
  -4 -14  20  -12.63   53.96
  -4 -14  20 -201.84  162.31
   5  14 -20   10.99   88.60
   5  14 -20    7.37  162.65
  -5 -14  20  -28.42   53.64
  -5 -14  20  163.52  165.89
   7  14 -20   96.90  192.78
   7  14 -20    5.65   87.73
  -7 -14  20    7.81   49.38
  -7 -14  20 -245.21  181.56
   8  14 -20   75.30  182.12
   8  14 -20   11.58   95.27
  -8 -14  20 -260.99  199.89
  -8 -14  20 -101.00   51.66
   9  14 -20    6.13   98.88
   9  14 -20  -43.52  207.39
  -9 -14  20    6.84  205.10
  -9 -14  20  -38.55   54.64
  10  14 -20   62.61  212.30
  10  14 -20   20.00  111.33
 -10 -14  20 -431.83  203.99
 -10 -14  20   27.22   54.79
  11  14 -20  116.18  208.93
   2 -15 -20  166.60  108.35
   1 -15 -20 -334.50   81.84
  -1  15  20   10.15  118.25
  -1  15  20  -44.75   72.35
   0 -15 -20 -439.57  117.37
   0  15  20  -15.70   72.61
  -1 -15 -20 -418.54  111.25
   4  15 -20   11.22   86.86
   5  15 -20    7.80  180.90
   5  15 -20   16.37   89.36
   6  15 -20    8.37  197.67
   6  15 -20    5.66   93.43
  -6 -15  20  -47.16   53.07
  -6 -15  20   42.79  170.27
   7  15 -20 -137.31   96.17
   7  15 -20 -197.47  196.42
  -7 -15  20    3.97   49.53
  -7 -15  20   83.39  184.92
   8  15 -20 -149.45  223.23
   8  15 -20  -89.79   99.29
  -8 -15  20 -253.84  197.54
  -8 -15  20 -103.23   55.10
   9  15 -20  234.21  227.72
   9  15 -20    6.40  100.00
  -9 -15  20    6.99  201.58
  -9 -15  20  -39.45   52.01
  10  15 -20 -139.53  232.07
 -10 -15  20  115.58  215.07
   2 -16 -20   93.24  109.98
   1 -16 -20   -4.90  109.69
   1 -16 -20   -4.70   70.70
  -1  16  20  -16.77   77.57
  -1  16  20  -77.92  127.43
   0 -16 -20 -112.92   67.16
   0 -16 -20  -87.53  110.48
   0  16  20  -46.80   72.62
   0  16  20    9.59  111.05
  -1 -16 -20   -4.47  101.49
   2 -17 -20  -71.81  112.91
  -2  17  20 -122.03   78.80
   1 -17 -20   63.44  119.12
   1 -17 -20    5.27   80.76
  -1  17  20   37.66   89.88
  -1  17  20  296.66  146.71
   0 -17 -20  -47.35   79.19
   0 -17 -20   15.67  123.38
   0  17  20  -20.58  114.56
   0  17  20   45.90   89.51
  -1 -17 -20   -4.75  113.01
   2 -18 -20  -29.81   88.18
  -2  18  20   40.94   87.27
  -2  18  20   15.35  149.60
   1 -18 -20   47.06   88.30
  -1  18  20   70.37   97.42
  -1   0  21   88.00   40.56
   1   1 -21   82.99  100.14
  -1   1  21  -22.30   28.22
  -1  -1  21    9.28   37.41
   2   1 -21   24.53   90.34
  -1   2  21  -21.40   35.71
  -2  -1  21   73.25  108.60
  -2  -1  21   70.13   35.22
   2   0 -21  -92.93   83.77
  -2   0  21   21.58   34.61
  -2   0  21  -43.55  108.20
   1   2 -21  107.04  106.20
   2  -1 -21  108.70   82.93
  -2   1  21   23.54   34.96
  -1  -2  21   -9.71   41.96
  -2   1  21   19.37   99.78
   2  -2 -21  -16.28   87.99
   2   2 -21 -141.99   84.83
  -2   2  21   -3.81  104.00
  -2  -2  21   50.36  112.33
  -2   2  21  -36.01   36.00
  -2  -2  21    2.92   37.60
   3   2 -21  370.85  120.31
   2  -3 -21  470.96  121.41
  -2   3  21  281.55   77.34
  -3  -2  21  413.01   77.59
  -3  -2  21  419.26  147.87
   3   1 -21  -72.51   89.33
  -3  -1  21   -2.78   33.53
  -1   3  21   13.15   33.41
  -3  -1  21   84.90  110.28
   3   0 -21  142.78   91.31
  -3   0  21  201.82   50.94
  -3   0  21  273.37  118.20
   1   3 -21   19.69   94.94
   3  -1 -21  -38.57   75.61
  -3   1  21    5.25   34.32
  -1  -3  21   -4.55  123.77
  -3   1  21  -30.27  108.38
  -1  -3  21   10.04   42.26
   3  -2 -21  374.37  105.97
   2   3 -21   12.92  125.70
  -2  -3  21  443.07   76.85
  -2  -3  21  260.41  146.54
  -3   2  21  423.94   72.64
  -3   2  21  227.59  131.54
   3   3 -21  -74.91   98.42
   3  -3 -21   67.08   74.43
  -3   3  21   28.21   31.98
  -3   3  21  -74.51  103.25
  -3  -3  21   -9.00   37.71
  -3  -3  21    4.36  119.14
   4   3 -21  314.61  124.66
  -4  -3  21  286.36  158.40
  -4  -3  21  443.92   80.53
   4   2 -21 -156.33   86.60
  -4  -2  21   21.52  123.07
  -2   4  21   39.51   33.69
  -4  -2  21   72.52   38.42
   4   1 -21  598.48  131.27
  -4  -1  21  525.78   93.79
  -1   4  21  310.87   94.52
  -4  -1  21  645.99  160.64
   4   0 -21  -98.74   79.11
  -4   0  21  -13.47   38.40
  -4   0  21   59.88  113.51
   4  -1 -21  726.95  123.31
   1   4 -21  135.99  141.15
  -4   1  21  371.88  151.76
  -4   1  21  430.43   87.30
  -1  -4  21  564.40   94.45
  -1  -4  21   46.68  166.37
   4  -2 -21  108.69   77.11
   2   4 -21    4.46   97.77
  -2  -4  21  207.31   43.86
  -4   2  21  -18.47  101.81
  -2  -4  21 -125.97  126.19
  -4   2  21   22.62   35.57
   4  -3 -21  532.28  109.08
   3   4 -21  -34.83  126.02
  -4   3  21  480.84   76.70
  -4   3  21  287.77  137.56
  -3  -4  21  267.22  154.81
   5   3 -21   16.33   95.85
  -5  -3  21   57.92  131.35
   5   2 -21  302.65   94.27
   5   2 -21  227.17  114.86
  -5  -2  21  356.31  145.36
  -5  -2  21  483.07   73.72
   5   1 -21   49.98   56.26
   5   1 -21   -7.51   86.94
  -5  -1  21   21.27   36.61
  -5  -1  21  149.22  123.26
   5   0 -21  159.16   77.07
   5   0 -21  415.79  101.19
  -5   0  21  391.73  126.85
  -5   0  21  285.91   60.31
   1   5 -21  436.99  116.09
   5  -1 -21   70.84   52.99
   5  -1 -21  136.48   80.37
  -5   1  21    3.86  113.10
  -1  -5  21   24.07  132.54
  -5   1  21   70.50   36.31
   2   5 -21   -4.66  117.00
   5  -2 -21  429.38   95.01
   5  -2 -21  151.96   74.93
  -5   2  21  327.45   57.87
  -2  -5  21   -4.67  144.73
  -5   2  21  301.36  122.54
   5  -3 -21  219.20   60.66
   5  -3 -21  104.03   77.99
  -5   3  21  219.04   45.91
  -5   3  21  133.87  118.06
   5   5 -21   -4.46   90.96
   5   5 -21    4.34   64.56
  -5  -5  21   -6.35   43.20
   6   5 -21  -17.62  106.75
   6   5 -21   -4.30   74.44
  -6  -5  21   58.27   38.65
  -6  -5  21    4.72  132.79
   6   4 -21   -4.25   79.25
   6   4 -21    4.06   70.69
  -6  -4  21  140.42   43.65
  -6  -4  21   -4.54  116.34
   6   2 -21   91.37  104.29
  -6  -2  21  471.05  133.74
   6   1 -21   83.88   58.22
   6   1 -21   19.20   88.16
  -6  -1  21  234.18  120.58
  -6  -1  21  122.80   37.99
   6   0 -21    3.12   44.41
   6   0 -21  -33.28   86.12
  -6   0  21  127.29  115.12
  -6   0  21    2.44   31.59
   6  -1 -21   17.51   47.90
   6  -1 -21   88.19   88.16
  -6   1  21   57.58  112.12
  -6   1  21   93.17   34.97
   6  -2 -21  142.03   68.62
   6  -2 -21  237.04   92.49
  -6   2  21  313.86   53.87
  -6   2  21  207.63  121.09
   6  -3 -21  159.24   53.77
   6  -3 -21  155.73   77.38
  -6   3  21  161.71   39.22
  -6   3  21   82.45  114.61
   4   6 -21  372.94  125.13
  -4  -6  21  436.31  154.38
   5   6 -21    4.69  113.07
  -5  -6  21   -4.97  138.88
   6   6 -21   -4.62  107.52
  -6  -6  21 -437.48  156.45
   7   6 -21    4.63  107.42
  -7  -6  21   47.88  146.70
   7   5 -21    4.13   74.11
   7   5 -21   -4.44  112.05
  -7  -5  21 -241.93  133.94
  -7  -5  21   29.86   43.23
   7   4 -21    3.91   66.10
   7   4 -21    4.28  117.40
  -7  -4  21  -31.29   50.24
  -7  -4  21 -363.75  125.72
   7   3 -21  562.06  137.46
  -7  -3  21  841.36  157.33
   7   1 -21   -3.96   91.67
   7   0 -21   44.09   54.73
   7   0 -21   38.61   90.37
  -7   0  21  131.82   34.16
  -7   0  21    3.86  119.14
   7  -1 -21    8.91   50.24
   1   7 -21   -5.70   84.87
   7  -1 -21  156.99   87.75
  -1  -7  21   -5.18  119.66
  -7   1  21  -37.44  110.12
  -7   1  21   17.95   30.10
  -1  -7  21   -3.53   47.19
   2   7 -21  330.59  117.09
   7  -2 -21  176.15   84.31
  -7   2  21   54.23  107.00
  -2  -7  21   17.09   45.99
  -2  -7  21  307.10  141.86
   7  -3 -21   12.46   42.01
   7  -3 -21   27.00   76.09
   3   7 -21  -10.05  110.92
  -7   3  21 -101.07  108.81
  -7   3  21   86.04   27.41
  -3  -7  21   -3.45   45.40
  -3  -7  21    5.08  134.79
   4   7 -21   61.15  115.29
  -4  -7  21  -39.15   47.19
  -4  -7  21   -5.18  144.26
   5   7 -21 -267.56  116.92
   5   7 -21    9.70   85.31
  -5  -7  21   62.22   47.37
   6   7 -21 -102.25  116.04
   6   7 -21   -4.78   88.42
  -6  -7  21   16.84   44.60
  -6  -7  21 -235.61  158.13
   7   7 -21    4.58   86.09
   7   7 -21 -111.76  118.62
  -7  -7  21    9.84   40.07
  -7  -7  21 -508.15  160.60
   8   7 -21   -4.69   76.72
   8   7 -21   29.24  103.09
  -8  -7  21  262.49  143.78
  -8  -7  21   38.66   43.13
   8   6 -21   26.82   74.38
   8   6 -21 -115.47  103.26
  -8  -6  21    4.69  140.22
  -8  -6  21   -3.07   41.55
   8   5 -21   97.33  100.03
   8   5 -21    4.25   60.39
  -8  -5  21   38.14   39.31
  -8  -5  21    8.95  124.41
   8   4 -21    4.03   67.49
   8   4 -21  -81.22  101.75
  -8  -4  21    4.28  121.82
  -8  -4  21   -2.80   37.63
   8   3 -21    4.20   98.44
   8   3 -21    3.83   61.93
  -8  -3  21   42.97   36.74
  -8  -3  21 -437.82  125.62
   8   2 -21   -3.62   65.19
   8   2 -21    4.16   87.74
  -8  -2  21   59.43   36.59
  -8  -2  21  148.33  124.87
   8   1 -21    3.39   57.84
  -8  -1  21  -32.42   32.04
   8  -1 -21  -52.58   95.11
   8  -1 -21   -2.99   37.36
   1   8 -21    6.03  117.67
  -1  -8  21  -21.69   47.79
  -8   1  21    3.69  111.13
   8  -2 -21 -121.63   90.59
   8  -2 -21   11.21   47.08
   2   8 -21   87.63  122.00
  -2  -8  21   67.12   48.35
  -8   2  21  224.59  111.84
  -2  -8  21   31.33  146.16
  -8   2  21   54.75   28.97
   8  -3 -21  -23.41   47.26
   3   8 -21  -63.48  115.97
  -8   3  21  -99.00  112.34
  -3  -8  21   -5.26  142.21
  -8   3  21   20.16   28.03
  -3  -8  21  -28.74   50.22
   4   8 -21    5.35  123.40
  -4  -8  21    3.71   45.21
  -4  -8  21  112.43  141.93
   5   8 -21    5.07   83.23
   5   8 -21   -5.27  121.67
  -5  -8  21   28.79   48.96
  -5  -8  21    5.38  147.43
   6   8 -21    4.99   86.69
   6   8 -21    5.15  122.02
  -6  -8  21  239.35  159.52
  -6  -8  21   17.61   43.54
   7   8 -21    4.80   84.96
   7   8 -21 -247.39  124.23
  -7  -8  21   68.56   43.83
  -7  -8  21   -5.29  155.51
   8   8 -21   63.88   83.17
   8   8 -21    5.23  116.00
  -8  -8  21   -3.37   44.40
  -8  -8  21   20.98  158.36
   9   8 -21  164.09  129.48
   9   8 -21  -89.42   86.60
  -9  -8  21  468.55  161.26
  -9  -8  21   69.64   46.58
   9   7 -21   -4.95  102.75
  -9  -7  21   -3.33   43.49
  -9  -7  21   15.00  149.88
   9   6 -21   33.04  108.35
   9   6 -21    4.55   81.28
  -9  -6  21 -283.18  143.88
  -9  -6  21   88.96   36.68
   9   5 -21    4.32   73.47
   9   5 -21   54.14  101.57
  -9  -5  21   57.88   40.31
  -9  -5  21    4.48  131.84
   9   4 -21   -4.12   68.40
   9   4 -21    4.41  101.85
  -9  -4  21    4.30  123.82
  -9  -4  21   84.90   39.33
   9   3 -21    4.37   99.51
   9   3 -21    3.93   63.74
  -9  -3  21 -108.19  121.30
  -9  -3  21   -5.67   36.26
   9   2 -21  -48.71   61.56
   9   2 -21   92.02  106.22
  -9  -2  21   32.97   36.18
  -9  -2  21 -137.87  120.02
   9   1 -21  -92.58  105.10
   9   1 -21   57.03   57.56
  -9  -1  21  -47.58  113.69
  -9  -1  21   50.95   35.97
   9   0 -21   -4.47   93.31
   1   9 -21   25.80  137.45
  -1  -9  21  -44.79   48.28
   2   9 -21  -52.69  121.11
  -2  -9  21   25.61   48.59
  -2  -9  21 -318.90  143.65
   3   9 -21    5.56  121.71
  -9   3  21   -2.47   27.33
  -3  -9  21   48.91  157.26
  -3  -9  21   -3.73   48.86
   4   9 -21    5.67  125.78
  -4  -9  21    5.51  155.10
  -4  -9  21    3.80   44.48
   5   9 -21    5.30   88.57
   5   9 -21   50.87  135.36
  -5  -9  21   94.73  159.25
  -5  -9  21   30.03   50.82
   6   9 -21    5.15   78.39
   6   9 -21  -38.58  123.43
  -6  -9  21    5.54  153.89
  -6  -9  21   66.23   52.89
   7   9 -21    5.03   79.96
   7   9 -21 -126.60  113.46
  -7  -9  21   -5.56  155.08
  -7  -9  21  100.04   47.45
   8   9 -21    5.14   88.78
   8   9 -21   28.09  134.87
  -8  -9  21  117.27  172.61
  -8  -9  21  116.64   49.10
   9   9 -21  -45.66  130.34
   9   9 -21    5.20   88.48
  -9  -9  21   69.48   46.91
  -9  -9  21   -5.66  170.85
  10   9 -21  -41.25  126.21
  10   9 -21  -22.02   90.73
 -10  -9  21   46.98   49.50
 -10  -9  21   64.72  175.19
  10   8 -21  -49.55  129.96
  10   8 -21   -5.26   87.13
 -10  -8  21   11.23   46.18
 -10  -8  21    5.51  156.82
  10   7 -21   -5.15  117.81
 -10  -7  21   62.08  147.48
  10   6 -21   -4.81   83.58
  10   6 -21    4.92  107.91
 -10  -6  21  -61.77   42.49
 -10  -6  21    4.90  146.50
  10   5 -21 -179.51   78.44
  10   5 -21    4.75  109.44
 -10  -5  21   56.08   44.10
 -10  -5  21    4.68  134.27
  10   4 -21    4.68  103.96
  10   4 -21   -4.40   69.96
 -10  -4  21   12.74   42.55
 -10  -4  21  -71.96  131.20
  10   3 -21    4.23   63.12
  10   3 -21    4.69  109.99
 -10  -3  21    9.27   39.79
 -10  -3  21    4.35  123.60
  10   2 -21   -4.05   69.40
  10   2 -21 -285.80  111.71
 -10  -2  21    4.23  126.42
 -10  -2  21   36.17   36.02
  10   1 -21 -191.79  114.02
  10   1 -21   58.05   65.46
 -10  -1  21   76.36   37.05
 -10  -1  21   37.30  121.35
  10   0 -21  -66.62  113.50
  10   0 -21  -59.27   58.66
 -10   0  21   20.06   35.24
 -10   0  21 -126.34  116.99
   1  10 -21  244.16  147.78
  10  -1 -21  -53.14   52.95
  10  -1 -21  -64.04  124.02
 -10   1  21   79.78  116.61
 -10   1  21   93.05   38.45
  -1 -10  21   43.18   53.41
  10  -2 -21   -3.36   53.24
   2  10 -21   12.54  138.49
  -2 -10  21 -107.49   51.60
 -10   2  21    8.42   33.81
  -2 -10  21   22.38  158.37
   3  10 -21    5.91  135.64
  -3 -10  21  -15.64   50.53
  -3 -10  21   -5.60  152.20
   4  10 -21    5.97  136.74
  -4 -10  21   82.91   53.44
  -4 -10  21  214.48  166.61
   5  10 -21   48.55  131.21
   5  10 -21   -5.47   90.82
  -5 -10  21 -205.09   51.52
  -5 -10  21  213.22  171.86
   6  10 -21    5.33   89.49
   6  10 -21   -5.93  132.69
  -6 -10  21    5.75  170.33
  -6 -10  21   19.04   49.77
   7  10 -21    5.25   95.40
   7  10 -21   -5.94  125.67
  -7 -10  21    5.83  166.25
  -7 -10  21   48.39   50.75
   8  10 -21    5.34   84.99
   8  10 -21  -42.35  139.90
  -8 -10  21   22.18   47.84
  -8 -10  21   47.30  166.73
   9  10 -21    5.44   76.46
   9  10 -21   -6.24  137.01
  -9 -10  21   -6.03  174.43
  -9 -10  21   -7.68   50.72
  10  10 -21  -32.03  140.19
  10  10 -21   92.14   94.39
 -10 -10  21   36.88   52.82
 -10 -10  21    6.28  180.31
  11  10 -21    6.68  147.76
  11  10 -21   -6.28   97.78
 -11 -10  21  -65.47   57.96
 -11 -10  21 -618.67  207.23
  11   9 -21  -12.34  135.37
  11   9 -21   -5.99   97.97
 -11  -9  21    6.20  177.54
 -11  -9  21   20.91   52.37
  11   8 -21   11.58  137.27
  11   8 -21    5.72  102.53
 -11  -8  21   40.04   48.53
 -11  -8  21  292.84  164.78
  11   7 -21  136.74  128.67
 -11  -7  21    5.54  151.19
  11   6 -21   10.54  118.28
  11   6 -21 -131.56   90.35
 -11  -6  21 -156.95  150.92
 -11  -6  21  -55.44   44.56
  11   5 -21    5.06   76.71
  11   5 -21    5.14  110.54
 -11  -5  21   44.64  143.42
 -11  -5  21   24.91   45.48
  11   4 -21    4.88   79.91
  11   4 -21    5.13  107.92
 -11  -4  21    6.88   43.08
 -11  -4  21 -147.41  139.62
  11   3 -21    5.24  113.52
  11   3 -21   -4.70   73.37
 -11  -3  21   46.97   42.83
 -11  -3  21    4.59  131.76
  11   2 -21    9.03   77.99
  11   2 -21 -212.38  122.49
 -11  -2  21  151.52   40.47
 -11  -2  21  107.42  134.06
  11   1 -21  -73.48   71.45
  11   1 -21  254.29  130.41
 -11  -1  21    3.23   39.59
 -11  -1  21   -4.36  126.24
  11   0 -21   -4.14   66.58
  11   0 -21   37.37  146.45
 -11   0  21  253.59  123.73
  -1 -11 -21    3.34   76.78
  11  -1 -21   11.89   61.42
  11  -1 -21 -121.81  151.01
  -1 -11  21  -16.64   54.87
 -11   1  21    4.23  119.14
  11  -2 -21 -627.82  176.25
   2  11 -21   80.90  156.42
 -11   2  21 -177.14  124.30
  -2 -11  21  150.56  159.82
  -2 -11  21  104.96   54.65
   3  11 -21  -37.89  145.13
  -3 -11  21  -91.94  170.74
  -3 -11  21    4.11   57.25
   4  11 -21   -5.66   98.37
   4  11 -21    6.31  143.14
  -4 -11  21    4.10   53.31
  -4 -11  21 -150.43  169.22
   5  11 -21    5.62   97.40
   5  11 -21   -6.46  139.48
  -5 -11  21  -16.12   56.56
  -5 -11  21 -188.95  174.33
   6  11 -21    5.48   84.47
   6  11 -21   83.68  149.44
  -6 -11  21   55.33   51.42
  -6 -11  21  125.82  178.35
   7  11 -21  109.41  153.71
   7  11 -21   -5.47   93.99
  -7 -11  21   19.24   47.93
  -7 -11  21  139.27  178.26
   8  11 -21   -5.56   94.93
   8  11 -21    6.59  146.30
  -8 -11  21 -167.97  178.17
  -8 -11  21  123.56   55.09
   9  11 -21   -5.69   95.83
   9  11 -21 -150.09  142.46
  -9 -11  21  -32.16   50.62
  -9 -11  21 -154.15  189.71
  10  11 -21   -7.00  173.78
  10  11 -21    6.03  104.16
 -10 -11  21   21.44   51.72
 -10 -11  21 -218.86  201.04
  11  11 -21    7.20  163.26
  11  11 -21   -6.59  106.38
 -11 -11  21   -9.09   56.75
 -11 -11  21   62.45  198.89
  12  11 -21  -43.55  114.42
  12  11 -21  134.28  177.21
 -12 -11  21   -7.22  204.15
 -12 -11  21   29.50   62.37
  12  10 -21   -6.95  108.68
  12  10 -21   76.50  162.86
 -12 -10  21  103.79   57.95
 -12 -10  21 -305.17  201.27
  12   9 -21    6.64  101.39
  12   9 -21   32.65  144.47
 -12  -9  21  -36.20   57.73
 -12  -9  21    6.63  191.26
  12   8 -21    6.36   99.70
  12   8 -21    6.20  142.36
 -12  -8  21  113.25  187.55
 -12  -8  21   60.82   55.39
  12   7 -21    5.93  135.39
 -12  -7  21  106.54  172.64
  12   6 -21   11.75   99.40
  12   6 -21   17.36  120.81
 -12  -6  21   -4.03   51.02
 -12  -6  21  -83.87  152.67
  12   5 -21  -80.47  120.28
  12   5 -21    5.65   93.14
 -12  -5  21   -5.30  143.13
 -12  -5  21    7.82   49.03
  12   4 -21    5.45   71.92
  12   4 -21    5.83  129.42
 -12  -4  21   55.22  141.26
  12   3 -21 -105.26   85.11
  12   3 -21   12.10  125.15
 -12  -3  21   -4.84  133.34
  12   2 -21    5.08   79.12
 -12  -2  21   -4.72  134.78
 -12  -1  21  190.77  142.75
   0 -12 -21  145.52   91.21
 -12   0  21  132.22  150.11
  -1 -12 -21   32.04   84.79
 -12   1  21   90.25  136.68
  -1 -12  21  116.39   64.75
   2  12 -21  -65.88  177.52
  -2 -12  21  -30.31   64.56
  -2 -12  21  -95.71  172.63
 -12   2  21 -309.79  127.37
   3  12 -21    6.79  156.51
  -3 -12  21    5.88  152.09
  -3 -12  21  152.18   64.04
   4  12 -21   -5.77   99.51
   4  12 -21  -20.05  150.89
  -4 -12  21 -260.14  173.08
  -4 -12  21  -16.80   51.12
   5  12 -21   41.23  162.17
   5  12 -21    5.76  100.11
  -5 -12  21  427.76  178.01
  -5 -12  21    8.26   49.50
   6  12 -21    7.03  159.69
   6  12 -21    5.57   94.31
  -6 -12  21   -6.17  173.14
  -6 -12  21   24.49   50.74
   7  12 -21  119.68  162.23
   7  12 -21    5.70   96.92
  -7 -12  21    7.94   52.53
  -7 -12  21 -572.58  185.73
   8  12 -21  -72.10  169.98
   8  12 -21    5.72   93.55
  -8 -12  21    6.52  185.26
  -8 -12  21  -48.23   50.73
   9  12 -21  -14.91  168.21
   9  12 -21   -5.94   86.73
  -9 -12  21  -12.60   55.40
  -9 -12  21  -81.12  195.82
  10  12 -21    6.32   96.64
  10  12 -21   -7.74  168.29
 -10 -12  21   62.92   59.93
 -10 -12  21  -84.04  203.69
  11  12 -21  138.57  111.28
  11  12 -21   62.95  181.83
 -11 -12  21 -166.81  207.11
 -11 -12  21   70.95   62.66
   0 -13 -21   48.15   90.56
  -1 -13 -21    3.82   89.20
  -1 -13  21 -113.03   65.84
   2  13 -21  143.25  184.26
  -2 -13  21   13.94   62.65
   3  13 -21   73.35  164.33
  -3 -13  21    6.00  159.86
  -3 -13  21 -162.24   65.32
   4  13 -21   -5.90   91.66
   4  13 -21    7.07  148.57
  -4 -13  21  -21.85   56.09
  -4 -13  21  192.93  175.91
   5  13 -21   72.99  159.09
   5  13 -21    5.83   93.01
  -5 -13  21    4.26   53.03
  -5 -13  21 -323.32  183.58
   6  13 -21    5.69   92.80
   6  13 -21  -30.45  172.98
  -6 -13  21   29.06   54.45
  -6 -13  21 -379.50  190.45
   7  13 -21  387.06  213.47
   8  13 -21    5.91   97.15
   8  13 -21    7.93  172.69
  -8 -13  21 -477.63  199.67
  -8 -13  21  -41.56   52.63
   9  13 -21  164.01  185.54
   9  13 -21    6.18   95.49
  -9 -13  21   -7.04  199.71
  -9 -13  21   13.12   54.71
  10  13 -21    8.49  196.38
  10  13 -21  -79.38  110.38
 -10 -13  21  -13.97   59.26
 -10 -13  21    7.32  206.31
  11  13 -21    8.64  186.23
 -11 -13  21   30.00  227.28
   0 -14 -21   25.79   96.61
  -1 -14 -21    4.06   88.08
  -1 -14  21   37.95   71.32
   2  14 -21   61.30  187.02
  -2 -14  21   -5.01   63.03
   3  14 -21 -204.47  101.83
   3  14 -21   39.58  181.28
  -3 -14  21  153.16  179.13
  -3 -14  21  -28.24   60.87
   4  14 -21 -121.33  180.70
  -4 -14  21  -71.64   59.24
   5  14 -21   -5.84  102.35
   5  14 -21   -7.74  175.03
  -5 -14  21   -8.67   57.94
   6  14 -21   40.85  182.82
   6  14 -21   -5.82   99.07
  -6 -14  21 -140.99  181.58
  -6 -14  21    4.21   51.06
   7  14 -21  273.93  193.41
   7  14 -21    5.98   92.60
  -7 -14  21   66.58   54.70
  -7 -14  21   66.78  190.71
   8  14 -21    6.08   98.21
   8  14 -21    8.81  195.40
  -8 -14  21  304.30  201.96
  -8 -14  21  -64.08   53.69
   9  14 -21   -6.42  106.37
   9  14 -21 -136.84  215.95
  -9 -14  21  104.41   59.71
  -9 -14  21  -80.00  207.72
  10  14 -21 -187.21  224.34
 -10 -14  21   76.79   56.43
 -10 -14  21  -90.64  224.69
   0 -15 -21 -391.81  121.94
   0  15  21   58.33   74.75
  -1 -15 -21  -38.72   96.93
   3  15 -21  -17.17  196.14
   3  15 -21   36.22  103.23
   4  15 -21    8.17  177.39
   4  15 -21    5.99   99.28
  -4 -15  21  -63.38   58.02
  -4 -15  21 -203.46  176.40
   5  15 -21  -90.07  192.77
   5  15 -21 -232.22   98.76
  -5 -15  21   25.06  177.36
  -5 -15  21  -35.07   60.42
   6  15 -21    8.74  185.67
   6  15 -21   59.59   96.36
  -6 -15  21   32.20  184.94
  -6 -15  21  -12.68   55.06
   7  15 -21    6.04   93.60
   7  15 -21    9.42  205.94
  -7 -15  21   68.01  201.73
  -7 -15  21   -4.23   54.20
   8  15 -21    9.86  227.33
   8  15 -21 -131.41  100.11
  -8 -15  21  149.46  209.71
  -8 -15  21  -35.10   57.77
   9  15 -21  122.33  235.28
  -9 -15  21   -4.64   54.89
  -9 -15  21  229.72  215.44
   0 -16 -21  197.70  118.98
   0  16  21 -107.35  129.97
   0  16  21  136.07   80.29
  -1 -16 -21 -140.69  105.71
   1 -17 -21  -53.45  129.26
   0 -17 -21  116.73  122.23
   0  17  21 -216.52  128.76
   0  17  21   26.49   81.30
  -1 -17 -21  187.27  114.11
  -1   0  22  -15.65   39.44
  -1  -1  22   52.97   43.65
  -1   1  22  -26.72   38.41
   2   1 -22    8.90   97.94
  -2  -1  22   39.09  120.94
  -1   2  22   25.68   36.89
  -2  -1  22   -8.94   36.03
   2   0 -22    4.40   94.05
  -2   0  22  -20.06   36.86
  -2   0  22   12.73  114.79
   1   2 -22    5.30  106.32
   2  -1 -22   44.02   97.53
  -1  -2  22  -38.27   41.57
  -2   1  22   -8.34  113.12
  -2   1  22  -27.84   33.62
   2   2 -22   18.18   99.66
   2  -2 -22  191.09   97.85
  -2  -2  22  176.93   48.64
  -2  -2  22   22.34  128.95
  -2   2  22  140.17   46.42
   3   2 -22    4.24   87.78
  -3  -2  22   -9.15   39.31
  -2   3  22   -2.79   36.82
  -3  -2  22 -125.05  121.67
   3   1 -22  319.87  108.05
  -1   3  22  257.05   62.90
  -3  -1  22  250.06  135.57
  -3  -1  22  315.19   62.03
   3   0 -22   89.74   84.73
  -3   0  22  -37.17   36.82
  -3   0  22   25.03  119.45
   1   3 -22   16.00  119.87
   3  -1 -22  333.26   99.50
  -3   1  22  296.97   53.42
  -3   1  22  185.81  124.68
  -1  -3  22   -3.59   62.74
   3  -2 -22   14.84   82.36
   2   3 -22    4.66   92.23
  -2  -3  22 -156.82  118.67
  -3   2  22   -8.29   37.49
  -3   2  22   47.04  109.98
   3   3 -22   66.36  105.96
   3  -3 -22  187.46   88.84
  -3   3  22  237.09   48.78
  -3  -3  22   50.99  132.13
  -3   3  22  140.68  112.95
   4   2 -22  489.57  146.28
  -4  -2  22  718.66  174.02
   4   1 -22   57.23   91.23
  -4  -1  22  110.21  125.47
  -1   4  22   40.22   39.52
  -4  -1  22   11.89   35.45
   4   0 -22  315.82  115.05
  -4   0  22  203.56  137.41
  -4   0  22  391.14   73.46
   4  -1 -22  185.45   84.22
  -4   1  22   24.48  116.50
  -4   1  22   59.25   40.50
   4  -2 -22  386.59  120.04
  -4   2  22  342.00  147.74
  -4   2  22  419.55   84.18
   4  -3 -22  103.21   78.04
  -4   3  22   56.01   36.21
  -4   3  22  201.99  112.40
  -4  -4  22  159.58   53.06
   5   4 -22  216.17  116.01
  -5  -3  22   -3.13   39.63
   5   1 -22  121.62  101.67
   5   1 -22  164.01   70.08
  -5  -1  22  156.00  134.32
  -5  -1  22  285.17   50.82
   5   0 -22  -85.34   87.50
   5   0 -22  -29.47   48.72
  -5   0  22   12.90  123.07
  -5   0  22  -32.95   36.47
   5  -1 -22  133.01   89.94
   5  -1 -22   80.46   57.84
  -5   1  22   70.75  124.33
  -5   1  22  122.29   42.97
   5  -2 -22   20.42   52.25
   5  -2 -22   28.11   76.58
  -5   2  22   50.88   34.03
  -5   2  22  104.39  122.26
  -2  -5  22  -17.21   44.66
   5  -3 -22   38.48   50.04
   5  -3 -22  123.45   74.63
  -3  -5  22   -5.00   96.96
  -5   3  22  117.71   34.72
  -3  -5  22   61.31   48.82
  -5   3  22   31.14  117.02
   4   5 -22    4.90  114.74
  -4  -5  22   -5.12  146.95
  -4  -5  22   17.31   45.61
   5   5 -22    4.81  108.85
   5   5 -22    4.59   80.22
  -5  -5  22   27.26   48.85
  -5  -5  22 -477.81  152.24
   6   5 -22 -454.23  119.52
   6   5 -22   -4.57   80.38
  -6  -5  22    5.05  150.76
  -6  -5  22   52.72   46.63
   6   4 -22  -38.71   73.57
   6   4 -22 -469.04  124.74
  -6  -4  22    4.89  147.22
  -6  -4  22   62.98   47.37
   6   3 -22  211.18  101.33
  -6  -3  22   41.71   42.11
  -6  -2  22   -2.85   37.81
   6   0 -22  142.30   95.12
   6   0 -22   66.48   60.50
  -6   0  22  179.38   39.30
  -6   0  22  -51.57  127.19
   6  -1 -22    6.19   52.60
   6  -1 -22   45.22   87.72
   1   6 -22  268.23  122.12
  -6   1  22  100.62   36.25
  -6   1  22  -53.97  124.50
   2   6 -22    5.27  106.19
   6  -2 -22  131.62   84.89
   6  -2 -22   66.17   47.15
  -6   2  22   38.35   33.28
  -6   2  22   31.94  117.98
  -2  -6  22    5.14  136.97
   3   6 -22   -5.07  108.23
   6  -3 -22   73.97   46.23
   6  -3 -22  102.90   78.29
  -6   3  22  100.22   33.75
  -6   3  22   50.12  118.76
  -3  -6  22    5.20  147.49
   4   6 -22   -5.14  102.72
  -4  -6  22   95.52  151.83
   5   6 -22  -40.44  122.31
  -5  -6  22    5.35  159.54
   6   6 -22  -92.04   86.08
   6   6 -22   98.47  113.81
  -6  -6  22  -15.72  146.66
  -6  -6  22   -3.45   41.70
   7   6 -22   -4.64   82.44
   7   6 -22  157.18  118.24
  -7  -6  22    5.14  152.40
  -7  -6  22   50.34   47.18
   7   5 -22   -4.73  143.92
   7   5 -22   21.96   78.48
  -7  -5  22  197.30  157.93
   7   4 -22    4.14   90.38
  -7  -4  22    3.06   76.70
  -7  -4  22    4.75  151.89
   7   3 -22    4.48  116.21
   7   3 -22    3.91   67.43
  -7  -3  22  -40.60   39.97
  -7  -3  22 -179.10  141.19
   7   2 -22  324.24  111.56
  -7  -1  22   -5.29   32.31
   1   7 -22    6.12  112.80
   7  -1 -22  103.48   49.05
  -7   1  22 -268.91  128.41
  -1  -7  22  -79.57   54.33
   7  -2 -22   30.45   92.48
   2   7 -22    5.55  115.30
   7  -2 -22    5.83   51.06
  -2  -7  22    5.34  139.91
  -7   2  22  299.17  128.01
  -7   2  22   34.28   33.06
  -2  -7  22  126.31   49.67
   3   7 -22 -323.35  120.22
  -3  -7  22   47.00   46.15
  -7   3  22   30.43   28.89
  -7   3  22  -18.97  115.79
  -3  -7  22 -555.47  161.49
   4   7 -22   -5.40  124.21
  -4  -7  22    3.73   45.30
  -4  -7  22    5.49  147.33
   5   7 -22   20.64   86.23
   5   7 -22  -21.36  118.08
  -5  -7  22    3.64   45.60
  -5  -7  22    5.53  157.65
   6   7 -22    5.10   88.16
   6   7 -22    5.19  112.93
  -6  -7  22   -3.57   49.31
  -6  -7  22    5.44  158.96
   7   7 -22   -5.16  104.20
  -7  -7  22   -3.51   46.91
  -7  -7  22   -5.38  154.30
   8   7 -22   93.95  122.30
  -8  -7  22    5.29  157.96
   8   6 -22    4.75   79.52
   8   6 -22   24.85  120.83
  -8  -6  22   25.11  147.32
  -8  -6  22   52.20   42.70
   8   5 -22   33.24  106.32
   8   5 -22    4.51   74.53
  -8  -5  22   -3.11   41.13
  -8  -5  22   -4.80  132.18
   8   4 -22   -4.26   71.78
   8   4 -22    4.62  108.55
  -8  -4  22   -4.59  130.34
  -8  -4  22   41.65   40.42
   8   3 -22    9.06  107.58
   8   3 -22    4.04   67.44
  -8  -3  22   -4.44  124.70
  -8  -3  22  -39.87   36.21
   8   2 -22   -3.82   63.87
   8   2 -22   31.37  103.77
  -8  -2  22   38.28   33.21
  -8  -2  22    4.32  119.59
   8   1 -22 -253.27  106.19
   8   1 -22   39.65   59.91
  -8  -1  22   34.26   34.05
  -8  -1  22 -164.25  121.37
   8   0 -22   23.59   59.84
  -8   0  22   12.75   33.01
   1   8 -22    6.49  132.85
  -1  -8  22  -19.33   47.47
   8  -2 -22  174.42  100.65
   2   8 -22   17.67  122.34
  -8   2  22   -3.83  114.08
  -2  -8  22 -332.06  153.94
  -2  -8  22   29.76   50.20
   3   8 -22    5.59  118.04
  -3  -8  22    3.75   49.34
  -3  -8  22  200.87  163.28
   4   8 -22    5.68  124.17
  -4  -8  22  -27.13   51.70
  -4  -8  22  203.74  168.23
   5   8 -22    5.40   91.65
   5   8 -22  -79.65  132.76
  -5  -8  22    5.74  156.89
  -5  -8  22  -22.72   47.89
   6   8 -22    5.34   93.84
   6   8 -22  -11.01  129.37
  -6  -8  22  119.24  162.64
  -6  -8  22   52.16   49.37
   7   8 -22 -447.43  121.66
   7   8 -22   20.42   83.75
  -7  -8  22  -62.10  161.96
  -7  -8  22  -10.95   46.58
   8   8 -22   46.94   96.83
   8   8 -22  347.62  141.39
  -8  -8  22  297.76  174.04
  -8  -8  22  154.02   57.74
   9   8 -22    5.61  123.00
   9   8 -22   78.92   87.30
  -9  -8  22   -3.67   47.13
  -9  -8  22   11.27  164.19
   9   7 -22   47.44  124.34
  -9  -7  22  100.62  155.30
   9   6 -22    5.02  121.07
   9   6 -22   -4.78   84.79
  -9  -6  22   87.00   45.74
  -9  -6  22    5.01  145.88
   9   5 -22    9.68  105.55
   9   5 -22   -4.55   74.61
  -9  -5  22 -128.69  134.14
  -9  -5  22   32.02   40.86
   9   4 -22    9.50   99.31
   9   4 -22    4.34   73.88
  -9  -4  22 -128.08  127.34
  -9  -4  22   15.36   41.24
   9   3 -22    8.22   69.41
   9   3 -22   -4.71  109.32
  -9  -3  22    4.42  126.94
  -9  -3  22  -23.68   41.40
   9   2 -22    3.91   67.22
   9   2 -22    4.73  108.81
  -9  -2  22   -2.88   35.24
  -9  -2  22  141.73  130.53
   9   1 -22   -3.72   59.41
   9   1 -22  122.68  112.64
  -9  -1  22 -150.98  126.78
  -9  -1  22   41.95   34.67
   9   0 -22   -4.77  106.15
   9   0 -22   70.53   59.79
  -9   0  22  -30.05   35.57
  -9   0  22 -139.36  117.31
   9  -1 -22  -23.26   53.52
   1   9 -22  104.04  139.69
  -1  -9  22    3.97   52.34
  -9   1  22   26.72   34.12
   2   9 -22  -50.15  132.18
  -2  -9  22   11.47  156.89
  -2  -9  22   30.70   50.70
  -9   2  22   54.98   33.21
   3   9 -22   41.46  126.77
  -3  -9  22    5.77  152.23
  -3  -9  22   15.54   49.83
   4   9 -22  -35.79  139.29
  -4  -9  22    5.82  161.82
  -4  -9  22  -56.49   53.63
   5   9 -22   11.28   92.39
   5   9 -22    6.04  132.40
  -5  -9  22  112.78  172.62
  -5  -9  22   -3.94   53.52
   6   9 -22   41.14  125.35
   6   9 -22    5.54   90.53
  -6  -9  22   66.03   54.51
  -6  -9  22    5.91  165.12
   7   9 -22    5.34   97.16
   7   9 -22   -5.84  138.63
  -7  -9  22   49.48   50.00
  -7  -9  22    5.92  181.63
   8   9 -22 -136.40   95.25
   8   9 -22    5.89  126.07
  -8  -9  22    5.94  168.99
  -8  -9  22   78.74   49.06
   9   9 -22    6.06  129.95
   9   9 -22    5.51   90.44
  -9  -9  22   50.08   48.73
  -9  -9  22  -96.15  170.85
  10   9 -22   43.53  136.33
  10   9 -22    5.77   97.08
 -10  -9  22   74.05   49.19
 -10  -9  22    6.20  180.06
  10   8 -22    5.51   97.28
  10   8 -22   92.41  132.40
 -10  -8  22    5.79  166.47
 -10  -8  22    7.85   49.05
  10   7 -22  -16.41  122.26
 -10  -7  22    5.43  160.16
  10   6 -22    5.02   84.58
  10   6 -22   62.97  122.28
 -10  -6  22  -10.77   43.17
 -10  -6  22    5.12  144.47
  10   5 -22   -5.05  113.30
  10   5 -22    4.80   85.02
 -10  -5  22   10.34   44.68
 -10  -5  22   77.91  140.42
  10   4 -22    5.00  115.08
  10   4 -22    4.58   74.39
 -10  -4  22   79.67  135.48
 -10  -4  22   19.93   41.75
  10   3 -22    5.01  112.11
  10   3 -22   -4.38   77.53
 -10  -3  22   54.65   37.62
 -10  -3  22   13.64  125.85
  10   2 -22    4.19   69.76
  10   2 -22   60.90  115.10
 -10  -2  22    4.44  129.00
 -10  -2  22  -12.51   39.64
  10   1 -22   -8.01   63.14
  10   1 -22  380.64  129.59
 -10  -1  22  -18.33   37.91
 -10  -1  22   30.56  126.54
  10   0 -22 -145.83  126.92
  10   0 -22 -179.25   63.60
 -10   0  22   20.84   37.84
 -10   0  22   59.96  128.92
  10  -1 -22   61.09  124.71
  10  -1 -22    3.64   60.68
 -10   1  22    4.18  118.43
 -10   1  22   57.97   36.86
  -1 -10  22   41.30   52.93
  10  -2 -22   50.62  131.52
   2  10 -22    6.70  147.59
  10  -2 -22  -93.07   56.38
 -10   2  22   96.79  119.21
  -2 -10  22  -20.08   51.53
  -2 -10  22    5.95  168.82
 -10   2  22   17.24   35.41
   3  10 -22  214.69  148.72
  -3 -10  22    5.93  157.41
  -3 -10  22   16.28   53.84
   4  10 -22  -12.58  140.36
  -4 -10  22   32.96   52.83
  -4 -10  22   11.98  167.36
   5  10 -22   -5.83  100.30
   5  10 -22   -6.39  140.90
  -5 -10  22    6.10  184.19
  -5 -10  22   32.45   54.17
   6  10 -22    6.33  138.36
   6  10 -22   -5.68   91.89
  -6 -10  22    6.15  174.01
  -6 -10  22   -4.05   53.24
   7  10 -22   -5.58   94.96
   7  10 -22    6.27  140.37
  -7 -10  22    6.16  171.65
  -7 -10  22    7.90   52.24
   8  10 -22   -6.34  137.91
   8  10 -22    5.68  101.18
  -8 -10  22    7.83   49.37
  -8 -10  22   31.38  182.38
   9  10 -22    6.56  145.05
   9  10 -22   -5.73   99.31
  -9 -10  22 -115.61  185.55
  -9 -10  22    4.04   52.23
  10  10 -22    6.04  104.34
  10  10 -22  -20.23  157.49
 -10 -10  22  -43.12   56.74
 -10 -10  22    6.62  204.22
  11  10 -22   34.94  148.88
  11  10 -22    6.51   96.42
 -11 -10  22   59.56   59.82
 -11 -10  22 -242.21  205.77
  11   9 -22   39.14  156.81
  11   8 -22  -66.81  136.42
  11   8 -22   -5.93   97.93
 -11  -8  22 -297.32  179.07
 -11  -8  22  -16.75   51.11
  11   7 -22   28.86  124.89
 -11  -7  22    5.70  165.50
  11   6 -22    5.43   91.60
  11   6 -22  -16.69  119.92
 -11  -6  22   53.91   50.71
 -11  -6  22 -400.17  154.84
  11   5 -22    5.21   82.84
  11   5 -22    5.42  114.19
 -11  -5  22    3.71   46.22
 -11  -5  22   20.65  143.42
  11   4 -22  -16.23  115.11
  11   4 -22 -130.13   83.60
 -11  -4  22   21.51   41.15
 -11  -4  22  109.10  135.36
  11   3 -22    5.50  123.00
  11   3 -22    4.82   81.87
 -11  -3  22   -3.47   40.09
 -11  -3  22  -76.80  140.18
  11   2 -22   96.61  131.88
  11   2 -22   -4.64   76.29
 -11  -2  22   27.06   40.54
 -11  -2  22 -290.43  139.44
  11   1 -22   -5.99  132.93
  11   1 -22   17.78   75.78
 -11  -1  22  106.65   43.66
 -11  -1  22    4.61  134.26
  11   0 -22  -25.43   67.81
  11   0 -22   44.78  148.94
 -11   0  22  -42.57   43.38
 -11   0  22 -145.34  141.52
  11  -1 -22    6.85  158.82
  11  -1 -22   -4.04   68.09
  -1 -11  22   87.96   57.39
 -11   1  22    4.45  128.49
   2  11 -22  115.64  171.63
  11  -2 -22 -230.98  178.29
  -2 -11  22  196.68  171.84
 -11   2  22    8.63  127.08
  -2 -11  22   50.59   58.98
   3  11 -22   67.65  162.53
  -3 -11  22  358.93  181.47
  -3 -11  22  -25.61   56.47
   4  11 -22  -99.81  153.65
  -4 -11  22   12.84   55.87
  -4 -11  22   73.65  174.95
   5  11 -22    5.97   94.78
   5  11 -22  -61.23  160.50
  -5 -11  22   92.98   57.50
  -5 -11  22   37.49  168.30
   6  11 -22   48.19  161.30
   6  11 -22   -5.84  100.29
  -6 -11  22  -33.40   54.75
  -6 -11  22 -114.64  186.07
   7  11 -22    5.79   90.55
   7  11 -22 -115.94  161.74
  -7 -11  22  -24.60   54.78
  -7 -11  22  167.39  190.13
   8  11 -22    5.89   99.64
   8  11 -22    6.92  152.52
  -8 -11  22    6.61  189.71
  -8 -11  22  -61.28   55.02
   9  11 -22   95.82  111.87
   9  11 -22  213.64  187.89
  -9 -11  22  267.43   71.53
  10  11 -22  -44.44  172.68
  10  11 -22  -50.52  108.95
 -10 -11  22    4.51   55.42
 -10 -11  22 -359.11  206.30
  11  11 -22  -99.04  167.13
  11  11 -22    6.83  112.84
 -11 -11  22   43.12   59.37
 -11 -11  22  212.77  215.36
  12  10 -22  191.76  169.10
  12  10 -22   -7.17  113.99
 -12 -10  22   50.89  204.01
 -12 -10  22  -68.93   58.47
  12   9 -22    6.86  105.79
  12   9 -22    6.88  150.55
 -12  -9  22    6.86  199.28
 -12  -9  22   23.56   56.08
  12   8 -22    6.56  106.91
  12   8 -22  -65.18  155.87
 -12  -8  22  -22.55   57.29
  12   7 -22 -323.01  146.73
 -12  -7  22 -490.41  179.42
  12   6 -22    6.03   92.86
  12   6 -22  -60.43  132.02
 -12  -6  22   28.95  156.22
 -12  -6  22   -4.18   49.95
  12   5 -22  190.69  131.13
  12   5 -22  -28.99   93.57
 -12  -5  22    5.49  150.38
 -12  -5  22    8.08   47.08
  12   4 -22 -117.28   87.80
  12   4 -22   78.42  133.65
 -12  -4  22    7.84   45.82
 -12  -4  22   21.08  144.51
  12   3 -22   -6.25  131.86
  12   3 -22   -5.37   85.04
 -12  -3  22   25.51  151.30
  12   2 -22   -6.62  145.99
  12   2 -22    5.17   85.80
 -12  -2  22   34.89  145.94
  12   1 -22    4.97   80.05
  12   1 -22   35.96  160.13
 -12  -1  22    4.87  143.03
  12   0 -22 -247.68  177.02
 -12   0  22 -308.02  165.68
  12  -1 -22    9.01  210.80
  -1 -12  22   23.65   69.72
 -12   1  22  180.21  137.69
  12  -2 -22  404.88  247.60
  -2 -12  22  -67.92  135.52
 -12   2  22 -281.71  137.68
   3  12 -22  -65.31  173.82
  -3 -12  22  -90.66   62.18
  -3 -12  22   -6.22  163.01
   4  12 -22   -7.03  166.77
   4  12 -22    6.14   98.78
  -4 -12  22  112.97  178.77
  -4 -12  22  -13.19   56.91
   5  12 -22  223.59  170.79
   5  12 -22    6.14  103.88
  -5 -12  22    6.35  177.50
  -5 -12  22   30.72   61.37
   6  12 -22  141.45  174.71
   6  12 -22    5.97   89.73
  -6 -12  22   17.28   55.26
  -6 -12  22  -72.21  192.50
   7  12 -22 -111.84  174.65
   7  12 -22   -6.01   98.11
  -7 -12  22  -25.32   55.36
  -7 -12  22    6.69  198.39
   8  12 -22    6.06  106.53
  -8 -12  22   55.27   57.97
   9  12 -22   43.68  104.86
   9  12 -22    7.78  179.64
  -9 -12  22  -35.81  207.13
  -9 -12  22   17.72   55.52
  10  12 -22    8.09  173.05
  10  12 -22    6.60  112.17
 -10 -12  22    7.46  213.80
 -10 -12  22   37.69   58.35
  11  12 -22   41.78  187.66
 -11 -12  22   -7.72  214.93
  13   9 -22  -21.92  167.80
 -13  -9  22 -211.33  211.40
  13   8 -22    7.02  156.89
  13   8 -22   -7.33  117.34
 -13  -8  22 -325.55  208.54
  13   7 -22   -7.04  109.56
  13   7 -22  -33.92  158.74
 -13  -7  22    6.52  191.07
  -1 -13  22   -5.21   75.02
   2  13 -22    8.51  179.04
  -2 -13  22  -58.60   65.28
   3  13 -22   -7.83  173.25
  -3 -13  22    6.36  179.29
  -3 -13  22   89.83   64.15
   4  13 -22    6.27  101.94
   4  13 -22    7.52  162.69
  -4 -13  22    6.38  173.86
  -4 -13  22  -82.64   61.51
   5  13 -22   -6.21   98.78
   5  13 -22   -7.66  173.44
  -5 -13  22   -8.99   58.39
  -5 -13  22 -200.79  191.50
   6  13 -22 -277.24  105.65
   6  13 -22  151.55  197.61
  -6 -13  22  136.85   60.19
   7  13 -22    6.22   97.89
   7  13 -22   73.94  189.05
  -7 -13  22   89.92  198.40
  -7 -13  22  -39.05   55.20
   8  13 -22   -8.35  184.14
   8  13 -22  106.11  110.19
  -8 -13  22   35.30   55.65
  -8 -13  22   28.58  205.72
   9  13 -22  -12.99  102.74
   9  13 -22   51.65  205.36
  -9 -13  22   29.90  210.14
  -9 -13  22   41.55   56.79
  10  13 -22    8.88  207.19
 -10 -13  22   -7.79  223.35
  -2 -14  22  -74.34   71.88
   3  14 -22  -42.36  184.37
  -3 -14  22   -6.49  193.93
  -3 -14  22   -9.96   67.41
   4  14 -22  -24.29  179.90
   4  14 -22    6.33  103.85
  -4 -14  22    6.46  187.02
  -4 -14  22   23.70   72.77
   5  14 -22   -6.22  102.85
   5  14 -22   16.21  175.74
  -5 -14  22  -23.18   61.75
  -5 -14  22    6.57  185.28
   6  14 -22  283.01  202.54
   6  14 -22   -6.17   97.50
  -6 -14  22    4.49   55.14
  -6 -14  22 -121.77  184.47
   7  14 -22    9.05  211.26
   7  14 -22    6.33  101.64
  -7 -14  22    8.86   53.91
  -7 -14  22   28.35  210.72
   8  14 -22 -575.60  225.61
   8  14 -22   -6.43  111.24
  -8 -14  22  -51.56  217.60
  -8 -14  22   -4.54   58.54
   9  14 -22 -242.15   97.71
   9  14 -22   -9.54  206.27
  -9 -14  22  -47.88   62.16
  -9 -14  22 -122.90  225.76
   3  15 -22    9.16  199.46
   3  15 -22   12.96  108.04
  -3 -15  22   61.84   66.52
   4  15 -22  -69.93  184.65
   4  15 -22    6.40  103.37
  -4 -15  22  -29.07   65.21
  -4 -15  22    6.53  173.00
   5  15 -22  -43.38  195.79
   5  15 -22   12.45   99.63
  -5 -15  22    6.64  178.11
  -5 -15  22   61.02   60.65
   6  15 -22  -54.98  216.66
   6  15 -22    6.28  102.88
  -6 -15  22 -218.65  184.11
  -6 -15  22 -104.15   60.57
   7  15 -22    6.42   99.25
   7  15 -22   78.64  216.79
  -7 -15  22  279.86  209.10
  -7 -15  22 -112.85   60.33
   8  15 -22   10.43  240.60
  -8 -15  22   22.65  222.31
  -1   0  23  157.04   49.40
  -1  -1  23   21.31   44.58
  -1   1  23   28.22   42.10
   2   1 -23   48.24  101.44
  -2  -1  23   12.67   39.42
  -2  -1  23   55.67  127.39
  -1   2  23    9.05   38.71
   2   0 -23  162.79  105.96
  -2   0  23   91.13  121.07
  -2   0  23  -42.61   41.46
   2  -1 -23 -134.06  104.39
  -2   1  23    2.96   38.99
   2  -2 -23  -53.60   93.39
   2   2 -23    4.92  101.66
  -2   2  23  -67.50   40.21
  -2  -2  23  -38.14  129.26
  -2   3  23   71.59   43.07
   3   1 -23    8.69   90.36
  -1   3  23   26.94   40.82
  -3  -1  23  -22.97  131.19
  -3  -1  23  190.22   41.01
   3   0 -23  -29.49   91.42
  -3   0  23   60.58   37.79
  -3   0  23  102.16  126.11
   3  -1 -23   20.56   88.31
  -3   1  23   11.94   40.36
  -3   1  23  150.79  125.51
   3  -2 -23   64.81   86.08
  -3   2  23   79.58  118.28
  -3   2  23  133.44   43.40
   3  -3 -23   55.94   91.43
  -3  -3  23   -3.35   39.72
  -3   3  23  -12.26  115.86
  -3   3  23   12.12   39.74
  -4  -3  23   33.71   47.05
   4   1 -23  187.54  105.14
  -4  -1  23  158.32  133.35
   4   0 -23  -62.09   94.27
  -4   0  23   17.95  133.73
  -4   0  23  -12.25   37.43
   4  -1 -23    3.94   92.75
  -1  -4  23    3.99   56.14
  -4   1  23  203.95  127.88
  -4   1  23  214.89   46.77
   4  -2 -23   41.06   84.47
  -4   2  23    9.02   36.13
  -2  -4  23   -7.12   45.42
  -4   2  23  -75.56  118.59
   3   4 -23  430.99  111.62
   4  -3 -23  254.66   85.88
  -4   3  23  122.92   47.86
  -3  -4  23  291.85  141.52
  -3  -4  23   -3.48   50.76
  -4   3  23  175.18  122.30
   4   4 -23    4.99  115.97
  -4  -4  23  -28.02   47.75
  -4  -4  23  -57.52  139.09
   5   4 -23   29.93  121.78
  -5  -4  23   34.60   48.59
  -5  -4  23    5.31  153.88
   5   3 -23    4.78  109.07
  -5  -3  23   16.63   43.15
  -5  -3  23   -5.13  149.46
  -5  -2  23   19.19   40.73
   5   0 -23 -138.91   99.87
   5   0 -23   -3.40   43.40
  -5   0  23 -189.28  134.99
   5  -1 -23   80.39   88.91
   5  -1 -23    3.21   54.55
   1   5 -23  -60.67  120.76
  -5   1  23  -31.20  124.92
  -1  -5  23   44.58   53.54
  -5   1  23   14.34   39.90
   5  -2 -23   -9.18   50.46
   5  -2 -23  -68.18   87.41
   2   5 -23   -5.43  107.37
  -2  -5  23    7.34   50.09
  -5   2  23   -5.53   36.56
  -2  -5  23 -426.32  138.24
  -5   2  23   25.76  128.48
   3   5 -23    5.12  114.76
  -5   3  23  -12.45  123.37
  -3  -5  23   -7.18   49.80
  -5   3  23  138.61   39.47
  -3  -5  23    5.31  155.29
   4   5 -23    5.22  117.08
  -4  -5  23  -47.31   48.76
  -4  -5  23    5.42  154.41
   5   5 -23    5.21  109.77
  -5  -5  23    5.50  154.34
  -5  -5  23  -35.99   48.28
   6   5 -23  -48.13   82.18
   6   5 -23   -5.07  129.01
  -6  -5  23    5.40  159.64
  -6  -5  23   73.39   49.59
   6   4 -23  -82.96  117.49
   6   4 -23    4.51   75.96
  -6  -4  23  104.35  152.14
  -6  -4  23   26.76   48.87
   6   3 -23   -4.72  122.57
   6   3 -23   -4.25   75.20
  -6  -3  23 -358.84  152.39
  -6  -3  23   32.06   43.29
   6   2 -23   35.85   68.35
   6   2 -23  360.49  114.67
  -6  -2  23  -18.47   43.38
  -6  -2  23  186.15  145.48
   6   1 -23  -89.60   63.83
  -6  -1  23   14.67   37.95
   1   6 -23   63.02  126.65
   6  -1 -23  -72.48   98.00
   6  -1 -23   -3.27   45.64
  -6   1  23  248.68  147.05
   2   6 -23  233.12  133.09
   6  -2 -23  116.17   69.19
   6  -2 -23  543.93  106.80
  -2  -6  23  234.71  161.93
  -6   2  23  329.58  144.60
   3   6 -23    5.37  107.32
  -3  -6  23 -479.70  156.09
  -6   3  23   31.61   31.58
   4   6 -23    5.45  123.97
  -4  -6  23   -5.59  160.34
   5   6 -23   98.13   89.25
   5   6 -23  180.61  120.99
  -5  -6  23   18.71   46.13
  -5  -6  23    5.70  155.46
   6   6 -23    5.14   88.07
   6   6 -23    5.29  118.63
  -6  -6  23   -3.65   49.06
  -6  -6  23  -72.85  159.18
   7   6 -23    5.23  113.38
   7   6 -23 -149.03   86.77
  -7  -6  23   -5.51  160.56
  -7  -6  23   60.57   48.98
   7   5 -23   30.20  123.17
   7   5 -23   -4.70   77.36
  -7  -5  23   84.78  150.99
  -7  -5  23  -30.63   47.51
   7   4 -23   13.25   90.02
  -7  -4  23  301.14  159.00
  -7  -4  23  211.49   62.72
   7   3 -23    4.13   70.85
   7   3 -23  -28.66  108.08
  -7  -3  23   71.58   41.51
  -7  -3  23   34.72  148.98
   7   2 -23  215.03  114.86
   7   2 -23   -3.88   66.69
  -7  -2  23  149.29  134.77
  -7  -2  23   41.49   38.78
   7   1 -23  283.30  111.90
   7   1 -23   36.65   64.46
  -7  -1  23  257.53  139.08
   7   0 -23  -13.90   54.47
  -7   0  23   40.76   36.52
   1   7 -23    6.61  119.07
  -1  -7  23   49.17   56.07
   7  -2 -23  -24.06   94.99
   2   7 -23    5.98  120.29
  -7   2  23  144.53  126.01
  -2  -7  23 -294.55  159.68
  -2  -7  23    3.83   48.78
   3   7 -23    5.65  130.83
  -3  -7  23   75.90   50.17
  -3  -7  23    5.72  160.35
   4   7 -23  -17.10  121.86
  -4  -7  23    3.90   53.29
  -4  -7  23  -34.72  158.01
   5   7 -23 -195.67  138.81
   5   7 -23   -5.47   94.17
  -5  -7  23   38.34   51.94
  -5  -7  23    5.90  159.17
   6   7 -23   22.22  130.35
  -6  -7  23    5.81  157.81
   7   7 -23    5.49  123.60
  -7  -7  23   -5.75  167.34
   8   7 -23    5.52  130.95
  -8  -7  23    5.67  162.88
   8   6 -23 -341.06   86.88
   8   6 -23    5.28  114.39
  -8  -6  23    5.40  156.71
  -8  -6  23  -55.45   47.84
   8   5 -23    4.75   71.05
   8   5 -23    5.12  114.66
  -8  -5  23    6.62   44.79
  -8  -5  23  -41.22  149.50
   8   4 -23   10.00  116.63
   8   4 -23    4.51   74.73
  -8  -4  23   15.81   42.49
  -8  -4  23    4.96  141.07
   8   3 -23    4.92  116.16
   8   3 -23    4.27   69.58
  -8  -3  23   99.82   41.18
  -8  -3  23    4.80  135.55
   8   2 -23  374.48  121.09
   8   2 -23    4.03   68.82
  -8  -2  23   -2.90   38.41
  -8  -2  23   14.00  134.10
   8   1 -23   34.22   67.38
   8   1 -23    4.82  112.07
  -8  -1  23   16.76   36.27
  -8  -1  23   -4.55  130.46
   8   0 -23  -71.57   63.38
   8   0 -23    4.75  106.42
  -8   0  23    4.43  130.15
  -8   0  23   18.90   35.89
   8  -1 -23   -4.63   79.96
   8  -1 -23    3.33   56.56
  -8   1  23  -15.65   34.17
  -1  -8  23   66.27   52.58
  -8   1  23   -4.30  104.26
   2   8 -23    6.32  130.07
  -2  -8  23   -5.88  160.44
  -2  -8  23    7.87   49.05
   3   8 -23    5.98  122.86
  -3  -8  23   74.58   52.72
  -3  -8  23 -206.73  164.37
   4   8 -23  215.33  144.38
  -4  -8  23    5.98  163.07
  -4  -8  23  -16.19   54.05
   5   8 -23    5.74  100.08
   5   8 -23  -30.24  142.71
  -5  -8  23 -158.24  173.42
  -5  -8  23    3.98   47.68
   6   8 -23   85.39   99.64
   6   8 -23  123.73  144.43
  -6  -8  23   12.11  177.61
  -6  -8  23    3.93   54.14
   7   8 -23    5.44   95.98
   7   8 -23   23.12  139.05
  -7  -8  23  -54.52   53.25
  -7  -8  23  880.45  174.56
   8   8 -23    5.56   86.20
   8   8 -23   40.77  131.61
  -8  -8  23  -17.94  167.18
  -8  -8  23  -34.21   50.87
   9   8 -23   -5.55   91.66
   9   8 -23    5.98  130.54
  -9  -8  23    5.99  181.48
  -9  -8  23    3.88   50.04
   9   7 -23  107.31  124.54
  -9  -7  23    5.63  155.93
   9   6 -23    5.04   82.26
   9   6 -23   85.84  119.84
  -9  -6  23   24.70   44.63
  -9  -6  23 -368.41  162.89
   9   5 -23    5.20  107.83
   9   5 -23   -4.79   78.07
  -9  -5  23   -5.08  149.40
  -9  -5  23  118.18   48.07
   9   4 -23   -5.10  118.16
   9   4 -23    4.55   73.69
  -9  -4  23    4.89  138.92
  -9  -4  23   35.60   40.10
   9   3 -23    4.33   66.67
   9   3 -23  131.56  109.40
  -9  -3  23  -24.91   39.87
  -9  -3  23   -4.74  132.89
   9   2 -23   16.37   66.37
   9   2 -23  222.02  121.26
  -9  -2  23    6.02   38.15
  -9  -2  23  -18.43  139.94
   9   1 -23   35.01   63.44
   9   1 -23  101.65  121.45
  -9  -1  23    4.50  133.02
  -9  -1  23   20.51   37.92
   9   0 -23   61.28  113.90
   9   0 -23   33.21   59.11
  -9   0  23   31.41   35.69
  -9   0  23    4.39  123.45
   9  -1 -23    3.48   56.26
   9  -1 -23   -5.07  118.15
  -9   1  23    4.27  126.49
  -9   1  23    2.80   36.17
   9  -2 -23    3.26   54.91
   9  -2 -23   -4.93  115.64
   2   9 -23    6.71  155.55
  -9   2  23   49.26  118.01
  -9   2  23   40.76   34.29
  -2  -9  23   -6.09  163.23
  -2  -9  23  -28.26   52.91
   3   9 -23   63.42  136.52
  -3  -9  23    6.10  170.59
  -3  -9  23   12.16   51.74
   4   9 -23    6.29  132.98
  -4  -9  23   18.52  177.33
  -4  -9  23  -29.41   51.66
   5   9 -23    5.96  107.33
   5   9 -23   19.12  149.42
  -5  -9  23  -65.94   56.37
  -5  -9  23  -37.66  166.35
   6   9 -23  -88.68  101.47
   6   9 -23  -75.56  150.29
  -6  -9  23 -599.93  188.58
  -6  -9  23   28.62   53.43
   7   9 -23   -6.18  134.39
   7   9 -23   -5.68   95.69
  -7  -9  23   -8.07   53.41
  -7  -9  23    6.26  186.74
   8   9 -23    6.21  145.13
   8   9 -23   -5.82   94.07
  -8  -9  23   35.75   52.77
  -8  -9  23    6.32  171.34
   9   9 -23   95.51  148.59
   9   9 -23   81.47   95.64
  -9  -9  23  -52.86   52.80
  -9  -9  23    6.40  181.59
  10   9 -23 -284.14  163.95
  10   9 -23    6.06  103.77
 -10  -9  23 -620.95  202.09
 -10  -9  23  -64.58   57.62
  10   8 -23   -5.79   90.34
  10   8 -23   -6.13  138.95
 -10  -8  23   -8.20   52.92
 -10  -8  23    6.10  169.58
  10   7 -23  139.13  138.03
 -10  -7  23    5.74  163.85
  10   6 -23    5.55  129.83
  10   6 -23    5.26   84.87
 -10  -6  23  112.22   50.55
 -10  -6  23    5.41  155.29
  10   5 -23    5.42  112.06
  10   5 -23   10.03   91.39
 -10  -5  23  111.39   44.57
 -10  -5  23 -154.56  155.70
  10   4 -23    5.36  119.34
  10   4 -23    4.78   76.56
 -10  -4  23  -84.06  147.17
 -10  -4  23  107.67   46.58
  10   3 -23    4.56   77.59
  10   3 -23   -5.34  117.37
 -10  -3  23    4.78  138.75
 -10  -3  23  -57.14   45.25
  10   2 -23  -27.16  118.36
  10   2 -23    4.35   68.47
 -10  -2  23  -29.33   41.14
 -10  -2  23   23.33  135.85
  10   1 -23   -4.16   72.03
  10   1 -23   83.65  126.19
 -10  -1  23   15.96   41.52
 -10  -1  23  100.59  137.55
  10   0 -23  -19.77   60.29
  10   0 -23    5.73  130.44
 -10   0  23  -37.22   39.14
 -10   0  23    4.48  125.09
  10  -1 -23    5.84  135.55
  10  -1 -23  -15.00   57.79
 -10   1  23    4.36  126.37
 -10   1  23  -12.09   36.85
  10  -2 -23  -81.60  138.34
  10  -2 -23    7.13   57.52
   2  10 -23   64.77  162.78
  -2 -10  23   12.63   52.00
 -10   2  23   -2.95   36.15
  -2 -10  23  145.29  177.72
 -10   2  23   20.93  122.36
   3  10 -23  162.26  158.07
  -3 -10  23    6.28  168.19
  -3 -10  23   80.48   60.79
   4  10 -23   -6.60  143.51
  -4 -10  23    6.35  182.75
  -4 -10  23   47.22   55.36
   5  10 -23   -6.20   97.81
   5  10 -23 -189.16  154.98
  -5 -10  23 -105.86   56.27
  -5 -10  23 -251.50  175.97
   6  10 -23  -88.21  154.79
   6  10 -23    6.09   99.36
  -6 -10  23  -34.02   54.04
  -6 -10  23  183.23  191.60
   7  10 -23    6.66  147.01
   7  10 -23   -5.92  101.16
  -7 -10  23    6.54  184.31
  -7 -10  23  -50.26   55.11
   8  10 -23   12.08  106.56
   8  10 -23  -13.40  159.38
  -8 -10  23  266.42  192.85
  -8 -10  23   49.78   55.04
   9  10 -23    6.86  168.03
   9  10 -23    6.09  106.62
  -9 -10  23 -550.84  204.19
  -9 -10  23  -12.78   59.17
  10  10 -23    6.35  104.39
  10  10 -23    7.14  152.79
 -10 -10  23    7.00  202.55
 -10 -10  23  -36.27   60.97
  11  10 -23    7.40  160.11
  11  10 -23   -6.80  109.68
 -11 -10  23  -81.88   64.50
 -11 -10  23  182.01  201.35
  11   9 -23    6.49  103.37
  11   9 -23  130.48  151.35
 -11  -9  23  -32.17   60.28
 -11  -9  23   -6.82  212.62
  11   8 -23 -122.18  148.72
  11   8 -23    6.19  107.46
 -11  -8  23  871.47  207.74
 -11  -8  23   39.51   56.52
  11   7 -23   -6.13  139.13
 -11  -7  23    5.96  175.77
  11   6 -23    5.87  130.68
  11   6 -23    5.65   97.47
 -11  -6  23   32.17   53.22
 -11  -6  23 -157.08  164.00
  11   5 -23    5.40   86.30
  11   5 -23  -11.52  127.07
 -11  -5  23   61.89   49.59
 -11  -5  23    5.35  150.50
  11   4 -23    5.17   86.88
  11   4 -23   63.33  125.11
 -11  -4  23  -29.89   49.90
 -11  -4  23    5.15  145.29
  11   3 -23    4.96   81.34
  11   3 -23    5.84  129.81
 -11  -3  23 -250.58  148.53
 -11  -3  23   21.71   43.58
  11   2 -23    6.03  143.49
  11   2 -23 -124.06   80.78
 -11  -2  23   98.27   43.71
 -11  -2  23   34.41  142.02
  11   1 -23    4.58   76.25
  11   1 -23 -177.30  138.40
 -11  -1  23   -6.86   41.84
 -11  -1  23    4.83  136.94
  11   0 -23   61.03   74.19
  11   0 -23   40.21  144.76
 -11   0  23 -133.13  140.29
 -11   0  23  108.21   45.03
  11  -1 -23   63.70  166.26
  11  -1 -23   12.45   66.39
 -11   1  23    3.32   40.69
 -11   1  23  144.00  137.98
   2  11 -23    7.73  164.54
  -2 -11  23 -124.63  175.40
 -11   2  23   67.02  131.81
  -2 -11  23   92.75   64.08
   3  11 -23    7.23  151.10
  -3 -11  23  -44.40   59.80
  -3 -11  23   83.70  177.12
   4  11 -23   63.03  160.24
  -4 -11  23    6.51  182.76
  -4 -11  23  -66.89   56.21
   5  11 -23    7.14  158.57
   5  11 -23    6.35  104.94
  -5 -11  23   48.57   58.69
  -5 -11  23  191.17  193.46
   6  11 -23  -73.01  164.63
   6  11 -23    6.22  103.09
  -6 -11  23  -74.65   61.23
  -6 -11  23   -6.77  187.32
   7  11 -23    7.24  162.75
   7  11 -23    6.16  104.12
  -7 -11  23   -6.85  193.65
  -7 -11  23  -26.03   56.62
   8  11 -23   -6.26  117.25
   8  11 -23  261.55  169.16
  -8 -11  23  285.64  215.11
  -8 -11  23  -12.96   59.26
   9  11 -23   -7.44  172.44
   9  11 -23   -6.32   96.90
  -9 -11  23   17.84   57.14
  -9 -11  23    7.21  206.10
  10  11 -23    7.74  178.78
  10  11 -23    6.64  108.60
 -10 -11  23   71.31   57.87
 -10 -11  23    7.49  219.17
  11  11 -23   32.32  181.26
 -11 -11  23  170.78  231.81
  12  10 -23   -7.74  178.55
  12   9 -23   80.07  164.85
  12   9 -23   -7.13  113.58
 -12  -9  23    7.18  228.39
 -12  -9  23   44.13   61.85
  12   8 -23   88.91  156.41
  12   8 -23    6.81  107.74
 -12  -8  23    4.68   56.44
 -12  -8  23   -6.71  197.69
  12   7 -23 -668.88  161.67
  12   7 -23    6.51  114.44
 -12  -7  23  -58.37   57.37
  12   6 -23    6.35  146.53
  12   6 -23   -6.24  106.85
 -12  -6  23 -112.35   59.99
  12   5 -23 -197.27   98.88
  12   5 -23    6.28  146.36
 -12  -5  23    5.71  159.63
 -12  -5  23   -4.18   51.28
  12   4 -23    5.74   91.23
  12   4 -23  -19.05  137.59
 -12  -4  23  -69.03   52.42
 -12  -4  23   10.98  155.55
  12   3 -23 -300.35  135.83
  12   3 -23    5.51   89.34
 -12  -3  23  122.45  155.59
 -12  -3  23  -23.71   48.72
  12   2 -23    6.90  157.51
  12   2 -23  -84.63   86.34
 -12  -2  23 -260.48  156.29
  12   1 -23   -5.08   85.38
  12   1 -23    7.46  165.93
 -12  -1  23   92.60  150.51
  12   0 -23   -8.20  188.72
 -12   0  23 -167.58  146.38
  12  -1 -23    9.09  193.09
 -12   1  23  119.59  152.37
   2  12 -23  -75.17  214.79
  -2 -12  23 -336.83   74.51
   3  12 -23   -7.77  178.95
  -3 -12  23   -6.60  176.17
  -3 -12  23   33.05   62.89
   4  12 -23   13.03  107.85
   4  12 -23   29.94  170.81
  -4 -12  23   53.18  191.92
  -4 -12  23   27.53   56.13
   5  12 -23    6.52  109.64
   5  12 -23    7.58  177.57
  -5 -12  23    6.74  187.00
  -5 -12  23  -96.50   61.97
   6  12 -23 -140.52  194.19
   6  12 -23 -394.14  114.22
  -6 -12  23  -50.05   62.14
  -6 -12  23 -485.06  217.04
   7  12 -23 -336.81  114.17
   7  12 -23 -364.92  206.74
  -7 -12  23  -13.46   61.83
   8  12 -23   -7.98  182.83
   8  12 -23   -6.46  104.49
  -8 -12  23 -138.65  214.69
  -8 -12  23  -17.99   58.26
   9  12 -23   32.92  112.20
   9  12 -23  -40.89  188.11
  -9 -12  23    7.59  216.87
  -9 -12  23  -56.12   61.28
  10  12 -23    6.93  114.60
  10  12 -23   16.91  195.12
 -10 -12  23    7.91  231.97
  13   8 -23   22.20  172.87
 -13  -8  23 -193.35  204.80
  13   7 -23    7.12  166.28
  13   7 -23    7.23  114.08
  13   6 -23    6.94  111.30
  13   6 -23  286.84  154.08
 -13  -6  23    6.39  176.59
  13   5 -23   -6.68  118.89
  13   5 -23   -6.99  174.50
 -13  -5  23    6.07  177.88
  13   4 -23 -500.67  166.54
 -13  -4  23  729.15  186.41
  13   3 -23    7.52  170.94
 -13  -3  23 -554.03  168.71
  13   2 -23  -48.81  167.81
  -2 -13  23   10.27   68.15
   3  13 -23  183.86  188.90
  -3 -13  23 -674.48  197.03
  -3 -13  23   24.72   68.62
   4  13 -23  297.37  201.99
   4  13 -23   99.24  118.23
  -4 -13  23  297.02  216.13
  -4 -13  23   -4.80   66.25
   5  13 -23 -665.12  177.62
   5  13 -23    6.61   98.67
  -5 -13  23 -240.52  205.52
  -5 -13  23  -47.24   62.90
   6  13 -23   92.22  191.98
   6  13 -23    6.40  102.08
  -6 -13  23    4.70   61.85
  -6 -13  23   -7.06  195.83
   7  13 -23  -43.59  198.30
   7  13 -23    6.57  110.59
  -7 -13  23   69.05   61.48
  -7 -13  23   -7.34  211.18
   8  13 -23   70.52  206.28
   8  13 -23   -6.61  110.00
  -8 -13  23   75.92  223.72
  -8 -13  23  -93.25   59.78
   9  13 -23    9.01  202.11
  -9 -13  23  -78.81  236.60
  -9 -13  23    4.87   63.88
  -2 -14  23  -11.25   74.46
   3  14 -23    9.05  201.68
  -3 -14  23 -138.36  193.57
  -3 -14  23   42.11   64.86
   4  14 -23    6.75  110.36
   4  14 -23   17.29  190.94
  -4 -14  23   34.96   62.54
  -4 -14  23 -205.22  182.57
   5  14 -23   68.57  202.49
   5  14 -23   -6.61  112.75
  -5 -14  23  313.52  198.83
  -5 -14  23  -88.24   65.59
   6  14 -23    6.52  101.01
   6  14 -23   -8.96  205.30
  -6 -14  23 -200.14  205.27
  -6 -14  23  -66.86   59.16
   7  14 -23  -73.77  110.75
   7  14 -23    9.44  217.04
  -7 -14  23  246.97  218.74
  -7 -14  23   75.43   60.22
   8  14 -23  304.55  230.55
   8  14 -23   -6.77  108.67
  -8 -14  23    9.63   65.54
  -8 -14  23 -156.69  224.85
  -2 -15  23 -112.09   82.12
   3  15 -23    6.97  106.40
   3  15 -23    9.79  196.94
  -3 -15  23  -27.56   68.53
   4  15 -23 -186.61  206.54
   4  15 -23   41.03  113.80
  -4 -15  23 -193.93  198.01
  -4 -15  23  -73.08   67.67
   5  15 -23  -27.74  208.87
   5  15 -23  -19.90  109.55
  -5 -15  23 -110.05   66.73
  -5 -15  23   91.31  199.41
   6  15 -23    6.62  107.50
   6  15 -23    9.60  222.20
  -6 -15  23   67.94   63.71
  -6 -15  23  326.16  216.01
   7  15 -23 -390.78  224.77
  -7 -15  23   48.03   58.01
  -7 -15  23   -7.58  212.88
  -1   0  24   -3.54   43.45
  -1   1  24  333.86   77.39
  -1   2  24   -9.64   41.43
   2   0 -24 -207.80  124.72
  -2   0  24  290.94   55.06
   2  -1 -24 -141.11  105.39
  -2   1  24  -28.28   40.40
  -2  -2  24   -3.52   46.28
  -2   2  24  -47.00   42.89
  -2   3  24    6.42   41.33
  -3  -2  24   20.45   42.82
  -1   3  24    6.42   41.89
   3   0 -24   13.70  102.94
  -3   0  24    9.45  132.85
   3  -1 -24 -147.49   94.76
  -3   1  24   78.07  125.83
  -3   1  24    3.17   40.44
   2   3 -24  223.52  119.02
   3  -2 -24  -43.92   93.63
  -2  -3  24   11.02   45.67
  -3   2  24   12.70   42.13
  -3   2  24   53.84  126.47
   3   3 -24    5.05  112.63
  -3  -3  24   24.78   47.99
  -3   3  24  124.93   43.14
  -3   3  24  -39.60  132.80
   4   3 -24    5.05  109.45
  -4  -3  24  -17.78   42.99
  -4  -3  24    5.32  152.13
   4   2 -24  972.28  189.21
  -4  -2  24 1144.41  210.47
  -4   0  24   -4.78  128.23
   4  -1 -24 -170.33   96.69
  -4   1  24 -138.67  145.29
  -4   1  24  177.94   43.65
   4  -2 -24 -206.09   98.94
   2   4 -24   -5.63  128.89
  -2  -4  24    7.62   51.46
  -4   2  24   12.98   45.27
  -4   2  24 -170.15  135.73
  -2  -4  24 -232.19  158.63
   3   4 -24    5.26  107.33
  -3  -4  24    5.42  149.74
  -3  -4  24  -11.01   44.58
  -4   3  24   -3.21   41.18
   4   4 -24   -5.28  116.91
  -4  -4  24   -7.37   48.98
  -4  -4  24    5.52  155.12
   5   4 -24    5.38  118.32
  -5  -4  24   43.80   46.00
  -5  -4  24    5.67  154.39
   5   3 -24   -5.17  113.47
  -5  -3  24    5.47  159.14
  -5  -3  24   -3.51   46.43
   5   2 -24  -19.86  111.21
  -5  -2  24   40.65   45.40
  -5  -2  24    5.29  150.95
   5   1 -24    3.74   65.01
  -5  -1  24   45.99   43.04
   5  -1 -24 -115.03  101.39
  -5   1  24 -364.22  150.79
   2   5 -24   -5.85  126.54
   5  -2 -24  -28.62   52.52
   5  -2 -24   48.16   92.39
  -2  -5  24 -425.97  157.68
  -2  -5  24   27.49   52.30
  -5   2  24   24.01   36.41
  -5   2  24 -104.78  139.90
   3   5 -24    5.49  121.38
  -3  -5  24 -478.44  161.82
  -3  -5  24   45.52   47.71
   4   5 -24   22.06  123.11
  -4  -5  24  -34.42   47.56
  -4  -5  24   40.10  163.13
   5   5 -24  -39.21  135.57
  -5  -5  24  -23.43  163.96
  -5  -5  24   37.94   50.54
   6   5 -24    5.45  127.46
   6   5 -24   30.41   82.85
  -6  -5  24    5.78  171.40
  -6  -5  24    3.70   51.73
   6   4 -24   -5.26  127.81
   6   4 -24   -4.74   79.90
  -6  -4  24 -318.46  164.20
  -6  -4  24  -10.64   45.49
   6   3 -24    4.42   67.29
   6   3 -24   15.27  117.97
  -6  -3  24   16.23  152.21
  -6  -3  24   -6.81   46.41
   6   2 -24   24.63  112.58
   6   2 -24  -58.21   66.94
  -6  -2  24   16.39   38.91
  -6  -2  24    5.24  148.28
   6   1 -24  -74.15   68.16
   6   1 -24  113.98  110.99
  -6  -1  24 -223.89  149.67
  -6  -1  24  -15.66   43.35
   6   0 -24    3.67   63.47
  -6   0  24  -88.12   41.11
   6  -2 -24   28.65   92.63
   2   6 -24 -146.65  138.02
  -2  -6  24 -168.08  158.59
  -6   2  24  106.32  133.98
   3   6 -24   -5.76  125.39
  -3  -6  24    5.84  156.06
  -3  -6  24   31.03   50.29
   4   6 -24   11.51  121.54
  -4  -6  24  -70.95   50.76
  -4  -6  24    5.93  170.88
   5   6 -24    5.84  128.01
  -5  -6  24    3.94   51.98
  -5  -6  24  -30.18  171.55
   6   6 -24 -129.67   97.67
   6   6 -24  148.05  139.99
  -6  -6  24   42.37   52.44
  -6  -6  24    6.00  172.35
   7   6 -24   -5.58  124.54
   7   6 -24 -316.05   88.34
  -7  -6  24   -5.86  169.46
  -7  -6  24    3.77   50.92
   7   5 -24    4.97   78.31
   7   5 -24  135.02  124.70
  -7  -5  24   -5.66  156.80
  -7  -5  24   -3.61   49.00
   7   4 -24    5.25  119.86
   7   4 -24    4.67   74.65
  -7  -4  24    3.46   46.16
  -7  -4  24    5.50  162.19
   7   3 -24    4.38   71.43
   7   3 -24  117.81  117.08
  -7  -3  24    5.34  159.76
  -7  -3  24   49.70   44.50
   7   2 -24    4.09   71.74
   7   2 -24   -5.01  114.11
  -7  -2  24   15.91   42.81
  -7  -2  24   -5.19  156.47
   7   1 -24  -76.87   64.40
   7   1 -24   29.29  110.72
  -7  -1  24   33.47   36.57
  -7  -1  24   -5.05  146.36
   7   0 -24   18.20   60.32
   7   0 -24 -141.72  110.20
  -7   0  24   -8.75   37.75
  -7   0  24   39.18  142.29
   7  -1 -24   -3.44   55.71
  -7   1  24   -4.74   94.33
  -7   1  24  -16.79   36.76
   2   7 -24   44.96  134.33
  -2  -7  24    6.02  162.28
  -2  -7  24    4.08   54.08
   3   7 -24 -242.66  128.15
  -3  -7  24    3.99   50.41
  -3  -7  24    6.04  158.78
   4   7 -24 -270.91  130.78
  -4  -7  24   -6.14  173.00
   5   7 -24    6.08  135.52
  -5  -7  24    6.24  174.70
   6   7 -24   17.94  143.22
  -6  -7  24  -62.24  187.21
  -7  -7  24 1292.49  277.08
   8   7 -24    5.84  135.43
  -8  -7  24    6.05  172.46
   8   6 -24   -5.61  128.11
   8   6 -24    5.28   86.74
  -8  -6  24  -57.68  170.76
  -8  -6  24  -25.74   50.23
   8   5 -24    5.00   81.29
   8   5 -24    5.44  128.82
  -8  -5  24  -14.05   47.96
  -8  -5  24    5.55  160.74
   8   4 -24    5.34  129.52
   8   4 -24   -4.73   70.95
  -8  -4  24  133.92  159.16
  -8  -4  24    6.72   45.86
   8   3 -24    5.26  128.09
   8   3 -24   -4.48   70.08
  -8  -3  24   10.39  158.54
  -8  -3  24   48.27   42.30
   8   2 -24    5.21  120.83
   8   2 -24   -4.25   67.33
  -8  -2  24    3.09   40.37
  -8  -2  24   86.03  153.12
   8   1 -24 -113.67  123.67
   8   1 -24  -92.02   66.59
  -8  -1  24    5.94   34.47
  -8  -1  24    9.87  144.68
   8   0 -24   15.07   62.04
   8   0 -24  182.01  116.54
  -8   0  24  109.01   37.95
  -8   0  24 -105.72  144.44
   8  -1 -24   -4.90  113.07
   8  -1 -24   38.61   60.71
  -8   1  24 -204.82  140.24
  -8   1  24   13.85   33.71
   2   8 -24    6.81  148.01
   8  -2 -24  -26.22   57.34
   8  -2 -24  367.45  107.89
  -2  -8  24  131.24  166.31
  -8   2  24   53.26   35.26
  -2  -8  24  112.76   59.82
   3   8 -24    6.41  131.13
  -3  -8  24   62.50  179.03
  -3  -8  24  -86.51   59.25
   4   8 -24   31.59  144.23
  -4  -8  24   46.50   56.30
  -4  -8  24    6.34  181.05
   5   8 -24   -6.08   97.78
   5   8 -24  -44.75  150.18
  -5  -8  24  -83.27   52.44
  -5  -8  24    6.44  169.29
   6   8 -24    6.05   99.35
   6   8 -24    6.33  137.85
  -6  -8  24   -6.46  190.96
  -6  -8  24  -37.15   56.16
   7   8 -24  111.04  135.31
   7   8 -24    5.83  100.08
  -7  -8  24  -32.92   54.13
  -7  -8  24  108.29  178.00
   8   8 -24    5.88   92.89
   8   8 -24  129.41  134.12
  -8  -8  24   50.89  185.95
  -8  -8  24    4.03   51.06
   9   8 -24   75.44  144.70
   9   8 -24    5.88   95.59
  -9  -8  24 -172.28  189.48
  -9  -8  24   81.88   57.14
   9   7 -24   -6.00  122.58
  -9  -7  24   36.13  167.52
   9   6 -24    5.76  133.00
   9   6 -24   15.96   88.36
  -9  -6  24    3.72   49.17
  -9  -6  24    5.70  156.70
   9   5 -24    5.05   80.87
   9   5 -24    5.60  125.01
  -9  -5  24    5.44  158.78
  -9  -5  24  -17.78   46.22
   9   4 -24   14.35   87.01
   9   4 -24  275.68  125.57
  -9  -4  24  340.81  158.49
   9   3 -24  -22.66   74.42
   9   3 -24   32.68  122.81
  -9  -3  24    5.09  148.92
  -9  -3  24   72.31   43.32
   9   2 -24    4.31   72.38
   9   2 -24 -180.07  129.19
  -9  -2  24   19.03   40.63
  -9  -2  24    4.96  152.73
   9   1 -24   16.26   69.93
   9   1 -24  158.89  134.14
  -9  -1  24   21.54   38.75
  -9  -1  24 -405.67  144.52
   9   0 -24  109.57  126.30
   9   0 -24    3.86   56.20
  -9   0  24   21.00   37.86
  -9   0  24 -188.43  142.86
   9  -1 -24    5.41  130.92
   9  -1 -24   29.12   58.67
  -9   1  24   32.18   36.55
  -9   1  24  160.22  133.94
   2   9 -24    7.23  155.19
   9  -2 -24   -3.41   55.76
  -9   2  24   14.24   35.40
  -2  -9  24   17.10   53.92
  -9   2  24  -26.37  133.84
  -2  -9  24  -97.39  166.00
   3   9 -24   68.09  148.84
  -3  -9  24    6.46  175.41
  -3  -9  24  -38.16   56.50
   4   9 -24   -6.62  144.70
  -4  -9  24  346.65  194.96
  -4  -9  24  -17.52   51.37
   5   9 -24   88.59  108.25
   5   9 -24 -303.11  158.47
  -5  -9  24    4.30   54.81
  -5  -9  24    6.63  183.29
   6   9 -24   -6.77  136.74
   6   9 -24   -6.29  103.06
  -6  -9  24 -449.45  197.65
  -6  -9  24   34.33   54.50
   7   9 -24    6.04   99.32
   7   9 -24  -78.90  148.24
  -7  -9  24   93.16  183.48
  -7  -9  24   -4.29   57.39
   8   9 -24    6.57  138.87
   8   9 -24    6.17   98.57
  -8  -9  24   75.71   53.87
  -8  -9  24  180.26  190.08
   9   9 -24  -20.07  157.52
   9   9 -24    6.16  103.76
  -9  -9  24   38.63   57.55
  -9  -9  24    6.78  206.35
  10   9 -24    6.39  104.11
  10   9 -24   97.49  158.18
 -10  -9  24    6.92  206.39
 -10  -9  24   67.68   60.04
  10   8 -24   -6.10   99.84
  10   8 -24  -52.28  155.64
 -10  -8  24  -85.89   56.19
 -10  -8  24 -426.77  198.63
  10   7 -24    6.16  144.13
  10   7 -24   -5.80   92.25
 -10  -7  24  -40.97   50.59
 -10  -7  24   -6.07  175.77
  10   6 -24    5.93  127.75
  10   6 -24   -5.52   84.46
 -10  -6  24    7.83   48.97
 -10  -6  24    5.73  163.72
  10   5 -24    5.26   87.53
  10   5 -24 -121.53  132.47
 -10  -5  24   22.54   47.70
 -10  -5  24  180.64  161.43
  10   4 -24    5.71  128.56
  10   4 -24   -5.00   85.08
 -10  -4  24   32.61   47.44
 -10  -4  24   89.50  158.20
  10   3 -24   -4.76   76.00
  10   3 -24   51.76  129.42
 -10  -3  24  168.30  155.32
 -10  -3  24   42.23   45.58
  10   2 -24  -35.13  134.80
  10   2 -24    4.54   75.01
 -10  -2  24    4.98  146.48
 -10  -2  24   34.15   39.00
  10   1 -24  239.80  140.56
  10   1 -24    8.63   72.07
 -10  -1  24 -180.33  147.43
 -10  -1  24  -16.60   40.56
  10   0 -24   -6.13  141.35
  10   0 -24 -308.39   75.51
 -10   0  24    4.76  144.18
 -10   0  24  -39.03   43.94
  10  -1 -24  -68.06  142.12
  10  -1 -24   -3.89   62.13
 -10   1  24 -124.88  151.29
 -10   1  24   53.61   42.69
   2  10 -24   -7.72  160.68
 -10   2  24   36.65   39.98
  -2 -10  24   39.97   59.88
   3  10 -24 -108.98  161.08
  -3 -10  24  139.52  172.73
  -3 -10  24  -26.52   59.15
   4  10 -24    7.00  157.09
  -4 -10  24    6.73  192.52
  -4 -10  24  -13.39   57.83
   5  10 -24  113.53  163.59
   5  10 -24   -6.58  104.38
  -5 -10  24    6.80  176.56
  -5 -10  24   62.53   60.29
   6  10 -24 -374.34  153.34
   6  10 -24    6.49  108.22
  -6 -10  24    6.95  194.98
  -6 -10  24  -62.41   56.58
   7  10 -24    6.28  107.85
   7  10 -24  -85.06  167.07
  -7 -10  24    4.42   58.64
  -7 -10  24   -6.97  199.75
   8  10 -24 -148.25  173.98
  -8 -10  24   26.30   59.13
   9  10 -24    6.44  111.06
   9  10 -24    7.19  161.11
  -9 -10  24   13.50   63.90
  -9 -10  24   28.82  201.24
  10  10 -24    7.47  178.10
  10  10 -24    6.69  111.04
 -10 -10  24    9.50   58.97
 -10 -10  24 -534.81  219.62
  11  10 -24  188.29  182.93
 -11 -10  24    7.70  226.04
  11   9 -24   -7.25  164.96
  11   9 -24 -312.59  119.20
 -11  -9  24    7.18  217.15
 -11  -9  24  -53.26   60.30
  11   8 -24   -6.80  164.17
 -11  -8  24  113.73  191.48
  11   7 -24    6.45  150.43
  11   7 -24   12.35  104.39
 -11  -7  24  826.54  213.99
 -11  -7  24   35.27   63.22
  11   6 -24    6.26  138.54
  11   6 -24   -5.89   96.20
 -11  -6  24   38.00   54.09
 -11  -6  24    5.91  170.16
  11   5 -24    6.16  140.91
  11   5 -24   -5.62   94.16
 -11  -5  24    5.62  156.04
 -11  -5  24   52.69   53.53
  11   4 -24   -6.12  142.35
  11   4 -24  -53.71   84.01
 -11  -4  24   46.83   48.50
 -11  -4  24    5.40  146.06
  11   3 -24    6.23  140.39
  11   3 -24 -220.89   85.66
 -11  -3  24   64.26   47.84
 -11  -3  24    5.24  149.54
  11   2 -24   -6.45  148.48
  11   2 -24    4.92   81.10
 -11  -2  24   35.92  153.22
 -11  -2  24  -51.37   47.13
  11   1 -24    4.72   73.72
  11   1 -24    6.75  146.93
 -11  -1  24  201.72  153.62
 -11  -1  24   35.60   45.24
  11   0 -24  -22.58   68.67
  11   0 -24   -7.10  155.85
 -11   0  24   20.94   42.03
 -11   0  24   19.80  147.95
  11  -1 -24    4.27   68.42
  11  -1 -24  214.66  172.60
 -11   1  24   -4.81  139.65
 -11   1  24   61.75   44.81
   2  11 -24   -8.28  184.14
  -2 -11  24   92.94   64.42
   3  11 -24  -77.57  178.54
  -3 -11  24    6.83  190.24
  -3 -11  24  138.82   63.64
   4  11 -24    7.46  165.86
  -4 -11  24   27.85   62.12
  -4 -11  24   -6.89  194.05
   5  11 -24  150.19  176.36
   5  11 -24    6.74  112.30
  -5 -11  24   36.79   59.00
  -5 -11  24   -6.99  199.63
   6  11 -24   68.94  182.00
   6  11 -24    6.61  111.21
  -6 -11  24    7.14  197.80
  -6 -11  24    4.63   57.08
   7  11 -24  316.20  189.28
   8  11 -24    6.66  108.02
   8  11 -24   23.07  167.06
  -8 -11  24    4.56   57.86
  -8 -11  24    7.39  218.74
   9  11 -24   70.48  176.82
   9  11 -24    6.72  109.02
  -9 -11  24 -244.19  223.72
  -9 -11  24   37.64   62.43
  10  11 -24    7.00  111.30
  10  11 -24 -283.38  184.56
 -10 -11  24  174.23  225.37
  12   9 -24  198.43  184.73
  12   8 -24 -231.95  176.95
 -12  -8  24    7.02  211.68
  12   7 -24    6.77   96.04
  12   7 -24    6.97  166.82
 -12  -7  24  -59.15  185.29
 -12  -7  24  -42.06   57.10
  12   6 -24    6.73  164.10
  12   6 -24    6.47  106.98
 -12  -6  24  161.03  183.48
 -12  -6  24  121.12   58.01
  12   5 -24    6.19  109.46
  12   5 -24 -120.09  166.45
 -12  -5  24   73.70   59.18
 -12  -5  24  590.77  184.71
  12   4 -24   81.01  142.74
  12   4 -24    5.93   95.03
 -12  -4  24    5.70  161.14
 -12  -4  24   29.48   48.88
  12   3 -24    5.68   85.10
  12   3 -24   -6.95  150.59
 -12  -3  24   57.38   53.75
 -12  -3  24   44.41  160.49
  12   2 -24    7.33  162.30
  12   2 -24   -5.45   83.09
 -12  -2  24   35.98   50.13
 -12  -2  24   -5.46  153.07
  12   1 -24   39.38  176.95
  12   1 -24  -93.88   78.91
 -12  -1  24   16.15  157.33
  12   0 -24   17.19  195.43
  12   0 -24   14.96   75.45
 -12   0  24    5.30  148.70
  12  -1 -24 -196.54  202.60
 -12   1  24   56.98  163.67
   2  12 -24  -35.94  192.43
  -2 -12  24   84.73   66.53
   3  12 -24   -8.32  188.26
  -3 -12  24  -63.99   64.40
  -3 -12  24   28.00  197.11
   4  12 -24    6.92  118.02
   4  12 -24  678.72  189.88
  -4 -12  24    9.56   61.70
  -4 -12  24  -70.33  200.46
   5  12 -24  103.72  196.51
   5  12 -24    6.89  124.18
  -5 -12  24    9.59   68.44
   6  12 -24    6.76  116.33
   6  12 -24   90.37  195.93
  -6 -12  24 -117.02  206.15
  -6 -12  24   -4.77   64.49
   7  12 -24    6.71  109.14
   7  12 -24 -151.76  193.00
  -7 -12  24  -28.39   62.41
  -7 -12  24    7.55  213.60
   8  12 -24   50.61  189.11
   8  12 -24    6.87  119.88
  -8 -12  24  -14.23   62.45
  -8 -12  24 -170.40  225.85
   9  12 -24    8.57  193.32
  -9 -12  24   73.75   65.13
  -9 -12  24    7.99  228.32
  13   7 -24    7.53  173.15
 -13  -7  24   -6.98  203.95
  13   6 -24    7.37  156.26
  13   6 -24    7.15  106.41
 -13  -6  24   -6.61  181.28
  13   5 -24    6.86  112.06
  13   5 -24  -36.82  167.87
 -13  -5  24   25.27  178.75
  13   4 -24  256.51  169.44
  13   4 -24    6.60  100.11
 -13  -4  24    6.08  169.45
 -13  -3  24 -614.67  176.28
  13   2 -24  708.30  245.55
  13   0 -24  -10.82  341.29
 -13   0  24 1802.12  293.69
  13  -1 -24 -364.25  340.25
  -2 -13  24   48.65   77.18
   3  13 -24    8.97  202.57
  -3 -13  24  -31.05   66.41
  -3 -13  24 -337.87  216.06
   4  13 -24    7.03  115.70
   4  13 -24    8.58  180.28
  -4 -13  24  214.48  206.18
  -4 -13  24   30.11   66.19
   5  13 -24   33.87  200.98
   5  13 -24    7.02  114.44
  -5 -13  24  -69.23   68.24
  -5 -13  24   -7.28  199.94
   6  13 -24    8.77  200.03
   6  13 -24   -6.85  111.06
  -6 -13  24  -34.59   67.26
  -6 -13  24   -7.45  219.84
   7  13 -24  -45.53  207.77
   7  13 -24   13.88  120.50
  -7 -13  24    7.75  214.59
  -7 -13  24 -102.14   65.81
   8  13 -24    7.05  114.01
   8  13 -24   18.68  212.39
  -8 -13  24 -201.33  233.28
  -8 -13  24  -14.77   58.69
  -2 -14  24   35.79   78.95
   3  14 -24    9.68  218.59
  -3 -14  24   99.88   76.20
   4  14 -24    9.26  212.89
   4  14 -24   -7.19  122.50
  -4 -14  24    7.26  200.93
  -4 -14  24   52.47   67.97
   5  14 -24  136.66  211.00
   5  14 -24   -7.07  112.76
  -5 -14  24    5.15   65.24
  -5 -14  24  132.84  216.74
   6  14 -24  263.15  223.09
   6  14 -24    6.90  109.97
  -6 -14  24  -15.16   64.96
  -6 -14  24   -7.59  209.79
   7  14 -24  128.64  239.60
  -7 -14  24   19.97   66.05
  -7 -14  24   -7.90  219.64
  -2 -15  24 -153.89   91.96
   3  15 -24   -7.50  123.24
   3  15 -24   31.61  223.54
  -3 -15  24  -47.07   73.72
   4  15 -24   -7.31  117.29
   4  15 -24  -49.86  228.17
  -4 -15  24  -33.28   76.44
  -4 -15  24  -22.06  203.46
   5  15 -24 -162.46  117.69
   5  15 -24    9.87  223.54
  -5 -15  24  -58.43   68.82
  -5 -15  24    7.44  208.68
   6  15 -24   10.05  228.14
  -6 -15  24   30.74  213.91
  -1   2  25  160.95   63.37
  -2  -1  25  221.92   61.18
   2   2 -25  674.84  136.79
  -2  -2  25   18.76   52.21
  -2   2  25    9.97   46.22
   3   2 -25   47.31  118.13
  -3  -2  25   64.20  149.73
  -3  -2  25  -54.10   45.16
  -2   3  25   -6.91   48.26
   3   1 -25   -5.09   98.18
  -3  -1  25  -24.36   46.68
  -3  -1  25   -5.17  119.86
  -1   3  25  -82.66   49.49
   3  -1 -25 -411.07  116.72
  -3   1  25 -407.60  154.11
   2   3 -25    5.91  124.12
   3  -2 -25 -171.73  108.54
  -2  -3  25 -297.19  162.44
  -3   2  25 -231.34  138.65
  -3   2  25  210.77   45.09
  -2  -3  25   11.79   50.10
   3   3 -25   -5.45  119.84
  -3  -3  25  -14.97   44.42
  -3  -3  25    5.54  146.81
   4   3 -25    5.35  116.79
  -4  -3  25 -180.63  156.36
  -4  -3  25    7.49   47.06
   4   2 -25 -296.92  115.28
  -4  -2  25  112.24   48.66
  -4  -2  25    5.44  152.30
   4   1 -25 -116.72  116.69
  -4  -1  25  499.04  152.89
  -4  -1  25    7.05   45.09
  -4   0  25    3.45   44.16
   4  -2 -25   -4.27   93.56
   2   4 -25    6.09  127.65
  -2  -4  25  -12.27   53.53
  -2  -4  25    5.78  148.18
  -4   2  25   57.08  134.81
   3   4 -25 -346.22  124.67
  -3  -4  25   -3.88   50.38
  -3  -4  25   -5.74  155.36
   4   4 -25   -5.59  118.76
  -4  -4  25    7.77   47.35
  -4  -4  25  111.22  157.68
   5   4 -25   -5.71  133.73
  -5  -4  25    5.99  163.00
  -5  -4  25   30.79   48.73
   5   3 -25   49.38  127.24
  -5  -3  25    7.42   49.84
  -5  -3  25  179.39  168.40
   5   2 -25  205.37  121.71
  -5  -2  25 -100.63  165.42
  -5  -2  25   17.94   46.53
   5   1 -25  -85.56  118.37
  -5  -1  25   17.42   45.75
  -5  -1  25    5.39  150.74
   5   0 -25  813.61  166.67
  -5   0  25  923.50  191.10
  -5   1  25  -29.85   42.27
   2   5 -25    6.33  129.73
  -2  -5  25   -8.39   53.84
  -2  -5  25    5.97  159.63
   3   5 -25 -207.34  127.29
  -3  -5  25   -5.96  158.23
  -3  -5  25   28.13   46.43
   4   5 -25    5.83  129.80
  -4  -5  25   68.39   52.89
  -4  -5  25 -522.35  172.68
   5   5 -25    5.93  138.70
  -5  -5  25   15.95   53.76
  -5  -5  25 -525.74  174.03
   6   5 -25   41.29  137.56
   6   5 -25   -5.31   84.12
  -6  -5  25    6.19  168.56
  -6  -5  25   23.37   57.20
   6   4 -25    4.94   85.73
   6   4 -25    5.69  129.80
  -6  -4  25  153.52   53.53
  -6  -4  25    6.00  178.20
   6   3 -25    4.60   70.34
   6   3 -25  104.59  125.04
  -6  -3  25   58.24  166.48
  -6  -3  25   -7.21   47.44
   6   2 -25    5.32  114.59
   6   2 -25    4.29   74.18
  -6  -2  25  186.34  164.57
  -6  -2  25   -3.48   45.94
   6   1 -25   -5.13  119.31
   6   1 -25   16.18   66.45
  -6  -1  25  -40.51   45.19
  -6  -1  25  -21.84  167.48
   6   0 -25   93.38  114.98
   6   0 -25  -34.24   65.10
  -6   0  25    3.26   42.80
  -6   0  25   36.96  151.44
   6  -1 -25  627.49  153.18
  -6   1  25 1118.16  191.41
   2   6 -25   -6.60  147.90
  -2  -6  25  111.43  172.42
  -2  -6  25    4.29   56.75
  -6   2  25   -3.07   40.28
   3   6 -25   -6.20  130.26
  -3  -6  25   -4.11   53.11
  -3  -6  25   -6.18  160.03
   4   6 -25    6.06  132.18
  -4  -6  25  245.30  175.82
  -4  -6  25   45.54   55.91
   5   6 -25    6.18  146.87
  -5  -6  25    6.39  174.72
  -5  -6  25   33.05   54.86
   6   6 -25  -12.30  130.36
   6   6 -25    5.69   99.63
  -6  -6  25 -409.41  193.30
  -6  -6  25   12.17   53.77
   7   6 -25 -149.72  138.91
   7   6 -25 -211.59   93.52
  -7  -6  25 -576.17  183.15
  -7  -6  25   11.97   54.92
   7   5 -25  -11.56  140.29
   7   5 -25   -5.23   92.95
  -7  -5  25  -64.95   52.31
  -7  -5  25 -417.10  174.05
   7   4 -25   -4.91   78.16
   7   4 -25    5.62  120.64
  -7  -4  25  -21.98   44.77
  -7  -4  25  321.82  176.71
   7   3 -25   -4.60   76.60
   7   3 -25    5.49  127.00
  -7  -3  25   85.30  167.80
  -7  -3  25    7.04   46.34
   7   2 -25    5.36  122.93
   7   2 -25   -4.31   68.58
  -7  -2  25   94.09  164.98
  -7  -2  25  -40.67   46.25
   7   1 -25    5.22  124.63
   7   1 -25    8.04   69.97
  -7  -1  25  -16.36   41.28
  -7  -1  25 -107.60  157.40
   7   0 -25 -141.17  115.26
   7   0 -25   26.57   58.52
  -7   0  25 -192.99  164.14
  -7   0  25    9.41   41.56
   7  -1 -25   19.25  112.68
   7  -1 -25    3.61   61.61
  -7   1  25  -21.11   40.20
  -7   1  25   -5.05  143.85
   7  -2 -25   17.16   55.97
   2   7 -25  -83.18  145.43
  -7   2  25   14.36   37.03
  -2  -7  25 -533.52  176.87
   3   7 -25    6.53  138.86
  -3  -7  25  -76.79  169.75
   4   7 -25    6.34  135.97
  -4  -7  25    6.50  184.18
   5   7 -25    6.46  152.16
  -5  -7  25    6.59  191.51
   6   7 -25   51.61  141.90
  -6  -7  25   -6.63  197.23
   7   7 -25   -6.26  137.17
  -7  -7  25   78.01  181.19
   8   7 -25    5.89   91.47
   8   7 -25    6.22  144.62
  -8  -7  25    6.43  179.41
  -8  -7  25   -4.07   52.71
   8   6 -25   -5.56   88.37
   8   6 -25   -5.98  141.28
  -8  -6  25  -27.27   51.91
  -8  -6  25   67.94  178.41
   8   5 -25    5.81  127.64
   8   5 -25    5.24   88.95
  -8  -5  25   78.26   50.33
  -8  -5  25    5.94  169.24
   8   4 -25   -4.95   83.30
   8   4 -25    5.69  135.88
  -8  -4  25  396.45  176.12
  -8  -4  25   82.01   51.29
   8   3 -25   -4.69   76.10
   8   3 -25 -230.89  129.38
  -8  -3  25   85.47   44.75
  -8  -3  25    5.58  166.38
   8   2 -25  -66.82  138.49
   8   2 -25   -4.45   68.83
  -8  -2  25  -87.03  168.90
  -8  -2  25   78.89   43.36
   8   1 -25 -230.76  129.45
   8   1 -25   29.34   70.89
  -8  -1  25  461.37  163.19
  -8  -1  25   47.50   42.94
   8   0 -25   19.80   64.56
   8   0 -25   37.65  122.87
  -8   0  25   -9.17   39.68
  -8   0  25   -5.16  146.91
   8  -1 -25   36.15  120.88
   8  -1 -25  -11.17   62.01
  -8   1  25   59.99  149.53
  -8   1  25  129.99   41.58
   2   8 -25  -29.26  155.90
  -8   2  25   17.06   38.71
  -8   2  25  -86.54  140.58
  -2  -8  25    4.44   57.85
  -2  -8  25   -6.68  183.69
   3   8 -25    6.89  142.17
  -3  -8  25   30.39   60.37
  -3  -8  25 -324.19  180.28
   4   8 -25   39.98  155.46
  -4  -8  25    4.42   56.96
  -4  -8  25   20.18  195.46
   5   8 -25 -134.96  105.88
   5   8 -25    6.76  144.05
  -5  -8  25    6.78  193.38
  -5  -8  25  -39.15   55.68
   6   8 -25    6.79  151.53
   6   8 -25    6.41  105.50
  -6  -8  25 -171.80  196.44
  -6  -8  25  -17.50   58.90
   7   8 -25    6.20   97.84
   7   8 -25    6.60  151.00
  -7  -8  25    6.79  189.47
  -7  -8  25    4.34   49.14
   8   8 -25  110.93  154.32
   8   8 -25   -6.21  105.77
  -8  -8  25 -141.23  206.39
  -8  -8  25  -38.31   57.31
   9   8 -25 -258.18  158.04
  -9  -8  25   -4.31   54.14
  -9  -8  25    6.77  205.05
   9   7 -25   59.69  101.88
   9   7 -25    6.33  140.83
  -9  -7  25  -32.91   56.66
  -9  -7  25   -6.41  183.81
   9   6 -25    5.66   96.13
   9   6 -25    6.11  135.65
  -9  -6  25   43.20   53.31
  -9  -6  25    6.11  172.56
   9   5 -25   -5.36   86.57
   9   5 -25    5.97  133.62
  -9  -5  25   67.60   49.54
  -9  -5  25    5.86  167.80
   9   4 -25    5.03   86.32
   9   4 -25 -136.05  127.24
  -9  -4  25    5.66  168.15
  -9  -4  25   68.42   47.14
   9   3 -25    5.90  139.49
   9   3 -25    4.76   78.30
  -9  -3  25   48.59   44.17
  -9  -3  25 -191.76  160.87
   9   2 -25    4.50   76.55
   9   2 -25    5.91  131.99
  -9  -2  25   57.01   45.02
  -9  -2  25   -5.34  147.13
   9   1 -25  124.44  135.32
   9   1 -25   38.50   73.12
  -9  -1  25 -261.08  166.12
  -9  -1  25   19.48   41.76
   9   0 -25    4.04   68.33
   9   0 -25  235.94  138.85
  -9   0  25  142.36  150.51
  -9   0  25   15.83   40.79
   9  -1 -25  288.86  142.23
   9  -1 -25  -11.45   59.94
  -9   1  25   58.48   40.14
  -9   1  25 -245.99  144.32
   2   9 -25  108.61  168.57
  -2  -9  25    9.09   59.74
   3   9 -25    7.32  159.67
  -3  -9  25   13.36   61.50
  -3  -9  25 -102.54  191.46
   4   9 -25  -42.17  167.64
  -4  -9  25   36.55   58.78
  -4  -9  25   -6.93  190.28
   5   9 -25   26.83  113.75
   5   9 -25   35.45  163.39
  -5  -9  25    6.99  197.70
  -5  -9  25   -4.49   57.11
   6   9 -25    6.68  107.27
   6   9 -25   -7.15  161.68
  -6  -9  25   -4.49   59.20
  -6  -9  25    7.09  198.88
   7   9 -25    6.43   99.07
   7   9 -25   -7.04  156.40
  -7  -9  25   21.31  204.61
  -7  -9  25   -9.02   56.64
   8   9 -25   34.76  160.32
   8   9 -25    6.54  111.21
  -8  -9  25   17.77   55.78
  -8  -9  25 -622.84  222.11
   9   9 -25   -6.54  112.12
   9   9 -25   -7.05  174.53
  -9  -9  25    7.19  199.49
  -9  -9  25   27.13   61.38
  10   9 -25   -6.74  108.34
  10   9 -25    7.30  164.84
 -10  -9  25   -4.74   61.90
 -10  -9  25    7.34  221.03
  10   8 -25  248.59  176.85
 -10  -8  25    6.88  207.21
  10   7 -25    6.10  110.78
 -10  -7  25  -25.85   60.45
  10   6 -25   31.82  147.87
  10   6 -25   -5.79   99.38
 -10  -6  25  -65.83   56.48
 -10  -6  25    6.11  176.63
  10   5 -25    6.24  146.71
  10   5 -25   -5.50   92.27
 -10  -5  25   11.66  165.10
 -10  -5  25   -7.89   54.47
  10   4 -25   10.46   84.99
  10   4 -25  -12.32  138.63
 -10  -4  25   -7.59   50.00
 -10  -4  25   50.63  163.53
  10   3 -25  -12.40  140.33
  10   3 -25   19.91   80.85
 -10  -3  25   87.22  163.66
 -10  -3  25   62.42   47.79
  10   2 -25   -4.73   77.50
  10   2 -25    6.30  151.12
 -10  -2  25    5.33  152.71
 -10  -2  25   17.91   46.01
  10   1 -25 -154.34  147.98
  10   1 -25    4.50   74.83
 -10  -1  25  161.69  154.58
 -10  -1  25   76.70   44.34
  10   0 -25   -4.27   60.69
  10   0 -25   26.16  151.14
 -10   0  25  -47.52   43.02
 -10   0  25  137.41  153.40
  10  -1 -25    4.06   67.16
  10  -1 -25   32.75  153.11
 -10   1  25   -3.31   44.21
 -10   1  25 -275.58  154.89
   2  10 -25    8.29  178.09
  -2 -10  25  -70.60   58.36
   3  10 -25  108.92  175.12
  -3 -10  25  120.40   63.85
  -3 -10  25   -7.05  203.98
   4  10 -25 -164.36  176.21
  -4 -10  25    7.12  199.12
  -4 -10  25   -4.64   58.11
   5  10 -25    6.97  113.29
   5  10 -25  -82.16  176.91
  -5 -10  25   -4.65   63.33
  -5 -10  25   21.63  196.74
   6  10 -25   -6.90  118.22
   6  10 -25 -287.54  182.44
  -6 -10  25  109.93  203.38
  -6 -10  25  -41.93   60.88
   7  10 -25 -313.19  117.48
   7  10 -25 -166.69  189.24
  -7 -10  25  -74.44   64.17
   8  10 -25    6.84  115.36
   8  10 -25 -119.84  174.18
  -8 -10  25  -23.14   57.64
  -8 -10  25 -148.76  210.46
   9  10 -25   -7.59  175.82
   9  10 -25 -218.52  108.93
  -9 -10  25   45.56  222.82
  -9 -10  25   28.46   59.02
  10  10 -25    7.07  120.32
  10  10 -25 -156.70  188.82
 -10 -10  25    7.83  231.63
 -11  -9  25  197.01  225.31
  11   8 -25  253.77  173.35
 -11  -8  25  120.04  207.10
  11   7 -25    6.88  164.51
  11   7 -25    6.45   95.57
 -11  -7  25  -32.23   53.85
 -11  -7  25    6.60  194.89
  11   6 -25  366.69  173.24
  11   6 -25    6.15  101.54
 -11  -6  25   -4.41   54.51
 -11  -6  25 -256.10  195.76
  11   5 -25    6.58  151.27
  11   5 -25   -5.86   97.47
 -11  -5  25   -4.25   56.35
 -11  -5  25 -136.96  176.02
  11   4 -25  -95.04   92.00
  11   4 -25   32.88  154.25
 -11  -4  25  206.20  162.56
 -11  -4  25   40.98   51.14
  11   3 -25 -187.97  153.54
  11   3 -25    5.34   91.64
 -11  -3  25    5.57  163.43
 -11  -3  25    3.95   47.42
  11   2 -25    6.95  154.00
  11   2 -25   -5.10   78.30
 -11  -2  25  -26.88   47.87
 -11  -2  25   38.16  167.55
  11   1 -25   29.04  165.06
  11   1 -25    4.88   82.50
 -11  -1  25   37.42  160.30
 -11  -1  25  115.70   48.53
  11   0 -25   60.78   78.98
  11   0 -25  -60.62  169.85
 -11   0  25   87.01   48.23
 -11   0  25  209.07  160.42
  11  -1 -25  -17.73   70.43
  11  -1 -25    7.81  177.48
 -11   1  25 -151.92  150.20
 -11   1  25    7.12   42.66
   2  11 -25  178.58  180.28
  -2 -11  25   19.65   63.66
   3  11 -25    8.31  174.65
  -3 -11  25  -72.53   63.51
  -3 -11  25 -152.20  200.72
   4  11 -25  -87.65  183.53
  -4 -11  25   86.86   65.37
  -4 -11  25    7.29  203.36
   5  11 -25    7.87  179.04
   5  11 -25   -7.16  110.50
  -5 -11  25   -9.57   58.88
  -5 -11  25 -666.39  207.49
   6  11 -25    7.03  124.61
   6  11 -25  379.33  196.92
  -6 -11  25    7.54  236.91
  -6 -11  25   82.24   67.73
   7  11 -25    6.90  110.16
   7  11 -25 -114.85  179.44
  -7 -11  25  105.89   62.39
  -7 -11  25 -231.73  227.96
   8  11 -25 -219.90  199.91
   8  11 -25   -7.07  123.19
  -8 -11  25   -4.81   66.37
  -8 -11  25    7.84  226.18
   9  11 -25    8.23  187.16
   9  11 -25   -7.11  113.45
  -9 -11  25  -54.57   62.81
  -9 -11  25   -8.03  230.95
  12   8 -25   15.33  170.31
  12   7 -25   35.12  114.90
  12   7 -25  234.55  166.76
 -12  -7  25    9.79   65.18
 -12  -7  25    6.89  195.65
  12   6 -25    6.71  102.82
  12   6 -25   14.35  157.10
 -12  -6  25  175.74  192.95
 -12  -6  25  -46.84   58.98
  12   5 -25  -35.70  159.30
  12   5 -25    6.42  107.09
 -12  -5  25  266.39  177.25
 -12  -5  25   36.06   59.13
  12   4 -25 -150.67  162.84
  12   4 -25    6.15  106.79
 -12  -4  25 -286.05  175.79
 -12  -4  25    8.73   55.60
  12   3 -25    5.88   92.77
 -12  -3  25   89.48   56.32
  12   2 -25 -266.70  187.36
  12   2 -25    5.62   96.56
 -12  -2  25  -24.94   53.43
  12   1 -25 -312.20   91.85
  12   1 -25 -286.12  204.56
 -12  -1  25 -162.57  173.51
 -12  -1  25   24.35   51.39
  12   0 -25   10.27   82.15
  12   0 -25 -182.12  207.58
 -12   0  25    5.50  168.05
  12  -1 -25   14.65   80.00
  12  -1 -25  293.19  226.05
 -12   1  25 -352.89  156.66
  -2 -12  25   42.09   69.34
   3  12 -25  160.77  216.43
  -3 -12  25   71.96   71.20
   4  12 -25    8.55  202.13
   4  12 -25    7.35  128.19
  -4 -12  25 -124.51   67.33
   5  12 -25    7.31  115.18
   5  12 -25    8.38  193.45
  -5 -12  25   -7.58  219.39
  -5 -12  25  -69.93   65.46
   6  12 -25   -7.17  124.82
   6  12 -25   60.15  187.11
  -6 -12  25    7.71  226.06
  -6 -12  25   39.92   65.84
   7  12 -25    7.14  118.07
   7  12 -25    8.82  203.06
  -7 -12  25    7.97  225.41
  -7 -12  25   29.84   64.21
   8  12 -25   89.50  199.74
  -8 -12  25    4.99   65.42
  -8 -12  25 -344.80  240.40
  13   6 -25    7.81  178.76
 -13  -6  25   20.55  191.58
  13   5 -25 -148.93  173.20
  13   5 -25    7.07  114.75
 -13  -5  25  170.02  188.16
  13   4 -25   -6.79   99.98
  13   4 -25   48.25  175.50
 -13  -4  25   18.96  182.54
  13   3 -25    6.53  104.43
  13   3 -25   -8.43  174.68
 -13  -3  25 -338.98  179.88
  13   2 -25    9.09  205.49
 -13  -2  25   18.22  171.33
  13   1 -25   10.08  227.89
 -13  -1  25    6.00  167.04
  13   0 -25 -353.08  248.32
 -13   0  25  118.35  175.57
 -13   1  25 -115.45  166.90
  -2 -13  25   -5.71   74.34
   3  13 -25   -9.60  215.46
  -3 -13  25   70.41   70.08
   4  13 -25    7.48  128.52
   4  13 -25 -386.27  206.39
  -4 -13  25   60.71  213.08
  -4 -13  25   15.70   68.21
   5  13 -25   -7.47  131.76
   5  13 -25  234.06  208.87
  -5 -13  25   20.65   64.62
  -5 -13  25    7.71  212.24
   6  13 -25    7.29  122.39
   6  13 -25   64.33  216.91
  -6 -13  25    7.90  215.81
  -6 -13  25  -93.22   61.85
   7  13 -25    9.56  213.42
  -7 -13  25   40.95   66.99
  -7 -13  25 -532.23  237.18
   3  14 -25   10.41  219.31
  -3 -14  25  -87.57   78.27
   4  14 -25   -9.89  224.76
   4  14 -25    7.67  128.55
  -4 -14  25    7.73  218.30
  -4 -14  25   71.54   68.88
   5  14 -25   29.16  224.98
   5  14 -25    7.53  115.26
  -5 -14  25   54.71  223.13
  -5 -14  25    5.40   71.96
   6  14 -25 -589.27  221.71
  -6 -14  25    8.05  229.63
   3  15 -25    8.08  124.67
  -3 -15  25  -62.58   78.74
   4  15 -25   10.71  239.36
  -4 -15  25 -525.39  225.78
  -4 -15  25    5.88   61.30
  -2  -1  26   22.85   50.72
  -2   0  26  163.93   58.35
  -2   1  26   -3.55   46.37
   2   2 -26    6.25  132.67
  -2  -2  26   68.24   51.46
   3   2 -26  -90.97  132.41
  -3  -2  26  221.45  159.25
  -3  -2  26   15.25   53.99
   3   1 -26  159.67  123.80
  -3  -1  26  209.37  152.15
  -3  -1  26   99.24   51.85
   3   0 -26    5.35  129.43
  -3   0  26  803.88  159.03
  -3   1  26   63.83   50.47
   2   3 -26   -6.38  130.47
  -2  -3  26   12.67   55.06
   3   3 -26   35.38  122.35
  -3  -3  26  164.43  155.68
  -3  -3  26   55.50   52.61
   4   3 -26   -5.66  124.43
  -4  -3  26    7.89   50.70
  -4  -3  26   -5.98  173.04
   4   2 -26   -5.42  118.34
  -4  -2  26   17.34  164.92
  -4  -2  26   26.71   50.89
   4   1 -26 -218.22  121.57
  -4  -1  26  -22.31   46.58
  -4  -1  26 -128.12  165.16
   4   0 -26  184.34  116.52
  -4   0  26   59.13  160.17
  -4   0  26    3.65   48.61
   4  -1 -26   -4.78   82.36
  -4   1  26  -14.71   48.94
   2   4 -26  -65.75  134.53
  -2  -4  26  -74.48   54.86
   3   4 -26  -91.92  122.45
  -3  -4  26 -352.81  165.21
  -3  -4  26    4.12   49.31
   4   4 -26   -5.91  126.93
  -4  -4  26   40.90   52.71
  -4  -4  26    6.21  161.53
   5   4 -26   97.06  140.04
  -5  -4  26   44.52   56.93
  -5  -4  26    6.30  179.48
   5   3 -26    5.83  129.89
  -5  -3  26    3.91   54.14
  -5  -3  26 -274.17  180.98
   5   2 -26 -178.87  123.63
  -5  -2  26  -26.49   49.12
  -5  -2  26 -352.73  178.64
   5   1 -26 -101.09  124.03
  -5  -1  26  -62.75   48.01
  -5  -1  26 -159.00  164.91
   5   0 -26   43.93   64.42
   5   0 -26    5.05  109.76
  -5   0  26 -290.19  150.48
  -5   0  26  -42.98   48.19
   5  -1 -26   47.54  109.67
   5  -1 -26   10.42   59.04
  -5   1  26  174.55  146.24
  -5   1  26  -28.47   45.19
   5  -2 -26   56.93   54.95
   2   5 -26    6.82  154.02
  -2  -5  26  104.14   56.76
  -5   2  26   46.47   49.52
   3   5 -26  -19.18  136.96
  -3  -5  26 -113.55  171.35
  -3  -5  26    4.24   56.43
   4   5 -26   86.35  134.72
  -4  -5  26    6.43  190.47
  -4  -5  26    4.24   50.36
   5   5 -26    6.30  140.31
  -5  -5  26  351.46  191.21
  -5  -5  26    8.39   55.36
   6   5 -26    6.37  140.94
   6   5 -26    5.54   91.19
  -6  -5  26   12.30   54.86
  -6  -5  26   79.12  201.87
   6   4 -26   -5.13   82.75
   6   4 -26  -18.50  138.99
  -6  -4  26   51.31   53.85
  -6  -4  26   -6.39  183.43
   6   3 -26  -35.86  141.01
   6   3 -26    4.75   86.02
  -6  -3  26  378.46  189.12
  -6  -3  26  163.73   56.26
   6   2 -26   -4.42   71.21
   6   2 -26   11.55  133.19
  -6  -2  26  102.22  174.78
  -6  -2  26   -7.38   47.32
   6   1 -26   -4.16   71.94
   6   1 -26  216.44  129.15
  -6  -1  26  -14.36   47.60
  -6  -1  26 -104.77  162.24
   6   0 -26   -3.92   69.13
   6   0 -26 -269.62  121.70
  -6   0  26   84.35  169.00
  -6   0  26   10.44   45.79
   6  -1 -26    7.43   66.72
   6  -1 -26    9.97  110.07
  -6   1  26   48.63  153.70
  -6   1  26   44.54   44.64
   2   6 -26    7.11  149.03
  -6   2  26   20.04   45.75
  -2  -6  26  116.00   62.26
  -6   2  26  -46.88  149.79
   3   6 -26   66.98  149.57
  -3  -6  26   61.03   57.74
  -3  -6  26    6.54  174.14
   4   6 -26   32.23  127.96
  -4  -6  26   33.30  191.61
  -4  -6  26   26.14   56.86
   5   6 -26  222.21  148.75
  -5  -6  26  747.31  200.92
  -5  -6  26   47.67   58.62
   6   6 -26   -6.60  151.30
   6   6 -26    5.95  103.01
  -6  -6  26  -34.03  195.29
  -6  -6  26  -12.78   54.77
   7   6 -26    6.44  152.67
   7   6 -26    5.86   98.59
  -7  -6  26    4.21   57.33
  -7  -6  26 -401.67  196.26
   7   5 -26   -6.22  142.16
   7   5 -26    5.49   89.36
  -7  -5  26   32.32  188.54
  -7  -5  26   64.58   55.18
   7   4 -26   36.34  140.30
   7   4 -26    5.13   87.85
  -7  -4  26   -3.88   52.60
  -7  -4  26   -6.26  179.62
   7   3 -26   -5.92  134.33
   7   3 -26    4.79   79.28
  -7  -3  26   73.11  180.77
  -7  -3  26  -11.19   51.06
   7   2 -26   -4.48   75.52
   7   2 -26   34.71  131.69
  -7  -2  26   29.65  178.82
  -7  -2  26   14.41   47.24
   7   1 -26  292.30  131.98
   7   1 -26   -4.21   71.65
  -7  -1  26  339.64  163.98
  -7  -1  26  111.72   50.19
   7   0 -26 -108.19  125.14
   7   0 -26   86.77   70.28
  -7   0  26  273.42  172.95
  -7   0  26   26.92   43.50
   7  -1 -26   15.03   61.69
   7  -1 -26   -5.15  119.46
  -7   1  26  140.35  165.57
  -7   1  26  100.81   45.27
   2   7 -26    7.46  162.28
  -7   2  26  -37.38   40.29
   3   7 -26    7.03  149.22
  -3  -7  26   -6.78  186.44
   4   7 -26    6.76  155.98
  -4  -7  26  131.00  199.58
   5   7 -26    6.81  156.66
  -5  -7  26   97.27  200.15
   6   7 -26   96.02  151.39
   6   7 -26    6.37  112.24
  -6  -7  26    7.01  202.47
  -6  -7  26   -4.42   59.42
   7   7 -26   -6.73  138.33
   7   7 -26    6.23  102.45
  -7  -7  26    6.95  195.60
  -7  -7  26   -4.38   59.88
   8   7 -26    6.21   98.26
   8   7 -26  -26.49  142.62
  -8  -7  26   60.49   55.63
  -8  -7  26   -6.82  195.60
   8   6 -26  116.84  108.34
   8   6 -26  -57.37  147.70
  -8  -6  26  136.47   58.34
  -8  -6  26   26.19  185.35
   8   5 -26  115.41   95.11
   8   5 -26 -118.30  138.47
  -8  -5  26    6.33  182.04
  -8  -5  26   31.67   50.93
   8   4 -26   -5.18   86.02
   8   4 -26   -6.11  144.89
  -8  -4  26  124.76   50.44
  -8  -4  26 -380.90  183.75
   8   3 -26    4.88   79.46
   8   3 -26   12.07  142.16
  -8  -3  26  -96.03  175.35
  -8  -3  26  -68.98   51.53
   8   2 -26    4.63   74.40
   8   2 -26   11.93  147.19
  -8  -2  26  171.33   49.18
  -8  -2  26 -275.15  175.15
   8   1 -26  111.60  136.39
   8   1 -26    4.39   70.69
  -8  -1  26    3.38   44.77
  -8  -1  26   -5.70  173.22
   8   0 -26  223.27  137.49
   8   0 -26   16.58   75.38
  -8   0  26  459.61  175.22
  -8   0  26  101.22   47.48
   8  -1 -26  697.71  141.62
   8  -1 -26  124.98   65.43
  -8   1  26    5.33  150.33
  -8   1  26  -44.24   45.44
   2   8 -26  -94.49  158.52
  -2  -8  26  100.18   65.35
   3   8 -26    7.42  165.53
  -3  -8  26   18.37   60.96
  -3  -8  26   -7.02  191.56
   4   8 -26    7.12  161.97
  -4  -8  26  184.85  202.33
  -4  -8  26  157.57   64.91
   5   8 -26  -35.55  157.26
   5   8 -26   -6.78  115.45
  -5  -8  26   36.37   57.63
  -5  -8  26    7.19  190.60
   6   8 -26    6.77  109.65
   6   8 -26   -7.16  161.54
  -6  -8  26    7.25  208.47
  -6  -8  26   68.74   55.95
   7   8 -26    7.09  165.39
  -7  -8  26   -4.56   56.67
  -7  -8  26   -7.23  211.55
   8   8 -26  -48.74  161.52
  -8  -8  26 -578.82  218.23
   9   8 -26  -84.38  169.38
  -9  -8  26 -416.82  210.82
   9   7 -26 -254.87  163.34
   9   7 -26 -340.64  114.05
  -9  -7  26  -39.04   59.36
  -9  -7  26 -614.06  212.08
   9   6 -26   -6.48  139.19
   9   6 -26  -11.93  103.24
  -9  -6  26    6.51  187.53
  -9  -6  26   37.29   52.87
   9   5 -26   19.08  135.70
   9   5 -26  -50.69   99.78
  -9  -5  26    6.25  180.59
  -9  -5  26    3.97   49.98
   9   4 -26    5.32   88.40
   9   4 -26    6.30  148.15
  -9  -4  26 -363.91  173.39
  -9  -4  26   19.03   49.55
   9   3 -26    6.29  145.20
   9   3 -26   -4.99   81.97
  -9  -3  26  146.57   50.13
  -9  -3  26  183.08  169.78
   9   2 -26   37.70   77.80
   9   2 -26    6.31  148.08
  -9  -2  26   14.19   47.70
  -9  -2  26  201.79  166.52
   9   1 -26  -50.49  139.02
   9   1 -26   -4.46   72.77
  -9  -1  26 -433.47  163.51
  -9  -1  26  116.99   44.92
   9   0 -26   -6.25  140.90
   9   0 -26  101.19   72.85
  -9   0  26 -366.73  165.26
  -9   0  26    6.69   42.53
   9  -1 -26 -303.75  144.95
   9  -1 -26  -35.93   62.78
  -9   1  26   75.04   41.90
  -9   1  26  237.86  163.72
   2   9 -26  -25.12  163.23
  -2  -9  26   19.49   63.88
   3   9 -26  -47.10  167.32
  -3  -9  26   84.64   61.03
  -3  -9  26    7.26  195.07
   4   9 -26   -7.52  164.28
  -4  -9  26 -263.82  202.16
  -4  -9  26   43.01   63.82
   5   9 -26 -170.26  122.12
   5   9 -26  119.44  166.98
  -5  -9  26   37.47   62.65
  -5  -9  26  200.11  206.09
   6   9 -26    7.09  112.68
   6   9 -26    7.54  164.06
  -6  -9  26  -51.62   59.86
  -6  -9  26    7.49  206.43
   7   9 -26    7.55  177.37
   7   9 -26    6.87  110.92
  -7  -9  26   -4.73   63.62
  -7  -9  26 -836.50  241.04
   8   9 -26   -6.91  118.64
   8   9 -26   73.97  167.62
  -8  -9  26  -74.88   63.35
  -8  -9  26 -195.14  227.66
   9   9 -26    6.93  111.08
   9   9 -26  -14.87  166.77
  -9  -9  26 -446.50  224.04
  -9  -9  26   -4.76   61.59
  10   9 -26   -7.66  172.90
 -10  -9  26  -44.91   62.32
 -10  -9  26 -209.37  226.20
  10   8 -26    7.26  174.43
 -10  -8  26   -7.29  205.78
  10   7 -26    6.95  158.95
  10   7 -26    6.42   96.26
 -10  -7  26 -178.67  192.72
 -10  -7  26   27.18   54.26
  10   6 -26  297.26  182.24
  10   6 -26   12.17  121.02
 -10  -6  26    4.33   70.24
 -10  -6  26 1162.55  221.23
  10   5 -26   -5.77   92.48
  10   5 -26   93.45  153.99
 -10  -5  26    6.26  177.03
 -10  -5  26   99.53   59.52
  10   4 -26   -5.46   92.96
  10   4 -26  -59.94  146.55
 -10  -4  26  192.64  176.22
 -10  -4  26   51.84   57.16
  10   3 -26  -94.06  142.71
  10   3 -26    5.20   86.63
 -10  -3  26   30.84   51.34
 -10  -3  26 -322.13  176.65
  10   2 -26    4.94   81.00
  10   2 -26  -13.66  157.77
 -10  -2  26   17.17  168.48
 -10  -2  26  -18.77   45.85
  10   1 -26   -4.70   73.24
  10   1 -26    6.96  154.96
 -10  -1  26   16.77  155.36
 -10  -1  26  -25.70   46.65
  10   0 -26   13.37   69.39
  10   0 -26 -161.85  166.15
 -10   0  26  117.91   49.32
 -10   0  26    5.45  159.85
  10  -1 -26  -34.90  158.33
  10  -1 -26    4.23   70.64
 -10   1  26 -352.46  151.32
 -10   1  26  -27.93   43.25
  -2 -10  26   25.15   62.68
   3  10 -26    8.34  184.55
  -3 -10  26 -149.79  206.54
  -3 -10  26    4.87   64.98
   4  10 -26 -167.89  189.44
  -4 -10  26  101.92   63.69
  -4 -10  26  241.16  220.91
   5  10 -26   -7.84  166.15
   5  10 -26    7.38  125.82
  -5 -10  26   -7.64  212.55
  -5 -10  26   91.98   62.76
   6  10 -26  335.30  211.21
   7  10 -26    7.08  120.91
   7  10 -26   -8.06  182.93
  -7 -10  26  172.85  231.76
  -7 -10  26   39.27   63.34
   8  10 -26   -7.97  179.51
   8  10 -26    7.24  122.31
  -8 -10  26    7.92  229.95
  -8 -10  26  -19.48   65.81
   9  10 -26 -119.98  188.28
  -9 -10  26  -44.86   67.32
  -9 -10  26    8.01  233.83
  11   8 -26   -7.67  184.23
 -11  -8  26   -7.47  230.20
  11   7 -26   -6.77  113.45
  11   7 -26    7.36  171.82
 -11  -7  26  553.38  213.14
 -11  -7  26   38.67   64.01
  11   6 -26    6.42  106.92
  11   6 -26  250.61  167.71
 -11  -6  26   23.11   57.63
 -11  -6  26    6.63  194.07
  11   5 -26 -311.29  103.39
  11   5 -26   -7.04  165.99
 -11  -5  26    6.33  170.13
 -11  -5  26    8.87   58.83
  11   4 -26    5.82  115.19
  11   4 -26  551.97  165.55
 -11  -4  26  652.27  204.69
 -11  -4  26   -4.28   61.76
  11   3 -26   -7.23  169.99
  11   3 -26   -5.55   87.21
 -11  -3  26  -20.80   56.99
  11   2 -26   22.41  167.75
  11   2 -26   -5.30   86.67
 -11  -2  26    5.82  163.34
 -11  -2  26   24.17   49.80
  11   1 -26 -131.42   79.30
  11   1 -26    7.77  173.51
 -11  -1  26 -182.40  166.88
 -11  -1  26  -15.67   49.95
  11   0 -26 -242.01  183.61
  11   0 -26  -72.46   79.99
 -11   0  26  -79.92   48.09
 -11   0  26  116.77  166.36
  11  -1 -26    4.61   75.46
  11  -1 -26    8.21  188.25
 -11   1  26   33.33   46.61
 -11   1  26   64.37  171.14
  -2 -11  26  -47.04   68.87
   3  11 -26 -589.80  196.44
  -3 -11  26 -386.71  235.24
  -3 -11  26   20.30   67.67
   4  11 -26  537.91  223.15
   5  11 -26  -24.98  196.64
   5  11 -26    7.59  130.31
  -5 -11  26   89.48   68.23
  -5 -11  26   -7.85  217.18
   6  11 -26    8.46  181.86
   6  11 -26   -7.50  120.87
  -6 -11  26  111.23  225.40
  -6 -11  26  -75.57   63.88
   7  11 -26  -34.40  185.12
   7  11 -26    7.31  121.18
  -7 -11  26  -60.53   65.59
  -7 -11  26   56.98  230.78
   8  11 -26    8.67  185.24
  -8 -11  26  -20.22   63.03
  -8 -11  26    8.32  240.50
  12   6 -26    7.64  191.20
  12   6 -26    6.96  114.63
 -12  -6  26   39.42   63.17
 -12  -6  26   -6.87  202.13
  12   5 -26    6.65  108.57
  12   5 -26    7.58  176.04
 -12  -5  26    6.54  192.84
 -12  -5  26   -9.45   58.61
  12   4 -26   -7.72  168.71
  12   4 -26   -6.37  100.00
 -12  -4  26   86.55   61.33
 -12  -4  26  -18.93  185.67
  12   3 -26  -12.20   98.29
  12   3 -26  -48.09  187.11
 -12  -3  26   -6.14  180.16
 -12  -3  26  -92.98   57.59
  12   2 -26   -8.47  185.01
  12   2 -26    5.83   95.13
 -12  -2  26    4.33   54.01
 -12  -2  26  126.49  178.95
  12   1 -26 -905.63  236.55
  12   1 -26 -377.94  103.39
 -12  -1  26 -514.92  185.10
 -12  -1  26    4.23   56.91
  12   0 -26 -301.04  241.27
  12   0 -26    5.29   75.54
 -12   0  26 -416.67  176.56
   3  12 -26   86.15  215.58
  -3 -12  26  -80.81   69.60
   4  12 -26   -7.82  132.40
   4  12 -26  -18.33  188.13
  -4 -12  26 -165.97  211.79
  -4 -12  26   41.48   64.97
   5  12 -26    7.75  129.26
   5  12 -26  -89.16  191.87
  -5 -12  26  -56.16  226.14
  -5 -12  26   10.39   65.61
   6  12 -26   -9.01  197.41
   6  12 -26    7.62  123.53
  -6 -12  26   41.61   67.61
  -6 -12  26 -196.40  236.03
   7  12 -26    9.27  193.51
  -7 -12  26   -8.41  231.17
  -7 -12  26   -5.21   67.59
  13   5 -26   -8.41  192.16
 -13  -5  26    6.86  191.80
  13   4 -26    7.00  114.38
  13   4 -26 -591.19  207.34
 -13  -4  26 -283.97  189.05
  13   3 -26    6.72  110.40
  13   3 -26  271.15  212.58
 -13  -3  26   -6.44  184.83
  13   2 -26    9.78  210.81
  13   2 -26   -6.45  100.01
 -13  -2  26   50.61  189.45
  13   1 -26   97.19  254.62
 -13  -1  26    6.25  182.58
  13   0 -26 -691.13  273.38
 -13   0  26  116.57  180.90
   3  13 -26   20.65  222.37
  -3 -13  26   73.84   76.52
   4  13 -26   63.83  137.46
   4  13 -26  -68.83  216.46
  -4 -13  26  -10.92   71.27
  -4 -13  26 -145.28  230.49
   5  13 -26  -57.68  212.21
   5  13 -26   -7.93  133.39
  -5 -13  26  -43.04   69.26
  -5 -13  26    8.17  237.82
   6  13 -26 -115.36  229.81
  -6 -13  26    8.37  238.46
  -3 -14  26  -98.41   77.13
   4  14 -26   10.62  239.93
  -4 -14  26 -156.19  225.34
  -2  -1  27  243.84   66.81
  -2   0  27  -53.90   50.78
  -2   1  27   78.79   56.01
  -2   2  27  -64.31   49.49
  -2  -2  27   77.44   57.29
   3   2 -27  141.03  138.96
  -3  -2  27  112.94   55.99
  -3  -2  27   18.11  167.32
   3   1 -27   11.91  122.95
  -3  -1  27  -11.66   51.64
  -3  -1  27   35.26  166.43
   3   0 -27  144.89  132.70
  -3   0  27  169.52   58.68
  -3   0  27  236.02  165.43
   3  -1 -27    5.67  120.69
  -3   1  27   75.22   46.36
  -2  -3  27  162.78   62.76
  -3   2  27   35.01   56.11
   3   3 -27  -50.82  139.46
  -3  -3  27    4.21   53.34
  -3  -3  27   87.49  175.70
   4   3 -27 -425.32  132.37
  -4  -3  27   -8.32   51.67
  -4  -3  27 -215.04  180.46
   4   2 -27   11.65  126.72
  -4  -2  27   -8.04   52.41
  -4  -2  27  183.04  173.16
   4   1 -27 -178.99  127.84
  -4  -1  27 -158.94  165.61
  -4  -1  27   74.53   51.23
   4   0 -27  102.07  124.49
  -4   0  27  170.76  172.00
  -4   0  27   77.23   55.34
   4  -1 -27   51.77  111.88
  -4   1  27  132.44  151.40
  -4   1  27  -31.29   49.64
   2   4 -27   -7.14  144.95
  -2  -4  27  -99.68   61.44
  -4   2  27  -16.20   51.70
   3   4 -27    6.60  140.18
  -3  -4  27   26.12   56.06
  -3  -4  27 -213.35  184.45
   4   4 -27  -95.00  147.18
  -4  -4  27 -223.06  190.20
  -4  -4  27  -56.06   58.25
   5   4 -27 -441.91  150.71
  -5  -4  27 -560.67  195.56
  -5  -4  27   93.59   61.04
   5   3 -27    6.15  144.72
  -5  -3  27  176.80   65.59
  -5  -3  27  438.58  194.08
   5   2 -27    5.89  130.67
  -5  -2  27   18.69  184.18
  -5  -2  27   31.88   52.08
   5   1 -27 -325.68  133.85
  -5  -1  27   -7.80   51.18
  -5  -1  27 -252.29  180.16
   5   0 -27    5.32  116.71
   5   0 -27    3.70   63.69
  -5   0  27  -53.23   54.18
  -5   0  27 -347.99  168.21
   5  -1 -27  -70.34   58.90
   5  -1 -27  -14.99  114.21
  -5   1  27   -5.60  158.93
  -5   1  27  -15.23   49.48
   2   5 -27   -7.39  144.86
  -2  -5  27   73.85   61.50
  -5   2  27   15.49   50.84
   3   5 -27    6.89  145.55
  -3  -5  27  176.11   66.52
  -3  -5  27    6.70  178.29
   4   5 -27  -19.84  148.49
  -4  -5  27   -6.80  184.15
  -4  -5  27  -44.73   58.44
   5   5 -27 -398.82  147.33
  -5  -5  27   -4.41   56.67
  -5  -5  27    6.89  201.35
   6   5 -27    5.74  100.23
   6   5 -27    6.76  144.00
  -6  -5  27  132.41  204.22
  -6  -5  27    8.62   53.76
   6   4 -27  130.94  154.09
   6   4 -27  -31.76   88.26
  -6  -4  27   29.08   56.73
  -6  -4  27    6.76  182.66
   6   3 -27  120.46  150.44
   6   3 -27    4.88   81.44
  -6  -3  27  826.27  206.77
  -6  -3  27  -48.15   55.31
   6   2 -27  -67.35  144.45
  -6  -2  27    6.36  186.07
  -6  -2  27   85.71   53.11
   6   1 -27    5.87  141.80
   6   1 -27  -76.18   71.48
  -6  -1  27 -190.39  175.80
  -6  -1  27  121.93   53.59
   6   0 -27    5.58  128.35
   6   0 -27   12.05   72.39
  -6   0  27    7.43   49.46
  -6   0  27 -408.55  168.60
   6  -1 -27  -53.36   67.63
   6  -1 -27 -146.98  122.00
  -6   1  27 -182.31  177.06
  -6   1  27   36.86   47.78
   2   6 -27 -238.73  168.75
  -2  -6  27   25.21   65.46
   3   6 -27   -7.20  166.51
  -3  -6  27    4.65   61.90
  -3  -6  27    6.95  184.44
   4   6 -27   41.51  161.02
  -4  -6  27    7.04  203.31
  -4  -6  27   78.13   58.33
   5   6 -27    6.91  150.82
  -5  -6  27   -7.13  201.98
  -5  -6  27   31.84   60.26
   6   6 -27   -6.99  157.87
   6   6 -27   37.27  107.23
  -6  -6  27   71.55   61.06
  -6  -6  27    7.18  200.74
   7   6 -27    6.15   90.77
   7   6 -27   -6.96  157.43
  -7  -6  27    7.13  204.61
  -7  -6  27  -35.41   61.96
   7   5 -27    5.73   93.50
   7   5 -27    6.74  151.16
  -7  -5  27   17.02   59.01
  -7  -5  27    6.91  207.76
   7   4 -27   -5.33   91.66
   7   4 -27  -52.47  139.71
  -7  -4  27   28.64   54.96
  -7  -4  27    6.72  196.34
   7   3 -27   12.81  152.36
   7   3 -27 -193.49   84.87
  -7  -3  27   52.33  198.19
  -7  -3  27  102.56   52.91
   7   2 -27    4.64   74.66
   7   2 -27   -6.25  138.18
  -7  -2  27   38.17  181.95
  -7  -2  27   34.38   50.46
   7   1 -27    8.71   70.16
   7   1 -27   12.13  137.88
  -7  -1  27 -160.37  178.20
  -7  -1  27   26.03   47.87
   7   0 -27  262.39  144.67
   7   0 -27    4.08   65.28
  -7   0  27  185.23   54.01
  -7   0  27 -328.21  177.77
   7  -1 -27  -42.74   61.33
   7  -1 -27 -271.88  133.44
  -7   1  27  -17.55   44.98
  -7   1  27 -195.65  169.69
   2   7 -27    8.08  174.53
   3   7 -27   -7.56  169.44
  -3  -7  27  547.77  199.39
   4   7 -27   -7.25  155.03
  -4  -7  27    7.28  194.75
  -4  -7  27   -4.74   62.41
   5   7 -27 -222.87  150.00
   5   7 -27   -6.69  109.42
  -5  -7  27   51.62   63.03
  -5  -7  27    7.36  209.52
   6   7 -27  174.19  171.11
   6   7 -27    6.68  117.28
  -6  -7  27  -46.37   63.39
  -6  -7  27    7.41  192.61
   7   7 -27    7.26  158.30
   7   7 -27    6.56  112.63
  -7  -7  27   92.06   65.53
  -7  -7  27   22.16  218.40
   8   7 -27 -141.82  179.74
  -8  -7  27 -414.06  225.85
  -8  -7  27   13.67   62.46
   8   6 -27    6.85  146.48
   8   6 -27    6.12  106.74
  -8  -6  27    8.73   62.21
  -8  -6  27    6.97  203.20
   8   5 -27   -6.68  141.22
   8   5 -27 -281.39  100.01
  -8  -5  27  121.36   55.24
  -8  -5  27    6.75  194.01
   8   4 -27   98.35  141.47
   8   4 -27    5.38   92.84
  -8  -4  27   -4.02   54.23
  -8  -4  27   -6.56  190.04
   8   3 -27   -6.48  150.46
   8   3 -27   -5.07   85.74
  -8  -3  27   12.78  181.15
  -8  -3  27   46.20   48.10
   8   2 -27   -4.80   79.49
   8   2 -27  -19.19  142.30
  -8  -2  27   11.15   51.16
  -8  -2  27 -268.16  178.34
   8   1 -27 -314.20  153.55
   8   1 -27   -4.55   75.80
  -8  -1  27   82.83   45.44
  -8  -1  27    6.07  175.34
   8   0 -27   30.53  140.18
   8   0 -27   12.94   69.89
  -8   0  27   13.98   44.48
  -8   0  27 -123.62  174.57
   8  -1 -27  -44.92   60.85
   8  -1 -27   29.16  134.57
  -8   1  27  -73.79  164.44
  -8   1  27   81.36   45.69
   3   8 -27 -111.48  185.26
  -3  -8  27   14.91  206.15
  -3  -8  27 -102.64   64.17
   4   8 -27  -68.76  163.33
  -4  -8  27    7.52  215.12
  -4  -8  27   -9.75   63.98
   5   8 -27   14.95  163.92
  -5  -8  27   80.98   60.95
  -5  -8  27    7.60  213.44
   6   8 -27   37.90  163.59
  -6  -8  27    7.64  216.16
   7   8 -27    7.60  173.83
   8   8 -27  -89.33  171.25
  -8  -8  27 -121.75  216.90
   9   8 -27  104.34  166.58
  -9  -8  27   75.74  232.78
   9   7 -27    6.66  116.09
   9   7 -27  348.87  159.51
  -9  -7  27   28.87  211.32
  -9  -7  27  -59.42   61.95
   9   6 -27   -6.93  176.33
   9   6 -27   -6.28  110.36
  -9  -6  27   56.81   62.70
  -9  -6  27 1006.45  238.09
   9   5 -27    5.91   97.23
   9   5 -27   13.60  159.54
  -9  -5  27    8.37   53.19
  -9  -5  27    6.70  200.21
   9   4 -27   -6.74  152.41
   9   4 -27    5.56  100.64
  -9  -4  27  -19.50  193.99
  -9  -4  27  208.94   58.93
   9   3 -27    5.24   84.14
   9   3 -27   53.87  163.09
  -9  -3  27    6.33  179.04
  -9  -3  27    3.88   47.15
   9   2 -27  -47.21  155.96
   9   2 -27    4.92   82.62
  -9  -2  27   90.06   49.69
  -9  -2  27    6.19  172.07
   9   1 -27   -4.65   73.09
   9   1 -27   13.46  149.24
  -9  -1  27  -14.61   44.83
  -9  -1  27   24.15  181.24
   9   0 -27 -471.08  156.80
   9   0 -27 -194.51   77.22
  -9   0  27   46.91  171.89
  -9   0  27   81.72   46.95
   9  -1 -27  -54.26   67.82
   9  -1 -27 -128.26  153.58
  -9   1  27 -135.36  166.35
  -9   1  27   10.41   45.29
   3   9 -27 -177.53  186.02
  -3  -9  27    7.73  203.13
  -3  -9  27   79.84   65.99
   4   9 -27    8.07  189.73
  -4  -9  27    7.75  218.10
  -4  -9  27  185.55   74.28
   5   9 -27 -314.25  170.38
   5   9 -27    7.50  121.94
  -5  -9  27  -39.11   66.98
  -5  -9  27    7.85  212.56
   6   9 -27    7.49  136.13
   6   9 -27  373.00  189.99
  -6  -9  27  137.18   76.08
  -6  -9  27  716.53  255.62
   7   9 -27   63.98  175.16
   7   9 -27   -7.28  120.26
  -7  -9  27  -59.48   62.63
  -7  -9  27  246.66  218.82
   8   9 -27    7.30  124.58
   8   9 -27    7.91  177.48
  -8  -9  27   73.78   67.31
  -8  -9  27    8.00  235.53
   9   9 -27    7.90  183.06
  -9  -9  27    8.02  232.46
  -9  -9  27    5.01   64.11
  10   8 -27    7.67  179.26
 -10  -8  27    7.72  231.53
  10   7 -27 -114.89  113.93
  10   7 -27   44.09  176.06
 -10  -7  27    4.75   63.16
 -10  -7  27 -576.25  213.67
  10   6 -27   -6.39  101.39
  10   6 -27    7.18  162.54
 -10  -6  27   63.53   57.97
 -10  -6  27   -6.96  200.61
  10   5 -27    7.10  179.88
  10   5 -27   -6.04  104.73
 -10  -5  27 -387.60  201.83
 -10  -5  27   69.82   58.47
  10   4 -27   -5.71  103.81
  10   4 -27   -7.11  175.80
 -10  -4  27  142.70   62.57
  10   3 -27 -194.12  154.17
  10   3 -27    5.41   87.26
 -10  -3  27  109.56   56.77
 -10  -3  27 -567.85  189.75
  10   2 -27    5.15   85.74
  10   2 -27    7.31  166.20
 -10  -2  27    6.17  175.02
 -10  -2  27   -3.95   49.87
  10   1 -27  267.55  182.52
  10   1 -27    4.89   80.71
 -10  -1  27    6.03  171.83
 -10  -1  27   38.58   49.24
  10   0 -27    4.65   74.75
  10   0 -27    7.47  168.39
 -10   0  27  216.63  177.68
 -10   0  27   75.55   49.33
 -10   1  27  -25.70   46.04
 -10   1  27    5.63  166.73
   3  10 -27    8.99  178.32
  -3 -10  27  -87.62   68.88
  -3 -10  27  120.01  220.97
   4  10 -27  214.35  202.88
  -4 -10  27  101.48   69.58
  -4 -10  27   87.72  232.29
   5  10 -27   -7.82  130.74
   5  10 -27   -8.32  186.79
  -5 -10  27   55.49   69.55
  -5 -10  27 -630.74  251.16
   6  10 -27   -8.37  190.39
   6  10 -27    7.77  141.46
  -6 -10  27   15.20   63.00
  -6 -10  27   32.62  230.46
   7  10 -27   16.92  192.61
   7  10 -27    7.51  131.42
  -7 -10  27    8.27  225.46
  -7 -10  27  -41.08   65.90
   8  10 -27 -229.81  126.16
   8  10 -27    8.52  194.91
  -8 -10  27    8.39  246.17
  -8 -10  27  -20.44   66.19
  11   7 -27  171.18  177.31
 -11  -7  27    7.46  212.86
  11   6 -27    7.64  177.73
  11   6 -27    6.73  112.44
 -11  -6  27  -63.18   60.69
 -11  -6  27   63.61  204.71
  11   5 -27   89.35  106.76
  11   5 -27    7.59  174.66
 -11  -5  27   13.49  197.24
 -11  -5  27   27.96   60.44
  11   4 -27   15.32  164.48
  11   4 -27   90.84  101.47
 -11  -4  27   62.85   57.52
 -11  -4  27 -638.50  194.54
  11   3 -27    5.77   90.79
  11   3 -27   -7.84  168.45
 -11  -3  27  196.88  189.37
 -11  -3  27   -4.35   54.34
  11   2 -27 -640.69  188.45
  11   2 -27 -192.77   98.61
 -11  -2  27 -310.86  187.99
 -11  -2  27    4.24   54.44
  11   1 -27    5.25   91.68
  11   1 -27 1019.95  220.93
   3  11 -27   47.95  201.80
  -3 -11  27  -91.04   70.41
   4  11 -27   82.57  206.76
  -4 -11  27   10.50   69.09
  -4 -11  27    8.20  233.53
   5  11 -27    8.05  138.31
   5  11 -27 -150.81  206.20
  -5 -11  27  -87.94   67.56
  -5 -11  27    8.30  225.09
   6  11 -27    8.89  192.68
   6  11 -27   -7.97  122.20
  -6 -11  27   41.98   63.59
  -6 -11  27  117.76  239.25
   7  11 -27    9.05  199.49
  -7 -11  27 -334.52  244.86
  -7 -11  27    5.27   51.07
  12   5 -27    8.16  178.32
  12   5 -27    6.91  113.44
 -12  -5  27  256.48  196.80
  12   4 -27 -490.44  206.53
  12   4 -27    6.59  110.89
 -12  -4  27  -43.07   61.04
 -12  -4  27   60.31  196.12
  12   3 -27   25.89  203.12
  12   3 -27    6.31  102.60
 -12  -3  27   32.70  184.33
 -12  -3  27  152.68   59.44
  12   2 -27    6.05   95.86
  12   2 -27  109.38  214.54
 -12  -2  27   -6.41  188.37
 -12  -2  27   -4.52   56.92
  12   1 -27    5.77   93.79
  12   1 -27    9.72  220.15
 -12  -1  27   66.37   56.35
 -12  -1  27 -232.66  179.64
  12   0 -27   -5.49   87.47
  12   0 -27   10.35  232.66
 -12   0  27   12.94   50.00
 -12   0  27    6.13  172.96
   3  12 -27  -10.31  223.46
  -3 -12  27 -124.84   75.30
   4  12 -27   49.02  227.65
   4  12 -27 -158.31  136.24
  -4 -12  27  193.32  231.03
  -4 -12  27  -59.51   72.13
   5  12 -27    9.53  204.76
   5  12 -27    8.22  138.35
  -5 -12  27   -8.49  234.22
  -5 -12  27   -5.40   68.39
   6  12 -27   -9.44  205.73
  -6 -12  27 -485.40  251.09
  13   4 -27 -147.90  202.59
  13   3 -27    9.78  207.53
  13   3 -27   69.39  109.07
 -13  -3  27  109.08  204.98
  13   2 -27 -381.28  250.79
  13   2 -27   13.31  106.88
 -13  -2  27 -281.35  201.23
  13   1 -27    6.37   96.98
  13   1 -27 -163.56  265.46
 -13  -1  27    6.59  195.00
  13   0 -27  129.89  290.19
 -13   0  27 -296.39  198.23
  -3 -13  27    5.98   76.90
   4  13 -27  -10.57  235.25
  -4 -13  27   -8.59  243.64
  -2  -1  28   25.86   54.82
  -2   0  28   94.20   58.14
  -2   1  28  -27.95   52.50
  -2  -2  28  156.00   57.08
  -2   2  28   68.77   60.11
   3   2 -28 -258.80  139.28
  -3  -2  28   33.96   55.96
  -3  -2  28 -284.52  176.63
   3   1 -28   -6.43  143.55
  -3  -1  28    4.08   51.91
   3   0 -28   -6.26  135.68
  -3   0  28  -75.59   56.52
  -3   1  28   51.90   52.88
  -3   2  28   91.59   59.97
  -2  -3  28    9.77   64.07
   3   3 -28  -54.97  149.30
  -3  -3  28   19.97  181.96
  -3  -3  28   17.79   60.56
   4   3 -28  222.84  165.40
  -4  -3  28  735.77  197.89
  -4  -3  28    8.77   60.46
   4   2 -28 -213.70  146.69
  -4  -2  28   76.27   54.06
  -4  -2  28  174.06  188.84
   4   1 -28 -156.75  134.21
  -4  -1  28   49.84  172.71
  -4  -1  28   28.94   53.74
   4   0 -28   63.80  123.75
  -4   0  28   16.33   52.29
  -4   0  28 -102.58  176.28
   4  -1 -28    5.57  121.02
  -4   1  28 -152.78  176.15
  -4   1  28   24.93   55.59
   3   4 -28  421.24  163.42
  -3  -4  28   82.57  185.82
  -3  -4  28   23.24   63.17
   4   4 -28   -6.83  158.78
  -4  -4  28   -4.56   59.82
  -4  -4  28 -326.03  192.59
   5   4 -28    6.75  142.38
  -5  -4  28 -190.64  200.79
  -5  -4  28  -58.14   52.15
   5   3 -28    6.48  152.83
  -5  -3  28 -525.29  194.90
  -5  -3  28    8.64   53.70
   5   2 -28  173.83  149.26
  -5  -2  28   46.12   58.78
  -5  -2  28   79.03  195.56
   5   1 -28  213.04  140.96
  -5  -1  28   16.44   52.03
  -5  -1  28   63.58  189.73
   5   0 -28    5.62  125.45
   5   0 -28  -26.03   67.21
  -5   0  28  496.52  180.75
  -5   0  28   36.26   52.04
   5  -1 -28    3.54   58.46
   5  -1 -28  277.16  121.83
  -5   1  28  189.37  171.97
  -5   1  28  -40.70   54.07
   3   5 -28   -7.44  163.85
  -3  -5  28    7.13  194.12
  -3  -5  28 -106.40   65.31
   4   5 -28  -28.49  155.76
  -4  -5  28   64.68  206.18
  -4  -5  28  -14.20   61.03
   5   5 -28   35.04  152.77
  -5  -5  28    7.30  200.35
  -5  -5  28   18.50   58.24
   6   5 -28    7.19  171.41
   6   5 -28    5.93   98.55
  -6  -5  28    7.33  206.64
  -6  -5  28   49.77   63.41
   6   4 -28    6.96  167.29
   6   4 -28  103.25   93.22
  -6  -4  28    4.37   60.31
  -6  -4  28  235.34  205.41
   6   3 -28  -33.71  155.65
   6   3 -28 -144.52   84.32
  -6  -3  28   34.59  192.87
  -6  -3  28  109.78   59.63
   6   2 -28    6.50  140.80
   6   2 -28   -4.60   68.60
  -6  -2  28  567.55  203.57
  -6  -2  28  -20.55   56.29
   6   1 -28   64.46   75.70
   6   1 -28  -18.67  142.81
  -6  -1  28   19.34  182.12
  -6  -1  28  -12.10   52.52
   6   0 -28   -5.88  130.71
   6   0 -28    8.16   68.31
  -6   0  28    6.22  175.95
  -6   0  28   47.48   53.05
   6  -1 -28   19.42   62.85
   6  -1 -28   77.06  123.07
  -6   1  28  -39.62   56.76
  -6   1  28  -59.96  178.54
   3   6 -28 -357.81  174.33
  -3  -6  28    7.39  198.55
  -3  -6  28   44.95   61.61
   4   6 -28   67.01  159.43
  -4  -6  28    7.44  210.98
  -4  -6  28  -19.47   69.64
   5   6 -28  -94.68  158.16
  -5  -6  28    4.78   61.07
  -5  -6  28   -7.54  197.11
   6   6 -28    7.42  171.61
   6   6 -28    6.45  102.62
  -6  -6  28  -65.65   62.53
  -6  -6  28    7.55  204.28
   7   6 -28    6.41  101.27
   7   6 -28    7.48  168.38
  -7  -6  28  -18.61   65.73
  -7  -6  28   30.35  228.71
   7   5 -28    7.28  166.97
   7   5 -28    5.95   98.57
  -7  -5  28   31.32   57.85
  -7  -5  28    7.36  208.39
   7   4 -28  334.37  162.42
   7   4 -28    5.51   95.03
  -7  -4  28    7.15  204.43
  -7  -4  28    4.31   57.43
   7   3 -28   30.66   88.15
   7   3 -28    6.96  152.46
  -7  -3  28    6.96  204.15
  -7  -3  28   45.79   55.53
   7   2 -28    4.76   83.44
   7   2 -28   -6.78  151.24
  -7  -2  28    4.04   52.72
  -7  -2  28   -6.77  198.35
   7   1 -28    4.47   75.15
   7   1 -28  504.90  152.83
  -7  -1  28   43.48   57.88
  -7  -1  28    6.56  195.92
   7   0 -28 -109.10   67.71
   7   0 -28   -6.26  144.35
  -7   0  28 -487.56  195.02
  -7   0  28  -19.42   53.63
   7  -1 -28   19.99   69.98
   7  -1 -28  306.20  137.35
  -7   1  28   37.93   48.58
  -7   1  28 -182.32  173.26
   3   7 -28   -8.16  174.93
  -3  -7  28    7.67  199.68
  -3  -7  28  -61.47   64.15
   4   7 -28  171.63  185.42
  -4  -7  28    7.70  209.06
  -4  -7  28   65.26   70.57
   5   7 -28  -48.83  117.55
   5   7 -28    7.59  171.76
  -5  -7  28   -7.80  224.14
  -5  -7  28   49.27   65.92
   6   7 -28    7.66  175.92
   6   7 -28    6.98  107.61
  -6  -7  28   23.40  220.60
  -6  -7  28  -58.29   63.78
   7   7 -28  131.37  196.01
   8   7 -28    7.64  174.64
   8   7 -28    6.86  110.08
  -8  -7  28    4.79   56.71
  -8  -7  28   31.03  222.07
   8   6 -28 1218.38  292.36
  -8  -6  28 1590.81  327.58
   8   5 -28    7.20  155.69
   8   5 -28 -113.96  100.50
  -8  -5  28   -4.42   56.16
  -8  -5  28    7.22  205.47
   8   4 -28  127.34  154.00
   8   4 -28   -5.60   96.23
  -8  -4  28   21.22   54.37
  -8  -4  28   91.17  195.25
   8   3 -28    6.99  158.22
   8   3 -28 -193.38   88.48
  -8  -3  28    4.09   50.22
  -8  -3  28    6.83  200.65
   8   2 -28    6.90  161.88
   8   2 -28   -4.93   83.20
  -8  -2  28  -19.72   49.35
  -8  -2  28   73.28  198.62
   8   1 -28   60.84  154.27
   8   1 -28    4.70   81.25
  -8  -1  28   38.36   49.07
  -8  -1  28  -97.31  188.10
   8   0 -28   49.29   77.22
   8   0 -28  196.31  156.33
  -8   0  28   93.49   53.61
  -8   0  28   62.79  181.46
   8  -1 -28   25.47   67.34
  -8   1  28   60.50  176.78
  -8   1  28  -36.45   44.82
   3   8 -28  129.00  180.68
  -3  -8  28  -93.70   68.07
  -3  -8  28    7.97  225.80
   4   8 -28 -262.69  177.91
  -4  -8  28    7.95  229.06
   5   8 -28   -7.95  189.96
  -5  -8  28    8.05  236.89
  -6  -8  28 1289.49  332.76
   7   8 -28   32.08  185.81
  -7  -8  28  251.01  238.02
   8   8 -28   -8.01  189.02
  -8  -8  28   -8.09  245.55
   9   8 -28  -15.92  183.27
   9   8 -28   -7.43  101.88
  -9  -8  28    8.03  236.65
   9   7 -28  -15.25  184.47
   9   7 -28    7.01  120.25
  -9  -7  28   84.43  219.70
  -9  -7  28  -67.39   60.23
   9   6 -28   -7.40  174.90
   9   6 -28   -6.59  112.32
  -9  -6  28    7.36  221.67
  -9  -6  28  -59.83   61.19
   9   5 -28  -61.85  109.30
  -9  -5  28   26.48   58.88
  -9  -5  28 -589.57  214.91
   9   4 -28    5.80  107.79
  -9  -4  28    6.91  210.99
  -9  -4  28  156.97   56.61
   9   3 -28    5.45   84.37
   9   3 -28   -7.25  171.30
  -9  -3  28   69.61   53.98
  -9  -3  28 -101.22  201.19
   9   2 -28    5.15   85.85
   9   2 -28  -36.27  172.72
  -9  -2  28   51.67   49.48
  -9  -2  28    6.59  186.21
   9   1 -28    4.84   82.01
   9   1 -28 -267.13  157.79
  -9  -1  28   11.64   48.41
  -9  -1  28   51.40  188.47
   9   0 -28   -4.59   78.70
   9   0 -28   14.10  160.75
  -9   0  28  -60.56   48.68
  -9   0  28    6.22  180.50
  -9   1  28   36.93   46.00
   3   9 -28    9.10  197.68
  -3  -9  28   53.32   73.72
  -3  -9  28   24.82  243.06
   4   9 -28    8.69  213.03
  -4  -9  28   15.86   74.71
  -4  -9  28 -837.66  245.19
   5   9 -28 -142.34  194.68
   5   9 -28    7.93  142.11
  -5  -9  28  -20.47   68.40
   6   9 -28   -7.91  136.07
   6   9 -28 -150.35  198.45
  -6  -9  28   20.69   72.13
  -6  -9  28    8.35  233.14
   7   9 -28  107.81  129.77
   7   9 -28 -294.88  181.15
  -7  -9  28   10.37   68.17
  -7  -9  28 -504.08  254.66
   8   9 -28    8.50  195.23
   8   9 -28   -7.70  103.47
  -8  -9  28  118.50  254.75
  10   7 -28  -86.25  185.17
 -10  -7  28    7.75  219.20
  10   6 -28    7.65  176.68
  10   6 -28    6.69  112.18
 -10  -6  28   -7.41  213.65
 -10  -6  28    4.78   62.56
  10   5 -28   90.93  175.38
  10   5 -28   -6.31  107.88
 -10  -5  28 -135.51  203.50
 -10  -5  28   59.48   59.73
  10   4 -28    7.59  177.93
  10   4 -28  -89.35   97.74
 -10  -4  28  131.39  206.23
 -10  -4  28    4.42   55.15
  10   3 -28   -5.63   95.38
  10   3 -28   -7.71  181.42
 -10  -3  28  -42.81   55.05
 -10  -3  28   -6.75  190.01
  10   2 -28 -219.36  201.10
  10   2 -28   -5.35   89.46
 -10  -2  28   20.80   55.63
  10   1 -28  208.71  102.09
 -10  -1  28    6.44  207.01
 -10  -1  28   28.50   57.91
  10   0 -28 1491.71  303.33
 -10   0  28 1341.31  292.81
   3  10 -28  -38.65  225.04
  -3 -10  28   27.45   67.18
   4  10 -28  442.67  208.72
  -4 -10  28   69.36   75.30
  -4 -10  28   59.27  232.55
   5  10 -28    8.29  141.52
   5  10 -28  -88.79  185.54
  -5 -10  28  469.82  253.73
  -5 -10  28   -5.27   72.13
   6  10 -28  114.52  186.00
   6  10 -28    8.22  142.42
  -6 -10  28   69.01  230.73
  -6 -10  28  -10.56   68.29
   7  10 -28   53.56  207.71
  -7 -10  28  113.28  250.02
  11   6 -28  178.23  190.47
  11   5 -28    6.67  108.61
  11   5 -28  145.56  181.43
 -11  -5  28   19.62   57.73
 -11  -5  28   -7.23  201.41
  11   4 -28    6.31  103.12
  11   4 -28   24.60  193.50
 -11  -4  28   14.00  199.77
 -11  -4  28   18.89   61.23
  11   3 -28 -295.38  192.99
  11   3 -28    5.99  102.05
 -11  -3  28    9.15   57.99
 -11  -3  28    6.83  195.43
  11   2 -28  -43.67  206.73
  11   2 -28  -68.66   93.48
 -11  -2  28   -6.68  194.18
 -11  -2  28    4.47   54.05
  11   1 -28    5.46   87.83
  11   1 -28  135.64  214.59
 -11  -1  28    6.53  193.24
 -11  -1  28   21.74   51.90
  11   0 -28   37.03  215.35
  11   0 -28  -26.00   86.85
 -11   0  28   21.17   52.92
 -11   0  28   12.67  179.22
   3  11 -28   10.35  232.72
  -3 -11  28   11.38   71.20
   4  11 -28    9.82  211.79
  -4 -11  28 -148.25  234.71
  -4 -11  28   60.60   73.31
   5  11 -28    8.55  143.79
   5  11 -28    9.50  212.62
  -5 -11  28 -237.07  239.66
  -5 -11  28    5.39   70.52
   6  11 -28  279.39  226.77
  -6 -11  28    8.92  256.18
  12   4 -28    6.84  102.32
  12   4 -28    9.02  210.77
 -12  -4  28    7.15  210.70
  12   3 -28   -9.39  207.63
  12   3 -28 -189.46  109.26
 -12  -3  28   53.49   59.79
 -12  -3  28    6.97  201.85
  12   2 -28    9.86  232.86
  12   2 -28   -6.27   99.15
 -12  -2  28   47.29   60.89
 -12  -2  28   88.91  206.05
  12   1 -28    5.99   95.64
  12   1 -28   10.48  232.68
 -12  -1  28    6.69  190.15
 -12  -1  28   50.93   56.56
  12   0 -28 -276.85  254.39
  12   0 -28 -279.02   89.05
 -12   0  28   81.54   59.54
 -12   0  28   90.97  196.40
  -3 -12  28   -6.01   76.78
   4  12 -28 -611.85  242.56
  -4 -12  28    8.95  240.31
  13   2 -28 -424.07  261.61
  13   2 -28    6.88  103.79
 -13  -2  28    7.13  208.57
  13   1 -28  100.95  296.19
  13   1 -28    6.58  105.68
 -13  -1  28  405.54  206.88
  13   0 -28 -348.21  311.79
 -13   0  28  197.33  199.04
  -2   1  29   93.63   61.41
   3   2 -29   -7.17  152.52
  -3  -2  29   54.11   58.84
   3   1 -29 -418.03  159.03
  -3  -1  29  -12.95   54.13
  -3   0  29  -16.86   55.75
  -3   1  29   50.94   56.88
   3   3 -29    7.42  160.04
  -3  -3  29  -56.93   63.01
   4   3 -29   35.37  158.98
  -4  -3  29   60.26   60.13
  -4  -3  29    7.08  200.47
   4   2 -29  101.86  156.86
  -4  -2  29   49.17   57.33
   4   1 -29   32.54  146.04
  -4  -1  29  -13.00   56.04
  -4  -1  29 -667.90  225.59
   4   0 -29 -424.24  136.74
  -4   0  29   12.94   57.11
  -4   0  29   44.89  181.87
   4  -1 -29   48.09  132.42
  -4   1  29  125.56  181.15
  -4   1  29   35.32   56.42
   3   4 -29   38.54  159.83
  -3  -4  29   89.71   66.72
   4   4 -29    7.38  168.07
  -4  -4  29 -242.05  203.71
  -4  -4  29   -4.83   63.61
   5   4 -29  194.25  169.46
  -5  -4  29  140.84   67.24
  -5  -4  29    7.47  190.34
   5   3 -29   -6.92  146.98
  -5  -3  29   79.34  213.67
  -5  -3  29   49.88   62.31
   5   2 -29 -112.75  149.58
  -5  -2  29  -88.17   56.26
  -5  -2  29  528.18  209.46
   5   1 -29  164.63  148.70
  -5  -1  29   90.82   56.33
  -5  -1  29 -167.54  198.52
   5   0 -29    6.02  131.49
   5   0 -29   44.60   65.72
  -5   0  29   17.05   54.10
  -5   0  29 -355.39  194.81
   5  -1 -29   11.43  122.60
   5  -1 -29  -46.00   62.42
  -5   1  29  -26.07   55.73
  -5   1  29  243.62  174.96
   3   5 -29   80.30  164.93
  -3  -5  29  -36.45   70.36
   4   5 -29  -30.80  161.85
  -4  -5  29  -38.01  217.18
  -4  -5  29    4.99   62.97
   5   5 -29   14.96  172.12
  -5  -5  29    7.72  213.32
  -5  -5  29  -34.08   62.63
   6   5 -29    7.59  172.13
   6   5 -29    6.09   90.24
  -6  -5  29   -7.76  219.06
  -6  -5  29   57.00   62.38
   6   4 -29    7.36  166.70
   6   4 -29   -5.54   87.81
  -6  -4  29   77.92   61.72
  -6  -4  29  360.73  217.48
   6   3 -29   -7.13  165.82
   6   3 -29    5.06   91.27
  -6  -3  29  350.15  215.58
  -6  -3  29   57.67   61.82
   6   2 -29   65.15   82.02
   6   2 -29  280.92  156.65
  -6  -2  29   77.84   59.42
  -6  -2  29   -7.05  199.88
   6   1 -29    8.67   71.77
   6   1 -29  104.62  148.01
  -6  -1  29   34.09   55.99
  -6  -1  29 -102.20  193.51
   6   0 -29  -24.68   65.36
   6   0 -29  -92.64  130.52
  -6   0  29 -236.30  191.05
  -6   0  29  -29.44   55.49
   6  -1 -29 -252.94  133.22
   6  -1 -29  -15.71   67.68
  -6   1  29  -17.02   54.01
  -6   1  29   44.29  187.31
   3   6 -29 -134.27  185.76
  -3  -6  29  -70.15   71.12
   4   6 -29  -56.25  171.70
  -4  -6  29    7.87  212.59
  -4  -6  29   10.35   66.77
   5   6 -29 -467.22  181.82
  -5  -6  29   -7.97  218.36
  -5  -6  29  -35.23   62.44
   6   6 -29 -234.66  180.07
   6   6 -29 -193.56  117.85
  -6  -6  29 -132.88   72.11
   7   6 -29 -166.61  204.38
   7   6 -29    6.66  115.71
  -7  -6  29  -82.96   66.66
   7   5 -29    6.14  107.18
   7   5 -29 -417.57  171.50
  -7  -5  29    9.40   63.79
   7   4 -29    7.56  178.02
   7   4 -29  -73.55   94.04
  -7  -4  29   72.52   58.06
  -7  -4  29 -597.57  218.23
   7   3 -29   29.56  161.62
   7   3 -29    5.23   85.59
  -7  -3  29   57.02   57.18
  -7  -3  29   -7.36  206.56
   7   2 -29   -7.19  161.00
   7   2 -29    4.86   83.28
  -7  -2  29  170.83   63.17
  -7  -2  29    7.14  208.43
   7   1 -29  -95.67   75.26
   7   1 -29  -27.74  154.16
  -7  -1  29  146.79   55.95
  -7  -1  29   96.74  197.35
   7   0 -29 -415.32  166.37
   7   0 -29 -175.48   73.04
  -7   0  29  432.70  191.02
  -7   0  29   53.94   53.50
  -7   1  29   12.27   50.95
   3   7 -29    8.80  175.61
  -3  -7  29  116.29   74.46
   4   7 -29    8.42  184.75
  -4  -7  29   53.31   67.99
  -4  -7  29  114.12  206.09
   5   7 -29   -7.26  131.99
   5   7 -29    8.12  184.13
  -5  -7  29  -61.35   66.92
   6   7 -29    7.27  121.86
   6   7 -29    8.10  194.80
  -6  -7  29  -50.90   69.89
   7   7 -29    7.19  118.88
   7   7 -29   73.63  187.16
  -7  -7  29    5.06   68.14
  -7  -7  29 -140.30  228.02
   8   7 -29    7.18  120.70
   8   7 -29  156.86  187.02
  -8  -7  29  131.86  230.61
  -8  -7  29  -30.23   63.41
   8   6 -29  -46.75  108.07
   8   6 -29    7.99  179.25
  -8  -6  29    9.68   63.12
  -8  -6  29   -7.94  230.21
   8   5 -29    6.21  106.72
   8   5 -29  -70.22  172.44
  -8  -5  29    7.71  218.25
  -8  -5  29    4.65   62.16
   8   4 -29 1090.59  300.16
  -8  -4  29 2002.83  338.92
   8   3 -29  -15.18  181.75
  -8  -3  29  -38.89   59.23
   8   2 -29    7.48  171.29
   8   2 -29    5.06   85.47
  -8  -2  29  -37.63   54.21
  -8  -2  29   78.29  216.32
   8   1 -29  -91.50   83.97
   8   1 -29  116.93  168.03
  -8  -1  29   69.42   54.04
  -8  -1  29    6.92  195.04
   8   0 -29 -169.31  160.09
   8   0 -29  -46.06   75.38
  -8   0  29  -12.01   50.78
  -8   0  29   93.58  201.48
   3   8 -29   -9.27  217.59
   4   8 -29  796.20  264.27
   5   8 -29   -8.51  192.18
  -5  -8  29   -8.50  240.16
   6   8 -29 -278.23  200.21
  -6  -8  29  221.87  249.36
   7   8 -29   -7.68  121.02
   7   8 -29  127.45  202.06
  -7  -8  29    8.53  251.25
   8   8 -29  -25.71  204.55
  -8  -8  29  -85.73  247.23
   9   7 -29    8.19  192.58
  -9  -7  29 -636.52  241.34
   9   6 -29   -6.90  121.07
   9   6 -29   -7.96  187.72
  -9  -6  29   -4.85   62.47
  -9  -6  29    7.84  230.69
   9   5 -29 -141.38  182.10
   9   5 -29    6.45  106.21
  -9  -5  29   -7.57  213.27
  -9  -5  29  106.94   61.38
   9   4 -29   -7.81  181.44
   9   4 -29    6.03  101.93
  -9  -4  29    7.36  206.96
  -9  -4  29    4.47   57.17
   9   3 -29 -280.93  187.85
   9   3 -29 -305.29  104.94
  -9  -3  29  209.08  212.01
  -9  -3  29   17.30   57.62
   9   2 -29 -842.43  213.60
   9   2 -29   -5.33   95.59
  -9  -2  29   29.45   53.16
   9   1 -29  265.26   98.73
  -9  -1  29   37.03   57.66
  -9   0  29  955.98  264.45
   3   9 -29  -78.46  211.85
  -3  -9  29   34.45   73.78
   4   9 -29  -27.99  197.39
  -4  -9  29 -593.26  253.16
  -4  -9  29   95.27   75.63
   5   9 -29    8.36  140.32
   5   9 -29  -71.79  207.81
  -5  -9  29   16.12   68.57
  -5  -9  29   96.43  246.12
   6   9 -29  158.04  202.03
   6   9 -29    8.34  139.69
  -6  -9  29   -8.82  259.11
  -6  -9  29   37.87   75.27
   7   9 -29 -257.17  208.89
  -7  -9  29 -282.62  253.04
  10   6 -29    8.17  180.97
 -10  -6  29  203.74  230.93
  10   5 -29  -65.14  190.37
  10   5 -29    6.61  111.80
 -10  -5  29  -83.33  215.64
 -10  -5  29   96.36   63.46
  10   4 -29   -6.19   99.81
  10   4 -29   -8.18  170.76
 -10  -4  29   37.12   58.51
 -10  -4  29   22.11  221.36
  10   3 -29    5.85   97.06
  10   3 -29  -33.15  192.58
 -10  -3  29    7.23  203.61
 -10  -3  29   13.54   56.12
  10   2 -29    5.54   93.62
  10   2 -29  159.94  197.47
 -10  -2  29 -176.55  205.35
 -10  -2  29 -101.15   56.14
  10   1 -29    5.28   88.03
  10   1 -29  110.54  203.68
 -10  -1  29 -405.94  206.97
 -10  -1  29   12.93   54.95
  10   0 -29   42.24  193.18
  10   0 -29 -216.16   86.39
 -10   0  29   79.68  195.87
 -10   0  29 -102.08   55.41
   3  10 -29 -240.53  226.32
  -3 -10  29  -47.15   73.96
   4  10 -29   69.27  219.71
  -4 -10  29  101.61   71.89
  -4 -10  29 -197.92  258.42
   5  10 -29   -9.53  207.29
  -5 -10  29    9.04  243.65
  -5 -10  29    5.52   75.76
  11   4 -29   -6.58  108.16
  11   4 -29    8.79  205.99
 -11  -4  29   29.84  210.05
  11   3 -29   -9.04  209.99
  11   3 -29    6.23   97.16
 -11  -3  29    7.31  221.05
 -11  -3  29   86.72   63.39
  11   2 -29    5.92   83.09
  11   2 -29   56.11  216.64
 -11  -2  29 -571.66  223.54
 -11  -2  29   18.78   61.17
  11   1 -29  424.94  229.14
  11   1 -29    5.66   89.73
 -11  -1  29    6.97  201.12
 -11  -1  29  -36.84   60.07
  11   0 -29 -156.69   88.41
  11   0 -29 -569.00  238.86
 -11   0  29  127.98  199.79
 -11   0  29   53.83   55.76
   4  11 -29  -10.58  221.88
  -4 -11  29    9.29  245.18
  12   3 -29  -10.15  241.08
 -12  -3  29   14.96  220.01
  12   2 -29   10.73  241.11
  12   2 -29    6.47  103.42
 -12  -2  29 -161.34  213.14
 -12  -2  29   -9.95   60.91
  12   1 -29    6.21  102.79
  12   1 -29   11.39  239.00
 -12  -1  29   -9.74   58.21
 -12  -1  29   35.73  214.87
 -12   0  29  -62.07   61.41
  13   1 -29  -82.21  298.71
  13   1 -29    6.81   78.06
 -13  -1  29   29.72  222.97
  -3  -2  30   76.76   65.31
  -3  -1  30  -87.03   65.83
  -3   0  30  -49.19   58.23
  -3   1  30   49.68   61.26
   3   3 -30   48.32  165.09
  -3  -3  30   20.30   67.74
   4   3 -30  -22.87  171.30
  -4  -3  30   82.74  209.16
  -4  -3  30    9.75   65.34
   4   2 -30 -109.58  165.69
  -4  -2  30   37.52   62.57
  -4  -2  30    7.26  208.43
   4   1 -30  -84.33  165.48
  -4  -1  30  -54.86   59.49
  -4  -1  30  626.61  221.27
   4   0 -30 -229.09  150.92
  -4   0  30  178.70  200.20
  -4   0  30  -45.63   60.25
   4  -1 -30   45.28  140.36
  -4   1  30   -4.70   62.91
   3   4 -30 -125.27  181.04
  -3  -4  30  187.90   74.44
   4   4 -30    7.95  176.70
  -4  -4  30  -15.29   66.19
  -4  -4  30    7.79  205.85
   5   4 -30    7.74  177.77
  -5  -4  30   23.61  217.10
  -5  -4  30  -14.83   65.06
   5   3 -30 -193.60  168.67
  -5  -3  30  -47.68   61.00
  -5  -3  30   -7.60  214.48
   5   2 -30   -7.14  161.88
  -5  -2  30  461.61  222.37
  -5  -2  30   13.88   65.64
   5   1 -30 -463.14  151.85
   5   1 -30   -3.97   68.75
  -5  -1  30  -63.73   58.96
  -5  -1  30 -289.79  207.91
   5   0 -30 -103.50  142.30
   5   0 -30    3.70   62.43
  -5   0  30   18.00   61.72
  -5   0  30  170.41  196.06
  -5   1  30  106.60   63.78
   3   5 -30    8.70  172.01
  -3  -5  30   16.93   75.71
   4   5 -30    8.29  173.44
  -4  -5  30   32.28  224.28
  -4  -5  30  -47.89   69.81
   5   5 -30  -72.37  178.59
  -5  -5  30    8.14  228.60
  -5  -5  30   15.38   64.81
   6   5 -30    6.22  104.98
   6   5 -30  240.00  201.25
  -6  -5  30  377.40  260.08
  -6  -5  30   19.95   68.20
   6   4 -30  163.80  170.11
   6   4 -30   -5.63   96.40
  -6  -4  30 -612.85  233.62
  -6  -4  30 -105.82   69.65
   6   3 -30    5.11   88.22
   6   3 -30    7.54  169.13
  -6  -3  30   41.91   61.78
  -6  -3  30  323.56  216.12
   6   2 -30    7.21  167.09
   6   2 -30    4.68   76.50
  -6  -2  30 -499.22  207.71
  -6  -2  30  140.94   62.07
   6   1 -30    4.35   70.52
   6   1 -30  260.99  165.25
  -6  -1  30   -7.18  198.72
  -6  -1  30  -67.42   58.85
   6   0 -30   -4.13   71.11
   6   0 -30   51.90  151.39
  -6   0  30    4.47   55.69
  -6   0  30    6.91  195.51
   3   6 -30  127.18  181.57
  -3  -6  30    5.87   77.67
   4   6 -30 -138.44  201.72
  -4  -6  30  -49.78   70.42
   5   6 -30  636.29  220.20
   5   6 -30    6.80  120.96
  -5  -6  30    8.41  252.26
  -5  -6  30   37.15   67.65
   6   6 -30   49.53  190.06
   6   6 -30 -316.25  118.99
  -6  -6  30  -41.34   70.05
  -6  -6  30    8.47  236.35
   7   6 -30 -118.00  194.99
   7   6 -30   -6.89  112.19
  -7  -6  30    5.12   66.89
  -7  -6  30   67.33  241.91
   7   5 -30 -288.33  186.59
   7   5 -30    6.31   95.21
  -7  -5  30    4.93   64.16
  -7  -5  30  179.84  235.11
   7   4 -30 -112.81  202.31
   7   4 -30    5.78   99.15
  -7  -4  30   -9.52   65.53
   7   2 -30  -38.22  186.99
   7   2 -30    4.93   85.51
  -7  -2  30  -36.01   58.00
   7   1 -30    4.62   78.55
   7   1 -30 -212.92  163.41
  -7  -1  30 -687.58  219.82
  -7  -1  30  -48.85   69.11
   7   0 -30  -39.29   66.06
   7   0 -30    6.93  152.54
  -7   0  30    8.86   56.27
  -7   0  30 -557.43  211.80
   3   7 -30  181.15  228.88
  -3  -7  30   30.17   92.70
   4   7 -30 -389.31  226.82
  -4  -7  30 -114.00   74.11
   5   7 -30    7.55  129.26
   5   7 -30 -122.23  202.68
  -5  -7  30   37.81   72.97
  -5  -7  30    8.70  247.38
   6   7 -30   68.34  184.16
   6   7 -30    7.55  129.72
  -6  -7  30   -8.73  244.13
  -6  -7  30   69.54   73.02
   7   7 -30    7.48  130.15
   7   7 -30  -17.31  203.58
  -7  -7  30  -26.56   70.69
  -7  -7  30    8.69  248.81
   8   7 -30 -184.39  212.16
  -8  -7  30    8.70  244.45
   8   6 -30    6.93  115.13
   8   6 -30    8.57  197.41
  -8  -6  30  101.68   66.45
  -8  -6  30   16.83  242.87
   8   5 -30   12.78  105.42
   8   5 -30   -8.43  180.89
  -8  -5  30  507.97  242.47
  -8  -5  30  -34.23   63.08
   8   4 -30    8.33  184.13
   8   4 -30    5.93   97.03
  -8  -4  30  -56.52   63.32
  -8  -4  30   15.98  220.03
   8   3 -30    5.52   86.30
   8   3 -30 -164.53  196.72
  -8  -3  30   36.47   58.55
  -8  -3  30 -217.86  226.46
   8   2 -30 -347.99  201.27
  -8  -2  30   35.50   56.97
  -8  -2  30 -272.44  229.34
   8   1 -30   -4.91   84.06
  -8  -1  30  -17.35   61.16
   8   0 -30  105.41  194.35
   8   0 -30  -56.48   82.52
  -8   0  30 -111.38   58.77
   3   8 -30  -10.05  209.49
   4   8 -30  180.74  216.28
  -4  -8  30    8.96  253.83
   5   8 -30  -18.30  211.25
  -5  -8  30 -314.55  251.04
   6   8 -30   -8.18  134.08
   6   8 -30 -142.32  194.34
  -6  -8  30    5.51   72.06
  -6  -8  30    9.02  252.56
   7   8 -30    8.95  219.80
   9   6 -30   -8.62  203.03
   9   5 -30 -271.92  193.55
   9   5 -30    6.69  103.02
  -9  -5  30    8.12  234.99
  -9  -5  30   19.57   63.84
   9   4 -30 -199.38  107.30
   9   4 -30    8.46  172.91
  -9  -4  30    7.90  228.79
  -9  -4  30  -51.84   61.08
   9   3 -30   -5.83  100.34
   9   3 -30    8.46  195.09
  -9  -3  30    7.70  218.05
  -9  -3  30   -4.56   58.20
   9   2 -30  177.25  205.75
   9   2 -30    5.48   93.00
  -9  -2  30    7.51  217.84
  -9  -2  30   35.60   63.07
   9   1 -30    5.15   84.01
   9   1 -30  200.39  199.25
  -9  -1  30   73.03  210.77
  -9  -1  30  -30.60   57.62
   9   0 -30 -340.77  186.72
   9   0 -30   -4.90   82.39
  -9   0  30  -47.50   56.79
  -9   0  30  -35.17  201.48
   4   9 -30  -10.07  224.18
  -4  -9  30    9.29  260.34
  -4  -9  30  -11.74   73.67
   5   9 -30  -86.73  209.30
  -5  -9  30   -9.27  272.40
  10   4 -30    8.80  203.68
  10   4 -30    6.44  109.96
 -10  -4  30   47.14  231.08
  10   3 -30    8.93  203.26
  10   3 -30    6.04   92.53
 -10  -3  30   71.15   63.59
 -10  -3  30  176.42  219.64
  10   2 -30  -90.58  209.37
  10   2 -30   -5.72   97.83
 -10  -2  30   13.93   59.88
 -10  -2  30 -149.86  219.14
  10   1 -30  510.50  213.19
  10   1 -30    5.45   90.29
 -10  -1  30  -95.83   62.83
 -10  -1  30 -116.47  208.61
  10   0 -30    5.20   78.97
 -10   0  30  112.10  206.04
 -10   0  30   18.03   55.41
  11   3 -30   -6.45   94.43
  11   3 -30   58.40  216.59
 -11  -3  30  -38.99  227.05
  11   2 -30   10.07  236.87
  11   2 -30   -6.12   98.30
 -11  -2  30 -320.52  221.59
 -11  -2  30   24.79   60.40
  11   1 -30   10.36  230.26
  11   1 -30   -5.86   92.65
 -11  -1  30    7.42  213.25
 -11  -1  30   68.38   61.50
 -11   0  30   71.54   59.60
  12   1 -30    6.43  100.40
  12   1 -30  281.21  285.44
 -12  -1  30   -5.13   58.87
 -12  -1  30 -305.12  223.62
  -3  -2  31  -10.24   68.85
  -3  -1  31   -4.87   66.01
  -3   0  31  -28.48   64.14
  -3   1  31  101.12   65.16
  -3  -3  31    5.45   70.43
   4   3 -31  -16.50  186.43
  -4  -3  31    8.01  215.70
  -4  -3  31   77.59   67.16
   4   2 -31    7.91  174.07
  -4  -2  31    9.92   65.69
  -4  -2  31    7.77  223.26
   4   1 -31  227.12  178.84
  -4  -1  31   19.33   66.79
   4   0 -31    7.26  153.53
  -4   0  31  -28.93   63.08
  -4   1  31   30.01   63.28
  -3  -4  31   23.25   73.79
   4   4 -31  -43.00  195.10
  -4  -4  31  -43.46   73.01
   5   4 -31   66.86  196.33
  -5  -4  31   -5.20   69.66
  -5  -4  31 -764.06  244.71
   5   3 -31 -610.28  191.94
  -5  -3  31   -5.01   72.89
  -5  -3  31 -986.47  244.70
   5   2 -31    7.70  160.41
  -5  -2  31   -4.86   62.73
  -5  -2  31   61.88  219.44
   5   1 -31 -198.26  167.61
   5   1 -31    3.94   70.37
  -5  -1  31   33.05   61.10
  -5  -1  31   -7.46  216.23
   5   0 -31    3.67   61.59
   5   0 -31    6.96  158.69
  -5   0  31   28.55   61.57
  -5   0  31   28.87  199.25
  -3  -5  31 -172.17   86.19
   4   5 -31    8.97  209.76
  -4  -5  31   25.77  267.63
  -4  -5  31  -34.19   73.86
   5   5 -31    8.69  180.64
  -5  -5  31  103.16  241.01
  -5  -5  31  -43.36   68.50
   6   5 -31  102.40  194.42
   6   5 -31    6.33  109.23
  -6  -5  31    8.68  241.46
  -6  -5  31   57.63   75.33
   6   4 -31    5.68   90.87
   6   4 -31   -8.27  185.58
  -6  -4  31    8.41  232.93
  -6  -4  31  -15.15   69.19
   6   3 -31    5.13   85.79
  -6  -3  31  -39.10   70.03
   6   2 -31    4.68   86.18
  -6  -2  31  172.85  245.49
  -6  -2  31   33.44   67.06
   6   0 -31 -373.41  160.99
  -6   0  31   37.89   64.41
   4   6 -31  -93.62  197.67
  -4  -6  31    5.94   71.18
  -4  -6  31  285.01  260.11
   5   6 -31  -72.28  211.73
   5   6 -31    6.97  116.95
  -5  -6  31    8.89  248.22
  -5  -6  31  -61.87   69.66
   6   6 -31  -56.46  120.28
   6   6 -31   -8.81  207.81
  -6  -6  31   43.50   80.79
  -6  -6  31 -125.41  246.85
   7   6 -31    8.91  198.44
   7   6 -31  -49.62  116.63
  -7  -6  31 -294.10  248.95
   7   5 -31    6.45  104.96
   7   5 -31   78.41  197.90
  -7  -5  31    5.18   64.18
  -7  -5  31   51.91  246.18
   7   4 -31   -5.87   96.36
   7   4 -31    8.54  193.34
  -7  -4  31   34.96   65.38
  -7  -4  31   25.24  246.68
   7   3 -31   16.66  197.55
   7   3 -31   -5.37   90.43
  -7  -3  31  571.89  237.08
  -7  -3  31   33.90   64.36
   7   2 -31  -40.30  195.03
   7   2 -31  -79.42   84.45
  -7  -2  31  245.00  230.58
  -7  -2  31 -123.19   65.59
   7   1 -31    7.71  170.37
   7   1 -31 -195.09   80.55
  -7  -1  31    4.70   60.78
  -7  -1  31 -335.85  231.79
   7   0 -31    7.27  173.14
   7   0 -31    4.40   69.00
  -7   0  31    9.43   61.66
  -7   0  31  -87.96  203.68
   4   7 -31    9.80  212.16
  -4  -7  31  -24.53   83.47
  -4  -7  31    9.24  254.99
   5   7 -31  132.11  203.54
   5   7 -31    7.83  118.02
  -5  -7  31    9.20  248.60
  -5  -7  31   17.17   73.45
   6   7 -31   -7.82  131.83
   6   7 -31   -9.14  212.35
  -6  -7  31   55.38  252.20
   8   5 -31 -152.46  207.51
   8   5 -31   -6.56  108.99
  -8  -5  31  354.70  248.87
   8   4 -31  336.71  202.21
   8   4 -31    6.06   98.04
  -8  -4  31    4.95   64.15
  -8  -4  31  -33.70  244.53
   8   3 -31 -122.64  211.73
   8   3 -31    5.62  101.23
  -8  -3  31   -8.21  232.83
  -8  -3  31   52.76   62.63
   8   2 -31  -17.18  192.82
   8   2 -31    5.24   87.89
  -8  -2  31  103.60  225.27
  -8  -2  31   56.24   57.70
   8   1 -31   -8.32  187.04
   8   1 -31   -4.98   82.82
  -8  -1  31  -27.62   59.95
  -8  -1  31 -207.80  223.38
   8   0 -31    7.92  176.42
   8   0 -31   47.84   79.43
  -8   0  31 -295.15  208.53
  -8   0  31   27.48   59.76
   4   8 -31 -113.15  237.01
  -4  -8  31 -354.78  281.17
   5   8 -31  -59.22  225.60
  -5  -8  31 -447.03  256.86
   9   4 -31   18.45  210.84
   9   4 -31   64.05  108.24
  -9  -4  31    8.41  239.17
  -9  -4  31   24.80   64.16
   9   3 -31  239.45  217.16
   9   3 -31    5.97  102.25
  -9  -3  31  -81.80   59.21
  -9  -3  31   16.42  229.16
   9   2 -31  -82.59  209.89
   9   2 -31   -5.61   96.83
  -9  -2  31    8.00  235.52
  -9  -2  31  -47.08   61.23
   9   1 -31  298.63  215.43
   9   1 -31   15.92   88.19
  -9  -1  31  -27.86   58.49
  -9  -1  31    7.74  227.23
  -9   0  31   36.93   58.20
  10   3 -31    6.21  104.47
  10   3 -31   77.46  235.59
 -10  -3  31 -139.04  232.76
  10   2 -31    9.81  215.22
  10   2 -31    5.88   96.00
 -10  -2  31   19.64   61.38
 -10  -2  31 -175.54  228.64
  10   1 -31    9.83  230.13
  10   1 -31   -5.60   92.82
 -10  -1  31   72.65   65.97
 -10  -1  31 -363.18  228.94
  11   2 -31 -152.15  257.19
  11   1 -31    6.02  102.52
  11   1 -31   44.55  260.31
 -11  -1  31  375.93  237.48
 -11  -1  31    5.16   62.27
  -3  -1  32  -31.14   71.58
  -3   0  32   75.86   69.19
   4   3 -32 -160.39  208.34
  -4  -3  32 -143.18   70.96
   4   2 -32  239.18  191.15
  -4  -2  32  -47.31   66.12
   4   1 -32 1731.56  329.49
  -4   0  32  199.11   78.10
   4   4 -32    9.30  199.16
  -4  -4  32  -34.87   74.45
   5   4 -32    5.45   96.11
   5   4 -32    9.04  195.77
  -5  -4  32  228.74  242.22
  -5  -4  32  -87.84   71.34
   5   3 -32  216.69  192.41
   5   3 -32    4.80   83.42
  -5  -3  32 -271.78  241.16
  -5  -3  32   10.54   70.34
   5   2 -32   -8.29  187.28
   5   2 -32   -4.29   66.53
  -5  -2  32   73.75  233.79
  -5  -2  32  -30.20   69.07
   5   1 -32 -378.75  176.60
   5   1 -32    3.91   67.33
  -5  -1  32   29.77   63.98
  -5  -1  32   31.60  222.23
   5   0 -32 -652.79  170.27
   5   0 -32  -36.34   60.57
  -5   0  32  115.00  216.58
  -5   0  32   40.18   64.20
   4   5 -32   -9.70  212.16
  -4  -5  32  -49.00   77.22
   5   5 -32    9.39  214.78
   5   5 -32    6.24  106.63
  -5  -5  32  166.47   76.36
  -5  -5  32  127.53  261.16
   6   5 -32 -115.58  106.10
   6   5 -32  312.17  198.62
  -6  -5  32   27.46  255.75
  -6  -5  32  -77.19   82.52
   6   4 -32    5.72   95.43
   6   4 -32  106.73  185.95
  -6  -4  32   53.04   81.63
  -6  -4  32    8.86  249.43
   6   3 -32   25.75  187.99
   6   3 -32   -5.13   87.28
  -6  -3  32  -51.28   68.86
  -6  -3  32    8.56  240.63
   6   2 -32    4.67   78.96
   6   2 -32    8.24  187.72
  -6  -2  32  115.59  245.94
  -6  -2  32  105.32   67.50
   6   1 -32   -4.34   72.78
   6   1 -32  212.10  177.61
  -6  -1  32  -29.91   66.40
  -6  -1  32  588.14  235.56
   6   0 -32   28.67   69.58
   6   0 -32    7.42  158.94
  -6   0  32   30.57  213.49
  -6   0  32   15.06   68.62
   4   6 -32 -141.66  226.53
  -4  -6  32  -57.70   83.52
   5   6 -32    7.14  122.58
   5   6 -32  -97.63  218.51
  -5  -6  32   18.86  264.46
  -5  -6  32   -5.90   70.69
   6   6 -32   -9.49  220.04
  -6  -6  32   -9.44  266.27
   7   5 -32    6.56   89.47
   7   5 -32  -55.24  200.04
  -7  -5  32   18.30  251.30
   7   4 -32    5.93   97.48
   7   4 -32   -9.06  196.65
  -7  -4  32   15.70   69.06
  -7  -4  32   71.12  244.85
   7   3 -32   17.66  200.81
   7   3 -32    5.40   84.02
  -7  -3  32  508.60  240.78
  -7  -3  32   25.41   64.66
   7   2 -32    4.98   80.62
   7   2 -32    8.49  178.11
  -7  -2  32  -29.88   68.49
  -7  -2  32 -575.36  240.79
   7   1 -32    9.30   78.91
   7   1 -32    8.10  190.93
  -7  -1  32   24.79   62.12
  -7  -1  32  -48.15  228.66
  -7   0  32  -40.16   65.45
   4   7 -32  137.56  228.37
   8   4 -32    6.16   99.44
   8   4 -32   18.93  214.22
  -8  -4  32   62.05  266.14
   8   3 -32   46.71  207.31
   8   3 -32   -5.69   93.62
  -8  -3  32-1000.00  260.83
  -8  -3  32   50.41   68.18
   8   2 -32 -420.60  218.85
   8   2 -32   -5.29   90.73
  -8  -2  32 -125.26  241.60
  -8  -2  32  -74.07   65.57
   8   1 -32   -5.02   82.54
   8   1 -32    8.82  198.43
  -8  -1  32   14.64   66.31
  -8  -1  32 -265.50  232.69
   9   3 -32    6.09   82.53
   9   3 -32    9.96  238.24
  -9  -3  32 -434.51  251.33
   9   2 -32   -5.70   94.23
   9   2 -32  118.72  233.68
  -9  -2  32   94.42   68.04
  -9  -2  32   -8.44  236.80
   9   1 -32    5.40   90.14
   9   1 -32 -474.25  220.19
  -9  -1  32   -9.87   63.53
  -9  -1  32   40.71  230.02
  10   2 -32   10.69  234.84
  10   1 -32   80.15   97.07
  10   1 -32   10.68  240.52
 -10  -1  32   24.64  240.68
 -10  -1  32   72.11   71.55
  -4  -3  33   93.85   75.95
  -4  -2  33   66.83   72.39
  -4  -1  33  134.98   75.54
  -4   0  33  -64.99   73.35
   4   4 -33 -222.48  222.72
  -4  -4  33  112.23   76.07
   5   4 -33    9.75  199.66
   5   4 -33   -5.46   87.06
  -5  -4  33  130.74  252.15
  -5  -4  33   68.80   76.51
   5   3 -33   75.07  197.71
   5   3 -33   -4.78   81.32
  -5  -3  33    5.48   73.77
  -5  -3  33  144.25  258.20
   5   2 -33    8.96  204.02
   5   2 -33    4.25   68.63
  -5  -2  33  191.65  243.56
  -5  -2  33   68.79   65.93
   5   1 -33  298.16  195.67
   5   1 -33    3.86   67.43
  -5  -1  33   36.53   68.29
  -5  -1  33   75.96  230.71
  -5   0  33   68.98   68.50
   4   5 -33  -31.62  219.07
  -4  -5  33   99.28   88.65
   5   5 -33   10.14  212.91
  -5  -5  33   -9.67  266.89
   6   4 -33  -38.48  212.43
   6   4 -33    5.74   96.84
  -6  -4  33    9.34  258.71
   6   3 -33    9.27  196.86
   6   3 -33    5.12   87.53
  -6  -3  33  378.71  247.71
  -6  -3  33  -80.76   71.18
   6   2 -33   13.93   76.94
   6   2 -33    8.88  193.17
  -6  -2  33  -10.52   69.91
  -6  -2  33 -504.07  243.06
   6   1 -33  -33.85  185.01
   6   1 -33    4.30   74.91
  -6  -1  33  -68.17   69.68
  -6  -1  33  -92.00  228.59
  -6   0  33   47.86   68.57
   4   6 -33   11.00  238.25
   7   4 -33   -9.63  211.34
   7   3 -33    5.41   91.55
   7   3 -33  -28.11  207.32
  -7  -3  33    9.09  254.58
  -7  -3  33   -5.32   70.40
   7   2 -33   -4.96   80.04
   7   2 -33    9.04  208.40
  -7  -2  33 -465.25  246.47
  -7  -2  33   -5.23   67.25
   7   1 -33   -4.63   76.97
   7   1 -33   25.88  201.92
  -7  -1  33   -8.43  249.62
  -7  -1  33  -10.46   67.95
   8   3 -33 -792.29  241.68
  -8  -3  33    9.10  265.20
   8   2 -33   -5.32   84.62
   8   2 -33    9.66  216.78
  -8  -2  33 -775.02  261.77
  -8  -2  33   98.76   70.70
   8   1 -33    9.26  220.24
   8   1 -33    5.04   81.59
  -8  -1  33   56.79   63.96
  -8  -1  33    8.46  230.58
   9   1 -33   -5.46   89.08
   9   1 -33  -10.25  234.83
  -9  -1  33  409.20  242.62
  -4  -3  34  -68.98   81.39
  -4  -2  34  -29.62   75.11
  -4  -1  34   51.55   75.16
  -4   0  34  -23.00   72.38
  -5  -4  34  139.89  298.72
   5   3 -34  -10.14  228.86
   5   3 -34    9.50   79.17
  -5  -3  34  127.28   75.58
   5   2 -34   -4.21   68.70
   5   2 -34  241.83  206.62
  -5  -2  34   22.27   69.27
   5   1 -34   18.39  205.15
   5   1 -34  -91.51   63.34
  -5  -1  34   54.85   69.99
   6   3 -34  -10.04  228.63
   6   3 -34   -5.10   68.15
  -6  -3  34  390.78  272.21
   6   2 -34   -4.62   78.42
   6   2 -34    9.60  209.75
  -6  -2  34    9.18  252.39
  -6  -2  34   27.59   68.69
   6   1 -34   -4.26   69.72
   6   1 -34   -9.10  194.20
  -6  -1  34   -8.84  250.25
  -6  -1  34   98.25   74.92
   7   2 -34    9.74  211.91
  -7  -2  34    9.20  259.90
   7   1 -34    4.59   71.59
   7   1 -34    9.26  212.52
  -7  -1  34 -220.73  247.74
  -7  -1  34 -121.25   68.33
   8   1 -34   -9.74  220.65
  -8  -1  34  115.30  261.03
   5   2 -35   10.53  215.62
   5   1 -35    3.76   61.62
  -5  -1  35  110.00   75.61
   6   1 -35    4.20   70.61
   6   1 -35   -9.82  210.44
  -6  -1  35 -197.01  261.54
  -6  -1  35   -5.75   68.07
   0   0   0    0.00    0.00
;
_shelx_hkl_checksum              69898
_shelx_fab_checksum              15146
_shelx_fab_file
;
    0    2    0   -366.37      0.00
    1    2    0    274.87      0.00
    1    3    0      5.03      0.00
    2    3    0    180.53      0.00
    0    4    0     22.44      0.00
    1    4    0     34.24      0.00
    2    4    0     41.31      0.00
    3    4    0      9.99      0.00
    1    5    0    -56.65      0.00
    2    5    0     -9.17      0.00
    3    5    0      7.45      0.00
    0    6    0     14.35      0.00
    1    6    0    -57.01      0.00
    2    6    0     41.89      0.00
    3    6    0     17.39      0.00
    4    6    0     -4.30      0.00
    1    7    0     19.78      0.00
    2    7    0    -19.54      0.00
    3    7    0     40.87      0.00
    4    7    0     25.21      0.00
    0    8    0    -34.24      0.00
    1    8    0    -17.56      0.00
    2    8    0    -14.26      0.00
    3    8    0    -15.24      0.00
    4    8    0    -11.41      0.00
    5    8    0    -18.33      0.00
    1    9    0     20.51      0.00
    2    9    0     10.05      0.00
    3    9    0    -14.37      0.00
    4    9    0      4.57      0.00
    5    9    0     11.42      0.00
    0   10    0     11.16      0.00
    1   10    0     -5.13      0.00
    2   10    0     -2.51      0.00
    3   10    0      1.60      0.00
    4   10    0     -2.06      0.00
    5   10    0      5.91      0.00
    6   10    0     16.24      0.00
    1   11    0     -3.67      0.00
    2   11    0    -15.24      0.00
    3   11    0      0.38      0.00
    4   11    0     -9.75      0.00
    5   11    0     -5.26      0.00
    6   11    0     31.09      0.00
    0   12    0     -4.41      0.00
    1   12    0     -6.45      0.00
    2   12    0     -1.32      0.00
    3   12    0     -0.39      0.00
    4   12    0     -5.76      0.00
    5   12    0     -6.93      0.00
    6   12    0      9.97      0.00
    1   13    0     -2.13      0.00
    2   13    0     18.49      0.00
    3   13    0     -6.95      0.00
    4   13    0      3.89      0.00
    5   13    0      1.87      0.00
    1   14    0    -15.62      0.00
    2   14    0     11.49      0.00
    3   14    0    -12.63      0.00
    4   14    0      7.75      0.00
    5   14    0    -27.65      0.00
    6   14    0     -2.38      0.00
    7   14    0     -9.76      0.00
    1   15    0    -14.15      0.00
    2   15    0     -6.86      0.00
    3   15    0      1.97      0.00
    4   15    0     -3.89      0.00
    5   15    0     -0.48      0.00
    6   15    0     16.90      0.00
    7   15    0     -9.43      0.00
    0   16    0     23.05      0.00
    1   16    0      8.49      0.00
    2   16    0     -1.11      0.00
    3   16    0     -9.90      0.00
    4   16    0      6.52      0.00
    5   16    0     -3.07      0.00
    6   16    0     -4.12      0.00
    7   16    0      6.42      0.00
    1   17    0      2.58      0.00
    2   17    0     12.73      0.00
    3   17    0      6.71      0.00
    4   17    0    -10.26      0.00
    5   17    0     -2.87      0.00
    6   17    0    -11.65      0.00
    7   17    0     16.50      0.00
    0   18    0      7.21      0.00
    1   18    0     -0.63      0.00
    2   18    0     -0.42      0.00
    3   18    0    -13.75      0.00
    4   18    0     15.78      0.00
    5   18    0     12.86      0.00
    6   18    0     -5.51      0.00
    7   18    0     -8.38      0.00
    1   19    0     -9.35      0.00
    2   19    0    -23.51      0.00
    3   19    0     40.78      0.00
    4   19    0     -8.98      0.00
    5   19    0    -16.93      0.00
    6   19    0     -5.32      0.00
    7   19    0      0.21      0.00
    0   20    0      9.12      0.00
    1   20    0     -0.93      0.00
    2   20    0      9.31      0.00
    3   20    0     -5.28      0.00
    4   20    0     -1.46      0.00
    5   20    0      1.03      0.00
    6   20    0     -8.10      0.00
    1    2    1     50.98      0.00
    0    3    1    -50.72      0.00
    1    3    1    139.87      0.00
    2    3    1     26.61      0.00
    1    4    1     10.90      0.00
    2    4    1     32.33      0.00
    3    4    1     18.73      0.00
    0    5    1     12.47      0.00
    1    5    1    -23.37      0.00
    2    5    1     33.32      0.00
    3    5    1     -9.67      0.00
    1    6    1     18.45      0.00
    2    6    1    -38.09      0.00
    3    6    1     10.78      0.00
    4    6    1     16.83      0.00
    0    7    1    -26.60      0.00
    1    7    1    -25.01      0.00
    2    7    1      5.40      0.00
    3    7    1     19.90      0.00
    4    7    1      7.03      0.00
    5    7    1     14.52      0.00
    1    8    1     -3.42      0.00
    2    8    1     -8.78      0.00
    3    8    1      5.10      0.00
    4    8    1      2.87      0.00
    5    8    1     25.44      0.00
    0    9    1     -1.39      0.00
    1    9    1      6.77      0.00
    2    9    1     -0.02      0.00
    3    9    1      2.59      0.00
    4    9    1      0.06      0.00
    5    9    1     -0.22      0.00
    6    9    1     12.27      0.00
    1   10    1      8.25      0.00
    2   10    1     -5.28      0.00
    3   10    1     -6.28      0.00
    4   10    1      7.34      0.00
    5   10    1     -4.14      0.00
    6   10    1      9.25      0.00
    0   11    1      7.72      0.00
    1   11    1      1.97      0.00
    2   11    1     -6.22      0.00
    3   11    1      0.12      0.00
    4   11    1      0.06      0.00
    5   11    1      1.91      0.00
    6   11    1      2.12      0.00
    1   12    1      1.74      0.00
    2   12    1      9.92      0.00
    3   12    1     -5.86      0.00
    4   12    1      0.42      0.00
    5   12    1      0.18      0.00
    6   12    1      1.34      0.00
    7   12    1      2.42      0.00
    0   13    1     -0.15      0.00
    1   13    1      4.94      0.00
    2   13    1      9.53      0.00
    3   13    1     -9.17      0.00
    4   13    1     -6.42      0.00
    5   13    1     -8.44      0.00
    6   13    1      9.28      0.00
    1   14    1     -5.33      0.00
    2   14    1     -0.77      0.00
    3   14    1     -2.07      0.00
    4   14    1     29.34      0.00
    5   14    1     12.86      0.00
    6   14    1     -2.34      0.00
    7   14    1    -21.16      0.00
    0   15    1     -6.34      0.00
    1   15    1     -1.09      0.00
    2   15    1      2.83      0.00
    3   15    1     -1.78      0.00
    4   15    1      2.86      0.00
    5   15    1     -3.67      0.00
    6   15    1     -1.21      0.00
    7   15    1    -11.54      0.00
    1   16    1     -8.47      0.00
    2   16    1      7.51      0.00
    3   16    1      5.42      0.00
    4   16    1     -0.09      0.00
    5   16    1     -3.65      0.00
    6   16    1      9.82      0.00
    7   16    1      1.13      0.00
    0   17    1     -5.10      0.00
    1   17    1      1.57      0.00
    2   17    1     12.35      0.00
    3   17    1     -9.62      0.00
    4   17    1     -7.16      0.00
    5   17    1      4.22      0.00
    6   17    1     -4.79      0.00
    7   17    1     23.16      0.00
    1   18    1      8.60      0.00
    2   18    1     -8.68      0.00
    3   18    1     -4.46      0.00
    4   18    1      8.78      0.00
    5   18    1     -6.44      0.00
    6   18    1      3.64      0.00
    7   18    1     14.61      0.00
    0   19    1     -6.86      0.00
    1   19    1    -10.60      0.00
    2   19    1     -7.72      0.00
    3   19    1     35.87      0.00
    4   19    1     -5.47      0.00
    5   19    1     -9.46      0.00
    6   19    1      2.68      0.00
    7   19    1     30.10      0.00
    1   20    1      6.79      0.00
    2   20    1     -2.52      0.00
    3   20    1      2.74      0.00
    4   20    1     -2.39      0.00
    5   20    1      6.87      0.00
    6   20    1     -6.86      0.00
    7   20    1     -8.05      0.00
    1    1    2   -559.13      0.00
    0    2    2     24.28      0.00
    1    2    2   -107.29      0.00
    2    2    2     33.47      0.00
    1    3    2     34.12      0.00
    2    3    2    -44.43      0.00
    3    3    2    -73.36      0.00
    0    4    2     -6.17      0.00
    1    4    2     51.68      0.00
    2    4    2    -31.39      0.00
    3    4    2    -41.32      0.00
    1    5    2      0.82      0.00
    2    5    2    -17.16      0.00
    3    5    2    -21.97      0.00
    0    6    2    -13.21      0.00
    1    6    2    -26.53      0.00
    2    6    2     19.13      0.00
    3    6    2      1.57      0.00
    4    6    2     12.27      0.00
    1    7    2    -20.43      0.00
    2    7    2      6.36      0.00
    3    7    2     -7.33      0.00
    4    7    2      6.44      0.00
    5    7    2    -14.76      0.00
    0    8    2    -11.31      0.00
    1    8    2     -0.28      0.00
    2    8    2    -12.39      0.00
    3    8    2     -8.38      0.00
    4    8    2     -1.41      0.00
    5    8    2     -5.91      0.00
    1    9    2      9.97      0.00
    2    9    2     17.73      0.00
    3    9    2     -3.79      0.00
    4    9    2     -1.36      0.00
    5    9    2     11.31      0.00
    6    9    2      8.13      0.00
    0   10    2     -4.60      0.00
    1   10    2     10.11      0.00
    2   10    2      0.46      0.00
    3   10    2     -0.61      0.00
    4   10    2     -0.72      0.00
    5   10    2     -1.94      0.00
    6   10    2    -11.67      0.00
    1   11    2      1.20      0.00
    2   11    2      1.96      0.00
    3   11    2      0.22      0.00
    4   11    2     -4.41      0.00
    5   11    2      3.70      0.00
    6   11    2     -8.37      0.00
    7   11    2    -23.68      0.00
    0   12    2     13.12      0.00
    1   12    2      8.85      0.00
    2   12    2      6.95      0.00
    3   12    2     -5.89      0.00
    4   12    2     -7.51      0.00
    5   12    2     11.83      0.00
    6   12    2      3.60      0.00
    7   12    2     12.57      0.00
    1   13    2      3.66      0.00
    2   13    2      5.51      0.00
    3   13    2     -2.99      0.00
    4   13    2     -0.77      0.00
    5   13    2     -3.74      0.00
    6   13    2      2.90      0.00
    0   14    2     -7.77      0.00
    1   14    2     -2.32      0.00
    2   14    2     11.98      0.00
    3   14    2     -5.25      0.00
    4   14    2    -10.41      0.00
    5   14    2    -11.82      0.00
    6   14    2      5.00      0.00
    7   14    2      1.10      0.00
    1   15    2     -9.63      0.00
    2   15    2     -3.35      0.00
    3   15    2     -4.78      0.00
    4   15    2      1.72      0.00
    5   15    2     -3.43      0.00
    6   15    2     10.80      0.00
    7   15    2     19.63      0.00
    0   16    2     -7.01      0.00
    1   16    2      4.23      0.00
    2   16    2     -1.81      0.00
    3   16    2     11.52      0.00
    4   16    2     12.47      0.00
    5   16    2      0.16      0.00
    6   16    2      6.55      0.00
    7   16    2     -8.81      0.00
    8   16    2     -0.90      0.00
    1   17    2     -4.16      0.00
    2   17    2     25.24      0.00
    3   17    2     -5.08      0.00
    4   17    2     -0.10      0.00
    5   17    2     -3.63      0.00
    6   17    2    -10.50      0.00
    7   17    2     25.33      0.00
    8   17    2     -8.02      0.00
    0   18    2     20.42      0.00
    1   18    2      4.08      0.00
    2   18    2    -12.43      0.00
    3   18    2      1.71      0.00
    4   18    2     -1.96      0.00
    5   18    2     -4.85      0.00
    6   18    2     -9.15      0.00
    7   18    2     -1.90      0.00
    8   18    2     -7.54      0.00
    1   19    2      1.29      0.00
    2   19    2     -6.50      0.00
    3   19    2    -14.62      0.00
    4   19    2     -1.69      0.00
    5   19    2      4.06      0.00
    6   19    2      9.94      0.00
    7   19    2     -9.37      0.00
    8   19    2     20.68      0.00
    0   20    2     -2.42      0.00
    1   20    2     -3.43      0.00
    2   20    2     -0.21      0.00
    3   20    2      5.96      0.00
    4   20    2      6.25      0.00
    5   20    2     -4.46      0.00
    6   20    2      6.96      0.00
    7   20    2     -2.03      0.00
    0    1    3    131.08      0.00
    1    2    3    -88.61      0.00
    0    3    3    118.83      0.00
    1    3    3    -84.35      0.00
    2    3    3    -22.29      0.00
    1    4    3    -17.05      0.00
    2    4    3    -30.71      0.00
    3    4    3    -21.59      0.00
    0    5    3     -8.54      0.00
    1    5    3      5.37      0.00
    2    5    3    -82.27      0.00
    3    5    3    -10.92      0.00
    4    5    3     -4.15      0.00
    1    6    3      5.07      0.00
    2    6    3      8.77      0.00
    3    6    3      2.35      0.00
    4    6    3     -3.24      0.00
    5    6    3    -12.51      0.00
    0    7    3     14.78      0.00
    1    7    3     49.83      0.00
    2    7    3    -10.55      0.00
    3    7    3     -7.07      0.00
    4    7    3     -3.83      0.00
    5    7    3    -18.95      0.00
    1    8    3    -12.71      0.00
    2    8    3      7.51      0.00
    3    8    3    -18.56      0.00
    4    8    3     -3.92      0.00
    5    8    3     -8.15      0.00
    6    8    3      7.95      0.00
    0    9    3     -5.03      0.00
    1    9    3    -18.36      0.00
    2    9    3     -2.37      0.00
    3    9    3      1.78      0.00
    4    9    3     -1.64      0.00
    5    9    3      0.29      0.00
    6    9    3     11.79      0.00
    1   10    3      5.60      0.00
    2   10    3      4.23      0.00
    3   10    3      8.61      0.00
    4   10    3     -4.11      0.00
    5   10    3      6.77      0.00
    6   10    3      4.71      0.00
    7   10    3    -11.42      0.00
    0   11    3    -13.41      0.00
    1   11    3      6.28      0.00
    2   11    3      2.08      0.00
    3   11    3     -3.77      0.00
    4   11    3     -4.55      0.00
    5   11    3     -4.34      0.00
    6   11    3      7.09      0.00
    7   11    3      4.94      0.00
    1   12    3    -13.73      0.00
    2   12    3     -2.04      0.00
    3   12    3     -4.54      0.00
    4   12    3     -7.78      0.00
    5   12    3     -2.36      0.00
    6   12    3      1.10      0.00
    7   12    3      6.12      0.00
    0   13    3     -3.56      0.00
    1   13    3      6.82      0.00
    2   13    3     -3.48      0.00
    3   13    3     -1.90      0.00
    4   13    3      0.58      0.00
    5   13    3      6.07      0.00
    6   13    3      0.44      0.00
    1   14    3      6.09      0.00
    2   14    3    -16.32      0.00
    3   14    3     17.89      0.00
    4   14    3      5.41      0.00
    5   14    3    -13.54      0.00
    6   14    3      4.27      0.00
    7   14    3      7.61      0.00
    8   14    3    -13.67      0.00
    0   15    3      1.63      0.00
    1   15    3    -12.40      0.00
    2   15    3     -6.55      0.00
    3   15    3      2.20      0.00
    4   15    3     -6.15      0.00
    5   15    3     -0.42      0.00
    6   15    3     -0.35      0.00
    7   15    3     21.34      0.00
    8   15    3    -11.40      0.00
    1   16    3     -8.17      0.00
    2   16    3     -5.90      0.00
    3   16    3      2.99      0.00
    4   16    3     15.57      0.00
    5   16    3     -3.51      0.00
    6   16    3    -35.71      0.00
    7   16    3     -9.46      0.00
    8   16    3     -5.48      0.00
    0   17    3    -14.17      0.00
    1   17    3      1.66      0.00
    2   17    3     24.04      0.00
    3   17    3     -1.01      0.00
    4   17    3    -10.42      0.00
    5   17    3    -11.64      0.00
    6   17    3    -10.46      0.00
    7   17    3     -3.52      0.00
    8   17    3     -0.25      0.00
    1   18    3     -5.15      0.00
    2   18    3     -6.27      0.00
    3   18    3     -2.17      0.00
    4   18    3     -9.70      0.00
    5   18    3      4.71      0.00
    6   18    3     -3.02      0.00
    7   18    3     12.38      0.00
    8   18    3     11.71      0.00
    0   19    3     14.75      0.00
    1   19    3     -8.97      0.00
    2   19    3    -27.44      0.00
    3   19    3      0.78      0.00
    4   19    3      0.53      0.00
    5   19    3     -5.37      0.00
    6   19    3     20.92      0.00
    7   19    3     -8.02      0.00
    1   20    3      2.79      0.00
    2   20    3     -9.81      0.00
    3   20    3     17.98      0.00
    4   20    3      5.51      0.00
    5   20    3    -15.62      0.00
    6   20    3     -1.93      0.00
    7   20    3     -3.90      0.00
    1   21    3     21.22      0.00
    2   21    3     -8.49      0.00
    3   21    3     -2.49      0.00
    0    0    4    -15.29      0.00
    1    1    4      9.28      0.00
    0    2    4     93.77      0.00
    1    2    4    -11.03      0.00
    2    2    4      3.40      0.00
    1    3    4     44.62      0.00
    2    3    4     11.70      0.00
    3    3    4    -40.45      0.00
    0    4    4    -66.02      0.00
    1    4    4    -35.85      0.00
    2    4    4      8.47      0.00
    3    4    4     21.94      0.00
    4    4    4     14.95      0.00
    1    5    4    -39.01      0.00
    2    5    4    -19.70      0.00
    3    5    4     29.74      0.00
    4    5    4     -5.22      0.00
    5    5    4     21.03      0.00
    0    6    4     26.13      0.00
    1    6    4     18.56      0.00
    2    6    4     -2.17      0.00
    3    6    4      4.41      0.00
    4    6    4     16.69      0.00
    5    6    4    -12.17      0.00
    1    7    4     -1.95      0.00
    2    7    4     10.02      0.00
    3    7    4     -8.88      0.00
    4    7    4      1.81      0.00
    5    7    4     -1.55      0.00
    6    7    4      2.77      0.00
    0    8    4      7.83      0.00
    1    8    4     16.68      0.00
    2    8    4      7.46      0.00
    3    8    4      3.97      0.00
    4    8    4     -4.17      0.00
    5    8    4     -2.95      0.00
    6    8    4    -10.25      0.00
    1    9    4      3.29      0.00
    2    9    4     -6.27      0.00
    3    9    4      6.16      0.00
    4    9    4     -5.11      0.00
    5    9    4      3.76      0.00
    6    9    4     10.46      0.00
    7    9    4    -12.94      0.00
    0   10    4    -10.43      0.00
    1   10    4    -12.60      0.00
    2   10    4      8.62      0.00
    3   10    4      2.33      0.00
    4   10    4     -1.39      0.00
    5   10    4      0.66      0.00
    6   10    4     -0.51      0.00
    7   10    4      9.28      0.00
    1   11    4     -0.51      0.00
    2   11    4      3.03      0.00
    3   11    4      1.89      0.00
    4   11    4      3.70      0.00
    5   11    4      2.51      0.00
    6   11    4     -8.31      0.00
    7   11    4     11.15      0.00
    0   12    4     -0.83      0.00
    1   12    4     -6.97      0.00
    2   12    4      0.58      0.00
    3   12    4     -3.38      0.00
    4   12    4      0.65      0.00
    5   12    4      1.42      0.00
    6   12    4     -4.17      0.00
    7   12    4      4.89      0.00
    8   12    4     14.54      0.00
    1   13    4     -0.58      0.00
    2   13    4     -2.58      0.00
    3   13    4     -0.47      0.00
    4   13    4     -3.32      0.00
    5   13    4      6.49      0.00
    6   13    4      3.08      0.00
    7   13    4    -31.83      0.00
    0   14    4    -20.24      0.00
    1   14    4     20.17      0.00
    2   14    4     -4.25      0.00
    3   14    4      5.05      0.00
    4   14    4      6.00      0.00
    5   14    4     21.67      0.00
    6   14    4      0.61      0.00
    7   14    4     -3.63      0.00
    8   14    4    -13.59      0.00
    1   15    4      4.63      0.00
    2   15    4     -5.47      0.00
    3   15    4    -11.68      0.00
    4   15    4      5.63      0.00
    5   15    4     -6.73      0.00
    6   15    4     -3.48      0.00
    7   15    4      2.62      0.00
    8   15    4     -5.64      0.00
    0   16    4     13.24      0.00
    1   16    4      6.51      0.00
    2   16    4      1.73      0.00
    3   16    4     -4.51      0.00
    4   16    4      3.84      0.00
    5   16    4      7.30      0.00
    6   16    4      1.86      0.00
    7   16    4     12.35      0.00
    8   16    4    -12.72      0.00
    1   17    4     17.12      0.00
    2   17    4    -12.17      0.00
    3   17    4    -16.34      0.00
    4   17    4     -3.85      0.00
    5   17    4     -1.47      0.00
    6   17    4      7.52      0.00
    7   17    4      6.45      0.00
    0   18    4    -14.62      0.00
    1   18    4    -17.82      0.00
    2   18    4     -1.84      0.00
    3   18    4     -6.13      0.00
    4   18    4      7.34      0.00
    5   18    4     -6.29      0.00
    6   18    4     -1.45      0.00
    7   18    4     -3.64      0.00
    1   19    4    -12.70      0.00
    2   19    4     23.27      0.00
    3   19    4     12.24      0.00
    4   19    4      1.87      0.00
    5   19    4      0.88      0.00
    6   19    4      4.32      0.00
    0   20    4     -7.83      0.00
    1   20    4      8.56      0.00
    2   20    4      3.39      0.00
    3   20    4      5.92      0.00
    4   20    4      6.40      0.00
    5   20    4     -2.49      0.00
    6   20    4      0.33      0.00
    1   21    4      1.70      0.00
    2   21    4     -7.42      0.00
    3   21    4    -12.79      0.00
    4   21    4      4.41      0.00
    0    1    5    -33.33      0.00
    1    2    5     74.77      0.00
    0    3    5     41.50      0.00
    1    3    5    -66.44      0.00
    2    3    5     55.66      0.00
    1    4    5     -1.57      0.00
    2    4    5     45.57      0.00
    3    4    5    -37.18      0.00
    0    5    5      9.59      0.00
    1    5    5      8.20      0.00
    2    5    5     26.97      0.00
    3    5    5     -7.31      0.00
    4    5    5     20.93      0.00
    1    6    5     25.88      0.00
    2    6    5      1.99      0.00
    3    6    5     13.86      0.00
    4    6    5      7.64      0.00
    5    6    5     19.45      0.00
    0    7    5     14.10      0.00
    1    7    5     15.78      0.00
    2    7    5     -1.87      0.00
    3    7    5     10.43      0.00
    4    7    5     12.47      0.00
    5    7    5     -6.81      0.00
    6    7    5      2.11      0.00
    1    8    5     20.73      0.00
    2    8    5     11.57      0.00
    3    8    5     -3.82      0.00
    4    8    5    -14.10      0.00
    5    8    5      7.76      0.00
    6    8    5      2.77      0.00
    7    8    5     -5.78      0.00
    0    9    5      0.23      0.00
    1    9    5     -9.20      0.00
    2    9    5      8.18      0.00
    3    9    5    -14.98      0.00
    4    9    5     -2.00      0.00
    5    9    5      1.08      0.00
    6    9    5     -6.91      0.00
    7    9    5     18.26      0.00
    1   10    5     -4.38      0.00
    2   10    5     -1.16      0.00
    3   10    5      3.15      0.00
    4   10    5     -0.35      0.00
    5   10    5     -4.83      0.00
    6   10    5     -5.40      0.00
    7   10    5     -7.95      0.00
    0   11    5     -4.47      0.00
    1   11    5     -1.43      0.00
    2   11    5      6.76      0.00
    3   11    5      6.78      0.00
    4   11    5      2.00      0.00
    5   11    5     -1.03      0.00
    6   11    5     -4.87      0.00
    7   11    5    -21.71      0.00
    8   11    5     -1.94      0.00
    1   12    5      4.18      0.00
    2   12    5      0.22      0.00
    3   12    5     -2.92      0.00
    4   12    5     -0.91      0.00
    5   12    5      9.22      0.00
    6   12    5    -11.47      0.00
    7   12    5     -4.45      0.00
    8   12    5      9.71      0.00
    0   13    5      4.94      0.00
    1   13    5     -0.82      0.00
    2   13    5     -4.39      0.00
    3   13    5      6.17      0.00
    4   13    5      5.62      0.00
    5   13    5    -11.64      0.00
    6   13    5    -10.23      0.00
    7   13    5     22.40      0.00
    1   14    5      6.40      0.00
    2   14    5     -8.83      0.00
    3   14    5     10.12      0.00
    4   14    5    -23.96      0.00
    5   14    5     -3.26      0.00
    6   14    5      1.82      0.00
    7   14    5     13.26      0.00
    0   15    5     11.59      0.00
    1   15    5      6.34      0.00
    2   15    5     -3.26      0.00
    3   15    5      5.91      0.00
    4   15    5     -4.20      0.00
    5   15    5     -2.83      0.00
    6   15    5      8.87      0.00
    7   15    5     25.03      0.00
    1   16    5      4.73      0.00
    2   16    5     -0.27      0.00
    3   16    5      3.64      0.00
    4   16    5      1.86      0.00
    5   16    5      0.81      0.00
    6   16    5      2.45      0.00
    7   16    5     11.78      0.00
    0   17    5     18.80      0.00
    1   17    5     -0.98      0.00
    2   17    5     -5.11      0.00
    3   17    5      2.71      0.00
    4   17    5      1.65      0.00
    5   17    5     13.62      0.00
    6   17    5      3.67      0.00
    1   18    5      1.22      0.00
    2   18    5     -2.76      0.00
    3   18    5      9.08      0.00
    4   18    5     -1.17      0.00
    5   18    5      2.25      0.00
    6   18    5     26.28      0.00
    0   19    5    -25.24      0.00
    1   19    5     23.71      0.00
    2   19    5      6.28      0.00
    3   19    5     -5.57      0.00
    4   19    5      2.07      0.00
    5   19    5      0.29      0.00
    6   19    5      3.49      0.00
    1   20    5      9.81      0.00
    2   20    5     -3.77      0.00
    3   20    5     10.83      0.00
    4   20    5     -0.37      0.00
    5   20    5     -7.86      0.00
    0   21    5      4.24      0.00
    1   21    5     -7.22      0.00
    2   21    5      0.58      0.00
    3   21    5     -2.68      0.00
    4   21    5     10.47      0.00
    0    0    6    -65.41      0.00
    1    1    6     23.86      0.00
    0    2    6    -58.58      0.00
    1    2    6    -30.14      0.00
    2    2    6    -30.11      0.00
    1    3    6     60.74      0.00
    2    3    6    -34.31      0.00
    3    3    6     55.33      0.00
    0    4    6     70.39      0.00
    1    4    6    -47.76      0.00
    2    4    6    -10.27      0.00
    3    4    6     17.93      0.00
    4    4    6     35.62      0.00
    1    5    6    -24.92      0.00
    2    5    6    -11.16      0.00
    3    5    6    -10.45      0.00
    4    5    6     -0.56      0.00
    5    5    6     18.18      0.00
    0    6    6     28.59      0.00
    1    6    6      4.05      0.00
    2    6    6     -5.13      0.00
    3    6    6     15.77      0.00
    4    6    6      3.76      0.00
    5    6    6    -17.39      0.00
    6    6    6      1.92      0.00
    1    7    6      6.53      0.00
    2    7    6      6.83      0.00
    3    7    6     -0.35      0.00
    4    7    6     -6.87      0.00
    5    7    6    -13.06      0.00
    6    7    6     -3.60      0.00
    7    7    6      2.92      0.00
    0    8    6     -2.43      0.00
    1    8    6      9.24      0.00
    2    8    6     -9.46      0.00
    3    8    6     -1.22      0.00
    4    8    6    -22.89      0.00
    5    8    6      0.07      0.00
    6    8    6     -3.17      0.00
    7    8    6     -7.55      0.00
    1    9    6     -1.56      0.00
    2    9    6    -10.38      0.00
    3    9    6     13.99      0.00
    4    9    6      2.78      0.00
    5    9    6     -9.80      0.00
    6    9    6     12.01      0.00
    7    9    6      2.89      0.00
    0   10    6      1.36      0.00
    1   10    6     -8.70      0.00
    2   10    6      5.56      0.00
    3   10    6      5.55      0.00
    4   10    6      4.81      0.00
    5   10    6     -3.79      0.00
    6   10    6     -5.77      0.00
    7   10    6     -1.70      0.00
    8   10    6     14.86      0.00
    1   11    6     -3.96      0.00
    2   11    6      4.67      0.00
    3   11    6     -1.02      0.00
    4   11    6      0.99      0.00
    5   11    6     -2.13      0.00
    6   11    6      2.01      0.00
    7   11    6     -5.80      0.00
    8   11    6      5.94      0.00
    0   12    6    -10.34      0.00
    1   12    6     -8.71      0.00
    2   12    6     -6.80      0.00
    3   12    6     -5.88      0.00
    4   12    6     -5.08      0.00
    5   12    6     11.35      0.00
    6   12    6     17.14      0.00
    7   12    6     -8.45      0.00
    8   12    6    -68.98      0.00
    1   13    6      1.56      0.00
    2   13    6     -5.62      0.00
    3   13    6      6.99      0.00
    4   13    6     16.66      0.00
    5   13    6     12.86      0.00
    6   13    6    -10.86      0.00
    7   13    6     -9.02      0.00
    0   14    6      6.22      0.00
    1   14    6      7.86      0.00
    2   14    6      5.30      0.00
    3   14    6      9.06      0.00
    4   14    6     14.45      0.00
    5   14    6      9.37      0.00
    6   14    6     -3.35      0.00
    1   15    6     -7.26      0.00
    2   15    6    -17.78      0.00
    3   15    6     -9.44      0.00
    4   15    6     -6.54      0.00
    5   15    6      2.17      0.00
    6   15    6     -7.75      0.00
    0   16    6      4.03      0.00
    1   16    6      0.36      0.00
    2   16    6    -11.82      0.00
    3   16    6      8.28      0.00
    4   16    6      5.46      0.00
    5   16    6    -15.58      0.00
    6   16    6      0.05      0.00
    1   17    6      7.73      0.00
    2   17    6      2.23      0.00
    3   17    6     -3.81      0.00
    4   17    6     -5.24      0.00
    5   17    6      2.20      0.00
    6   17    6     -1.93      0.00
    0   18    6     -5.46      0.00
    1   18    6      4.28      0.00
    2   18    6     -5.89      0.00
    3   18    6     -8.93      0.00
    4   18    6     -5.90      0.00
    5   18    6      1.97      0.00
    6   18    6     -6.53      0.00
    1   19    6      3.07      0.00
    2   19    6     -1.13      0.00
    3   19    6     -1.29      0.00
    4   19    6     -7.68      0.00
    5   19    6     -9.41      0.00
    6   19    6     -5.42      0.00
    0   20    6      0.56      0.00
    1   20    6      4.58      0.00
    2   20    6      6.40      0.00
    3   20    6     13.53      0.00
    4   20    6    -15.54      0.00
    1   21    6     -1.70      0.00
    2   21    6     -1.32      0.00
    3   21    6     -4.39      0.00
    0    1    7    -26.77      0.00
    1    2    7    -18.67      0.00
    0    3    7      8.30      0.00
    1    3    7    -37.99      0.00
    2    3    7    -60.24      0.00
    1    4    7     -6.38      0.00
    2    4    7     13.91      0.00
    3    4    7    -14.22      0.00
    0    5    7    -63.18      0.00
    1    5    7      7.13      0.00
    2    5    7     11.09      0.00
    3    5    7     -8.92      0.00
    4    5    7     14.31      0.00
    1    6    7     -3.45      0.00
    2    6    7     11.80      0.00
    3    6    7     -5.80      0.00
    4    6    7     -6.04      0.00
    5    6    7     -6.63      0.00
    0    7    7      5.19      0.00
    1    7    7      5.80      0.00
    2    7    7     -7.46      0.00
    3    7    7      7.00      0.00
    4    7    7     -7.47      0.00
    5    7    7      3.14      0.00
    6    7    7     -9.53      0.00
    1    8    7     -3.27      0.00
    2    8    7     -3.20      0.00
    3    8    7    -15.85      0.00
    4    8    7     -2.02      0.00
    5    8    7      4.43      0.00
    6    8    7      5.82      0.00
    7    8    7      0.48      0.00
    0    9    7    -12.61      0.00
    1    9    7     -4.99      0.00
    2    9    7     -4.99      0.00
    3    9    7     -7.72      0.00
    4    9    7      5.06      0.00
    5    9    7      1.59      0.00
    6    9    7     -2.30      0.00
    7    9    7     12.89      0.00
    8    9    7    -14.89      0.00
    1   10    7     -4.27      0.00
    2   10    7     -1.67      0.00
    3   10    7      6.38      0.00
    4   10    7     -1.07      0.00
    5   10    7      3.28      0.00
    6   10    7      3.11      0.00
    7   10    7      3.18      0.00
    8   10    7     -0.37      0.00
    0   11    7     -0.19      0.00
    1   11    7    -12.58      0.00
    2   11    7      2.53      0.00
    3   11    7     14.22      0.00
    4   11    7      3.78      0.00
    5   11    7     -1.65      0.00
    6   11    7      7.09      0.00
    7   11    7     -3.93      0.00
    8   11    7      5.10      0.00
    1   12    7     -2.37      0.00
    2   12    7      1.73      0.00
    3   12    7     -9.34      0.00
    4   12    7     10.15      0.00
    5   12    7     -2.62      0.00
    6   12    7      4.93      0.00
    7   12    7     -0.16      0.00
    8   12    7     -3.32      0.00
    0   13    7     -6.17      0.00
    1   13    7     -0.51      0.00
    2   13    7      4.93      0.00
    3   13    7      2.68      0.00
    4   13    7     -8.83      0.00
    5   13    7     -7.75      0.00
    6   13    7     -6.39      0.00
    7   13    7      2.12      0.00
    1   14    7     11.97      0.00
    2   14    7     -3.43      0.00
    3   14    7    -25.45      0.00
    4   14    7      1.42      0.00
    5   14    7      6.46      0.00
    6   14    7     -1.38      0.00
    7   14    7     11.17      0.00
    0   15    7      3.21      0.00
    1   15    7     18.75      0.00
    2   15    7    -15.98      0.00
    3   15    7     13.29      0.00
    4   15    7      5.02      0.00
    5   15    7     -9.69      0.00
    6   15    7      0.48      0.00
    7   15    7    -19.39      0.00
    1   16    7      5.86      0.00
    2   16    7      5.82      0.00
    3   16    7      6.83      0.00
    4   16    7      6.78      0.00
    5   16    7      7.12      0.00
    6   16    7      0.27      0.00
    7   16    7      2.50      0.00
    0   17    7     -6.79      0.00
    1   17    7      8.16      0.00
    2   17    7     -0.54      0.00
    3   17    7     -6.35      0.00
    4   17    7      6.90      0.00
    5   17    7      8.50      0.00
    6   17    7     -0.83      0.00
    7   17    7     -3.98      0.00
    1   18    7     -0.60      0.00
    2   18    7      1.86      0.00
    3   18    7      0.99      0.00
    4   18    7     -7.55      0.00
    5   18    7      3.38      0.00
    6   18    7      0.69      0.00
    0   19    7     -8.49      0.00
    1   19    7      0.46      0.00
    2   19    7      2.09      0.00
    3   19    7      6.00      0.00
    4   19    7      8.47      0.00
    5   19    7     -8.50      0.00
    6   19    7     10.53      0.00
    1   20    7     10.61      0.00
    2   20    7     -3.08      0.00
    0   21    7      6.78      0.00
    1   21    7      4.21      0.00
    2   21    7      0.82      0.00
    0    0    8    -96.70      0.00
    1    1    8     -1.85      0.00
    0    2    8      7.94      0.00
    1    2    8     36.20      0.00
    2    2    8      9.50      0.00
    1    3    8    -13.07      0.00
    2    3    8    -13.00      0.00
    3    3    8    -51.55      0.00
    0    4    8    -89.87      0.00
    1    4    8      2.53      0.00
    2    4    8    -13.80      0.00
    3    4    8      2.86      0.00
    4    4    8    -28.32      0.00
    1    5    8    -11.73      0.00
    2    5    8     18.77      0.00
    3    5    8      8.50      0.00
    4    5    8     -7.03      0.00
    5    5    8      5.21      0.00
    0    6    8     -4.60      0.00
    1    6    8     -2.02      0.00
    2    6    8     16.61      0.00
    3    6    8      1.20      0.00
    4    6    8    -16.83      0.00
    5    6    8     -6.36      0.00
    6    6    8      0.46      0.00
    1    7    8      2.48      0.00
    2    7    8     -5.39      0.00
    3    7    8     -7.27      0.00
    4    7    8     -0.81      0.00
    5    7    8     -4.76      0.00
    6    7    8      3.38      0.00
    7    7    8     -6.64      0.00
    0    8    8      0.98      0.00
    1    8    8    -14.29      0.00
    2    8    8      1.02      0.00
    3    8    8     -0.65      0.00
    4    8    8      6.16      0.00
    5    8    8      1.54      0.00
    6    8    8     -2.33      0.00
    7    8    8      1.32      0.00
    8    8    8     11.55      0.00
    1    9    8      2.95      0.00
    2    9    8     -1.43      0.00
    3    9    8     -0.40      0.00
    4    9    8     -1.55      0.00
    5    9    8     13.92      0.00
    6    9    8     -2.90      0.00
    7    9    8     -8.36      0.00
    8    9    8     -9.71      0.00
    0   10    8    -11.75      0.00
    1   10    8      3.68      0.00
    2   10    8     -8.87      0.00
    3   10    8      1.27      0.00
    4   10    8     -9.20      0.00
    5   10    8      5.83      0.00
    6   10    8     -1.82      0.00
    7   10    8      1.41      0.00
    8   10    8     -4.58      0.00
    1   11    8      0.49      0.00
    2   11    8     18.12      0.00
    3   11    8      4.84      0.00
    4   11    8     -7.61      0.00
    5   11    8      1.08      0.00
    6   11    8      4.60      0.00
    7   11    8      3.79      0.00
    8   11    8     -8.60      0.00
    0   12    8      3.17      0.00
    1   12    8     -5.07      0.00
    2   12    8      7.15      0.00
    3   12    8     -9.81      0.00
    4   12    8      2.82      0.00
    5   12    8     -4.20      0.00
    6   12    8      7.08      0.00
    7   12    8     10.18      0.00
    8   12    8     19.30      0.00
    1   13    8     -0.37      0.00
    2   13    8     -8.76      0.00
    3   13    8      9.62      0.00
    4   13    8      3.97      0.00
    5   13    8    -22.33      0.00
    6   13    8      6.80      0.00
    7   13    8     12.35      0.00
    0   14    8     17.83      0.00
    1   14    8     -1.83      0.00
    2   14    8     -8.39      0.00
    3   14    8      0.75      0.00
    4   14    8     -0.95      0.00
    5   14    8     -0.22      0.00
    6   14    8     -5.11      0.00
    7   14    8     17.37      0.00
    1   15    8    -18.87      0.00
    2   15    8     -0.99      0.00
    3   15    8      5.45      0.00
    4   15    8     -1.06      0.00
    5   15    8      3.52      0.00
    6   15    8      0.70      0.00
    7   15    8      1.99      0.00
    0   16    8      3.73      0.00
    1   16    8     -4.47      0.00
    2   16    8      0.37      0.00
    3   16    8      4.11      0.00
    4   16    8    -16.32      0.00
    5   16    8     -7.44      0.00
    6   16    8      3.58      0.00
    7   16    8      8.64      0.00
    1   17    8      2.23      0.00
    2   17    8     -8.26      0.00
    3   17    8     -2.44      0.00
    4   17    8    -12.83      0.00
    5   17    8     -2.01      0.00
    6   17    8      1.65      0.00
    7   17    8      2.93      0.00
    0   18    8     -4.43      0.00
    1   18    8     -2.29      0.00
    2   18    8      8.15      0.00
    3   18    8      1.45      0.00
    4   18    8     -0.28      0.00
    5   18    8     30.85      0.00
    6   18    8      0.28      0.00
    7   18    8     -2.90      0.00
    1   19    8     -0.79      0.00
    2   19    8     -7.69      0.00
    3   19    8      9.34      0.00
    4   19    8     -6.12      0.00
    5   19    8      9.52      0.00
    6   19    8     -2.46      0.00
    7   19    8    -45.62      0.00
    0   20    8      6.76      0.00
    1   20    8      8.25      0.00
    2   20    8    -11.97      0.00
    0    1    9      1.26      0.00
    1    2    9     -4.73      0.00
    0    3    9     29.02      0.00
    1    3    9    -13.44      0.00
    2    3    9     -5.23      0.00
    1    4    9     26.17      0.00
    2    4    9     18.22      0.00
    3    4    9     15.94      0.00
    0    5    9    -23.24      0.00
    1    5    9     -5.51      0.00
    2    5    9     -1.97      0.00
    3    5    9      4.11      0.00
    4    5    9     -4.47      0.00
    1    6    9      6.51      0.00
    2    6    9      0.62      0.00
    3    6    9     -1.99      0.00
    4    6    9     -2.84      0.00
    5    6    9     -6.83      0.00
    0    7    9      7.29      0.00
    1    7    9     -5.00      0.00
    2    7    9     15.06      0.00
    3    7    9     -5.99      0.00
    4    7    9     -3.19      0.00
    5    7    9      4.30      0.00
    6    7    9     -1.34      0.00
    1    8    9     -9.12      0.00
    2    8    9     -7.63      0.00
    3    8    9      2.26      0.00
    4    8    9      1.81      0.00
    5    8    9     10.85      0.00
    6    8    9      1.68      0.00
    7    8    9     -5.36      0.00
    0    9    9     15.00      0.00
    1    9    9     -5.05      0.00
    2    9    9     -6.67      0.00
    3    9    9      7.88      0.00
    4    9    9      7.54      0.00
    5    9    9     -3.07      0.00
    6    9    9      5.96      0.00
    7    9    9     -2.60      0.00
    8    9    9    -16.53      0.00
    1   10    9      1.40      0.00
    2   10    9     -6.13      0.00
    3   10    9     -4.01      0.00
    4   10    9    -13.44      0.00
    5   10    9     -4.27      0.00
    6   10    9      7.20      0.00
    7   10    9      3.03      0.00
    8   10    9      8.81      0.00
    9   10    9     20.76      0.00
    0   11    9     -2.84      0.00
    1   11    9     -3.49      0.00
    2   11    9      4.81      0.00
    3   11    9     -0.33      0.00
    4   11    9     -7.10      0.00
    5   11    9      0.24      0.00
    6   11    9      7.50      0.00
    7   11    9     -0.93      0.00
    8   11    9     19.68      0.00
    1   12    9     -4.41      0.00
    2   12    9      8.93      0.00
    3   12    9      2.17      0.00
    4   12    9     16.95      0.00
    5   12    9     -9.53      0.00
    6   12    9     -0.89      0.00
    7   12    9    -17.40      0.00
    8   12    9      3.44      0.00
    9   12    9    -91.97      0.00
    0   13    9     -4.61      0.00
    1   13    9      0.88      0.00
    2   13    9      3.43      0.00
    3   13    9      2.51      0.00
    4   13    9      7.69      0.00
    5   13    9    -30.88      0.00
    6   13    9      5.13      0.00
    7   13    9    -32.70      0.00
    1   14    9      8.90      0.00
    2   14    9     -3.17      0.00
    3   14    9    -10.30      0.00
    4   14    9      7.51      0.00
    5   14    9      1.30      0.00
    6   14    9     11.19      0.00
    7   14    9      5.17      0.00
    0   15    9      8.49      0.00
    1   15    9      8.82      0.00
    2   15    9      4.21      0.00
    3   15    9    -10.07      0.00
    4   15    9      2.67      0.00
    5   15    9     -6.84      0.00
    6   15    9    -27.23      0.00
    7   15    9      8.05      0.00
    1   16    9      0.23      0.00
    2   16    9     -5.68      0.00
    3   16    9     16.33      0.00
    4   16    9    -12.57      0.00
    5   16    9     -3.47      0.00
    6   16    9      7.86      0.00
    7   16    9      8.73      0.00
    0   17    9    -16.51      0.00
    1   17    9     -4.88      0.00
    2   17    9     -5.39      0.00
    3   17    9      6.01      0.00
    4   17    9      4.11      0.00
    5   17    9     11.68      0.00
    6   17    9     -0.61      0.00
    7   17    9     -4.83      0.00
    1   18    9    -15.56      0.00
    2   18    9    -12.51      0.00
    3   18    9     -0.20      0.00
    4   18    9     36.91      0.00
    5   18    9      0.18      0.00
    6   18    9     -5.99      0.00
    7   18    9    -12.74      0.00
    0   19    9      2.05      0.00
    1   19    9     -3.60      0.00
    2   19    9     -8.08      0.00
    3   19    9     -5.41      0.00
    4   19    9      2.07      0.00
    5   19    9     -3.84      0.00
    6   19    9      0.89      0.00
    1   20    9      4.89      0.00
    2   20    9     11.80      0.00
    0    0   10     70.16      0.00
    1    1   10     -7.48      0.00
    1    2   10      9.94      0.00
    2    2   10    -12.54      0.00
    1    3   10      0.95      0.00
    2    3   10     -9.17      0.00
    3    3   10      2.74      0.00
    0    4   10     -1.45      0.00
    1    4   10      0.73      0.00
    2    4   10     22.00      0.00
    3    4   10      5.38      0.00
    4    4   10     10.56      0.00
    1    5   10     11.73      0.00
    2    5   10     10.80      0.00
    3    5   10     14.10      0.00
    4    5   10      1.83      0.00
    5    5   10     11.52      0.00
    0    6   10     10.52      0.00
    1    6   10     -8.56      0.00
    2    6   10     -1.48      0.00
    3    6   10     -8.17      0.00
    4    6   10      2.42      0.00
    5    6   10      1.86      0.00
    6    6   10    -12.01      0.00
    1    7   10     -1.16      0.00
    2    7   10     -5.14      0.00
    3    7   10     -2.42      0.00
    4    7   10     -1.53      0.00
    5    7   10      8.79      0.00
    6    7   10      6.04      0.00
    7    7   10     19.10      0.00
    0    8   10     -0.63      0.00
    1    8   10     -5.04      0.00
    2    8   10     -0.26      0.00
    3    8   10      6.76      0.00
    4    8   10      5.03      0.00
    5    8   10     -2.13      0.00
    6    8   10     -4.72      0.00
    7    8   10      7.15      0.00
    8    8   10      3.13      0.00
    1    9   10      0.08      0.00
    2    9   10      8.28      0.00
    3    9   10      5.65      0.00
    4    9   10    -14.25      0.00
    5    9   10      1.42      0.00
    6    9   10     -3.09      0.00
    7    9   10      6.97      0.00
    8    9   10     -1.42      0.00
    9    9   10      3.97      0.00
    0   10   10      5.55      0.00
    1   10   10      6.01      0.00
    2   10   10      0.90      0.00
    3   10   10     -6.67      0.00
    4   10   10     -0.24      0.00
    5   10   10     -0.21      0.00
    6   10   10     -2.29      0.00
    7   10   10     -1.30      0.00
    8   10   10     -3.58      0.00
    1   11   10      4.03      0.00
    2   11   10      8.71      0.00
    3   11   10     -0.77      0.00
    4   11   10     11.24      0.00
    5   11   10     -2.23      0.00
    6   11   10     -7.37      0.00
    7   11   10      0.83      0.00
    8   11   10      0.93      0.00
    9   11   10      6.13      0.00
    0   12   10      4.36      0.00
    1   12   10     -6.12      0.00
    2   12   10     -2.56      0.00
    3   12   10      6.24      0.00
    4   12   10     -6.24      0.00
    5   12   10     -7.02      0.00
    6   12   10     -1.48      0.00
    7   12   10      6.81      0.00
    8   12   10    -29.50      0.00
    9   12   10     -4.68      0.00
   10   12   10    -10.88      0.00
    1   13   10      3.11      0.00
    2   13   10     -4.57      0.00
    3   13   10     -5.80      0.00
    4   13   10     -3.42      0.00
    5   13   10     10.74      0.00
    6   13   10     15.64      0.00
    7   13   10     -0.56      0.00
    8   13   10    -44.53      0.00
    9   13   10      5.15      0.00
   10   13   10     -5.68      0.00
    0   14   10     10.36      0.00
    1   14   10      4.71      0.00
    2   14   10     -2.92      0.00
    3   14   10      0.46      0.00
    4   14   10     -8.41      0.00
    5   14   10      0.57      0.00
    6   14   10      5.78      0.00
    7   14   10      7.66      0.00
    8   14   10    -33.81      0.00
    1   15   10     -3.17      0.00
    2   15   10     10.47      0.00
    3   15   10     -3.53      0.00
    4   15   10     -2.94      0.00
    5   15   10      9.87      0.00
    6   15   10     -8.15      0.00
    7   15   10     -3.66      0.00
    8   15   10     -0.68      0.00
    0   16   10     -6.23      0.00
    1   16   10     -4.08      0.00
    2   16   10      8.49      0.00
    3   16   10     -7.34      0.00
    4   16   10      3.63      0.00
    5   16   10     11.00      0.00
    6   16   10    -13.56      0.00
    7   16   10    -11.33      0.00
    1   17   10      7.88      0.00
    2   17   10     -7.94      0.00
    3   17   10     -8.95      0.00
    4   17   10     -9.94      0.00
    5   17   10     13.50      0.00
    6   17   10     -5.99      0.00
    7   17   10     -5.39      0.00
    0   18   10      9.43      0.00
    1   18   10     -5.26      0.00
    2   18   10     -4.35      0.00
    3   18   10     24.34      0.00
    4   18   10     -1.74      0.00
    5   18   10     -3.44      0.00
    6   18   10      0.25      0.00
    7   18   10     -5.21      0.00
    1   19   10      9.62      0.00
    2   19   10     -7.93      0.00
    3   19   10      4.89      0.00
    4   19   10     -5.25      0.00
    5   19   10     -1.31      0.00
    6   19   10      0.22      0.00
    1   20   10     33.58      0.00
    1    2   11     26.77      0.00
    0    3   11    -20.17      0.00
    1    3   11     -2.34      0.00
    2    3   11      4.76      0.00
    1    4   11     -0.90      0.00
    2    4   11     -1.37      0.00
    3    4   11     -3.36      0.00
    0    5   11      5.43      0.00
    1    5   11      0.53      0.00
    2    5   11     21.96      0.00
    3    5   11      8.79      0.00
    4    5   11    -10.08      0.00
    1    6   11      6.37      0.00
    2    6   11     -2.33      0.00
    3    6   11     -3.90      0.00
    4    6   11     -5.23      0.00
    5    6   11     -2.64      0.00
    0    7   11    -11.09      0.00
    1    7   11     -4.42      0.00
    2    7   11     -7.80      0.00
    3    7   11     -0.33      0.00
    4    7   11      2.84      0.00
    5    7   11     -4.72      0.00
    6    7   11      1.01      0.00
    1    8   11     -0.33      0.00
    2    8   11      4.11      0.00
    3    8   11     -2.73      0.00
    4    8   11     11.38      0.00
    5    8   11     12.89      0.00
    6    8   11    -11.45      0.00
    7    8   11      1.01      0.00
    0    9   11      4.53      0.00
    1    9   11     -0.07      0.00
    2    9   11      3.48      0.00
    3    9   11      9.69      0.00
    4    9   11      4.26      0.00
    5    9   11     11.61      0.00
    6    9   11     -5.51      0.00
    7    9   11     -8.87      0.00
    8    9   11      0.49      0.00
    1   10   11     -6.26      0.00
    2   10   11      7.07      0.00
    3   10   11     -7.21      0.00
    4   10   11     -1.07      0.00
    5   10   11     -6.16      0.00
    6   10   11    -10.63      0.00
    7   10   11    -15.86      0.00
    8   10   11     -1.23      0.00
    9   10   11     -6.38      0.00
    0   11   11      5.72      0.00
    1   11   11      2.88      0.00
    2   11   11      7.54      0.00
    3   11   11     -8.31      0.00
    4   11   11      3.69      0.00
    5   11   11      4.38      0.00
    6   11   11     -4.51      0.00
    7   11   11     -4.96      0.00
    8   11   11     18.48      0.00
    9   11   11     -5.37      0.00
   10   11   11     -0.92      0.00
    1   12   11     -0.63      0.00
    2   12   11    -13.03      0.00
    3   12   11     -8.15      0.00
    4   12   11     -7.20      0.00
    5   12   11     10.56      0.00
    6   12   11     21.87      0.00
    7   12   11      2.53      0.00
    8   12   11     43.99      0.00
    9   12   11     -5.49      0.00
   10   12   11     -2.94      0.00
    0   13   11     -7.95      0.00
    1   13   11     -2.44      0.00
    2   13   11      0.46      0.00
    3   13   11    -19.74      0.00
    4   13   11     19.72      0.00
    5   13   11    -12.37      0.00
    6   13   11    -11.25      0.00
    7   13   11     -1.00      0.00
    8   13   11      9.37      0.00
    9   13   11    -13.60      0.00
   10   13   11      3.77      0.00
    1   14   11    -11.20      0.00
    2   14   11      5.79      0.00
    3   14   11     14.81      0.00
    4   14   11     15.59      0.00
    5   14   11     -9.48      0.00
    6   14   11     -6.57      0.00
    7   14   11    -11.26      0.00
    8   14   11      4.03      0.00
    0   15   11    -11.51      0.00
    1   15   11     -2.24      0.00
    2   15   11     20.18      0.00
    3   15   11     -0.21      0.00
    4   15   11    -10.72      0.00
    5   15   11     17.22      0.00
    6   15   11     13.58      0.00
    7   15   11      3.32      0.00
    8   15   11      1.90      0.00
    1   16   11    -10.13      0.00
    2   16   11     -8.55      0.00
    3   16   11      0.91      0.00
    4   16   11      2.04      0.00
    5   16   11     -0.45      0.00
    6   16   11      4.36      0.00
    7   16   11     -9.51      0.00
    8   16   11      0.93      0.00
    0   17   11     11.27      0.00
    1   17   11     -3.41      0.00
    2   17   11    -12.89      0.00
    3   17   11      9.61      0.00
    4   17   11      6.23      0.00
    5   17   11     -4.70      0.00
    6   17   11      2.81      0.00
    7   17   11     -4.05      0.00
    8   17   11     -4.19      0.00
    1   18   11      6.18      0.00
    2   18   11     45.62      0.00
    3   18   11    -10.93      0.00
    4   18   11     -5.79      0.00
    5   18   11     13.55      0.00
    6   18   11     -7.50      0.00
    7   18   11     14.08      0.00
    0   19   11     30.62      0.00
    1   19   11     -7.24      0.00
    2   19   11      1.50      0.00
    3   19   11      3.58      0.00
    4   19   11    -32.92      0.00
    5   19   11     -1.62      0.00
    6   19   11      0.05      0.00
    0    0   12     67.38      0.00
    1    1   12    -27.12      0.00
    0    2   12      5.09      0.00
    1    2   12      7.67      0.00
    2    2   12      2.92      0.00
    1    3   12     -7.11      0.00
    2    3   12      1.92      0.00
    3    3   12     -6.66      0.00
    0    4   12     -5.76      0.00
    1    4   12      0.80      0.00
    2    4   12     -5.12      0.00
    3    4   12     -5.10      0.00
    4    4   12      6.83      0.00
    1    5   12    -11.89      0.00
    2    5   12      7.38      0.00
    3    5   12      5.87      0.00
    4    5   12    -12.27      0.00
    5    5   12     -6.57      0.00
    0    6   12      3.72      0.00
    1    6   12     -5.49      0.00
    2    6   12     -3.91      0.00
    3    6   12     -2.15      0.00
    4    6   12      1.39      0.00
    5    6   12      1.23      0.00
    6    6   12    -14.11      0.00
    1    7   12     -2.48      0.00
    2    7   12     -2.94      0.00
    3    7   12     -2.35      0.00
    4    7   12     -1.67      0.00
    5    7   12      0.16      0.00
    6    7   12     -0.78      0.00
    7    7   12     17.74      0.00
    0    8   12      3.03      0.00
    1    8   12     -7.31      0.00
    2    8   12     -5.71      0.00
    3    8   12      8.82      0.00
    4    8   12     -7.67      0.00
    5    8   12     -0.36      0.00
    6    8   12      2.08      0.00
    7    8   12     -5.42      0.00
    8    8   12    -13.31      0.00
    1    9   12      4.56      0.00
    2    9   12      3.35      0.00
    3    9   12     -2.16      0.00
    4    9   12     14.20      0.00
    5    9   12     -1.26      0.00
    6    9   12      3.78      0.00
    7    9   12     -9.91      0.00
    8    9   12     -4.01      0.00
    9    9   12     -7.41      0.00
    0   10   12      7.06      0.00
    1   10   12     10.58      0.00
    2   10   12     -0.45      0.00
    3   10   12    -22.38      0.00
    4   10   12      4.76      0.00
    5   10   12      3.98      0.00
    6   10   12     -7.12      0.00
    7   10   12     -3.08      0.00
    8   10   12      9.61      0.00
    9   10   12    -12.79      0.00
   10   10   12     -1.07      0.00
    1   11   12      8.02      0.00
    2   11   12      3.14      0.00
    3   11   12     -2.59      0.00
    4   11   12     -4.54      0.00
    5   11   12      4.59      0.00
    6   11   12      1.62      0.00
    7   11   12     14.37      0.00
    8   11   12     -8.19      0.00
    9   11   12      3.49      0.00
   10   11   12     -2.63      0.00
    0   12   12     -3.28      0.00
    1   12   12     -2.27      0.00
    2   12   12      5.17      0.00
    3   12   12     17.70      0.00
    4   12   12     -2.23      0.00
    5   12   12      2.61      0.00
    6   12   12     -4.21      0.00
    7   12   12      5.02      0.00
    8   12   12     -6.56      0.00
    9   12   12      1.58      0.00
   10   12   12      5.23      0.00
    1   13   12    -21.02      0.00
    2   13   12     19.50      0.00
    3   13   12     20.98      0.00
    4   13   12     -9.19      0.00
    5   13   12     18.63      0.00
    6   13   12     -4.84      0.00
    7   13   12      7.53      0.00
    8   13   12     -1.19      0.00
    9   13   12     -2.10      0.00
   10   13   12    -24.58      0.00
    0   14   12      8.25      0.00
    1   14   12     -5.97      0.00
    2   14   12     -3.74      0.00
    3   14   12     10.72      0.00
    4   14   12    -16.70      0.00
    5   14   12      0.77      0.00
    6   14   12      4.96      0.00
    7   14   12     -8.93      0.00
    8   14   12     11.57      0.00
    1   15   12      5.12      0.00
    2   15   12     -7.75      0.00
    3   15   12      3.79      0.00
    4   15   12     -5.00      0.00
    5   15   12    -12.60      0.00
    6   15   12    -10.97      0.00
    7   15   12     20.49      0.00
    8   15   12    -22.85      0.00
    0   16   12    -22.96      0.00
    1   16   12     -3.28      0.00
    2   16   12      9.77      0.00
    3   16   12     -1.35      0.00
    4   16   12      7.34      0.00
    5   16   12     -0.48      0.00
    6   16   12     -2.04      0.00
    7   16   12    -13.34      0.00
    8   16   12     48.87      0.00
    1   17   12      7.39      0.00
    2   17   12    -12.91      0.00
    3   17   12      7.85      0.00
    4   17   12     -5.54      0.00
    5   17   12     -8.80      0.00
    6   17   12      4.20      0.00
    7   17   12     -2.76      0.00
    8   17   12     -4.21      0.00
    0   18   12    -13.92      0.00
    1   18   12     -4.75      0.00
    2   18   12     -8.95      0.00
    3   18   12     -9.58      0.00
    4   18   12     19.06      0.00
    5   18   12     -9.97      0.00
    6   18   12      0.13      0.00
    7   18   12     15.07      0.00
    8   18   12     -8.57      0.00
    1   19   12     -2.77      0.00
    2   19   12    -17.07      0.00
    3   19   12     -1.81      0.00
    4   19   12     13.50      0.00
    5   19   12     29.78      0.00
    0    1   13     -4.00      0.00
    1    2   13     -6.36      0.00
    0    3   13     -5.77      0.00
    1    3   13     -2.83      0.00
    2    3   13    -13.17      0.00
    1    4   13      3.40      0.00
    2    4   13     10.35      0.00
    3    4   13      7.00      0.00
    0    5   13     10.93      0.00
    1    5   13     -3.34      0.00
    2    5   13      4.51      0.00
    3    5   13      1.38      0.00
    4    5   13     -4.09      0.00
    1    6   13    -10.13      0.00
    2    6   13     -6.45      0.00
    3    6   13     -2.13      0.00
    4    6   13     -5.33      0.00
    5    6   13     -7.25      0.00
    0    7   13      1.70      0.00
    1    7   13      2.24      0.00
    2    7   13     -3.56      0.00
    3    7   13      6.42      0.00
    4    7   13      6.25      0.00
    5    7   13      4.20      0.00
    6    7   13     -0.91      0.00
    1    8   13      2.25      0.00
    2    8   13      1.75      0.00
    3    8   13     -6.42      0.00
    4    8   13      6.62      0.00
    5    8   13      4.02      0.00
    6    8   13      3.35      0.00
    7    8   13      0.48      0.00
    0    9   13     -0.85      0.00
    1    9   13     -1.79      0.00
    2    9   13     -5.01      0.00
    3    9   13    -11.27      0.00
    4    9   13     -1.86      0.00
    5    9   13      3.18      0.00
    6    9   13    -13.63      0.00
    7    9   13     11.97      0.00
    8    9   13      0.98      0.00
    1   10   13     -2.18      0.00
    2   10   13      0.15      0.00
    3   10   13      3.48      0.00
    4   10   13     -3.72      0.00
    5   10   13      4.20      0.00
    6   10   13     -3.45      0.00
    7   10   13     16.77      0.00
    8   10   13     22.61      0.00
    9   10   13      0.85      0.00
    0   11   13     -8.08      0.00
    1   11   13      9.22      0.00
    2   11   13     10.14      0.00
    3   11   13     -2.23      0.00
    4   11   13     -7.86      0.00
    5   11   13      2.34      0.00
    6   11   13     -0.72      0.00
    7   11   13     -7.22      0.00
    8   11   13      2.41      0.00
    9   11   13     -2.60      0.00
   10   11   13     -8.37      0.00
    1   12   13      0.47      0.00
    2   12   13      1.50      0.00
    3   12   13    -29.84      0.00
    4   12   13     -7.77      0.00
    5   12   13      2.87      0.00
    6   12   13      9.68      0.00
    7   12   13      3.56      0.00
    8   12   13     -6.82      0.00
    9   12   13      6.91      0.00
   10   12   13     15.07      0.00
    0   13   13     12.61      0.00
    1   13   13     -3.89      0.00
    2   13   13     17.58      0.00
    3   13   13    -14.78      0.00
    4   13   13     -6.39      0.00
    5   13   13     -4.07      0.00
    6   13   13     -3.41      0.00
    7   13   13     -3.25      0.00
    8   13   13     -8.90      0.00
    9   13   13     -9.42      0.00
   10   13   13     12.63      0.00
    1   14   13     -0.64      0.00
    2   14   13      5.59      0.00
    3   14   13    -15.01      0.00
    4   14   13      4.07      0.00
    5   14   13     13.58      0.00
    6   14   13     12.51      0.00
    7   14   13     -4.48      0.00
    8   14   13     -0.46      0.00
    9   14   13     21.59      0.00
    0   15   13     -2.65      0.00
    1   15   13      5.27      0.00
    2   15   13      6.79      0.00
    3   15   13      5.42      0.00
    4   15   13     -5.31      0.00
    5   15   13      7.20      0.00
    6   15   13     -4.56      0.00
    7   15   13     22.25      0.00
    8   15   13     -9.22      0.00
    1   16   13     -0.80      0.00
    2   16   13      0.57      0.00
    3   16   13     -9.44      0.00
    4   16   13     -9.38      0.00
    5   16   13    -12.79      0.00
    6   16   13    -20.80      0.00
    7   16   13    -25.32      0.00
    8   16   13      1.37      0.00
    0   17   13     12.76      0.00
    1   17   13     -6.99      0.00
    2   17   13      9.51      0.00
    3   17   13     -4.09      0.00
    4   17   13     -8.16      0.00
    5   17   13     18.88      0.00
    6   17   13     -3.21      0.00
    7   17   13      2.29      0.00
    8   17   13     16.02      0.00
    1   18   13     -3.23      0.00
    2   18   13    -13.01      0.00
    3   18   13     -6.99      0.00
    4   18   13      6.50      0.00
    5   18   13     -2.65      0.00
    6   18   13     -6.02      0.00
    7   18   13     14.42      0.00
    8   18   13     -7.71      0.00
    0   19   13     -6.41      0.00
    1   19   13     -7.92      0.00
    2   19   13     -4.69      0.00
    3   19   13    -13.01      0.00
    4   19   13     -1.75      0.00
    5   19   13     16.12      0.00
    0    0   14    -32.60      0.00
    1    1   14     10.83      0.00
    0    2   14     -9.02      0.00
    1    2   14     -1.78      0.00
    2    2   14      5.37      0.00
    1    3   14    -11.99      0.00
    2    3   14     -3.67      0.00
    3    3   14     -2.30      0.00
    0    4   14     -1.12      0.00
    1    4   14     -2.23      0.00
    2    4   14     -3.70      0.00
    3    4   14     -3.27      0.00
    4    4   14     -1.64      0.00
    1    5   14      8.29      0.00
    2    5   14     -7.92      0.00
    3    5   14     -1.51      0.00
    4    5   14     -1.74      0.00
    5    5   14      0.81      0.00
    0    6   14     -3.17      0.00
    1    6   14      5.57      0.00
    2    6   14     -9.35      0.00
    3    6   14     -3.76      0.00
    4    6   14     -2.01      0.00
    5    6   14      0.64      0.00
    6    6   14     16.68      0.00
    1    7   14     -1.03      0.00
    2    7   14      2.02      0.00
    3    7   14     -3.59      0.00
    4    7   14     -3.84      0.00
    5    7   14      0.94      0.00
    6    7   14      0.24      0.00
    7    7   14      1.68      0.00
    0    8   14     -1.28      0.00
    1    8   14      5.94      0.00
    2    8   14      1.97      0.00
    3    8   14      1.23      0.00
    4    8   14     16.94      0.00
    5    8   14     -6.16      0.00
    6    8   14     -2.90      0.00
    7    8   14      1.55      0.00
    1    9   14      8.55      0.00
    2    9   14      6.40      0.00
    3    9   14     -2.31      0.00
    4    9   14      0.70      0.00
    5    9   14     -2.99      0.00
    6    9   14      2.90      0.00
    7    9   14     -5.00      0.00
    8    9   14      3.42      0.00
    9    9   14      2.08      0.00
    0   10   14    -29.19      0.00
    1   10   14     -0.66      0.00
    2   10   14      0.34      0.00
    3   10   14    -12.64      0.00
    4   10   14     -3.05      0.00
    5   10   14     -0.64      0.00
    6   10   14     -2.03      0.00
    7   10   14    -12.82      0.00
    8   10   14     -2.09      0.00
    9   10   14     -4.46      0.00
   10   10   14     10.02      0.00
    1   11   14     -1.38      0.00
    2   11   14     -1.82      0.00
    3   11   14     -4.71      0.00
    4   11   14      4.22      0.00
    5   11   14      3.69      0.00
    6   11   14    -13.14      0.00
    7   11   14      5.77      0.00
    8   11   14     -2.09      0.00
    9   11   14     -3.95      0.00
   10   11   14      0.77      0.00
   11   11   14    -12.60      0.00
    0   12   14    -10.49      0.00
    1   12   14     -8.30      0.00
    2   12   14      3.59      0.00
    3   12   14     22.58      0.00
    5   12   14      0.91      0.00
    6   12   14    -12.35      0.00
    7   12   14     20.03      0.00
    8   12   14      0.70      0.00
    9   12   14      0.49      0.00
   10   12   14    -14.26      0.00
   11   12   14     14.97      0.00
    1   13   14    -13.27      0.00
    2   13   14     -7.34      0.00
    3   13   14     -1.75      0.00
    4   13   14     -8.17      0.00
    5   13   14      2.23      0.00
    6   13   14     -7.46      0.00
    7   13   14     -6.21      0.00
    8   13   14     16.56      0.00
    9   13   14     -6.04      0.00
   10   13   14      1.93      0.00
   11   13   14      6.42      0.00
    0   14   14     15.40      0.00
    1   14   14     -1.45      0.00
    2   14   14    -18.23      0.00
    3   14   14      0.57      0.00
    4   14   14     19.39      0.00
    5   14   14      1.32      0.00
    6   14   14    -13.41      0.00
    7   14   14     11.56      0.00
    8   14   14     -9.21      0.00
    9   14   14      3.88      0.00
   10   14   14     -9.57      0.00
   11   14   14      3.63      0.00
    1   15   14      9.78      0.00
    2   15   14     15.87      0.00
    3   15   14     12.98      0.00
    4   15   14     -2.37      0.00
    5   15   14     -6.46      0.00
    6   15   14      0.26      0.00
    7   15   14     15.32      0.00
    8   15   14      7.10      0.00
    0   16   14      7.99      0.00
    1   16   14     -2.32      0.00
    2   16   14    -12.93      0.00
    3   16   14      2.14      0.00
    4   16   14      6.17      0.00
    5   16   14      2.60      0.00
    6   16   14     11.91      0.00
    7   16   14     13.14      0.00
    8   16   14     13.56      0.00
    1   17   14     -1.35      0.00
    2   17   14     -1.76      0.00
    3   17   14    -10.86      0.00
    4   17   14      3.94      0.00
    5   17   14     -4.46      0.00
    6   17   14     25.50      0.00
    7   17   14    -28.89      0.00
    8   17   14     -2.42      0.00
    0   18   14    -14.25      0.00
    1   18   14     15.72      0.00
    2   18   14      0.49      0.00
    3   18   14      2.81      0.00
    4   18   14     -2.08      0.00
    5   18   14      4.86      0.00
    6   18   14      4.49      0.00
    7   18   14     -3.48      0.00
    8   18   14      5.36      0.00
    1   19   14     -2.97      0.00
    2   19   14     26.04      0.00
    3   19   14     -1.07      0.00
    4   19   14     10.30      0.00
    0    1   15      5.37      0.00
    1    2   15      7.53      0.00
    0    3   15      5.12      0.00
    1    3   15     -0.03      0.00
    2    3   15     -2.14      0.00
    1    4   15     -4.99      0.00
    2    4   15     -1.00      0.00
    3    4   15     -3.60      0.00
    0    5   15      9.77      0.00
    1    5   15      0.72      0.00
    2    5   15     -3.11      0.00
    3    5   15     -1.53      0.00
    4    5   15      5.90      0.00
    1    6   15     -3.12      0.00
    2    6   15      6.16      0.00
    3    6   15     -3.76      0.00
    4    6   15     -4.80      0.00
    5    6   15      5.93      0.00
    0    7   15      1.22      0.00
    1    7   15      8.11      0.00
    2    7   15      4.55      0.00
    3    7   15     -2.06      0.00
    4    7   15     -5.39      0.00
    5    7   15     -0.40      0.00
    6    7   15     10.83      0.00
    1    8   15      3.69      0.00
    2    8   15      2.16      0.00
    3    8   15      5.29      0.00
    4    8   15     -6.38      0.00
    5    8   15     -0.61      0.00
    6    8   15      7.01      0.00
    0    9   15     -3.38      0.00
    1    9   15     -0.06      0.00
    2    9   15      6.80      0.00
    3    9   15     -3.14      0.00
    4    9   15      1.49      0.00
    5    9   15     -3.88      0.00
    6    9   15     -5.81      0.00
    7    9   15     -5.16      0.00
    8    9   15    -14.76      0.00
    1   10   15      3.91      0.00
    2   10   15      0.36      0.00
    3   10   15     10.22      0.00
    4   10   15      4.88      0.00
    5   10   15      9.45      0.00
    6   10   15     -6.75      0.00
    7   10   15      5.50      0.00
    8   10   15     12.59      0.00
    9   10   15     -6.75      0.00
    0   11   15     -1.47      0.00
    1   11   15     -7.88      0.00
    2   11   15     -2.46      0.00
    3   11   15     -9.43      0.00
    4   11   15      5.68      0.00
    5   11   15      3.48      0.00
    6   11   15      1.86      0.00
    7   11   15      7.32      0.00
    8   11   15     11.25      0.00
    9   11   15     -5.73      0.00
   10   11   15    -11.58      0.00
    1   12   15    -12.73      0.00
    2   12   15     -7.65      0.00
    4   12   15     -1.09      0.00
    5   12   15     -4.49      0.00
    6   12   15      7.42      0.00
    7   12   15     10.43      0.00
    8   12   15     -2.27      0.00
    9   12   15     15.84      0.00
   10   12   15      2.17      0.00
   11   12   15     -7.23      0.00
    0   13   15     10.76      0.00
    1   13   15    -10.83      0.00
    2   13   15     14.15      0.00
    3   13   15      9.84      0.00
    4   13   15     -4.41      0.00
    5   13   15      3.11      0.00
    6   13   15      0.06      0.00
    7   13   15    -33.35      0.00
    8   13   15     -3.45      0.00
    9   13   15      4.46      0.00
   10   13   15     -3.41      0.00
   11   13   15    -62.05      0.00
    1   14   15      4.40      0.00
    2   14   15      2.94      0.00
    3   14   15     -4.70      0.00
    4   14   15      3.87      0.00
    5   14   15     -6.98      0.00
    6   14   15      9.86      0.00
    7   14   15      3.17      0.00
    8   14   15    -20.86      0.00
    9   14   15     -4.69      0.00
   10   14   15      3.93      0.00
   11   14   15    -16.15      0.00
    0   15   15     -2.84      0.00
    1   15   15      1.32      0.00
    2   15   15     -2.62      0.00
    3   15   15      0.50      0.00
    4   15   15     14.55      0.00
    5   15   15      2.33      0.00
    6   15   15      3.52      0.00
    7   15   15      2.89      0.00
    1   16   15     -9.97      0.00
    2   16   15      2.87      0.00
    3   16   15      7.98      0.00
    4   16   15     11.29      0.00
    5   16   15     -0.72      0.00
    6   16   15    -72.09      0.00
    7   16   15     -1.73      0.00
    0   17   15    -13.18      0.00
    1   17   15     46.21      0.00
    2   17   15     45.61      0.00
    3   17   15    -10.25      0.00
    4   17   15    -10.66      0.00
    5   17   15     16.90      0.00
    6   17   15     10.02      0.00
    7   17   15     25.98      0.00
    1   18   15      9.46      0.00
    2   18   15    -11.87      0.00
    3   18   15     -9.98      0.00
    4   18   15     -2.38      0.00
    5   18   15     16.19      0.00
    6   18   15     -5.91      0.00
    7   18   15     -0.53      0.00
    2   19   15     -4.83      0.00
    1    1   16     10.40      0.00
    0    2   16      1.07      0.00
    1    2   16     -9.63      0.00
    2    2   16      1.77      0.00
    1    3   16      8.68      0.00
    2    3   16     -3.66      0.00
    3    3   16      2.83      0.00
    0    4   16      8.41      0.00
    1    4   16     -5.76      0.00
    2    4   16      0.86      0.00
    3    4   16      3.35      0.00
    4    4   16     10.42      0.00
    1    5   16      7.34      0.00
    2    5   16      7.72      0.00
    3    5   16      0.08      0.00
    4    5   16      0.81      0.00
    5    5   16      4.61      0.00
    0    6   16     10.92      0.00
    1    6   16      1.19      0.00
    2    6   16     -9.74      0.00
    3    6   16      1.04      0.00
    4    6   16    -11.82      0.00
    5    6   16     -9.30      0.00
    6    6   16     -6.58      0.00
    1    7   16      1.45      0.00
    2    7   16      0.11      0.00
    3    7   16      4.11      0.00
    4    7   16      2.13      0.00
    5    7   16    -14.90      0.00
    6    7   16     15.88      0.00
    0    8   16     -1.72      0.00
    1    8   16     -0.54      0.00
    2    8   16     -0.85      0.00
    3    8   16      4.57      0.00
    4    8   16      6.23      0.00
    5    8   16      9.88      0.00
    6    8   16     -5.82      0.00
    7    8   16      4.92      0.00
    8    8   16    -14.16      0.00
    1    9   16      2.33      0.00
    2    9   16     -3.82      0.00
    3    9   16      4.03      0.00
    4    9   16     -7.54      0.00
    5    9   16    -25.13      0.00
    6    9   16     -1.40      0.00
    7    9   16      9.27      0.00
    8    9   16      3.37      0.00
    9    9   16     -4.98      0.00
    0   10   16     -0.63      0.00
    1   10   16     -1.13      0.00
    2   10   16      2.51      0.00
    3   10   16      4.51      0.00
    4   10   16      9.16      0.00
    5   10   16     -7.21      0.00
    6   10   16     -9.35      0.00
    7   10   16     -0.03      0.00
    8   10   16     12.11      0.00
    9   10   16     -2.75      0.00
   10   10   16     14.30      0.00
    1   11   16     11.26      0.00
    2   11   16     -0.21      0.00
    3   11   16     -2.21      0.00
    4   11   16     -6.56      0.00
    5   11   16      6.41      0.00
    6   11   16     -5.30      0.00
    7   11   16     -9.32      0.00
    8   11   16     -3.03      0.00
    9   11   16      0.33      0.00
   10   11   16     -5.34      0.00
   11   11   16      0.58      0.00
    0   12   16      0.82      0.00
    1   12   16     25.04      0.00
    2   12   16      9.96      0.00
    3   12   16     16.07      0.00
    4   12   16      1.15      0.00
    5   12   16      9.12      0.00
    6   12   16      1.03      0.00
    7   12   16      3.62      0.00
    8   12   16    -15.75      0.00
    9   12   16    -12.80      0.00
   10   12   16     -3.02      0.00
   11   12   16      2.30      0.00
    1   13   16     12.81      0.00
    2   13   16     -0.11      0.00
    3   13   16     -1.69      0.00
    4   13   16      6.17      0.00
    5   13   16      9.95      0.00
    6   13   16    -18.42      0.00
    7   13   16      0.05      0.00
    8   13   16     -0.57      0.00
    9   13   16      3.74      0.00
   10   13   16     11.15      0.00
   11   13   16    -16.65      0.00
    0   14   16    -10.04      0.00
    1   14   16     -6.16      0.00
    2   14   16     -1.56      0.00
    3   14   16    -33.67      0.00
    4   14   16    -14.48      0.00
    5   14   16     22.64      0.00
    6   14   16     10.04      0.00
    7   14   16     -4.28      0.00
    8   14   16      9.75      0.00
    9   14   16      5.79      0.00
   10   14   16     -0.88      0.00
   11   14   16     26.85      0.00
    1   15   16     -5.38      0.00
    2   15   16    -15.82      0.00
    3   15   16     -6.88      0.00
    4   15   16      7.26      0.00
    5   15   16     -3.07      0.00
    6   15   16     17.30      0.00
    0   16   16      6.85      0.00
    1   16   16     -6.02      0.00
    2   16   16     -2.32      0.00
    3   16   16     13.51      0.00
    4   16   16      0.29      0.00
    5   16   16    -66.67      0.00
    6   16   16      9.92      0.00
    1   17   16    -14.03      0.00
    2   17   16    -19.73      0.00
    3   17   16    -17.07      0.00
    4   17   16     16.19      0.00
    5   17   16     -0.87      0.00
    6   17   16      4.69      0.00
    7   17   16    -17.23      0.00
    0   18   16     -0.57      0.00
    1   18   16    -10.92      0.00
    2   18   16     -5.71      0.00
    3   18   16    -10.58      0.00
    4   18   16      1.70      0.00
    5   18   16     -5.59      0.00
    6   18   16     -1.08      0.00
    0    1   17     11.24      0.00
    1    2   17      2.76      0.00
    0    3   17     -0.98      0.00
    1    3   17     -2.91      0.00
    2    3   17     -0.13      0.00
    1    4   17      4.65      0.00
    2    4   17     -8.40      0.00
    3    4   17     -0.86      0.00
    0    5   17     -1.85      0.00
    1    5   17      3.11      0.00
    2    5   17     -8.85      0.00
    3    5   17     -3.39      0.00
    4    5   17      7.99      0.00
    1    6   17      1.14      0.00
    2    6   17      3.93      0.00
    3    6   17      1.81      0.00
    4    6   17     12.78      0.00
    5    6   17      6.55      0.00
    0    7   17     17.31      0.00
    1    7   17      5.01      0.00
    2    7   17     -6.33      0.00
    3    7   17     -5.05      0.00
    4    7   17      5.01      0.00
    5    7   17     -2.83      0.00
    1    8   17     -1.74      0.00
    2    8   17      2.41      0.00
    3    8   17     -9.08      0.00
    4    8   17    -19.42      0.00
    6    8   17      0.53      0.00
    7    8   17     -6.17      0.00
    0    9   17     -7.52      0.00
    1    9   17     -8.91      0.00
    2    9   17      1.58      0.00
    3    9   17     -6.94      0.00
    4    9   17     -5.99      0.00
    5    9   17      9.53      0.00
    6    9   17      4.64      0.00
    7    9   17     -3.08      0.00
    8    9   17    -10.23      0.00
    1   10   17      0.97      0.00
    2   10   17    -12.68      0.00
    3   10   17     -0.88      0.00
    4   10   17      2.09      0.00
    5   10   17     -8.17      0.00
    6   10   17      2.69      0.00
    7   10   17     -3.36      0.00
    8   10   17     -8.23      0.00
    9   10   17      0.89      0.00
    0   11   17     -8.61      0.00
    1   11   17     31.81      0.00
    2   11   17     -9.70      0.00
    3   11   17      3.36      0.00
    4   11   17      5.50      0.00
    5   11   17      9.16      0.00
    6   11   17      1.26      0.00
    7   11   17     -0.42      0.00
    8   11   17      2.51      0.00
    9   11   17     -4.62      0.00
   10   11   17      1.16      0.00
    1   12   17      9.27      0.00
    2   12   17    -11.38      0.00
    3   12   17     -6.40      0.00
    4   12   17      2.66      0.00
    5   12   17     -7.37      0.00
    6   12   17     -2.16      0.00
    7   12   17     -2.04      0.00
    8   12   17     21.59      0.00
    9   12   17     -4.32      0.00
   10   12   17      4.96      0.00
   11   12   17     -3.55      0.00
    0   13   17     -2.61      0.00
    1   13   17     -5.99      0.00
    2   13   17      3.80      0.00
    3   13   17     -2.55      0.00
    4   13   17      5.11      0.00
    5   13   17    -20.83      0.00
    6   13   17      8.98      0.00
    7   13   17     -5.11      0.00
    8   13   17     -9.90      0.00
    9   13   17      4.07      0.00
   10   13   17     12.61      0.00
   11   13   17     -8.66      0.00
    1   14   17      4.26      0.00
    2   14   17      4.95      0.00
    3   14   17     -2.04      0.00
    4   14   17     -3.91      0.00
    5   14   17     -0.29      0.00
    6   14   17     -2.74      0.00
    7   14   17      1.61      0.00
    8   14   17     14.59      0.00
    9   14   17      8.37      0.00
   10   14   17      6.00      0.00
   11   14   17     -5.81      0.00
    0   15   17    -28.32      0.00
    1   15   17      2.20      0.00
    2   15   17      6.12      0.00
    3   15   17      0.81      0.00
    4   15   17      4.28      0.00
    5   15   17     -1.21      0.00
    1   16   17     -8.86      0.00
    2   16   17     -5.56      0.00
    3   16   17    -13.04      0.00
    4   16   17    -20.06      0.00
    5   16   17      5.36      0.00
    0   17   17      2.25      0.00
    1   17   17      5.65      0.00
    2   17   17      1.48      0.00
    3   17   17     -7.17      0.00
    4   17   17     12.77      0.00
    5   17   17     23.54      0.00
    1   18   17     -3.41      0.00
    2   18   17      2.28      0.00
    3   18   17     17.03      0.00
    4   18   17     -8.10      0.00
    5   18   17    -28.64      0.00
    6   18   17     -6.75      0.00
    1    1   18      0.23      0.00
    0    2   18      3.48      0.00
    1    2   18      2.69      0.00
    2    2   18      9.36      0.00
    1    3   18     -2.37      0.00
    2    3   18     -0.61      0.00
    3    3   18     -8.42      0.00
    0    4   18     -4.98      0.00
    1    4   18     -1.60      0.00
    2    4   18     -7.64      0.00
    3    4   18    -10.36      0.00
    4    4   18      3.41      0.00
    1    5   18     -6.13      0.00
    2    5   18     -2.48      0.00
    3    5   18      5.21      0.00
    4    5   18     15.70      0.00
    5    5   18     14.96      0.00
    0    6   18    -22.12      0.00
    1    6   18     -0.11      0.00
    2    6   18     14.26      0.00
    3    6   18     -0.88      0.00
    4    6   18     -4.40      0.00
    5    6   18    -16.87      0.00
    1    7   18     -8.20      0.00
    2    7   18     -6.64      0.00
    3    7   18      9.49      0.00
    4    7   18     -5.52      0.00
    6    7   18      1.46      0.00
    7    7   18      7.36      0.00
    0    8   18      2.01      0.00
    1    8   18      3.80      0.00
    2    8   18      9.10      0.00
    3    8   18     10.19      0.00
    4    8   18      0.25      0.00
    5    8   18     13.62      0.00
    6    8   18      7.59      0.00
    7    8   18     -2.41      0.00
    8    8   18     17.94      0.00
    1    9   18     -8.36      0.00
    2    9   18      3.15      0.00
    3    9   18     -9.30      0.00
    4    9   18      6.92      0.00
    5    9   18     -8.82      0.00
    6    9   18      1.00      0.00
    7    9   18     13.57      0.00
    8    9   18      1.66      0.00
    9    9   18     -6.01      0.00
    0   10   18     -6.45      0.00
    1   10   18     -6.11      0.00
    2   10   18     -4.79      0.00
    3   10   18     36.28      0.00
    4   10   18     -4.56      0.00
    5   10   18     -2.74      0.00
    6   10   18     13.21      0.00
    7   10   18     -5.13      0.00
    8   10   18      5.38      0.00
    9   10   18     -3.53      0.00
   10   10   18     -3.93      0.00
    1   11   18     -1.64      0.00
    2   11   18    -16.56      0.00
    3   11   18     -2.49      0.00
    4   11   18      4.44      0.00
    5   11   18     -6.80      0.00
    6   11   18     -0.08      0.00
    7   11   18     -4.33      0.00
    8   11   18      8.63      0.00
    9   11   18      6.81      0.00
   10   11   18      2.41      0.00
   11   11   18     -4.63      0.00
    0   12   18     12.70      0.00
    1   12   18    -13.79      0.00
    2   12   18    -16.61      0.00
    3   12   18     -4.33      0.00
    4   12   18     -4.37      0.00
    5   12   18      0.45      0.00
    6   12   18     -1.89      0.00
    7   12   18     14.36      0.00
    8   12   18      2.50      0.00
    9   12   18     -1.08      0.00
   10   12   18      9.18      0.00
   11   12   18     -6.75      0.00
   12   12   18     16.85      0.00
    1   13   18     -4.63      0.00
    2   13   18     12.93      0.00
    3   13   18     -1.41      0.00
    4   13   18    -18.02      0.00
    5   13   18      6.26      0.00
    6   13   18     -3.60      0.00
    7   13   18      7.71      0.00
    8   13   18    -24.85      0.00
    9   13   18     -3.78      0.00
   10   13   18     -5.19      0.00
   11   13   18      2.64      0.00
   12   13   18     -8.68      0.00
    0   14   18      0.86      0.00
    1   14   18     -7.46      0.00
    2   14   18    -10.99      0.00
    3   14   18     -0.83      0.00
    4   14   18      6.59      0.00
    5   14   18     14.36      0.00
    6   14   18      2.22      0.00
    7   14   18     -4.99      0.00
    8   14   18      5.46      0.00
    9   14   18     -0.38      0.00
   10   14   18     -3.24      0.00
   11   14   18      1.03      0.00
   12   14   18     -2.40      0.00
    1   15   18      7.53      0.00
    2   15   18      0.08      0.00
    3   15   18     16.23      0.00
    4   15   18     43.95      0.00
    9   15   18    -13.75      0.00
   10   15   18    -14.02      0.00
   11   15   18    -21.30      0.00
    0   16   18     48.48      0.00
    1   16   18     76.47      0.00
    2   16   18     16.34      0.00
    3   16   18     -0.60      0.00
    4   16   18     -2.84      0.00
    1   17   18      5.21      0.00
    2   17   18    -13.73      0.00
    3   17   18     -3.89      0.00
    4   17   18     32.23      0.00
    0   18   18     -2.26      0.00
    1   18   18     -8.81      0.00
    2   18   18     18.53      0.00
    3   18   18      6.91      0.00
    4   18   18    -15.06      0.00
    0    1   19      2.20      0.00
    1    2   19    -11.31      0.00
    0    3   19     -4.53      0.00
    1    3   19      5.07      0.00
    2    3   19     -5.44      0.00
    1    4   19      1.95      0.00
    2    4   19      8.29      0.00
    3    4   19      4.13      0.00
    0    5   19     -5.55      0.00
    1    5   19      8.51      0.00
    2    5   19    -10.86      0.00
    3    5   19     -8.52      0.00
    4    5   19      2.32      0.00
    1    6   19      9.40      0.00
    2    6   19      2.24      0.00
    3    6   19     -0.18      0.00
    4    6   19     13.81      0.00
    0    7   19     -2.37      0.00
    1    7   19     -0.02      0.00
    2    7   19      5.41      0.00
    3    7   19      0.93      0.00
    5    7   19      7.63      0.00
    6    7   19      6.80      0.00
    1    8   19     -4.66      0.00
    2    8   19     -0.53      0.00
    3    8   19     -4.11      0.00
    4    8   19    -28.80      0.00
    5    8   19     -1.00      0.00
    6    8   19     -3.48      0.00
    7    8   19     11.61      0.00
    0    9   19     -1.00      0.00
    1    9   19     -3.92      0.00
    2    9   19     -2.38      0.00
    3    9   19      1.72      0.00
    4    9   19     35.81      0.00
    5    9   19      4.08      0.00
    6    9   19     11.99      0.00
    7    9   19     -6.88      0.00
    8    9   19     -9.10      0.00
    1   10   19     17.75      0.00
    2   10   19     -0.38      0.00
    3   10   19     -3.88      0.00
    4   10   19     -5.87      0.00
    5   10   19      4.36      0.00
    6   10   19    -10.37      0.00
    7   10   19     -6.14      0.00
    8   10   19     -0.84      0.00
    9   10   19     14.63      0.00
    0   11   19     -7.26      0.00
    1   11   19     -0.52      0.00
    2   11   19     10.88      0.00
    3   11   19     13.23      0.00
    4   11   19     -6.54      0.00
    5   11   19     -5.54      0.00
    6   11   19      4.39      0.00
    7   11   19     -5.48      0.00
    8   11   19    -11.33      0.00
    9   11   19     -5.43      0.00
   10   11   19     -7.76      0.00
    1   12   19     -0.40      0.00
    2   12   19    -14.52      0.00
    3   12   19      5.53      0.00
    4   12   19      3.02      0.00
    5   12   19    -11.52      0.00
    6   12   19      1.01      0.00
    7   12   19     -5.81      0.00
    8   12   19      2.79      0.00
    9   12   19      5.36      0.00
   10   12   19     31.08      0.00
   11   12   19     -9.64      0.00
    0   13   19     -6.73      0.00
    1   13   19     17.45      0.00
    2   13   19     -2.23      0.00
    3   13   19      3.15      0.00
    4   13   19      4.03      0.00
    5   13   19      4.24      0.00
    6   13   19      4.76      0.00
    7   13   19     -2.86      0.00
    8   13   19     -6.81      0.00
    9   13   19     -2.03      0.00
   10   13   19      3.58      0.00
   11   13   19      1.49      0.00
   12   13   19     11.91      0.00
    1   14   19      7.12      0.00
    2   14   19     -5.85      0.00
    3   14   19    -12.24      0.00
    4   14   19      6.62      0.00
    5   14   19    -22.88      0.00
    6   14   19     12.02      0.00
    7   14   19    -24.68      0.00
    8   14   19      7.02      0.00
    9   14   19     -0.39      0.00
   10   14   19      7.77      0.00
   11   14   19      1.76      0.00
    0   15   19    -19.54      0.00
    1   15   19    -10.01      0.00
    2   15   19    -19.80      0.00
    3   15   19      7.71      0.00
    6   15   19     -1.82      0.00
    7   15   19     10.79      0.00
    8   15   19     11.41      0.00
    9   15   19      7.29      0.00
   10   15   19     14.65      0.00
    1   16   19      3.07      0.00
    2   16   19     -9.32      0.00
    3   16   19    -18.00      0.00
    0   17   19     -0.15      0.00
    1   17   19      7.18      0.00
    2   17   19      0.66      0.00
    3   17   19      5.46      0.00
    1   18   19      2.36      0.00
    2   18   19     23.71      0.00
    3   18   19      4.52      0.00
    1    1   20      5.58      0.00
    0    2   20     10.24      0.00
    1    2   20      5.33      0.00
    2    2   20      5.78      0.00
    1    3   20    -11.20      0.00
    2    3   20      6.65      0.00
    3    3   20     14.72      0.00
    0    4   20      4.06      0.00
    1    4   20      9.88      0.00
    2    4   20      3.30      0.00
    3    4   20     -2.45      0.00
    4    4   20      5.39      0.00
    1    5   20      1.51      0.00
    2    5   20      1.22      0.00
    3    5   20     -4.53      0.00
    4    5   20     10.89      0.00
    0    6   20     12.88      0.00
    1    6   20     -2.91      0.00
    2    6   20      6.56      0.00
    3    6   20     -4.42      0.00
    5    6   20      6.42      0.00
    6    6   20    -11.13      0.00
    1    7   20     11.44      0.00
    2    7   20    -12.16      0.00
    3    7   20      7.82      0.00
    4    7   20     -6.21      0.00
    5    7   20      9.79      0.00
    6    7   20      6.02      0.00
    7    7   20    -41.71      0.00
    0    8   20     -9.56      0.00
    1    8   20      1.37      0.00
    2    8   20      3.41      0.00
    3    8   20      8.95      0.00
    4    8   20     -1.56      0.00
    5    8   20     -9.59      0.00
    6    8   20     -1.81      0.00
    7    8   20     -6.98      0.00
    8    8   20     -9.78      0.00
    1    9   20    -17.05      0.00
    2    9   20    -19.75      0.00
    3    9   20    -12.81      0.00
    4    9   20      3.89      0.00
    5    9   20     -3.43      0.00
    6    9   20      6.19      0.00
    7    9   20      2.53      0.00
    8    9   20     -2.39      0.00
    9    9   20     -0.15      0.00
    0   10   20     -7.45      0.00
    1   10   20      8.33      0.00
    2   10   20      9.09      0.00
    3   10   20     -2.92      0.00
    4   10   20     -1.16      0.00
    5   10   20      5.92      0.00
    6   10   20     -2.42      0.00
    7   10   20     -3.83      0.00
    8   10   20     -0.78      0.00
    9   10   20     -4.07      0.00
   10   10   20      4.78      0.00
    1   11   20     -5.70      0.00
    2   11   20      1.21      0.00
    3   11   20      4.92      0.00
    4   11   20    -10.28      0.00
    5   11   20      7.35      0.00
    6   11   20     12.22      0.00
    7   11   20    -13.11      0.00
    8   11   20     12.82      0.00
    9   11   20     -9.43      0.00
   10   11   20     -7.23      0.00
   11   11   20     -5.90      0.00
    0   12   20     -4.79      0.00
    1   12   20     -5.74      0.00
    2   12   20      8.41      0.00
    3   12   20      1.72      0.00
    4   12   20      9.17      0.00
    5   12   20      4.02      0.00
    6   12   20      8.73      0.00
    7   12   20     11.81      0.00
    8   12   20     -8.83      0.00
    9   12   20     -2.62      0.00
   10   12   20      3.55      0.00
   11   12   20    -23.39      0.00
   12   12   20      7.57      0.00
    1   13   20      5.50      0.00
    2   13   20     11.48      0.00
    3   13   20      9.38      0.00
    4   13   20     -9.03      0.00
    5   13   20      8.13      0.00
    6   13   20      0.31      0.00
    7   13   20      9.99      0.00
    8   13   20    -19.45      0.00
    9   13   20      1.13      0.00
   10   13   20     -1.45      0.00
   11   13   20     -5.29      0.00
    0   14   20      0.24      0.00
    1   14   20     -2.98      0.00
    2   14   20     11.84      0.00
    3   14   20      8.07      0.00
    4   14   20      1.68      0.00
    5   14   20    -12.46      0.00
    7   14   20     11.38      0.00
    8   14   20     16.33      0.00
    9   14   20      5.25      0.00
   10   14   20     10.43      0.00
   11   14   20     26.65      0.00
    1   15   20      8.59      0.00
    2   15   20    -44.54      0.00
    4   15   20     -5.81      0.00
    5   15   20     -3.73      0.00
    6   15   20      9.02      0.00
    7   15   20     10.40      0.00
    8   15   20      9.94      0.00
    9   15   20     -5.33      0.00
   10   15   20      1.55      0.00
    0   16   20      7.53      0.00
    1   16   20     -1.72      0.00
    2   16   20    -26.24      0.00
    1   17   20    -25.45      0.00
    2   17   20    -13.30      0.00
    1   18   20     20.49      0.00
    2   18   20     -5.19      0.00
    0    1   21     -0.53      0.00
    1    2   21     -1.69      0.00
    0    3   21      0.00      0.00
    1    3   21     -0.36      0.00
    2    3   21      9.42      0.00
    1    4   21      1.16      0.00
    2    4   21      4.37      0.00
    3    4   21      0.82      0.00
    0    5   21     -0.44      0.00
    1    5   21     -2.26      0.00
    2    5   21     10.87      0.00
    3    5   21      4.47      0.00
    1    6   21      5.69      0.00
    2    6   21    -10.17      0.00
    3    6   21    -15.28      0.00
    4    6   21      6.87      0.00
    5    6   21     -5.57      0.00
    0    7   21    -10.43      0.00
    1    7   21      1.92      0.00
    2    7   21    -21.72      0.00
    3    7   21     -1.08      0.00
    4    7   21      7.73      0.00
    5    7   21      6.48      0.00
    6    7   21     21.32      0.00
    1    8   21     14.69      0.00
    2    8   21      1.11      0.00
    3    8   21     -2.02      0.00
    4    8   21      4.37      0.00
    5    8   21    -16.31      0.00
    6    8   21     -4.88      0.00
    7    8   21      8.48      0.00
    0    9   21      6.85      0.00
    1    9   21     -3.00      0.00
    2    9   21      2.25      0.00
    3    9   21      4.31      0.00
    4    9   21      7.47      0.00
    5    9   21      8.26      0.00
    6    9   21     -0.21      0.00
    7    9   21      5.93      0.00
    8    9   21     -6.59      0.00
    1   10   21      2.78      0.00
    2   10   21     -5.06      0.00
    3   10   21     -7.19      0.00
    4   10   21      8.08      0.00
    5   10   21     -1.28      0.00
    6   10   21    -10.65      0.00
    7   10   21     -1.54      0.00
    8   10   21      2.76      0.00
    9   10   21     11.76      0.00
    0   11   21     -0.46      0.00
    1   11   21     -0.49      0.00
    2   11   21      1.70      0.00
    3   11   21      7.47      0.00
    4   11   21     -1.32      0.00
    5   11   21    -11.52      0.00
    6   11   21      8.41      0.00
    7   11   21     21.39      0.00
    8   11   21    -11.11      0.00
    9   11   21    -17.92      0.00
   10   11   21      5.00      0.00
    1   12   21     -7.27      0.00
    2   12   21     -1.97      0.00
    3   12   21     -8.88      0.00
    4   12   21    -10.27      0.00
    5   12   21     -3.64      0.00
    6   12   21     -9.12      0.00
    7   12   21     14.40      0.00
    8   12   21     10.17      0.00
    9   12   21      8.90      0.00
   10   12   21     10.05      0.00
   11   12   21      2.53      0.00
    0   13   21     -6.15      0.00
    1   13   21     -2.76      0.00
    2   13   21     -6.28      0.00
    3   13   21     -0.21      0.00
    4   13   21     -0.51      0.00
    5   13   21      2.09      0.00
    6   13   21      8.44      0.00
    7   13   21    -44.60      0.00
    8   13   21     10.07      0.00
    9   13   21     -5.37      0.00
   10   13   21      1.07      0.00
   11   13   21      4.84      0.00
    1   14   21      7.97      0.00
    2   14   21    -13.32      0.00
    3   14   21      2.03      0.00
    4   14   21      5.79      0.00
    5   14   21      5.10      0.00
    6   14   21      3.72      0.00
    7   14   21    -16.56      0.00
    8   14   21     -1.36      0.00
    9   14   21     -1.32      0.00
   10   14   21    -13.85      0.00
    0   15   21     10.66      0.00
    1   15   21      1.17      0.00
    3   15   21     -7.65      0.00
    4   15   21     12.59      0.00
    5   15   21      0.86      0.00
    6   15   21     -0.32      0.00
    7   15   21      7.14      0.00
    8   15   21      9.78      0.00
    9   15   21    -15.64      0.00
    1   16   21      4.43      0.00
    0   17   21     -2.02      0.00
    1   17   21     19.33      0.00
    1    1   22     -4.69      0.00
    0    2   22     -2.54      0.00
    1    2   22      9.21      0.00
    2    2   22     -3.22      0.00
    1    3   22     -8.86      0.00
    2    3   22      2.36      0.00
    3    3   22      8.83      0.00
    0    4   22     -6.27      0.00
    1    4   22     -0.18      0.00
    2    4   22     -9.40      0.00
    3    4   22     -6.42      0.00
    4    4   22      9.41      0.00
    1    5   22     -3.30      0.00
    2    5   22      5.87      0.00
    3    5   22      9.54      0.00
    4    5   22     -8.82      0.00
    5    5   22      8.67      0.00
    0    6   22     -4.06      0.00
    1    6   22     -9.43      0.00
    2    6   22     -1.13      0.00
    3    6   22      8.35      0.00
    4    6   22      6.61      0.00
    5    6   22      4.97      0.00
    6    6   22      0.97      0.00
    1    7   22      7.65      0.00
    2    7   22      3.18      0.00
    3    7   22     -0.29      0.00
    4    7   22      1.04      0.00
    5    7   22      0.98      0.00
    6    7   22     11.68      0.00
    7    7   22     16.84      0.00
    0    8   22    -10.34      0.00
    1    8   22      4.86      0.00
    2    8   22      2.67      0.00
    3    8   22      2.26      0.00
    4    8   22      3.43      0.00
    5    8   22    -12.35      0.00
    6    8   22    -16.96      0.00
    7    8   22     -6.46      0.00
    8    8   22    -24.31      0.00
    1    9   22     -5.93      0.00
    2    9   22      1.85      0.00
    3    9   22     -0.62      0.00
    4    9   22    -13.18      0.00
    5    9   22     -7.15      0.00
    6    9   22      7.61      0.00
    7    9   22     -1.66      0.00
    8    9   22     -5.50      0.00
    9    9   22      9.62      0.00
    0   10   22     27.37      0.00
    1   10   22     12.84      0.00
    2   10   22     -0.62      0.00
    3   10   22      7.88      0.00
    4   10   22      4.35      0.00
    5   10   22     -7.15      0.00
    6   10   22     -2.72      0.00
    7   10   22     -6.78      0.00
    8   10   22      6.83      0.00
    9   10   22     -3.02      0.00
   10   10   22      7.09      0.00
    1   11   22      6.20      0.00
    2   11   22      7.12      0.00
    3   11   22     -9.68      0.00
    4   11   22     -9.88      0.00
    5   11   22    -11.08      0.00
    6   11   22     -8.61      0.00
    7   11   22      8.67      0.00
    8   11   22     -1.66      0.00
    9   11   22    -28.39      0.00
   10   11   22      9.81      0.00
   11   11   22      7.89      0.00
    0   12   22     11.19      0.00
    1   12   22     14.09      0.00
    2   12   22      6.43      0.00
    3   12   22      0.39      0.00
    4   12   22      2.12      0.00
    5   12   22      9.57      0.00
    6   12   22      6.69      0.00
    7   12   22      4.46      0.00
    8   12   22      8.33      0.00
    9   12   22    -14.06      0.00
   10   12   22    -12.22      0.00
   11   12   22     14.45      0.00
    1   13   22     16.23      0.00
    2   13   22     -2.40      0.00
    3   13   22    -25.47      0.00
    4   13   22     -2.38      0.00
    5   13   22      2.29      0.00
    6   13   22     -3.96      0.00
    7   13   22      1.14      0.00
    8   13   22     13.90      0.00
    9   13   22     10.65      0.00
   10   13   22     -3.15      0.00
    2   14   22      5.49      0.00
    3   14   22     22.95      0.00
    4   14   22     -3.56      0.00
    5   14   22     -0.15      0.00
    6   14   22     -8.90      0.00
    7   14   22      2.16      0.00
    8   14   22      3.38      0.00
    9   14   22      4.40      0.00
    3   15   22     19.34      0.00
    4   15   22      1.50      0.00
    5   15   22    -15.77      0.00
    6   15   22      5.52      0.00
    7   15   22     11.87      0.00
    8   15   22     -5.13      0.00
    0    1   23     -9.83      0.00
    1    2   23      1.32      0.00
    0    3   23     -7.24      0.00
    1    3   23    -14.48      0.00
    2    3   23      0.83      0.00
    1    4   23    -12.44      0.00
    2    4   23     17.03      0.00
    3    4   23      5.49      0.00
    0    5   23     11.79      0.00
    1    5   23      3.55      0.00
    2    5   23      5.97      0.00
    3    5   23     -0.90      0.00
    4    5   23     -1.82      0.00
    1    6   23      4.08      0.00
    2    6   23    -24.65      0.00
    3    6   23      9.19      0.00
    4    6   23    -13.71      0.00
    5    6   23    -11.70      0.00
    0    7   23    -13.31      0.00
    1    7   23    -16.53      0.00
    2    7   23    -22.33      0.00
    3    7   23      0.44      0.00
    4    7   23     23.69      0.00
    5    7   23     15.58      0.00
    6    7   23      5.65      0.00
    1    8   23      5.88      0.00
    2    8   23     -3.98      0.00
    3    8   23      6.93      0.00
    4    8   23     19.74      0.00
    5    8   23      0.20      0.00
    6    8   23     -8.86      0.00
    7    8   23    -25.77      0.00
    0    9   23    -16.89      0.00
    1    9   23    -10.24      0.00
    2    9   23      5.14      0.00
    3    9   23      2.29      0.00
    4    9   23     -2.04      0.00
    5    9   23     -4.96      0.00
    6    9   23     15.06      0.00
    7    9   23      6.11      0.00
    8    9   23      7.26      0.00
    1   10   23     -1.34      0.00
    2   10   23     -0.14      0.00
    3   10   23     -2.04      0.00
    4   10   23      3.61      0.00
    5   10   23     -6.98      0.00
    6   10   23      2.72      0.00
    7   10   23      2.72      0.00
    8   10   23      7.58      0.00
    9   10   23      9.54      0.00
    0   11   23      5.57      0.00
    1   11   23     -0.77      0.00
    2   11   23     -7.98      0.00
    3   11   23     -5.94      0.00
    4   11   23    -12.09      0.00
    5   11   23     10.13      0.00
    6   11   23      7.69      0.00
    7   11   23      3.43      0.00
    8   11   23    -18.04      0.00
    9   11   23      6.07      0.00
   10   11   23      5.33      0.00
    1   12   23     -3.90      0.00
    2   12   23    -14.58      0.00
    3   12   23      1.98      0.00
    4   12   23     -2.45      0.00
    5   12   23     -2.41      0.00
    6   12   23      1.01      0.00
    7   12   23      0.63      0.00
    8   12   23      7.66      0.00
    9   12   23     -0.03      0.00
   10   12   23     -1.56      0.00
    2   13   23      5.27      0.00
    3   13   23     18.29      0.00
    4   13   23     24.65      0.00
    5   13   23      0.51      0.00
    6   13   23    -18.63      0.00
    7   13   23     -7.08      0.00
    8   13   23     -0.97      0.00
    9   13   23      0.12      0.00
    2   14   23     10.41      0.00
    3   14   23      2.29      0.00
    4   14   23      9.24      0.00
    5   14   23     16.59      0.00
    6   14   23     17.08      0.00
    7   14   23    -17.81      0.00
    8   14   23      0.59      0.00
    2   15   23      0.85      0.00
    3   15   23     -2.26      0.00
    4   15   23     -6.81      0.00
    5   15   23      3.53      0.00
    6   15   23    -17.30      0.00
    7   15   23      5.67      0.00
    1    1   24      7.80      0.00
    0    2   24     12.80      0.00
    1    2   24     -3.55      0.00
    2    2   24      0.28      0.00
    1    3   24      7.75      0.00
    2    3   24     -8.70      0.00
    3    3   24     12.29      0.00
    0    4   24     -1.99      0.00
    1    4   24    -15.72      0.00
    2    4   24    -27.95      0.00
    3    4   24      6.89      0.00
    4    4   24      0.32      0.00
    1    5   24     -6.98      0.00
    2    5   24     18.85      0.00
    3    5   24     10.20      0.00
    4    5   24     -8.47      0.00
    5    5   24     -9.45      0.00
    0    6   24     -8.57      0.00
    1    6   24      9.51      0.00
    2    6   24    -10.52      0.00
    3    6   24    -11.97      0.00
    4    6   24     -7.87      0.00
    5    6   24    -10.04      0.00
    6    6   24      1.31      0.00
    1    7   24     -6.30      0.00
    2    7   24      4.47      0.00
    3    7   24     -2.86      0.00
    4    7   24     11.42      0.00
    5    7   24     -8.19      0.00
    6    7   24     -1.00      0.00
    7    7   24    101.69      0.00
    0    8   24     10.86      0.00
    1    8   24     20.93      0.00
    2    8   24      5.08      0.00
    3    8   24      8.02      0.00
    4    8   24      6.35      0.00
    5    8   24     -1.13      0.00
    6    8   24     -1.15      0.00
    7    8   24     12.90      0.00
    8    8   24     -5.85      0.00
    1    9   24     -0.50      0.00
    2    9   24      1.22      0.00
    3    9   24     -2.63      0.00
    4    9   24     19.01      0.00
    5    9   24     -7.74      0.00
    6    9   24    -22.17      0.00
    7    9   24     -3.18      0.00
    8    9   24     17.91      0.00
    9    9   24     -2.34      0.00
    0   10   24      2.60      0.00
    1   10   24      4.75      0.00
    2   10   24     12.90      0.00
    3   10   24     -2.97      0.00
    4   10   24      4.07      0.00
    5   10   24     -2.01      0.00
    6   10   24     -0.91      0.00
    7   10   24     -2.52      0.00
    8   10   24      6.63      0.00
    9   10   24      9.30      0.00
   10   10   24      4.94      0.00
    1   11   24    -12.31      0.00
    2   11   24     -0.66      0.00
    3   11   24     -7.77      0.00
    4   11   24      1.53      0.00
    5   11   24      8.08      0.00
    6   11   24     -0.21      0.00
    7   11   24    -36.06      0.00
    8   11   24      9.90      0.00
    9   11   24      6.60      0.00
   10   11   24      7.63      0.00
    0   12   24     14.84      0.00
    1   12   24     -1.16      0.00
    2   12   24    -15.72      0.00
    3   12   24      5.01      0.00
    4   12   24     17.52      0.00
    5   12   24     19.67      0.00
    6   12   24     10.16      0.00
    7   12   24      0.57      0.00
    8   12   24     -1.67      0.00
    9   12   24    -23.77      0.00
    1   13   24      4.34      0.00
    2   13   24    -40.42      0.00
    3   13   24    -12.55      0.00
    4   13   24    -13.07      0.00
    5   13   24     -5.89      0.00
    6   13   24      2.88      0.00
    7   13   24     -7.15      0.00
    8   13   24      3.93      0.00
    2   14   24     13.50      0.00
    3   14   24    -21.12      0.00
    4   14   24      5.45      0.00
    5   14   24    -11.52      0.00
    6   14   24     21.71      0.00
    7   14   24     -5.78      0.00
    2   15   24      2.38      0.00
    3   15   24     -4.00      0.00
    4   15   24      1.56      0.00
    5   15   24     -3.08      0.00
    6   15   24    -10.45      0.00
    1    2   25      2.04      0.00
    1    3   25     -8.03      0.00
    2    3   25     16.19      0.00
    1    4   25     11.54      0.00
    2    4   25     11.30      0.00
    3    4   25     -5.40      0.00
    0    5   25     80.09      0.00
    1    5   25      7.03      0.00
    2    5   25    -10.58      0.00
    3    5   25     -6.57      0.00
    4    5   25     -8.67      0.00
    1    6   25     24.08      0.00
    2    6   25     -6.94      0.00
    3    6   25      6.17      0.00
    4    6   25     -1.68      0.00
    5    6   25      1.40      0.00
    0    7   25    -12.11      0.00
    1    7   25      8.45      0.00
    2    7   25     -6.32      0.00
    3    7   25     -0.64      0.00
    4    7   25      3.74      0.00
    5    7   25     -2.30      0.00
    6    7   25     -8.62      0.00
    1    8   25      2.23      0.00
    2    8   25     12.54      0.00
    3    8   25    -11.07      0.00
    4    8   25    -22.52      0.00
    5    8   25    -17.93      0.00
    6    8   25     -6.03      0.00
    7    8   25     -0.21      0.00
    0    9   25      4.74      0.00
    1    9   25     -5.72      0.00
    2    9   25      2.70      0.00
    3    9   25     -8.63      0.00
    4    9   25     -0.86      0.00
    5    9   25     -0.52      0.00
    6    9   25     10.15      0.00
    7    9   25     -5.07      0.00
    8    9   25      0.60      0.00
    1   10   25      3.93      0.00
    2   10   25    -10.10      0.00
    3   10   25     16.70      0.00
    4   10   25    -12.02      0.00
    5   10   25    -11.01      0.00
    6   10   25     -3.83      0.00
    7   10   25    -12.84      0.00
    8   10   25      1.07      0.00
    9   10   25      0.17      0.00
    0   11   25    -18.11      0.00
    1   11   25      9.15      0.00
    2   11   25      1.55      0.00
    3   11   25    -13.78      0.00
    4   11   25      1.02      0.00
    5   11   25     -9.19      0.00
    6   11   25     14.95      0.00
    7   11   25     -8.64      0.00
    8   11   25      9.78      0.00
    9   11   25     -0.57      0.00
    1   12   25     13.25      0.00
    2   12   25     -4.46      0.00
    3   12   25     14.52      0.00
    4   12   25      2.45      0.00
    5   12   25      0.35      0.00
    6   12   25      6.00      0.00
    7   12   25     12.10      0.00
    8   12   25     -3.30      0.00
    0   13   25     10.42      0.00
    1   13   25      1.39      0.00
    2   13   25      0.67      0.00
    3   13   25     16.43      0.00
    4   13   25     -7.91      0.00
    5   13   25     -9.65      0.00
    6   13   25    -10.56      0.00
    7   13   25      3.80      0.00
    3   14   25    -13.13      0.00
    4   14   25     -8.25      0.00
    5   14   25      8.90      0.00
    6   14   25      5.77      0.00
    3   15   25      1.13      0.00
    4   15   25     -9.61      0.00
    0    2   26     -7.23      0.00
    1    2   26     -4.23      0.00
    2    2   26    -10.33      0.00
    1    3   26      3.13      0.00
    2    3   26     -7.88      0.00
    3    3   26     10.15      0.00
    0    4   26      9.54      0.00
    1    4   26      2.50      0.00
    2    4   26    -19.71      0.00
    3    4   26      1.57      0.00
    4    4   26     -5.92      0.00
    1    5   26     -7.25      0.00
    2    5   26      2.36      0.00
    3    5   26     -2.34      0.00
    4    5   26     -4.79      0.00
    5    5   26      9.77      0.00
    0    6   26    -30.67      0.00
    1    6   26     -9.83      0.00
    2    6   26      3.50      0.00
    3    6   26     -1.12      0.00
    4    6   26      8.59      0.00
    5    6   26    -17.42      0.00
    6    6   26    -24.55      0.00
    1    7   26      1.10      0.00
    2    7   26      7.05      0.00
    3    7   26     -0.98      0.00
    4    7   26     -0.75      0.00
    5    7   26     -2.38      0.00
    6    7   26     -3.00      0.00
    7    7   26     -8.56      0.00
    0    8   26     20.84      0.00
    1    8   26    -27.72      0.00
    2    8   26      9.20      0.00
    3    8   26      1.53      0.00
    4    8   26      5.59      0.00
    5    8   26      4.61      0.00
    6    8   26      0.31      0.00
    7    8   26      8.17      0.00
    8    8   26    -21.73      0.00
    1    9   26    -25.71      0.00
    2    9   26     -5.43      0.00
    3    9   26     20.78      0.00
    4    9   26    -15.80      0.00
    5    9   26    -17.50      0.00
    6    9   26      1.45      0.00
    7    9   26    -13.32      0.00
    8    9   26     -3.24      0.00
    9    9   26     -1.80      0.00
    0   10   26     27.59      0.00
    1   10   26     -1.87      0.00
    2   10   26    -10.26      0.00
    3   10   26     -2.05      0.00
    4   10   26      8.96      0.00
    5   10   26     10.66      0.00
    6   10   26     46.25      0.00
    7   10   26     -3.43      0.00
    8   10   26      2.48      0.00
    9   10   26      0.71      0.00
    1   11   26     -8.23      0.00
    2   11   26     -3.77      0.00
    3   11   26    -16.91      0.00
    4   11   26     28.33      0.00
    5   11   26    -11.44      0.00
    6   11   26      5.49      0.00
    7   11   26      2.91      0.00
    8   11   26     -3.58      0.00
    0   12   26     13.83      0.00
    1   12   26     -9.90      0.00
    2   12   26     13.39      0.00
    3   12   26      4.70      0.00
    4   12   26     -0.97      0.00
    5   12   26     -2.88      0.00
    6   12   26     -8.81      0.00
    7   12   26     -8.34      0.00
    1   13   26    -18.20      0.00
    2   13   26     -9.70      0.00
    3   13   26      8.19      0.00
    4   13   26      9.81      0.00
    5   13   26    -11.74      0.00
    6   13   26      0.20      0.00
    3   14   26      9.86      0.00
    4   14   26     -7.16      0.00
    1    2   27      2.90      0.00
    0    3   27     11.99      0.00
    1    3   27      2.44      0.00
    2    3   27      1.05      0.00
    1    4   27     -7.86      0.00
    2    4   27      1.19      0.00
    3    4   27      8.38      0.00
    0    5   27    -10.69      0.00
    1    5   27      5.75      0.00
    2    5   27     -1.97      0.00
    3    5   27    -11.73      0.00
    4    5   27     -2.39      0.00
    1    6   27    -14.74      0.00
    2    6   27      6.30      0.00
    3    6   27     25.68      0.00
    4    6   27      2.38      0.00
    5    6   27      5.01      0.00
    0    7   27     -5.88      0.00
    1    7   27      4.94      0.00
    2    7   27     -1.78      0.00
    3    7   27      3.44      0.00
    4    7   27     -2.48      0.00
    5    7   27     26.81      0.00
    6    7   27    -12.32      0.00
    1    8   27    -14.50      0.00
    2    8   27     -0.90      0.00
    3    8   27     -3.18      0.00
    4    8   27     -8.03      0.00
    5    8   27    -10.86      0.00
    6    8   27      8.53      0.00
    7    8   27    -15.43      0.00
    0    9   27     -8.74      0.00
    1    9   27      3.48      0.00
    2    9   27      5.51      0.00
    3    9   27     28.59      0.00
    4    9   27     12.39      0.00
    5    9   27      7.09      0.00
    6    9   27     16.34      0.00
    7    9   27      5.03      0.00
    8    9   27     15.30      0.00
    1   10   27     -7.22      0.00
    2   10   27      9.95      0.00
    3   10   27    -11.71      0.00
    4   10   27     16.69      0.00
    5   10   27     -9.85      0.00
    6   10   27      2.54      0.00
    7   10   27     -5.19      0.00
    8   10   27     -8.83      0.00
    1   11   27     57.20      0.00
    2   11   27     -1.85      0.00
    3   11   27     -7.49      0.00
    4   11   27     -4.41      0.00
    5   11   27    -13.57      0.00
    6   11   27    -10.05      0.00
    7   11   27    -11.32      0.00
    1   12   27      5.76      0.00
    2   12   27      0.92      0.00
    3   12   27      5.27      0.00
    4   12   27     -2.54      0.00
    5   12   27      5.32      0.00
    6   12   27      1.60      0.00
    0   13   27      6.73      0.00
    1   13   27     -3.64      0.00
    2   13   27     -4.48      0.00
    3   13   27     -8.87      0.00
    4   13   27    -16.85      0.00
    0    2   28    -19.28      0.00
    1    2   28     17.15      0.00
    2    2   28      4.68      0.00
    1    3   28     -0.31      0.00
    2    3   28      3.00      0.00
    3    3   28      6.47      0.00
    0    4   28      9.51      0.00
    1    4   28     19.42      0.00
    2    4   28     12.14      0.00
    3    4   28    -21.79      0.00
    4    4   28     -4.20      0.00
    1    5   28     10.76      0.00
    2    5   28     -6.18      0.00
    3    5   28    -14.63      0.00
    4    5   28     13.80      0.00
    5    5   28     24.29      0.00
    0    6   28     -6.49      0.00
    1    6   28     -6.31      0.00
    2    6   28      4.69      0.00
    3    6   28     18.68      0.00
    4    6   28     15.44      0.00
    5    6   28     -7.55      0.00
    6    6   28    -20.20      0.00
    1    7   28     11.36      0.00
    2    7   28      9.24      0.00
    3    7   28     -0.09      0.00
    4    7   28     -6.61      0.00
    5    7   28     -0.95      0.00
    6    7   28     10.59      0.00
    7    7   28     11.01      0.00
    0    8   28      0.49      0.00
    1    8   28     -8.57      0.00
    2    8   28     -6.95      0.00
    3    8   28     16.02      0.00
    4    8   28    -11.94      0.00
    5    8   28      8.37      0.00
    6    8   28     92.39      0.00
    7    8   28     11.93      0.00
    8    8   28    -14.97      0.00
    1    9   28    -11.29      0.00
    2    9   28     -5.42      0.00
    3    9   28      0.25      0.00
    4    9   28      5.41      0.00
    5    9   28    -22.89      0.00
    6    9   28    -17.32      0.00
    7    9   28    -10.72      0.00
    8    9   28      3.63      0.00
    0   10   28     84.73      0.00
    1   10   28    -20.83      0.00
    2   10   28    -12.82      0.00
    3   10   28     -7.82      0.00
    4   10   28     18.81      0.00
    5   10   28      0.12      0.00
    6   10   28     -1.63      0.00
    7   10   28      1.33      0.00
    1   11   28    -11.71      0.00
    2   11   28    -19.71      0.00
    3   11   28      4.55      0.00
    4   11   28     -0.94      0.00
    5   11   28     -6.26      0.00
    6   11   28     27.07      0.00
    0   12   28      2.47      0.00
    1   12   28     16.25      0.00
    2   12   28     20.14      0.00
    3   12   28    -14.75      0.00
    4   12   28     -6.60      0.00
    1   13   28    -29.91      0.00
    2   13   28      5.94      0.00
    1    2   29     -2.63      0.00
    0    3   29      0.72      0.00
    1    3   29      2.91      0.00
    2    3   29    -10.27      0.00
    1    4   29     -3.99      0.00
    2    4   29      6.53      0.00
    3    4   29    -21.52      0.00
    0    5   29     -2.10      0.00
    1    5   29    -10.05      0.00
    2    5   29     -7.07      0.00
    3    5   29      3.43      0.00
    4    5   29    -17.00      0.00
    1    6   29     -8.99      0.00
    2    6   29    -15.04      0.00
    3    6   29      4.01      0.00
    4    6   29     -2.44      0.00
    5    6   29      7.81      0.00
    0    7   29    -21.50      0.00
    1    7   29    -19.68      0.00
    2    7   29     25.18      0.00
    3    7   29     -5.56      0.00
    4    7   29     -6.08      0.00
    5    7   29     11.34      0.00
    6    7   29    -20.21      0.00
    1    8   29     15.09      0.00
    2    8   29     20.02      0.00
    3    8   29    -15.30      0.00
    4    8   29    -95.72      0.00
    5    8   29    -15.92      0.00
    6    8   29     -3.48      0.00
    7    8   29      1.54      0.00
    0    9   29     63.13      0.00
    1    9   29    -28.12      0.00
    2    9   29     -7.61      0.00
    3    9   29      5.16      0.00
    4    9   29     -3.80      0.00
    5    9   29      2.14      0.00
    6    9   29     13.64      0.00
    7    9   29    -11.30      0.00
    1   10   29    -15.09      0.00
    2   10   29    -16.43      0.00
    3   10   29     -2.82      0.00
    4   10   29     14.43      0.00
    5   10   29     -2.27      0.00
    6   10   29     10.22      0.00
    0   11   29     -3.03      0.00
    1   11   29     23.54      0.00
    2   11   29      3.24      0.00
    3   11   29      5.20      0.00
    4   11   29      2.42      0.00
    1   12   29      2.18      0.00
    2   12   29    -10.64      0.00
    3   12   29      8.75      0.00
    1   13   29     -0.96      0.00
    1    3   30      4.88      0.00
    2    3   30      3.46      0.00
    3    3   30     -1.19      0.00
    0    4   30     -0.32      0.00
    1    4   30    -11.28      0.00
    2    4   30      6.35      0.00
    3    4   30    -21.07      0.00
    4    4   30     19.43      0.00
    1    5   30      4.76      0.00
    2    5   30      0.35      0.00
    3    5   30     -1.88      0.00
    4    5   30      4.29      0.00
    5    5   30      9.40      0.00
    0    6   30    -17.46      0.00
    1    6   30     -2.28      0.00
    2    6   30      1.79      0.00
    3    6   30     -2.85      0.00
    4    6   30      9.37      0.00
    5    6   30    -25.41      0.00
    6    6   30     -7.67      0.00
    1    7   30     -3.55      0.00
    2    7   30      9.90      0.00
    3    7   30     13.89      0.00
    4    7   30     11.17      0.00
    5    7   30    -30.83      0.00
    6    7   30      5.46      0.00
    7    7   30    -18.77      0.00
    0    8   30     -5.15      0.00
    1    8   30     13.41      0.00
    2    8   30     -1.60      0.00
    3    8   30     38.63      0.00
    4    8   30     -2.21      0.00
    5    8   30      6.92      0.00
    6    8   30     14.97      0.00
    7    8   30      1.26      0.00
    1    9   30     -3.52      0.00
    2    9   30    -18.48      0.00
    3    9   30     -2.91      0.00
    4    9   30     -0.63      0.00
    5    9   30     -9.06      0.00
    6    9   30    -16.05      0.00
    0   10   30    -11.79      0.00
    1   10   30     12.03      0.00
    2   10   30      2.12      0.00
    3   10   30     14.02      0.00
    4   10   30      7.85      0.00
    1   11   30    -16.84      0.00
    2   11   30     -3.34      0.00
    3   11   30      4.96      0.00
    1   12   30      1.31      0.00
    0    3   31      6.64      0.00
    1    3   31     -6.30      0.00
    2    3   31     15.63      0.00
    1    4   31     -8.79      0.00
    2    4   31      4.93      0.00
    3    4   31      1.77      0.00
    0    5   31      8.65      0.00
    1    5   31     15.43      0.00
    2    5   31     -5.88      0.00
    3    5   31     14.59      0.00
    4    5   31      8.53      0.00
    2    6   31      4.41      0.00
    3    6   31      2.70      0.00
    4    6   31     -1.48      0.00
    5    6   31      1.39      0.00
    0    7   31     19.78      0.00
    1    7   31     10.68      0.00
    2    7   31     -0.21      0.00
    3    7   31    -11.57      0.00
    4    7   31      8.00      0.00
    5    7   31     25.03      0.00
    6    7   31      5.21      0.00
    1    8   31    -17.90      0.00
    2    8   31     -7.90      0.00
    3    8   31      2.34      0.00
    4    8   31      0.42      0.00
    5    8   31      2.46      0.00
    0    9   31     -7.58      0.00
    1    9   31    -18.20      0.00
    2    9   31     -1.38      0.00
    3    9   31      2.97      0.00
    4    9   31     15.01      0.00
    1   10   31      2.39      0.00
    2   10   31      0.53      0.00
    3   10   31      1.85      0.00
    1   11   31     15.60      0.00
    2   11   31      7.74      0.00
    1    3   32     17.18      0.00
    0    4   32    -25.94      0.00
    1    4   32   -113.78      0.00
    2    4   32      7.03      0.00
    3    4   32     20.20      0.00
    4    4   32     13.15      0.00
    1    5   32      6.46      0.00
    2    5   32     18.71      0.00
    3    5   32      6.33      0.00
    4    5   32      5.64      0.00
    5    5   32    -15.67      0.00
    0    6   32      2.53      0.00
    1    6   32    -12.27      0.00
    2    6   32    -29.76      0.00
    3    6   32      8.19      0.00
    4    6   32      3.25      0.00
    5    6   32     -0.21      0.00
    6    6   32     10.85      0.00
    1    7   32      1.21      0.00
    2    7   32     15.42      0.00
    3    7   32    -24.98      0.00
    4    7   32    -15.67      0.00
    5    7   32      8.47      0.00
    1    8   32      3.94      0.00
    2    8   32     -8.64      0.00
    3    8   32      1.86      0.00
    4    8   32     12.42      0.00
    1    9   32      8.98      0.00
    2    9   32    -14.35      0.00
    3    9   32     -1.56      0.00
    1   10   32     28.77      0.00
    2   10   32     -0.25      0.00
    1    4   33    -13.65      0.00
    2    4   33    -10.07      0.00
    3    4   33    -12.34      0.00
    0    5   33    -15.08      0.00
    1    5   33     -3.27      0.00
    2    5   33     -7.59      0.00
    3    5   33     -3.30      0.00
    4    5   33     -4.64      0.00
    1    6   33     10.66      0.00
    2    6   33      7.81      0.00
    3    6   33     -5.66      0.00
    4    6   33      6.63      0.00
    1    7   33     17.73      0.00
    2    7   33     -2.60      0.00
    3    7   33      8.23      0.00
    4    7   33      4.45      0.00
    1    8   33     -7.61      0.00
    2    8   33      8.21      0.00
    3    8   33      9.17      0.00
    1    9   33    -24.75      0.00
    0    4   34     12.21      0.00
    1    4   34    -12.18      0.00
    2    4   34     23.97      0.00
    3    4   34      5.26      0.00
    1    5   34     20.41      0.00
    2    5   34     -3.98      0.00
    3    5   34     -4.95      0.00
    4    5   34    -27.05      0.00
    1    6   34     -9.17      0.00
    2    6   34     -1.03      0.00
    3    6   34    -14.95      0.00
    1    7   34      0.31      0.00
    2    7   34      1.79      0.00
    1    8   34    -10.04      0.00
    1    5   35    -14.96      0.00
    2    5   35      6.96      0.00
    1    6   35      4.12      0.00
    1    1    0   -136.45      0.00
    2    2    0    273.31      0.00
    3    3    0    163.46      0.00
    4    4    0     -4.53      0.00
    4    5    0     35.27      0.00
    5    5    0     20.30      0.00
    5    6    0    -19.92      0.00
    6    6    0     52.22      0.00
    5    7    0    -56.15      0.00
    6    7    0    -18.94      0.00
    7    7    0     17.10      0.00
    6    8    0     20.16      0.00
    7    8    0      3.07      0.00
    8    8    0    -31.07      0.00
    6    9    0     26.16      0.00
    7    9    0     -6.98      0.00
    8    9    0     -1.36      0.00
    9    9    0     16.78      0.00
    7   10    0     -5.77      0.00
    8   10    0     20.22      0.00
    9   10    0     -0.74      0.00
   10   10    0      4.63      0.00
    7   11    0      5.99      0.00
    8   11    0     -3.72      0.00
    9   11    0      3.15      0.00
   10   11    0     -7.88      0.00
   11   11    0    -14.76      0.00
    7   12    0     14.56      0.00
    8   12    0     27.33      0.00
    9   12    0      6.69      0.00
   10   12    0    -22.80      0.00
   11   12    0    -23.42      0.00
   12   12    0     -0.24      0.00
    6   13    0    -32.66      0.00
    7   13    0     19.89      0.00
    8   13    0     17.35      0.00
    9   13    0    -35.37      0.00
   10   13    0     -3.29      0.00
   11   13    0      4.07      0.00
   12   13    0    -10.83      0.00
   13   13    0     -5.31      0.00
    0   14    0     24.44      0.00
    8   14    0      2.45      0.00
    9   14    0     18.63      0.00
   10   14    0      7.41      0.00
   11   14    0      2.77      0.00
   12   14    0    -20.03      0.00
   13   14    0      7.37      0.00
   14   14    0     63.57      0.00
    8   15    0      9.70      0.00
    9   15    0     20.79      0.00
   10   15    0     16.57      0.00
   11   15    0     16.78      0.00
   12   15    0      7.95      0.00
   13   15    0    -17.99      0.00
   14   15    0     -3.18      0.00
   15   15    0      2.04      0.00
    8   16    0    -41.81      0.00
    9   16    0      7.76      0.00
   10   16    0     13.13      0.00
   11   16    0    -14.51      0.00
   12   16    0     -4.27      0.00
   13   16    0     -6.81      0.00
   14   16    0     -5.92      0.00
    8   17    0     32.52      0.00
    9   17    0    -17.82      0.00
   10   17    0     -1.26      0.00
   11   17    0    -15.96      0.00
   12   17    0     -4.27      0.00
   13   17    0     12.81      0.00
    8   18    0      2.72      0.00
    9   18    0      6.38      0.00
   10   18    0      0.66      0.00
   11   18    0      9.37      0.00
   12   18    0      6.98      0.00
    8   19    0     -6.76      0.00
    9   19    0     -0.33      0.00
   10   19    0     -0.07      0.00
    7   20    0    -27.14      0.00
    8   20    0      5.57      0.00
    1   21    0     -2.48      0.00
    2   21    0    -23.12      0.00
    3   21    0      8.49      0.00
    4   21    0     27.97      0.00
    5   21    0     -7.41      0.00
    0    1    1   -202.48      0.00
    4    5    1    -26.36      0.00
    5    6    1      9.18      0.00
    6    7    1    -17.15      0.00
    6    8    1     -6.58      0.00
    7    8    1     -2.21      0.00
    7    9    1     -5.66      0.00
    8    9    1     14.31      0.00
    7   10    1    -26.53      0.00
    8   10    1    -14.05      0.00
    9   10    1     -1.30      0.00
    7   11    1    -12.00      0.00
    8   11    1      3.66      0.00
    9   11    1      3.84      0.00
   10   11    1      0.74      0.00
    8   12    1      4.50      0.00
    9   12    1     -1.05      0.00
   10   12    1      3.77      0.00
   11   12    1     10.38      0.00
    7   13    1     16.73      0.00
    8   13    1    -16.98      0.00
    9   13    1    -10.84      0.00
   10   13    1    -16.14      0.00
   11   13    1      0.92      0.00
   12   13    1      3.94      0.00
    8   14    1      8.05      0.00
    9   14    1    -13.23      0.00
   10   14    1     -4.49      0.00
   11   14    1     -5.28      0.00
   12   14    1     10.18      0.00
   13   14    1     -8.04      0.00
    8   15    1     12.41      0.00
    9   15    1     11.81      0.00
   10   15    1     -3.66      0.00
   11   15    1      1.09      0.00
   12   15    1     -2.75      0.00
   13   15    1     -2.44      0.00
   14   15    1     -3.04      0.00
    8   16    1    -14.89      0.00
    9   16    1     12.98      0.00
   10   16    1     -6.81      0.00
   11   16    1    -20.93      0.00
   12   16    1     -8.87      0.00
   13   16    1      4.09      0.00
   14   16    1      4.46      0.00
    8   17    1    -15.68      0.00
    9   17    1     -8.97      0.00
   10   17    1      1.72      0.00
   11   17    1     -4.92      0.00
   12   17    1      0.26      0.00
   13   17    1      2.07      0.00
    8   18    1    -27.08      0.00
    9   18    1      4.51      0.00
   10   18    1      0.42      0.00
   11   18    1      0.88      0.00
   12   18    1      8.04      0.00
    8   19    1    -12.16      0.00
    9   19    1      3.48      0.00
   10   19    1      1.64      0.00
    8   20    1     -3.68      0.00
    0   21    1      3.12      0.00
    1   21    1      9.89      0.00
    2   21    1    -14.57      0.00
    3   21    1     -9.81      0.00
    4   21    1      0.85      0.00
    5   21    1      1.21      0.00
    0    0    2    213.49      0.00
    4    4    2    -76.99      0.00
    4    5    2     14.95      0.00
    5    5    2      3.58      0.00
    5    6    2     -4.82      0.00
    6    6    2    -19.44      0.00
    6    7    2     -6.37      0.00
    7    7    2    -18.01      0.00
    6    8    2     17.26      0.00
    7    8    2    -10.19      0.00
    8    8    2     11.08      0.00
    7    9    2     -3.00      0.00
    8    9    2      6.85      0.00
    9    9    2    -15.11      0.00
    7   10    2    -35.29      0.00
    8   10    2     -7.90      0.00
    9   10    2     -4.39      0.00
   10   10    2    -24.63      0.00
    8   11    2     -6.68      0.00
    9   11    2     -2.39      0.00
   10   11    2     -2.25      0.00
   11   11    2      6.33      0.00
    8   12    2     11.35      0.00
    9   12    2      6.26      0.00
   10   12    2     17.18      0.00
   11   12    2      4.58      0.00
   12   12    2     28.45      0.00
    7   13    2     -9.26      0.00
    8   13    2     -2.62      0.00
    9   13    2     -4.01      0.00
   10   13    2    -10.07      0.00
   11   13    2     -0.77      0.00
   12   13    2     11.72      0.00
   13   13    2     12.45      0.00
    8   14    2     11.82      0.00
    9   14    2    -16.42      0.00
   10   14    2    -11.89      0.00
   11   14    2     -4.00      0.00
   12   14    2     -5.79      0.00
   13   14    2      9.01      0.00
   14   14    2      4.93      0.00
    8   15    2    -14.92      0.00
    9   15    2     25.30      0.00
   10   15    2      6.47      0.00
   11   15    2     -3.64      0.00
   12   15    2     -1.87      0.00
   13   15    2     -3.95      0.00
   14   15    2      6.49      0.00
   15   15    2    -21.57      0.00
    9   16    2     -0.70      0.00
   10   16    2     11.03      0.00
   11   16    2     -8.43      0.00
   12   16    2      9.36      0.00
   13   16    2     -0.09      0.00
   14   16    2     -2.39      0.00
    9   17    2     -9.29      0.00
   10   17    2      2.43      0.00
   11   17    2     -8.66      0.00
   12   17    2      9.67      0.00
   13   17    2      4.26      0.00
    9   18    2     -1.09      0.00
   10   18    2      6.43      0.00
   11   18    2      8.01      0.00
   12   18    2      4.12      0.00
    9   19    2      5.96      0.00
   10   19    2    -10.48      0.00
    8   20    2     -0.32      0.00
    1   21    2      4.04      0.00
    2   21    2     -0.80      0.00
    3   21    2     -2.71      0.00
    4   21    2      4.99      0.00
    5   21    2      2.37      0.00
    6    7    3      2.22      0.00
    7    8    3     -3.66      0.00
    7    9    3      6.05      0.00
    8    9    3     -3.64      0.00
    8   10    3      0.62      0.00
    9   10    3     13.35      0.00
    8   11    3      1.99      0.00
    9   11    3     28.23      0.00
   10   11    3      3.66      0.00
    8   12    3    -14.32      0.00
    9   12    3     -2.87      0.00
   10   12    3    -10.11      0.00
   11   12    3      7.33      0.00
    7   13    3     -8.82      0.00
    8   13    3      9.39      0.00
    9   13    3      3.00      0.00
   10   13    3     -5.11      0.00
   11   13    3    -14.44      0.00
   12   13    3    -13.69      0.00
    9   14    3     10.90      0.00
   10   14    3     12.32      0.00
   11   14    3     22.74      0.00
   12   14    3      8.00      0.00
   13   14    3     14.06      0.00
    9   15    3    -13.70      0.00
   10   15    3     21.72      0.00
   11   15    3     11.09      0.00
   12   15    3     -3.44      0.00
   13   15    3     -8.09      0.00
   14   15    3      6.38      0.00
    9   16    3    -16.63      0.00
   10   16    3     -0.05      0.00
   11   16    3     14.98      0.00
   12   16    3      1.72      0.00
   13   16    3     -4.43      0.00
   14   16    3     -0.67      0.00
    9   17    3     21.29      0.00
   10   17    3      1.90      0.00
   11   17    3     -0.22      0.00
   12   17    3      8.19      0.00
   13   17    3     -1.51      0.00
    9   18    3     13.99      0.00
   10   18    3      0.83      0.00
   11   18    3      2.81      0.00
   12   18    3     -4.38      0.00
    8   19    3      9.31      0.00
    9   19    3     -1.37      0.00
   10   19    3    -11.94      0.00
    8   20    3    -19.08      0.00
    0   21    3     -6.08      0.00
    4   21    3     -5.28      0.00
    5   21    3      1.44      0.00
    6    6    4     12.71      0.00
    7    7    4      9.32      0.00
    7    8    4     -9.79      0.00
    8    8    4     13.45      0.00
    8    9    4     15.56      0.00
    9    9    4    -11.20      0.00
    8   10    4      2.10      0.00
    9   10    4     -3.51      0.00
   10   10    4     -4.16      0.00
    8   11    4     17.27      0.00
    9   11    4      0.82      0.00
   10   11    4    -12.17      0.00
   11   11    4     -6.10      0.00
    9   12    4      0.34      0.00
   10   12    4      7.88      0.00
   11   12    4      8.33      0.00
   12   12    4    -17.45      0.00
    8   13    4     -7.70      0.00
    9   13    4     30.77      0.00
   10   13    4     -7.67      0.00
   11   13    4     -8.28      0.00
   12   13    4      4.71      0.00
   13   13    4     -9.74      0.00
    9   14    4     14.07      0.00
   10   14    4      9.28      0.00
   11   14    4     -2.19      0.00
   12   14    4      4.85      0.00
   13   14    4     -9.54      0.00
   14   14    4    -14.87      0.00
    9   15    4    -11.63      0.00
   10   15    4     11.81      0.00
   11   15    4     -3.34      0.00
   12   15    4     -9.44      0.00
   13   15    4      3.97      0.00
   14   15    4      2.11      0.00
   15   15    4      2.73      0.00
    9   16    4      0.58      0.00
   10   16    4      1.05      0.00
   11   16    4    -12.44      0.00
   12   16    4      7.89      0.00
   13   16    4     -6.58      0.00
   14   16    4      3.16      0.00
    8   17    4      2.58      0.00
    9   17    4     -0.47      0.00
   10   17    4     -1.27      0.00
   11   17    4    -12.61      0.00
   12   17    4     -2.67      0.00
   13   17    4     -0.56      0.00
    8   18    4      4.94      0.00
    9   18    4    -16.34      0.00
   10   18    4      4.23      0.00
   11   18    4      1.06      0.00
   12   18    4     -3.67      0.00
    7   19    4      3.35      0.00
    8   19    4     -7.02      0.00
    9   19    4      0.51      0.00
   10   19    4     -2.48      0.00
    7   20    4     -4.71      0.00
    8   20    4     -2.24      0.00
    5   21    4     -5.00      0.00
    8    9    5     21.69      0.00
    8   10    5    -22.60      0.00
    9   10    5    -16.85      0.00
    9   11    5     17.60      0.00
   10   11    5    -14.44      0.00
    9   12    5     37.17      0.00
   10   12    5     -1.21      0.00
   11   12    5     -9.87      0.00
    8   13    5     18.18      0.00
    9   13    5      6.09      0.00
   10   13    5    -23.95      0.00
   11   13    5     -1.15      0.00
   12   13    5      4.86      0.00
    8   14    5    -18.13      0.00
    9   14    5    -26.89      0.00
   10   14    5     11.53      0.00
   11   14    5    -13.54      0.00
   12   14    5     -4.38      0.00
   13   14    5      4.92      0.00
    8   15    5     -7.75      0.00
    9   15    5      6.40      0.00
   10   15    5     -4.02      0.00
   11   15    5     -9.67      0.00
   12   15    5     -7.74      0.00
   13   15    5     -5.19      0.00
   14   15    5     -7.24      0.00
    8   16    5      3.57      0.00
    9   16    5      7.02      0.00
   10   16    5     -8.01      0.00
   11   16    5     -1.81      0.00
   12   16    5     21.92      0.00
   13   16    5      4.12      0.00
   14   16    5      2.79      0.00
    7   17    5     -6.19      0.00
    8   17    5     -4.85      0.00
    9   17    5      5.67      0.00
   10   17    5    -13.46      0.00
   11   17    5     -2.25      0.00
   12   17    5     -1.48      0.00
   13   17    5      7.49      0.00
    7   18    5    -24.91      0.00
    8   18    5      9.23      0.00
    9   18    5     -5.11      0.00
   10   18    5      2.75      0.00
   11   18    5     -3.29      0.00
    7   19    5      8.98      0.00
    8   19    5     -9.25      0.00
    9   19    5     -2.63      0.00
   10   19    5      1.02      0.00
    6   20    5      6.54      0.00
    7   20    5    -14.48      0.00
    8   20    5      1.33      0.00
    8    8    6     30.42      0.00
    8    9    6    -10.71      0.00
    9    9    6      7.52      0.00
    9   10    6     11.41      0.00
   10   10    6    -21.36      0.00
    9   11    6      7.26      0.00
   10   11    6     -8.88      0.00
   11   11    6     26.63      0.00
    9   12    6     10.43      0.00
   10   12    6     -9.50      0.00
   11   12    6    -10.00      0.00
   12   12    6     -8.47      0.00
    8   13    6    -22.69      0.00
    9   13    6    -17.93      0.00
   10   13    6      1.48      0.00
   11   13    6     -0.22      0.00
   12   13    6     -9.79      0.00
   13   13    6     -2.63      0.00
    7   14    6      6.42      0.00
    8   14    6     10.20      0.00
    9   14    6     -2.42      0.00
   10   14    6    -15.60      0.00
   11   14    6     10.77      0.00
   12   14    6     11.35      0.00
   13   14    6     -4.92      0.00
   14   14    6     -2.78      0.00
    7   15    6     -4.77      0.00
    8   15    6     -1.45      0.00
    9   15    6      7.21      0.00
   10   15    6     -3.85      0.00
   11   15    6     -8.63      0.00
   12   15    6     11.96      0.00
   13   15    6     -5.84      0.00
   14   15    6      1.54      0.00
   15   15    6     -0.69      0.00
    7   16    6    -11.69      0.00
    8   16    6     -0.37      0.00
    9   16    6     -9.92      0.00
   10   16    6      3.32      0.00
   11   16    6      1.65      0.00
   12   16    6    -10.24      0.00
   13   16    6     -0.59      0.00
   14   16    6     -2.81      0.00
    7   17    6    -12.76      0.00
    8   17    6     -6.67      0.00
    9   17    6      3.26      0.00
   10   17    6     11.54      0.00
   11   17    6      4.96      0.00
   12   17    6     -8.04      0.00
   13   17    6    -13.05      0.00
    7   18    6     -1.89      0.00
    8   18    6     19.44      0.00
    9   18    6      4.58      0.00
   10   18    6      7.22      0.00
   11   18    6     -1.07      0.00
    7   19    6     13.75      0.00
    8   19    6      6.76      0.00
    9   19    6    -11.01      0.00
   10   19    6      5.55      0.00
    5   20    6     -1.99      0.00
    6   20    6     11.88      0.00
    7   20    6      7.39      0.00
    4   21    6      7.84      0.00
    9   10    7     -1.40      0.00
    9   11    7      3.39      0.00
   10   11    7     17.46      0.00
    9   12    7     -2.16      0.00
   10   12    7     -4.53      0.00
   11   12    7     -2.31      0.00
    8   13    7     33.93      0.00
    9   13    7    -13.36      0.00
   10   13    7     23.53      0.00
   11   13    7      8.40      0.00
   12   13    7    -13.13      0.00
    8   14    7     -1.11      0.00
    9   14    7    -12.67      0.00
   10   14    7    -16.59      0.00
   11   14    7     11.07      0.00
   12   14    7     13.02      0.00
   13   14    7      4.64      0.00
    8   15    7    -29.45      0.00
    9   15    7     12.48      0.00
   10   15    7      3.67      0.00
   11   15    7     -7.35      0.00
   12   15    7     11.87      0.00
   13   15    7     -4.10      0.00
   14   15    7      3.86      0.00
    8   16    7     -5.77      0.00
    9   16    7     18.66      0.00
   10   16    7     11.34      0.00
   11   16    7     -4.37      0.00
   12   16    7     -3.89      0.00
   13   16    7      5.03      0.00
   14   16    7     -2.46      0.00
    8   17    7      5.02      0.00
    9   17    7     -6.66      0.00
   10   17    7      6.01      0.00
   11   17    7     -1.38      0.00
   12   17    7     -4.47      0.00
    7   18    7     -6.91      0.00
    8   18    7     -5.42      0.00
    9   18    7     -2.72      0.00
   10   18    7      5.61      0.00
   11   18    7      5.49      0.00
    7   19    7    -15.13      0.00
    8   19    7     13.55      0.00
    9   19    7     -7.44      0.00
    3   20    7      3.33      0.00
    4   20    7     -7.12      0.00
    5   20    7    -16.80      0.00
    6   20    7      2.83      0.00
    7   20    7     10.89      0.00
    3   21    7    -15.34      0.00
    4   21    7     -0.22      0.00
    9    9    8     22.73      0.00
    9   10    8    -16.88      0.00
   10   10    8    -57.97      0.00
    9   11    8     29.48      0.00
   10   11    8      1.45      0.00
   11   11    8      9.88      0.00
    9   12    8     20.98      0.00
   10   12    8      9.62      0.00
   11   12    8      6.81      0.00
   12   12    8      4.93      0.00
    8   13    8    -12.16      0.00
    9   13    8     55.89      0.00
   10   13    8     -3.86      0.00
   11   13    8     -1.53      0.00
   12   13    8     -5.20      0.00
   13   13    8      1.04      0.00
    8   14    8    -18.39      0.00
    9   14    8      5.15      0.00
   10   14    8    -10.49      0.00
   11   14    8    -17.45      0.00
   12   14    8      8.36      0.00
   13   14    8     -7.36      0.00
   14   14    8     -9.63      0.00
    8   15    8     27.89      0.00
    9   15    8     14.93      0.00
   10   15    8     -3.33      0.00
   11   15    8     11.13      0.00
   12   15    8      4.40      0.00
   13   15    8      7.75      0.00
   14   15    8     -9.82      0.00
   15   15    8     -4.22      0.00
    8   16    8      2.02      0.00
    9   16    8      6.08      0.00
   10   16    8     14.15      0.00
   11   16    8     14.24      0.00
   12   16    8      3.42      0.00
   13   16    8      4.38      0.00
    8   17    8      3.49      0.00
    9   17    8    -22.24      0.00
   10   17    8     -1.48      0.00
   11   17    8     -9.94      0.00
   12   17    8      2.54      0.00
    8   18    8      9.88      0.00
    9   18    8     -9.57      0.00
   10   18    8     -2.35      0.00
   11   18    8      7.99      0.00
    8   19    8     -2.89      0.00
    9   19    8      2.95      0.00
    3   20    8     11.86      0.00
    4   20    8    -18.56      0.00
    5   20    8    -16.83      0.00
    6   20    8      8.96      0.00
    7   20    8      8.44      0.00
    1   21    8     -4.32      0.00
    2   21    8    -12.07      0.00
    3   21    8      0.42      0.00
    9   11    9     -3.95      0.00
   10   11    9     -8.75      0.00
   10   12    9     12.71      0.00
   11   12    9     13.53      0.00
    8   13    9      8.34      0.00
    9   13    9     11.31      0.00
   10   13    9     -3.85      0.00
   11   13    9     10.49      0.00
   12   13    9     -0.47      0.00
    8   14    9     16.64      0.00
    9   14    9      6.56      0.00
   10   14    9     -0.76      0.00
   11   14    9     17.92      0.00
   12   14    9      5.94      0.00
   13   14    9     -8.00      0.00
    8   15    9     13.35      0.00
    9   15    9     -1.05      0.00
   10   15    9     -7.91      0.00
   11   15    9     -4.08      0.00
   12   15    9      7.56      0.00
   13   15    9      0.23      0.00
   14   15    9     -2.40      0.00
    8   16    9      7.43      0.00
    9   16    9     -0.70      0.00
   10   16    9    -14.38      0.00
   11   16    9     -9.25      0.00
   12   16    9    -11.15      0.00
   13   16    9     -7.76      0.00
    8   17    9     11.12      0.00
    9   17    9    -16.41      0.00
   10   17    9      0.18      0.00
   11   17    9     -7.77      0.00
   12   17    9     -2.20      0.00
    8   18    9      1.47      0.00
    9   18    9      5.34      0.00
   10   18    9      2.43      0.00
   11   18    9     -6.16      0.00
    7   19    9     -7.08      0.00
    8   19    9     -2.29      0.00
    9   19    9      1.06      0.00
    3   20    9    -12.70      0.00
    4   20    9     -6.93      0.00
    5   20    9     10.15      0.00
    6   20    9      6.61      0.00
    0   21    9    -19.95      0.00
    1   21    9     -2.82      0.00
    2   21    9      7.14      0.00
    0    2   10     76.47      0.00
    9   10   10     -9.52      0.00
   10   10   10     -6.79      0.00
   10   11   10      7.99      0.00
   11   11   10     -0.69      0.00
   11   12   10     13.03      0.00
   12   12   10    -28.36      0.00
   11   13   10      5.43      0.00
   12   13   10     17.98      0.00
   13   13   10      4.15      0.00
    9   14   10     -4.20      0.00
   10   14   10     -9.82      0.00
   11   14   10      2.65      0.00
   12   14   10     -2.80      0.00
   13   14   10      3.83      0.00
   14   14   10     -5.49      0.00
    9   15   10    -12.01      0.00
   10   15   10    -12.33      0.00
   11   15   10      1.21      0.00
   12   15   10     -3.02      0.00
   13   15   10     -0.40      0.00
   14   15   10     -2.30      0.00
    8   16   10     14.90      0.00
    9   16   10      9.26      0.00
   10   16   10     -7.85      0.00
   11   16   10      6.66      0.00
   12   16   10      0.49      0.00
   13   16   10      1.32      0.00
    8   17   10      5.28      0.00
    9   17   10    -18.35      0.00
   10   17   10     -8.08      0.00
   11   17   10     -0.36      0.00
   12   17   10      4.44      0.00
    8   18   10     15.54      0.00
    9   18   10     11.22      0.00
   10   18   10      8.87      0.00
    7   19   10     -1.37      0.00
    8   19   10     -1.51      0.00
    0   20   10      4.79      0.00
    2   20   10      0.52      0.00
    3   20   10    -23.43      0.00
    4   20   10      2.02      0.00
    5   20   10     17.05      0.00
    6   20   10      0.52      0.00
    0    1   11    -31.04      0.00
   11   12   11     12.15      0.00
   11   13   11      1.03      0.00
   12   13   11    -13.61      0.00
    9   14   11     25.18      0.00
   10   14   11      3.64      0.00
   11   14   11    -30.40      0.00
   12   14   11      1.34      0.00
   13   14   11     -0.14      0.00
    9   15   11    -11.50      0.00
   10   15   11     -9.94      0.00
   11   15   11     -0.46      0.00
   12   15   11     12.42      0.00
   13   15   11     -7.65      0.00
   14   15   11      1.17      0.00
    9   16   11    -26.58      0.00
   10   16   11     -0.04      0.00
   11   16   11      9.04      0.00
   12   16   11     -1.86      0.00
   13   16   11     -2.01      0.00
    9   17   11      2.12      0.00
   10   17   11      7.44      0.00
   11   17   11     11.64      0.00
    8   18   11     13.98      0.00
    9   18   11     -0.06      0.00
   10   18   11     10.00      0.00
    7   19   11     -1.73      0.00
    8   19   11     -6.82      0.00
    1   20   11     -3.13      0.00
    2   20   11      3.87      0.00
    3   20   11     16.88      0.00
    4   20   11    -10.17      0.00
    5   20   11    -14.81      0.00
   11   11   12     25.70      0.00
   11   12   12    -16.12      0.00
   12   12   12    -11.85      0.00
   11   13   12     15.57      0.00
   12   13   12    -13.88      0.00
   13   13   12     -9.36      0.00
    9   14   12     25.51      0.00
   10   14   12     -7.56      0.00
   11   14   12     -0.69      0.00
   12   14   12    -12.77      0.00
   13   14   12      3.65      0.00
   14   14   12     13.29      0.00
    9   15   12     19.40      0.00
   10   15   12     15.38      0.00
   11   15   12    -13.85      0.00
   12   15   12     -1.20      0.00
   13   15   12      2.47      0.00
   14   15   12      7.74      0.00
    9   16   12      5.08      0.00
   10   16   12     -2.55      0.00
   11   16   12      8.74      0.00
   12   16   12     -2.75      0.00
    9   17   12    -27.05      0.00
   10   17   12    -11.72      0.00
   11   17   12     14.63      0.00
    9   18   12      0.01      0.00
   10   18   12      2.86      0.00
    6   19   12    -27.62      0.00
    7   19   12    -14.21      0.00
    0   20   12      1.84      0.00
    1   20   12      6.17      0.00
    2   20   12     10.33      0.00
    3   20   12     -5.76      0.00
    4   20   12     -2.21      0.00
   11   12   13      8.43      0.00
   11   13   13     -1.09      0.00
   12   13   13     18.84      0.00
   10   14   13     30.20      0.00
   11   14   13      6.99      0.00
   12   14   13     13.10      0.00
   13   14   13      5.74      0.00
    9   15   13     -1.97      0.00
   10   15   13      8.60      0.00
   11   15   13    -11.12      0.00
   12   15   13      5.79      0.00
   13   15   13     -4.16      0.00
    9   16   13     -7.21      0.00
   10   16   13    -13.01      0.00
   11   16   13      2.56      0.00
   12   16   13      9.76      0.00
    9   17   13     -0.97      0.00
   10   17   13      6.72      0.00
   11   17   13      1.18      0.00
    9   18   13     -2.40      0.00
    6   19   13    -10.43      0.00
    7   19   13     -1.62      0.00
    1   20   13     -1.47      0.00
    2   20   13     13.93      0.00
    3   20   13      8.20      0.00
    8    8   14      8.42      0.00
    4   12   14    -12.44      0.00
   12   12   14     14.22      0.00
   12   13   14     -5.26      0.00
   13   13   14    -13.29      0.00
   12   14   14      7.33      0.00
   13   14   14     -5.49      0.00
   14   14   14      2.49      0.00
    9   15   14    -28.27      0.00
   10   15   14    -22.41      0.00
   11   15   14      2.35      0.00
   12   15   14     -0.31      0.00
   13   15   14      2.81      0.00
    9   16   14      7.52      0.00
   10   16   14      6.03      0.00
   11   16   14     -1.27      0.00
   12   16   14     -5.28      0.00
    9   17   14      1.23      0.00
   10   17   14      3.77      0.00
    9   18   14     16.98      0.00
    5   19   14    -11.63      0.00
    6   19   14     -3.75      0.00
    0   20   14      0.67      0.00
    1   20   14    -20.25      0.00
    2   20   14      3.79      0.00
    7    8   15     17.33      0.00
    3   12   15      7.95      0.00
   12   13   15    -25.24      0.00
   12   14   15      3.98      0.00
   13   14   15     -1.51      0.00
    8   15   15    -25.02      0.00
    9   15   15     -6.80      0.00
   10   15   15      6.38      0.00
   11   15   15      8.73      0.00
   12   15   15     -5.54      0.00
   13   15   15     -3.66      0.00
    8   16   15     -1.09      0.00
    9   16   15     -6.58      0.00
   10   16   15      4.72      0.00
   11   16   15      2.35      0.00
    8   17   15     23.72      0.00
    9   17   15     -6.57      0.00
   10   17   15    -12.53      0.00
    8   18   15     -9.92      0.00
    0   19   15      8.29      0.00
    1   19   15    -16.93      0.00
    3   19   15      5.53      0.00
    4   19   15     15.25      0.00
    5   19   15     -6.81      0.00
    0    0   16    -79.37      0.00
    7    7   16     -8.03      0.00
   12   12   16     29.54      0.00
   12   13   16      1.63      0.00
   13   13   16      8.73      0.00
   12   14   16     17.64      0.00
   13   14   16     -4.43      0.00
    7   15   16    -21.35      0.00
    8   15   16    -24.62      0.00
    9   15   16     18.60      0.00
   10   15   16     13.22      0.00
   11   15   16     -3.51      0.00
   12   15   16    -12.82      0.00
    7   16   16     20.60      0.00
    8   16   16      8.54      0.00
    9   16   16      0.19      0.00
   10   16   16     22.86      0.00
   11   16   16    -11.54      0.00
    8   17   16     -7.40      0.00
    9   17   16     -7.27      0.00
    7   18   16    -13.18      0.00
    1   19   16     -1.51      0.00
    2   19   16      3.79      0.00
    3   19   16      2.24      0.00
    4   19   16     -6.71      0.00
    6    7   17    -19.51      0.00
    5    8   17      2.63      0.00
   12   13   17      8.05      0.00
   12   14   17     16.50      0.00
   13   14   17      6.07      0.00
    6   15   17     11.95      0.00
    7   15   17     17.97      0.00
    8   15   17      4.94      0.00
    9   15   17      4.03      0.00
   10   15   17      3.86      0.00
   11   15   17     -2.66      0.00
   12   15   17      7.64      0.00
    6   16   17     12.90      0.00
    7   16   17     11.13      0.00
    8   16   17    -20.66      0.00
    9   16   17    -14.76      0.00
   10   16   17      5.54      0.00
    6   17   17    -14.20      0.00
    7   17   17     25.31      0.00
    8   17   17      1.60      0.00
    9   17   17      0.47      0.00
    7   18   17      9.69      0.00
    0   19   17    -17.96      0.00
    1   19   17     -9.01      0.00
    2   19   17      2.49      0.00
    3   19   17      1.78      0.00
    0    0   18    -26.84      0.00
    6    6   18      5.78      0.00
    5    7   18     14.51      0.00
   13   13   18    -45.26      0.00
    5   15   18      3.53      0.00
    6   15   18      4.70      0.00
    7   15   18     -7.69      0.00
    8   15   18      3.33      0.00
    5   16   18    -27.66      0.00
    6   16   18     15.88      0.00
    7   16   18      3.29      0.00
    8   16   18     -1.67      0.00
    9   16   18    -15.37      0.00
   10   16   18     -5.92      0.00
    5   17   18      7.19      0.00
    6   17   18     12.17      0.00
    7   17   18    -19.26      0.00
    8   17   18     -1.09      0.00
    5   18   18    -14.95      0.00
    6   18   18     11.56      0.00
    1   19   18      3.68      0.00
    5    6   19    -18.59      0.00
    4    7   19    -11.75      0.00
   12   14   19    -12.73      0.00
    4   15   19     -9.46      0.00
    5   15   19    -15.53      0.00
   11   15   19    -15.60      0.00
    4   16   19     10.87      0.00
    5   16   19     18.05      0.00
    6   16   19    -15.52      0.00
    7   16   19      6.00      0.00
    8   16   19    -12.43      0.00
    9   16   19     -6.25      0.00
    4   17   19     -5.94      0.00
    5   17   19     10.81      0.00
    6   17   19    -11.79      0.00
    7   17   19      0.46      0.00
    4   18   19    -12.07      0.00
    5   18   19    -10.79      0.00
    0    0   20     28.85      0.00
    5    5   20     -9.31      0.00
    4    6   20    -10.18      0.00
   12   13   20    -13.10      0.00
    6   14   20    -26.22      0.00
    3   15   20     -0.32      0.00
    3   16   20     -6.56      0.00
    4   16   20      9.14      0.00
    5   16   20    -20.74      0.00
    6   16   20      5.06      0.00
    7   16   20     -4.64      0.00
    8   16   20    -11.09      0.00
    3   17   20     11.19      0.00
    4   17   20      5.34      0.00
    5   17   20     -4.34      0.00
    6   17   20     14.13      0.00
    0   18   20     12.46      0.00
    3   18   20    -12.67      0.00
    4    5   21    -11.64      0.00
   12   13   21     -2.42      0.00
   11   14   21     -4.18      0.00
    2   15   21    -13.44      0.00
    2   16   21     -5.07      0.00
    3   16   21     12.41      0.00
    4   16   21      3.23      0.00
    5   16   21     19.15      0.00
    6   16   21    -16.17      0.00
    7   16   21     -4.43      0.00
    8   16   21     -2.07      0.00
    2   17   21      7.02      0.00
    3   17   21    -14.96      0.00
    4   17   21    -12.95      0.00
    5   17   21      6.18      0.00
    0    0   22     18.12      0.00
   12   12   22      9.94      0.00
   11   13   22    -23.50      0.00
    0   14   22    -24.03      0.00
    1   14   22     17.32      0.00
   10   14   22      2.59      0.00
    1   15   22    -12.29      0.00
    2   15   22     14.06      0.00
    9   15   22     -0.61      0.00
    0   16   22      1.11      0.00
    1   16   22      8.14      0.00
    2   16   22      1.98      0.00
    3   16   22     14.05      0.00
    4   16   22     -8.09      0.00
    5   16   22    -12.92      0.00
    6   16   22      8.19      0.00
    7   16   22      3.88      0.00
    1   17   22     -0.82      0.00
    2   17   22    -11.59      0.00
    3   17   22      0.24      0.00
    4   17   22     19.57      0.00
   11   12   23     -6.05      0.00
    0   13   23    -36.65      0.00
    1   13   23     -7.78      0.00
   10   13   23     -8.47      0.00
   11   13   23      7.94      0.00
    1   14   23    -10.12      0.00
    9   14   23    -11.69      0.00
    0   15   23     27.23      0.00
    1   15   23      4.75      0.00
    8   15   23      5.69      0.00
    1   16   23      5.54      0.00
    2   16   23     -1.88      0.00
    3   16   23      2.19      0.00
    4   16   23      1.70      0.00
    5   16   23     -2.59      0.00
    6   16   23     -0.62      0.00
    0   17   23     13.84      0.00
    1   17   23     -9.33      0.00
    0    0   24     22.40      0.00
   11   11   24    -11.04      0.00
   10   12   24      9.16      0.00
   11   12   24     15.80      0.00
    9   13   24     -4.46      0.00
   10   13   24      3.77      0.00
    0   14   24     -7.67      0.00
    1   14   24     24.80      0.00
    8   14   24     -6.34      0.00
    1   15   24     -3.26      0.00
    7   15   24      6.84      0.00
    0   16   24     -6.99      0.00
    1   16   24      2.44      0.00
    2   16   24      2.59      0.00
    3   16   24    -24.55      0.00
    4   16   24     -8.36      0.00
    0    1   25     -8.78      0.00
    0    3   25    -21.06      0.00
   10   11   25      4.86      0.00
    9   12   25      9.85      0.00
   10   12   25    -10.90      0.00
    8   13   25     11.13      0.00
    9   13   25      6.40      0.00
    1   14   25     -4.52      0.00
    2   14   25      7.02      0.00
    7   14   25      7.40      0.00
    0   15   25      8.65      0.00
    1   15   25     -8.57      0.00
    2   15   25      4.22      0.00
    5   15   25     -7.41      0.00
    1   16   25     -7.34      0.00
    0    0   26     22.49      0.00
    1    1   26    -13.29      0.00
   10   10   26      4.19      0.00
    9   11   26     -7.80      0.00
   10   11   26      1.58      0.00
    8   12   26     19.12      0.00
    9   12   26    -19.61      0.00
    7   13   26    -12.30      0.00
    8   13   26     19.98      0.00
    0   14   26      9.95      0.00
    1   14   26     15.78      0.00
    2   14   26      8.83      0.00
    5   14   26     -2.23      0.00
    6   14   26     10.32      0.00
    1   15   26      5.66      0.00
    2   15   26     -8.51      0.00
    3   15   26    -10.07      0.00
    4   15   26     24.54      0.00
    0    1   27      8.97      0.00
    9   10   27    -15.79      0.00
    0   11   27    -21.62      0.00
    8   11   27     -8.78      0.00
    9   11   27      4.04      0.00
   10   11   27     -5.46      0.00
    7   12   27     -9.13      0.00
    8   12   27      6.56      0.00
    5   13   27    -10.81      0.00
    6   13   27     15.16      0.00
    7   13   27      6.93      0.00
    1   14   27     -0.96      0.00
    2   14   27      0.99      0.00
    3   14   27      9.89      0.00
    4   14   27     -4.27      0.00
    5   14   27      9.93      0.00
    0    0   28     56.27      0.00
    1    1   28    -18.74      0.00
    9    9   28    -12.00      0.00
    8   10   28     13.79      0.00
    9   10   28     -2.97      0.00
   10   10   28      0.91      0.00
    7   11   28    -11.54      0.00
    8   11   28      4.18      0.00
    9   11   28      1.55      0.00
    5   12   28    -13.62      0.00
    6   12   28      2.47      0.00
    7   12   28      0.55      0.00
    3   13   28      8.00      0.00
    4   13   28     11.44      0.00
    5   13   28     -5.85      0.00
    0   14   28    -11.33      0.00
    1   14   28      6.04      0.00
    2   14   28      5.51      0.00
    0    1   29      4.94      0.00
    8    9   29      8.85      0.00
    7   10   29      2.89      0.00
    8   10   29     -0.66      0.00
    9   10   29      5.42      0.00
    5   11   29    -21.42      0.00
    6   11   29     -8.27      0.00
    7   11   29     -3.57      0.00
    4   12   29      7.78      0.00
    5   12   29      4.00      0.00
    6   12   29     -8.33      0.00
    0   13   29     13.55      0.00
    2   13   29    -15.35      0.00
    3   13   29      0.23      0.00
    0    0   30      0.25      0.00
    1    1   30    -21.85      0.00
    0    2   30     21.05      0.00
    1    2   30      7.89      0.00
    2    2   30     -3.30      0.00
    8    8   30    -12.20      0.00
    7    9   30    -31.63      0.00
    8    9   30     11.66      0.00
    9    9   30     11.60      0.00
    5   10   30     -7.70      0.00
    6   10   30      9.62      0.00
    7   10   30     -3.86      0.00
    8   10   30      5.86      0.00
    4   11   30      5.45      0.00
    5   11   30      1.24      0.00
    6   11   30      7.03      0.00
    0   12   30      5.32      0.00
    2   12   30     13.93      0.00
    3   12   30    -10.27      0.00
    4   12   30     -2.82      0.00
    0    1   31    -19.76      0.00
    1    2   31     16.04      0.00
    1    6   31      9.97      0.00
    6    8   31     -1.10      0.00
    7    8   31      6.55      0.00
    5    9   31     30.80      0.00
    6    9   31    -12.97      0.00
    7    9   31      6.27      0.00
    4   10   31     -6.02      0.00
    5   10   31     15.49      0.00
    6   10   31      9.75      0.00
    0   11   31     10.47      0.00
    3   11   31     -1.34      0.00
    4   11   31    -12.76      0.00
    0    0   32     29.37      0.00
    1    1   32     -4.18      0.00
    0    2   32    -13.01      0.00
    1    2   32     42.44      0.00
    2    2   32     27.38      0.00
    2    3   32      9.52      0.00
    3    3   32    -60.02      0.00
    6    7   32     21.23      0.00
    7    7   32      0.05      0.00
    0    8   32     37.08      0.00
    5    8   32    -17.53      0.00
    6    8   32      2.00      0.00
    7    8   32    -13.96      0.00
    4    9   32    -30.86      0.00
    5    9   32     -5.54      0.00
    6    9   32      2.90      0.00
    0   10   32    -32.96      0.00
    3   10   32     10.92      0.00
    4   10   32     -4.41      0.00
    1   11   32     -2.59      0.00
    0    1   33      1.53      0.00
    1    2   33    -15.31      0.00
    0    3   33      6.88      0.00
    1    3   33     26.43      0.00
    2    3   33     23.98      0.00
    5    6   33     25.26      0.00
    0    7   33     33.06      0.00
    5    7   33    -10.72      0.00
    6    7   33     -6.09      0.00
    4    8   33      6.37      0.00
    5    8   33    -15.33      0.00
    0    9   33    -15.98      0.00
    2    9   33      0.43      0.00
    3    9   33     -0.41      0.00
    4    9   33      0.72      0.00
    0    0   34     33.64      0.00
    1    1   34      8.46      0.00
    0    2   34    -26.81      0.00
    1    2   34     24.99      0.00
    2    2   34     -9.17      0.00
    1    3   34    -10.30      0.00
    2    3   34     36.62      0.00
    3    3   34     -6.36      0.00
    4    4   34    -20.56      0.00
    5    5   34    -18.99      0.00
    0    6   34    -41.79      0.00
    4    6   34      6.41      0.00
    5    6   34     -5.93      0.00
    6    6   34     -0.53      0.00
    3    7   34     -8.67      0.00
    4    7   34     -8.15      0.00
    5    7   34     -4.39      0.00
    0    8   34     -5.56      0.00
    2    8   34     15.89      0.00
    3    8   34      4.03      0.00
    0    1   35      5.80      0.00
    1    2   35     -8.01      0.00
    0    3   35     -7.62      0.00
    1    3   35     10.84      0.00
    2    3   35     -0.14      0.00
    1    4   35    -10.78      0.00
    2    4   35     11.11      0.00
    3    4   35     14.76      0.00
    0    5   35      9.70      0.00
    3    5   35      0.79      0.00
    4    5   35     -1.28      0.00
    2    6   35      0.27      0.00
    3    6   35      3.47      0.00
    4    6   35     16.93      0.00
    0    7   35     -5.81      0.00
    1    7   35     -4.49      0.00
    2    7   35     -9.52      0.00
    0    0    0      0.00      0.00
# SQUEEZE RESULTS (Version =  70515)
# Note: Data are Listed for all Voids in the P1 Unit Cell
# i.e. Centre of Gravity, Solvent Accessible Volume,
# Recovered number of Electrons in the Void and
# Details about the Squeezed Material
loop_
  _platon_squeeze_void_nr
  _platon_squeeze_void_average_x
  _platon_squeeze_void_average_y
  _platon_squeeze_void_average_z
  _platon_squeeze_void_volume
  _platon_squeeze_void_count_electrons
  _platon_squeeze_void_content
   1 -0.010  0.396 -0.004      8755      3344 ' '
# Missing Reflections Below sin(th)/lambda = 0.25
loop_
  _platon_missing_refln_index_h
  _platon_missing_refln_index_k
  _platon_missing_refln_index_l
  _platon_missing_refln_theta
    1    1    0     1.448
    2    2    0     2.896
    3    3    0     4.347
    4    4    0     5.800
    4    5    0     6.569
    5    5    0     7.258
    5    6    0     8.021
    6    6    0     8.719
    5    7    0     8.841
    6    7    0     9.481
    0    1    1     1.187
    4    5    1     6.596
    5    6    1     8.044
    6    7    1     9.500
    0    0    2     1.200
    4    4    2     5.924
    4    5    2     6.678
    5    5    2     7.357
    5    6    2     8.111
    6    6    2     8.803
    6    7    2     9.558
    6    7    3     9.653
    6    6    4     9.049
    0    2   10     6.353
    0    1   11     6.695
    0    0   16     9.646
_platon_squeeze_void_probe_radius                  1.20
_platon_squeeze_details
)
TITL g2yy_15xneP 4/m n cl   R = 0.26
CELL   19.2800   19.2800   32.8900     90.00     90.00     90.00
SPGR P4/mnc
# Solvent Accessible Volume =    8837.5
# Electrons Found in S.A.V. =    3294.6
# Note: Atoms in Void as Cxxx and Qxxx all others
C101 1.000 0.500 0.500 !       2.10 eA-3
C102 0.893 0.796 0.093 !       2.10 eA-3
Q103 1.000 0.997 0.094 !       2.04 eA-3
C104 0.952 0.359-0.001 !       2.01 eA-3
C105 0.668 0.203 0.001 !       2.00 eA-3
C106 0.500 0.471 0.298 !       1.98 eA-3
Q107 0.800 0.453 0.502 !       1.93 eA-3
C108 0.188 0.293 0.227 !       1.88 eA-3
C109 0.421 0.062 0.002 !       1.88 eA-3
C110 0.488 0.200 0.186 !       1.80 eA-3
C111 0.206 0.636 0.089 !       1.78 eA-3
Q112 0.799 0.567 0.474 !       1.76 eA-3
C113 0.590 0.156 0.497 !       1.73 eA-3
C114 0.408 0.784 0.390 !       1.72 eA-3
C115 0.535 0.094 0.503 !       1.71 eA-3
C116 0.500 1.002 0.461 !       1.70 eA-3
C117 0.507 0.203 0.172 !       1.70 eA-3
C118 0.141 0.185 0.226 !       1.69 eA-3
C119 0.641 0.199 0.174 !       1.68 eA-3
C120 0.940 0.627 0.384 !       1.67 eA-3
Q121 0.016 0.328 0.000 !       1.67 eA-3
C122 0.124 0.277 0.470 !       1.62 eA-3
C123 0.091 0.139 0.234 !       1.61 eA-3
C124 0.674 0.827 0.056 !       1.60 eA-3
C125 0.128 0.230 0.148 !       1.60 eA-3
Q126 0.999 0.673 0.037 !       1.60 eA-3
C127 0.876 0.075 0.272 !       1.59 eA-3
C128 0.500 1.002 0.430 !       1.58 eA-3
C129 0.776 0.139 0.064 !       1.57 eA-3
C130 0.665 0.791 0.026 !       1.56 eA-3
C131 0.644 0.018 0.030 !       1.56 eA-3
C132 0.249 0.316 0.143 !       1.56 eA-3
C133 0.872 0.797 0.349 !       1.56 eA-3
C134 0.318 0.376 0.246 !       1.55 eA-3
C135 0.208 0.216 0.328 !       1.54 eA-3
C136 0.719 0.700 0.831 !       1.54 eA-3
Q137 0.610 0.484 0.499 !       1.54 eA-3
Q138 0.170 0.904 0.110 !       1.52 eA-3
C139 0.357 0.143 0.478 !       1.51 eA-3
C140 0.698 0.279 0.430 !       1.50 eA-3
C141 0.766 0.607 0.319 !       1.50 eA-3
C142 0.205 0.223 0.104 !       1.50 eA-3
C143 0.651 0.951 0.414 !       1.50 eA-3
C144 0.765 0.655 0.216 !       1.47 eA-3
Q145 0.209 0.125-0.001 !       1.47 eA-3
C146 0.114 0.676 0.429 !       1.47 eA-3
C147 0.108 0.333 0.033 !       1.47 eA-3
C148 0.717 0.733 0.136 !       1.46 eA-3
C149 0.159 0.359-0.002 !       1.46 eA-3
C150 0.184 0.810 0.358 !       1.46 eA-3
C151 0.842 0.656 0.251 !       1.46 eA-3
Q152 0.596 0.437 0.501 !       1.45 eA-3
C153 0.303 0.250 0.002 !       1.45 eA-3
C154 0.655 0.206 0.378 !       1.44 eA-3
Q155 0.206 0.436 0.446 !       1.44 eA-3
C156 0.154 0.508 0.026 !       1.44 eA-3
C157 0.776 0.732 0.154 !       1.44 eA-3
C158 0.417 0.516 0.257 !       1.43 eA-3
C159 0.622 0.016 0.499 !       1.43 eA-3
Q160 0.313 0.701 0.462 !       1.43 eA-3
C161 0.250 0.266 0.126 !       1.42 eA-3
C162 0.171 0.609 0.456 !       1.42 eA-3
Q163 0.171 0.610 0.549 !       1.42 eA-3
C164 0.685 0.151 0.375 !       1.41 eA-3
C165 0.619 0.812 0.045 !       1.40 eA-3
C166 0.173 0.262 0.468 !       1.40 eA-3
C167 0.045 0.455 0.057 !       1.39 eA-3
C168 0.632 0.599 0.187 !       1.38 eA-3
C169 0.188 0.449 0.140 !       1.38 eA-3
C170 0.253 0.901 0.275 !       1.38 eA-3
C171 0.245 0.047 0.311 !       1.37 eA-3
C172 0.736 0.141 0.155 !       1.37 eA-3
C173 0.797 0.642 0.245 !       1.37 eA-3
C174 0.564 0.219 0.090 !       1.37 eA-3
C175 0.585 1.002 0.453 !       1.36 eA-3
C176 0.578 0.915 0.438 !       1.36 eA-3
Q177 0.834 0.834 0.088 !       1.36 eA-3
C178 0.660 0.660 0.172 !       1.36 eA-3
C179 0.439 0.925 0.471 !       1.35 eA-3
C180 0.157 0.105 0.285 !       1.35 eA-3
C181 0.250 0.932 0.310 !       1.34 eA-3
C182 0.955 0.481 0.405 !       1.34 eA-3
C183 0.449 0.083 0.028 !       1.33 eA-3
C184 0.658 0.266 0.257 !       1.32 eA-3
C185 0.563 0.753 0.158 !       1.32 eA-3
Q186 0.981 0.966 0.081 !       1.32 eA-3
C187 0.433 0.564 0.281 !       1.30 eA-3
C188 0.923 0.801 0.291 !       1.30 eA-3
C189 0.298 0.764 0.103 !       1.30 eA-3
C190 0.143 0.438-0.004 !       1.30 eA-3
C191 0.262 0.673 0.086 !       1.30 eA-3
C192 0.376 0.580 0.264 !       1.30 eA-3
C193 0.968 0.402 0.399 !       1.29 eA-3
C194 0.036 0.624 0.056 !       1.29 eA-3
Q195 0.551 0.528 0.474 !       1.28 eA-3
C196 0.598 0.091 0.422 !       1.28 eA-3
C197 0.426 0.932 0.111 !       1.27 eA-3
Q198 0.747 0.592 0.435 !       1.27 eA-3
C199 0.749 0.273 0.336 !       1.27 eA-3
)
;
_shelx_shelxl_version_number     2014/7
_olex2_submission_special_instructions 'No special instructions were received'
loop_
_space_group_symop_operation_xyz
'x, y, z'
'-x, -y, z'
'-y, x, z'
'y, -x, z'
'-x+1/2, y+1/2, -z+1/2'
'x+1/2, -y+1/2, -z+1/2'
'y+1/2, x+1/2, -z+1/2'
'-y+1/2, -x+1/2, -z+1/2'
'-x, -y, -z'
'x, y, -z'
'y, -x, -z'
'-y, x, -z'
'x-1/2, -y-1/2, z-1/2'
'-x-1/2, y-1/2, z-1/2'
'-y-1/2, -x-1/2, z-1/2'
'y-1/2, x-1/2, z-1/2'
loop_
_atom_site_label
_atom_site_type_symbol
_atom_site_fract_x
_atom_site_fract_y
_atom_site_fract_z
_atom_site_U_iso_or_equiv
_atom_site_adp_type
_atom_site_occupancy
_atom_site_site_symmetry_order
_atom_site_calc_flag
_atom_site_refinement_flags_posn
_atom_site_refinement_flags_adp
_atom_site_refinement_flags_occupancy
_atom_site_disorder_assembly
_atom_site_disorder_group
Zr1 Zr 0.12287(14) 0.04235(16) 0.0000 0.0607(14) Uani 1 2 d S TU P . .
Zr2 Zr 0.0000 0.0000 0.07450(10) 0.0499(15) Uani 1 4 d S TU P . .
O5 O -0.0279(6) 0.0920(6) 0.1096(3) 0.112(4) Uiso 1 1 d . U . . .
O2 O 0.1724(6) 0.0606(6) -0.0614(4) 0.134(5) Uiso 1 1 d . U . . .
O4 O 0.0391(6) 0.0818(5) 0.0362(3) 0.122(4) Uiso 1 1 d . U . . .
O3 O 0.1677(9) 0.1465(9) 0.0000 0.170(7) Uiso 1 2 d S TU P . .
O1 O 0.2274(10) -0.0226(10) 0.0000 0.175(8) Uiso 1 2 d S TU P . .
C11 C -0.0240(8) 0.4164(7) 0.2222(4) 0.121(6) Uiso 1 1 d D U . . .
C3 C -0.0392(8) 0.1968(12) 0.1709(8) 0.207(9) Uiso 1 1 d D U . . .
H3 H -0.0194 0.1536 0.1759 0.249 Uiso 1 1 calc R . . . .
C12 C -0.0277(3) 0.4723(3) 0.2500 0.123(9) Uiso 1 2 d DS TU P . .
C1 C -0.0566(8) 0.1512(13) 0.1016(7) 0.169(8) Uiso 1 1 d D U . . .
C4 C -0.0433(10) 0.2433(13) 0.2034(7) 0.193(9) Uiso 1 1 d D U . . .
H4 H -0.0293 0.2332 0.2298 0.231 Uiso 1 1 calc R . . . .
C8 C -0.0775(8) 0.3664(10) 0.2214(5) 0.145(7) Uiso 1 1 d D U . . .
C13 C 0.0368(8) 0.4115(9) 0.1932(5) 0.168(8) Uiso 1 1 d D U . . .
H13A H 0.0577 0.4565 0.1902 0.252 Uiso 1 1 calc GR . . . .
H13B H 0.0209 0.3955 0.1672 0.252 Uiso 1 1 calc GR . . . .
H13C H 0.0704 0.3796 0.2038 0.252 Uiso 1 1 calc GR . . . .
C2 C -0.0628(7) 0.2104(12) 0.1315(7) 0.198(8) Uiso 1 1 d D U . . .
C5 C -0.0712(10) 0.3074(12) 0.1912(7) 0.205(8) Uiso 1 1 d D U . . .
C7 C -0.0912(10) 0.2724(14) 0.1166(7) 0.239(10) Uiso 1 1 d D U . . .
H7 H -0.1050 0.2827 0.0902 0.287 Uiso 1 1 calc R . . . .
C9 C -0.1319(10) 0.3681(10) 0.2500 0.162(10) Uiso 1 2 d DS TU P . .
C6 C -0.0935(10) 0.3150(12) 0.1509(8) 0.241(10) Uiso 1 1 d D U . . .
H6 H -0.1144 0.3577 0.1459 0.290 Uiso 1 1 calc R . . . .
C10 C -0.1872(10) 0.3128(10) 0.2500 0.195(13) Uiso 1 2 d DS TU P . .
H10A H -0.1779 0.2801 0.2287 0.292 Uiso 0.5 1 calc R . . A -1
H10B H -0.1871 0.2893 0.2757 0.292 Uiso 0.5 1 calc R . . A -1
H10C H -0.2317 0.3339 0.2456 0.292 Uiso 0.5 1 calc R . . A -1
loop_
_atom_site_aniso_label
_atom_site_aniso_U_11
_atom_site_aniso_U_22
_atom_site_aniso_U_33
_atom_site_aniso_U_23
_atom_site_aniso_U_13
_atom_site_aniso_U_12
Zr1 0.053(2) 0.084(3) 0.045(2) 0.000 0.000 -0.003(2)
Zr2 0.059(2) 0.059(2) 0.032(3) 0.000 0.000 0.000
loop_
_atom_type_symbol
_atom_type_description
_atom_type_scat_dispersion_real
_atom_type_scat_dispersion_imag
_atom_type_scat_source
C C 0.0030 0.0010 'International Tables Vol C Tables 4.2.6.8 and 6.1.1.4'
H H 0.0000 0.0000 'International Tables Vol C Tables 4.2.6.8 and 6.1.1.4'
O O 0.0110 0.0060 'International Tables Vol C Tables 4.2.6.8 and 6.1.1.4'
Zr Zr -11.6050 0.5510 'International Tables Vol C Tables 4.2.6.8 and 6.1.1.4'
loop_
_geom_angle_atom_site_label_1
_geom_angle_atom_site_label_2
_geom_angle_atom_site_label_3
_geom_angle
_geom_angle_site_symmetry_1
_geom_angle_site_symmetry_3
Zr1 Zr1 Zr1 90.0 11 3
Zr2 Zr1 Zr1 59.63(3) 9 11
Zr2 Zr1 Zr1 59.63(3) 9 3
Zr2 Zr1 Zr1 59.63(3) . 3
Zr2 Zr1 Zr1 59.63(3) . 11
Zr2 Zr1 Zr2 88.72(10) . 9
O2 Zr1 Zr1 109.0(3) 10 11
O2 Zr1 Zr1 109.0(3) . 11
O2 Zr1 Zr1 108.2(3) 10 3
O2 Zr1 Zr1 108.2(3) . 3
O2 Zr1 Zr2 72.4(3) . 9
O2 Zr1 Zr2 72.4(3) 10 .
O2 Zr1 Zr2 161.1(3) 10 9
O2 Zr1 Zr2 161.1(3) . .
O2 Zr1 O2 126.5(6) 10 .
O2 Zr1 O1 73.9(3) 10 .
O2 Zr1 O1 73.9(3) . .
O4 Zr1 Zr1 34.1(3) 11 11
O4 Zr1 Zr1 33.7(3) . 3
O4 Zr1 Zr1 89.4(3) 10 11
O4 Zr1 Zr1 89.4(3) 4 3
O4 Zr1 Zr1 34.1(3) 4 11
O4 Zr1 Zr1 89.4(3) . 11
O4 Zr1 Zr1 33.7(3) 10 3
O4 Zr1 Zr1 89.4(3) 11 3
O4 Zr1 Zr2 88.1(3) 4 9
O4 Zr1 Zr2 35.3(3) 4 .
O4 Zr1 Zr2 35.3(3) 11 9
O4 Zr1 Zr2 88.1(3) 11 .
O4 Zr1 Zr2 35.5(3) 10 9
O4 Zr1 Zr2 35.5(3) . .
O4 Zr1 Zr2 87.8(3) . 9
O4 Zr1 Zr2 87.8(3) 10 .
O4 Zr1 O2 140.6(4) 11 10
O4 Zr1 O2 76.5(4) . 10
O4 Zr1 O2 139.3(4) . .
O4 Zr1 O2 76.8(4) 11 .
O4 Zr1 O2 139.3(4) 10 10
O4 Zr1 O2 76.8(4) 4 10
O4 Zr1 O2 140.6(4) 4 .
O4 Zr1 O2 76.5(4) 10 .
O4 Zr1 O4 107.0(5) 11 .
O4 Zr1 O4 70.8(5) 11 10
O4 Zr1 O4 70.8(5) 4 .
O4 Zr1 O4 67.4(6) . 10
O4 Zr1 O4 107.0(5) 4 10
O4 Zr1 O4 68.2(6) 11 4
O4 Zr1 O3 88.4(5) 10 .
O4 Zr1 O3 88.4(5) . .
O4 Zr1 O3 145.8(3) 11 .
O4 Zr1 O3 145.8(3) 4 .
O4 Zr1 O1 85.8(5) 4 .
O4 Zr1 O1 145.7(3) 10 .
O4 Zr1 O1 85.8(5) 11 .
O4 Zr1 O1 145.7(3) . .
O3 Zr1 Zr1 87.3(5) . 3
O3 Zr1 Zr1 177.3(5) . 11
O3 Zr1 Zr2 118.8(3) . .
O3 Zr1 Zr2 118.8(3) . 9
O3 Zr1 O2 71.9(3) . .
O3 Zr1 O2 71.9(3) . 10
O3 Zr1 O1 98.6(7) . .
O1 Zr1 Zr1 84.1(5) . 11
O1 Zr1 Zr1 174.1(5) . 3
O1 Zr1 Zr2 116.8(3) . .
O1 Zr1 Zr2 116.8(3) . 9
Zr1 Zr2 Zr1 60.74(6) 9 11
Zr1 Zr2 Zr1 91.28(10) . 9
Zr1 Zr2 Zr1 60.74(6) . 3
Zr1 Zr2 Zr1 60.74(6) 9 3
Zr1 Zr2 Zr1 60.74(6) . 11
Zr1 Zr2 Zr1 91.28(10) 11 3
O5 Zr2 Zr1 76.3(3) 3 9
O5 Zr2 Zr1 76.3(3) . 3
O5 Zr2 Zr1 76.3(3) 2 11
O5 Zr2 Zr1 113.1(3) . 9
O5 Zr2 Zr1 113.1(3) 3 11
O5 Zr2 Zr1 167.4(3) 2 3
O5 Zr2 Zr1 113.1(3) 2 .
O5 Zr2 Zr1 110.3(3) 2 9
O5 Zr2 Zr1 110.3(3) 4 11
O5 Zr2 Zr1 113.1(3) 4 3
O5 Zr2 Zr1 167.4(3) 4 9
O5 Zr2 Zr1 76.3(3) 4 .
O5 Zr2 Zr1 167.4(3) . 11
O5 Zr2 Zr1 110.3(3) . .
O5 Zr2 Zr1 167.4(3) 3 .
O5 Zr2 Zr1 110.3(3) 3 3
O5 Zr2 O5 73.8(3) . 4
O5 Zr2 O5 73.8(3) 4 2
O5 Zr2 O5 73.8(3) 3 2
O5 Zr2 O5 116.2(6) 4 3
O5 Zr2 O5 116.2(6) . 2
O5 Zr2 O5 73.8(3) . 3
O4 Zr2 Zr1 89.9(3) . 9
O4 Zr2 Zr1 35.3(3) 3 3
O4 Zr2 Zr1 35.3(3) 2 9
O4 Zr2 Zr1 90.3(3) 2 3
O4 Zr2 Zr1 34.7(3) . 3
O4 Zr2 Zr1 90.3(3) 4 9
O4 Zr2 Zr1 89.9(3) 2 .
O4 Zr2 Zr1 90.3(3) 3 .
O4 Zr2 Zr1 35.3(3) . .
O4 Zr2 Zr1 89.9(3) 4 3
O4 Zr2 Zr1 90.3(3) . 11
O4 Zr2 Zr1 34.7(3) 2 11
O4 Zr2 Zr1 89.9(3) 3 11
O4 Zr2 Zr1 34.7(3) 3 9
O4 Zr2 Zr1 34.7(3) 4 .
O4 Zr2 Zr1 35.3(3) 4 11
O4 Zr2 O5 144.8(4) 4 3
O4 Zr2 O5 81.1(4) . 4
O4 Zr2 O5 81.1(4) 3 .
O4 Zr2 O5 78.5(4) 2 2
O4 Zr2 O5 144.8(4) 2 .
O4 Zr2 O5 140.7(4) 2 4
O4 Zr2 O5 144.8(4) . 2
O4 Zr2 O5 140.7(4) . 3
O4 Zr2 O5 78.5(4) . .
O4 Zr2 O5 81.1(4) 4 2
O4 Zr2 O5 81.1(4) 2 3
O4 Zr2 O5 78.5(4) 3 3
O4 Zr2 O5 140.7(4) 4 .
O4 Zr2 O5 78.5(4) 4 4
O4 Zr2 O5 140.7(4) 3 2
O4 Zr2 O5 144.8(4) 3 4
O4 Zr2 O4 70.0(3) 2 3
O4 Zr2 O4 108.5(6) 3 4
O4 Zr2 O4 70.0(3) 2 4
O4 Zr2 O4 70.0(3) 3 .
O4 Zr2 O4 108.5(6) 2 .
O4 Zr2 O4 70.0(3) 4 .
C1 O5 Zr2 135.4(14) . .
C1 O2 Zr1 135.9(13) 11 .
Zr1 O4 Zr1 112.2(5) 3 .
Zr1 O4 Zr2 110.0(5) 3 .
Zr1 O4 Zr2 109.2(4) . .
C12 C11 C13 119.6(12) . .
C8 C11 C12 119.6(14) . .
C8 C11 C13 120.8(12) . .
C4 C3 H3 117.6 . .
C4 C3 C2 125(2) . .
C2 C3 H3 117.6 . .
C11 C12 C11 119.7(15) . 7_455
C11 C12 C12 120.2(7) . 2_565
C11 C12 C12 120.2(7) 7_455 2_565
O5 C1 O2 118.6(19) . 12
O5 C1 C2 124(2) . .
O2 C1 C2 113(2) 12 .
C3 C4 H4 124.2 . .
C3 C4 C5 112(2) . .
C5 C4 H4 124.2 . .
C11 C8 C5 117.7(13) . .
C9 C8 C11 121(2) . .
C9 C8 C5 121.1(15) . .
C11 C13 H13A 109.5 . .
C11 C13 H13B 109.5 . .
C11 C13 H13C 109.5 . .
H13A C13 H13B 109.5 . .
H13A C13 H13C 109.5 . .
H13B C13 H13C 109.5 . .
C3 C2 C1 116(2) . .
C3 C2 C7 128(3) . .
C7 C2 C1 116(3) . .
C4 C5 C8 120(2) . .
C6 C5 C4 119(2) . .
C6 C5 C8 121(2) . .
C2 C7 H7 128.3 . .
C6 C7 C2 103(2) . .
C6 C7 H7 128.3 . .
C8 C9 C8 119(3) 7_455 .
C8 C9 C10 120.6(13) . .
C8 C9 C10 120.6(13) 7_455 .
C5 C6 H6 113.1 . .
C7 C6 C5 134(2) . .
C7 C6 H6 113.1 . .
C9 C10 H10A 109.5 . .
C9 C10 H10B 109.5 . .
C9 C10 H10C 109.5 . .
H10A C10 H10B 109.5 . .
H10A C10 H10C 109.5 . .
H10B C10 H10C 109.5 . .
loop_
_geom_bond_atom_site_label_1
_geom_bond_atom_site_label_2
_geom_bond_distance
_geom_bond_site_symmetry_2
Zr1 Zr1 3.544(4) 3
Zr1 Zr1 3.544(4) 11
Zr1 Zr2 3.505(3) .
Zr1 Zr2 3.505(3) 9
Zr1 O2 2.261(12) .
Zr1 O2 2.261(12) 10
Zr1 O4 2.124(11) 4
Zr1 O4 2.124(11) 11
Zr1 O4 2.145(10) .
Zr1 O4 2.145(10) 10
Zr1 O3 2.186(18) .
Zr1 O1 2.373(18) .
Zr2 Zr1 3.505(3) 9
Zr2 Zr1 3.505(3) 11
Zr2 Zr1 3.505(3) 3
Zr2 O5 2.184(11) 2
Zr2 O5 2.184(11) 4
Zr2 O5 2.184(11) 3
Zr2 O5 2.184(11) .
Zr2 O4 2.155(10) 4
Zr2 O4 2.155(10) 3
Zr2 O4 2.155(10) .
Zr2 O4 2.155(10) 2
O5 C1 1.29(2) .
O2 C1 1.39(2) 11
O4 Zr1 2.124(11) 3
C11 C12 1.416(11) .
C11 C8 1.413(12) .
C11 C13 1.514(7) .
C3 H3 0.9300 .
C3 C4 1.397(7) .
C3 C2 1.399(7) .
C12 C11 1.416(11) 7_455
C12 C12 1.510(18) 2_565
C1 O2 1.39(2) 12
C1 C2 1.512(10) .
C4 H4 0.9300 .
C4 C5 1.405(10) .
C8 C5 1.517(7) .
C8 C9 1.407(8) .
C13 H13A 0.9600 .
C13 H13B 0.9600 .
C13 H13C 0.9600 .
C2 C7 1.404(10) .
C5 C6 1.401(7) .
C7 H7 0.9300 .
C7 C6 1.397(7) .
C9 C8 1.407(8) 7_455
C9 C10 1.508(10) .
C6 H6 0.9300 .
C10 H10A 0.9600 .
C10 H10B 0.9600 .
C10 H10C 0.9600 .
loop_
_geom_torsion_atom_site_label_1
_geom_torsion_atom_site_label_2
_geom_torsion_atom_site_label_3
_geom_torsion_atom_site_label_4
_geom_torsion
_geom_torsion_site_symmetry_1
_geom_torsion_site_symmetry_4
Zr2 O5 C1 O2 -16(2) . 12
Zr2 O5 C1 C2 -172.7(6) . .
O5 C1 C2 C3 -4.0(11) . .
O5 C1 C2 C7 175.6(13) . .
O2 C1 C2 C3 -161.8(13) 12 .
O2 C1 C2 C7 17.9(11) 12 .
C11 C8 C5 C4 96(2) . .
C11 C8 C5 C6 -85(2) . .
C11 C8 C9 C8 2.4(12) . 7_455
C11 C8 C9 C10 -177.6(12) . .
C3 C4 C5 C8 -177.6(14) . .
C3 C4 C5 C6 3(2) . .
C3 C2 C7 C6 -3.2(16) . .
C12 C11 C8 C5 -179.8(17) . .
C12 C11 C8 C9 -5(2) . .
C1 C2 C7 C6 177.1(9) . .
C4 C3 C2 C1 -177.0(12) . .
C4 C3 C2 C7 3.4(19) . .
C4 C5 C6 C7 -5(3) . .
C8 C11 C12 C11 2.4(12) . 7_455
C8 C11 C12 C12 -177.6(12) . 2_565
C8 C5 C6 C7 176.2(17) . .
C13 C11 C12 C11 -178.4(19) . 7_455
C13 C11 C12 C12 1.6(19) . 2_565
C13 C11 C8 C5 1(3) . .
C13 C11 C8 C9 175.9(15) . .
C2 C3 C4 C5 -3(2) . .
C2 C7 C6 C5 4(3) . .
C5 C8 C9 C8 177(2) . 7_455
C5 C8 C9 C10 -3(2) . .
C9 C8 C5 C4 -79(2) . .
C9 C8 C5 C6 100(2) . .
