#------------------------------------------------------------------------------
#$Date: 2019-11-25 22:32:00 +0200 (Mon, 25 Nov 2019) $
#$Revision: 241968 $
#$URL: file:///home/coder/svn-repositories/cod/cif/4/13/18/4131857.cif $
#------------------------------------------------------------------------------
#
# This file is available in the Crystallography Open Database (COD),
# http://www.crystallography.net/
#
# All data on this site have been placed in the public domain by the
# contributors.
#
data_4131857
loop_
_publ_author_name
'Yan, Yong'
'O'Connor, Alice E'
'Kanthasamy, Gopikkaa'
'Atkinson, George'
'Allan, David R.'
'Blake, Alexander J.'
'Schr\"oder, Martin'
_publ_section_title
;
 Unusual and Tunable Negative Linear Compressibility in the Metal-Organic
 Framework MFM-133(M) (M = Zr, Hf).
;
_journal_issue                   11
_journal_name_full               'Journal of the American Chemical Society'
_journal_page_first              3952
_journal_page_last               3958
_journal_paper_doi               10.1021/jacs.7b11747
_journal_volume                  140
_journal_year                    2018
_chemical_formula_moiety         '0.25(C184 H136 O64 Zr12)'
_chemical_formula_sum            'C46 H34 O16 Zr3'
_chemical_formula_weight         1116.39
_space_group_crystal_system      tetragonal
_space_group_IT_number           128
_space_group_name_Hall           '-P 4 2n'
_space_group_name_H-M_alt        'P 4/m n c'
_atom_sites_solution_hydrogens   geom
_atom_sites_solution_primary     direct
_audit_creation_date             2016-08-31
_audit_creation_method
;
Olex2 1.2
(compiled 2016.08.25 svn.r3337 for OlexSys, GUI svn.r5221)
;
_cell_angle_alpha                90
_cell_angle_beta                 90
_cell_angle_gamma                90
_cell_formula_units_Z            4
_cell_length_a                   19.0243(15)
_cell_length_b                   19.0243(15)
_cell_length_c                   33.174(6)
_cell_measurement_reflns_used    1789
_cell_measurement_temperature    293.15
_cell_measurement_theta_max      22.5900
_cell_measurement_theta_min      2.0520
_cell_volume                     12006(3)
_computing_cell_refinement
;
CrysAlisPro, Agilent Technologies,
Version 1.171.37.34 (release 22-05-2014 CrysAlis171 .NET)
(compiled May 22 2014,16:03:01)
;
_computing_data_collection
;
CrysAlisPro, Agilent Technologies,
Version 1.171.37.34 (release 22-05-2014 CrysAlis171 .NET)
(compiled May 22 2014,16:03:01)
;
_computing_data_reduction
;
CrysAlisPro, Agilent Technologies,
Version 1.171.37.34 (release 22-05-2014 CrysAlis171 .NET)
(compiled May 22 2014,16:03:01)
;
_computing_molecular_graphics    'Olex2 (Dolomanov et al., 2009)'
_computing_publication_material  'Olex2 (Dolomanov et al., 2009)'
_computing_structure_refinement  'ShelXL (Sheldrick, 2015)'
_computing_structure_solution    'ShelXS (Sheldrick, 2008)'
_diffrn_ambient_temperature      293.15
_diffrn_detector                 Dectris
_diffrn_detector_area_resol_mean 5.81395
_diffrn_detector_type            'Pilatus 300K detector'
_diffrn_measured_fraction_theta_full 0.761
_diffrn_measured_fraction_theta_max 0.761
_diffrn_measurement_details
;
#__ type_ start__ end____ width___ exp.time_
  1 omega -105.00  -74.00   0.2000    0.9970
omega____ theta____ kappa____ phi______ frames
    -       20.0000   70.0000  155.7700 155

#__ type_ start__ end____ width___ exp.time_
  2 omega -105.00  -74.00   0.2000    0.9970
omega____ theta____ kappa____ phi______ frames
    -       20.0000   70.0000  -24.2300 155

#__ type_ start__ end____ width___ exp.time_
  3 omega -106.00  -66.00   0.2000    0.9970
omega____ theta____ kappa____ phi______ frames
    -      -20.0000  -70.0000 -155.7700 200

#__ type_ start__ end____ width___ exp.time_
  4 omega -106.00  -66.00   0.2000    0.9970
omega____ theta____ kappa____ phi______ frames
    -      -20.0000  -70.0000   24.2300 200

#__ type_ start__ end____ width___ exp.time_
  5 omega -150.00  -94.00   0.2000    0.9970
omega____ theta____ kappa____ phi______ frames
    -      -20.0000   70.0000  -24.2319 280

#__ type_ start__ end____ width___ exp.time_
  6 omega -150.00  -94.00   0.2000    0.9970
omega____ theta____ kappa____ phi______ frames
    -      -20.0000   70.0000  155.7681 280

#__ type_ start__ end____ width___ exp.time_
  7 omega  -96.00  -30.00   0.2000    0.9970
omega____ theta____ kappa____ phi______ frames
    -       20.0000  -70.0000   24.2300 330

#__ type_ start__ end____ width___ exp.time_
  8 omega  -96.00  -30.00   0.2000    0.9970
omega____ theta____ kappa____ phi______ frames
    -       20.0000  -70.0000 -155.7700 330
;
_diffrn_measurement_device       'k-geometry diffractometer'
_diffrn_measurement_device_type
'Newport 4-circle kappa geometry diffractometer'
_diffrn_measurement_method       'oscillation method'
_diffrn_orient_matrix_UB_11      0.0021474000
_diffrn_orient_matrix_UB_12      -0.0324063000
_diffrn_orient_matrix_UB_13      -0.0091377000
_diffrn_orient_matrix_UB_21      -0.0171192000
_diffrn_orient_matrix_UB_22      0.0131505000
_diffrn_orient_matrix_UB_23      -0.0166960000
_diffrn_orient_matrix_UB_31      0.0318458000
_diffrn_orient_matrix_UB_32      0.0091788000
_diffrn_orient_matrix_UB_33      -0.0083643000
_diffrn_radiation_collimation    '0.5 mm pinhole'
_diffrn_radiation_monochromator  'Si 111 double-crystal monochromator'
_diffrn_radiation_probe          x-ray
_diffrn_radiation_wavelength     0.6889
_diffrn_reflns_av_R_equivalents  0.5796
_diffrn_reflns_av_unetI/netI     0.4767
_diffrn_reflns_Laue_measured_fraction_full 0.761
_diffrn_reflns_Laue_measured_fraction_max 0.761
_diffrn_reflns_limit_h_max       20
_diffrn_reflns_limit_h_min       -20
_diffrn_reflns_limit_k_max       13
_diffrn_reflns_limit_k_min       -13
_diffrn_reflns_limit_l_max       35
_diffrn_reflns_limit_l_min       -35
_diffrn_reflns_number            24593
_diffrn_reflns_point_group_measured_fraction_full 0.761
_diffrn_reflns_point_group_measured_fraction_max 0.761
_diffrn_reflns_theta_full        22.760
_diffrn_reflns_theta_max         22.760
_diffrn_reflns_theta_min         1.889
_diffrn_source                   'Synchrotron U21 undulator'
_diffrn_source_type              'Synchrotron Diamond Light Source'
_exptl_absorpt_coefficient_mu    0.261
_exptl_absorpt_correction_T_max  0.4269
_exptl_absorpt_correction_T_min  0.2871
_exptl_absorpt_correction_type   multi-scan
_exptl_absorpt_process_details
;
SADABS-2014/5 (Bruker,2014/5) was used for absorption correction. 
wR2(int) was 0.1543 before and 0.1243 after correction. 
The Ratio of minimum to maximum transmission is 0.6725. 
The \l/2 correction factor is Not present.
;
_exptl_crystal_colour            'clear colourless'
_exptl_crystal_colour_lustre     clear
_exptl_crystal_colour_primary    colourless
_exptl_crystal_density_diffrn    0.618
_exptl_crystal_description       octahedral
_exptl_crystal_F_000             2232
_exptl_crystal_size_max          0.046
_exptl_crystal_size_mid          0.046
_exptl_crystal_size_min          0.033
_refine_diff_density_max         0.653
_refine_diff_density_min         -1.080
_refine_diff_density_rms         0.117
_refine_ls_extinction_method     none
_refine_ls_goodness_of_fit_ref   1.217
_refine_ls_hydrogen_treatment    constr
_refine_ls_matrix_type           full
_refine_ls_number_parameters     74
_refine_ls_number_reflns         3469
_refine_ls_number_restraints     65
_refine_ls_restrained_S_all      1.218
_refine_ls_R_factor_all          0.3295
_refine_ls_R_factor_gt           0.1638
_refine_ls_shift/su_max          0.001
_refine_ls_shift/su_mean         0.000
_refine_ls_structure_factor_coef Fsqd
_refine_ls_weighting_details
'w=1/[\s^2^(Fo^2^)+(0.2000P)^2^] where P=(Fo^2^+2Fc^2^)/3'
_refine_ls_weighting_scheme      calc
_refine_ls_wR_factor_gt          0.3932
_refine_ls_wR_factor_ref         0.4967
_reflns_Friedel_coverage         0.000
_reflns_number_gt                998
_reflns_number_total             3469
_reflns_threshold_expression     'I > 2\s(I)'
_cod_data_source_file            ZrMOF_All.cif
_cod_data_source_block           37.2kbar
_cod_original_cell_volume        12007(3)
_cod_database_code               4131857
_chemical_oxdiff_formula         'C46 H42 O16 Zr3'
_shelx_space_group_comment
;
The symmetry employed for this shelxl refinement is uniquely defined
by the following loop, which should always be used as a source of
symmetry information in preference to the above space-group names.
They are only intended as comments.
;
_reflns_odcompleteness_completeness 74.90
_reflns_odcompleteness_iscentric 1
_reflns_odcompleteness_theta     22.88
_olex2_refinement_description
;
1. Fixed Uiso
 At 1.2 times of:
  All C(H) groups
 At 1.5 times of:
  All C(H,H,H) groups
2. Restrained distances
 C7-C6 = C5-C4 = C3-C2
 1.39 with sigma of 0.01
 C4-C3 = C5-C4 = C6-C5 = C7-C2 = C3-C2
 1.39 with sigma of 0.01
 C8-C5 = C2-C1
 1.5 with sigma of 0.01
 C8-C11 = C12-C11 = C9-C8
 1.39 with sigma of 0.01
 C9-C10 = C13-C11
 1.5 with sigma of 0.01
 C12-C12_$3
 1.5 with sigma of 0.02
 C13-C11
 1.5 with sigma of 0.01
 C9-C8 \\sim C8-C11 \\sim C12-C11
 with sigma of 0.02
3. Restrained planarity
 C1, C2, C3, C4, C5, C6, C7, C8, C11_$1, C13_$1
 with sigma of 0.1
 C1_$1, C2_$1, C3_$1, C4_$1, C5_$1, C6_$1, C7_$1, C8_$1, C11, C13
 with sigma of 0.1
 C1_$2, C2_$2, C7_$2, C3_$2, C6_$2, C5_$2, C4_$2, C8_$2, C11_$3, C13_$3
 with sigma of 0.1
 C1_$3, C2_$3, C3_$3, C4_$3, C5_$3, C6_$3, C7_$3, C8_$3, C11_$2, C13_$2
 with sigma of 0.1
 C10, C9, C12, C12_$3, C9_$3, C10_$3
 with sigma of 0.1
4. Uiso/Uaniso restraints and constraints
All non-hydrogen atoms have similar U: within 2A with sigma of 0.02 and sigma
for terminal atoms of 0.04
5. Others
 Fixed Sof: H10A(0.5) H10B(0.5) H10C(0.5)
6.a Me refined with riding coordinates:
 C13(H13A,H13B,H13C), C10(H10A,H10B,H10C)
6.b Aromatic/amide H refined with riding coordinates:
 C3(H3), C4(H4), C7(H7), C6(H6)
;
_shelx_res_file
;
    37.2kbar.res created by SHELXL-2014/7

TITL g2yy_9xnew in P4/mnc
CELL 0.6889 19.02432 19.02432 33.17426 90 90 90
ZERR 4 0.00148 0.00148 0.00601 0 0 0
LATT 1
SYMM -X,-Y,+Z
SYMM -Y,+X,+Z
SYMM +Y,-X,+Z
SYMM 0.5-X,0.5+Y,0.5-Z
SYMM 0.5+X,0.5-Y,0.5-Z
SYMM 0.5+Y,0.5+X,0.5-Z
SYMM 0.5-Y,0.5-X,0.5-Z
SFAC C H O Zr
DISP C 0.003 0.001 10.848
DISP H -0 0 0.623
DISP O 0.011 0.006 30.192
DISP Zr -11.605 0.551 2275.752
UNIT 184 136 64 12
EQIV $1 -0.5+Y,0.5+X,0.5-Z
EQIV $2 0.5-Y,0.5-X,0.5-Z
EQIV $3 -X,1-Y,+Z
DFIX 1.39 0.01 C7 C6 C5 C4 C3 C2
DFIX 1.39 0.01 C4 C3 C5 C4 C6 C5 C7 C2 C3 C2
DFIX 1.5 0.01 C8 C5 C2 C1
DFIX 1.39 0.01 C8 C11 C12 C11 C9 C8
DFIX 1.5 0.01 C9 C10 C13 C11
DFIX 1.5 C12 C12_$3
DFIX 1.5 0.01 C13 C11
SADI C9 C8 C8 C11 C12 C11
FLAT C1 C2 C3 C4 C5 C6 C7 C8 C11_$1 C13_$1
FLAT C1_$1 C2_$1 C3_$1 C4_$1 C5_$1 C6_$1 C7_$1 C8_$1 C11 C13
FLAT C1_$2 C2_$2 C7_$2 C3_$2 C6_$2 C5_$2 C4_$2 C8_$2 C11_$3 C13_$3
FLAT C1_$3 C2_$3 C3_$3 C4_$3 C5_$3 C6_$3 C7_$3 C8_$3 C11_$2 C13_$2
FLAT C10 C9 C12 C12_$3 C9_$3 C10_$3
SIMU 0.02 0.04 2

L.S. 5 0 243
PLAN  20
TEMP 20
BOND
MORE -1
BOND $H
CONF
ABIN
fmap 2
acta
REM <olex2.extras>
REM <HklSrc "%.\\37.2kbar.hkl">
REM </olex2.extras>

WGHT    0.200000
FVAR       0.29503
ZR1   4    0.123849    0.044964    0.000000    10.50000    0.05646    0.07659 =
         0.03958    0.00000    0.00000   -0.00193
ZR2   4    0.000000    0.000000    0.073506    10.25000    0.05667    0.05667 =
         0.02970    0.00000    0.00000    0.00000
O5    3   -0.028273    0.092940    0.108487    11.00000    0.10613
O2    3    0.173569    0.060351   -0.060299    11.00000    0.11048
O4    3    0.038122    0.083678    0.035800    11.00000    0.12216
O3    3    0.167024    0.150955    0.000000    10.50000    0.15266
O1    3    0.227081   -0.013818    0.000000    10.50000    0.16282
C11   1   -0.026275    0.416062    0.222566    11.00000    0.13321
C3    1   -0.046584    0.193890    0.170168    11.00000    0.22171
AFIX  43
H3    2   -0.030559    0.148314    0.174451    11.00000   -1.20000
AFIX   0
C12   1   -0.028053    0.471947    0.250000    10.50000    0.12978
C1    1   -0.060305    0.153563    0.100679    11.00000    0.16891
C4    1   -0.049761    0.239179    0.203316    11.00000    0.21864
AFIX  43
H4    2   -0.038646    0.227488    0.229779    11.00000   -1.20000
AFIX   0
C8    1   -0.077972    0.364523    0.219968    11.00000    0.14098
C13   1    0.031050    0.411870    0.191011    11.00000    0.17876
AFIX  33
H13A  2    0.064110    0.449294    0.195179    11.00000   -1.50000
H13B  2    0.054777    0.367496    0.193177    11.00000   -1.50000
H13C  2    0.010616    0.416162    0.164667    11.00000   -1.50000
AFIX   0
C2    1   -0.065959    0.212785    0.131042    11.00000    0.22761
C5    1   -0.072517    0.305106    0.189884    11.00000    0.19328
C7    1   -0.090075    0.277360    0.116275    11.00000    0.24745
AFIX  43
H7    2   -0.101194    0.288850    0.089783    11.00000   -1.20000
AFIX   0
C9    1   -0.128726    0.371274    0.250000    10.50000    0.16138
C6    1   -0.093718    0.320723    0.150232    11.00000    0.22529
AFIX  43
H6    2   -0.112425    0.365315    0.146124    11.00000   -1.20000
AFIX   0
C10   1   -0.184608    0.315392    0.250000    10.50000    0.21485
PART -1
AFIX  33
H10A  2   -0.175870    0.282866    0.228450    10.50000   -1.50000
H10B  2   -0.183806    0.290802    0.275266    10.50000   -1.50000
H10C  2   -0.229830    0.336826    0.246284    10.50000   -1.50000
AFIX   0
HKLF 4

REM  g2yy_9xnew in P4/mnc
REM R1 =  0.1638 for     998 Fo > 4sig(Fo)  and  0.3295 for all    3469 data
REM     74 parameters refined using     65 restraints

END

WGHT      0.2000      0.0000

REM Highest difference peak  0.653,  deepest hole -1.080,  1-sigma level  0.117
Q1    1   0.1259  0.0173  0.0000  10.50000  0.05    0.65
Q2    1   0.0000  0.0000  0.0872  10.25000  0.05    0.62
Q3    1   0.2016  0.0414  0.0000  10.50000  0.05    0.60
Q4    1   0.0000  0.0000  0.0629  10.25000  0.05    0.57
Q5    1   0.2197  0.1287  0.0000  10.50000  0.05    0.53
Q6    1   0.2100 -0.0492  0.0000  10.50000  0.05    0.52
Q7    1   0.0003  0.0368  0.0756  11.00000  0.05    0.48
Q8    1  -0.0386  0.0966  0.0993  11.00000  0.05    0.48
Q9    1   0.1254  0.1351  0.0000  10.50000  0.05    0.46
Q10   1  -0.0602  0.0880  0.1022  11.00000  0.05    0.45
Q11   1  -0.2163  0.2837  0.2500  10.50000  0.05    0.44
Q12   1   0.2782  0.0328 -0.0416  11.00000  0.05    0.41
Q13   1   0.2173  0.1598 -0.0341  11.00000  0.05    0.40
Q14   1   0.1661  0.0830 -0.0536  11.00000  0.05    0.40
Q15   1   0.2002  0.1906  0.0259  11.00000  0.05    0.40
Q16   1   0.1093  0.1858 -0.0205  11.00000  0.05    0.39
Q17   1   0.1769  0.1923 -0.0238  11.00000  0.05    0.38
Q18   1   0.0762  0.0846  0.0498  11.00000  0.05    0.38
Q19   1  -0.1078  0.2699  0.0532  11.00000  0.05    0.37
Q20   1   0.1990 -0.0915 -0.0217  11.00000  0.05    0.36
;
_shelx_res_checksum              51988
_shelx_hkl_file
;
   2   1   0  653.80  168.82
  -2  -1   0  618.39  159.41
   2   1   0  562.61  150.25
   2   0   0 4454.09 1078.82
   3   2   0   14.27    9.73
   3   2   0   15.13   13.22
  -3  -2   0   12.72   11.91
   3   1   0  114.21   27.92
   3   1   0   87.85   25.60
   3   1   0   67.78   31.83
  -3  -1   0  116.30   24.61
  -3  -1   0   92.97   29.32
   3   1   0  117.79   26.39
   3   0   0   -0.90   14.56
   3   0   0    3.37    7.03
   3  -1   0  133.00   31.21
   4   3   0   14.54   19.91
   4   2   0  540.11  144.21
   4   2   0  526.17  127.63
  -4  -2   0  482.21  136.73
  -4  -1   0 2836.52  712.67
   4   1   0 3106.70  755.34
   4   1   0 2846.01  812.06
   4   1   0 2859.97  731.53
   4   1   0 3017.70  700.02
  -4  -1   0 3085.03  762.90
   4   0   0  155.92   52.12
  -4   0   0  194.93   49.94
   4   0   0  194.79   44.59
   4   0   0  182.73   40.94
   4   0   0  154.92   38.95
  -4   0   0  116.69   51.18
   4  -1   0 3170.28  746.32
   5   3   0   -1.78   22.14
  -5  -2   0 3267.23  789.31
   5   2   0 3104.95  861.15
  -5  -2   0 3311.29  848.09
   5   2   0 3303.45  899.01
   5   2   0 3845.94  791.45
   5   1   0   75.78   21.96
   5   1   0   42.16   37.52
   5   1   0   88.15   24.12
  -5  -1   0   97.46   32.06
   5   1   0   69.12   24.48
  -5  -1   0   97.42   21.58
   5   0   0   14.03   31.57
   5   0   0  -12.32   14.57
   5   0   0   -1.17   14.67
  -5   0   0    2.07   20.05
  -5   0   0  -20.19   27.79
   5   0   0    1.40    5.41
   5  -1   0   73.83   25.86
   5  -1   0   74.02   38.56
   5  -1   0   91.07   23.33
   5  -2   0 2807.41  757.04
   6   4   0    1.89   38.44
  -6  -3   0  491.53  107.32
   6   3   0  385.71   98.04
   6   3   0  251.48  113.32
  -6  -2   0  890.24  227.74
   6   2   0  781.67  260.12
   6   2   0 1108.02  242.68
   6   1   0 3574.61  835.62
   6   1   0 3025.00  849.89
  -6  -1   0 3610.49  916.40
   6   0   0   -1.91   42.80
   6   0   0    8.76    7.49
  -6   0   0   -1.68   29.66
   6   0   0    5.26   21.17
  -6   0   0   20.06   30.13
   6  -1   0 3799.74  841.30
   6  -1   0 3373.66  896.86
  -6   1   0 3327.67  818.08
   7   4   0  384.68  136.35
   7   4   0  549.24  122.11
  -7  -4   0  473.03  136.35
  -7  -3   0 1581.84  384.95
   7   3   0 1528.91  394.27
   7   3   0 1360.20  407.64
   7   3   0 1464.20  356.07
  -7  -2   0 1157.77  245.95
   7   2   0  818.72  247.67
   7   2   0  949.13  268.83
  -7  -2   0 1057.16  239.70
   7   2   0 1004.37  246.21
  -7  -1   0  455.83  124.37
   7   1   0  368.45  111.76
   7   1   0  477.00  101.65
   7   1   0  421.90  108.93
  -7  -1   0  451.58  107.82
   7   1   0  460.88  129.83
  -7  -1   0  447.64  117.78
   7   0   0   28.15   25.08
  -7   0   0   16.87   46.81
  -7   0   0    3.46   37.11
   7   0   0   25.05   55.69
   7   0   0    0.97    8.79
  -7   0   0    2.02   35.40
   7   0   0   -3.41   24.51
   7  -1   0  436.40   94.93
   7  -1   0  398.13  116.44
   7  -1   0  348.05   98.34
  -7   1   0  236.51  101.94
   8   5   0  -15.80   57.58
   8   4   0 1525.24  396.53
  -8  -4   0 1699.37  432.45
   8   4   0 1764.25  436.27
   8   3   0   18.71   43.60
   8   3   0  163.89   72.34
  -8  -3   0  123.80   59.85
   8   3   0   90.32   36.51
   8   2   0  831.21  250.04
  -8  -2   0 1010.61  247.75
  -8  -2   0 1072.27  249.62
   8   2   0  941.82  255.15
   8   2   0 1023.32  228.41
   8   2   0 1354.01  276.76
  -8  -1   0   29.61   13.84
   8   1   0   55.41   27.10
  -8  -1   0   25.68   49.55
   8   1   0   23.47   14.71
   8   1   0   42.92   65.23
   8   1   0   30.01   28.13
  -8  -1   0   41.79   35.22
   8   0   0  314.19   83.38
  -8   0   0  290.38   96.77
   8   0   0  313.05   69.18
  -8   0   0  198.25   80.85
   8   0   0  277.44   73.66
   8   0   0  200.63  101.63
  -8   0   0  250.08  105.90
  -8   0   0  307.48   72.27
   8  -1   0   -4.35   32.75
  -8   1   0   54.48   43.44
   8  -1   0   38.91   13.60
   8  -1   0   -5.27   65.57
   8  -2   0 1455.28  278.60
   8  -2   0 1191.86  260.48
   8  -2   0  841.46  273.00
   8  -3   0   63.89   43.05
  -8   4   0 1126.12  399.56
   8  -4   0 1620.02  366.40
  -9  -5   0  702.70  230.20
   9   5   0  867.03  227.27
   9   5   0  875.91  219.29
   9   4   0  161.41   78.85
   9   4   0  347.71   82.97
   9   4   0  301.13  104.16
  -9  -4   0  260.23   92.47
   9   3   0 2532.08  629.24
   9   3   0 2477.18  521.25
   9   3   0 2241.87  583.42
  -9  -3   0 1706.31  570.18
   9   2   0   24.92   21.23
   9   2   0  136.40   80.02
   9   2   0   68.89   28.45
  -9  -2   0   23.27   34.19
   9   2   0    6.82   33.47
  -9  -2   0   47.11   19.32
  -9  -2   0   29.98   51.75
   9   1   0  131.42   33.88
  -9  -1   0  116.78   65.71
   9   1   0  113.94   43.09
  -9  -1   0  106.43   33.23
   9   1   0  120.54   43.14
  -9  -1   0   95.59   55.74
   9   1   0  109.35   83.34
  -9   0   0   -4.20   12.95
  -9   0   0    2.78   47.47
   9   0   0   36.94   76.97
   9   0   0  -25.22   35.93
  -9   0   0   11.40   62.98
  -9   0   0  -15.19   53.13
   9   0   0    6.00   34.43
   9   0   0   -7.14   12.08
   9  -1   0  129.27   32.66
   9  -1   0  162.38   51.67
  -9   1   0  197.52   61.76
   9  -1   0   87.05   79.76
   9  -2   0  133.52   73.90
   9  -2   0   83.81   41.20
  -9   2   0   30.00   56.92
   9  -4   0  403.90   99.82
  10   6   0  388.46  137.20
 -10  -5   0  120.09   72.04
  10   5   0   18.77   54.50
  10   5   0  121.30   85.15
  10   4   0 1394.34  421.10
  10   4   0 1556.08  350.50
 -10  -4   0 1388.46  388.62
 -10  -3   0    5.19   55.73
  10   3   0   94.07   92.01
  10   3   0  -46.66   39.81
 -10  -2   0  761.81  196.73
  10   2   0  504.70  172.29
  10   2   0  955.47  232.38
 -10  -1   0   -5.65   66.16
  10   1   0   42.87   94.10
  10   1   0   19.98   36.95
 -10   0   0   52.10   61.24
  10   0   0   91.74   89.42
  10   0   0   26.21   40.34
 -10   0   0   -6.45   76.71
 -10   1   0   65.21   86.45
 -10   1   0   10.44   61.84
  10  -1   0   64.37   83.16
  10  -1   0   99.97   45.58
  10  -2   0  904.09  217.08
  10  -2   0  687.28  195.64
 -10   2   0  773.96  203.40
  10  -3   0  105.40   52.86
  10  -4   0 1476.67  367.86
  11   6   0  263.43  120.71
  11   5   0   88.12   66.38
 -11  -5   0  103.42   85.03
  11   5   0  246.97  104.54
  11   4   0   59.05   50.12
 -11  -4   0   36.96   66.99
  11   4   0  -46.57   99.80
  11   3   0  632.42  185.10
 -11  -3   0  646.95  212.49
  11   3   0  897.64  257.20
  11   2   0   60.35   45.01
 -11  -2   0   65.63   70.54
  11   2   0   36.94  109.08
 -11  -1   0  -33.49   72.59
  11   1   0    4.05  103.34
  11   1   0    2.83   42.61
 -11  -1   0   35.48   76.21
  11   0   0   29.66   44.45
 -11   0   0  -55.94   69.64
  11   0   0   47.77   99.52
 -11   0   0  -62.28   86.83
 -11   1   0   23.81   71.09
 -11   1   0   24.36   97.78
  11  -1   0   72.44   93.88
  11  -1   0   97.28   54.72
 -11   2   0  101.52   76.65
  11  -2   0  111.89   59.67
  11  -2   0  124.74   93.31
 -11   3   0  957.25  246.26
  11  -3   0  907.63  236.30
  11  -3   0 1112.10  255.44
  11  -4   0   88.75   56.33
  12   6   0  509.18  150.29
 -12  -6   0  259.81  132.64
  12   5   0   42.58   61.77
 -12  -5   0  -46.48   81.61
  12   5   0  -30.35  113.00
  12   4   0  370.92  115.70
  12   4   0  652.84  173.65
 -12  -4   0  270.45  134.60
 -12  -3   0    6.49   76.72
  12   3   0   73.50   51.91
  12   3   0   87.28  125.20
 -12  -2   0   13.36   78.15
  12   2   0 -259.77  136.08
  12   2   0   12.87   55.43
  12   1   0  173.92  142.35
  12   1   0  147.56   71.98
 -12  -1   0  203.17  100.68
 -12  -1   0   98.82  103.84
 -12   0   0  122.69  131.45
  12   0   0  266.02   92.97
  12   0   0  569.45  152.44
 -12   0   0  321.21  115.81
 -12   1   0  328.62  106.83
 -12   1   0  180.50  129.15
  12  -1   0  379.30  134.00
  12  -1   0  226.97   85.89
  12  -2   0  -37.75  105.56
 -12   2   0   95.07   87.04
 -12   2   0   19.09  119.53
  12  -2   0  -37.98   60.48
  12  -3   0    4.31   99.79
  12  -3   0    3.91   64.47
 -12   3   0  -15.32   84.30
  12  -4   0  592.93  145.43
 -13  -4   0   89.49   84.46
  13   4   0   31.99   61.34
  13   3   0   62.84   69.97
 -13  -3   0   65.37   95.04
  13   3   0  575.35  138.00
  13   2   0  160.01  150.92
  13   2   0  114.95   67.26
 -13  -2   0  147.01   98.84
 -13  -2   0  334.38  109.00
 -13  -1   0  -58.19  100.51
 -13  -1   0  -37.03   99.14
  13   1   0   40.80  136.88
  13   1   0   58.93   58.48
 -13   0   0  225.16   95.67
 -13   0   0   31.60  112.25
  13   0   0  -98.51  131.62
  13   0   0   56.49   62.70
 -13   1   0  393.18  122.18
 -13   1   0    4.97  140.98
  13  -1   0  801.47  141.83
  13  -2   0  127.23   79.01
 -13   2   0   63.33  137.07
  13  -5   0   -4.56   62.32
  14   7   0  210.46  157.68
 -14  -6   0  188.12  106.81
  14   6   0  100.50   83.09
  14   6   0 -178.52  142.43
 -14  -5   0   27.41  106.67
  14   5   0  -16.54  154.40
  14   5   0    4.82   75.09
  14   4   0  100.50   77.80
  14   4   0 -148.01  163.65
 -14  -4   0  425.12   99.86
  14   3   0  353.48  174.91
 -14  -2   0 -146.59  108.16
  14   2   0   51.75  151.63
 -14  -1   0 -141.93  110.36
  14   1   0  147.98  158.32
  14   0   0   16.29  146.48
 -14   0   0   -5.65  107.30
 -14   1   0   17.51  105.10
  14  -1   0  131.82  135.01
  14  -1   0   -4.44   62.43
  14  -2   0   46.69   75.35
 -14   2   0  366.61  147.62
  14  -2   0  206.00  135.46
 -14   2   0    6.09  112.83
 -14   3   0    6.40  109.27
 -14   3   0  -11.80  150.09
  14  -3   0  -10.43  125.81
  14  -3   0   28.79   76.92
  14  -4   0  166.03   87.96
  14  -4   0   74.90  131.87
 -14   4   0  202.54  121.66
  14  -5   0  199.29   90.93
  15   7   0  -18.00  161.36
  15   6   0  321.35  166.54
 -15  -6   0   49.48  116.33
  15   6   0    5.63   84.31
  15   5   0  137.84  170.55
  15   5   0   10.41   83.69
 -15  -5   0  140.01  108.84
 -15  -4   0  -45.84  105.01
  15   4   0    4.79   71.09
  15   4   0  -31.88  181.11
 -15  -3   0  -36.48  112.57
  15   3   0  115.46  178.65
 -15  -3   0   24.30  130.85
  15   3   0  136.35   79.35
 -15  -2   0    6.05  122.68
  15   2   0  -31.92  184.30
 -15  -2   0 -119.36  117.75
  15   2   0    4.46   72.21
 -15  -1   0  155.80  126.64
 -15  -1   0 -162.61  123.84
  15   1   0  156.51  172.04
  15   1   0   28.08   82.60
 -15   0   0  -44.41  134.80
 -15   0   0 -122.48  126.70
  15   0   0   -4.75   81.30
  15   0   0  221.74  167.48
 -15   1   0  -84.36  151.04
  15  -1   0    5.84  156.95
 -15   1   0 -157.66  126.30
  15  -1   0   83.13   81.53
 -15   2   0   -6.83  125.90
  15  -2   0   -5.15   88.52
 -15   2   0 -178.10  154.84
  15  -2   0  364.61  148.92
  15  -3   0 -161.02  144.16
  15  -3   0   74.49   94.51
 -15   3   0  -78.46  128.21
 -15   3   0  439.60  161.63
  15  -4   0  203.74   88.77
 -15   4   0  -82.04  126.87
  15  -4   0  363.21  149.56
  15  -5   0   27.19   86.11
  16   7   0   40.17  181.94
  16   6   0 -476.53  101.80
  16   6   0   -6.82  194.55
 -16  -6   0  -47.83  147.01
  16   5   0  -33.97   95.69
 -16  -5   0 -121.20  128.19
  16   5   0 -174.82  198.30
 -16  -4   0 -142.97  115.58
  16   4   0   21.10   85.51
  16   4   0    7.06  194.94
  16   3   0   35.30  184.22
 -16  -3   0 -256.64  138.12
  16   3   0   15.64   80.95
 -16  -3   0   35.79  121.49
 -16  -2   0  329.06  137.81
  16   2   0   -5.08   79.04
 -16  -2   0 -117.49  128.77
  16   2   0   28.25  192.64
 -16  -1   0    7.14  141.51
 -16  -1   0    5.74  138.35
  16   1   0  -15.63   85.39
  16   1   0 -301.45  182.91
 -16   0   0   37.07  157.38
 -16   0   0  -65.20  137.40
  16   0   0   58.25   88.09
  16   0   0    6.61  167.55
 -16   1   0  104.67  143.64
  16  -1   0  438.68  172.40
 -16   1   0 -156.85  172.21
  16  -1   0   16.37   92.94
  16  -2   0  208.26  156.60
  16  -2   0    5.65   94.79
 -16   2   0   62.15  179.29
 -16   2   0   30.66  137.02
  16  -3   0    5.82   94.39
 -16   3   0 -135.47  136.41
  16  -3   0 -387.06  169.00
 -16   3   0  127.39  183.29
 -16   4   0  241.05  143.49
  16  -4   0 -190.04   95.69
 -16   4   0  -28.28  177.57
  16  -4   0  135.12  155.13
  16  -5   0 -304.00   98.11
  17   7   0 -248.00  209.09
  17   6   0 -137.31  209.59
  17   6   0  -13.02  101.88
 -17  -6   0 -144.01  142.59
  17   5   0   12.39   97.27
 -17  -5   0   36.65  134.73
  17   5   0    7.76  213.97
 -17  -4   0  118.83  158.39
 -17  -4   0  -68.48  126.65
  17   4   0   11.95   96.66
  17   4   0  280.07  212.66
  17   3   0   -5.79   96.48
  17   3   0   -7.79  206.99
 -17  -3   0 -127.32  134.12
 -17  -3   0 -321.65  157.37
 -17  -2   0   -5.99  148.58
  17   2   0  -11.30   95.92
 -17  -2   0  280.86  161.68
  17   1   0    5.85  109.67
 -17  -1   0   63.76  173.20
  17   1   0  439.65  220.37
 -17  -1   0  224.12  167.60
  17   0   0 1265.54  265.42
 -17   0   0  181.29  224.99
 -17   0   0  797.77  233.98
  17  -1   0  337.86  125.83
  17  -1   0  482.13  203.60
 -17   1   0  234.84  186.67
 -17   1   0  424.65  203.69
 -17   2   0   69.34  161.90
 -17   2   0  -59.76  186.94
  17  -2   0    6.18  100.43
  17  -2   0    7.01  185.00
  17  -3   0  147.00  183.14
  17  -3   0  -25.42  108.64
 -17   3   0  329.35  165.70
 -17   3   0  322.99  199.18
 -17   4   0 -385.02  195.01
 -17   4   0 -166.29  160.27
  17  -4   0   77.92  174.55
  17  -4   0   19.61  105.28
 -17   5   0  -75.87  156.33
  17  -5   0   -6.57  108.96
 -17   5   0  -53.67  189.66
  18   7   0   -8.38  227.57
  18   6   0  191.01  125.89
  18   6   0  186.30  257.14
 -18  -6   0  410.69  188.19
 -18  -5   0  155.48  171.88
 -18  -5   0   13.59  151.16
  18   5   0   27.24  106.93
  18   5   0    8.52  231.15
 -18  -4   0 -131.75  169.19
 -18  -4   0  288.46  151.29
  18   4   0    8.57  228.51
  18   4   0 -171.80  102.82
  18   3   0  115.82  110.34
  18   3   0  128.61  233.62
 -18  -3   0  219.19  180.35
 -18  -3   0  363.82  161.81
  18   2   0    6.45  104.45
  18   2   0   16.76  224.48
 -18  -2   0  -33.54  158.39
 -18  -2   0  141.42  176.08
  18   1   0    6.47  102.50
 -18  -1   0   54.18  182.16
 -18  -1   0 -134.26  172.51
  18   1   0    8.17  209.33
  18   0   0    6.75  108.89
 -18   0   0  151.11  194.19
  18   0   0   -8.01  200.73
 -18   0   0 -350.85  179.70
  18  -1   0    6.74  114.11
 -18   1   0   -7.82  195.62
  18  -1   0    7.80  194.05
 -18   1   0 -210.16  178.48
 -18   2   0  -38.83  179.42
  18  -2   0    6.84  115.02
  18  -2   0   -7.78  195.09
 -18   2   0   81.69  204.18
  18  -3   0  170.19  200.15
  18  -3   0    6.97  108.54
 -18   3   0  -41.48  212.80
 -18   3   0  -80.67  181.19
 -18   4   0 -185.23  177.61
 -18   4   0 -216.97  218.43
  18  -4   0   46.96  187.81
  18  -4   0    7.11  113.58
 -18   5   0   -8.36  216.44
  19   7   0 -278.94  258.17
  19   6   0    7.73  116.14
 -19  -6   0  343.01  172.99
  19   6   0 -195.22  256.80
  19   5   0 -438.18  258.01
 -19  -5   0    9.04  189.20
  19   5   0   -7.62  117.68
 -19  -5   0 -114.12  172.74
 -19  -4   0 -231.20  194.87
 -19  -4   0   58.98  168.57
  19   4   0   14.66  111.00
  19   4   0    9.41  255.36
  19   3   0 -792.16  258.69
 -19  -3   0  -43.77  177.12
 -19  -3   0  114.74  195.09
  19   3   0 -129.01  115.95
 -19  -1   0 2310.90  495.39
 -19  -1   0 1856.87  502.74
  19   1   0  918.59  400.05
  19   0   0 1767.98  568.05
 -19   0   0 1651.50  676.65
 -19   0   0 1689.69  710.91
  19  -1   0  144.39  325.46
 -19   1   0  584.71  444.64
 -19   1   0  973.78  408.35
 -19   2   0 -551.44  237.87
  19  -2   0 -301.34  150.44
 -19   2   0 -158.18  243.71
  19  -3   0   -7.60  127.09
  19  -3   0 -300.77  215.20
 -19   3   0   11.30  205.69
 -19   3   0  -98.36  237.67
 -19   4   0  333.60  229.96
  19  -4   0   -7.75  129.81
  19  -4   0    8.67  214.58
 -19   4   0 -103.41  199.27
  20   6   0   59.56  130.02
 -20  -6   0  168.69  186.91
 -20  -5   0 -151.98  201.72
  20   5   0  118.28  132.33
 -20  -5   0  -78.91  192.55
 -20  -4   0   10.46  214.66
  20   4   0    8.12  125.01
 -20  -4   0  316.29  192.49
  20   4   0  -10.24  281.00
 -20  -3   0   91.17  197.05
  20   3   0  251.18  263.73
 -20  -3   0  248.60  220.42
  20   3   0   57.45  127.24
  20   2   0    8.04  127.83
 -20  -2   0  193.74  203.98
 -20  -2   0  -88.69  223.79
  20   2   0  -29.68  265.10
  20   1   0   48.82  131.97
 -20  -1   0 -136.82  231.35
 -20  -1   0  217.99  211.37
  20   1   0   19.57  257.87
  20   0   0  174.81  138.88
  20   0   0  105.69  261.80
 -20   0   0  -63.79  222.34
 -20   0   0  256.97  222.80
 -20   1   0 -314.29  228.90
  20  -1   0    8.42  140.05
 -20   1   0   75.23  234.08
  20  -1   0    9.52  231.41
  20  -2   0    8.38  142.74
  20  -2   0   -9.52  231.33
 -20   2   0  389.36  241.13
  20  -3   0    8.42  141.12
 -20   3   0 -115.29  251.84
   1   1  -1   -0.61    1.06
   1   1  -1    0.29    0.45
  -1  -1   1    0.31    1.43
  -1  -1   1    0.28    0.70
   2   1  -1 1229.88  412.77
   2   1  -1 1973.85  469.57
   2   1  -1 2077.12  437.88
  -2  -1  -1 1742.64  443.77
   2   1  -1 1935.12  420.59
  -2  -1   1 1895.74  446.45
  -2  -1   1 1591.72  407.65
   2   1   1 1499.17  411.97
   2   0  -1   -0.62    8.44
   2   0  -1    4.19    3.38
  -2   0  -1    1.62    7.24
  -2   0   1   -1.59    6.25
   2   0   1   -0.93    4.24
   2  -1   1 1686.25  417.71
   2  -1   1 1670.81  465.87
   3   2  -1    3.81    8.75
  -3  -2  -1    0.97   11.58
   3   2  -1    5.77    6.19
   3   2  -1    7.95   13.87
  -3  -2   1    9.86   11.61
  -3  -2   1    2.76    5.65
   3   2   1    2.75   11.97
  -3  -1  -1  561.46  164.31
   3   1  -1  576.16  170.83
   3   1  -1  642.50  148.69
   3   1  -1  644.06  150.11
   3   1  -1  686.68  157.12
   3   1   1  569.60  174.65
  -3  -1   1  547.89  162.14
   3   1   1  668.61  152.43
   3   0  -1  244.82   96.72
   3   0  -1  285.46   80.76
  -3   0  -1  316.79   91.80
   3   0  -1  403.49   88.41
  -3   0   1  337.45   99.43
   3   0   1  396.52   80.73
  -3   0   1  341.04   82.79
  -3   1  -1  537.13  151.86
   3  -1  -1  597.84  171.83
   3  -1   1  630.53  150.15
  -3   1   1  650.33  164.22
  -3   2  -1   11.88   14.45
   3  -2   1    6.13   17.83
   4   3  -1   32.49   21.35
  -4  -3   1   20.99   19.15
   4   2  -1  846.54  201.44
   4   2  -1  928.16  211.60
   4   2  -1  649.29  225.24
  -4  -2  -1  825.29  214.58
   4   2  -1  758.62  200.19
   4   2   1  827.36  219.41
   4   2   1  970.36  198.58
  -4  -2   1  832.37  212.43
   4   1  -1   88.41   21.68
   4   1  -1   93.34   22.96
   4   1  -1  109.21   23.98
  -4  -1  -1  115.78   28.37
   4   1  -1  100.81   31.87
   4   1   1   87.23   24.03
  -4  -1   1   73.29   28.26
   4   1   1   97.42   33.05
  -4  -1   1   45.32   22.00
  -4   0  -1  -11.00   19.82
   4   0  -1   -4.61   10.03
   4   0  -1    9.77   22.22
   4   0  -1   -2.49    5.02
   4   0  -1   10.09   11.67
  -4   0   1   -2.11   14.17
   4   0   1    7.35   10.56
  -4   0   1    9.15   16.71
   4  -1  -1  105.73   26.22
   4  -1  -1   64.22   32.73
   4  -1   1   77.46   24.41
  -4   1   1  118.61   29.60
  -4   2  -1  696.67  195.44
   4  -2   1  666.72  206.79
   4  -2   1  652.10  185.93
   5   3  -1 1497.31  336.33
  -5  -3   1 1252.42  361.62
   5   2  -1  611.90  158.63
   5   2  -1  774.29  164.26
   5   2  -1  698.25  171.11
   5   2  -1  574.82  185.48
  -5  -2  -1  628.14  173.79
   5   2   1  513.01  160.28
  -5  -2   1  682.48  171.64
   5   1  -1 2666.02  661.54
   5   1  -1 2514.12  560.96
   5   1  -1 2493.49  613.44
  -5  -1  -1 1505.30  621.66
  -5  -1  -1 2413.92  582.37
  -5  -1   1 2608.51  591.89
   5   1   1 2494.51  667.68
  -5  -1   1 2438.40  656.26
  -5  -1   1 2641.03  623.51
   5   1   1 2473.58  625.47
  -5   0  -1   72.07   19.27
   5   0  -1   91.67   37.15
  -5   0  -1   73.02   34.24
   5   0  -1   75.27   26.64
  -5   0  -1   89.86   27.36
   5   0  -1   91.35   23.39
   5   0  -1   71.46   18.49
  -5   0   1   61.91   26.99
   5   0   1   76.46   18.79
   5   0   1   72.16   23.06
  -5   0   1   62.82   32.90
   5   0   1   61.42   22.44
   5  -1  -1 2582.58  601.85
   5  -1  -1 2500.02  620.62
   5  -1  -1 2314.56  665.22
   5  -1   1 2750.79  588.12
   5  -1   1 2313.84  622.13
   5  -2   1  764.91  178.58
   6   4  -1   15.02   38.35
  -6  -4   1    9.85   34.86
  -6  -3  -1  -12.97   34.32
   6   3  -1   14.83   43.40
   6   3  -1   32.38   22.34
   6   3   1   51.66   40.25
  -6  -3   1   -4.89   13.51
   6   3   1   12.64   29.78
  -6  -2  -1 3907.64  909.61
   6   2  -1 3296.62  905.84
   6   2  -1 3484.82  890.63
  -6  -2   1 3577.51  870.53
   6   2   1 3624.89  970.92
   6   2   1 3819.51  942.23
  -6  -1  -1  243.68   59.88
   6   1  -1  267.28   59.59
   6   1  -1  258.76   64.73
  -6  -1   1  239.64   71.30
   6   1   1  243.40   79.58
  -6  -1   1  215.37   60.70
   6   1   1  276.61   62.87
   6   1   1  237.27   62.24
   6   0  -1   -4.73    8.87
  -6   0  -1   -3.53   24.73
  -6   0  -1    2.20    7.64
   6   0  -1   18.48   23.58
   6   0   1   17.50   47.41
   6   0   1   -6.72    6.63
   6   0   1  -13.32   17.07
  -6   0   1   -3.38   34.17
   6  -1  -1  277.27   63.30
   6  -1  -1  307.37   80.23
   6  -1   1  191.46   59.85
  -6   1   1  273.86   68.98
   6  -2  -1 2892.10  938.04
   6  -2  -1 3808.46  869.94
  -6   2  -1 3661.84  866.91
   6  -2   1 3575.79  854.59
  -6   2   1 3642.13  902.71
  -6   3  -1   50.27   42.14
   6  -3   1   -7.06   47.48
   6  -3   1   35.44   27.68
   7   5  -1  180.71   70.04
   7   4  -1  936.63  188.56
  -7  -4  -1  428.45  205.92
   7   4  -1  917.31  207.30
   7   4   1  766.37  201.81
   7   4   1  707.31  188.35
  -7  -4   1  844.60  205.13
  -7  -3  -1    3.92   37.46
   7   3  -1   63.76   27.95
   7   3  -1   -1.17   24.91
   7   3  -1   -2.20   52.20
   7   3   1  -18.34   30.40
  -7  -3   1   10.85   38.19
   7   3   1   37.98   50.49
  -7  -3   1   19.98   16.59
  -7  -2  -1  966.53  220.50
   7   2  -1  838.92  217.71
   7   2  -1  928.35  219.13
   7   2  -1  827.65  242.34
   7   2  -1  869.39  201.52
  -7  -2   1  938.96  219.78
   7   2   1  850.50  201.95
   7   2   1  841.67  241.65
  -7  -2   1  966.97  213.61
   7   2   1  844.07  224.25
  -7  -1  -1  167.84   40.12
  -7  -1  -1  124.80   56.04
  -7  -1  -1  130.25   48.89
   7   1  -1  162.24   39.97
   7   1  -1  109.72   69.04
   7   1  -1  143.44   46.82
   7   1  -1  123.11   42.86
  -7  -1   1  200.97   55.07
   7   1   1  178.46   41.91
  -7  -1   1  174.01   58.47
   7   1   1  101.10   43.06
   7   1   1  215.08   70.65
   7   1   1  187.74   43.94
  -7  -1   1  126.01   41.11
   7   0  -1   37.96   13.74
   7   0  -1   60.64   54.45
  -7   0  -1   50.47   34.82
  -7   0  -1   45.22   14.01
  -7   0  -1   35.09   45.43
   7   0  -1   43.10   26.67
   7   0  -1   40.38   31.29
  -7   0   1   -8.64   50.39
   7   0   1   40.75   24.45
   7   0   1   35.78   13.03
  -7   0   1   72.65   35.28
   7   0   1   40.43   28.35
  -7   0   1   72.68   42.90
   7   0   1   44.12   54.66
   7  -1  -1  186.39   66.80
   7  -1  -1  165.61   43.37
   7  -1  -1  233.18   49.99
  -7   1   1  208.45   57.73
   7  -1   1  151.61   47.99
   7  -1   1  154.16   40.29
   7  -2  -1  915.82  228.99
   7  -2  -1  790.22  210.13
   7  -2   1  570.37  218.50
  -7   2   1  910.85  219.03
   7  -2   1 1051.52  207.83
  -7   3  -1    6.12   43.73
   7  -3  -1   39.56   33.77
   7  -3   1   31.52   55.30
   7  -3   1    6.97   32.06
  -7   4  -1  624.73  189.19
   7  -4   1  628.41  168.96
   8   5  -1  960.09  261.45
   8   5  -1 1039.19  270.58
   8   4  -1  234.66   79.50
   8   4  -1  151.25   56.52
  -8  -4  -1  189.82   69.38
   8   4   1  206.68   58.54
   8   4   1  303.55   76.24
  -8  -4   1  231.40   66.90
   8   3  -1  949.95  274.43
   8   3  -1 1380.15  331.52
  -8  -3  -1 1321.64  303.56
   8   3  -1 1095.66  303.18
   8   3   1 1183.94  312.74
   8   3   1 1107.06  275.91
   8   3   1 1143.88  324.48
  -8  -3   1  968.62  299.62
  -8  -2  -1  115.64   57.62
   8   2  -1  103.80   45.96
   8   2  -1  165.39   47.32
   8   2  -1  156.71   41.56
  -8  -2   1  158.65   59.51
  -8  -2   1  209.07   40.63
  -8  -2   1  111.09   52.32
   8   2   1  130.06   81.03
   8   2   1  118.81   43.25
   8   2   1  106.32   45.95
   8   1  -1  100.19   67.28
   8   1  -1   13.06   29.63
  -8  -1  -1  -14.81   47.00
   8   1  -1   33.31   13.07
  -8  -1  -1   20.44   12.78
   8   1  -1    8.43   31.08
  -8  -1  -1   15.48   28.44
   8   1   1    9.95   23.10
  -8  -1   1   22.49   15.07
  -8  -1   1   32.75   52.72
   8   1   1   15.33   28.21
  -8  -1   1   20.99   37.19
   8   1   1   11.37   12.89
   8   1   1   38.34   67.40
  -8   0  -1    2.40   52.29
  -8   0  -1    2.47   10.62
   8   0  -1  -10.16   29.15
  -8   0  -1   19.95   38.38
   8   0  -1    2.63   60.79
   8   0  -1   -8.51   11.82
  -8   0  -1    7.35   41.27
   8   0  -1  -24.45   34.06
   8   0   1   11.82   27.49
   8   0   1   -4.72    9.46
   8   0   1   -5.45   65.92
   8   0   1  -24.62   26.12
  -8   0   1  -19.61   51.05
  -8   0   1    2.38   41.44
  -8   0   1  -32.78   56.62
   8  -1  -1   62.01   32.61
   8  -1  -1   49.47   58.76
   8  -1  -1   18.22   14.47
   8  -1   1   38.74   31.77
   8  -1   1    8.12    9.22
  -8   1   1   10.58   45.84
   8  -1   1  -40.56   65.05
   8  -2  -1  184.76   46.40
   8  -2  -1  127.74   76.57
   8  -2  -1   83.67   53.09
   8  -2   1  160.68   43.66
   8  -2   1  218.18   52.65
  -8   2   1  177.67   63.22
  -8   3  -1 1531.28  316.00
   8  -3  -1 1218.01  308.11
   8  -3  -1 1417.85  332.64
  -8   3   1 1236.62  325.07
   8  -3   1 1223.93  304.45
   8  -3   1 1146.92  327.06
  -8   4  -1  246.03   70.68
   8  -4   1  190.14   81.13
   8  -4   1  106.52   54.45
   9   5  -1  274.54   72.85
  -9  -5  -1  147.42   81.96
   9   5  -1  251.57   91.05
   9   5  -1  197.73   69.83
   9   5   1  210.12   87.94
  -9  -5   1  231.89   83.18
   9   4  -1 1857.50  494.16
  -9  -4  -1 2339.42  548.29
   9   4  -1 1724.00  542.51
   9   4  -1 2613.00  574.09
   9   4   1 2321.78  497.52
  -9  -4   1 2261.53  539.14
   9   4   1 1520.40  557.30
   9   3  -1    4.88   37.83
  -9  -3  -1   -9.61   50.54
   9   3  -1   30.16   76.27
   9   3   1    9.04   27.68
   9   3   1   30.45   71.60
  -9  -3   1  -13.62   49.01
   9   3   1  -18.40   36.83
   9   2  -1  628.94  180.61
   9   2  -1  743.32  161.99
   9   2  -1  995.96  208.34
   9   2  -1  742.13  180.42
  -9  -2  -1  635.08  180.91
  -9  -2   1  593.93  200.57
   9   2   1  653.53  161.18
   9   2   1  679.25  179.10
   9   2   1  770.98  207.54
  -9  -2   1  627.44  181.64
  -9  -1  -1  -17.65   13.34
  -9  -1  -1   -2.45   53.46
   9   1  -1   -0.90   14.31
  -9  -1  -1   17.30   37.67
   9   1  -1  167.79   78.47
   9   1  -1   17.26   32.03
   9   1  -1   18.48   33.83
  -9  -1   1   14.98   58.36
   9   1   1  -11.20   26.97
   9   1   1  -25.52   78.44
   9   1   1  -22.00   34.50
   9   1   1  -11.81   14.47
  -9  -1   1  -21.25   47.74
  -9  -1   1   -5.31   16.02
   9   0  -1   -2.33   35.48
  -9   0  -1   22.86   52.39
   9   0  -1  -72.71   76.21
   9   0  -1   36.60   37.00
   9   0  -1    9.29   12.57
  -9   0  -1    2.74   12.11
  -9   0  -1   -1.44   47.37
  -9   0  -1  -24.99   63.05
   9   0   1  -65.83   77.10
  -9   0   1   11.58   68.59
  -9   0   1   25.10   56.63
   9   0   1   54.61   33.99
  -9   0   1    2.77   50.68
  -9   1  -1   -3.14   73.75
   9  -1  -1   14.80   71.16
  -9   1  -1   11.88   49.45
   9  -1  -1    1.56   13.80
   9  -1  -1  -12.65   36.95
  -9   1   1   27.31   52.13
   9  -1   1   15.41   75.15
   9  -1   1  -19.87   35.08
   9  -2  -1  836.87  184.34
   9  -2  -1  615.23  189.07
   9  -2  -1  816.55  201.46
  -9   2   1  789.83  190.90
   9  -2   1  837.98  181.91
   9  -3  -1   26.79   44.47
   9  -3  -1   36.03   69.40
   9  -3   1   -2.85   40.82
  -9   3   1   27.63   63.82
   9  -4  -1 1956.72  506.28
  -9   4  -1 1990.29  532.71
   9  -4   1 2165.36  540.50
   9  -4   1 2112.84  501.84
  10   6  -1  247.96   84.40
  10   6  -1  298.23  108.70
 -10  -5  -1  263.46  109.40
  10   5  -1  405.49  123.29
  10   5  -1  165.46   94.08
  10   5  -1  313.43   94.90
  10   5   1  514.18  118.04
  10   5   1  411.46   95.84
 -10  -5   1  332.84  110.92
 -10  -4  -1   38.85   60.47
  10   4  -1    3.43   92.33
  10   4  -1   60.46   41.12
  10   4  -1   88.30   48.49
  10   4   1   95.18   87.75
  10   4   1   77.10   50.00
 -10  -4   1  142.28   63.03
  10   3  -1 1392.56  291.28
 -10  -3  -1  916.53  325.85
  10   3  -1 1416.90  374.55
  10   3   1 1264.36  366.81
  10   3   1  929.81  292.29
 -10  -3   1 1334.70  325.19
  10   2  -1   22.65   40.45
  10   2  -1   14.14   91.25
 -10  -2  -1  -13.10   59.29
 -10  -2   1   -2.61   60.32
  10   2   1  -54.10   90.57
  10   2   1    5.15   36.28
 -10  -2   1   20.28   47.22
 -10  -1  -1   28.14   67.38
  10   1  -1   52.48   90.74
  10   1  -1   24.71   40.24
  10   1   1   20.06   36.41
 -10  -1   1   57.05   61.22
  10   1   1    3.65   94.80
 -10  -1   1   17.25   66.61
  10   0  -1    2.66   40.51
 -10   0  -1    3.28   57.07
 -10   0  -1  -44.01   72.71
  10   0  -1    3.44   85.64
  10   0   1    7.18   92.95
 -10   0   1  -23.20   78.78
  10   0   1   10.36   39.54
 -10   0   1   16.32   59.77
 -10   1  -1   35.51   84.59
  10  -1  -1    5.75   47.96
  10  -1  -1   60.07   77.71
 -10   1  -1   65.93   64.01
 -10   1   1   24.26   59.98
  10  -1   1   11.37   44.48
  10  -1   1 -132.38   82.81
  10  -2  -1  -70.94   78.21
  10  -2  -1  -18.49   48.87
 -10   2   1   23.08   65.46
  10  -2   1  -50.81   44.88
  10  -3  -1 1481.68  357.80
  10  -3  -1 1409.10  333.68
  10  -3   1 1332.78  333.61
 -10   3   1 1250.88  350.25
 -10   4  -1   73.81   72.05
  10  -4  -1   88.11   54.72
  10  -4   1   66.02   55.86
  10  -4   1    3.79   87.93
  11   6  -1   68.40  103.10
  11   6   1  171.47   97.63
  11   5  -1  -46.27  100.66
 -11  -5  -1  -30.44   71.46
  11   5  -1   15.69   52.68
 -11  -5   1   24.42   71.02
  11   5   1   22.85   91.64
  11   5   1   48.94   57.75
  11   4  -1  453.48  175.07
  11   4  -1  608.96  230.16
 -11  -4  -1  561.32  198.43
 -11  -4   1  646.11  196.04
  11   4   1  753.92  175.18
  11   4   1 1283.97  225.89
 -11  -3  -1   -2.95   63.55
  11   3  -1    8.94   45.97
  11   3  -1  -12.00  105.25
  11   3   1    4.00   99.11
  11   3   1    6.35   48.27
 -11  -3   1   28.58   62.48
  11   2  -1  109.01  105.46
  11   2  -1   68.02   46.72
 -11  -2  -1   32.64   69.48
  11   2   1   14.40   45.92
 -11  -2   1   14.86   68.22
  11   2   1  111.58  109.63
  11   1  -1  139.31  107.44
  11   1  -1   48.38   48.14
 -11  -1  -1   44.96   77.24
  11   1   1   33.02  110.49
 -11  -1   1  178.09   71.65
 -11  -1   1   19.72   79.76
  11   1   1   72.45   48.59
  11   0  -1   69.02   52.09
 -11   0  -1   85.86   87.35
  11   0  -1   50.25   99.38
 -11   0  -1   95.30   73.30
 -11   0   1  134.79   75.29
  11   0   1  105.26   49.47
  11   0   1   -4.08  110.00
 -11   0   1   70.68   88.97
 -11   1  -1   31.72   75.62
  11  -1  -1   97.88   55.47
 -11   1  -1   15.90   96.93
  11  -1  -1   59.87   94.17
 -11   1   1   53.80  104.13
  11  -1   1  105.19  102.69
  11  -1   1  152.61   56.55
 -11   1   1   95.89   72.79
  11  -2  -1   11.25   91.10
  11  -2  -1   -3.44   58.45
  11  -2   1   30.21   51.97
  11  -2   1    3.84   91.18
 -11   2   1   43.06   74.93
  11  -3  -1    3.93   85.58
  11  -3  -1  -36.16   53.22
 -11   3   1    4.71   75.93
  11  -3   1  -55.80   51.26
 -11   4  -1  640.53  208.41
  11  -4  -1  775.21  217.03
  11  -4  -1  846.19  193.15
 -11   4   1  675.37  211.40
  11  -4   1  809.26  190.87
 -11   5  -1  121.26   86.82
  11  -5   1   30.55   60.05
  12   6  -1  -47.65  109.78
 -12  -6   1   90.11   84.86
  12   6   1    4.27  107.04
  12   5  -1  353.65  137.94
  12   5  -1  210.21   89.52
 -12  -5  -1  331.73  112.18
  12   5   1  217.04   88.32
  12   5   1  315.12  132.44
 -12  -5   1  233.81  104.98
 -12  -4  -1   -3.55   75.17
  12   4  -1   18.12   55.83
  12   4  -1  -35.49  119.74
  12   4   1   -3.82   56.62
 -12  -4   1   56.32   75.24
  12   4   1   92.59  119.72
  12   3  -1  138.64   72.43
  12   3  -1  550.69  140.62
 -12  -3  -1  184.10   94.35
 -12  -3   1  108.98   97.22
  12   3   1  139.70   75.37
  12   3   1  361.42  141.11
  12   2  -1    3.18   52.83
  12   2  -1  -49.92  131.34
 -12  -2  -1   97.15   81.41
  12   2   1  126.52  123.92
  12   2   1   22.52   57.38
 -12  -2   1   37.06   81.09
 -12  -1  -1  -21.61   88.64
  12   1  -1   -9.62   51.28
 -12  -1  -1   54.37   93.95
  12   1  -1    8.93  120.01
 -12  -1   1  100.61   84.81
 -12  -1   1  -18.42   93.07
  12   1   1   98.17   56.14
  12   1   1  190.63  138.84
  12   0  -1  478.36  127.80
  12   0  -1   33.72   68.17
 -12   0  -1   63.59  118.49
 -12   0  -1  147.46  100.69
 -12   0   1  182.15   96.26
 -12   0   1  138.18  116.87
  12   0   1   73.32   68.99
  12  -1  -1  142.24  104.88
  12  -1  -1   62.49   59.01
 -12   1  -1  -44.56  112.65
 -12   1  -1   63.99   89.87
  12  -1   1   35.46   59.79
 -12   1   1   40.72   83.12
  12  -1   1   26.10  119.09
 -12   1   1  119.70  119.90
  12  -2  -1   45.96   60.50
 -12   2  -1   43.11   88.40
  12  -2  -1 -116.28  109.05
 -12   2  -1  104.26  115.13
 -12   2   1   57.84   86.64
  12  -2   1  101.88   62.31
  12  -3  -1  249.80  127.01
  12  -3  -1  393.84   97.68
  12  -3   1  317.33   97.52
 -12   3   1  312.18  115.97
  12  -4  -1   27.32  106.85
  12  -4  -1  147.28   66.32
  12  -4   1    3.99   63.23
 -12   4   1   84.89   91.90
 -12   5  -1   -5.98  105.80
  12  -5   1  491.93   92.49
  13   7  -1   -4.85  132.11
  13   6   1   -4.82  124.21
  13   5  -1  167.17   70.40
 -13  -5   1  -61.30   90.11
 -13  -4  -1  197.64  105.21
  13   4  -1  110.70   79.44
 -13  -4   1  304.10  107.16
  13   4   1   -4.15   83.12
  13   3  -1   91.48   61.01
 -13  -3  -1   73.42   87.73
  13   3  -1  251.57  142.85
  13   3   1   26.99   59.94
 -13  -3   1  -53.92   88.98
 -13  -2  -1   -7.55   90.42
  13   2  -1  -24.89   59.96
  13   2  -1  -76.26  142.48
 -13  -2   1  141.52   94.67
  13   2   1    3.59   54.50
 -13  -2   1   -3.81   87.79
 -13  -1  -1  239.40  101.55
  13   1  -1  145.21  146.96
 -13  -1  -1   81.84  107.16
  13   1  -1  133.88   69.26
  13   1   1   51.55   67.67
 -13  -1   1  112.44  108.69
 -13  -1   1   23.70  100.42
  13   0  -1   30.09   64.34
 -13   0  -1    4.46  119.70
 -13   0  -1  336.10   98.12
  13   0  -1   28.62  122.23
  13   0   1    7.49   61.25
 -13   0   1   29.47   95.71
 -13   0   1  -27.85  116.87
  13  -1  -1  125.83   77.81
  13  -1  -1  386.61  125.77
 -13   1  -1  206.32  131.96
 -13   1  -1   -5.17   92.07
  13  -1   1  110.78   77.22
 -13   1   1  -10.18  131.71
  13  -1   1   -4.85  110.24
 -13   1   1  495.50  103.15
  13  -2  -1  -51.40   67.68
 -13   2  -1 -198.51  133.24
  13  -2   1   42.17   70.33
 -13   2   1   37.45  133.12
 -13   5  -1  110.59  105.08
  13  -5   1   -4.52   62.19
  14   7  -1  182.85  149.66
 -14  -6  -1  -46.77  108.74
  14   6  -1   27.10  149.03
  14   6  -1   -5.20   78.27
  14   6   1   74.93  139.06
 -14  -6   1  -89.44  104.01
 -14  -5  -1  -84.18  111.18
  14   5  -1  234.22  157.58
  14   5  -1   47.30   77.43
  14   5   1  -14.91   78.88
 -14  -5   1  338.48  105.60
  14   5   1  564.80  160.49
  14   4  -1 -342.69  161.72
 -14  -4  -1 -134.22   95.62
  14   4   1   -5.65  146.56
  14   4   1   -4.53   71.20
 -14  -3  -1  459.74   96.81
  14   3  -1  -97.09  159.28
  14   3   1  -23.26  160.47
  14   3   1   93.81   70.07
  14   2  -1   -5.67  147.89
 -14  -2  -1  -49.59  111.02
  14   2   1  -70.06  152.81
 -14  -2   1   -5.31  105.74
  14   2   1   -4.09   55.22
 -14  -1  -1 -205.95  120.27
  14   1   1   46.20  162.21
  14   0  -1   36.97  141.61
 -14   0  -1  -69.16  114.86
  14   0   1  -61.69  150.12
 -14   0   1  123.73  108.27
 -14   1  -1  151.87  125.71
  14  -1  -1  283.83  151.18
 -14   1  -1  732.28  142.10
 -14   1   1   52.53  122.12
  14  -1   1   69.92  155.30
  14  -1   1  346.09   92.40
  14  -2  -1   55.92  130.29
  14  -2  -1  175.86   80.25
 -14   2  -1  286.40  150.43
 -14   2  -1   36.42  115.31
  14  -2   1  -55.51   71.51
 -14   2   1  617.28  144.10
  14  -2   1   -5.24  127.79
 -14   2   1 -253.61  110.82
  14  -3  -1   31.08  129.27
  14  -3  -1   53.24   79.58
 -14   3  -1   76.22  115.70
 -14   3  -1  164.45  149.79
  14  -3   1  124.07   82.30
 -14   3   1   63.84  113.56
  14  -3   1   -5.26  131.38
  14  -4  -1    9.84   75.91
  14  -4  -1 -139.55  135.91
 -14   4   1 -162.91  111.37
  14  -4   1    4.82   80.88
 -14   5  -1  185.03  121.38
  14  -5   1  196.94   94.19
  15   7  -1 -222.21  163.09
  15   6  -1  104.43  163.12
  15   6  -1  -27.65   81.97
 -15  -6  -1   78.64  113.65
  15   6   1    6.04  160.01
 -15  -6   1   16.12  116.05
  15   5  -1    5.11   77.45
  15   5  -1  131.51  168.63
 -15  -5  -1   86.88  105.40
  15   5   1  -80.52   78.89
 -15  -5   1   83.15  107.88
  15   5   1    6.19  161.81
 -15  -4  -1  181.60  104.82
  15   4  -1   -4.75   76.63
  15   4  -1  159.16  174.18
  15   4   1  285.48  177.20
 -15  -4   1   85.84  106.52
  15   4   1    9.93   79.35
 -15  -3  -1 -101.94  111.57
  15   3  -1   19.00  174.53
  15   3  -1  -27.10   73.03
  15   3   1  122.63  177.07
  15   3   1    4.72   72.15
 -15  -3   1  -67.89  107.32
 -15  -3   1   77.49  124.00
 -15  -2  -1   57.09  113.78
  15   2  -1   22.37   75.05
 -15  -2  -1  135.46  123.14
  15   2  -1 -138.60  170.19
 -15  -2   1   60.34  118.95
  15   2   1    6.49  173.01
 -15  -2   1  -62.08  118.24
  15   2   1   18.23   72.88
  15   1  -1  -46.36   75.99
  15   1  -1   48.70  164.27
 -15  -1  -1  155.98  130.04
 -15  -1  -1 -132.58  128.70
 -15  -1   1 -137.46  127.73
  15   1   1    6.42  175.15
  15   1   1  -13.97   80.48
 -15  -1   1  224.83  130.78
  15   0  -1  269.14  164.31
 -15   0  -1  -97.22  128.29
 -15   0  -1   66.10  135.15
  15   0  -1   18.92   76.71
 -15   0   1   45.43  140.81
 -15   0   1  -57.00  121.43
  15   0   1    4.73   75.27
  15   0   1   -6.15  166.45
  15  -1  -1  348.11  150.02
 -15   1  -1 -244.43  161.90
 -15   1  -1 -167.04  128.60
  15  -1  -1    4.96   83.99
  15  -1   1    5.97  152.52
 -15   1   1  -26.23  123.68
 -15   1   1 -233.90  157.22
  15  -1   1    4.89   81.77
  15  -2  -1   -5.63  140.96
  15  -2  -1    5.21   88.33
 -15   2  -1   41.55  130.52
 -15   2  -1  243.39  159.02
 -15   2   1   61.43  124.88
 -15   2   1  -32.11  161.26
  15  -2   1 -101.56   87.62
  15  -2   1    5.80  142.39
 -15   3  -1  102.59  157.77
  15  -3  -1 -432.94  142.70
  15  -3  -1    5.37   81.24
 -15   3  -1   28.40  128.12
 -15   3   1  196.23  164.89
  15  -3   1   15.88   86.23
 -15   3   1   63.87  124.30
  15  -3   1  110.42  149.59
  15  -4  -1   23.44  134.25
  15  -4  -1  167.61   89.31
 -15   4   1    7.48  123.76
  15  -4   1    5.31   90.01
  15  -5   1    5.39   85.89
  16   7  -1 -243.96  193.88
  16   6  -1    6.89  181.20
 -16  -6  -1 -140.47  129.45
  16   6  -1    5.93   87.78
  16   6   1  -30.66   99.42
 -16  -6   1   69.60  128.03
  16   6   1 -176.88  188.25
  16   5  -1 -189.17   87.38
  16   5  -1 -698.66  201.02
 -16  -5  -1  -11.25  122.83
 -16  -5   1  -64.74  127.17
  16   5   1   22.97   87.65
  16   5   1 -104.05  191.66
 -16  -4  -1   98.39  116.68
  16   4  -1    5.24   75.95
  16   4  -1    6.99  179.05
  16   4   1  113.08  192.04
 -16  -4   1    5.04  115.50
 -16  -4   1   19.99  140.05
  16   4   1  -38.18   82.43
  16   3  -1   63.07  191.58
 -16  -3  -1  190.37  141.22
 -16  -3  -1  166.18  123.73
  16   3  -1  165.74   87.14
  16   3   1    5.24   83.97
 -16  -3   1   86.44  140.40
  16   3   1  270.96  203.40
 -16  -3   1   66.03  122.27
 -16  -2  -1  224.29  131.63
  16   2  -1 -110.82  193.69
 -16  -2  -1  -90.41  140.28
  16   2  -1    4.97   81.69
 -16  -2   1 -160.77  130.35
 -16  -2   1  -55.07  138.48
  16   2   1  121.13  193.65
  16   2   1   15.20   80.11
  16   1  -1  292.10  182.87
 -16  -1  -1  -28.53  145.65
  16   1  -1    5.24   83.84
 -16  -1  -1  171.23  132.46
  16   1   1  -84.31  197.02
  16   1   1    5.17   78.85
 -16  -1   1  -52.58  147.54
 -16  -1   1 -133.03  137.74
 -16   0  -1 -323.28  148.19
 -16   0  -1   36.87  143.37
  16   0  -1   37.20   93.58
  16   0  -1 -329.12  169.29
 -16   0   1    7.22  139.87
  16   0   1 -162.00  183.27
 -16   0   1  -18.68  162.90
  16   0   1    5.37   90.81
 -16   1  -1  285.22  151.68
  16  -1  -1   43.56   99.22
 -16   1  -1 -129.47  169.55
  16  -1  -1  345.71  158.83
 -16   1   1  103.01  142.63
  16  -1   1   59.35  172.23
 -16   1   1 -160.99  173.11
  16  -1   1  151.75   89.88
  16  -2  -1    5.70   95.71
 -16   2  -1  423.64  174.33
 -16   2  -1 -334.48  153.81
  16  -2  -1 -200.07  160.68
 -16   2   1  -45.81  136.60
  16  -2   1    5.58   95.31
 -16   2   1  299.82  182.17
  16  -2   1  211.71  166.52
  16  -3  -1   50.16  157.53
 -16   3  -1   48.33  146.98
 -16   3  -1 -195.34  183.86
  16  -3  -1   53.30   97.06
  16  -3   1  -11.53   93.57
 -16   3   1 -206.84  184.68
  16  -3   1    6.43  153.52
 -16   3   1    8.00  139.17
  16  -4  -1 -202.48   96.61
  16  -4  -1    6.42  145.10
 -16   4  -1   35.00  184.38
  16  -4   1    5.88   97.27
  16  -4   1  -12.94  156.03
 -16   4   1  115.65  137.25
  16  -5   1  183.28  103.41
  17   7  -1  128.91  199.74
  17   7   1 -120.02  203.13
  17   6  -1   32.00  100.58
  17   6  -1   23.02  210.12
 -17  -6  -1   86.85  141.36
  17   6   1  121.69  214.00
 -17  -6   1  190.55  143.90
  17   5  -1  146.41  212.20
 -17  -5  -1  -24.93  132.20
  17   5  -1   -6.10   90.55
  17   5   1   44.60  101.14
  17   5   1   23.21  209.17
 -17  -5   1   41.89  135.45
 -17  -4  -1   59.35  135.11
  17   4  -1   -7.71  206.02
  17   4  -1  -23.11   89.03
 -17  -4   1  273.26  151.52
  17   4   1    6.02   90.94
 -17  -4   1  214.16  129.61
  17   4   1    7.78  215.92
  17   3  -1   -5.77   86.38
  17   3  -1   38.65  207.25
 -17  -3  -1   17.47  137.57
 -17  -3  -1 -181.29  158.34
  17   3   1   11.62   92.88
 -17  -3   1  165.38  131.83
  17   3   1  157.36  217.93
 -17  -3   1   97.48  158.29
  17   2  -1 -777.61  229.39
 -17  -2  -1 -154.66  159.19
 -17  -2  -1  -65.87  143.78
  17   2  -1   67.92   98.81
  17   2   1    5.79   94.77
 -17  -2   1  207.76  165.35
 -17  -2   1  -77.84  151.58
  17   1  -1   -5.81   99.49
  17   1  -1  663.59  214.38
 -17  -1  -1   89.19  167.10
 -17  -1  -1  258.85  158.45
 -17  -1   1  -57.89  159.91
  17   1   1 -423.88  102.12
 -17  -1   1   79.42  156.78
  17   1   1 -160.36  224.87
 -17   0  -1    8.25  177.67
  17   0  -1  605.83  210.33
 -17   0  -1  514.64  187.01
  17   0  -1   12.03  120.39
 -17   0   1  179.47  186.85
  17   0   1   23.93  114.18
 -17   0   1   48.60  172.81
 -17   1  -1 -204.88  161.19
  17  -1  -1   -6.93  185.54
 -17   1  -1  -84.56  178.43
  17  -1  -1  -24.30  104.51
  17  -1   1  472.43  188.96
 -17   1   1   83.79  165.27
 -17   1   1   58.08  184.69
  17  -1   1   48.50  103.22
 -17   2  -1 -170.33  191.52
  17  -2  -1 -168.93  111.09
 -17   2  -1  -95.92  159.97
  17  -2  -1 -457.17  187.56
 -17   2   1  228.84  196.61
  17  -2   1 -745.15  194.44
  17  -2   1   -6.11  107.14
 -17   2   1   42.70  162.13
  17  -3  -1   27.68  176.79
 -17   3  -1   52.82  189.55
 -17   3  -1 -225.56  161.07
  17  -3  -1   19.34  104.43
  17  -3   1   37.77  101.27
 -17   3   1  -26.75  157.32
 -17   3   1  224.71  198.39
  17  -3   1    7.11  169.89
  17  -4  -1 -131.62  102.75
 -17   4  -1 -120.75  165.04
  17  -4  -1  -77.60  170.77
 -17   4  -1  114.67  194.19
  17  -4   1   64.20  103.81
 -17   4   1 -302.07  151.95
  17  -4   1  199.87  174.79
 -17   4   1  147.52  214.56
 -17   5  -1   83.88  191.86
  17  -5   1   32.67  111.15
  18   7  -1  -75.75  246.70
  18   7   1 -737.55  249.27
  18   6  -1  465.60  280.91
  18   6  -1   62.62  148.97
 -18  -6  -1  764.24  214.62
  18   6   1  830.53  275.39
  18   6   1  237.20  156.64
 -18  -6   1  698.77  208.89
  18   5  -1  -40.23  101.52
 -18  -5  -1   83.21  151.52
  18   5  -1 -194.81  227.11
 -18  -5   1   40.51  178.91
  18   5   1  179.01  238.71
 -18  -5   1  -86.59  148.99
  18   5   1    7.00  101.83
  18   4  -1  254.36  233.51
  18   4  -1 -242.78   98.98
 -18  -4  -1  -74.67  178.10
 -18  -4  -1   -6.66  149.99
  18   4   1  -34.29  232.20
 -18  -4   1  145.20  141.91
 -18  -4   1   97.88  167.01
  18   4   1   -6.65   95.86
  18   3  -1  160.32  226.35
 -18  -3  -1  -34.01  173.56
 -18  -3  -1   71.89  149.08
  18   3  -1   38.50   99.99
  18   3   1    8.66  241.41
  18   3   1  -19.39  106.19
 -18  -3   1 -263.92  175.76
 -18  -3   1  180.70  148.76
  18   2  -1 -345.48  102.28
 -18  -2  -1 -154.50  161.37
  18   2  -1   24.55  223.88
 -18  -2  -1  184.71  179.71
 -18  -2   1  235.44  182.63
  18   2   1   -6.47  103.41
  18   2   1   51.33  228.27
 -18  -2   1   26.82  158.92
  18   1  -1   31.96  213.47
 -18  -1  -1   70.40  175.64
  18   1  -1    6.52  102.40
 -18  -1  -1  -90.23  182.15
  18   1   1 -199.40  220.07
  18   1   1  -25.76  103.01
 -18  -1   1  115.60  177.10
 -18  -1   1  193.46  174.20
  18   0  -1    7.83  199.18
 -18   0  -1   46.88  185.86
  18   0  -1   60.23  112.14
 -18   0  -1   22.22  179.84
 -18   0   1   -9.19  178.51
 -18   0   1   91.21  185.34
  18   0   1 -130.80  225.50
  18   0   1   87.34  106.53
  18  -1  -1   -7.65  191.32
 -18   1  -1  225.18  197.50
  18  -1  -1   33.98  111.11
 -18   1  -1 -229.51  177.94
  18  -1   1  334.65  204.74
  18  -1   1    6.71  113.47
 -18   1   1  311.08  202.30
 -18   1   1 -243.99  173.97
 -18   2  -1   29.65  176.67
  18  -2  -1  229.51  193.22
 -18   2  -1  119.58  202.29
  18  -2  -1    6.83  111.95
  18  -2   1 -133.70  193.09
 -18   2   1    9.69  175.18
 -18   2   1  -57.67  210.03
  18  -2   1   67.94  111.80
 -18   3  -1  115.18  210.18
  18  -3  -1   84.40  113.22
  18  -3  -1    7.66  185.79
 -18   3  -1   30.32  183.61
  18  -3   1    6.88  112.47
  18  -3   1  165.09  192.98
 -18   3   1 -248.87  179.94
 -18   3   1  -58.60  210.04
 -18   4  -1 -207.22  207.24
  18  -4  -1   -7.19  115.54
  18  -4  -1  171.15  189.61
 -18   4  -1 -302.29  185.27
 -18   4   1  177.86  216.46
 -18   4   1   71.21  171.03
  18  -4   1    7.04  120.93
  18  -4   1  394.60  199.93
 -18   5  -1  140.94  207.10
  18  -5   1 -266.06  116.76
  19   7  -1 -120.69  254.97
 -19  -6  -1 -179.04  174.88
  19   6  -1   64.98  252.18
  19   6  -1   -7.61  116.91
 -19  -6   1  169.37  189.21
  19   6   1  308.42  262.04
 -19  -6   1   93.80  168.96
  19   5  -1   44.51  114.60
 -19  -5  -1  -15.90  175.55
 -19  -5  -1 -162.66  192.90
  19   5  -1 -418.76  251.10
 -19  -5   1  134.19  169.80
  19   5   1 -239.40  112.93
 -19  -5   1  161.52  195.82
  19   5   1 -281.23  251.99
  19   4  -1  586.19  262.07
  19   4  -1   58.18  110.70
 -19  -4  -1  -59.92  176.60
 -19  -4  -1   -9.16  190.55
  19   4   1    9.42  257.63
 -19  -4   1  -56.70  161.59
  19   4   1   14.72  108.32
 -19  -4   1 -210.99  193.35
 -19  -3  -1    7.42  180.34
 -19  -3  -1  134.80  203.98
  19   3  -1 -164.34  251.05
  19   3  -1  -99.87  120.78
  19   3   1  -14.80  114.16
  19   3   1   -9.45  256.30
 -19  -3   1  104.14  196.55
 -19  -3   1 -101.48  176.56
 -19  -2   1 -895.78  253.30
 -19  -1  -1 1689.49  397.86
 -19  -1  -1 1796.37  398.02
 -19  -1   1 1450.89  403.25
 -19  -1   1 1713.48  399.04
 -19   0  -1 1575.13  619.58
 -19   0  -1 1394.12  597.59
  19   0  -1 1321.56  493.64
  19   0   1  465.87  483.90
 -19   0   1 1831.27  628.72
 -19   0   1 1696.03  594.42
 -19   1  -1  739.47  300.51
  19  -1  -1    7.50  207.77
 -19   1  -1 1152.54  289.86
 -19   1   1  891.90  289.00
  19  -1   1  -53.02  212.70
 -19   1   1  441.12  299.26
 -19   2  -1 -265.63  233.17
 -19   2  -1 -183.38  247.02
 -19   2   1 -212.56  255.46
 -19   2   1 -293.26  209.94
  19  -2   1 -545.09  152.43
  19  -3  -1    7.69  125.70
 -19   3  -1 -172.21  211.99
  19  -3  -1    8.47  207.56
 -19   3  -1  -88.75  222.07
  19  -3   1   82.62  132.14
 -19   3   1   11.13  200.32
 -19   3   1   54.70  232.66
  19  -3   1 -816.95  221.99
 -19   4  -1  312.80  231.36
 -19   4  -1   23.32  192.35
  19  -4  -1    7.84  124.14
 -19   4   1 -229.74  239.33
 -19   4   1   79.69  189.91
  19  -4   1    7.68  133.59
  19  -4   1 -673.47  221.89
 -19   5  -1  107.98  232.83
  19  -5   1   23.46  128.77
  20   6  -1  -16.74  119.51
  20   6  -1  -71.32  241.70
 -20  -6   1 -278.16  188.04
  20   5  -1  112.17  273.80
  20   5  -1   -8.21  123.51
 -20  -5  -1  -44.65  197.28
  20   5   1   -8.56  123.26
 -20  -5   1 -518.70  192.10
 -20  -5   1  301.68  210.34
  20   4  -1  -32.30  121.10
 -20  -4  -1 -126.74  185.24
  20   4  -1   10.08  269.82
 -20  -4   1 -122.80  182.91
  20   4   1   41.40  279.45
  20   4   1    8.42  128.51
 -20  -4   1 -332.76  210.43
  20   3  -1 -177.52  271.26
 -20  -3  -1 -320.76  211.23
  20   3  -1    8.17  132.82
 -20  -3  -1  300.49  191.31
  20   3   1    8.24  121.64
  20   3   1 -735.83  272.11
 -20  -3   1 -181.68  217.50
 -20  -3   1  -24.42  191.11
  20   2  -1  398.55  263.95
  20   2  -1    8.01  128.79
 -20  -2  -1  228.12  203.06
 -20  -2  -1 -403.15  225.27
  20   2   1 -521.22  281.43
 -20  -2   1 -296.06  226.79
 -20  -2   1    8.40  205.30
  20   2   1   -8.32  131.28
  20   1  -1  297.17  250.53
  20   1  -1    8.15  130.67
 -20  -1  -1  121.92  212.18
 -20  -1  -1  161.57  222.18
 -20  -1   1 -227.96  227.70
 -20  -1   1   52.60  216.99
  20   1   1  -40.49  125.60
  20   1   1  149.13  263.88
 -20   0  -1 -296.24  216.16
  20   0  -1   84.66  241.82
 -20   0  -1   11.85  233.45
  20   0  -1  -74.33  132.08
 -20   0   1    9.15  220.36
 -20   0   1  244.95  221.03
  20   0   1   74.40  139.79
  20   0   1  372.64  259.95
 -20   1  -1  -65.43  235.27
  20  -1  -1   25.35  140.32
  20  -1  -1    9.41  237.27
 -20   1  -1  -97.34  229.43
 -20   1   1 -245.80  243.99
  20  -1   1   -9.66  249.95
  20  -1   1   16.95  142.09
 -20   1   1  475.21  230.26
  20  -2  -1  -59.13  133.53
 -20   2  -1    9.45  240.98
  20  -2  -1 -261.84  233.24
 -20   2   1  -48.68  221.27
 -20   2   1  -29.06  247.24
  20  -2   1 -141.90  138.46
 -20   3  -1  -85.77  244.06
  20  -3  -1 -184.61  139.17
  20  -3   1    8.35  136.28
 -20   3   1 -216.34  258.83
   1   0  -2   -1.07    2.48
   0   1  -2    0.31    0.99
   0   1  -2    0.53    1.57
   0   1  -2   -0.31    1.56
   1   0  -2    0.47    1.57
  -1   0   2   -0.48    1.62
   0  -1   2   -0.31    0.86
   0  -1   2    0.25    0.59
  -1   0   2    1.00    2.77
   1   1  -2   -2.29    3.05
   2   1  -2   84.63   30.75
   2   1  -2  132.91   29.67
   2   1  -2  100.18   34.21
  -2  -1  -2  123.53   32.96
   2   1   2   77.63   29.81
  -2  -1   2  135.27   29.12
  -2  -1   2  160.97   32.67
   2   0  -2 1280.60  272.51
   2   0  -2 1354.71  276.97
   2   0  -2 1277.72  285.29
  -2   0  -2 1273.75  291.90
  -2   0   2  932.34  287.82
   2   0   2 1102.29  267.42
  -2   0   2  631.14  314.62
   2   0   2 1156.00  302.86
  -2   1  -2  135.80   31.02
   2  -1   2  102.87   36.51
   2  -1   2  123.49   30.29
  -2   2  -2  126.31   45.21
   2   2  -2  172.13   39.65
   2   2  -2  139.94   43.61
  -2  -2   2  175.05   38.28
   3   2  -2  752.02  277.21
   3   2  -2  929.00  255.77
  -3  -2   2 1172.98  233.32
  -3  -2   2  991.34  258.21
   3   1  -2   21.70   11.58
  -3  -1  -2   41.57   14.21
   3   1  -2   36.09    9.78
   3   1  -2   29.22   17.30
   3   1  -2   18.92    8.27
  -3  -1   2   41.82   14.48
   3   1   2   26.69   11.61
   3   0  -2    4.96    5.25
  -3   0  -2   -8.87   12.68
   3   0  -2   -7.85   11.42
   3   0  -2   -1.48    7.65
   3   0  -2    3.71   15.70
  -3   0   2    5.32   14.61
   3   0   2    2.12    7.50
  -3   0   2   -1.74   10.91
   3   0   2   -7.35   15.05
  -3   1  -2   21.78   13.32
   3  -1  -2   42.01   16.72
   3  -1   2   41.14   11.30
   3  -1   2   32.37   19.79
  -3   1   2   19.50   15.42
  -3   2  -2 1311.26  274.82
   3  -2   2  926.26  286.54
  -3  -3   2    5.01    8.20
   4   3  -2 1019.09  290.72
   4   3  -2 1297.13  260.49
  -4  -3   2 1046.87  255.13
  -4  -3   2  900.04  282.30
   4   2  -2  419.38   84.83
   4   2  -2  327.74  100.12
   4   2  -2  382.27   86.35
   4   2  -2  332.43   90.39
  -4  -2  -2  392.11   95.80
  -4  -2   2  276.48   92.70
   4   2   2  275.57   86.68
  -4  -2   2  352.05   83.53
   4   2   2  243.68   95.23
   4   1  -2   10.14    9.97
   4   1  -2    7.25   13.10
   4   1  -2   -1.11   21.82
   4   1  -2    2.55    5.70
  -4  -1  -2   12.53   17.24
  -4  -1   2   -8.77   18.80
  -4  -1   2    2.36   13.54
   4   1   2   -5.56   12.96
   4   0  -2   53.14   14.44
  -4   0  -2   45.66   23.47
   4   0  -2   47.84   20.87
   4   0  -2   29.80   26.55
   4   0  -2   57.58   17.03
  -4   0   2   53.83   20.72
   4   0   2   46.54   16.84
  -4   0   2   86.07   26.06
  -4   1  -2   19.85   15.68
   4  -1  -2   12.87   13.37
   4  -1  -2   13.84   21.46
   4  -1   2   -2.69   24.15
  -4   1   2    7.82   18.72
   4  -1   2   15.30   12.73
  -4   2  -2  451.07   99.41
   4  -2   2  351.83  106.51
   4  -2   2  427.98   96.76
  -4   3  -2 1143.66  295.46
   5   3  -2  276.64   85.10
   5   3  -2  362.58   94.12
   5   3  -2  292.88   80.76
   5   3  -2  320.61   81.33
  -5  -3   2  296.59   77.97
  -5  -3   2  417.47   88.07
   5   2  -2 1513.10  380.27
   5   2  -2 1545.49  411.45
   5   2  -2 1797.19  361.26
  -5  -2   2 1621.18  363.61
  -5  -2   2 1567.12  385.01
   5   1  -2  128.98   28.99
   5   1  -2  100.26   31.14
   5   1  -2   77.34   45.99
  -5  -1  -2  114.06   39.35
   5   1  -2   94.16   34.90
  -5  -1   2   91.66   38.91
   5   1   2  119.71   32.77
  -5  -1   2  136.44   30.76
  -5  -1   2  129.66   41.08
   5   0  -2   -0.63    8.40
  -5   0  -2    2.76   27.66
   5   0  -2  -12.28   20.40
   5   0  -2    6.23   31.02
   5   0  -2   -1.19   14.36
  -5   0   2   -1.11   27.01
   5   0   2    4.67   15.16
  -5   0   2    9.86   20.56
   5  -1  -2  161.94   47.51
   5  -1  -2  139.25   35.64
   5  -1  -2  112.29   37.92
  -5   1   2  155.87   42.07
   5  -1   2  110.77   34.99
   5  -2   2   -1.52  255.33
   6   4  -2   58.14   52.55
   6   4  -2  146.37   40.29
  -6  -4   2  169.40   48.71
   6   3  -2 1896.06  490.18
  -6  -3  -2 2185.31  522.03
   6   3  -2 1909.65  537.42
   6   3  -2 1951.25  502.13
  -6  -3   2 1770.13  475.69
   6   3   2 1947.53  513.26
   6   3   2 2225.66  476.65
   6   2  -2   59.67   34.25
  -6  -2  -2  109.58   41.94
   6   2  -2  147.82   28.48
   6   2   2   86.63   34.34
   6   2   2   61.39   51.41
  -6  -2   2   99.29   28.44
  -6  -1  -2   -1.55   56.02
   6   1  -2  214.57   44.89
   6   1  -2  253.82   53.14
  -6  -1   2  161.30   60.14
   6   1   2  239.40   50.34
   6   1   2  198.02   48.49
  -6  -1   2  162.08   47.33
   6   1   2  110.60   67.65
   6   0  -2  143.20   35.46
   6   0  -2  148.90   47.06
  -6   0   2  126.93   58.99
   6  -1  -2  151.24   52.79
   6  -1  -2  154.07   68.68
  -6   1  -2  244.30   56.88
  -6   1   2  140.45   61.72
   6  -1   2  276.47   52.42
   6  -2  -2   89.43   51.81
  -6   2  -2   53.69   42.21
   6  -2  -2   75.99   38.73
   6  -2   2  167.35   37.42
  -6   2   2  101.67   47.48
   6  -2   2  116.61   53.41
  -6   3  -2 1657.07  497.79
   6  -3   2 2247.41  516.65
  -6   4  -2   60.90   49.30
   7   5  -2   13.56   51.72
   7   4  -2    2.20   52.19
  -7  -4  -2  -20.18   43.80
   7   4  -2  -21.95   33.26
   7   4   2   -2.26   46.49
  -7  -4   2  -33.57   42.90
  -7  -3  -2  324.13  123.80
   7   3  -2  504.47  110.32
   7   3  -2  646.13  134.74
   7   3  -2  367.23  117.52
  -7  -3   2  551.70  120.84
   7   3   2  306.68  128.14
   7   3   2  461.69  111.36
   7   2  -2   47.32   22.73
   7   2  -2   60.43   59.81
  -7  -2  -2   23.66   40.22
   7   2  -2   54.32   33.63
   7   2  -2  102.46   30.52
  -7  -2   2   86.75   45.05
   7   2   2   74.34   32.38
  -7  -2   2   99.52   24.03
  -7  -2   2   74.42   35.77
   7   2   2   93.14   26.12
   7   2   2   73.07   55.71
   7   1  -2    4.75   22.56
   7   1  -2   17.56   54.01
   7   1  -2    5.21   11.58
  -7  -1  -2  -29.11   39.54
   7   1  -2  -21.48   27.11
  -7  -1   2  -31.98   45.64
   7   1   2   12.10   24.89
   7   1   2   -5.94   15.26
  -7  -1   2   -5.96   14.12
  -7  -1   2   -4.50   34.28
   7   1   2   -2.32   52.15
   7   0  -2   22.27   52.44
  -7   0  -2    1.20    6.03
   7   0  -2    5.02   11.13
   7   0  -2    5.19   24.94
   7   0  -2    9.16   32.58
  -7   0  -2    8.06   42.45
  -7   0  -2    9.94   24.08
   7   0   2    3.35   23.24
   7   0   2   -8.51   16.02
   7   0   2    2.93    6.93
  -7   0   2  -10.26   35.42
  -7   0   2    4.78   46.22
  -7   1  -2    4.61   49.78
   7  -1  -2    2.28   50.92
   7  -1  -2    4.28   16.19
   7  -1  -2  -19.78   30.04
   7  -1   2    2.53    5.16
  -7   1   2   -4.77   38.64
   7  -1   2   -1.83   25.77
  -7   2  -2   51.29   43.66
   7  -2  -2   96.76   57.39
   7  -2  -2   36.70   36.09
   7  -2   2  163.18   35.33
   7  -2   2   98.00   56.35
  -7   2   2   74.99   46.24
   7  -2   2   55.80   23.39
  -7   3  -2  431.89  114.85
   7  -3   2  364.71  123.76
  -7   3   2  312.56  122.12
   7  -3   2  460.66  107.72
  -7   4  -2  -14.04   49.68
   7  -4   2   -8.73   56.58
   7  -4   2    4.97   35.71
   8   5  -2  603.86  185.61
   8   5  -2  849.44  198.18
  -8  -5   2  719.49  196.52
   8   4  -2 1358.20  397.07
   8   4  -2 1715.88  422.62
   8   4  -2 1910.43  371.15
  -8  -4  -2 1603.11  414.52
   8   4   2 1394.10  374.50
  -8  -4   2 1535.40  401.87
   8   4   2 1356.64  401.80
   8   3  -2  -53.87   39.79
  -8  -3  -2   18.05   53.23
  -8  -3   2  -60.99   56.98
   8   3   2  -47.15   76.81
   8   3   2  -12.97   41.67
   8   2  -2   91.41   43.63
   8   2  -2 -141.73   88.99
   8   2  -2  134.81   31.04
  -8  -2  -2  109.37   51.14
   8   2  -2   51.47   43.62
  -8  -2   2  124.61   31.62
   8   2   2  142.26   35.00
   8   2   2  121.41   76.33
  -8  -2   2   71.53   59.73
   8   2   2  106.17   41.45
  -8  -2   2  117.11   53.17
   8   1  -2    7.72   68.34
   8   1  -2    6.71   13.30
  -8  -1  -2    2.12   45.07
   8   1  -2    1.41   32.85
   8   1  -2  -20.40   29.34
  -8  -1  -2    5.99   23.97
   8   1   2   -7.94   29.93
   8   1   2   -3.42   19.82
  -8  -1   2   32.96   51.00
   8   1   2    5.52   62.98
  -8  -1   2   -1.38   41.44
  -8  -1   2  -34.49   41.78
  -8  -1   2   -5.49   14.53
  -8   0  -2   62.25   19.96
  -8   0  -2   55.26   39.39
   8   0  -2  160.20   66.25
  -8   0  -2   98.22   56.36
   8   0  -2  122.18   21.91
   8   0  -2   98.56   41.21
   8   0  -2   65.61   34.92
  -8   0   2   67.10   61.91
   8   0   2  111.44   35.32
   8   0   2   88.76   28.55
   8   0   2   55.54   20.78
  -8   0   2   84.39   44.81
  -8   0   2   55.92   59.11
   8  -1  -2  -65.03   60.08
  -8   1  -2  -16.07   58.37
   8  -1  -2    5.05   16.13
   8  -1  -2    4.54   33.22
  -8   1  -2   -8.33    7.58
   8  -1   2  -17.13   33.77
   8  -1   2    0.61    5.76
  -8   1   2  -16.37   45.20
  -8   2  -2   98.32   53.08
   8  -2  -2   64.16   36.46
   8  -2  -2   88.83   71.57
   8  -2  -2  101.80   45.12
  -8   2   2  126.98   55.76
   8  -2   2   96.55   28.60
   8  -2   2  138.95   74.52
   8  -2   2  117.48   42.84
   8  -3  -2  142.60   45.18
   8  -3  -2   76.08   66.27
  -8   3  -2   61.59   53.95
  -8   3   2   11.10   58.21
   8  -3   2   99.98   37.86
   8  -3   2   19.99   69.50
  -8   4  -2 1018.00  371.69
   8  -4   2 1479.30  347.71
   8  -4   2 1444.10  380.51
   9   6  -2  415.15  128.60
   9   6  -2  510.55  141.88
   9   5  -2  458.27  138.85
   9   5  -2  511.90  157.16
   9   5  -2  556.97  134.92
   9   5   2  494.96  147.93
  -9  -5   2  523.94  149.68
   9   4  -2   38.81   37.88
  -9  -4  -2   23.49   57.78
   9   4  -2    2.98   75.24
   9   4  -2   74.16   42.23
  -9  -4   2   31.45   50.52
   9   4   2   -9.83   46.03
   9   4   2  -53.39   69.78
   9   3  -2 1252.22  302.29
  -9  -3  -2  995.01  269.74
  -9  -3   2 1197.63  265.69
   9   3   2 1146.65  292.23
   9   3   2  597.08  242.52
   9   3   2 1009.24  277.92
   9   2  -2   -6.53   31.56
  -9  -2  -2   -4.67   50.04
   9   2  -2    3.02   75.49
  -9  -2   2  -18.37   50.15
   9   2   2   -2.38   35.86
   9   2   2    3.12   72.82
   9   1  -2   -2.99   76.71
   9   1  -2   53.78   36.85
   9   1  -2   33.51   16.11
  -9  -1  -2    2.44   55.76
   9   1  -2   17.12   34.33
  -9  -1  -2    3.31   32.34
   9   1   2    3.23   79.27
   9   1   2   58.91   34.95
  -9  -1   2   46.06   56.61
  -9  -1   2   28.05   51.97
  -9  -1   2    8.01   48.47
  -9  -1   2   22.61   17.82
   9   0  -2    4.74   37.35
   9   0  -2  -20.64   73.38
  -9   0  -2    8.82   51.12
   9   0  -2  -10.10   14.17
  -9   0  -2  -10.84   61.04
   9   0  -2   11.91   42.37
   9   0   2  -12.85   83.51
  -9   0   2   22.43   47.95
   9   0   2   15.72   33.14
  -9   0   2   11.87   64.38
  -9   0   2  -32.58   62.51
   9  -1  -2    4.89   16.61
   9  -1  -2   29.40   66.90
   9  -1  -2    2.57   36.80
  -9   1  -2  -12.30   70.78
   9  -1   2    2.47   35.88
  -9   1   2   27.98   51.59
   9  -2  -2  -16.96   40.59
  -9   2  -2   12.84   53.56
   9  -2  -2   -4.57   24.73
   9  -2  -2  -70.75   71.78
   9  -2   2  -18.33   38.11
  -9   2   2  -10.60   56.60
   9  -3  -2  946.66  291.48
   9  -3  -2 1220.74  270.13
  -9   3  -2 1042.42  274.33
   9  -3   2 1162.73  267.37
   9  -3   2 1478.16  284.95
  -9   3   2  750.82  286.77
  -9   4  -2   -8.32   65.72
   9  -4   2   56.48   43.83
   9  -4   2   51.67   75.04
   9  -5   2  520.21  132.76
  10   6  -2    2.19   46.20
  10   6  -2  -43.87   86.89
  10   5  -2  378.64   98.94
 -10  -5  -2  230.70  113.88
  10   5  -2  586.65  126.52
  10   5  -2  275.28   98.57
  10   5   2  471.20  121.12
 -10  -5   2  190.26  109.76
  10   4  -2  594.86  207.07
 -10  -4  -2  428.74  185.18
  10   4  -2  697.79  161.48
  10   4  -2  576.89  176.50
 -10  -4   2  738.27  179.82
  10   4   2  576.57  194.31
  10   4   2  808.77  164.29
 -10  -3  -2  182.95   64.67
  10   3  -2  107.78   47.92
  10   3  -2  100.69   45.62
  10   3  -2   65.92   91.80
  10   3  -2   94.09   37.03
 -10  -3   2   41.85   55.99
 -10  -3   2   72.66   61.27
 -10  -3   2  114.79   36.69
  10   3   2  115.09   94.07
  10   3   2  146.85   50.78
 -10  -2  -2  153.10   66.26
  10   2  -2  108.75   49.28
  10   2  -2  111.49   98.84
 -10  -2   2   79.05   68.27
  10   2   2   50.33   94.67
  10   2   2  122.05   48.54
  10   1  -2    4.95   38.28
 -10  -1  -2    2.80   64.68
  10   1  -2    3.43   86.37
 -10  -1   2  -14.23   65.00
 -10  -1   2  -34.05   56.60
  10   1   2   -2.57   36.80
 -10  -1   2   44.26   68.44
  10   1   2  -89.10   94.26
 -10   0  -2   20.18   64.15
 -10   0  -2    3.11   71.86
  10   0  -2   43.41   82.93
  10   0  -2   59.19   44.82
 -10   0   2   39.42   60.29
 -10   0   2    6.73   84.46
  10   0   2   56.97   42.34
  10   0   2    3.66   95.84
  10  -1  -2   23.12   79.83
 -10   1  -2  -55.58   80.78
  10  -1  -2   -2.91   44.81
 -10   1   2   84.59   63.44
  10  -1   2  -30.67   42.06
  10  -2  -2   53.05   55.06
  10  -2  -2  189.88   83.59
  10  -2   2  121.29   55.86
 -10   2   2  133.75   69.08
 -10   3  -2  182.02   78.14
  10  -3  -2  138.24   62.31
  10  -3  -2   94.59   83.59
 -10   3   2  123.75   79.34
  10  -3   2  190.32   60.69
  10  -3   2  333.23   91.24
  10  -4  -2  599.45  180.50
 -10   4  -2  641.43  190.86
  10  -4   2  814.99  177.78
 -10   4   2  726.84  197.29
  10  -4   2  821.74  197.37
 -10   5  -2  302.44  114.97
  10  -5   2  336.66   94.58
  11   6  -2  106.84   97.91
 -11  -6   2  -19.50   76.38
  11   5  -2  512.06  155.24
  11   5  -2  455.22  116.81
 -11  -5  -2  502.05  139.25
 -11  -5   2  332.33  132.77
  11   5   2  517.89  148.93
  11   5   2  333.91  116.04
 -11  -4  -2  -13.38   73.92
  11   4  -2  -26.25   49.80
  11   4  -2  -78.01  106.11
  11   4   2    3.68   52.97
 -11  -4   2  -23.53   67.30
  11   4   2  -23.26   97.69
  11   3  -2  179.02  114.84
 -11  -3  -2  151.40   78.21
  11   3  -2  111.91   58.67
  11   3   2  183.04  108.43
  11   3   2  205.78   62.42
 -11  -3   2  107.17   75.26
  11   2  -2   71.12  104.12
 -11  -2  -2  101.22   69.15
  11   2  -2   36.75   42.56
  11   2   2   17.77   48.71
 -11  -2   2   96.25   72.56
  11   2   2  -57.84  104.66
 -11  -1  -2   25.47   74.97
  11   1  -2   19.71   43.55
  11   1  -2   50.37   97.40
  11   1   2  125.17   50.05
  11   1   2  -16.88  110.04
 -11  -1   2   10.79   66.93
 -11  -1   2   89.43   77.58
  11   0  -2   78.51   91.45
 -11   0  -2  -46.24   72.28
 -11   0  -2  -55.63   84.08
  11   0  -2  -27.44   47.20
  11   0   2 -145.37  106.45
 -11   0   2   -3.76   71.64
 -11   0   2    3.82   91.62
  11   0   2  -85.21   46.70
  11  -1  -2   77.64   88.89
  11  -1  -2   13.17   53.69
 -11   1  -2   58.85   94.88
  11  -1   2   80.41  102.60
  11  -1   2  -50.08   50.35
 -11   1   2   -4.19  104.61
 -11   1   2   83.75   73.64
  11  -2  -2    6.94   51.77
 -11   2  -2  155.87  100.14
  11  -2  -2   97.42   88.28
  11  -2   2   40.34   52.13
 -11   2   2   -8.76   76.16
  11  -3  -2  171.23   69.06
  11  -3  -2  162.77  100.79
 -11   3  -2  162.72   88.72
 -11   3   2  266.31   92.10
  11  -3   2  209.79  106.88
  11  -3   2  121.51   68.12
  11  -4  -2  -85.33   57.86
 -11   4  -2  -39.50   82.53
  11  -4   2 -118.87   58.68
  11  -4   2    4.07   93.68
 -11   4   2   26.46   78.72
 -11   5  -2  567.44  129.96
  11  -5   2  163.25  107.78
  12   7  -2  103.31  115.44
  12   6  -2    4.34  116.90
  12   6   2   -4.25   90.83
 -12  -6   2   25.15   80.13
  12   5  -2   24.20   59.57
  12   5  -2   26.15  117.15
 -12  -5  -2    8.43   88.17
  12   5   2 -159.70  111.18
  12   5   2  -48.77   64.78
 -12  -5   2  -22.00   76.30
 -12  -4  -2  116.57   84.53
  12   4  -2   93.05   58.20
  12   4  -2  178.44  122.59
  12   4   2  109.89  121.42
 -12  -4   2  199.46   82.06
  12   4   2    3.87   62.32
 -12  -3  -2    6.73   75.18
  12   3  -2   54.22  124.87
  12   3  -2   31.87   50.75
 -12  -3   2   53.92   74.34
  12   3   2   21.19   54.51
  12   3   2   13.59  115.79
 -12  -2  -2   33.54   77.56
  12   2  -2   35.02   51.69
  12   2  -2   -8.91  121.97
  12   2   2 -206.71  135.84
 -12  -2   2  -13.46   80.89
  12   2   2  -39.61   49.46
 -12  -2   2  -16.34   82.74
 -12  -1  -2   17.80   87.63
  12   1  -2  105.04  113.93
 -12  -1  -2  -90.23  101.89
  12   1  -2    6.37   51.97
 -12  -1   2  -18.80   93.56
  12   1   2 -106.20   59.98
  12   1   2 -245.37  146.53
 -12  -1   2  -81.92   84.51
  12   0  -2  288.03  114.79
 -12   0  -2  417.17  104.11
 -12   0  -2   23.58  112.35
  12   0  -2   92.20   62.10
 -12   0   2  114.79  113.47
  12   0   2   13.25   67.33
 -12   0   2  123.68   90.59
  12  -1  -2  -74.07  106.67
 -12   1  -2   27.52   88.32
 -12   1  -2 -143.54  123.99
  12  -1  -2  -33.36   59.01
  12  -1   2  -84.30   65.41
 -12   1   2   59.29   86.21
  12  -1   2 -415.53  135.66
 -12   1   2    9.34  113.40
  12  -2  -2  -45.52  102.20
  12  -2  -2   34.74   60.56
 -12   2  -2 -126.05  117.94
  12  -2   2   86.45   63.82
 -12   2   2    4.88   85.09
  12  -3  -2   47.51  101.36
 -12   3  -2  -20.24   86.69
  12  -3  -2   76.42   61.48
  12  -3   2  104.00   63.61
 -12   3   2  -10.64   90.22
  12  -4  -2   92.43   61.42
 -12   4  -2   49.00   95.23
  12  -4   2    3.92   67.57
 -12   4   2  166.65   91.02
  12  -4   2   53.46  104.48
 -12   5  -2   -5.91   85.44
  12  -5   2   -4.73   79.44
  12  -5   2   16.17   64.28
  13   6   2  -67.37  124.35
 -13  -6   2   81.11   94.05
  13   5  -2   -4.93  164.69
  13   5  -2  370.59  107.62
 -13  -5   2  307.06  132.25
  13   4  -2  237.29  137.73
  13   4  -2    7.61   59.27
 -13  -4   2   35.68   82.94
  13   3  -2    7.08   56.73
  13   3  -2  -20.25  143.51
 -13  -3  -2  -41.21   89.00
  13   3   2    3.89   57.68
 -13  -3   2   28.52   86.11
  13   2  -2  -19.99  130.87
 -13  -2  -2    3.77   88.20
  13   2  -2   42.75   57.40
 -13  -2   2   87.62   93.11
 -13  -2   2  -60.08   92.25
  13   2   2    7.36   56.76
 -13  -1  -2   92.42   95.90
  13   1  -2   29.20  126.60
  13   1  -2   14.50   56.96
 -13  -1  -2   -4.97   75.64
  13   1   2   -5.28  116.63
  13   1   2  -59.57   63.35
 -13  -1   2   56.88   93.87
 -13  -1   2   46.08  105.91
  13   0  -2  -26.68   62.69
  13   0  -2    9.30  123.44
 -13   0  -2  -56.73  104.97
 -13   0   2  -61.08  117.89
  13   0   2   -5.22  108.07
 -13   0   2   93.03   93.38
  13   0   2    7.53   64.63
  13  -1  -2 -123.41  113.70
  13  -1  -2   82.08   65.32
 -13   1  -2   91.09  121.46
 -13   1   2  236.01   99.38
  13  -1   2   27.36   66.99
 -13   1   2   46.70  132.83
 -13   2  -2   41.13  132.61
  13  -2  -2  -47.18   70.99
  13  -2   2   -4.14   64.34
 -13   5  -2  426.24  142.45
  13  -5   2   35.81  148.64
  14   7  -2 -151.45  152.02
  14   6  -2   65.47  147.50
  14   6  -2  -45.96   75.99
 -14  -6  -2  -79.90   98.02
  14   6   2  128.29  138.35
 -14  -6   2  -96.23  104.88
  14   5  -2   33.68  157.26
 -14  -5  -2   44.35  110.27
  14   5  -2  328.90   76.28
  14   5   2   40.40   82.44
  14   5   2   97.59  147.34
  14   4  -2    5.67  155.78
 -14  -4  -2  -35.09   95.77
  14   4   2   -4.58   71.04
  14   4   2   33.77  144.49
 -14  -3  -2  112.90   96.31
  14   3   2   38.62   68.83
  14   3   2 -104.86  160.95
 -14  -2  -2  725.10  126.34
  14   2   2  -41.15  183.59
  14   2   2  331.19  100.73
 -14  -1  -2 -190.14  120.15
 -14  -1  -2  348.31  111.53
  14   1   2  369.53   80.24
  14   1   2    5.88  164.85
 -14   0  -2  -92.46  135.29
 -14   0  -2  709.65  137.15
  14   0   2  324.80   95.66
  14   0   2  115.25  175.56
 -14   1  -2  154.70  127.79
 -14   1  -2  591.56  145.86
  14  -1  -2  -40.36  138.12
  14  -1   2  380.64   85.85
 -14   1   2    5.76  118.78
  14  -1   2   11.02  155.49
 -14   2  -2  -56.80  147.66
  14  -2  -2  363.40   91.88
  14  -2  -2  192.48  137.53
  14  -2   2   -4.56   92.80
 -14   2   2  103.03  117.92
  14  -2   2    5.35  146.64
  14  -3  -2   10.33  119.32
 -14   3  -2   75.53  137.30
  14  -3  -2  -97.53   80.73
  14  -3   2   14.28   79.83
 -14   3   2  161.70  111.64
 -14   4  -2  180.69  121.07
  14  -4  -2   70.18   81.05
  14  -4   2   14.39   81.51
 -14   4   2   41.04  109.75
 -14   5  -2   63.79  116.79
  14  -5   2    4.84   75.95
  14  -5   2    5.56  132.18
  15   7  -2 -519.26  203.04
  15   6  -2  129.21  173.31
  15   6  -2   10.88   80.00
 -15  -6  -2   45.88  117.83
  15   6   2  269.23  165.88
 -15  -6   2  161.62  113.66
 -15  -5  -2  199.02  114.63
  15   5  -2   50.25  166.20
  15   5  -2  -30.12   75.46
 -15  -5   2  -23.29  108.07
  15   5   2 -221.30  164.89
  15   5   2  -65.37   84.66
 -15  -4  -2 -179.63  104.06
  15   4  -2 -653.27  182.35
  15   4  -2  -42.44   75.39
 -15  -4   2   92.66  103.54
  15   4   2   25.29  171.23
  15   4   2  -20.02   78.25
  15   3  -2   -4.48   71.47
  15   3  -2   62.58  175.45
 -15  -3  -2  130.88  105.82
  15   3   2 -407.50  183.35
 -15  -3   2  105.72  123.99
  15   3   2  -42.70   76.98
 -15  -3   2  314.55  112.68
  15   2  -2   -4.50   67.95
 -15  -2  -2   14.29  111.96
  15   2  -2  375.38  172.94
 -15  -2  -2  130.53  127.38
 -15  -2   2   -6.04  120.58
 -15  -2   2   67.62  117.94
  15   2   2    4.55   78.36
  15   2   2   -6.52  172.84
 -15  -1  -2  120.54  128.23
  15   1  -2 -206.00  163.74
  15   1  -2    4.65   76.47
 -15  -1  -2 -172.52  126.10
 -15  -1   2  -15.77  128.70
  15   1   2   74.99   75.81
 -15  -1   2  116.37  124.56
  15   1   2    6.53  179.39
 -15   0  -2  -85.88  128.71
  15   0  -2    4.76   78.59
 -15   0  -2   92.40  134.57
  15   0  -2 -205.67  157.62
  15   0   2   18.97  175.54
  15   0   2   81.64   82.44
 -15   0   2  -28.67  147.62
 -15   0   2  113.76  120.26
  15  -1  -2    5.01   86.88
 -15   1  -2   23.22  146.15
  15  -1  -2  239.33  136.67
 -15   1  -2  180.99  130.29
 -15   1   2   84.00  117.56
  15  -1   2 -349.74   84.45
 -15   1   2 -149.62  158.10
  15  -1   2    6.09  164.76
 -15   2  -2  -67.97  155.56
  15  -2  -2   95.15  139.01
  15  -2  -2  110.34   90.38
 -15   2  -2 -124.64  133.97
 -15   2   2 -162.19  122.52
 -15   2   2  -91.35  163.15
  15  -2   2    5.93  153.88
  15  -2   2   35.26   83.73
 -15   3  -2  291.16  169.77
  15  -3  -2  -11.35  137.69
  15  -3  -2   64.68   91.92
 -15   3   2  264.93  125.30
  15  -3   2   -5.20   81.99
 -15   3   2   26.32  164.80
  15  -4  -2  208.74   91.29
 -15   4  -2 -287.32  164.01
  15  -4   2  -37.19   86.52
 -15   4   2   15.01  124.09
 -15   5  -2   39.10  129.64
  15  -5   2  291.44  144.84
  15  -5   2    5.32   86.49
  16   7  -2 -237.45  191.47
 -16  -6  -2   -6.23  132.29
  16   6  -2   -5.85   94.96
  16   6  -2 -460.57  201.43
 -16  -6   2 -158.86  136.55
  16   6   2 -301.39  186.98
  16   5  -2    5.47   84.19
  16   5  -2   41.80  193.54
 -16  -5  -2    5.90  126.06
  16   5   2 -366.58   94.45
  16   5   2  110.64  188.09
 -16  -5   2  -25.71  118.53
 -16  -4  -2  226.90  128.15
  16   4  -2  305.22  189.76
  16   4  -2   51.93   82.08
 -16  -4   2  -84.63  119.54
  16   4   2   -7.06  196.14
  16   4   2   43.99   88.48
 -16  -4   2   58.92  137.90
  16   3  -2    6.88  176.84
  16   3  -2   19.98   75.99
 -16  -3  -2  -15.69  118.23
  16   3   2    5.26   80.97
 -16  -3   2  -79.66  133.11
 -16  -3   2  171.58  123.16
  16   3   2   -7.14  189.76
 -16  -2  -2  -34.65  141.35
 -16  -2  -2    5.35  124.89
  16   2  -2    4.99   80.77
  16   2  -2  215.44  185.56
 -16  -2   2   33.85  133.60
 -16  -2   2   37.54  132.57
  16   2   2 -346.14  205.70
  16   2   2    5.21   83.55
  16   1  -2    6.46  171.43
 -16  -1  -2  123.79  131.69
 -16  -1  -2   14.46  141.80
  16   1  -2    5.19   81.20
  16   1   2   10.40   84.49
 -16  -1   2   -6.97  139.48
 -16  -1   2  -70.53  146.12
  16   1   2   57.33  197.30
  16   0  -2    5.36   85.63
 -16   0  -2    7.40  143.83
 -16   0  -2    6.06  143.36
  16   0  -2 -201.96  161.69
  16   0   2   62.19  184.83
  16   0   2 -208.90   92.53
 -16   0   2  -28.37  138.50
 -16   0   2  -25.44  158.88
  16  -1  -2 -288.98  158.23
 -16   1  -2   38.23  150.23
  16  -1  -2   55.13   92.69
 -16   1  -2   19.25  162.27
  16  -1   2  -54.53   91.62
 -16   1   2  297.99  169.77
  16  -1   2  -26.93  177.10
 -16   1   2   95.69  133.77
 -16   2  -2  -15.56  147.33
  16  -2  -2  142.15  155.70
  16  -2  -2    5.78   94.22
 -16   2  -2  134.11  163.24
  16  -2   2    5.52   92.81
 -16   2   2  220.42  180.20
 -16   2   2 -249.03  139.71
  16  -2   2    6.54  169.12
  16  -3  -2  -68.64  148.03
 -16   3  -2  131.68  172.99
  16  -3  -2 -423.56  105.61
  16  -3   2    6.51  164.40
 -16   3   2   71.49  137.36
 -16   3   2   21.59  183.12
  16  -3   2    5.69   94.59
  16  -4  -2   66.29   98.47
 -16   4  -2 -125.14  181.84
  16  -4   2   58.51  102.32
 -16   4   2  156.98  140.87
 -16   5  -2  248.96  173.59
 -16   5  -2   -8.66  144.05
  16  -5   2   -5.86   93.12
  16  -5   2  -73.22  163.43
  17   7  -2   83.21  202.45
  17   6  -2    6.32   91.01
 -17  -6  -2  -40.86  137.92
  17   6  -2 -129.86  214.66
 -17  -6   2  -99.45  137.33
  17   6   2    7.52  190.29
  17   5  -2  114.89  216.37
  17   5  -2   17.96   93.69
 -17  -5  -2   39.19  139.05
  17   5   2    6.45   99.45
 -17  -5   2   50.99  154.98
  17   5   2   -7.71  206.63
 -17  -5   2   11.41  130.19
  17   4  -2    7.65  206.95
 -17  -4  -2 -186.94  140.29
  17   4  -2  -91.74   86.83
  17   4   2  -42.38   87.88
 -17  -4   2 -222.60  131.93
  17   4   2  234.42  218.22
 -17  -4   2  232.88  144.93
  17   3  -2   -5.56   89.37
  17   3  -2 -189.46  207.59
 -17  -3  -2   29.31  135.53
 -17  -3  -2 -114.28  161.60
 -17  -3   2  -56.64  134.32
  17   3   2    7.87  209.43
  17   3   2  -42.03   99.82
 -17  -3   2  110.80  154.05
 -17  -2  -2  242.23  168.77
 -17  -2  -2  125.96  142.24
  17   2  -2 -277.16   96.39
 -17  -2   2 -150.23  154.00
  17   2   2 -413.55  230.15
  17   2   2    5.81   99.06
 -17  -2   2 -453.46  159.08
  17   1  -2 -134.47  101.65
 -17  -1  -2   32.31  162.22
  17   1  -2 -248.93  204.79
 -17  -1  -2  -88.02  157.91
 -17  -1   2 -101.51  163.18
  17   1   2 -686.72  233.73
 -17  -1   2 -232.51  168.96
  17   1   2    5.77  103.90
 -17   0  -2   33.58  168.30
  17   0  -2  111.19  182.19
 -17   0  -2  -53.07  168.90
  17   0  -2  -17.79   98.32
 -17   0   2  -20.86  185.43
 -17   0   2  185.39  159.43
  17   0   2 -126.61  110.15
 -17   1  -2  -77.19  165.98
  17  -1  -2 -190.28  187.27
  17  -1  -2   -6.12  104.45
 -17   1  -2  -27.98  173.66
 -17   1   2  312.59  189.54
 -17   1   2 -222.59  156.51
  17  -1   2   -6.03  109.39
  17  -1   2    7.42  197.58
 -17   2  -2 -173.51  194.28
  17  -2  -2 -101.19  110.84
  17  -2  -2 -401.98  179.06
 -17   2  -2   -8.87  175.04
  17  -2   2 -312.42  104.11
 -17   2   2 -162.36  159.47
 -17   2   2 -200.08  196.89
  17  -2   2 -347.03  197.48
  17  -3  -2   84.66  108.57
 -17   3  -2 -239.57  201.15
  17  -3  -2  329.64  181.48
  17  -3   2  -86.49  186.15
  17  -3   2  106.08   98.72
 -17   3   2 -385.32  238.77
 -17   3   2   -8.83  150.49
  17  -4  -2  -39.97  109.69
 -17   4  -2  218.76  193.34
 -17   4   2  209.90  148.28
  17  -4   2    6.37  100.09
 -17   4   2 -392.85  228.42
 -17   5  -2  324.64  193.40
 -17   5  -2   -9.62  161.99
  17  -5   2  -38.81  105.98
  18   7  -2 -427.82  255.37
  18   6  -2  360.43  349.00
 -18  -6  -2 1356.02  296.56
  18   6   2 1259.77  351.08
 -18  -6   2 1151.30  285.62
  18   5  -2 -369.63  105.09
 -18  -5  -2   -7.26  153.65
  18   5  -2 -335.05  231.59
  18   5   2   34.17  233.51
 -18  -5   2  209.31  147.78
  18   5   2  -49.60  103.74
 -18  -5   2  -32.22  173.32
 -18  -4  -2 -331.42  172.43
 -18  -4  -2  338.11  154.82
  18   4  -2    8.41  226.97
  18   4  -2   31.75   98.93
  18   4   2 -107.04  101.78
 -18  -4   2  255.54  144.90
 -18  -4   2  -24.54  171.26
  18   4   2    8.60  238.02
  18   3  -2 -173.11  218.87
 -18  -3  -2 -445.85  171.71
 -18  -3  -2   93.10  158.43
  18   3  -2  -31.94  100.16
 -18  -3   2  -69.94  153.41
 -18  -3   2  109.23  173.16
  18   3   2   93.37   97.30
  18   3   2 -745.24  238.51
 -18  -2  -2 -292.23  187.41
  18   2  -2  -12.59   99.48
 -18  -2  -2  -20.19  153.64
  18   2  -2 -183.53  213.07
 -18  -2   2  113.86  164.87
  18   2   2 -329.98  244.58
 -18  -2   2 -191.20  177.37
  18   2   2  -45.40  104.84
  18   1  -2  406.28  211.75
 -18  -1  -2 -283.67  186.22
  18   1  -2    6.46  108.77
 -18  -1  -2   69.92  170.05
 -18  -1   2  280.31  175.05
  18   1   2  830.52  249.02
 -18  -1   2  363.57  177.17
  18   1   2  -78.75  109.47
 -18   0  -2  112.56  187.22
 -18   0  -2  -14.73  180.24
  18   0  -2    7.61  198.31
  18   0  -2   40.29  117.74
 -18   0   2  168.20  196.00
  18   0   2   33.24  228.69
  18   0   2  106.50  121.16
 -18   0   2  685.35  176.61
  18  -1  -2    6.75  107.46
 -18   1  -2  -87.58  185.31
 -18   1  -2 -245.49  187.96
  18  -1  -2 -360.81  198.36
 -18   1   2  176.82  204.57
 -18   1   2   18.64  171.91
  18  -1   2    6.81  109.53
  18  -1   2    8.17  213.48
 -18   2  -2 -261.19  199.01
  18  -2  -2 -195.61  187.30
  18  -2  -2    6.91  105.22
 -18   2  -2  198.94  182.40
  18  -2   2  375.15  213.38
  18  -2   2    6.75  111.99
 -18   2   2   76.48  168.90
 -18   2   2  149.58  211.54
  18  -3  -2   -7.57  186.57
  18  -3  -2    7.11  120.11
 -18   3  -2  441.48  189.04
 -18   3  -2  517.11  211.19
 -18   3   2    8.53  222.13
  18  -3   2   47.83  207.41
  18  -3   2   54.44  115.96
 -18   3   2   69.22  167.76
 -18   4  -2  105.87  206.86
  18  -4  -2 -131.90  122.21
  18  -4   2    6.94  109.66
 -18   4   2 -101.12  167.23
 -18   4   2  -42.72  228.74
 -18   5  -2  139.96  219.17
  18  -5   2 -218.73  120.23
  19   7  -2 -358.47  263.14
 -19  -6  -2  -57.99  171.50
  19   6  -2  104.72  114.06
  19   6  -2   82.72  250.58
 -19  -6   2    8.81  185.02
 -19  -6   2    7.59  163.83
  19   6   2  121.81  259.08
  19   5  -2  -14.60  112.75
  19   5  -2  147.00  251.82
 -19  -5  -2 -281.28  191.98
 -19  -5  -2   56.76  177.82
  19   5   2    9.39  256.12
 -19  -5   2   18.05  190.30
  19   5   2   39.13  111.62
 -19  -5   2  -36.58  164.51
 -19  -4  -2   76.00  175.42
  19   4  -2   42.18  110.14
 -19  -4  -2 -147.04  189.06
  19   4  -2   -9.16  256.16
  19   4   2   -9.47  257.45
  19   4   2   91.49  117.80
 -19  -4   2  272.80  164.21
 -19  -4   2 -277.86  188.80
 -19  -3  -2  -82.19  173.30
  19   3  -2   99.57  114.18
  19   3  -2 -524.61  242.35
 -19  -3  -2 -180.00  203.56
 -19  -3   2  113.97  195.41
  19   3   2 -800.26  265.91
  19   3   2   44.60  110.01
 -19  -3   2 -107.96  176.49
 -19  -2   2 -920.86  226.36
 -19  -1  -2  949.93  237.29
  19   1  -2  350.98  265.92
 -19  -1  -2  405.61  232.02
 -19  -1   2  336.50  217.66
 -19  -1   2 -703.41  247.79
 -19   0  -2 1403.18  361.40
 -19   0  -2 1187.29  366.34
  19   0   2 1221.96  412.46
 -19   0   2  472.69  370.11
 -19   0   2 1169.37  352.99
  19  -1  -2 -127.94  137.08
 -19   1  -2 -135.25  222.86
 -19   1  -2  326.34  221.45
  19  -1  -2  142.01  243.67
 -19   1   2  -10.43  202.20
 -19   1   2  -87.07  238.65
 -19   2  -2 -416.80  225.33
  19  -2  -2   -7.64  141.21
 -19   2  -2 -257.01  217.76
  19  -2   2    7.51  131.15
 -19   2   2 -309.93  212.49
 -19   2   2  -90.68  237.57
 -19   3  -2  -95.34  219.61
  19  -3  -2  -33.48  205.92
  19  -3  -2    7.79  128.56
 -19   3  -2 -241.93  213.88
 -19   3   2   55.14  188.86
  19  -3   2 -388.59  241.10
 -19   3   2 -156.26  246.75
  19  -3   2    7.54  137.93
 -19   4  -2  -35.46  227.40
  19  -4  -2    7.97  121.67
 -19   4   2 -112.35  184.69
  19  -4   2 -159.18  213.10
  19  -4   2    7.59  132.68
 -19   4   2   55.56  231.41
 -19   5  -2    8.93  232.34
  19  -5   2   23.09  132.82
  20   6  -2    8.21  133.59
  20   6  -2  442.76  276.24
 -20  -6   2  119.13  184.38
 -20  -6   2  321.64  208.31
  20   5  -2   -8.10  123.50
  20   5  -2 -100.63  285.34
 -20  -5   2 -129.62  218.34
 -20  -5   2  -65.65  191.75
 -20  -4  -2 -202.43  197.49
  20   4  -2  306.35  270.59
  20   4  -2 -136.21  125.01
 -20  -4   2   10.46  216.87
 -20  -4   2  -96.78  186.78
  20   4   2   -8.53  128.16
  20   3  -2 -183.31  256.17
 -20  -3  -2   92.51  190.51
  20   3  -2 -134.29  125.55
  20   3   2   -8.27  125.53
  20   3   2  -10.35  274.68
 -20  -3   2  224.76  217.71
 -20  -3   2  145.40  193.83
  20   2  -2    9.53  255.92
 -20  -2  -2   85.46  202.07
 -20  -2  -2   11.12  219.05
  20   2  -2    7.99  123.57
 -20  -2   2  -65.72  218.26
  20   2   2   30.48  275.29
 -20  -2   2  -33.46  200.96
  20   2   2    8.32  129.88
 -20  -1  -2  139.18  206.49
 -20  -1  -2  137.82  231.54
  20   1  -2 -411.27  243.76
  20   1  -2  -63.91  126.03
 -20  -1   2  166.70  224.61
  20   1   2 -412.90  285.09
 -20  -1   2   67.14  218.57
  20   1   2   -8.31  137.01
 -20   0  -2 -178.89  226.66
  20   0  -2 -119.84  240.83
 -20   0  -2  108.19  238.12
  20   0  -2  149.57  135.75
  20   0   2    8.20  130.13
  20   0   2   -9.97  258.60
 -20   0   2  126.11  219.17
 -20   0   2  220.35  232.95
 -20   1  -2   91.75  225.89
  20  -1  -2    8.47  141.21
  20  -1  -2  110.68  232.69
  20  -1   2    8.41  137.20
 -20   1   2  133.73  238.61
 -20   1   2   47.29  230.19
  20  -1   2    9.82  257.71
 -20   2  -2  224.12  232.09
  20  -2  -2  -50.42  138.08
 -20   2  -2   12.61  192.29
  20  -2  -2   18.44  219.54
 -20   2   2  185.12  249.29
  20  -2   2 -262.53  139.23
 -20   2   2 -109.03  221.70
  20  -2   2   -9.84  187.33
  20  -3  -2    8.48  140.24
  20  -3  -2  148.51  198.08
 -20   3   2  -79.24  256.63
 -20   3   2   12.32  160.28
   0   0  -3   -4.13    5.21
   0   0  -3    1.19    3.72
   0   0   3    0.61    3.46
   0   1  -3 3918.12  651.72
  -1   0   3 3796.18  656.06
   1   0   3 4090.84  654.69
   1   0   3 3866.35  652.36
  -1   1  -3    1.23    4.77
   1   1  -3    2.06    5.82
  -1   1  -3    1.77    2.37
   1  -1   3   -1.29    2.65
   1  -1   3    0.73    2.00
   2   1  -3  873.89  276.24
  -1   2  -3  959.93  253.07
   2   1  -3  977.12  230.10
   2   1  -3  938.31  251.95
   2   1  -3 1082.85  238.11
  -2  -1   3 1027.32  263.97
  -2  -1   3  938.79  263.50
   2   0  -3   -0.88    9.81
  -2   0  -3   -4.56    7.81
   2   0  -3   -1.46    5.84
   2   0  -3   -1.79    8.92
   0   2  -3    2.84    4.40
  -2   0   3   -1.46    7.84
   2   0   3    3.00    6.12
   0  -2   3    1.11    3.78
   2   0   3   -0.68   11.08
  -2   0   3   -0.82   13.22
  -2   1  -3 1036.69  244.72
   2  -1   3 1030.82  282.01
   2   2  -3    2.10    9.21
   2   2  -3    3.54    9.31
   2   2  -3   -4.98    5.69
  -2   2  -3   -2.13   11.73
   2  -2   3    2.72   14.89
  -2  -2   3    5.03    6.00
  -2  -2   3    3.34    6.98
   3   2  -3  133.50   26.84
   3   2  -3   69.46   34.11
   3   2  -3  110.54   29.83
   3   2  -3  122.72   28.90
  -3  -2   3  118.00   31.45
  -3  -2   3   65.13   26.89
   3   1  -3  329.80   93.65
  -3  -1  -3  487.46  109.79
   3   1  -3  408.41  102.80
   3   1  -3  343.00   95.89
   3   1  -3  340.86  113.82
   3   1   3  474.09  101.14
   3   1   3  433.76  112.58
  -3  -1   3  321.45  107.83
  -3  -1   3  489.57  108.98
   3   0  -3  146.02   42.82
   3   0  -3  162.89   44.12
  -3   0  -3  192.10   47.12
   3   0  -3  178.61   51.33
   3   0  -3  138.33   47.00
  -3   0   3  214.60   47.25
  -3   0   3  137.47   53.03
   3   0   3  188.25   50.64
   3   0   3  200.77   42.32
  -3   1  -3  328.36   97.64
   3  -1   3  510.80  113.06
   3  -1   3  384.26   96.46
   2   3  -3  146.12   30.28
  -3   2  -3  120.08   34.29
  -2  -3   3  103.39   29.06
   3  -2   3  134.65   31.50
   3  -2   3   98.65   38.78
   3   3  -3   -1.00    9.63
   3   3  -3    0.84   14.85
   3   3  -3   -4.95   13.84
  -3  -3   3    1.00    9.37
   4   3  -3    5.86   23.13
   4   3  -3    2.15   11.14
   4   3  -3    1.27   14.28
   4   3  -3    1.07   17.48
  -4  -3   3   -3.22   11.23
  -4  -3   3    3.31   19.75
   4   2  -3 1231.33  316.09
   4   2  -3 1285.11  307.02
   4   2  -3 1049.29  347.01
   4   2  -3 1302.75  298.11
  -4  -2  -3 1213.54  339.04
  -4  -2   3 1296.47  327.33
   4   1  -3  250.40   46.77
   4   1  -3  186.86   53.05
   4   1  -3  196.36   48.26
   4   1  -3  138.31   60.68
  -4  -1  -3  190.50   56.25
  -4  -1   3  208.25   57.44
   4   1   3  196.57   51.11
  -4  -1   3  159.78   56.81
  -4   0  -3    4.29   18.69
   4   0  -3   -3.11    8.20
   4   0  -3    6.19   22.40
   4   0  -3    1.16   17.58
   4   0  -3  -15.11   11.72
   4   0   3    3.86   24.65
   4   0   3    4.84   11.25
  -4   0   3  -14.68   16.93
  -4   0   3   -6.82   23.54
   4  -1  -3  213.30   58.87
   4  -1  -3  108.41   51.34
  -4   1  -3  224.93   50.22
   4  -1   3  189.96   48.26
   4  -1   3  191.49   59.99
  -4   1   3  156.94   57.65
  -4   2  -3 1221.89  316.93
   4  -2   3 1278.90  313.39
   4  -2   3 1352.77  345.42
  -4   3  -3    8.29   25.61
   4  -3   3   -1.74   32.02
   5   3  -3 1856.96  451.02
   5   3  -3 1883.65  513.20
   5   3  -3 1933.58  459.55
   5   3  -3 1625.63  472.98
  -5  -3   3 2022.84  485.53
   5   2  -3 4488.02 1285.77
   5   2  -3 4275.93 1116.71
   5   2  -3 4395.52 1120.76
   5   2  -3 5081.24 1183.49
  -5  -2   3 4911.62 1128.63
  -5  -2   3 4682.19 1203.07
   5   1  -3  169.65   38.13
   5   1  -3  175.37   45.76
  -5  -1  -3  153.85   48.53
   5   1  -3  151.00   40.14
   5   1  -3  165.06   56.14
   5   1   3  147.60   42.39
  -5  -1   3  118.71   51.19
  -5  -1   3  131.35   51.22
   5   0  -3   72.30   34.80
  -5   0  -3   18.79   30.19
   5   0  -3   52.24   21.64
   5   0  -3   66.16   17.67
   5   0  -3   54.75   28.21
   5   0   3   45.25   22.01
  -5   0   3   84.53   28.36
  -5   0   3   81.12   38.09
   5  -1  -3  155.12   47.99
   5  -1  -3  114.62   46.61
  -5   1  -3  154.05   56.39
   5  -1  -3  218.08   57.97
  -5   1   3  218.68   53.81
   5  -1   3  208.38   44.57
   6   5  -3   71.83   44.85
   6   4  -3  387.73   88.53
   6   4  -3  280.40  103.96
  -6  -4   3  346.03   86.46
   6   3  -3   93.63   35.13
  -6  -3  -3  140.33   45.81
   6   3   3   96.09   46.07
   6   3   3   45.78   36.66
   6   2  -3   50.51   15.39
   6   2  -3   30.31   25.85
  -6  -2  -3   32.20   35.33
  -6  -2   3   31.13   16.16
   6   2   3   21.14   25.41
   6   2   3   40.72   44.14
  -6  -2   3   27.95   28.31
   6   1  -3   13.57   11.76
   6   1  -3   -1.20   26.66
  -6  -1  -3   34.05   32.22
   6   1   3   15.68   22.21
  -6  -1   3   19.96   31.45
   6   0  -3    3.37   12.87
   6   0  -3   17.01   31.61
  -6   0  -3   49.80   35.65
   6   0   3   75.84   21.92
   6   0   3   20.07   49.10
  -6   0   3   -3.12   44.48
  -6   1  -3   86.08   43.47
   6  -1  -3   45.69   45.98
   6  -1  -3   25.90   20.36
  -6   1  -3   41.81   32.71
   6  -1   3   -4.07   49.35
  -6   1   3   17.73   36.70
   6  -1   3   76.78   24.27
   6  -2  -3   61.73   46.26
  -6   2  -3   22.86   35.46
  -6   2   3   43.04   40.40
   6  -2   3   30.64   26.09
   6  -2   3   33.21   48.78
  -6   3  -3   97.48   46.21
   6  -3   3  111.28   35.67
   6  -3   3   74.86   54.63
  -6   4  -3  369.98  103.16
   6  -4   3  325.13   90.49
   6  -4   3  382.90  108.93
   7   5  -3   37.74   35.11
   7   5  -3   11.21   53.19
   7   4  -3   27.81   23.84
   7   4  -3   26.02   34.09
   7   4  -3   44.48   32.29
   7   4  -3    4.34   56.82
  -7  -4   3   34.25   50.08
  -7  -4   3   25.77   21.78
  -7  -3  -3  291.83  100.76
   7   3  -3  477.90  110.14
   7   3  -3  381.69   87.12
   7   3   3  284.16  102.66
  -7  -3   3  369.77   96.69
   7   3   3  349.63   90.83
   7   2  -3   37.04   29.01
   7   2  -3    6.47   25.19
   7   2  -3   47.34   14.82
  -7  -2  -3   17.07   39.06
   7   2  -3  -59.56   55.84
  -7  -2   3  -22.20   35.11
   7   2   3   20.65   51.50
   7   2   3   54.32   28.61
  -7  -2   3   51.35   17.37
  -7  -2   3   -8.42   37.73
  -7  -1  -3   29.15   39.27
   7   1  -3  -15.06   54.25
   7   1  -3   19.01   24.75
   7   1  -3   51.87   14.46
   7   1  -3   29.53   30.30
   7   1   3   37.41   27.20
   7   1   3   26.14   14.82
  -7  -1   3   28.29   34.79
  -7  -1   3   26.89   44.20
  -7  -1   3   27.67   40.57
   7   0  -3  637.90  184.60
   7   0  -3  616.73  153.90
  -7   0  -3  678.21  177.34
   7   0  -3  752.23  158.35
   7   0  -3  585.86  180.59
   7   0   3  591.13  153.32
  -7   0   3  589.12  165.52
  -7   0   3  761.62  214.75
   7  -1  -3    5.18   19.89
  -7   1  -3   60.94   49.53
   7  -1  -3   61.60   49.95
  -7   1  -3   28.18   38.96
   7  -1  -3   38.93   31.08
   7  -1   3   32.88   28.53
   7  -1   3   99.09   60.17
  -7   1   3   20.25   40.43
   7  -2  -3  -15.10   51.54
  -7   2  -3  -12.12   40.66
   7  -2  -3   -7.15   31.66
   7  -2   3    7.91   29.75
   7  -2   3  -14.42   56.90
  -7   2   3   -6.03   42.61
  -7   3  -3  196.45   85.25
   7  -3   3  267.64   77.71
   7  -3   3  202.91   95.25
  -7   4  -3   30.79   51.01
   7  -4   3   17.16   65.72
   7  -4   3   77.34   37.58
   8   6  -3  396.00  133.24
   8   6  -3  621.64  146.79
   8   5  -3  191.82   83.48
   8   5  -3  236.33   64.01
   8   5  -3  171.31   64.07
  -8  -5   3  191.96   74.24
   8   4  -3  127.34   41.40
  -8  -4  -3  107.36   58.73
   8   4  -3   50.10   33.28
   8   4  -3  107.27   41.60
   8   4  -3    5.06   66.64
   8   4   3  103.06   46.81
  -8  -4   3   91.50   51.90
  -8  -4   3   97.75   31.36
   8   4   3   94.96   59.65
   8   3  -3  543.84  137.45
   8   3  -3  527.82  165.68
   8   3  -3  691.71  130.76
  -8  -3  -3  358.78  149.31
   8   3   3  734.93  134.18
  -8  -3   3  437.52  144.52
  -8  -3   3  536.57  136.38
   8   3   3  452.64  156.78
  -8  -2  -3  241.34   75.88
   8   2   3  249.91   92.48
   8   2   3  233.20   64.08
   8   2   3  244.77   65.38
   8   1  -3   22.74   43.44
  -8  -1  -3   69.49   50.92
   8   1  -3   24.24   36.37
   8   1  -3   95.52   21.02
  -8  -1  -3   79.00   26.79
   8   1  -3  -50.76   77.19
  -8  -1   3   26.98   63.61
  -8  -1   3   65.94   24.20
   8   1   3   73.11   23.59
  -8  -1   3   71.85   46.29
   8   1   3   34.66   35.24
  -8  -1   3   -1.57   56.25
   8   0  -3  -14.46   31.84
  -8   0  -3   -4.85   22.73
   8   0  -3   -9.98   43.73
   8   0  -3  -10.06   60.92
   8   0  -3   -9.20   14.72
  -8   0  -3   -4.56   50.34
  -8   0   3  -14.79   43.22
  -8   0   3  -20.95   59.54
   8   0   3   15.24   14.84
   8   0   3  -29.49   32.47
   8  -1  -3   38.92   62.23
  -8   1  -3   53.46   47.11
   8  -1  -3   74.33   26.29
  -8   1  -3   34.21   65.54
   8  -1  -3   95.50   37.49
   8  -1   3   80.17   38.31
   8  -1   3   33.66   76.38
  -8   1   3  152.62   49.94
   8  -2  -3  169.08   65.34
  -8   2  -3  283.22   73.37
   8  -2  -3  267.18   92.91
   8  -2  -3  153.43   69.48
   8  -2   3  159.35   92.48
   8  -2   3  259.22   65.61
  -8   2   3  255.00   80.68
  -8   3  -3  638.77  147.21
   8  -3  -3  442.83  144.28
   8  -3   3  628.79  155.88
   8  -3   3  625.85  140.68
  -8   3   3  439.47  157.33
  -8   4  -3  115.82   66.21
   8  -4   3  168.13   47.63
   8  -4   3   87.18   71.67
   8  -5   3  189.92   63.30
   9   6  -3   68.01   46.26
   9   6  -3  -47.60   73.94
   9   5  -3  927.72  264.31
   9   5  -3  851.12  241.77
   9   5  -3 1015.73  234.62
  -9  -5   3  882.49  255.23
   9   4  -3  554.46  163.60
   9   4  -3  740.32  188.51
   9   4  -3  512.56  152.43
   9   4  -3  650.66  164.07
  -9  -4  -3  557.87  175.69
   9   4   3  570.04  156.59
  -9  -4   3  717.03  166.44
   9   4   3  704.36  175.96
   9   3  -3  142.46   54.28
   9   3  -3   97.88   86.15
   9   3  -3  169.06   43.46
  -9  -3  -3  195.17   65.61
   9   3  -3  121.53   48.86
  -9  -3   3  112.66   43.51
   9   3   3  153.72   54.71
  -9  -3   3  146.08   62.67
   9   3   3  175.39   82.62
  -9  -3   3  167.46   62.64
   9   2  -3   55.82   32.66
   9   2  -3   -1.19   21.31
  -9  -2  -3   54.71   51.00
   9   2  -3  100.83   79.13
   9   2   3   -3.12   72.94
  -9  -2   3   71.19   20.93
   9   2   3   32.25   37.44
  -9  -2   3   29.83   52.81
   9   1  -3  -25.95   32.69
   9   1  -3  -49.79   74.61
  -9  -1  -3   16.92   54.67
  -9  -1   3    7.86   46.54
   9   1   3   13.91   34.52
  -9  -1   3   23.54   61.02
   9   1   3  -35.74   81.43
   9   0  -3  -11.99   36.34
  -9   0  -3  -44.89   57.86
   9   0  -3   25.82   71.14
   9   0  -3   -0.98   12.34
   9   0  -3   -4.46   46.60
  -9   0   3   -5.69   49.35
  -9   0   3   -6.07   70.66
  -9   0   3  -55.56   64.87
   9   0   3   33.95   34.55
   9  -1  -3   63.53   20.66
   9  -1  -3  -49.65   65.59
  -9   1  -3   36.08   70.23
  -9   1  -3   60.09   53.26
   9  -1  -3    2.63   39.37
   9  -1   3   55.78   36.40
  -9   1   3   41.51   54.63
   9  -2  -3   -1.83   25.22
   9  -2  -3   28.07   68.00
  -9   2  -3   54.79   54.54
   9  -2  -3   89.21   44.26
   9  -2   3   24.96   76.52
   9  -2   3   51.85   43.73
  -9   2   3   11.01   56.49
  -9   3  -3  183.60   71.90
   9  -3  -3  112.31   62.07
   9  -3  -3  298.78   82.79
  -9   3   3  194.80   73.31
   9  -3   3  157.23   58.19
   9  -3   3  167.58   82.32
  -9   4  -3  675.25  174.13
   9  -4   3  761.39  180.84
   9  -4   3  591.41  161.50
  -9   5  -3  801.46  251.86
   9  -5   3 1136.28  232.91
  10   6  -3  302.70  110.95
  10   6  -3  210.12   83.06
  10   5  -3  227.22   85.05
  10   5  -3  331.01   85.75
  10   5  -3  547.70  121.54
 -10  -5  -3  143.24   99.86
  10   5   3  293.68  107.08
 -10  -5   3  258.51   97.88
  10   4  -3  155.37   45.02
  10   4  -3  181.41   54.47
 -10  -4  -3  161.06   74.75
  10   4  -3  124.97   93.87
  10   4  -3  100.90   52.84
 -10  -4   3  133.23   43.48
 -10  -4   3  146.68   65.72
  10   4   3  101.14   86.23
  10   4   3   75.67   59.27
  10   3  -3   63.77   50.26
  10   3  -3   86.95   43.76
  10   3  -3  354.11   93.74
 -10  -3  -3  101.74   62.19
  10   3  -3   98.88   34.13
  10   3   3   55.41   47.78
 -10  -3   3  103.41   32.94
  10   3   3   90.52   88.75
 -10  -3   3   54.54   60.56
 -10  -3   3   66.86   56.28
  10   2  -3  109.10   37.34
 -10  -2  -3  125.66   66.05
  10   2  -3  200.41   98.94
  10   2  -3  120.01   49.07
  10   2  -3  106.91   54.14
  10   2   3   97.58   96.33
 -10  -2   3  115.36   38.62
 -10  -2   3  141.83   71.12
  10   2   3  136.81   49.48
 -10  -2   3  176.29   67.70
 -10  -1  -3  173.95   76.82
  10   1  -3  228.51   95.92
  10   1  -3  165.67   55.18
  10   1   3  194.11   57.04
  10   1   3  295.73  106.43
 -10  -1   3  245.94   70.65
 -10  -1   3  148.94   82.62
  10   0  -3   -8.23   43.00
 -10   0  -3   36.32   67.27
  10   0  -3  -87.68   83.13
 -10   0   3   -3.31   63.73
  10   0   3    2.58   39.59
 -10   0   3   27.56   80.86
 -10   1  -3  152.64   92.38
  10  -1  -3  231.18   64.53
  10  -1  -3  176.90   90.64
  10  -1   3  282.68   64.10
 -10   1   3  205.25   76.48
 -10   2  -3  117.94   73.25
  10  -2  -3  130.85   59.02
 -10   2  -3  145.10   93.67
  10  -2  -3  151.42   87.56
  10  -2   3  189.98   57.97
 -10   2   3  223.12   76.14
  10  -2   3   77.57   97.02
 -10   3  -3   87.35   70.78
  10  -3  -3  136.72   84.44
  10  -3  -3   51.50   54.47
 -10   3   3  135.90   73.58
  10  -3   3   14.10   87.12
  10  -3   3  141.70   53.45
 -10   4  -3    8.89   78.07
  10  -4   3  245.32   95.58
  10  -4   3   70.63   54.62
 -10   5  -3  312.49  103.04
  10  -5   3  212.46   82.51
  10  -5   3  262.36  112.20
  11   7  -3   -3.83  100.44
  11   7  -3  -49.51   58.27
  11   6  -3  -30.78   99.52
 -11  -6   3   -3.79   76.61
  11   5  -3   76.94  108.42
 -11  -5  -3  134.02   80.59
  11   5  -3  178.04   62.49
  11   5   3   -3.79   92.52
 -11  -5   3   75.69   72.59
 -11  -4  -3   74.49   74.87
  11   4  -3   93.66  106.27
  11   4  -3   91.16   50.74
  11   4   3   -7.74  105.67
 -11  -4   3  159.70   68.36
  11   4   3    3.79   55.46
 -11  -3  -3   31.20   69.56
  11   3  -3  255.62  108.59
  11   3  -3   34.18   46.20
  11   3   3   97.39   50.91
  11   3   3   11.92  106.36
 -11  -3   3   47.59   69.94
  11   2  -3  146.79  102.79
 -11  -2  -3   21.03   69.03
  11   2  -3   -2.78   44.46
  11   2   3   -4.15  105.76
  11   2   3   86.42   47.27
 -11  -2   3   -9.01   72.13
 -11  -2   3  -17.51   68.77
 -11  -1  -3   18.83   70.85
  11   1  -3  -18.99  100.18
  11   1  -3    2.80   42.28
  11   1   3   -4.27  110.06
  11   1   3   41.33   45.17
 -11  -1   3  -57.83   86.11
 -11  -1   3    3.60   69.37
  11   0  -3  354.60  106.90
  11   0  -3  398.45  138.11
 -11   0  -3  437.26  132.84
 -11   0   3  350.82  120.66
  11   0   3  403.40  101.75
 -11   0   3  321.45  149.04
  11  -1  -3  -54.66   84.74
 -11   1  -3   19.13   92.04
  11  -1  -3    3.33   51.94
  11  -1   3  -24.81   48.84
 -11   1   3   64.83   73.04
 -11   2  -3  -12.60   76.82
  11  -2  -3  -45.45   88.86
  11  -2  -3   46.03   57.59
 -11   2  -3   62.28  103.40
 -11   2   3  132.97   77.49
  11  -2   3   11.87  102.69
  11  -2   3   50.06   52.45
  11  -3  -3  -16.06   92.06
  11  -3  -3   14.96   56.29
 -11   3  -3   44.60   77.69
  11  -3   3  101.71   98.24
 -11   3   3  108.89   79.82
  11  -3   3    3.44   56.20
 -11   4  -3  -58.89   91.78
  11  -4   3    3.55   56.62
 -11   5  -3   96.98   90.91
  11  -5   3    3.67   58.80
  11  -5   3 -320.98  114.69
  12   7  -3 -108.44  113.37
  12   6  -3  163.58  109.84
  12   6  -3  -76.48   64.90
 -12  -6   3   73.61   85.53
  12   5  -3   43.58  120.65
  12   5  -3   27.62   58.47
 -12  -5  -3   87.34   84.04
  12   5   3   42.53  108.89
 -12  -5   3  -31.28   75.85
  12   5   3   22.62   65.87
  12   4  -3    3.43   53.30
 -12  -4  -3   11.55   86.45
  12   4  -3  -22.23  120.62
 -12  -4   3  -37.95   76.28
  12   4   3  113.11  108.56
  12   4   3  -44.59   58.47
 -12  -3  -3   41.01   77.07
  12   3  -3  -13.33  117.91
  12   3  -3   50.72   47.37
  12   3   3   49.65  120.92
  12   3   3  -33.11   52.65
 -12  -3   3   -6.31   73.51
 -12  -2  -3  128.28   81.02
  12   2  -3  -52.35  120.43
  12   2  -3   65.86   56.20
  12   2   3    4.72  123.60
 -12  -2   3   67.83   83.92
  12   2   3  122.60   55.49
 -12  -2   3   81.94   86.93
  12   1  -3  432.36  133.13
  12   1  -3  208.02   78.89
 -12  -1  -3  230.93  115.99
  12   1   3   96.07  159.10
 -12  -1   3  410.48  104.46
 -12  -1   3  292.09  114.82
  12   1   3  241.54   81.51
  12   0  -3    3.45   59.61
  12   0  -3 -134.66  106.21
 -12   0   3  -81.36   84.16
  12   0   3 -113.46   64.95
 -12   0   3  -91.50  115.24
  12  -1  -3  356.04   83.40
  12  -1  -3  343.50  117.70
 -12   1  -3 -174.11  135.90
  12  -1   3   48.52   82.28
 -12   1   3  213.77  134.71
 -12   1   3  309.51   98.90
  12  -2  -3   99.95  102.48
  12  -2  -3  109.75   63.15
 -12   2  -3 -142.46  116.56
 -12   2  -3  114.38   86.81
  12  -2   3   70.24   65.91
 -12   2   3   24.56   88.28
 -12   3  -3  -10.19   95.87
  12  -3  -3   24.68   62.40
 -12   3  -3  147.79  116.89
  12  -3  -3  -48.02  104.07
  12  -3   3    4.34  106.21
 -12   3   3   75.42   89.68
  12  -3   3   34.56   66.00
 -12   4  -3  -21.76   96.65
  12  -4  -3   55.65   64.46
 -12   4   3   52.36   87.97
  12  -4   3   -4.46  107.07
  12  -4   3    3.91   66.80
 -12   5  -3   -5.88   80.60
  12  -5   3    3.98   63.28
  13   6  -3  -71.10   72.05
 -13  -6   3  -26.15   92.53
  13   6   3 -114.06  124.43
  13   5  -3  -28.88   73.57
  13   5   3 -144.40  137.13
 -13  -5   3   56.70   94.79
  13   4  -3  261.03  143.76
  13   4  -3   41.35   60.28
 -13  -4   3   73.76   84.28
  13   3  -3    9.93  137.07
  13   3  -3  -35.27   56.61
 -13  -3   3  -82.54   94.32
 -13  -3   3   67.21   87.82
  13   2  -3   24.99   59.29
  13   2  -3   -4.86  128.65
 -13  -2  -3  -37.90   89.07
 -13  -2   3  -15.45   96.09
  13   2   3   -3.69   61.81
 -13  -2   3  -73.20   95.39
 -13  -1  -3  -20.04   94.21
  13   1  -3    4.70  121.94
  13   1  -3  -25.21   57.32
  13   1   3  -25.89   60.92
 -13  -1   3    9.46   91.86
 -13  -1   3   17.11  110.67
  13   0  -3  119.69   68.56
 -13   0  -3   -4.33  110.49
  13   0  -3  136.12  120.97
 -13   0   3  197.51  127.29
  13   0   3   30.03   62.78
 -13   0   3  -39.26   91.71
  13  -1  -3 -165.57  114.49
  13  -1  -3   12.55   65.58
 -13   1  -3  -23.71  115.17
 -13   1   3  -26.28  126.42
  13  -1   3  -53.99   65.31
 -13   1   3  -31.10   92.35
  13  -2  -3  -73.80   73.55
  13  -2  -3   -4.58   96.96
 -13   5  -3   70.98  111.21
  13  -5   3    5.09  126.61
  14   7  -3  156.44  145.90
  14   6  -3  104.49  172.09
  14   6  -3  236.90   96.25
  14   6   3   21.41  149.75
 -14  -6   3  596.77  118.17
 -14  -5  -3  -65.73  106.30
  14   5  -3  167.06  156.18
  14   5   3   -5.15   75.71
  14   5   3  134.80  143.08
 -14  -4  -3   94.20  113.05
  14   4   3   -4.63   82.64
  14   4   3  659.23  167.65
 -14  -3  -3   33.81   95.21
  14   3   3  -63.62  153.60
  14   3   3   35.58   67.99
 -14  -2  -3  -21.28  102.78
  14   2   3  -33.70   68.17
  14   2   3   17.82  159.14
 -14  -1  -3  136.82  116.67
 -14  -1  -3  270.45  108.44
  14   1   3  104.71   69.77
  14   1   3    5.94  153.28
 -14   0  -3  135.50  134.34
 -14   0  -3  410.63  129.89
  14   0   3  248.76   92.19
  14   0   3    5.90  168.53
  14  -1  -3    4.95  127.42
 -14   1  -3   62.30  133.27
  14  -1   3  118.28  157.30
  14  -1   3  152.04   81.25
 -14   1   3   17.43  108.91
 -14   2  -3   50.09  139.90
  14  -2  -3  -35.23  126.71
  14  -2  -3  347.98   76.43
  14  -2   3 -294.27   75.78
 -14   2   3  445.32  139.92
 -14   2   3 -171.60  112.49
 -14   3  -3  132.88  145.64
  14  -3  -3   39.42   78.71
 -14   3  -3   57.86  115.56
  14  -3  -3   62.17  122.76
  14  -3   3  253.35   78.29
  14  -3   3 -379.22  142.67
 -14   3   3   58.42  106.60
  14  -4  -3  441.84  115.44
 -14   4  -3  134.67  136.29
 -14   4  -3  475.23  166.17
  14  -4   3   19.10  105.67
  14  -4   3  934.77  159.55
 -14   4   3  103.17  134.50
 -14   5  -3   42.67  116.97
  14  -5   3   52.78   75.93
  14  -5   3   22.19  135.48
  14  -6   3  102.92   88.85
  15   8  -3 -287.43  185.03
  15   7  -3    6.04  162.83
  15   6  -3   21.49   81.98
 -15  -6  -3 -134.99  112.92
  15   6  -3    6.17  165.57
 -15  -6   3  132.23  114.04
  15   6   3  256.33  167.52
  15   5  -3    6.22  169.37
 -15  -5  -3   77.03  115.02
  15   5  -3  139.99   78.25
  15   5   3   90.80  167.14
 -15  -5   3  136.68  103.79
  15   5   3   -5.55   81.99
 -15  -4  -3  -29.73  106.77
  15   4  -3    9.08   73.04
  15   4  -3    6.20  168.04
  15   4   3 -214.22  170.89
 -15  -4   3   75.39  122.20
 -15  -4   3  143.82  106.65
  15   4   3  -50.55   74.86
  15   3  -3  -36.68  170.83
  15   3  -3  -26.09   71.36
 -15  -3  -3  -51.86  111.16
 -15  -3   3   58.34  117.33
  15   3   3 -220.19  183.24
  15   3   3   39.33   75.65
 -15  -3   3  254.64  110.75
 -15  -2  -3  -47.76  117.71
  15   2  -3   47.74  162.01
  15   2  -3   22.21   72.61
 -15  -2  -3   -6.30  129.68
  15   2   3   14.07   74.58
 -15  -2   3   72.44  115.06
  15   2   3  -78.87  182.53
 -15  -2   3 -159.83  120.57
 -15  -1  -3 -115.13  117.97
 -15  -1  -3   38.07  125.61
  15   1  -3  -13.70   75.48
  15   1  -3 -205.53  160.84
 -15  -1   3  -24.35  124.59
 -15  -1   3  -53.16  137.25
  15   1   3    6.58  179.88
  15   1   3    4.65   71.67
 -15   0  -3    6.61  128.85
 -15   0  -3  -21.59  131.47
  15   0  -3  -76.68   87.57
  15   0  -3 -133.88  149.33
 -15   0   3 -100.08  154.48
 -15   0   3  143.10  121.49
  15   0   3    6.49  178.17
  15   0   3    9.59   74.84
  15  -1  -3  -82.00  141.34
 -15   1  -3 -172.64  146.42
 -15   1  -3   75.08  137.96
  15  -1  -3  -50.66   86.96
  15  -1   3  355.15  171.82
 -15   1   3  182.85  160.22
  15  -1   3   83.21   78.49
 -15   1   3  -91.00  117.83
  15  -2  -3    5.54  135.93
  15  -2  -3   21.40   84.28
 -15   2  -3   54.45  150.76
  15  -2   3    4.98   85.56
 -15   2   3   -6.82  118.22
 -15   2   3  -79.12  158.65
 -15   3  -3    7.22  131.90
  15  -3  -3    5.45   82.34
  15  -3  -3    5.66  132.84
 -15   3  -3   44.07  153.54
  15  -3   3  -25.82   84.59
 -15   3   3   78.74  118.44
 -15   4  -3   60.14  133.07
 -15   4  -3   76.04  152.30
  15  -4  -3   33.27   89.40
  15  -4   3   -5.96  150.88
 -15   4   3 -120.28  122.07
  15  -4   3    5.28   86.04
 -15   5  -3 -157.31  136.63
  15  -5   3   -6.07  143.97
  15  -5   3  -89.50   86.55
  15  -6   3  -37.44   88.44
  16   8  -3  280.06  198.23
  16   7  -3  224.93  199.35
 -16  -6  -3    6.37  128.29
  16   6  -3  -51.88   89.50
 -16  -6   3  -27.74  121.33
  16   6   3   13.32  186.92
 -16  -5  -3 -259.72  138.12
  16   5  -3 -727.51  213.36
  16   5  -3   -5.26   84.06
  16   5   3   -6.82  182.05
  16   5   3   36.05   95.14
 -16  -5   3 -115.95  120.55
  16   4  -3    5.01   76.58
 -16  -4  -3   -5.51  122.33
  16   4  -3   -6.85  186.98
  16   4   3    7.04  189.65
 -16  -4   3   68.10  117.27
  16   4   3   72.11   91.91
 -16  -4   3    6.45  132.49
 -16  -3  -3  -15.81  120.03
  16   3  -3   -4.96   77.10
  16   3  -3   -6.76  177.11
 -16  -3   3  104.06  132.54
  16   3   3    5.44   79.67
  16   3   3   57.35  200.72
 -16  -3   3  -15.04  121.50
 -16  -2  -3  -63.04  143.53
  16   2  -3   70.04   83.06
 -16  -2  -3  150.07  125.29
  16   2  -3   19.51  174.72
  16   2   3    5.23   84.70
  16   2   3 -238.49  191.85
 -16  -2   3  257.39  132.30
 -16  -2   3 -249.41  138.24
  16   1  -3  245.58  164.39
  16   1  -3   -5.20   83.39
 -16  -1  -3   22.42  135.13
 -16  -1  -3  -35.92  147.40
  16   1   3  182.03  196.41
 -16  -1   3   23.62  146.10
  16   1   3   72.43   85.70
 -16  -1   3  212.00  135.43
 -16   0  -3  -66.19  142.82
  16   0  -3  104.73  159.26
 -16   0  -3  323.51  147.59
  16   0  -3  -10.65   88.61
 -16   0   3  275.77  160.97
  16   0   3  -35.32  192.62
  16   0   3    5.40   89.47
 -16   0   3  -56.54  135.04
 -16   1  -3   -7.66  145.51
  16  -1  -3    6.04  145.16
  16  -1  -3 -217.61   94.82
 -16   1  -3   31.46  151.54
 -16   1   3  203.49  135.23
  16  -1   3    6.86  187.08
  16  -1   3   92.01   93.50
 -16   1   3  -55.35  175.67
  16  -2  -3  111.03   98.84
 -16   2  -3   59.87  168.67
  16  -2  -3    6.10  154.18
  16  -2   3  -66.26   91.53
 -16   2   3 -408.97  191.18
 -16   2   3   91.09  129.90
  16  -3  -3    6.04   95.98
 -16   3  -3 -429.42  180.22
  16  -3  -3   -6.21  144.43
  16  -3   3   -5.65   94.63
 -16   3   3  -31.81  131.80
 -16   3   3  167.57  185.67
 -16   4  -3  199.29  175.03
 -16   4  -3  159.65  154.98
  16  -4  -3  127.71  103.06
  16  -4   3   -6.57  158.52
  16  -4   3   28.80   98.61
 -16   4   3    8.24  134.61
 -16   5  -3  -78.59  151.27
 -16   5  -3   27.60  175.88
  16  -5   3  -70.27   96.26
  16  -5   3 -366.98  168.51
  17   8  -3 -939.06  303.22
  17   7  -3   -7.57  201.59
 -17  -7   3  -31.71  126.28
  17   6  -3    6.22   90.27
  17   6  -3   15.17  207.40
 -17  -6  -3   62.65  131.68
  17   6   3  322.24  210.63
 -17  -6   3  -97.26  129.77
  17   5  -3    5.76   91.35
  17   5  -3  377.65  217.40
 -17  -5  -3  -53.33  141.95
  17   5   3   68.71  217.56
 -17  -5   3  173.49  130.69
 -17  -5   3   92.98  148.43
  17   5   3   52.43   99.53
 -17  -4  -3  122.76  134.70
  17   4  -3   17.07   88.26
  17   4  -3   -7.50  208.80
 -17  -4   3 -268.67  153.43
  17   4   3    7.82  210.70
 -17  -4   3   48.92  130.08
  17   4   3   50.11   96.09
  17   3  -3   60.80   92.46
 -17  -3  -3  -53.33  156.76
 -17  -3  -3  -89.51  134.96
  17   3  -3  287.98  202.66
  17   3   3    6.03   87.14
 -17  -3   3   -5.63  139.62
  17   3   3 -165.94  218.82
 -17  -3   3   66.71  152.58
  17   2  -3    5.55   92.32
 -17  -2  -3   84.20  142.76
 -17  -2  -3   55.18  158.73
  17   2   3 -342.70  219.54
 -17  -2   3 -198.16  154.95
 -17  -2   3 -308.89  155.92
  17   2   3  -17.48   97.03
 -17  -1  -3 -144.21  157.39
  17   1  -3 -631.23  200.72
 -17  -1  -3   65.34  168.86
  17   1  -3  -92.73  105.91
  17   1   3 -477.37  235.83
  17   1   3    5.88  104.77
 -17  -1   3 -295.34  158.72
 -17  -1   3  -19.73  178.84
  17   0  -3 -172.95  111.32
 -17   0  -3  -59.40  175.46
  17   0  -3   33.76  183.47
 -17   0  -3 -109.25  178.12
 -17   0   3 -216.86  191.55
 -17   0   3  -55.43  158.80
  17   0   3 -478.20  231.78
  17   0   3 -430.47  108.75
  17  -1  -3  -30.57  106.60
 -17   1  -3 -209.48  171.01
  17  -1  -3 -308.36  176.45
 -17   1  -3   -6.95  173.63
 -17   1   3 -360.58  213.14
 -17   1   3  -98.45  155.93
  17  -1   3 -122.43  100.52
  17  -2  -3   -6.38  103.29
 -17   2  -3  -35.86  181.77
  17  -2  -3 -382.53  177.98
 -17   2   3   84.59  151.78
  17  -2   3  176.67  101.42
 -17   2   3   31.09  197.36
  17  -2   3  -29.46  193.61
  17  -3  -3 -320.35  186.63
 -17   3  -3  132.26  177.73
  17  -3  -3  -13.28  109.07
  17  -3   3  111.14  102.24
 -17   3   3 -491.42  248.14
 -17   3   3  167.27  159.07
 -17   4  -3  -30.03  187.24
  17  -4  -3   13.39  112.28
 -17   4  -3  -76.24  166.02
 -17   4   3 -363.77  272.82
  17  -4   3    6.28  108.70
 -17   4   3   -9.07  150.29
 -17   5  -3   77.81  168.98
 -17   5  -3  232.44  196.62
  17  -5   3 -250.76  107.96
  17  -5   3 -206.11  176.25
  18   8  -3  132.96  232.42
  18   7  -3 -467.00  242.13
 -18  -7   3  110.42  139.57
  18   6  -3  607.13  267.34
  18   6  -3   -6.76  128.59
 -18  -6   3  308.89  203.96
 -18  -6   3  -53.52  176.59
 -18  -5  -3  -44.43  161.52
  18   5  -3    6.49   99.88
  18   5  -3 -273.75  235.29
 -18  -5   3  -23.79  163.08
 -18  -5   3 -155.76  151.10
  18   5   3 -110.52  228.62
  18   5   3   -7.20  110.18
  18   4  -3    8.24  226.05
 -18  -4  -3   27.46  151.72
 -18  -4  -3  -41.61  175.80
  18   4  -3   31.46   96.26
 -18  -4   3 -120.84  165.40
  18   4   3   25.71  237.76
  18   4   3    6.94  103.73
 -18  -4   3  -55.38  144.59
 -18  -3  -3  109.85  182.41
 -18  -3  -3 -241.13  152.14
  18   3  -3  -64.11  208.47
  18   3  -3   61.53   97.85
 -18  -3   3 -386.27  171.49
 -18  -3   3   75.77  153.21
  18   3   3   -8.71  236.23
  18   3   3   26.81  104.03
 -18  -2  -3  182.19  157.11
  18   2  -3   62.93  103.02
 -18  -2  -3  165.90  176.47
  18   2  -3  303.08  215.58
  18   2   3  -20.14  102.64
 -18  -2   3    6.72  164.76
 -18  -2   3  -93.82  167.54
  18   2   3 -289.40  239.50
 -18  -1  -3 -125.55  166.40
  18   1  -3 -342.72  203.62
 -18  -1  -3   36.99  189.31
  18   1  -3   -6.50  102.02
  18   1   3  639.11  243.92
  18   1   3   13.06  105.91
 -18  -1   3  165.89  174.86
 -18  -1   3  478.50  173.27
  18   0  -3    6.61  106.07
 -18   0  -3   21.98  178.27
  18   0  -3  289.81  194.52
 -18   0  -3 -332.81  189.46
  18   0   3   33.50  108.74
 -18   0   3  -15.45  196.10
  18   0   3  143.70  224.67
 -18   0   3   45.02  173.02
  18  -1  -3    7.42  184.38
 -18   1  -3   -9.76  189.79
 -18   1  -3  -99.13  188.97
  18  -1  -3    6.80  108.43
  18  -1   3  266.14  215.99
  18  -1   3 -380.21  115.48
 -18   1   3  320.86  172.21
 -18   1   3    8.10  208.74
  18  -2  -3   97.93  119.27
  18  -2  -3   59.18  179.02
 -18   2  -3 -182.15  188.84
 -18   2  -3  419.38  203.57
  18  -2   3 -162.35  208.16
 -18   2   3   84.70  214.84
 -18   2   3 -200.55  173.49
  18  -2   3   20.36  110.40
 -18   3  -3  144.41  210.12
  18  -3  -3  -14.42  115.60
  18  -3  -3  -22.52  186.37
 -18   3   3   19.55  168.14
 -18   3   3  266.54  223.39
  18  -3   3  190.73  118.48
  18  -4  -3   -7.39  123.65
 -18   4  -3  -56.63  207.83
 -18   4   3  250.54  155.81
 -18   4   3  -34.49  218.96
  18  -4   3 -460.91  116.54
 -18   5  -3  -43.45  187.74
 -18   5  -3 -276.38  207.73
  18  -5   3 -382.67  204.65
  19   7  -3    9.12  252.74
 -19  -7   3  401.51  194.45
  19   6  -3   -7.38  108.95
 -19  -6  -3 -135.39  172.11
  19   6  -3    9.11  257.70
  19   6   3   93.32  255.23
 -19  -6   3  148.62  185.43
 -19  -6   3  111.33  160.43
  19   5  -3 -536.40  254.25
  19   5  -3    7.18  112.38
 -19  -5  -3 -198.24  180.99
 -19  -5   3  -80.09  185.49
  19   5   3   -7.94  116.12
 -19  -5   3  -71.61  164.18
  19   5   3    9.36  261.42
  19   4  -3   -6.98  103.24
 -19  -4  -3 -285.42  175.01
 -19  -4  -3  322.20  195.25
  19   4  -3 -205.40  246.06
 -19  -4   3 -137.97  161.78
  19   4   3   -9.43  255.66
  19   4   3   23.20  114.32
 -19  -4   3 -173.57  195.60
 -19  -3  -3  294.34  200.47
 -19  -3  -3 -112.93  166.78
  19   3  -3 -467.40  235.07
  19   3  -3  106.04  115.16
  19   3   3   -7.45  116.22
 -19  -3   3  -77.88  168.34
  19   3   3   -9.57  254.90
 -19  -3   3 -149.25  189.23
 -19  -2  -3 -742.65  229.71
 -19  -2  -3 -259.68  208.51
  19   2  -3  -76.80  127.16
 -19  -2   3 -202.91  199.89
 -19  -2   3 -433.02  210.50
 -19  -1   3 -541.59  238.15
 -19  -1   3-1000.00  262.64
  19   1   3   -7.46  178.87
  19   0  -3 -965.38  261.12
 -19   0  -3 -458.33  237.72
 -19   0  -3  150.67  251.29
 -19   0   3 -720.83  267.52
 -19   0   3  -90.62  228.43
  19  -1  -3 -470.00  149.05
 -19   1  -3 -817.49  246.37
 -19   1  -3 -356.40  242.08
 -19   1   3 -384.36  221.38
 -19   1   3 -337.05  267.79
  19  -2  -3 -365.56  138.69
 -19   2  -3 -144.83  223.58
  19  -2  -3 -647.38  216.67
 -19   2  -3 -294.91  233.57
 -19   2   3   10.66  203.22
 -19   2   3 -155.44  236.76
  19  -2   3   22.87  135.79
 -19   3  -3  137.82  222.24
  19  -3  -3 -248.70  202.91
  19  -3  -3  110.01  127.43
 -19   3   3 -111.22  231.25
  19  -3   3 -143.36  232.80
 -19   3   3   76.10  188.31
  19  -3   3    7.49  124.71
 -19   4  -3  -95.84  228.22
  19  -4  -3 -177.13  127.00
 -19   4   3  354.91  235.91
  19  -4   3    7.51  128.23
 -19   5  -3   61.43  229.07
 -19   5  -3   12.21  205.60
  19  -5   3 -641.52  213.35
  19  -5   3  106.62  130.82
  20   6  -3   56.51  123.15
  20   6  -3  338.94  284.12
 -20  -6   3   16.49  174.77
 -20  -6   3 -234.60  208.98
  20   5  -3 -111.54  127.13
  20   5  -3  226.62  273.60
 -20  -5   3  321.60  217.61
 -20  -5   3 -297.54  187.07
  20   4  -3   28.82  261.19
  20   4  -3 -357.28  127.21
 -20  -4  -3 -312.67  198.96
 -20  -4   3 -162.85  181.10
  20   4   3 -147.15  134.80
 -20  -4   3  247.30  219.58
  20   3  -3 -377.36  259.33
  20   3  -3    7.85  124.41
 -20  -3  -3 -195.11  187.99
  20   3   3   17.06  127.81
 -20  -3   3  -52.57  215.73
 -20  -3   3  264.30  196.74
 -20  -2  -3    8.57  192.96
 -20  -2  -3 -324.14  231.09
  20   2  -3   95.39  131.27
  20   2  -3   65.19  243.48
 -20  -2   3  172.23  225.52
  20   2   3   -8.33  133.64
 -20  -2   3    8.33  204.61
 -20  -1  -3  173.94  207.88
  20   1  -3  164.02  237.57
  20   1  -3 -464.03  129.97
 -20  -1   3   89.25  207.03
 -20  -1   3  -43.90  218.05
  20   1   3   10.20  275.16
  20   1   3    8.32  131.81
  20   0  -3    8.35  129.48
  20   0  -3  217.55  229.86
 -20   0  -3 -240.65  218.49
 -20   0   3  192.96  214.94
  20   0   3 -133.76  143.94
 -20   0   3   74.67  233.71
  20  -1  -3    9.04  226.93
  20  -1  -3  -16.70  139.56
 -20   1  -3  -87.79  240.44
 -20   1  -3   54.79  229.25
  20  -1   3   33.42  141.38
 -20   1   3  163.12  247.52
 -20   1   3  836.37  225.33
  20  -2  -3 -194.45  139.99
 -20   2  -3   46.51  234.75
  20  -2  -3    9.06  224.59
 -20   2   3  362.74  258.63
  20  -2   3 -236.21  147.67
 -20   2   3 -559.88  219.19
  20  -3  -3   -8.58  136.40
 -20   3   3 -109.66  255.26
 -20   3   3  194.71  174.65
   0   0  -4 3121.42  837.34
   0   0   4 3331.70  892.02
   0   1  -4   -6.78    6.81
   1   0  -4   -1.01   10.72
   0   1  -4    1.25    3.91
  -1   0  -4   -3.50    5.58
  -1   0   4   -0.91   13.25
   1   0   4    0.77   11.10
   0  -1   4   -2.21    7.26
  -1   1  -4   27.36    7.66
   1   1  -4   27.21   11.41
  -1   1  -4   32.26   10.23
  -1   1  -4   21.91    9.82
  -1  -1   4   31.63   11.99
   1  -1   4   22.87   12.19
   1  -1   4   33.86   10.64
   1  -1   4   26.92    8.26
   2   1  -4   24.48    6.00
   2   1  -4   13.70    6.23
  -1   2  -4   13.28    9.11
  -1   2  -4   19.55    9.47
  -1   2  -4   21.83    6.05
   2   1  -4    7.21   11.68
   2   1  -4   10.33   11.17
  -2  -1   4    8.65    8.91
   1  -2   4   17.73    6.02
  -2  -1   4    9.08   12.38
   0   2  -4  888.25  205.46
  -2   0  -4  797.90  210.58
   2   0  -4  779.16  197.65
   2   0   4  810.41  219.67
   2   0   4 1039.64  197.92
   0  -2   4  969.76  192.48
   1   2  -4    9.13   10.18
  -2   1  -4   15.18    4.64
  -2   1  -4   12.84    7.98
  -2   1  -4    5.08   11.56
   2  -1   4    9.58    7.23
   2  -1   4   14.29   15.18
   2  -1   4    9.95    7.92
   2   2  -4  310.15   79.07
  -2   2  -4  228.97   86.02
  -2   2  -4  233.54   82.46
   2   2  -4  363.22   92.91
   2   2  -4  322.57   83.31
   2   2  -4  295.23   77.17
  -2   2  -4  383.86   86.45
   2  -2   4  399.96   92.59
   2  -2   4  404.70   77.96
  -2  -2   4  378.45   84.73
   2  -2   4  313.48   82.27
  -2  -2   4  295.39   77.70
   3   2  -4  480.61  120.42
   3   2  -4  644.68  129.98
   3   2  -4  443.26  142.88
   3   2  -4  482.87  130.16
  -3  -2   4  611.44  137.05
  -3  -2   4  383.65  121.95
   3   1  -4  133.04   43.07
   3   1  -4  173.48   33.62
  -3  -1  -4  117.18   40.40
   3   1  -4  182.47   33.14
   3   1  -4  184.54   37.87
   3   1   4  118.26   40.63
  -3  -1   4  151.93   36.32
  -3  -1   4  114.52   40.68
   3   1   4  104.19   36.72
  -3   0  -4   -1.69   13.03
   3   0  -4    2.90    9.07
   0   3  -4   -3.66    7.34
   3   0  -4   -0.92   15.38
   3   0  -4    9.89   16.48
   0  -3   4   -5.15    6.49
   3   0   4   10.17   17.53
   3   0   4   -8.66    9.77
  -3   0   4    2.34   20.88
  -3   0   4  -14.09   14.28
  -3   1  -4  148.08   40.05
   3  -1   4  128.37   33.35
   3  -1   4  121.01   42.64
   2   3  -4  598.91  135.42
  -3   2  -4  341.65  130.43
   2   3  -4  598.09  127.13
   3  -2   4  538.79  144.94
  -2  -3   4  572.12  123.76
   3  -2   4  452.48  128.13
  -3   3  -4  822.32  243.23
   3   3  -4  940.04  214.76
   3   3  -4  791.49  249.05
   3   3  -4  959.62  229.17
  -3  -3   4  809.73  210.93
   3  -3   4 1059.77  247.40
   4   3  -4  558.15  136.61
   4   3  -4  580.32  128.49
   4   3  -4  590.94  133.77
   4   3  -4  486.74  150.50
  -4  -3   4  610.20  141.65
  -4  -2  -4  197.21   96.18
   4   2  -4  355.57   80.82
   4   2  -4  263.48   89.12
   4   2  -4  359.52   98.42
   4   2  -4  364.05   85.48
  -4  -2   4  382.77   82.53
   4   2   4  302.00   91.44
  -4  -2   4  407.64   92.15
  -4  -1  -4   -5.82   18.18
   4   1  -4   12.92    7.84
   4   1  -4    9.01   10.91
   4   1  -4   11.28   23.57
   4   1  -4    1.06   16.34
  -4  -1   4   10.99   21.48
   4   1   4    9.42   15.58
  -4  -1   4   15.42   15.84
   4   1   4    2.69   23.62
  -4  -1   4   10.22   21.03
   4   0  -4 1621.80  378.71
   4   0  -4 1433.47  425.69
  -4   0  -4 1343.03  397.44
   4   0  -4 1833.59  369.52
  -4   0   4 1590.89  445.21
   4   0   4 1597.55  362.32
   4   0   4 1533.23  421.00
  -4   0   4 1222.52  402.38
  -4   1  -4   -3.66   24.60
   4  -1   4   25.94   27.98
  -4   1   4   -1.70   20.35
   4  -1   4    5.05   13.12
  -4   2  -4  297.75   86.68
   4  -2   4  272.05   98.32
   4  -2   4  430.21   85.51
  -4   3  -4  233.32  120.14
   4  -3   4  299.71  111.41
   4  -3   4  474.26  128.81
   4   4  -4  494.51  140.85
   5   4  -4  190.61   52.87
   5   4  -4  119.97   39.31
  -5  -4   4  132.33   37.60
   5   3  -4   12.40   26.31
   5   3  -4   68.71   24.27
   5   3  -4   73.96   37.87
  -5  -3   4   46.34   29.00
   5   2  -4  472.19  114.90
   5   2  -4  383.24  124.35
   5   2  -4  473.44  112.13
   5   2  -4  403.63  137.43
  -5  -2   4  480.17  125.88
  -5  -2   4  521.06  114.96
  -5  -2   4  483.09  132.46
   5   1  -4  771.84  218.88
   5   1  -4  791.36  197.78
   5   1  -4  753.08  181.60
  -5  -1   4  943.71  189.49
  -5  -1   4  636.10  219.39
  -5  -1   4  692.36  209.46
   5   0  -4   -6.05   12.88
  -5   0  -4   28.23   27.79
   5   0  -4    1.58   27.00
   5   0  -4    9.08   17.19
   5   0  -4   15.55   33.61
  -5   0   4    4.65   35.14
  -5   0   4  -14.45   25.85
   5   0   4    3.73   16.61
  -5   1  -4  799.90  213.01
   5  -1  -4  868.70  198.29
   5  -1  -4  669.42  215.73
   5  -1   4  831.00  184.29
  -5   1   4  671.65  212.39
  -5   4  -4  172.73   56.44
   5   5  -4  134.77   41.77
  -5  -5   4   95.11   33.61
   6   5  -4   97.05   54.82
   6   5  -4  213.44   45.38
  -6  -5   4   75.32   37.28
   6   4  -4    3.13   19.05
   6   4  -4   34.93   30.25
  -6  -4   4   15.93   18.02
  -6  -3  -4   35.20   36.12
  -6  -2  -4 2037.16  366.41
   6   2  -4 1592.27  357.91
   6   2   4 1545.37  345.70
  -6  -2   4 1704.67  374.80
   6   1  -4    7.08   28.32
  -6  -1  -4  -12.70   31.86
   6   1  -4    6.10   12.18
   6   1   4   12.01   43.06
   6   1   4  -19.79   23.66
  -6  -1   4    2.60   37.17
   6   0  -4  253.19   77.24
   6   0  -4  378.79   91.18
  -6   0  -4  289.73   90.24
  -6   0   4  220.25  106.59
   6   0   4  413.11  102.14
   6   0   4  395.86   77.60
  -6   1  -4   14.84   43.53
   6  -1  -4    9.74   20.69
   6  -1  -4   -4.05   41.36
   6  -1   4   -1.52   22.54
  -6   1   4    4.72   37.31
   6  -1   4   -8.28   52.57
  -6   2  -4 1853.69  364.26
  -6   2   4 1636.27  390.13
   6  -2   4 2270.61  364.27
   6  -2   4 1619.95  385.88
  -6   3  -4    7.42   38.11
   6  -3   4   13.07   29.00
   6  -3   4   29.02   49.39
  -6   4  -4  -24.44   44.96
   6  -4   4   33.31   51.94
   6  -4   4   10.47   29.69
   7   6  -4  220.04   85.37
   7   6  -4  251.62   74.47
   7   5  -4  159.03   50.65
   7   5  -4  199.12   56.35
   7   5  -4  233.25   72.45
  -7  -5   4  151.94   49.49
   7   4  -4  -46.75   66.58
   7   4  -4  -15.67   40.74
   7   4  -4   54.98   24.48
   7   4  -4   14.68   38.25
  -7  -4   4   44.36   26.68
  -7  -4   4 -135.77   65.52
   7   3  -4   79.00   54.03
   7   3  -4   16.37   18.76
   7   3  -4    5.34   27.11
  -7  -3  -4   -4.86   44.47
   7   3   4   50.53   50.81
   7   3   4   92.41   35.81
  -7  -3   4   57.12   38.91
  -7  -3   4   37.36   18.87
   7   2  -4  -52.64   56.56
   7   2  -4   12.43   23.46
  -7  -2  -4  -11.78   38.06
  -7  -2   4    1.66   39.94
   7   2   4    2.21   31.20
   7   1  -4   69.32   18.56
   7   1  -4   30.82   36.21
   7   1  -4   27.62   52.93
   7   1  -4   63.88   27.05
  -7  -1  -4   55.18   40.00
   7   1   4   58.09   19.25
  -7  -1   4   64.57   48.80
  -7  -1   4   44.48   44.68
   7   1   4   71.56   30.68
  -7  -1   4   38.00   37.58
   7   0  -4    4.25   15.39
   7   0  -4  -14.06   39.18
   7   0  -4   10.78   26.34
   7   0  -4   28.21   51.08
  -7   0  -4    7.66   40.96
   7   0   4  -29.37   57.18
  -7   0   4    2.19   36.11
  -7   0   4   20.34   51.49
   7   0   4   -8.63   24.78
   7  -1  -4   55.96   26.61
   7  -1  -4   51.21   51.75
  -7   1  -4   55.60   40.90
   7  -1  -4   40.49   32.33
  -7   1  -4   39.66   51.55
   7  -1   4   41.32   27.89
   7  -1   4   24.57   61.17
  -7   1   4   76.76   43.98
  -7   2  -4   19.15   41.81
   7  -2  -4   19.76   32.83
   7  -2  -4   -7.64   49.71
  -7   2   4   -9.33   43.63
   7  -2   4   29.35   58.84
   7  -2   4   39.01   30.68
  -7   3  -4   22.03   43.93
   7  -3   4   46.86   33.57
   7  -3   4   47.94   58.39
  -7   4  -4   90.32   58.87
   7  -4   4   58.96   69.64
   7  -4   4  192.41   44.22
   7  -5   4  136.67   52.10
   8   6  -4   43.73   44.79
   8   6  -4  109.78   65.17
   8   5  -4  126.49   55.17
   8   5  -4  132.47   47.67
   8   5  -4  103.88   74.89
   8   5  -4  188.64   55.92
  -8  -5   4  146.13   45.45
  -8  -5   4  260.27   64.24
  -8  -4  -4   30.05   58.76
   8   4  -4  173.13   71.52
   8   4  -4  118.00   46.02
   8   4  -4   76.35   35.38
   8   4  -4  180.46   44.56
   8   4   4  129.99   63.95
  -8  -4   4  121.26   50.88
  -8  -4   4   84.18   35.25
   8   3  -4   -4.02   29.04
   8   3  -4   -1.35   19.29
   8   3  -4   10.19   37.26
  -8  -3  -4   25.82   49.17
   8   3  -4  -12.34   62.87
  -8  -3   4    6.14   20.41
  -8  -3   4   24.48   45.45
   8   3   4   18.38   61.07
   8   3   4   22.60   38.75
  -8  -3   4  -41.94   40.78
   8   2  -4   92.31   37.28
   8   2  -4   51.83   26.16
   8   2  -4   62.43   85.21
  -8  -2  -4   54.90   48.72
  -8  -2   4   54.90   28.73
  -8  -2   4 -176.51   73.63
   8   2   4   54.70   38.58
   8   1  -4  -48.95   36.00
  -8  -1  -4   -8.44   46.77
   8   1   4  -14.60   13.77
  -8  -1   4 -139.44   54.84
   8   1   4  -22.93   35.36
  -8  -1   4  -39.07   64.70
   8   0  -4   76.35   65.19
  -8   0  -4  156.73   59.58
   8   0  -4   12.47   80.68
   8   0  -4  179.75   42.90
  -8   0   4  152.19   56.45
   8   0   4   80.69   98.56
  -8   0   4  -16.30   87.54
   8   0   4  132.00   42.88
  -8   1  -4   -2.62   48.15
   8  -1  -4 -240.58   80.83
  -8   1  -4   41.18   60.46
   8  -1  -4  -28.74   37.77
  -8   1   4  -32.52   50.41
   8  -1   4  -27.05   37.51
   8  -1   4 -162.72   89.91
   8  -2  -4  151.42   77.20
   8  -2  -4  121.19   50.12
  -8   2  -4  111.41   55.52
   8  -2   4  135.39   46.27
  -8   2   4  144.99   64.30
   8  -2   4  165.34   78.36
  -8   3  -4   28.05   51.07
   8  -3   4  -39.86   64.79
   8  -3   4    7.26   36.30
  -8   4  -4   76.11   61.73
   8  -4   4   61.63   75.07
   8  -4   4  184.84   48.08
  -8   5  -4  168.13   67.75
   8  -5   4   86.85   52.32
   9   6  -4  642.58  198.51
   9   6  -4  684.31  179.32
   9   5  -4  176.46   79.49
   9   5  -4   64.52   47.55
   9   5  -4   66.51   36.83
   9   5  -4   65.16   48.48
  -9  -5   4  105.19   34.57
  -9  -5   4  103.24   60.20
   9   4  -4  985.86  245.98
  -9  -4  -4  562.76  231.81
   9   4  -4  851.01  218.62
   9   4  -4  813.47  212.90
   9   4  -4  884.62  201.37
  -9  -4   4  869.36  210.10
   9   4   4  577.87  205.89
   9   4   4  770.66  224.63
  -9  -4   4 1079.76  218.41
  -9  -3  -4  106.57   62.84
   9   3  -4   64.35   53.62
   9   3  -4  163.84   85.30
   9   3  -4  134.55   43.48
   9   3  -4  124.05   37.97
  -9  -3   4  158.03   38.86
  -9  -3   4  144.05   59.04
   9   3   4  153.47   79.79
   9   3   4  115.57   52.97
  -9  -3   4  138.96   58.45
   9   2  -4  161.60   45.17
   9   2  -4  161.69   61.41
  -9  -2  -4   94.88   66.30
   9   2  -4  158.39   49.96
   9   2  -4  173.24   90.75
  -9  -2   4  137.22   63.84
  -9  -2   4  179.59   47.12
   9   2   4  208.40   55.00
  -9  -2   4  187.34   67.92
   9   2   4  223.28   91.76
  -9  -2   4  173.93   74.46
   9   1  -4  -20.17   73.39
   9   1  -4   -6.53   33.95
   9   1  -4   -5.41   16.24
  -9  -1  -4    2.44   51.28
  -9  -1   4   34.84   50.38
  -9  -1   4  -18.56   63.49
   9   1   4    4.72   35.56
   9   0  -4   33.67   35.63
   9   0  -4  -48.26   70.52
  -9   0  -4  -46.60   61.64
   9   0   4  -73.58   85.50
  -9   0   4  -11.64   50.63
   9   0   4   16.06   34.80
   9  -1  -4    2.67   40.03
  -9   1  -4   32.23   67.00
   9  -1  -4 -108.31   68.68
  -9   1  -4   -9.11   51.65
  -9   1   4    3.32   55.46
   9  -1   4   -6.59   80.20
   9  -1   4  -43.07   36.24
  -9   2  -4   77.17   66.53
  -9   2  -4  149.84   89.05
   9  -2  -4  246.88   81.34
   9  -2  -4  151.73   60.74
   9  -2   4  248.63   58.22
  -9   2   4  114.46   72.65
   9  -2   4  120.99   88.64
   9  -3  -4    3.28   51.09
  -9   3  -4  140.87   66.07
   9  -3   4  162.86   81.02
  -9   3   4   89.08   67.27
   9  -3   4   65.38   50.28
  -9   4  -4  770.13  222.08
   9  -4   4  837.01  230.04
   9  -4   4 1011.52  211.54
  -9   5  -4   -9.05   71.41
   9  -5   4   54.14   47.42
   9  -5   4  111.16   80.74
  10   7  -4  176.61   94.52
  10   7  -4   97.22   64.74
  10   6  -4  150.78   87.18
  10   6  -4    4.74   51.12
 -10  -6   4  102.32   67.35
  10   5  -4  390.96  113.25
  10   5  -4  324.49  110.05
  10   5  -4  437.53  141.23
 -10  -5   4  422.17  123.67
 -10  -5   4  405.04  109.13
  10   4  -4   31.24   33.94
 -10  -4  -4  157.34   71.95
  10   4  -4  130.49   45.68
  10   4  -4  177.26   89.40
  10   4  -4   72.29   49.83
 -10  -4   4   99.62   57.52
  10   4   4   33.78   81.19
  10   4   4   88.83   54.14
 -10  -4   4   90.61   59.76
 -10  -4   4   33.39   32.16
  10   3  -4  101.48   44.90
  10   3  -4  196.08   97.75
  10   3  -4   83.09   33.98
  10   3  -4   79.85   54.57
 -10  -3  -4  113.33   64.74
 -10  -3   4   80.43   62.62
 -10  -3   4   68.46   60.52
 -10  -3   4   99.44   35.05
  10   3   4  104.64   89.18
  10   3   4  148.19   54.70
  10   2  -4   77.96   28.97
  10   2  -4   64.42   41.36
 -10  -2  -4   65.27   61.78
  10   2  -4   13.26   94.34
  10   2  -4   74.05   49.97
 -10  -2   4   77.33   62.73
  10   2   4   87.01   46.56
  10   2   4   64.86   89.47
 -10  -2   4  139.68   67.77
 -10  -2   4  115.94   32.93
 -10  -2   4   95.93   68.11
  10   1  -4   20.66   19.46
  10   1  -4   35.44   51.93
  10   1  -4   78.55   83.76
 -10  -1  -4   13.86   63.13
  10   1  -4   34.96   38.09
 -10  -1   4   30.94   58.19
 -10  -1   4   22.33   24.65
  10   1   4   42.53   42.03
 -10  -1   4  -12.42   75.50
 -10  -1   4   51.84   72.37
  10   0  -4  547.92  128.29
  10   0  -4   -2.72  157.05
 -10   0  -4  952.62  157.40
  10   0  -4  643.02  163.12
  10   0  -4  419.20  136.79
  10   0   4  678.82  130.44
 -10   0   4  295.75  176.01
 -10   0   4  623.35  146.24
  10  -1  -4   26.99   46.98
 -10   1  -4   80.17   78.39
  10  -1  -4   48.48   23.64
  10  -1  -4   16.30   78.55
 -10   1  -4   21.28   65.59
  10  -1   4    3.74   95.32
  10  -1   4   35.32   43.39
 -10   1   4  -18.57   64.05
  10  -2  -4  -62.16   52.87
  10  -2  -4  138.93   81.28
 -10   2  -4   99.54   70.13
 -10   2  -4  164.83   89.72
  10  -2   4   97.29   53.96
  10  -2   4  244.52   98.40
 -10   2   4   45.63   68.64
 -10   3  -4   79.57   76.31
  10  -3  -4   96.27   59.30
 -10   3   4   69.59   73.33
  10  -3   4  196.29   92.73
  10  -3   4  171.31   57.69
 -10   4  -4   60.96   74.41
  10  -4   4  158.62   56.85
  10  -4   4    3.70   92.13
 -10   5  -4  348.50  136.84
  10  -5   4  572.03  118.47
  10  -5   4  501.15  145.93
  11   7  -4   32.30   59.29
  11   7  -4   72.55  105.87
  11   6  -4   12.27   54.97
  11   6  -4    3.83  108.87
  11   6  -4   83.74   59.87
 -11  -6   4   55.50   75.46
 -11  -5  -4  -20.91   77.08
  11   5  -4    4.60   53.40
  11   5  -4   39.87   53.70
  11   5  -4  -72.25  104.56
 -11  -5   4   18.67   34.30
  11   5   4   11.35   91.27
 -11  -5   4   46.71   68.99
  11   4  -4  476.40  127.31
 -11  -4  -4  201.53  101.68
  11   4  -4  251.01   77.05
 -11  -4   4  239.05   95.98
 -11  -4   4  335.42   93.65
  11   4   4  148.82  119.46
  11   4   4  114.44   80.53
 -11  -4   4  302.96   74.11
  11   3  -4  127.16  103.49
 -11  -3  -4   54.20   69.20
  11   3  -4   80.22   45.91
  11   3   4   34.12   50.10
  11   3   4   94.57  102.65
 -11  -3   4   80.34   67.45
  11   2  -4  203.82  105.29
  11   2  -4  176.26   51.98
 -11  -2  -4   73.02   76.29
  11   2   4  193.39  114.03
 -11  -2   4  136.70   74.69
 -11  -2   4   33.20   81.25
  11   2   4   68.29   51.21
  11   1  -4  628.12  196.74
  11   1  -4  727.19  155.69
 -11  -1  -4  678.62  177.54
 -11  -1   4  525.46  170.87
  11   1   4  591.58  150.96
 -11  -1   4  628.50  191.60
 -11   0  -4   20.25   78.53
  11   0  -4   68.14   89.66
  11   0  -4   18.87   48.20
 -11   0   4   34.41   69.62
 -11   0   4  -47.51   95.34
  11   0   4  -50.36   47.81
 -11   1  -4  677.09  175.03
  11  -1  -4  416.63  161.51
 -11   1  -4  474.38  192.61
  11  -1  -4  557.28  181.47
  11  -1   4  882.57  203.13
  11  -1   4  510.49  154.09
 -11   1   4  693.67  172.42
  11  -2  -4  114.75   64.39
 -11   2  -4  127.95   84.01
 -11   2  -4  -16.33  105.30
  11  -2  -4  129.55   89.96
  11  -2   4    4.03  110.61
  11  -2   4  216.81   64.25
 -11   2   4  164.45   81.83
 -11   3  -4   40.41   80.55
  11  -3  -4   80.00   57.33
  11  -3  -4   32.68   87.28
  11  -3   4    3.97   97.11
  11  -3   4   13.70   54.64
 -11   3   4   45.32   77.45
 -11   4  -4  236.85  109.97
  11  -4   4   16.27  126.71
  11  -4   4  379.00   87.95
 -11   5  -4  165.11   89.33
  11  -5   4    4.29   97.20
  11  -5   4   25.30   55.98
  11  -6   4  -22.34   57.48
  12   7  -4 -120.52  123.75
  12   6  -4  -38.71  115.81
  12   6  -4   53.01   64.19
 -12  -6   4   67.75   81.57
  12   5  -4  174.34  124.33
 -12  -5  -4  -49.35   85.44
  12   5  -4  -37.80   56.77
 -12  -5   4   30.42   73.98
 -12  -4  -4   31.73   80.94
  12   4  -4   26.39  121.79
  12   4  -4   40.74   53.01
  12   4   4  -83.33   60.29
  12   4   4   78.25  116.81
 -12  -4   4   21.75   71.54
  12   3  -4    6.17   48.67
  12   3  -4  125.71  121.86
 -12  -3  -4   98.45   77.79
  12   3   4   29.83   58.30
 -12  -3   4   95.11   80.43
 -12  -3   4   56.31   78.13
  12   3   4  205.73  122.86
  12   2  -4  260.00  129.83
  12   2  -4  218.78   71.03
 -12  -2  -4  170.35   94.37
  12   2   4  192.61   74.62
 -12  -2   4  167.34  101.82
 -12  -2   4  217.05  100.70
  12   2   4  164.37  141.02
  12   1  -4   44.93  107.48
 -12  -1  -4   -3.51   82.11
  12   1  -4  -50.94   49.87
  12   1   4    3.35   52.99
 -12  -1   4  -42.83   96.86
 -12  -1   4  -32.87   77.76
  12   1   4 -276.43  137.93
 -12   0  -4  859.47  228.52
  12   0  -4  711.68  199.74
  12   0  -4 1013.81  231.89
 -12   0   4  626.80  212.18
 -12   0   4  754.86  252.41
  12   0   4  738.03  191.56
  12  -1  -4  -30.10   62.14
  12  -1  -4   12.01  104.07
 -12   1  -4   62.97  103.70
 -12   1  -4   -4.70   91.49
 -12   1   4   46.35   82.01
  12  -1   4  -41.56   58.03
  12  -2  -4  265.39   91.97
  12  -2  -4  187.95  117.96
 -12   2  -4  203.63  112.19
 -12   2  -4  437.15  134.73
 -12   2   4  266.81  105.18
  12  -2   4   85.74  131.96
  12  -2   4  335.64   88.03
  12  -3  -4   44.25  100.51
  12  -3  -4  -37.39   63.38
 -12   3  -4  -28.55  121.75
 -12   3  -4  -10.13   91.95
 -12   3   4  131.69   86.08
  12  -3   4   61.70  118.83
  12  -3   4    3.83   58.56
 -12   4  -4  -32.28   94.17
  12  -4   4  120.46   65.97
  12  -4   4    4.48  109.76
  12  -5   4   39.67   68.64
  13   6  -4  -79.53   76.59
 -13  -6   4  -89.14  104.32
  13   5  -4  -64.16  146.34
  13   5  -4   -4.08   64.17
 -13  -5   4  143.79   88.00
  13   5   4   -4.91   62.55
  13   5   4  -62.21  130.25
  13   4  -4   29.79   62.18
  13   4  -4 -212.46  142.04
 -13  -4   4  -76.06   83.32
  13   3  -4   61.78   57.38
  13   3  -4  256.24  136.36
 -13  -3   4   75.98   96.20
 -13  -3   4   59.95   91.35
  13   2  -4 -199.51  135.26
  13   2  -4   42.23   59.38
 -13  -2   4   15.47   92.97
 -13  -2   4   53.60   90.11
  13   1  -4   97.64   62.45
 -13  -1  -4  138.57   96.94
  13   1  -4   31.72  119.58
  13   1   4   -3.73   64.65
 -13  -1   4  112.12  114.01
 -13  -1   4   65.06   90.86
  13   0  -4  -15.60   62.39
  13   0  -4  -53.47  115.84
 -13   0  -4   -4.28  100.81
 -13   0   4    4.87   88.04
  13   0   4    3.82   61.47
 -13   0   4  253.94  126.75
  13  -1  -4  154.94  118.38
  13  -1  -4  189.69   68.49
 -13   1   4  -15.96  136.09
  13  -1   4   -3.88   64.03
 -13   1   4   67.30   94.52
  13  -2  -4  475.86  112.23
  13  -2  -4 -118.29   71.18
 -13   2   4   -5.56   81.73
  13  -4   4   -4.94  118.07
 -13   5  -4   25.71  115.10
  13  -5   4  152.18  132.26
  13  -5   4  426.39   81.70
 -13   6  -4  -20.47  114.08
  13  -6   4  154.66   78.58
  14   8  -4   16.15  142.93
  14   7  -4  -53.93  146.95
  14   6  -4 -224.16  147.95
 -14  -5  -4  -73.16  104.93
  14   5   4  -10.47   79.72
  14   5   4 -214.86  147.36
 -14  -4  -4  259.79  120.20
  14   4   4  275.82   93.55
  14   4   4  329.99  163.79
 -14  -3  -4  -56.22   98.10
  14   3   4    4.49   68.93
  14   3   4 -265.49  158.35
 -14  -2  -4  162.62  104.51
  14   2   4  208.12  168.90
  14   2   4   89.07   71.67
 -14  -1  -4  -31.16  105.52
 -14  -1  -4   17.30  119.86
  14   1   4  114.23  161.83
  14   1   4    4.16   63.97
 -14   0  -4   72.00  124.19
  14   0   4  167.07   79.79
  14  -1  -4   -4.89  121.53
 -14   1  -4  -10.28  125.80
  14  -1   4    4.38   69.88
 -14   1   4   -5.78  102.71
  14  -2  -4  252.06   80.15
  14  -2  -4   75.17  121.19
 -14   2  -4  106.86  121.19
 -14   2  -4   70.87  130.91
 -14   2   4 -129.03  107.69
  14  -2   4   35.83   77.75
  14  -2   4    5.57  153.25
 -14   3  -4   32.60  124.91
  14  -3  -4  -67.74  127.60
  14  -3  -4 -194.87   81.23
 -14   3  -4   34.26  150.87
  14  -3   4 -438.59  146.46
 -14   3   4  -72.18  115.04
  14  -3   4   -4.66   75.20
 -14   4  -4  144.85  150.76
 -14   4  -4   80.45  120.05
  14  -4   4   -4.77   78.21
  14  -4   4 -419.81  141.68
 -14   5  -4   28.43  120.85
  14  -5   4  372.71   86.41
  14  -5   4   49.94  140.57
 -14   6  -4  201.49  123.38
  14  -6   4   -9.65   80.41
  15   8  -4 -101.80  163.37
  15   7  -4 -181.90  173.95
  15   6  -4   42.25   83.64
  15   6  -4  -12.24  168.11
  15   6   4   -5.90  163.46
 -15  -6   4  193.64  112.64
  15   5  -4  -55.26  165.60
  15   5  -4   57.41   72.16
 -15  -5  -4   22.54  112.38
  15   5   4   11.24   81.34
  15   5   4    6.02  160.38
 -15  -5   4   53.43   99.84
  15   4  -4  230.09  170.53
  15   4  -4   40.54   70.79
 -15  -4  -4  145.58  116.25
 -15  -4   4  -73.87  116.59
 -15  -4   4 -129.00  108.07
  15   4   4  391.57  170.34
  15   4   4  -36.92   78.67
 -15  -3  -4  -24.08  105.80
  15   3  -4    8.68   70.44
  15   3  -4   83.85  156.35
 -15  -3   4   88.75  113.41
  15   3   4   64.62  179.78
 -15  -3   4   39.84  116.43
  15   3   4  -29.68   76.22
 -15  -2  -4 -225.47  113.10
  15   2  -4   34.56  153.66
  15   2  -4    8.92   70.98
 -15  -2   4   -5.89  118.00
  15   2   4    6.58  177.68
 -15  -2   4   38.67  121.34
  15   2   4   70.77   74.55
 -15  -1  -4 -179.78  124.76
 -15  -1  -4 -109.50  134.03
  15   1  -4   27.76  150.47
  15   1  -4    4.58   80.07
  15   1   4   79.99  180.54
  15   1   4   -4.73   72.74
 -15  -1   4   64.13  139.05
 -15  -1   4  107.68  114.54
  15   0  -4    4.79   82.73
  15   0  -4   27.19  140.21
 -15   0  -4  195.75  124.40
  15   0   4   -6.62  177.47
  15   0   4   -4.84   80.55
 -15   0   4  -93.18  120.30
 -15   0   4 -219.96  152.90
  15  -1  -4 -221.40  138.52
 -15   1  -4  174.87  142.29
  15  -1  -4   -5.14   87.13
  15  -1   4   33.99   80.15
 -15   1   4   84.59  118.46
 -15   1   4 -412.02  168.85
 -15   2  -4  -21.26  141.76
  15  -2  -4  150.74   85.70
  15  -2  -4   76.88  137.10
 -15   2  -4  114.16  149.21
 -15   2   4  136.14  119.87
 -15   2   4 -167.19  181.40
  15  -2   4    4.92   81.72
 -15   3  -4  -55.79  154.46
 -15   3  -4  -58.65  133.42
  15  -3  -4   -5.68  135.35
  15  -3  -4  -43.93   89.78
  15  -3   4 -142.96   85.12
 -15   3   4   93.60  116.36
  15  -3   4   -6.00  153.60
  15  -4  -4   56.10   90.14
 -15   4  -4  -38.03  137.25
 -15   4  -4  182.98  159.93
  15  -4   4   -5.27   80.47
  15  -4   4    6.02  139.61
 -15   5  -4  -81.69  153.51
 -15   5  -4  134.12  138.34
  15  -5   4    5.27   86.04
  15  -5   4 -237.53  146.52
 -15   6  -4  155.90  135.72
  15  -6   4   68.69   87.29
  16   8  -4  -26.80  185.24
  16   7  -4  141.99  187.03
 -16  -7   4   63.04  115.49
  16   6  -4 -441.67  198.92
  16   6  -4   -5.66   85.00
 -16  -6   4  162.16  122.39
  16   6   4    6.64  187.68
  16   5  -4   57.30   89.23
 -16  -5  -4   67.85  131.89
  16   5   4 -230.65  192.48
 -16  -5   4 -209.67  137.91
  16   5   4    6.09   89.86
 -16  -5   4   78.90  122.45
  16   4  -4  -24.83   80.08
  16   4  -4 -153.88  190.88
 -16  -4  -4 -190.01  128.43
  16   4   4   46.23   90.49
 -16  -4   4   25.22  127.47
 -16  -4   4   76.85  114.22
  16   4   4 -222.90  190.42
  16   3  -4  -33.67   81.09
 -16  -3  -4    5.38  118.75
  16   3  -4 -275.51  181.19
 -16  -3   4   45.54  129.33
  16   3   4    7.18  198.76
 -16  -3   4  209.23  125.31
  16   3   4    5.47   83.12
  16   2  -4   14.86   79.56
 -16  -2  -4    5.38  125.09
 -16  -2  -4    7.03  143.96
  16   2  -4   25.14  172.08
 -16  -2   4 -118.74  128.70
  16   2   4   -7.27  200.00
  16   2   4 -141.75   83.31
 -16  -2   4 -108.42  129.51
 -16  -1  -4  234.07  134.07
  16   1  -4    6.13  155.27
 -16  -1  -4  130.73  146.19
  16   1  -4  -26.01   85.23
 -16  -1   4  217.95  135.68
  16   1   4 -294.48  209.12
 -16  -1   4 -107.34  147.86
  16   1   4    5.28   83.03
  16   0  -4    5.36   87.04
  16   0  -4  191.09  155.68
 -16   0  -4 -194.79  147.95
 -16   0  -4   90.26  153.80
  16   0   4    7.24  193.94
 -16   0   4   38.79  165.25
  16   0   4    5.35   88.17
 -16   0   4  -83.49  133.81
  16  -1  -4 -163.51   96.40
 -16   1  -4   62.52  150.45
  16  -1  -4   77.82  148.10
  16  -1   4    5.50   93.50
 -16   1   4  153.86  180.06
 -16   1   4  -43.52  135.54
  16  -2  -4   84.39  147.59
  16  -2  -4    5.90   99.15
 -16   2  -4 -318.36  164.88
 -16   2   4  -14.58  183.81
  16  -2   4   -5.50   90.30
 -16   2   4   76.43  135.63
  16  -3  -4    6.06  101.87
  16  -3  -4  235.68  149.88
 -16   3  -4  -27.05  167.28
 -16   3  -4  181.36  154.79
  16  -3   4 -179.58  175.43
 -16   3   4  264.08  187.14
 -16   3   4    7.92  133.38
  16  -3   4   22.39   96.83
 -16   4  -4   68.44  169.76
 -16   4  -4 -195.91  154.87
  16  -4  -4  190.59  103.09
  16  -4   4  193.02  166.03
  16  -4   4    5.72   95.81
 -16   5  -4   79.06  152.25
 -16   5  -4  424.33  175.28
  16  -5   4   40.25  159.95
  16  -5   4   -5.81   93.57
 -16   6  -4  290.07  148.67
  16  -6   4 -348.05   97.58
  17   7  -4  292.33  218.58
 -17  -7   4  186.06  137.26
  17   6  -4  -44.74  207.49
  17   6  -4  -30.58   91.20
  17   6   4 -253.90  211.94
 -17  -6   4  -11.87  123.71
  17   5  -4  193.73  212.65
 -17  -5  -4 -536.99  143.85
  17   5  -4  -22.76   90.13
  17   5   4  144.34  206.91
 -17  -5   4   10.95  124.24
  17   5   4   33.18   96.65
 -17  -5   4  126.82  144.25
  17   4  -4 -383.24  202.92
  17   4  -4  -10.97   86.02
 -17  -4  -4   -6.41  144.81
 -17  -4   4  118.17  128.02
 -17  -4   4  327.35  156.88
  17   4   4   25.49   97.45
  17   4   4    7.77  201.85
  17   3  -4   42.81  190.32
  17   3  -4   -5.49   87.73
 -17  -3  -4 -107.24  163.31
 -17  -3  -4  -60.22  137.91
 -17  -3   4  184.38  136.64
 -17  -3   4 -103.41  153.28
  17   3   4   30.27   91.01
  17   3   4 -126.01  224.27
  17   2  -4   11.11   91.83
 -17  -2  -4    6.03  139.23
  17   2  -4 -324.19  181.82
 -17  -2  -4  156.15  156.99
  17   2   4 -376.76  231.45
  17   2   4   42.25   98.22
 -17  -2   4 -161.99  154.94
 -17  -2   4    7.48  147.48
  17   1  -4 -377.75  185.99
 -17  -1  -4  140.18  170.58
  17   1  -4  -17.41   98.58
 -17  -1  -4   37.38  144.93
  17   1   4    5.86  100.54
 -17  -1   4  -45.75  153.68
  17   1   4 -620.98  230.14
 -17  -1   4 -112.20  171.86
 -17   0  -4  -85.23  174.18
  17   0  -4   47.41  101.87
 -17   0  -4  -65.68  157.11
  17   0  -4 -204.12  176.43
 -17   0   4  -63.28  152.41
  17   0   4 -612.71  231.07
  17   0   4 -306.68  104.15
 -17   0   4   42.82  191.52
  17  -1  -4 -135.86  106.20
  17  -1  -4 -310.35  167.36
 -17   1  -4 -247.40  165.71
 -17   1   4   -8.08  153.24
 -17   1   4  295.51  195.04
  17  -1   4   97.73  103.94
  17  -1   4    7.68  192.45
  17  -2  -4 -179.53  163.80
  17  -2  -4    6.47  103.42
 -17   2  -4  656.31  191.12
 -17   2   4  308.92  202.70
 -17   2   4   84.85  158.79
  17  -3  -4    6.69  112.91
 -17   3  -4 -358.40  186.41
  17  -3  -4  122.26  170.49
 -17   3  -4 -354.95  169.24
  17  -3   4    7.37  180.04
 -17   3   4  167.96  222.74
 -17   3   4 -104.98  147.76
  17  -3   4 -109.91  105.42
 -17   4  -4 -221.75  186.20
 -17   4  -4   47.77  166.28
  17  -4   4  324.22  183.93
  17  -4   4 -461.51  107.20
 -17   5  -4  333.64  191.74
 -17   5  -4   -9.86  171.93
  17  -5   4   59.26  175.67
  17  -5   4  139.20  105.00
 -17   6  -4 -380.47  190.12
 -17   6  -4  -10.06  173.20
  17  -6   4    6.40  104.01
 -18  -7   4  161.96  146.46
  18   6  -4 -359.45  252.76
  18   6  -4   -6.64  109.71
 -18  -6   4 -289.18  178.68
  18   6   4 -459.75  251.83
 -18  -6   4 -365.89  167.01
 -18  -5  -4 -490.43  200.17
  18   5  -4 -405.49  110.86
  18   5  -4 -596.39  250.61
  18   5   4  -36.37  130.23
 -18  -5   4 -335.92  167.32
  18   5   4 -966.41  260.58
 -18  -5   4 -102.78  179.48
  18   4  -4  424.63  216.69
 -18  -4  -4  122.04  152.49
  18   4  -4   12.48   92.63
  18   4   4 -137.06  242.38
 -18  -4   4  234.25  143.90
 -18  -4   4 -315.01  174.41
  18   4   4  -77.59  108.63
  18   3  -4  286.07  212.03
 -18  -3  -4  135.62  179.26
 -18  -3  -4  182.39  147.63
  18   3  -4  -24.45  102.81
  18   3   4    6.90  106.49
 -18  -3   4   31.32  156.78
  18   3   4   17.34  236.63
 -18  -3   4 -189.12  162.76
  18   2  -4 -270.58  102.35
  18   2  -4   -7.55  200.60
 -18  -2  -4    8.78  177.45
 -18  -2  -4  -40.97  156.76
 -18  -2   4  -26.79  165.00
 -18  -2   4  152.78  169.08
  18   2   4    6.71  107.07
  18   2   4 -758.54  251.35
 -18  -1  -4  188.10  163.93
 -18  -1  -4 -284.25  191.79
  18   1  -4    6.52  105.22
  18   1  -4   51.68  188.30
  18   1   4  201.62  247.40
 -18  -1   4  448.95  170.69
  18   1   4    6.69  108.47
 -18  -1   4 -314.97  181.96
  18   0  -4 -660.52  188.21
 -18   0  -4  144.42  189.85
 -18   0  -4 -209.34  188.92
  18   0  -4   -6.62  102.72
  18   0   4  -19.94  110.10
 -18   0   4  349.52  205.49
  18   0   4  205.62  232.67
 -18   0   4  176.74  165.88
 -18   1  -4 -188.37  189.74
  18  -1  -4 -334.65  178.38
  18  -1  -4   47.85  116.00
 -18   1  -4 -212.34  185.52
 -18   1   4   -9.15  172.30
 -18   1   4  207.29  208.49
  18  -1   4    8.45  228.07
  18  -1   4    6.85  106.35
 -18   2  -4  146.90  194.46
  18  -2  -4 -270.73  177.17
  18  -2  -4  -28.24  116.72
 -18   2   4  196.66  224.67
  18  -2   4 -182.64  120.67
 -18   2   4  169.86  175.07
 -18   3  -4   20.95  201.35
 -18   3  -4  219.81  201.00
  18  -3  -4   -7.28  121.53
 -18   3   4 -129.94  231.83
  18  -3   4   27.10  107.48
 -18   3   4 -136.07  168.47
 -18   4  -4  -31.79  198.65
 -18   4  -4  -10.72  188.78
  18  -4   4  -74.93  113.26
  18  -4   4   24.46  202.34
 -18   5  -4   -8.08  222.62
 -18   5  -4  -11.03  207.17
  18  -5   4 -324.00  130.47
 -18   6  -4 -915.07  233.60
 -19  -7   4 -205.57  193.54
  19   6  -4   21.76  111.88
  19   6  -4  294.95  240.43
 -19  -6   4 -122.23  180.21
  19   6   4  344.77  253.47
 -19  -6   4 -130.43  158.45
  19   5  -4    7.05  106.38
  19   5  -4 -151.04  253.72
 -19  -5  -4 -159.84  186.17
 -19  -5   4 -294.65  187.15
 -19  -5   4  143.39  156.67
  19   5   4 -103.11  250.25
  19   5   4 -224.62  119.47
 -19  -4  -4  -72.44  176.79
  19   4  -4  -48.37  103.50
 -19  -4  -4 -311.32  195.59
  19   4  -4    8.63  234.10
  19   4   4    9.44  263.41
 -19  -4   4  -27.22  164.78
  19   4   4   -7.85  123.01
 -19  -4   4  191.69  183.99
  19   3  -4 -429.94  231.80
 -19  -3  -4   70.13  175.37
  19   3  -4    6.80  105.42
 -19  -3  -4   18.72  191.28
  19   3   4   -7.68  121.14
 -19  -3   4  111.37  184.56
  19   3   4  524.91  261.58
 -19  -3   4 -133.42  173.88
  19   2  -4   90.75  118.28
 -19  -2  -4  130.22  181.65
 -19  -2  -4 -178.63  205.93
  19   2  -4 -256.74  226.13
 -19  -2   4   -7.45  180.83
 -19  -2   4  -94.65  188.95
  19   2   4    9.62  267.57
  19   2   4    7.48  123.22
 -19  -1  -4 -631.64  240.62
 -19  -1  -4 -599.56  215.76
  19   1  -4 -848.65  228.81
  19   1  -4  -43.15  135.85
 -19  -1   4 -352.62  205.94
 -19  -1   4 -624.76  230.42
  19   0  -4    7.48  137.51
 -19   0  -4 -685.65  242.68
 -19   0   4 -552.88  247.83
 -19   0   4 -847.25  230.23
 -19   1  -4 -381.70  238.85
  19  -1  -4    7.52  136.91
 -19   1  -4  -90.78  221.48
 -19   1   4 -337.14  208.30
  19  -1   4 -368.97  144.11
 -19   1   4 -160.53  246.80
  19  -2  -4 -338.89  195.43
  19  -2  -4   46.17  124.75
 -19   2  -4   33.74  213.70
 -19   2   4  483.39  191.32
  19  -2   4    7.61  130.40
 -19   2   4  248.52  237.33
  19  -3  -4   -7.93  132.07
 -19   3  -4  180.04  220.04
 -19   3   4 -264.54  245.82
  19  -3   4 -150.87  128.62
 -19   3   4  312.70  173.50
 -19   4  -4   36.54  218.26
 -19   4  -4  199.31  240.26
  19  -4   4  232.42  130.05
  19  -4   4    9.06  224.49
 -19   5  -4 -130.63  228.90
 -19   5  -4  457.18  210.18
  19  -5   4   45.54  224.56
  19  -5   4   15.10  124.45
 -20  -6   4  -64.48  180.51
 -20  -6   4   28.84  203.49
  20   5  -4  497.90  269.24
  20   5  -4 -133.04  124.74
 -20  -5   4 -118.08  178.72
 -20  -5   4   -9.89  207.40
  20   4  -4   30.60  117.99
  20   4  -4  345.25  258.96
 -20  -4   4 -102.49  207.91
 -20  -4   4 -183.16  173.20
  20   3  -4  220.13  247.68
 -20  -3  -4 -431.30  204.80
  20   3  -4  -23.42  128.30
  20   3   4 -119.91  138.94
 -20  -3   4  -15.86  196.29
 -20  -3   4  115.13  204.33
  20   2  -4   90.54  233.32
  20   2  -4   15.43  124.39
 -20  -2  -4  506.98  209.52
 -20  -2   4   53.41  212.21
  20   2   4  -51.54  130.72
 -20  -2   4   58.06  202.24
  20   1  -4   53.26  228.89
  20   1  -4    8.01  127.60
 -20  -1  -4  -11.65  187.84
 -20  -1  -4 -147.92  212.65
  20   1   4   24.97  135.02
 -20  -1   4 -109.25  218.23
  20   1   4  102.70  207.08
 -20  -1   4  122.77  215.70
 -20   0  -4   88.54  215.11
  20   0  -4  -24.80  136.66
  20   0  -4   -8.88  219.14
 -20   0  -4 -351.41  193.46
 -20   0   4  -46.78  239.38
  20   0   4   41.58  141.14
 -20   0   4   66.70  207.41
  20  -1  -4    8.84  220.34
 -20   1  -4    9.00  221.39
  20  -1  -4  -91.99  143.61
 -20   1   4  450.50  225.27
 -20   1   4 -385.47  253.58
  20  -1   4 -243.63  143.21
 -20   2  -4    9.26  227.59
  20  -2  -4   -8.50  137.58
  20  -2  -4  -17.82  214.60
 -20   2   4 -188.24  210.91
 -20   2   4  236.71  257.11
  20  -3  -4  -17.33  145.68
 -20   3   4 -203.81  187.31
 -20   3   4 -192.98  262.43
   0   0  -5    3.54   13.25
   0   0  -5    0.99    8.07
   0   0   5    5.21   15.33
   0   1  -5  219.55   57.74
   1   0  -5  164.31   61.94
   0   1  -5  232.46   53.27
  -1   0  -5  281.67   58.00
   1   0   5  167.13   65.62
   0  -1   5  212.95   61.16
  -1   0   5  238.62   66.66
   1   1  -5    2.55   10.60
  -1   1  -5   -0.92    4.82
  -1   1  -5   -4.58   10.04
  -1   1  -5    4.85    6.97
   1  -1   5   -0.53   10.52
  -1  -1   5    9.29   13.08
   1  -1   5    0.39    5.64
   1  -1   5    2.58   10.44
   2   1  -5  290.94   78.29
   2   1  -5  247.97   65.26
  -1   2  -5  293.15   76.58
   2   1  -5  229.05   66.22
  -1   2  -5  309.03   68.37
   2   1  -5  316.64   71.31
  -1   2  -5  224.68   72.41
   1  -2   5  333.82   80.10
  -2  -1   5  245.02   76.65
  -2  -1   5  329.59   75.74
   1  -2   5  301.24   69.70
   2   0  -5    1.12    8.91
   0   2  -5   12.85    9.99
  -2   0  -5   -3.49    9.82
   0   2  -5    2.31    5.67
   2   0  -5    9.51   15.93
   2   0   5   -1.53   14.42
   2   0   5   -1.58    8.21
  -2   0   5    1.25   19.07
   0  -2   5    2.20    6.16
  -2   1  -5  267.19   64.16
  -2   1  -5  320.11   72.92
   1   2  -5  252.36   63.69
  -2   1  -5  244.68   70.58
   2  -1   5  255.20   65.27
  -1  -2   5  296.12   64.70
   2  -1   5  260.92   74.50
   2  -1   5  203.52   73.92
   2   2  -5   -3.24   11.30
   2   2  -5    0.43    6.16
   2   2  -5    4.61   13.39
   2   2  -5    4.16    6.49
  -2   2  -5    0.51    5.30
  -2   2  -5    1.62    9.44
  -2   2  -5    8.70   12.59
  -2  -2   5   -4.63    8.40
  -2  -2   5   -2.79    7.85
   2  -2   5   -2.66   18.12
   2  -2   5   -7.59    8.63
   2  -2   5   -3.27    5.74
   3   2  -5   53.36   25.30
   3   2  -5   45.81   23.71
   3   2  -5   68.74   18.80
   3   2  -5   69.93   17.09
  -3  -2   5   78.44   21.74
   2  -3   5   76.21   17.62
  -3  -2   5   47.35   18.02
  -3  -1  -5  283.52   99.71
  -1   3  -5  322.27   94.98
   3   1  -5  293.41   91.88
   3   1  -5  330.73   83.26
   3   1  -5  329.56   84.30
  -1   3  -5  334.78   91.58
   3   1  -5  388.89  105.50
  -3  -1   5  401.12  100.23
   3   1   5  380.70   95.98
  -3  -1   5  398.03   94.50
   3   1   5  378.68   89.38
   0   3  -5    2.59    7.75
  -3   0  -5    4.41   13.90
   0   3  -5    0.89   12.61
   3   0  -5   24.38   11.67
   3   0  -5  -14.88   20.34
  -3   0   5    3.34   12.23
   3   0   5    5.79   11.04
   3   0   5  -11.68   21.26
  -3   0   5   -6.95   25.61
   0  -3   5    8.76    7.49
  -3   1  -5  447.96   98.37
   1   3  -5  391.40   89.32
  -3   1  -5  452.86   98.42
   1   3  -5  347.21   96.11
  -3   1  -5  396.66   88.26
   3  -1   5  202.87  100.94
   3  -1   5  332.88  101.82
   3  -1   5  348.55   87.27
  -3   2  -5   64.62   19.12
  -3   2  -5   53.94   17.46
   2   3  -5   64.42   22.10
  -3   2  -5   42.17   21.91
   3  -2   5   74.57   16.18
   3  -2   5   46.01   19.32
   3  -2   5   90.42   31.34
   3   3  -5    3.90   10.73
   3   3  -5    1.59   18.44
  -3   3  -5  -10.00   23.05
   3   3  -5   19.15   18.36
   3  -3   5    6.80   15.17
  -3  -3   5    3.42   10.32
   3  -3   5   12.69   28.30
   4   3  -5 1656.48  340.26
   4   3  -5 1276.17  375.09
  -4  -3   5 1339.19  357.13
   4   2  -5  478.29  116.95
   4   2  -5  538.28  123.10
   4   2  -5  401.35  130.09
   4   2  -5  530.10  142.01
  -4  -2   5  487.57  137.30
  -4  -2   5  551.99  132.83
  -4  -2   5  548.32  120.72
   4   1  -5 1439.96  366.97
   4   1  -5 1628.85  404.56
   4   1  -5 1460.95  457.22
   4   1  -5 1614.26  372.87
  -4  -1  -5 1696.62  431.77
  -4  -1   5 1657.68  405.02
  -4  -1   5 1514.70  444.82
   4   0  -5    2.38   14.38
   4   0  -5    6.56   24.64
  -4   0  -5   -3.31   20.10
   4   0  -5  -11.12   24.71
   4   0  -5   -4.76   12.87
   4   0   5   -5.63   14.35
  -4   0   5  -11.67   20.41
   4   0   5  -13.72   28.50
   0  -4   5  -12.11   10.48
  -4   0   5    6.25   32.35
  -4   1  -5 1441.01  427.53
   4  -1   5 1621.32  378.23
  -1  -4   5 1795.26  385.22
   4  -1   5 1440.44  436.60
   2   4  -5  525.05  126.33
  -4   2  -5  488.44  118.86
  -4   2  -5  504.86  129.48
   4  -2   5  395.27  118.23
   4  -2   5  396.91  136.77
  -4   3  -5 1452.53  327.94
   4  -3   5  981.80  315.26
   4   4  -5  -20.73   27.69
   4   4  -5   -4.08   16.27
  -4  -4   5   -9.95   17.25
   5   4  -5   43.43   29.53
   5   4  -5   50.31   21.14
   5   4  -5   62.28   40.21
  -5  -4   5   57.28   20.76
  -5  -4   5   12.46   28.67
   5   3  -5  321.50   64.28
   5   3  -5  173.31   76.75
  -5  -3   5  229.03   68.78
   5   2  -5   27.14   36.74
   5   2  -5   46.36   18.46
   5   2  -5   29.61   27.46
  -5  -2   5   31.94   30.45
  -5  -2   5   39.97   30.40
   5   2   5   49.26   34.95
   5   1  -5  139.90   43.11
   5   1  -5  113.29   52.57
   5   1  -5   71.67   33.77
   5   1  -5  125.08   31.72
  -5  -1   5   97.19   47.68
  -5  -1   5  202.41   40.24
   5   0  -5   47.96   21.11
   5   0  -5   91.78   24.22
   5   0  -5   79.29   39.44
   5   0  -5   43.61   35.60
  -5   0   5   40.01   32.34
  -5   0   5   70.56   46.75
   5  -1  -5  128.64   41.09
  -5   1   5  160.32   47.06
   3   5  -5  222.23   62.59
  -3  -5   5  239.01   60.24
  -5   4  -5   29.90   39.48
   4   5  -5   57.11   24.29
   4   5  -5   42.34   31.14
  -4  -5   5   51.78   21.91
   5  -4   5   49.91   48.33
   5   5  -5   10.32   32.52
   5   5  -5    9.53   20.90
  -5  -5   5   -7.42   20.41
   6   5  -5  -24.07   27.12
   6   5  -5  -55.33   54.42
   6   5  -5  -46.70   37.98
  -6  -5   5  -39.30   27.36
   6   4  -5  137.64   44.01
   6   4  -5  103.73   35.06
  -6  -4   5  119.36   35.34
   6   3  -5   -1.51  309.20
   6   3  -5 1860.62  280.39
   6   2  -5   -1.27   20.35
  -6  -2  -5   32.56   35.52
  -6  -2   5   48.31   33.34
   6   2   5   11.96   40.67
   6   2   5   30.31   28.11
   6   1  -5  278.13   85.89
  -6  -1  -5  322.10   86.61
   6   1   5  306.82   76.89
   6   1   5  305.55   96.50
  -6  -1   5  340.43   97.37
   6   0  -5   28.34   16.16
  -6   0  -5    1.63   33.25
   6   0  -5   20.30   39.63
   6   0   5  -13.89   22.75
   6   0   5   18.67   49.31
  -6   0   5   -3.99   51.18
   6  -1  -5  344.15   93.66
  -6   1  -5  312.51   91.01
   6  -1  -5  289.01   79.50
  -6   1   5  254.35   90.44
   6  -1   5  268.04   75.13
   6  -1   5  343.29   98.53
  -6   2  -5   30.09   34.75
   6  -2   5   21.30   25.65
   6  -2   5  -40.78   52.03
  -6   3  -5 1994.59  400.17
   6  -3   5 1798.46  418.17
  -6   4  -5  113.22   56.25
   6  -4   5  128.47   44.50
   6  -4   5  138.39   63.78
   6  -5   5  -30.72   33.07
   6   6  -5    6.21   35.88
   7   6  -5   49.59   55.79
   7   6  -5   43.01   43.41
   7   5  -5  -17.13   55.17
   7   5  -5   24.82   36.93
   7   5  -5   19.04   25.58
  -7  -5   5   17.27   40.11
  -7  -5   5   -6.26   22.89
   7   4  -5  -58.99   42.55
   7   4  -5 -108.29   66.01
   7   4  -5 -177.85   45.53
   7   4  -5   -9.74   25.17
  -7  -4   5 -231.98   58.06
  -7  -4   5  -48.36   28.79
   7   3  -5   10.12   35.33
   7   3  -5   54.42   26.05
   7   3  -5  -51.14   58.07
  -7  -3  -5  -12.73   46.31
   7   3  -5    6.37   16.88
  -7  -3   5   14.10   20.82
   7   3   5  -27.28   35.02
  -7  -3   5  -58.51   41.46
  -7  -3   5   -7.97   42.51
   7   2  -5   98.41   27.79
  -7  -2  -5  111.35   46.95
   7   2  -5   74.06   62.11
   7   2  -5  104.24   33.12
   7   2   5   85.87   56.99
  -7  -2   5   81.10   30.96
   7   2   5  138.27   39.77
  -7  -2   5   76.71   47.86
   7   1  -5  -31.62   54.32
  -7  -1  -5   -3.75   38.34
   7   1  -5    1.61   25.10
  -7  -1   5  -19.88   47.44
   7   1   5   12.13   55.62
   7   1   5    3.84   27.13
  -7  -1   5  -35.18   35.77
   7   0  -5  -30.53   48.27
   7   0  -5  -16.63   27.53
  -7   0  -5  -38.34   44.56
   7   0   5  -44.76   33.42
  -7   0   5  -16.33   41.70
   7   0   5  -64.31   65.32
   7  -1  -5  -21.23   48.75
   7  -1  -5   40.16   31.46
  -7   1  -5   -8.58   46.57
   7  -1   5  -12.45   28.54
  -7   1   5   16.67   42.17
   7  -1   5  -67.80   60.91
  -7   2  -5   60.80   59.46
   7  -2  -5   37.63   39.87
  -7   2  -5   83.12   45.39
   7  -2   5  130.16   63.69
   7  -2   5   83.62   35.68
  -7   3  -5  -40.32   45.29
   7  -3   5   -7.59   59.24
   7  -3   5   58.82   32.31
  -7   4  -5   29.11   52.74
   7  -4   5  -16.65   66.56
   7  -4   5   25.14   34.59
  -7   5  -5    3.83   52.21
   7  -5   5   32.15   37.11
   8   7  -5  253.12   83.91
   8   6  -5  303.45   84.43
   8   6  -5  406.71  103.96
  -8  -6   5  219.34   77.84
   8   5  -5   12.44   66.04
   8   5  -5   -8.96   28.90
   8   5  -5  -26.00   39.28
   8   5  -5  -10.18   41.72
  -8  -5   5  -17.75   28.44
  -8  -5   5    4.90   48.42
   8   4  -5  -36.66   69.84
   8   4  -5   15.57   24.57
   8   4  -5   43.68   40.59
   8   4  -5   21.47   34.05
  -8  -4   5   41.85   45.86
  -8  -4   5   12.93   23.66
   8   3  -5   -2.79   19.51
   8   3  -5   11.58   28.82
  -8  -3  -5   16.19   48.10
   8   3  -5    7.34   62.46
   8   3  -5    5.59   38.57
  -8  -3   5  -15.11   22.53
  -8  -3   5   -5.53   43.68
  -8  -3   5   -1.56   45.97
   8   3   5   53.47   42.03
   8   2  -5  -56.01   74.18
   8   2  -5   92.07   31.62
  -8  -2  -5  133.48   49.23
   8   2  -5   55.44   44.71
   8   2  -5   69.63   23.01
  -8  -2   5   49.40   53.38
   8   2   5   85.39   37.89
  -8  -2   5   85.84   48.07
  -8  -2   5   44.35   27.23
  -8  -2   5   18.40   57.50
   8   1  -5  -72.90   26.95
  -8  -1  -5   -2.15   48.95
   8   1   5   -8.66   39.93
   8   1   5  -98.34   77.08
  -8  -1   5 -300.44   84.59
  -8  -1   5 -145.04   58.29
   8   0  -5  355.79   79.87
  -8   0   5  296.93   93.07
   8   0   5  288.33   77.58
  -8   1  -5  -37.82   53.38
   8  -1  -5  -83.31   46.70
  -8   1  -5  -42.60   67.04
   8  -1   5 -143.37   93.64
  -8   1   5    9.37   55.06
   8  -1   5 -127.81   40.21
  -8   2  -5   66.61   51.00
   8  -2  -5   11.28   41.87
  -8   2  -5  114.92   66.38
   8  -2  -5   -2.90   71.65
  -8   2   5   49.95   55.97
   8  -2   5  103.65   38.49
   8  -2   5   83.56   74.64
  -8   3  -5   12.25   54.06
   8  -3   5   25.75   72.07
   8  -3   5   40.63   39.80
  -8   4  -5   38.74   59.42
   8  -4   5   12.20   71.36
   8  -4   5   30.23   39.49
  -8   5  -5  -28.85   64.57
   8  -5   5   49.01   40.09
   8  -5   5  -13.59   72.54
   9   7  -5  356.80  109.39
   9   7  -5  209.20   88.12
   9   6  -5  162.18   68.80
   9   6  -5  186.26   91.34
   9   5  -5  456.82  149.32
   9   5  -5  415.94  127.69
   9   5  -5  433.27  124.23
   9   5  -5  584.80  121.28
  -9  -5   5  365.39  119.43
  -9  -5   5  551.70  136.07
  -9  -4  -5  104.88   61.77
   9   4  -5   58.61   38.06
   9   4  -5   20.27   27.02
   9   4  -5   73.97   79.33
   9   4  -5   46.13   46.50
  -9  -4   5   45.84   54.45
  -9  -4   5   26.48   50.94
   9   4   5   30.17   69.58
  -9  -4   5   17.88   26.16
   9   3  -5   83.13   79.54
   9   3  -5   64.05   30.33
   9   3  -5  117.93   39.44
   9   3  -5  164.16   49.23
  -9  -3  -5   32.10   61.27
  -9  -3   5   42.34   54.75
  -9  -3   5   98.73   32.31
   9   3   5   72.15   48.56
  -9  -3   5   94.39   57.65
   9   2  -5   24.76   43.73
   9   2  -5   23.19   19.11
  -9  -2  -5   -2.51   51.33
   9   2  -5    2.05   31.64
   9   2  -5   68.09   73.61
  -9  -2   5   11.92   24.31
  -9  -2   5    4.62   57.74
  -9  -2   5   92.98   59.78
  -9  -2   5   10.08   47.73
   9   2   5   18.77   38.97
   9   1  -5   16.81   71.01
   9   1  -5   15.41   32.81
  -9  -1  -5    4.87   51.40
   9   1  -5   46.78   50.92
   9   1  -5   43.91   20.32
   9   1   5   26.16   34.63
  -9  -1   5   43.41   72.58
  -9  -1   5   -5.42   63.89
  -9  -1   5  -16.32   51.59
   9   1   5   19.67   78.04
  -9   0  -5   77.55   60.83
   9   0  -5   58.62   41.77
   9   0  -5  135.82   70.64
   9   0  -5  104.92   29.25
   9   0  -5  106.46   57.79
  -9   0   5   42.04   57.21
   9   0   5   35.32   42.36
  -9   0   5  153.68   83.37
   9   0   5  111.79   89.39
   9  -1  -5  113.40   66.22
  -9   1  -5   31.41   66.51
   9  -1  -5    5.01   26.15
   9  -1  -5  -49.34   41.34
  -9   1  -5  -43.63   57.42
   9  -1   5   63.75   81.60
   9  -1   5    4.73   36.08
  -9   1   5  -10.31   56.45
   9  -2  -5   -3.09   46.17
  -9   2  -5   -3.22   57.07
   9  -2  -5   83.57   67.65
   9  -2  -5   30.50   35.58
  -9   2  -5   38.40   77.13
  -9   2   5   39.33   60.36
   9  -2   5   67.23   38.74
   9  -2   5  -13.10   80.81
  -9   3  -5   94.07   64.02
   9  -3   5  127.20   50.96
   9  -3   5   80.52   83.00
  -9   4  -5   58.57   67.62
   9  -4   5  138.48   46.86
   9  -4   5   73.66   81.07
  -9   5  -5  263.58  137.09
   9  -5   5  498.04  121.10
   9  -5   5  667.69  146.45
   9  -6   5  207.48   67.25
  10   7  -5  255.87  101.27
  10   7  -5  121.65   72.14
  10   6  -5  883.31  172.28
  10   6  -5  337.79  143.30
 -10  -6   5  299.68  156.85
  10   5  -5   34.90   50.13
  10   5  -5  105.62   90.12
  10   5  -5   19.99   47.65
  10   5  -5  -22.51   34.16
 -10  -5   5   -8.58   62.54
 -10  -5   5   25.02   31.20
 -10  -4  -5  717.68  197.57
  10   4  -5  776.52  218.21
  10   4  -5  686.89  174.39
  10   4  -5  583.64  166.28
  10   4  -5  682.98  187.35
  10   4   5  390.53  171.16
  10   4   5  623.45  192.76
 -10  -4   5  614.35  206.43
 -10  -4   5  713.36  174.35
 -10  -4   5  880.80  183.59
  10   3  -5   19.62   38.76
  10   3  -5   -6.60   87.54
  10   3  -5  -32.40   51.22
  10   3  -5  -16.11   22.59
 -10  -3  -5   24.66   64.68
  10   3   5   10.33   79.19
 -10  -3   5   20.56   25.43
 -10  -3   5  -28.97   57.42
 -10  -3   5   17.55   61.29
  10   3   5    3.28   47.47
  10   2  -5   87.60   28.39
 -10  -2  -5  109.04   64.46
  10   2  -5   57.23   52.75
  10   2  -5   83.21   41.58
  10   2  -5    3.24   87.70
 -10  -2   5   24.02   69.28
 -10  -2   5   91.60   32.53
 -10  -2   5   84.39   60.64
  10   2   5   88.58   44.96
 -10  -2   5   -2.20   73.72
 -10  -1  -5  392.07  113.65
  10   1  -5  156.26  114.74
  10   1  -5  331.81   95.13
  10   1  -5  399.11   88.88
  10   1  -5  569.91  131.74
  10   1   5  351.87   92.91
 -10  -1   5  311.68  147.95
 -10  -1   5  278.48  108.61
 -10  -1   5  277.78  125.67
  10   0  -5   -5.40   20.31
  10   0  -5  -76.20   77.76
 -10   0  -5   14.70   64.01
  10   0  -5    8.36   43.42
  10   0  -5   17.91   59.62
  10   0   5  -21.42   40.39
  10   0   5   81.47   99.61
 -10   0   5  -24.16   59.85
 -10   0   5  -22.90   88.67
  10  -1  -5  257.48  110.49
 -10   1  -5  407.79  132.38
  10  -1  -5  393.42  102.22
 -10   1  -5  603.46  121.43
  10  -1  -5  304.15  132.60
  10  -1   5  685.67  150.28
  10  -1   5  474.61  104.98
 -10   1   5  340.27  121.81
  10  -2  -5   84.38   39.78
 -10   2  -5   52.59   69.10
  10  -2  -5   98.85   80.29
  10  -2  -5  103.29   52.75
 -10   2  -5  104.35   89.64
  10  -2   5   73.95   99.94
  10  -2   5  127.57   50.20
 -10   2   5   51.63   67.68
 -10   3  -5   31.61   69.15
  10  -3  -5   10.95   57.63
  10  -3   5  -36.10   88.05
  10  -3   5   21.35   48.45
 -10   4  -5  860.07  220.62
  10  -4   5 1178.61  231.63
  10  -4   5  899.72  212.77
 -10   5  -5  -29.03   75.63
  10  -5   5 -118.07   89.11
  10  -5   5   -3.24   47.61
  10  -6   5  798.79  170.18
  11   7  -5   22.93  104.28
  11   7  -5   81.46   64.92
  11   6  -5  -10.44   56.37
  11   6  -5   11.27  100.13
  11   6  -5   82.37   58.96
 -11  -6   5  -14.43   75.55
  11   5  -5  131.65  108.47
  11   5  -5  118.70   48.55
  11   5  -5  201.16   62.20
  11   5  -5  173.53   66.18
 -11  -5   5   80.45   46.47
 -11  -5   5  136.70   73.25
 -11  -5   5  151.43   74.37
 -11  -4  -5   77.83   84.78
  11   4  -5  121.25  111.98
  11   4  -5   96.39   62.13
  11   4  -5  122.22   53.38
  11   4  -5   70.94   40.58
 -11  -4   5  141.29   68.35
 -11  -4   5   77.65   73.01
  11   4   5  182.15   65.87
 -11  -4   5   86.90   40.53
  11   4   5  209.57  105.65
  11   3  -5  178.69   67.64
  11   3  -5  303.31  118.07
 -11  -3  -5  305.39   92.53
 -11  -3   5  183.72   86.97
 -11  -3   5  222.17   62.10
  11   3   5  169.57  115.85
 -11  -3   5  237.19   91.92
 -11  -3   5  271.45   94.93
  11   3   5  235.34   75.54
  11   2  -5  682.50  140.99
  11   2  -5  442.45  189.96
 -11  -2  -5  633.18  162.67
 -11  -2   5  484.05  199.71
 -11  -2   5  690.69  162.57
 -11  -2   5  500.80  169.46
 -11  -2   5  540.31  148.01
  11   2   5  556.66  140.95
  11   1  -5   91.48   49.90
  11   1  -5   60.37   94.68
 -11  -1  -5   62.41   72.84
  11   1   5  104.47   50.10
 -11  -1   5  108.90   92.14
 -11  -1   5   60.70   74.24
  11   0  -5 1517.95  423.96
  11   0  -5 1637.51  463.74
 -11   0  -5 2005.77  459.55
  11   0   5 1716.37  401.67
 -11   0   5 1596.75  511.67
  11   0   5 1807.94  500.69
 -11   0   5 1727.94  441.57
 -11   1  -5   83.16   83.74
  11  -1  -5  120.44   88.92
 -11   1  -5   61.79   88.24
  11  -1  -5   34.20   57.73
  11  -1   5  353.53  121.09
  11  -1   5   -3.07   52.10
 -11   1   5   67.98   75.77
 -11   2  -5  630.65  201.31
  11  -2  -5  450.94  165.09
 -11   2  -5  514.56  173.04
  11  -2  -5  737.04  182.94
  11  -2   5  900.52  197.67
  11  -2   5  557.68  159.00
 -11   2   5  807.17  180.28
 -11   3  -5  394.21   99.27
 -11   3  -5  222.13  124.26
  11  -3  -5  263.47   76.86
  11  -3   5    8.07  116.71
 -11   3   5  262.44   95.51
  11  -3   5   10.29   75.38
 -11   4  -5  150.13   98.02
  11  -4   5    3.50   62.81
  11  -4   5  376.55  122.90
 -11   5  -5  201.35   90.90
  11  -5   5   10.73   61.03
  11  -5   5   85.33  103.93
 -11   6  -5   92.29   92.35
  11  -6   5   47.93   59.26
  12   8  -5  928.78  286.81
  12   7  -5   98.00  121.17
  12   6  -5   -4.36   63.20
  12   6  -5   42.72  120.87
 -12  -6   5    3.85   78.13
  12   5  -5   44.82   59.59
  12   5  -5 -154.46  125.92
 -12  -5  -5   50.76   86.21
 -12  -5   5   16.45   73.92
  12   4  -5  111.67  123.50
  12   4  -5   35.68   56.26
 -12  -4  -5   -4.08   85.48
  12   4   5  354.31  111.62
 -12  -4   5  118.08   75.45
  12   4   5  -51.83   69.79
  12   3  -5   46.04   51.72
  12   3  -5  193.42  115.29
 -12  -3  -5  193.81   83.64
 -12  -3   5   49.66   81.30
  12   3   5  -44.55  120.97
  12   3   5   50.42   60.43
 -12  -3   5   69.27   81.69
  12   2  -5  -21.41   49.39
 -12  -2  -5  -51.72   82.17
  12   2  -5  132.30  111.76
 -12  -2   5   -3.94   75.98
  12   2   5   39.55   56.23
  12   2   5    4.70  128.07
 -12  -2   5  -17.18   85.65
 -12  -1  -5  742.41  162.52
  12   1  -5  511.35  178.11
  12   1  -5  498.19  136.66
  12   1   5  287.03  128.24
 -12  -1   5  559.21  157.83
 -12  -1   5  471.27  178.68
 -12   0  -5  -42.23   92.79
  12   0  -5   21.25   57.33
  12   0  -5  -11.84   94.68
 -12   0  -5   60.50   91.11
 -12   0   5   54.06  117.59
 -12   0   5  -39.37   85.42
  12   0   5   27.28   56.02
  12   0   5 -226.06  142.30
 -12   1  -5  556.70  172.46
 -12   1  -5  690.55  185.37
  12  -1  -5  597.77  153.26
  12  -1  -5  466.83  176.69
 -12   1   5  604.43  168.48
  12  -1   5  572.62  146.89
  12  -1   5  621.73  204.94
 -12   2  -5   63.31   94.44
  12  -2  -5   12.12   65.33
  12  -2  -5   92.70   93.83
 -12   2  -5   62.44  110.29
  12  -2   5    7.25   60.73
 -12   2   5  -62.12   86.97
  12  -2   5 -271.79  129.45
  12  -3  -5   51.16   69.19
 -12   3  -5   75.42  126.91
 -12   3  -5   97.57   98.98
 -12   3   5   89.56   93.95
  12  -3   5   69.06   70.24
  12  -3   5  457.46  130.61
 -12   4  -5   32.49   95.49
  12  -4   5   58.11   66.38
  12  -4   5    4.47  113.59
  12  -5   5    7.86   65.51
  13   6  -5  149.93  140.36
  13   6  -5   91.99   69.24
 -13  -6   5 -165.52  101.88
  13   5  -5  102.36  141.77
  13   5  -5   40.24   71.41
 -13  -5  -5  257.36  101.14
  13   5   5  234.52  127.46
 -13  -5   5   68.42   90.18
  13   4  -5   21.38   55.89
  13   4  -5  -52.76  135.37
 -13  -4   5   94.54   81.12
  13   4   5   57.92  122.36
  13   3  -5   13.68   53.68
  13   3  -5 -160.28  128.76
 -13  -3   5 -134.44   88.12
 -13  -3   5  -45.51   84.87
  13   2  -5  421.68  151.65
  13   2  -5  284.30   92.00
 -13  -2   5  209.98  117.89
 -13  -2   5  243.66  127.19
  13   1  -5    8.83  120.78
  13   1  -5   25.43   60.31
 -13  -1   5   18.58   89.86
 -13  -1   5   75.14  111.32
  13   0  -5  513.81  134.36
  13   0  -5  189.85   91.57
 -13   0   5  429.27  152.57
 -13   0   5  142.37  115.63
  13  -1  -5   79.80  113.42
  13  -1  -5   38.34   69.80
 -13   1   5   52.44   94.20
 -13   1   5   32.42  137.95
  13  -2  -5  244.89   95.34
 -13   2   5   -5.69  110.14
 -13   4  -5   66.63  109.92
  13  -4   5   -4.96  124.05
 -13   5  -5   32.22  114.76
  13  -5   5    5.08  125.13
 -13   6  -5   -6.82  112.88
  13  -6   5    4.39   70.29
  14   7  -5  248.27  166.48
  14   6  -5   -5.44  161.97
 -14  -5  -5  -42.81  104.87
  14   5   5 -101.56   82.29
  14   5   5   -5.32  134.20
 -14  -4  -5   -4.84  109.72
  14   4   5 -382.87  145.33
  14   4   5    4.95   72.26
 -14  -3  -5  -35.11   96.11
  14   3   5  -76.94   71.77
  14   3   5 -307.55  160.66
 -14  -2  -5   51.71   98.90
  14   2   5 -172.14   66.89
  14   2   5   35.73  160.57
 -14  -1  -5  111.24  102.03
  14   1   5  -46.75   71.05
 -14   0  -5  -42.39  111.07
  14   0   5   21.59   72.30
 -14   1  -5  -18.40  123.17
 -14   1  -5  312.54  125.80
 -14   1   5   -5.82  102.26
  14  -1   5    5.93  156.95
  14  -1   5  -26.11   77.91
 -14   2  -5  -75.76  132.31
  14  -2  -5  225.65   74.32
  14  -2  -5  -30.11  120.47
 -14   2  -5  113.75  124.24
  14  -2   5  -88.58   78.31
 -14   2   5 -231.47  114.82
  14  -3  -5  -40.41   81.22
 -14   3  -5  -52.24  121.78
 -14   3  -5   67.53  139.17
 -14   3   5  -73.02  110.48
  14  -3   5   23.08   81.89
  14  -3   5    5.52  134.51
 -14   4  -5   57.58  140.44
 -14   4  -5   13.56  119.46
  14  -4   5 -208.92  149.33
  14  -4   5  167.10   85.36
 -14   5  -5  135.93  124.38
  14  -5   5   52.43   80.26
  14  -5   5   -5.57  135.87
 -14   6  -5  306.96  140.50
  14  -6   5  278.95   98.08
  15   7  -5  -78.58  174.85
 -15  -7   5 -130.01  117.91
  15   6  -5   -5.20   75.45
  15   6  -5 -199.99  173.63
 -15  -6   5   72.65  104.17
 -15  -5  -5  197.65  125.27
  15   5  -5   28.35   77.59
  15   5  -5  137.67  164.41
 -15  -5   5  139.47  101.10
  15   5   5   23.83  152.27
 -15  -5   5  -67.26  116.59
  15   5   5   51.61   82.47
  15   4  -5   -4.47   67.86
 -15  -4  -5  -58.45  116.25
  15   4  -5 -266.28  169.47
  15   4   5    5.38   80.49
 -15  -4   5 -155.61  103.19
  15   4   5   24.69  157.25
 -15  -4   5   88.32  113.60
  15   3  -5  -25.92   71.66
 -15  -3  -5  180.50  108.63
  15   3  -5 -277.83  157.57
 -15  -3   5   57.53  106.69
 -15  -3   5   51.05  121.26
  15   3   5  -14.95   76.77
  15   3   5   96.00  173.22
 -15  -2  -5  -33.78  110.35
  15   2  -5   11.07  147.57
  15   2  -5  -17.84   75.13
 -15  -2   5  -69.06  117.90
 -15  -2   5   -4.90  122.36
  15   2   5    6.61  182.43
  15   2   5    4.90   80.65
 -15  -1  -5   54.65  119.57
  15   1  -5   -4.60   75.97
  15   1  -5 -178.40  143.02
 -15  -1   5  -83.51  114.64
  15   1   5   86.94  188.07
 -15  -1   5  -54.42  142.85
  15   1   5   51.97   78.96
 -15   0  -5  -57.94  129.86
  15   0  -5   -5.30  133.85
  15   0  -5   -4.84   76.61
 -15   0   5  -87.40  118.75
  15   0   5 -163.03   79.96
 -15   0   5   90.00  152.26
 -15   1  -5   89.72  136.99
  15  -1  -5  -15.57   85.19
 -15   1  -5  196.04  142.88
  15  -1  -5   21.48  136.59
 -15   1   5 -233.99  171.97
 -15   1   5  207.14  120.85
  15  -1   5 -222.29   89.89
 -15   2  -5   79.40  139.27
  15  -2  -5 -148.12  129.33
  15  -2  -5   -5.44   88.12
 -15   2  -5  252.51  150.09
 -15   2   5    6.89  122.37
 -15   2   5  -80.92  169.46
  15  -2   5 -591.43  177.33
  15  -2   5    4.95   84.65
 -15   3  -5  110.88  165.72
 -15   3  -5   80.81  140.77
  15  -3  -5   61.01   91.12
  15  -3   5   -6.12  160.10
  15  -3   5    5.07   83.50
 -15   3   5   36.30  119.05
 -15   4  -5  113.99  140.15
 -15   4  -5  -56.33  156.43
  15  -4   5   -5.20   85.72
  15  -4   5   -6.09  160.40
 -15   5  -5  -23.89  142.60
 -15   5  -5   18.86  155.66
  15  -5   5  177.67  151.06
  15  -5   5  -21.05   85.14
 -15   6  -5  -66.05  131.17
  15  -6   5 -242.08   87.78
  16   7  -5    6.71  179.06
 -16  -7   5    5.60  114.75
  16   6  -5   22.29   82.43
  16   6  -5    6.68  184.52
 -16  -6   5  -42.19  117.07
  16   5  -5  597.26  158.99
 -16  -5  -5  343.18  206.39
 -16  -5   5  893.18  194.91
  16   5   5  567.63  253.12
 -16  -5   5  708.90  208.09
  16   5   5  117.68  154.64
 -16  -4  -5  -47.00  127.17
  16   4  -5 -346.46  186.66
  16   4  -5 -271.06   79.59
  16   4   5   -5.89   90.75
  16   4   5  -62.37  195.23
 -16  -4   5   12.48  126.87
 -16  -4   5   52.13  114.26
  16   3  -5   -6.32  170.17
  16   3  -5    9.60   79.23
 -16  -3  -5  402.73  125.71
 -16  -3   5   96.92  134.17
  16   3   5 -175.13   85.41
  16   3   5  192.75  196.76
 -16  -3   5  -93.99  120.60
  16   2  -5   69.48   81.71
 -16  -2  -5   38.16  125.01
  16   2  -5  -67.00  155.80
 -16  -2  -5    7.09  149.35
  16   2   5   10.87   83.13
 -16  -2   5   19.63  132.59
 -16  -2   5   21.67  134.89
  16   2   5    7.29  190.51
 -16  -1  -5  202.38  142.78
  16   1  -5    5.12   85.47
 -16  -1  -5  178.08  129.26
  16   1  -5   11.91  159.63
  16   1   5   -7.38  194.64
 -16  -1   5  -54.24  131.93
  16   1   5   36.80   82.53
 -16  -1   5  -17.95  162.03
  16   0  -5  -58.59   91.70
 -16   0  -5   88.12  148.70
  16   0  -5   40.89  148.65
  16   0   5   21.60   87.89
 -16   0   5  198.81  171.79
 -16   0   5  -97.66  129.14
  16  -1  -5  153.56  150.62
  16  -1  -5  -28.41   93.50
 -16   1  -5 -210.27  156.70
  16  -1   5 -225.27   93.23
 -16   1   5  167.64  129.69
 -16   1   5  -49.45  178.01
 -16   2  -5 -155.01  158.72
  16  -2  -5   60.03  101.61
  16  -2  -5    6.00  136.52
 -16   2  -5 -202.88  155.79
  16  -2   5 -438.56  183.88
 -16   2   5  -44.14  185.54
 -16   2   5   83.78  132.93
  16  -2   5   38.79   89.08
  16  -3  -5    6.09   96.45
 -16   3  -5 -106.54  167.15
 -16   3  -5   -8.39  155.78
 -16   3   5  -31.82  128.58
  16  -3   5    5.55   91.44
  16  -3   5  121.80  173.88
 -16   4  -5    6.76  175.37
 -16   4  -5 -136.50  160.53
  16  -4   5  192.70   99.36
  16  -4   5   -6.74  171.13
 -16   5  -5  163.83  222.11
 -16   5  -5    8.89  190.52
  16  -5   5    6.76  195.62
  16  -5   5 -260.92  145.35
 -16   6  -5 -603.86  156.73
 -16   6  -5 -312.91  173.33
  16  -6   5  220.64   99.76
  17   6  -5   29.30  199.01
  17   6  -5  -18.04   93.04
 -17  -6   5  165.76  148.99
 -17  -6   5  121.63  126.55
  17   5  -5 -118.20   93.83
  17   5  -5  362.71  208.76
 -17  -5  -5    7.00  147.94
  17   5   5   -6.74   99.79
 -17  -5   5  -13.97  142.83
 -17  -5   5   69.68  122.62
  17   5   5  -30.28  211.34
 -17  -4  -5  228.70  149.89
  17   4  -5 -199.88  197.70
  17   4  -5  -10.86   88.78
 -17  -4   5 -169.58  128.75
  17   4   5    6.47   95.33
 -17  -4   5   63.88  148.46
  17   4   5    7.73  213.35
  17   3  -5   13.72  188.91
 -17  -3  -5   54.79  142.24
  17   3  -5    5.31   81.95
 -17  -3   5  -22.18  140.47
  17   3   5 -141.74  220.22
 -17  -3   5  -79.29  147.05
  17   3   5    6.25   93.03
  17   2  -5   -5.57   88.78
 -17  -2  -5    7.85  158.02
  17   2  -5 -106.86  176.01
 -17  -2  -5 -128.34  140.55
 -17  -2   5  -48.41  152.76
 -17  -2   5 -163.54  144.90
  17   2   5    8.00  215.53
  17   2   5  -60.43   99.37
 -17  -1  -5  118.33  153.73
  17   1  -5    6.54  171.45
  17   1  -5    5.81   95.36
 -17  -1  -5 -244.27  170.02
  17   1   5    8.13  226.07
  17   1   5 -192.24   99.55
 -17  -1   5    7.57  150.95
 -17  -1   5    6.61  165.90
  17   0  -5 -528.18  169.70
  17   0  -5   29.77   99.34
 -17   0  -5   64.70  155.05
  17   0   5   -5.97   93.76
 -17   0   5  141.56  145.28
 -17   0   5   28.71  185.07
 -17   1  -5   -6.84  165.30
  17  -1  -5   25.99  164.26
  17  -1  -5   -6.24   98.18
 -17   1   5 -139.02  201.59
 -17   1   5   97.31  149.60
 -17   2  -5  -56.08  179.05
  17  -2  -5   26.14  111.40
  17  -2  -5  223.83  150.99
 -17   2  -5 -138.36  178.40
 -17   2   5   33.71  152.64
  17  -2   5   -7.66  202.25
 -17   2   5 -119.73  212.39
  17  -2   5   12.22  102.47
 -17   3  -5 -157.56  178.75
  17  -3  -5    6.73  106.54
 -17   3  -5  122.39  172.52
  17  -3   5    7.48  188.43
 -17   3   5  227.39  145.32
  17  -3   5    6.14  102.29
 -17   3   5  283.39  216.57
 -17   4  -5  -77.64  174.48
 -17   4  -5 -205.96  186.63
  17  -4   5 -246.37  192.50
  17  -4   5 -148.62  102.96
 -17   5  -5   36.94  187.93
 -17   5  -5  -59.71  176.54
  17  -5   5 -545.20  189.13
  17  -5   5 -150.89   98.38
 -17   6  -5  -81.33  187.54
 -17   6  -5 -142.45  165.18
  17  -6   5 -293.53  107.42
  18   6  -5  -19.57  102.51
 -18  -6   5 -122.12  162.87
 -18  -6   5  -83.00  140.60
  18   5  -5 -883.47  227.99
  18   5  -5   -6.16  101.80
 -18  -5  -5 -224.61  178.47
 -18  -5   5 -101.65  148.75
  18   5   5 -751.44  255.22
 -18  -5   5   92.74  165.09
  18   4  -5 -185.38  207.48
  18   4  -5    6.01   94.68
 -18  -4  -5  175.12  160.93
 -18  -4   5  124.51  142.52
 -18  -4   5  224.97  158.83
  18   4   5  121.55  110.22
  18   4   5  -34.27  240.38
 -18  -3  -5 -135.05  176.32
 -18  -3  -5  -70.04  157.69
  18   3  -5   -6.06   98.34
  18   3  -5 -306.94  198.15
  18   3   5    6.93  102.46
 -18  -3   5  -93.13  146.05
  18   3   5    8.67  240.28
 -18  -3   5 -138.55  167.59
  18   2  -5   24.61  102.35
  18   2  -5  220.01  195.69
 -18  -2  -5  449.11  187.38
 -18  -2  -5  -61.69  166.33
 -18  -2   5  -99.65  167.98
  18   2   5  121.12  109.73
  18   2   5    8.80  237.26
 -18  -2   5  120.22  166.14
  18   1  -5 -141.81  107.94
  18   1  -5    7.16  179.24
 -18  -1  -5   36.88  194.84
 -18  -1  -5    6.97  163.01
 -18  -1   5  128.87  173.74
 -18  -1   5   73.34  188.65
  18   1   5    8.86  240.52
  18   1   5   26.82  105.96
  18   0  -5    6.65  113.81
  18   0  -5  278.32  183.73
 -18   0  -5   21.59  179.79
 -18   0   5  113.95  170.74
  18   0   5    6.75  111.62
 -18   0   5 -249.47  209.41
  18   0   5  494.68  237.48
  18  -1  -5   13.61  112.48
 -18   1  -5  335.27  183.02
  18  -1  -5   -7.13  177.15
  18  -1   5    6.79  115.00
 -18   1   5   25.03  216.41
 -18   1   5    9.03  162.56
 -18   2  -5   53.56  190.06
 -18   2  -5  227.03  207.44
  18  -2  -5    7.11  114.59
  18  -2  -5  209.78  175.97
 -18   2   5   43.09  212.68
 -18   2   5 -365.80  169.66
  18  -2   5   34.37  114.57
 -18   3  -5  245.41  196.83
 -18   3  -5   -7.81  196.01
  18  -3  -5   88.12  118.55
 -18   3   5  -19.28  159.33
 -18   3   5  325.04  230.18
  18  -3   5 -240.30  216.72
  18  -3   5  195.62  114.86
 -18   4  -5   32.69  194.56
 -18   4  -5  -55.45  203.49
  18  -4   5   -8.27  200.60
  18  -4   5 -296.63  118.21
 -18   5  -5  517.37  239.01
 -18   5  -5 -179.22  230.39
  18  -5   5 1190.44  172.44
 -18   6  -5  -32.01  200.10
 -18   6  -5 -193.10  207.83
  18  -6   5  -62.41  116.70
  19   5  -5  403.80  235.44
 -19  -5  -5 -224.29  181.60
  19   5  -5  -20.31  101.73
  19   5   5 -337.39  263.93
 -19  -5   5  -33.41  151.41
  19   5   5   -8.15  117.53
 -19  -5   5  323.41  185.22
 -19  -4  -5  -82.47  206.57
  19   4  -5   27.34  104.78
 -19  -4  -5  -16.39  179.03
  19   4  -5 -141.76  233.16
 -19  -4   5 -169.22  188.53
 -19  -4   5  -26.82  161.80
  19   4   5  -96.67  122.33
  19   4   5   -9.43  267.89
 -19  -3  -5  224.70  200.25
  19   3  -5 -334.88  221.30
 -19  -3  -5  244.45  172.34
  19   3  -5  114.69  109.61
  19   3   5    9.55  241.72
 -19  -3   5 -208.60  180.73
  19   3   5    7.70  122.65
 -19  -3   5  -46.02  190.25
 -19  -2  -5 -130.64  178.97
 -19  -2  -5 -146.23  204.16
  19   2  -5  -34.77  117.45
  19   2  -5 -144.38  202.41
  19   2   5 -393.07  122.93
 -19  -2   5   28.15  178.94
  19   2   5  454.73  270.64
 -19  -2   5 -230.67  191.22
  19   1  -5    7.20  118.52
  19   1  -5 -235.88  209.04
 -19  -1  -5   15.58  181.96
 -19  -1  -5  145.88  215.96
  19   1   5 -738.68  262.78
 -19  -1   5 -232.25  199.03
  19   1   5    7.47  122.75
 -19  -1   5  -57.51  188.88
 -19   0  -5   86.59  219.66
 -19   0  -5  -71.62  197.63
  19   0  -5 -181.15  205.32
  19   0  -5    7.47  123.14
  19   0   5    9.48  259.17
 -19   0   5  -25.72  216.16
  19   0   5    7.49  133.48
 -19   0   5  253.96  196.38
 -19   1  -5  164.38  200.09
  19  -1  -5   83.10  130.04
  19  -1  -5 -298.57  195.54
 -19   1   5 -242.06  236.58
 -19   1   5  -50.89  194.26
  19  -1   5   -7.58  129.34
  19  -2  -5    7.76  128.01
 -19   2  -5  277.20  220.49
  19  -2  -5  493.63  199.12
 -19   2   5 -168.61  240.71
 -19   2   5 -135.34  185.89
  19  -2   5  349.32  138.74
  19  -3  -5   -8.04  126.18
 -19   3  -5  263.15  231.64
 -19   3  -5 -253.08  218.83
 -19   3   5   47.56  241.64
 -19   3   5  223.78  176.50
  19  -3   5   -7.49  122.89
  19  -3   5   73.77  231.10
 -19   4  -5   12.25  218.93
 -19   4  -5  118.82  217.22
  19  -4   5 -343.06  127.57
  19  -4   5   -9.16  234.69
 -19   5  -5  -12.57  226.30
 -19   5  -5 -239.74  218.07
  19  -5   5 -156.65  124.86
  19  -5   5    9.19  226.29
 -19   6  -5  215.87  217.85
  19  -6   5 -219.10  131.12
 -20  -5   5 -245.93  211.53
  20   4  -5   -7.57  115.08
  20   4  -5  -36.24  250.54
 -20  -4   5  -10.02  201.96
 -20  -4   5   22.54  177.56
  20   3  -5   -7.74  125.81
  20   3  -5   -8.92  229.08
 -20  -3   5  245.78  204.66
 -20  -3   5 -147.75  188.17
  20   2  -5   30.75  125.63
  20   2  -5   61.09  232.18
 -20  -2   5 -131.86  209.36
 -20  -2   5  135.64  201.63
  20   1  -5  155.57  222.88
  20   1  -5 -337.59  133.02
 -20  -1  -5   34.85  209.64
  20   1   5  -77.41  137.17
 -20  -1   5  221.27  221.98
 -20  -1   5  -32.37  193.39
  20   0  -5   -8.27  138.62
 -20   0  -5  194.49  214.52
  20   0  -5  164.65  218.33
  20   0   5   -8.29  141.67
 -20   0   5   -9.37  236.87
 -20   0   5 -154.75  203.57
  20  -1  -5 -138.99  208.67
 -20   1  -5   -8.97  220.36
  20  -1  -5  109.09  139.20
 -20   1   5  294.92  214.57
 -20   1   5   67.67  240.90
  20  -2  -5  -25.62  136.50
  20  -2  -5 -597.65  213.22
 -20   2   5 -171.39  256.53
 -20   2   5 -104.09  207.00
  20  -3  -5    8.74  145.46
 -20   3   5  194.32  268.34
   0   0  -6   17.94   11.67
   0   0  -6   28.77   18.64
   0   0   6   -2.54   19.99
   0   1  -6   -0.71    6.68
   1   0  -6    7.60   17.40
   0   1  -6   -8.70   13.18
   1   0  -6    1.28   10.59
  -1   0  -6   -1.10    9.05
   1   0   6   -1.22   20.34
  -1   0   6   -1.35   20.58
   0  -1   6   -0.81   15.15
   1   1  -6  379.98   85.32
   1   1  -6  370.96   78.64
  -1   1  -6  383.28   89.67
  -1   1  -6  213.47   86.86
  -1   1  -6  303.89   79.96
  -1  -1   6  282.59   91.32
   1  -1   6  283.38   91.19
   1  -1   6  299.92   93.02
   1  -1   6  385.56   82.34
  -1   2  -6   93.49   17.73
  -1   2  -6   53.69   19.44
   2   1  -6   56.21   15.42
  -1   2  -6   38.29   14.62
   2   1  -6   82.20   22.29
   1  -2   6   43.06   14.59
   1  -2   6   59.65   14.98
   1  -2   6   41.88   21.95
  -2  -1   6   29.78   24.00
   0   2  -6  892.80  223.21
  -2   0  -6  816.37  238.51
   2   0  -6  945.07  231.05
   0   2  -6  951.66  206.06
   2   0   6  681.39  238.32
   2   0   6  915.94  214.84
  -2   0   6  928.54  248.66
  -2   1  -6   74.24   19.16
   1   2  -6   41.03   20.32
  -2   1  -6   60.25   15.04
  -2   1  -6   67.27   21.00
   1   2  -6   50.73   15.09
   2  -1   6   48.61   22.19
  -1  -2   6   45.25   20.83
   2  -1   6   66.71   24.16
   2  -1   6   52.48   16.59
  -2   2  -6 3960.67  910.64
  -2   2  -6 3237.28  903.31
  -2   2  -6 3924.00  954.85
   2   2  -6 3687.78  942.71
   2  -2   6 3607.50  893.58
  -2  -2   6 3315.98  981.58
   2  -2   6 3691.84 1031.94
   2  -2   6 3899.66  887.11
   3   2  -6  656.98  141.82
  -2   3  -6  718.48  163.15
  -2   3  -6  702.06  170.86
   3   2  -6  405.38  173.89
   3   2  -6  684.82  152.42
   3   2  -6  700.46  156.42
  -2   3  -6  739.79  155.63
  -3  -2   6  452.59  163.46
   2  -3   6  699.09  148.00
   2  -3   6  610.93  157.54
  -3  -2   6  600.20  161.57
  -1   3  -6  246.90   80.87
  -1   3  -6  349.53   75.93
   3   1  -6  261.63   79.92
   3   1  -6  360.69   86.80
   3   1  -6  286.30   73.23
   3   1   6  308.13   80.62
  -3  -1   6  355.03   86.61
  -3  -1   6  301.86   83.86
   0   3  -6    3.39    8.60
  -3   0  -6   13.28   15.90
   3   0  -6   -2.71   12.50
   0   3  -6  -10.49   15.58
  -3   0  -6    4.32    9.83
   3   0  -6  -17.45   24.23
   0  -3   6   -2.84    7.96
   3   0   6    2.18   13.10
  -3   0   6   19.27   28.62
   3   0   6  -13.35   22.47
  -3   1  -6  335.00   81.47
   1   3  -6  330.99   73.09
  -3   1  -6  254.62   72.99
  -3   1  -6  357.12   84.33
   1   3  -6  394.48   79.20
   3  -1   6  199.48   87.00
   3  -1   6  308.65   72.98
   3  -1   6  253.34   85.29
  -3   2  -6  651.95  142.24
   2   3  -6  598.73  170.64
  -3   2  -6  483.97  148.59
  -3   2  -6  555.85  153.21
   3  -2   6  694.04  142.74
   3  -2   6  564.57  141.68
   3  -2   6  477.72  163.56
  -3   3  -6   -3.11   23.99
   3   3  -6   11.14   21.47
  -3   3  -6    9.46   15.15
   3   3  -6    5.64   19.36
   3  -3   6   -9.78   32.90
   3  -3   6   -2.13   15.59
   3  -3   6   -0.82    9.01
  -3  -3   6   11.00   13.36
   4   3  -6  601.83  126.51
   4   3  -6  407.46  138.01
  -4  -3   6  473.04  131.57
   4   2  -6 1403.69  317.14
   4   2  -6 1410.03  335.43
   4   2  -6 1208.69  372.38
  -4  -2   6 1341.73  342.72
   4   1  -6  536.10  128.35
  -1   4  -6  329.57  126.96
   4   1  -6  527.77  141.98
  -4  -1  -6  525.40  135.98
   4   1  -6  507.88  116.39
   4   1  -6  553.89  118.08
  -4  -1   6  371.83  131.98
  -4  -1   6  577.73  139.18
   4   1   6  681.51  134.41
   4   1   6  624.54  124.32
   4   0  -6   32.05   30.01
   4   0  -6   30.53   16.07
   0   4  -6   53.42   20.33
  -4   0  -6   29.91   21.85
   0   4  -6    3.77   14.05
   0  -4   6    8.35   11.51
  -4   0   6   10.68   36.76
  -4   0   6   31.63   21.05
   4   0   6   48.29   18.02
   4   0   6   33.97   30.50
  -4   1  -6  543.37  128.42
  -4   1  -6  392.78  117.73
  -4   1  -6  563.99  135.92
   1   4  -6  520.61  125.10
   4  -1   6  502.48  138.35
   4  -1   6  486.10  134.67
   4  -1   6  493.11  114.77
  -4   2  -6 1361.58  345.02
  -4   2  -6 1512.72  317.73
  -4   2  -6 1217.22  343.85
   4  -2   6 1287.45  322.65
   4  -2   6 1374.38  319.57
   4  -2   6 1314.96  348.94
   3   4  -6  453.31  137.09
  -4   3  -6  469.83  127.56
   3   4  -6  599.01  118.03
  -4   3  -6  482.69  134.01
  -3  -4   6  484.03  116.25
   4  -3   6  404.53  138.04
   4  -3   6  512.59  122.56
   4   4  -6  257.06   71.64
   4   4  -6  220.88   63.53
   4   4  -6  207.94   56.38
  -4  -4   6  215.15   56.02
   4  -4   6  226.03   61.19
   5   4  -6  576.07  128.70
   5   4  -6  524.00  139.37
   5   4  -6  560.66  157.36
   5   4  -6  484.51  140.56
  -5  -4   6  409.89  149.22
  -5  -4   6  549.56  128.12
   5   3  -6 1783.25  389.71
   5   3  -6 1386.38  459.86
   5   3  -6 1634.81  421.71
  -5  -3   6 1857.87  394.74
  -5  -3   6 1748.27  439.79
   5   2  -6  794.83  153.13
  -5  -2  -6  456.57  183.09
   5   2  -6  617.36  187.30
  -5  -2   6  718.77  160.69
   5   2   6  609.92  172.15
  -5  -2   6  520.07  170.06
   5   1  -6  580.04  179.75
   5   1  -6  710.69  165.47
   5   1  -6  671.36  151.35
  -5  -1   6  733.77  165.76
  -5  -1   6  767.65  180.61
   5   0  -6   19.27   21.90
   5   0  -6   56.41   18.57
   5   0  -6    1.56   34.69
   5   0  -6   -4.15   37.11
  -5   0   6   25.79   45.89
  -5   0   6  -14.80   31.28
   5  -1  -6   -2.07  135.49
  -1  -5   6  894.59  130.52
  -5   2  -6  630.95  171.84
   5  -2   6  645.60  173.39
  -5   3  -6 1864.71  449.50
  -3  -5   6 1328.61  385.35
   4   5  -6  628.32  149.90
  -5   4  -6  585.19  158.01
   4   5  -6  615.33  144.05
  -4  -5   6  579.09  140.00
   5  -4   6  630.44  164.88
   5   5  -6   35.72   37.03
   5   5  -6  -10.60   33.83
   5   5  -6   28.18   22.95
  -5  -5   6   37.14   20.78
   6   5  -6   44.01   27.42
   6   5  -6   73.44   40.95
  -6  -5   6   49.12   27.21
   6   4  -6  516.43  149.92
   6   4  -6  687.48  162.33
  -6  -4   6  699.04  150.02
   6   3  -6  229.40   52.31
   6   3  -6  225.06   59.10
   6   3  -6  167.22   47.63
  -6  -3   6  192.98   50.08
  -6  -3   6  205.23   59.02
  -6  -3   6  177.13   63.53
  -6  -2  -6 1112.93  316.51
   6   2  -6 1152.03  267.62
   6   2  -6 1098.24  264.10
  -6  -2   6 1046.00  297.97
   6   2   6 1148.58  282.67
   6   2   6 1107.93  306.39
  -6  -1  -6   15.52   34.57
   6   1  -6   -1.34   19.61
   6   1   6  -16.93   24.70
   6   1   6  -26.75   46.10
  -6   0  -6   78.63   42.34
   6   0   6   99.20   32.67
   6   0   6   90.65   55.92
  -6   1  -6   19.45   40.22
  -6   1   6   -2.53   35.15
   6  -1   6   -1.51   22.42
   6  -1   6   21.59   53.65
  -6   2  -6 1035.75  278.35
   6  -2   6 1154.19  279.54
   6  -2   6 1168.80  314.11
  -6   3  -6  295.01   63.78
  -6   3  -6  171.88   57.13
   6  -3   6  208.79   74.40
   6  -3   6  213.38   56.68
   4   6  -6  596.71  157.72
  -6   4  -6  649.34  164.18
   6  -4   6  598.26  173.02
  -4  -6   6  462.71  151.18
   6  -4   6  718.36  154.70
   5   6  -6   12.14   36.97
   5   6  -6   -4.62   25.23
  -6   5  -6   13.86   53.41
   6  -5   6   15.32   33.96
  -5  -6   6    9.16   27.19
   6   6  -6   48.29   37.85
   6   6  -6   19.32   27.30
   6   6  -6   30.18   48.09
  -6  -6   6   11.93   27.24
   7   6  -6   35.44   32.27
   7   6  -6   26.57   41.54
   7   6  -6   13.21   55.35
  -7  -6   6   27.69   30.79
   7   5  -6   54.39   29.29
   7   5  -6   43.67   58.33
   7   5  -6   80.81   42.51
  -7  -5   6   83.40   30.66
  -7  -5   6   64.67   44.27
   7   4  -6   55.89   62.15
   7   4  -6  129.72   38.52
   7   4  -6  117.84   45.06
   7   4  -6  106.23   29.19
  -7  -4   6   71.59   46.26
  -7  -4   6   58.56   31.44
   7   3  -6  236.26   86.65
   7   3  -6  244.14   71.31
   7   3  -6   82.07  112.23
  -7  -3  -6  216.30   95.97
   7   3  -6  287.60   75.13
   7   3   6  504.48   91.10
  -7  -3   6  267.24   74.36
  -7  -3   6  299.84   87.08
  -7  -3   6   29.53  104.94
   7   2  -6  195.43   86.56
   7   2  -6  272.10   71.19
   7   2  -6  205.29   56.41
   7   2  -6  312.73   58.97
  -7  -2  -6  246.26   76.32
   7   2   6  231.31   82.44
  -7  -2   6  249.77   73.99
  -7  -2   6  221.88   81.87
  -7  -2   6  209.91   68.07
   7   2   6  128.04   64.13
   7   1  -6   64.83   28.94
  -7  -1  -6  125.66   42.14
   7   1  -6   74.41   53.86
   7   1  -6   59.75   23.19
   7   1  -6  127.12   43.96
  -7  -1   6   18.25   53.71
   7   1   6   97.00   58.77
  -7  -1   6   33.04   41.33
   7   1   6   59.08   32.63
   7   0  -6    5.71   28.50
   7   0  -6    8.76   53.63
   7   0  -6   16.00   19.84
  -7   0  -6   26.74   39.84
   7   0   6   -7.39   27.91
   7   0   6   37.79   60.66
  -7   0   6   -2.46   39.08
   7  -1  -6    7.14   51.97
   7  -1  -6   21.02   36.50
   7  -1  -6   60.17   28.94
  -7   1  -6   88.08   49.11
   7  -1   6   44.51   31.54
  -7   1   6   37.88   45.66
   7  -1   6   87.35   67.90
  -7   2  -6  259.37   85.43
  -7   2  -6  226.99   68.59
   7  -2   6  150.68   87.49
   7  -2   6  187.70   61.62
  -7   3  -6  418.88   93.79
  -7   3  -6  368.74   95.35
   7  -3   6  263.46  108.30
   7  -3   6  359.15   90.52
  -7   4  -6   47.03   53.74
   7  -4   6   95.87   65.44
   7  -4   6   68.59   40.23
  -7   5  -6   71.20   58.86
   7  -5   6  127.46   68.48
   7  -5   6   48.30   38.40
   7   7  -6  384.88  111.16
   8   7  -6   20.53   51.56
   8   7  -6   60.56   65.86
   8   6  -6   17.52   70.86
   8   6  -6  102.54   49.17
   8   6  -6   45.18   37.37
  -8  -6   6   77.16   37.44
   8   5  -6  107.54   74.30
   8   5  -6   90.38   51.12
   8   5  -6   51.15   35.90
   8   5  -6  169.79   47.52
  -8  -5   6   88.59   34.52
  -8  -5   6  120.93   54.62
   8   4  -6   24.00   22.55
   8   4  -6   -2.11   45.64
   8   4  -6   38.06   65.60
   8   4  -6   18.17   32.14
  -8  -4   6   22.98   43.11
  -8  -4   6   20.84   23.83
   8   3  -6   -1.42   20.38
   8   3  -6  122.07   65.80
   8   3  -6   30.72   44.31
  -8  -3  -6   17.38   51.08
   8   3  -6   35.67   30.45
   8   3   6   52.30   43.57
  -8  -3   6   28.89   23.69
  -8  -3   6   27.89   48.92
  -8  -3   6   45.67   44.19
   8   2  -6  178.27   68.39
  -8  -2  -6  120.72   70.06
   8   2  -6  175.54   50.16
   8   2  -6  248.83   85.82
   8   2  -6  217.56   54.10
   8   2   6  214.07   82.71
  -8  -2   6  241.35   54.42
  -8  -2   6  178.29   65.21
   8   2   6  153.69   61.63
  -8  -2   6  148.47   72.09
  -8  -2   6  251.02   81.78
   8   1  -6   -2.34   51.13
   8   1  -6  -74.33   66.14
   8   1  -6    2.59   19.39
   8   1  -6  -38.43   28.83
  -8  -1  -6   10.91   45.75
  -8  -1   6  -21.68   47.28
  -8  -1   6   11.93   56.38
  -8  -1   6    2.29   63.08
   8   1   6  -31.70   33.59
   8   1   6  -19.92   71.90
   8   0  -6  262.27   59.29
  -8   0  -6  167.93   70.38
   8   0  -6  159.96   82.79
   8   0  -6  207.13   52.68
   8   0  -6  222.04   76.78
   8   0   6  167.13   54.68
   8   0   6  178.00   93.89
  -8   0   6  153.73  103.29
  -8   0   6  201.75   72.49
  -8   1  -6   12.04   53.57
   8  -1  -6  -43.23   36.20
   8  -1  -6  -40.64   57.32
   8  -1  -6   -1.96   27.88
   8  -1   6  -92.70   79.05
   8  -1   6   -6.20   31.84
  -8   1   6    6.53   51.65
  -8   2  -6  149.57   70.43
  -8   2  -6  257.63   86.73
   8  -2  -6  190.14   65.55
   8  -2   6  204.29   61.68
   8  -2   6  218.26   96.94
  -8   3  -6   21.14   52.26
   8  -3   6   23.01   68.88
   8  -3   6   47.50   39.01
  -8   4  -6   -3.49   57.14
   8  -4   6   60.14   39.10
   8  -4   6  -30.03   70.51
  -8   5  -6   85.32   69.99
   8  -5   6   83.52   78.49
   8  -5   6  125.27   47.53
   8  -6   6  102.61   47.96
   9   7  -6  517.61  149.68
   9   7  -6  395.12  130.01
   9   6  -6  285.09   90.75
   9   6  -6  344.96   99.55
   9   6  -6  352.15  119.80
  -9  -6   6  342.73   89.93
   9   5  -6   82.48   50.32
   9   5  -6   35.07   57.82
   9   5  -6  137.18   39.18
   9   5  -6   22.57   80.80
  -9  -5   6  152.70   61.29
  -9  -5   6   89.43   38.91
   9   4  -6   82.26   50.85
  -9  -4  -6   55.96   60.36
   9   4  -6   55.05   38.54
   9   4  -6   14.57   27.01
   9   4  -6  128.70   81.44
  -9  -4   6   68.82   51.36
  -9  -4   6   14.12   27.39
  -9  -4   6   81.68   57.21
   9   3  -6   34.09   33.45
   9   3  -6   58.56   74.95
   9   3  -6   27.65   22.38
   9   3  -6    8.79   47.69
  -9  -3  -6   79.06   60.28
  -9  -3   6   13.62   56.36
  -9  -3   6   32.83   28.00
   9   3   6   26.39   48.10
  -9  -3   6   27.39   49.67
   9   2  -6   94.55   77.21
   9   2  -6  167.06   41.15
   9   2  -6  100.08   32.50
  -9  -2  -6  117.43   61.82
   9   2  -6   98.91   56.18
  -9  -2   6  135.68   58.03
  -9  -2   6   30.01   63.28
   9   2   6  271.71   83.33
   9   2   6   53.63   45.97
  -9  -2   6   93.63   68.58
  -9  -2   6   74.67   37.26
  -9  -1  -6   51.70   52.30
   9   1  -6   13.71   67.72
   9   1  -6   -2.24   34.68
   9   1  -6   -1.38   20.79
   9   1  -6  -25.81   54.36
  -9  -1   6  -47.46   79.53
   9   1   6 -118.24   80.23
   9   1   6  -34.46   35.34
  -9  -1   6  -22.14   68.95
  -9  -1   6  -16.67   51.63
   9   0  -6  -44.73   59.23
   9   0  -6   27.39   37.21
   9   0  -6   -4.53   22.86
   9   0  -6   75.97   66.34
  -9   0  -6   43.73   58.70
   9   0   6  -31.28   35.86
   9   0   6 -110.09   86.02
  -9   0   6  -18.88   81.50
  -9   0   6    9.50   53.71
  -9   1  -6    6.46   61.67
   9  -1  -6   -9.47   28.36
   9  -1  -6   33.20   68.59
  -9   1  -6   24.99   63.50
   9  -1  -6  -14.09   42.87
   9  -1   6   27.49   88.93
  -9   1   6  -39.49   57.43
   9  -1   6  -28.49   37.69
  -9   2  -6  147.40   62.07
   9  -2  -6  150.92   45.74
  -9   2  -6   91.03   80.15
   9  -2  -6   69.72   54.00
   9  -2   6  262.37   93.73
   9  -2   6  101.61   48.39
  -9   2   6   64.58   65.56
  -9   3  -6  -23.69   83.48
  -9   3  -6   38.58   61.22
   9  -3   6  100.72   81.75
   9  -3   6   24.32   42.66
  -9   4  -6   -7.69   65.21
   9  -4   6   67.39   47.09
   9  -4   6  228.81   84.15
  -9   5  -6   70.34   73.10
   9  -5   6   81.21   50.96
   9  -5   6  165.87   87.27
   9  -6   6  396.79   99.17
  10   8  -6  261.75   94.92
  10   7  -6   76.38   94.47
  10   7  -6   93.35   65.76
  10   6  -6  128.99   66.43
  10   6  -6  187.91   51.36
  10   6  -6  163.85   95.40
 -10  -6   6   87.28   75.09
 -10  -6   6  115.68   49.16
  10   5  -6  575.39  169.43
  10   5  -6  581.33  157.52
  10   5  -6  805.94  196.16
  10   5  -6  496.54  156.20
 -10  -5   6  668.09  184.26
 -10  -5   6  688.71  170.31
 -10  -5   6  616.22  156.14
  10   4  -6   11.59   27.49
  10   4  -6  -16.20   90.23
  10   4  -6   10.62   41.88
 -10  -4  -6  -15.09   69.88
  10   4  -6  -14.61   54.27
 -10  -4   6   22.77   64.09
  10   4   6   23.44   54.87
 -10  -4   6   49.74   28.81
 -10  -4   6   40.56   56.88
  10   4   6   10.15   76.16
  10   3  -6  413.09  189.80
 -10  -3  -6  692.68  168.20
  10   3  -6  598.17  141.96
  10   3  -6  598.29  163.26
  10   3  -6  504.58  144.87
 -10  -3   6  435.71  185.87
 -10  -3   6  752.12  161.24
  10   3   6  542.15  146.26
 -10  -3   6  664.57  160.62
 -10  -3   6  574.97  149.10
  10   2  -6   93.40   60.66
  10   2  -6   98.29   44.81
  10   2  -6   80.19   31.85
  10   2  -6  152.22   88.44
 -10  -2  -6   -5.71   63.51
 -10  -2   6  102.97   79.29
  10   2   6  117.49   53.06
 -10  -2   6   94.96   63.82
 -10  -2   6  138.80   71.47
 -10  -2   6  128.36   36.63
  10   1  -6  -34.26   60.28
  10   1  -6   15.28   41.76
 -10  -1  -6   80.48   63.53
  10   1  -6   81.85   27.55
  10   1  -6   46.50   80.49
 -10  -1   6  165.82   89.12
 -10  -1   6   15.78   80.92
 -10  -1   6  120.80   64.92
  10   1   6   35.76   42.39
  10   1   6   -3.77   96.53
  10   0  -6  354.34  140.33
 -10   0  -6  481.17  133.49
  10   0  -6  475.69  139.74
  10   0  -6  431.69  116.96
  10   0  -6  351.98  108.79
  10   0   6  610.56  112.11
 -10   0   6  310.06  176.60
 -10   0   6  452.01  129.83
  10   0   6  642.48  162.56
  10  -1  -6   49.76   51.57
 -10   1  -6  126.86   74.46
 -10   1  -6  103.85   71.35
  10  -1  -6   78.62   34.06
  10  -1  -6  100.40   79.58
 -10   1   6   39.72   66.84
  10  -1   6  163.70  100.15
  10  -1   6   32.45   45.54
  10  -2  -6  132.74   43.43
  10  -2  -6   79.11   55.02
  10  -2  -6  118.64   82.51
 -10   2  -6   66.91   86.04
 -10   2  -6  101.80   74.53
  10  -2   6   37.95  100.59
  10  -2   6   40.09   50.68
 -10   2   6  137.11   75.54
 -10   3  -6  644.30  209.60
 -10   3  -6  871.18  181.32
  10  -3   6  926.77  172.35
  10  -3   6  474.92  197.15
 -10   4  -6   77.42   74.02
  10  -4   6   11.00   92.30
  10  -4   6   72.19   51.80
 -10   5  -6  581.45  168.19
  10  -5   6  589.27  149.85
  10  -5   6  510.27  172.94
 -10   6  -6   68.95   85.29
  10  -6   6    6.65   54.16
  11   8  -6   94.99  101.44
  11   8  -6   -6.42   69.90
  11   7  -6  352.61  123.51
  11   7  -6  153.31   86.34
  11   6  -6  -63.09  105.74
  11   6  -6   89.00   60.25
  11   6  -6   47.72   60.03
 -11  -6   6   56.16   71.39
 -11  -6   6   59.80   39.00
  11   5  -6   16.29   62.38
  11   5  -6   10.40   36.00
  11   5  -6  119.86   53.64
  11   5  -6  126.53  105.27
 -11  -5   6   43.59   69.52
 -11  -5   6   32.03   36.31
 -11  -5   6   38.26   68.34
  11   4  -6  166.09   62.45
  11   4  -6  203.87  118.55
  11   4  -6  155.71   76.61
 -11  -4  -6  128.88   92.87
  11   4  -6  191.96   55.40
 -11  -4   6  226.49   80.60
 -11  -4   6  228.39   55.93
 -11  -4   6  168.22   90.67
  11   4   6  173.95   77.07
  11   4   6    3.79  104.70
 -11  -3  -6   86.68   86.45
  11   3  -6  212.78   50.21
  11   3  -6  151.01   58.96
  11   3  -6  139.80   72.92
  11   3  -6  239.18  109.80
 -11  -3   6  207.06   91.03
  11   3   6   72.61   66.06
 -11  -3   6  197.11   78.33
 -11  -3   6  156.97   51.93
 -11  -3   6  238.68   80.78
  11   2  -6   24.98   97.47
  11   2  -6    7.83   26.35
  11   2  -6   52.67   63.67
 -11  -2  -6   85.58   72.09
  11   2  -6   51.30   45.08
  11   2   6  128.68   53.22
 -11  -2   6   57.62   30.98
 -11  -2   6   88.47   67.67
 -11  -2   6   88.68   76.56
 -11  -2   6   72.49   87.17
  11   1  -6 1542.63  333.57
 -11  -1  -6 1779.08  360.86
  11   1  -6 1158.01  384.54
 -11  -1   6 1166.17  480.73
  11   1   6 1545.85  315.87
 -11  -1   6 1233.32  357.76
  11   1   6 1065.56  403.81
 -11  -1   6 1148.04  397.70
  11   0  -6  -28.05   88.98
  11   0  -6  -32.04   51.15
 -11   0  -6    3.29   77.21
 -11   0   6   42.94  104.30
  11   0   6 -159.92   46.82
  11   0   6    4.46  113.48
 -11   0   6   15.95   71.48
 -11   0   6  -32.74  104.27
  11  -1  -6 1506.00  389.16
  11  -1  -6  860.70  359.95
 -11   1  -6 1820.00  397.27
 -11   1  -6 1662.90  375.77
  11  -1   6 1593.76  341.78
 -11   1   6 1598.53  380.63
  11  -1   6 1164.58  414.83
 -11   2  -6  138.36   97.48
 -11   2  -6   64.70   82.21
  11  -2  -6  -31.35   87.94
  11  -2  -6  -11.12   63.73
 -11   2   6   -4.84   76.90
  11  -2   6    4.25  112.06
  11  -2   6    3.22   53.70
  11  -3  -6   97.80   76.90
 -11   3  -6  148.11  123.12
 -11   3  -6  213.45   96.55
  11  -3   6  230.27   78.53
 -11   4  -6  120.49  103.11
  11  -4   6  335.05   78.93
 -11   5  -6   78.28   91.89
  11  -5   6    7.11   59.37
  11  -5   6    4.24  106.42
 -11   6  -6   63.10   90.29
  11  -6   6   98.27   59.84
  12   7  -6  168.67  125.77
  12   6  -6  109.18  118.01
  12   6  -6   90.00   65.73
 -12  -6   6   37.46   83.70
  12   5  -6    7.37   56.73
  12   5  -6  232.54  123.82
 -12  -5   6  -28.88   72.83
  12   4  -6  191.65  125.51
 -12  -4  -6   30.29   92.76
  12   4  -6  156.77   60.92
 -12  -4   6  148.77   79.67
  12   4   6  110.69   73.14
 -12  -3  -6   90.79   81.45
  12   3  -6   81.80  110.76
  12   3  -6   30.58   49.04
 -12  -3   6    3.79   76.46
  12   3   6   15.73   60.15
 -12  -3   6  -24.87   73.70
 -12  -2  -6  884.77  195.07
  12   2  -6  542.31  167.16
  12   2  -6  708.05  220.49
 -12  -2   6  590.88  192.91
  12   2   6  751.93  164.98
 -12  -2   6  536.04  204.15
  12   1  -6   26.00   53.39
 -12  -1  -6   31.66   79.47
  12   1  -6   96.95  102.36
 -12  -1   6   49.81   78.63
 -12  -1   6  -12.04  105.99
  12   1   6   51.33   57.90
  12   1   6 -200.54  133.68
  12   0  -6  768.24  221.59
 -12   0  -6 1192.15  244.76
  12   0  -6  949.78  246.83
 -12   0   6  843.90  236.17
 -12   0   6  697.82  277.69
  12   0   6  810.46  208.21
  12   0   6  690.95  284.02
  12  -1  -6  -69.20   62.80
  12  -1  -6  109.06   99.42
 -12   1  -6  -12.00  100.68
 -12   1  -6  -33.85   98.26
  12  -1   6 -530.39  144.55
 -12   1   6  -29.08   87.81
  12  -1   6    3.47   56.82
  12  -2  -6  666.41  187.20
 -12   2  -6  553.81  202.50
  12  -2  -6  635.24  209.33
 -12   2  -6  943.18  228.45
 -12   2   6  285.80  204.12
  12  -2   6  690.26  231.91
  12  -2   6 1010.23  180.99
 -12   3  -6  -36.01   96.74
 -12   3  -6  -32.64  118.14
  12  -3  -6  -17.34   66.17
  12  -3   6  169.10  124.63
  12  -3   6  -75.71   66.53
 -12   4  -6  173.05  106.50
 -12   4  -6  244.66  134.37
  12  -4   6  283.44  123.87
  12  -4   6  129.15   82.09
  12  -5   6   86.25   65.10
  13   7  -6  680.78  228.68
  13   6  -6  636.66  212.49
 -13  -6   6  878.61  185.30
  13   5  -6   51.62   66.89
 -13  -5  -6   25.43   98.61
  13   5  -6  451.62  144.20
  13   5   6   62.21  125.39
 -13  -5   6   58.31   86.08
  13   4  -6  209.82  140.22
 -13  -4  -6  454.69   97.70
  13   4  -6   14.08   70.37
 -13  -4   6  112.97   91.18
 -13  -4   6  -89.61   98.74
  13   4   6  192.73  132.88
  13   3  -6   88.61   57.91
  13   3  -6  123.82  134.00
  13   3   6    5.01  134.07
 -13  -3   6   89.95   92.85
 -13  -3   6  152.88   94.73
  13   2  -6    3.44   57.67
  13   2  -6    4.39  120.19
 -13  -2   6   19.45  101.09
 -13  -2   6  -57.99   88.75
  13   1  -6  413.88  158.87
  13   1  -6  434.72  114.78
 -13  -1   6  407.16  138.23
 -13  -1   6  356.41  156.82
  13   0  -6   81.46  110.69
  13   0  -6   23.96   63.46
 -13   0   6   50.46  132.20
 -13   0   6   -9.97   91.04
  13  -1  -6  641.66  121.17
  13  -1  -6  332.36  146.49
 -13   1   6   48.24  134.76
  13  -2  -6   22.47   71.60
 -13   2   6   -5.79   87.95
 -13   4  -6   91.02  112.03
  13  -4   6    4.99  135.28
 -13   5  -6   64.00  115.64
  13  -5   6   20.32  125.65
 -13   6  -6  129.31  142.46
  13  -6   6  344.09  108.49
  13  -6   6  143.24  157.29
 -14  -5  -6  -60.21  105.68
  14   5   6   -5.32  136.30
 -14  -4  -6   56.11  106.19
  14   4   6   66.41   75.99
  14   4   6    5.41  141.29
 -14  -3  -6  325.08  123.16
  14   3   6  145.52   94.11
  14   3   6    5.67  170.13
 -14  -2  -6 -135.96  103.29
  14   2   6    4.44   69.64
 -14  -1  -6  -39.92  105.65
  14   1   6   -4.24   66.78
 -14   0  -6   51.60  110.63
 -14   0  -6  180.36  129.42
  14   0   6 -406.50  176.41
  14   0   6   17.40   79.45
 -14   1  -6  -87.60  133.12
 -14   1  -6 -174.36  125.74
  14  -1   6 -127.55  170.84
  14  -1   6   -8.87   78.10
 -14   2  -6   45.19  128.30
  14  -2  -6   98.95   74.19
 -14   2  -6   79.29  137.87
 -14   2   6 -145.78  106.68
  14  -2   6  -71.37   77.64
 -14   3  -6  134.37  170.59
  14  -3  -6  906.88  132.24
 -14   3  -6  113.08  151.15
  14  -3   6   22.52  174.97
 -14   3   6  455.83  144.78
  14  -3   6  312.77  117.82
 -14   4  -6  -74.33  149.50
 -14   4  -6 -130.80  126.79
  14  -4   6   -5.53  146.31
  14  -4   6 -137.05   76.08
 -14   5  -6 -172.76  150.55
 -14   5  -6  235.21  126.19
  14  -5   6   91.28   78.04
  14  -5   6   22.32  143.53
 -14   6  -6   29.97  125.92
  14  -6   6   47.75   79.81
  14  -6   6  132.66  138.61
  15   6  -6 -102.23   75.37
  15   6  -6 -356.04  173.96
 -15  -6   6   96.52  100.43
 -15  -5  -6   53.46  115.46
  15   5  -6  268.25  164.37
  15   5  -6    4.67   74.37
 -15  -5   6   91.63   96.42
  15   5   6    5.94  153.91
 -15  -5   6 -129.93  114.79
 -15  -4  -6  196.05  118.90
  15   4  -6  241.80  167.23
  15   4  -6  -21.38   70.33
  15   4   6  218.71  167.41
  15   4   6  116.47   86.80
 -15  -4   6  -95.36  103.84
 -15  -4   6   76.26  115.25
  15   3  -6  -42.04   66.09
 -15  -3  -6  -66.04  109.91
  15   3  -6 -216.65  148.02
  15   3   6  140.15  165.86
 -15  -3   6   30.76  110.57
  15   3   6 -299.15   85.58
 -15  -3   6   90.04  116.75
  15   2  -6 -171.43  149.38
 -15  -2  -6  -44.12  116.68
  15   2  -6   70.41   71.64
  15   2   6   -4.92   79.27
 -15  -2   6   68.60  113.42
 -15  -2   6  215.34  125.57
  15   2   6 -580.56  187.84
  15   1  -6   63.11  128.37
  15   1  -6   13.66   80.86
 -15  -1  -6   79.55  113.80
 -15  -1   6 -125.68  145.54
  15   1   6    4.85   76.27
 -15  -1   6  -29.82  119.61
  15   0  -6 -140.72  130.98
 -15   0  -6 -108.74  152.12
 -15   0  -6   67.50  120.35
  15   0  -6    4.89   77.73
 -15   0   6  -99.06  119.51
  15   0   6    4.83   85.98
 -15   0   6  -42.83  159.16
  15   0   6   13.64  191.04
  15  -1  -6    5.23   87.35
 -15   1  -6    5.55  136.76
  15  -1  -6   -5.32  127.03
 -15   1  -6   64.23  145.85
 -15   1   6 -145.19  169.10
  15  -1   6    6.65  180.85
 -15   1   6 -176.79  115.63
  15  -1   6 -177.82   88.44
  15  -2  -6   -5.49  129.13
  15  -2  -6 -207.67   88.58
 -15   2  -6  -14.51  143.29
 -15   2  -6  -11.67  148.89
  15  -2   6   20.00   85.00
 -15   2   6   20.86  117.36
 -15   2   6  -88.24  169.24
  15  -2   6    6.42  171.42
 -15   3  -6   74.88  145.16
 -15   3  -6  157.65  159.07
  15  -3  -6    5.63   85.14
 -15   3   6  -51.08  117.06
  15  -3   6 -206.44   83.15
  15  -3   6  -49.81  163.70
 -15   4  -6  -12.50  170.96
 -15   4  -6  108.25  147.59
  15  -4   6  332.22  171.13
  15  -4   6  458.72  105.09
 -15   5  -6  -88.59  146.70
 -15   5  -6   18.79  151.43
  15  -5   6    6.15  149.49
  15  -5   6    5.27   85.23
 -15   6  -6    8.29  136.39
 -15   6  -6  -87.08  158.48
  15  -6   6 -157.62  149.60
  15  -6   6  136.49   88.39
  16   6  -6    5.48   83.10
 -16  -6   6    6.10  127.18
 -16  -6   6  -50.07  107.00
 -16  -5  -6  -64.88  138.82
  16   5   6  -94.63   99.43
 -16  -5   6 -309.02  128.57
 -16  -5   6 -289.62  145.07
  16   5   6   -6.64  193.93
  16   4  -6 -112.19   97.07
 -16  -4  -6  -95.96  129.56
 -16  -4   6 -235.73  142.47
 -16  -4   6 -213.13  129.25
  16   4   6   20.52  185.62
  16   4   6  199.90   94.83
  16   3  -6 -398.92  167.00
  16   3  -6 -157.59   75.75
 -16  -3  -6  -11.33  127.30
  16   3   6    7.12  188.23
  16   3   6  159.09   83.61
 -16  -3   6   81.87  127.24
 -16  -3   6  -34.51  123.55
 -16  -2  -6  175.57  123.84
  16   2  -6   29.80   81.62
  16   2  -6  -41.18  164.88
 -16  -2   6  -59.43  134.60
  16   2   6    7.27  198.59
  16   2   6 -251.11   83.87
 -16  -2   6   58.56  128.68
  16   1  -6  115.28  149.63
 -16  -1  -6  144.80  129.37
  16   1  -6  -51.18   88.13
 -16  -1   6   -6.00  152.63
 -16  -1   6 -213.16  136.34
  16   1   6    5.41   86.23
  16   0  -6 -155.09  149.64
 -16   0  -6 -173.78  140.53
 -16   0  -6 -123.55  160.04
  16   0  -6    5.37   87.27
  16   0   6    5.36   91.90
 -16   0   6 -236.67  134.16
 -16   0   6  260.12  180.91
 -16   1  -6   55.82  157.48
  16  -1  -6  -64.08  137.29
  16  -1  -6   51.84  100.51
 -16   1  -6  399.92  154.52
  16  -1   6 -340.74  202.10
 -16   1   6  -87.08  128.61
 -16   1   6   57.56  191.50
  16  -1   6 -155.40   92.93
  16  -2  -6  179.51  142.72
 -16   2  -6  -41.34  156.56
 -16   2  -6   44.47  159.13
  16  -2  -6 -187.24   95.94
  16  -2   6  -42.53  187.64
  16  -2   6  132.34   94.86
 -16   2   6  -74.17  193.86
 -16   2   6  -91.72  138.63
 -16   3  -6 -134.71  156.33
 -16   3  -6   46.45  167.20
  16  -3  -6   12.33  101.38
  16  -3   6  133.68   89.37
  16  -3   6    6.89  180.24
 -16   3   6  238.99  130.67
 -16   4  -6  141.54  176.08
 -16   4  -6   26.02  166.94
  16  -4   6 -573.70  180.04
  16  -4   6    5.64   97.30
 -16   5  -6 -433.67  175.71
 -16   5  -6  -63.08  165.28
  16  -5   6 -374.95  180.21
  16  -5   6   11.45  101.12
 -16   6  -6  -55.27  151.46
 -16   6  -6  -13.55  179.18
  16  -6   6   13.85  156.87
  16  -6   6  109.90   92.31
 -17  -5  -6  -92.64  151.40
  17   5  -6   22.22   87.69
  17   5  -6    7.07  196.69
 -17  -5   6    5.25  121.39
 -17  -5   6  129.02  138.67
  17   5   6 -274.46  104.20
  17   5   6   22.44  213.47
  17   4  -6 -109.52  191.66
  17   4  -6  -69.96   84.15
 -17  -4  -6   99.98  141.92
  17   4   6   -7.66  204.55
 -17  -4   6 -190.07  143.28
  17   4   6    6.65  100.07
 -17  -4   6   73.14  125.84
  17   3  -6   -5.29   83.47
 -17  -3  -6   12.66  137.57
  17   3  -6  -19.86  182.77
 -17  -3   6  -64.13  148.55
 -17  -3   6 -148.40  140.27
  17   3   6 -330.83  222.15
  17   3   6   -6.28   97.82
  17   2  -6  161.96  174.61
 -17  -2  -6    7.84  157.62
  17   2  -6  214.25   91.56
 -17  -2  -6 -147.37  139.38
 -17  -2   6   -6.04  150.73
  17   2   6   12.48   96.99
 -17  -2   6 -116.27  145.39
  17   2   6    8.01  212.21
  17   1  -6    5.79   92.84
  17   1  -6 -151.65  162.20
 -17  -1  -6  268.20  142.58
  17   1   6 -198.86  103.04
 -17  -1   6 -188.73  142.47
 -17  -1   6  -46.63  172.28
  17   0  -6    5.98   97.43
  17   0  -6 -139.76  152.64
 -17   0  -6  167.75  155.81
 -17   0   6   61.94  147.35
  17   0   6    6.07   97.40
 -17   0   6   64.95  185.48
 -17   1  -6  107.45  159.61
  17  -1  -6    6.29  106.11
 -17   1  -6 -559.19  182.27
  17  -1  -6   31.95  155.66
 -17   1   6  108.91  201.62
  17  -1   6   36.72   93.80
 -17   1   6  -48.82  144.51
  17  -1   6 -166.82  220.42
  17  -2  -6    6.54  155.65
  17  -2  -6  -26.33  115.41
 -17   2  -6 -125.70  178.46
 -17   2  -6  -64.85  177.38
  17  -2   6    7.81  191.31
 -17   2   6 -143.12  157.24
 -17   2   6 -434.09  224.94
  17  -2   6 -285.90  104.92
 -17   3  -6   48.00  181.46
  17  -3  -6    6.80  113.63
 -17   3  -6 -213.96  177.78
  17  -3   6    6.12  105.70
 -17   3   6  260.91  206.83
  17  -3   6 -258.71  200.17
 -17   4  -6  -48.74  177.68
 -17   4  -6 -195.77  178.96
  17  -4   6   30.29  192.11
  17  -4   6   67.57   96.47
 -17   5  -6   60.59  176.00
 -17   5  -6   21.90  184.60
  17  -5   6   15.08  189.07
  17  -5   6  292.25  106.20
 -17   6  -6 -176.91  183.41
 -17   6  -6   61.85  171.35
  17  -6   6  144.68  106.97
 -18  -5   6  576.59  391.89
  18   5   6  871.11  308.52
 -18  -5   6  684.11  357.01
  18   5   6 2201.00  433.95
 -18  -4  -6  183.22  170.89
  18   4  -6   71.29   96.59
  18   4  -6  118.38  204.67
 -18  -4   6   54.75  166.13
  18   4   6    7.34  112.26
  18   4   6 -468.48  247.30
 -18  -4   6  -29.21  143.68
 -18  -3  -6  305.74  160.68
  18   3  -6   -5.86   90.74
  18   3  -6 -454.88  196.24
 -18  -3  -6    8.45  178.67
  18   3   6  112.71  238.10
  18   3   6    6.96  104.64
 -18  -3   6   24.60  152.26
 -18  -3   6    8.07  160.19
 -18  -2  -6 -187.91  164.45
  18   2  -6  -49.21   98.65
 -18  -2  -6  269.45  180.57
  18   2  -6   49.64  179.03
 -18  -2   6  232.94  164.39
  18   2   6    6.94  107.86
  18   2   6 -370.55  238.96
 -18  -2   6  271.27  162.27
  18   1  -6  -57.94  109.03
 -18  -1  -6  327.96  169.10
  18   1  -6    6.95  181.85
  18   1   6   -8.93  247.43
 -18  -1   6  124.73  186.18
  18   1   6   26.86  110.39
 -18  -1   6   -8.42  158.23
  18   0  -6  244.60  175.67
  18   0  -6  153.58  113.53
 -18   0  -6   50.03  175.01
 -18   0   6 -139.78  162.26
 -18   0   6   79.24  207.82
  18   0   6 -161.68  117.19
  18  -1  -6  225.01  178.47
 -18   1  -6   81.63  182.56
  18  -1  -6  -13.73  116.39
 -18   1  -6  -90.48  202.44
  18  -1   6   13.70  111.73
 -18   1   6  207.63  161.22
 -18   1   6 -125.87  221.71
  18  -2  -6   -7.17  119.02
 -18   2  -6   99.27  186.89
 -18   2  -6  -73.45  203.13
  18  -2  -6 -121.93  168.23
  18  -2   6    6.87  110.85
 -18   2   6 -204.39  154.79
  18  -2   6 -248.70  228.89
 -18   2   6  -61.36  224.52
  18  -3  -6   -7.47  119.60
 -18   3  -6  -10.77  200.59
 -18   3  -6  199.99  196.54
 -18   3   6 -274.25  231.10
  18  -3   6    8.39  211.28
  18  -3   6  129.15  112.41
 -18   4  -6 -144.24  215.05
 -18   4  -6 -457.90  203.80
  18  -4   6 -501.21  125.17
 -18   6  -6   79.74  202.92
 -18   6  -6 -345.90  188.23
  18  -6   6  -48.16  118.75
 -19  -5  -6    8.78  185.19
  19   5   6    9.33  255.54
  19   4  -6 -273.56  213.71
  19   4  -6    6.76  103.92
 -19  -4  -6  162.47  183.83
  19   4   6   -8.14  124.26
  19   4   6    9.38  255.62
 -19  -4   6   71.82  163.75
 -19  -4   6   61.62  174.51
  19   3  -6    6.68  108.17
 -19  -3  -6  319.89  185.71
  19   3  -6  236.96  212.71
 -19  -3  -6   18.72  200.21
 -19  -3   6  -34.38  172.95
 -19  -3   6  116.72  182.03
  19   3   6    9.56  259.82
  19   3   6   -7.95  124.05
  19   2  -6   -6.77  105.73
  19   2  -6 -672.44  207.43
 -19  -2  -6  117.06  211.89
 -19  -2  -6 -124.96  190.12
 -19  -2   6   96.16  187.60
 -19  -2   6   -9.15  175.77
  19   2   6  271.50  257.97
  19   2   6   92.77  123.38
 -19  -1  -6   93.66  186.37
 -19  -1  -6   10.28  207.32
  19   1  -6  107.07  193.38
  19   1  -6    7.21  118.71
 -19  -1   6 -167.82  211.26
  19   1   6  193.15  132.61
 -19  -1   6  113.68  182.01
  19   1   6  -29.04  247.41
  19   0  -6  -76.82  192.05
  19   0  -6    7.34  123.01
 -19   0  -6 -127.14  191.26
 -19   0   6  -25.76  216.77
  19   0   6  104.35  129.12
 -19   0   6  204.24  183.30
 -19   1  -6 -186.40  200.20
  19  -1  -6 -170.02  184.98
  19  -1  -6  136.44  121.95
 -19   1  -6   11.36  221.04
 -19   1   6   60.17  173.49
 -19   1   6  251.98  230.80
  19  -1   6   82.81  126.04
 -19   2  -6   46.90  232.60
  19  -2  -6   55.15  178.87
 -19   2  -6   66.05  209.96
  19  -2  -6   -7.84  127.24
  19  -2   6 -229.72  128.58
 -19   2   6   20.64  172.34
 -19   2   6  169.53  245.97
  19  -2   6 -112.51  247.45
  19  -3  -6    8.10  132.97
 -19   3  -6  159.76  215.28
 -19   3  -6   12.19  218.98
  19  -3   6   74.36  249.62
  19  -3   6  121.90  132.46
 -19   3   6    9.56  241.52
 -19   4  -6  -74.80  219.65
 -19   4  -6  135.27  227.78
  19  -4   6 -304.43  126.28
  19  -4   6    9.29  236.75
 -19   5  -6 -144.96  217.75
 -19   5  -6   63.97  228.69
  19  -5   6   29.55  121.29
  19  -5   6    9.28  230.82
 -19   6  -6 -248.99  222.92
 -19   6  -6 -530.06  214.78
  19  -6   6  -97.33  130.55
 -20  -4   6  208.24  214.91
  20   3  -6   66.74  120.21
  20   3  -6 -240.53  223.34
 -20  -3   6  -69.14  190.12
 -20  -3   6   30.32  205.96
  20   2  -6    8.45  215.66
  20   2  -6   99.50  125.11
 -20  -2   6  -65.47  206.25
 -20  -2   6  455.03  210.41
  20   1  -6  -39.56  129.03
  20   1  -6 -312.94  214.70
 -20  -1   6  167.57  219.69
 -20  -1   6 -284.54  198.58
  20   0  -6  118.16  203.19
  20   0  -6  -57.79  138.26
 -20   0   6  205.68  204.94
 -20   0   6 -103.05  238.04
  20  -1  -6  -51.07  207.54
  20  -1  -6    8.42  140.02
 -20   1   6  -88.27  255.54
 -20   1   6  111.92  194.59
  20  -2  -6   -8.50  143.67
 -20   2   6   11.43  184.13
 -20   2   6   70.81  262.61
   0   0  -7   18.78   22.48
   0   0  -7   -1.39   11.14
   0   0   7  -12.02   25.40
   0   1  -7  202.24   45.81
   0   1  -7  226.54   51.06
   1   0  -7  218.89   54.91
  -1   0  -7  182.70   48.82
   1   0  -7  161.52   48.28
   0  -1   7  170.76   54.24
  -1   0   7  219.91   59.22
   1   0   7  103.19   56.83
   1   1  -7    3.90   17.90
   1   1  -7    2.87    9.68
  -1   1  -7   -2.58    8.32
  -1   1  -7    5.45    8.11
  -1   1  -7   -6.77   18.21
   1  -1   7   -0.95   19.85
   1  -1   7   -5.48   13.67
  -1  -1   7  -14.44   21.72
  -1   2  -7  175.60   54.44
  -1   2  -7  211.41   53.12
  -1   2  -7  192.73   49.06
  -1   2  -7  151.06   47.35
   2   1  -7  219.96   55.14
   1  -2   7  153.51   58.49
   1  -2   7  159.06   54.41
  -2  -1   7  144.96   60.07
   1  -2   7  264.51   48.25
   0   2  -7    6.23   16.62
  -2   0  -7    1.19   12.50
   0   2  -7   -3.05    7.45
   2   0  -7   -9.37   24.82
   2   0   7    1.63   15.83
  -2   0   7  -11.77   29.11
   0  -2   7  -11.28   17.86
   1   2  -7  221.15   55.53
  -2   1  -7  174.90   58.57
  -2   1  -7  249.09   51.50
  -2   1  -7  272.97   57.20
   1   2  -7  181.30   49.02
  -1  -2   7  119.64   57.45
   2  -1   7  176.22   61.64
   2  -1   7  214.39   52.23
   2  -1   7  254.18   60.73
  -2   2  -7   -1.42   16.54
  -2   2  -7    1.19    7.34
   2   2  -7    1.28   20.34
  -2   2  -7  -15.80   12.84
  -2   2  -7    5.03   15.41
   2  -2   7    7.82   23.34
   2  -2   7    7.80   10.20
  -2  -2   7    4.01   21.30
   2  -2   7    5.35    8.75
   2  -2   7    1.28   16.01
  -2   3  -7 3284.36  716.93
  -2   3  -7 3584.53  784.63
  -2   3  -7 3089.27  752.36
   3   2  -7 3103.26  700.94
   3   2  -7 2930.13  837.21
  -3  -2   7 2630.26  750.82
   2  -3   7 3126.91  812.22
  -3  -2   7 2352.72  762.49
   2  -3   7 3235.60  691.16
  -3  -2   7 2748.25  746.12
  -1   3  -7  308.94   79.33
   3   1  -7  229.79   70.93
  -1   3  -7  202.88   73.64
   3   1  -7  286.59   74.65
   3   1  -7  420.15   80.51
  -3  -1   7  320.71   87.12
   1  -3   7  292.88   77.25
   1  -3   7  295.25   72.24
  -3  -1   7  344.43   81.84
  -3   0  -7 1569.74  446.83
   0   3  -7 1855.62  410.56
   3   0  -7 1916.14  418.78
  -3   0  -7 1940.96  463.64
  -3   0   7 1577.04  483.89
   3   0   7 1755.18  420.69
   3   0   7 1785.06  470.93
   0  -3   7 1492.07  405.46
  -3   1  -7  353.98   78.32
   1   3  -7  425.74   82.59
  -3   1  -7  353.68   89.75
  -3   1  -7  333.47   84.82
   3  -1   7  348.94   91.37
  -1  -3   7  245.29   75.70
   3  -1   7  310.33   89.87
   3  -1   7  312.31   77.67
  -3   2  -7 3031.52  678.08
  -3   2  -7 2897.19  734.63
  -3   2  -7 2838.10  771.51
   3  -2   7 3085.75  683.34
   3  -2   7 3127.41  766.92
   3  -2   7 3009.95  746.38
   3  -2   7 2280.39  687.84
  -3   3  -7   -0.85   11.18
   3   3  -7   -1.37   10.88
   3   3  -7   -5.04   19.92
  -3   3  -7   -8.87   26.35
  -3   3  -7   12.83   17.93
   3  -3   7   -8.18   10.09
  -3  -3   7    7.76   14.60
   3  -3   7    0.98   16.83
   3  -3   7  -14.96   35.67
   4   3  -7 1727.55  343.47
   4   3  -7 1266.66  348.32
  -3   4  -7 1353.21  357.01
   4   3  -7 1066.71  368.11
  -4  -3   7 1424.82  358.19
   3  -4   7 1375.79  342.33
  -4  -3   7 1460.50  316.33
   4   2  -7   34.96   18.98
  -2   4  -7   69.92   21.07
  -2   4  -7   75.52   25.55
   4   2  -7   44.88   35.47
  -4  -2   7   68.54   25.19
   2  -4   7   41.33   19.16
  -4  -2   7   76.90   27.81
  -1   4  -7  115.07   34.77
  -1   4  -7  123.75   38.98
   4   1  -7   -1.72   44.14
   4   1  -7  161.26   33.03
   4   1  -7  118.17   45.58
  -4  -1  -7   91.07   43.47
  -4  -1   7  185.10   42.62
   4   1   7  124.53   38.20
  -4  -1   7   -1.52   51.70
   1  -4   7  132.54   33.00
  -4   0  -7   -5.51   14.51
   0   4  -7  -15.65   21.72
   4   0  -7    4.30   35.26
  -4   0  -7   -2.45   24.22
   4   0   7   -8.72   34.04
   4   0   7   -9.47   18.50
  -4   0   7    3.99   43.22
  -4   1  -7  162.33   45.92
  -4   1  -7  171.80   48.54
  -4   1  -7  150.41   36.99
   4  -1   7  166.55   40.06
   4  -1   7  147.83   49.86
   4  -1   7  174.25   54.47
  -4   2  -7   79.63   36.22
  -4   2  -7   47.71   17.62
  -4   2  -7   73.35   23.97
  -4   2  -7   88.33   29.56
   4  -2   7   62.85   41.62
   4  -2   7   74.97   17.11
   4  -2   7   47.67   23.06
   4  -2   7   51.48   24.25
   3   4  -7 1387.90  336.35
   3   4  -7 1336.10  314.11
   3   4  -7 1458.38  381.13
  -4   3  -7 1514.02  330.56
  -4   3  -7 1505.32  352.86
   4  -3   7 1149.05  357.88
  -3  -4   7 1430.87  310.83
   4  -3   7 1157.74  326.16
   4  -3   7 1126.10  326.40
  -4   4  -7   24.71   20.22
   4   4  -7   15.30   28.88
   4   4  -7    3.21   28.57
   4   4  -7    1.35   16.60
  -4  -4   7   25.18   19.35
   4  -4   7   -2.92   22.52
   5   4  -7  909.52  242.61
   5   4  -7  861.27  220.26
   5   4  -7  999.30  239.55
   5   4  -7  799.24  264.47
  -5  -4   7  919.39  257.12
  -5  -4   7 1047.75  220.96
   5   3  -7  920.03  259.06
   5   3  -7 1012.54  216.93
   5   3  -7  975.51  235.69
   5   3  -7 1021.78  240.16
  -5  -3   7  927.40  245.22
  -5  -3   7  988.84  252.96
   5   2  -7 1698.02  546.94
   5   2  -7 2125.20  443.93
   5   2  -7 2022.74  454.14
  -5  -2   7 2175.06  481.97
  -5  -2   7 1994.29  496.88
   5   2   7 1868.39  494.08
   5   1  -7   61.67   37.24
   5   1  -7   64.64   21.19
  -5  -1   7   38.25   32.96
   5   1   7   26.29   41.48
  -5   0  -7 4640.69 1039.60
   5   0  -7 3789.86  967.63
   0  -5   7 3582.00  917.97
  -5   0   7 4122.03 1031.62
   1   5  -7   62.83   22.13
   1   5  -7   57.65   28.26
  -5   1  -7   42.24   12.46
  -1  -5   7   27.25   20.58
   2   5  -7 2191.54  501.79
  -5   2  -7 2144.91  525.09
   5  -2   7 1897.77  538.51
   5  -2   7 2179.67  485.20
   3   5  -7  797.02  209.19
  -5   3  -7  762.11  232.48
  -3  -5   7  880.11  203.96
   4   5  -7 1150.39  247.92
  -5   4  -7  818.47  256.42
   4   5  -7  895.10  276.42
   4   5  -7 1028.56  235.53
  -5   4  -7  982.86  265.42
  -4  -5   7 1061.54  231.94
   5  -4   7 1094.01  268.54
   5   5  -7   11.17   34.09
   5   5  -7  -15.88   40.03
   5   5  -7   -7.11   21.50
  -5  -5   7  -11.21   21.93
   5  -5   7  -11.37   29.34
   6   5  -7   97.90   45.09
   6   5  -7   93.30   31.87
  -6  -5   7   59.36   31.43
   6   4  -7  650.18  145.32
   6   4  -7  562.09  130.70
   6   4  -7  546.89  145.84
  -6  -4   7  564.82  153.17
  -6  -4   7  394.14  131.60
   6   3  -7 1053.85  263.86
   6   3  -7 1054.77  250.61
   6   3  -7 1281.22  277.04
  -6  -3   7 1142.67  293.71
  -6  -3   7 1084.81  277.71
  -6  -3   7 1220.04  256.06
   6   2  -7  874.44  209.56
  -6  -2  -7  985.98  247.42
   6   2  -7  858.77  206.44
   6   2  -7 1048.87  228.58
   6   2   7 1057.10  221.76
   6   2   7  835.48  234.73
  -6  -2   7  965.44  231.73
  -6  -2   7  856.22  250.07
   6   1  -7  425.33   91.96
  -6  -1  -7  287.09   90.97
   6   1  -7  296.01   76.72
   6   1  -7  322.02   79.08
  -6  -1   7  552.37  105.03
   6   1   7  271.50   81.88
   6   1   7  236.46   97.34
  -6   0  -7  -21.60   35.20
   6   0  -7    3.27   22.28
   6   0   7   15.15   54.00
   6   0   7   15.23   25.43
   6  -1  -7  273.15   75.85
  -6   1  -7  176.51   83.26
   6  -1   7  263.24   69.03
   6  -1   7  223.51   96.08
  -6   2  -7  934.68  259.28
  -6   2  -7 1177.30  251.92
  -6   2  -7 1133.88  223.28
   6  -2   7  692.14  262.09
   6  -2   7 1091.68  220.36
   6  -2   7  908.13  249.10
  -2  -6   7  783.45  221.84
  -6   3  -7 1075.69  273.11
   3   6  -7 1093.87  256.87
  -6   3  -7  867.91  251.28
   6  -3   7 1212.98  252.88
   6  -3   7  948.02  272.84
   4   6  -7  488.19  145.89
   4   6  -7  641.72  149.98
  -6   4  -7  694.67  160.84
  -6   4  -7  574.33  153.34
   6  -4   7  698.71  163.05
  -4  -6   7  551.77  141.54
   6  -4   7  529.60  146.63
  -6   5  -7  109.07   54.33
   5   6  -7  113.03   44.13
   5   6  -7  101.22   34.89
  -5  -6   7   69.85   32.27
   6  -5   7   76.31   38.95
   6   6  -7  -24.03   45.14
   6   6  -7    4.36   41.00
   6   6  -7    2.40   26.74
  -6  -6   7   -4.73   26.58
   6  -6   7   31.75   33.63
   7   6  -7   85.12   52.86
   7   6  -7  125.51   42.48
   7   6  -7  129.18   67.95
  -7  -6   7  154.45   43.91
   7   5  -7   60.26   36.20
   7   5  -7   36.45   57.16
   7   5  -7  -11.80   29.25
   7   5  -7   19.26   44.20
  -7  -5   7  -14.13   41.45
  -7  -5   7   27.29   25.90
   7   4  -7  447.03  109.97
   7   4  -7  401.40  139.18
   7   4  -7  553.68  125.13
   7   4  -7  541.31  119.54
  -7  -4   7  327.73  111.14
  -7  -4   7  576.37  125.79
   7   3  -7  819.90  124.60
   7   3  -7  409.55  158.33
   7   3  -7  462.42  119.93
   7   3  -7  375.35  138.77
  -7  -3   7  320.31  155.71
  -7  -3   7  531.52  124.20
   7   2  -7 1183.17  247.93
  -7  -2  -7  945.16  294.42
   7   2  -7  979.35  308.93
   7   2  -7 1105.15  280.13
   7   2   7 1041.69  287.37
   7   2   7 1209.84  261.31
  -7  -2   7 1210.18  270.41
  -7  -2   7  556.44  315.10
   7   1  -7  -55.75   45.37
   7   1  -7   45.72   53.17
   7   1  -7   16.58   18.79
   7   1  -7    3.27   25.03
  -7  -1  -7    4.03   40.57
   7   1   7    7.35   56.08
  -7  -1   7  -21.76   41.33
   7   1   7  -23.87   31.85
  -7  -1   7   -6.73   57.76
   7   0  -7   22.29   51.20
   7   0  -7   11.04   50.70
   7   0  -7    1.67   23.43
  -7   0  -7   19.19   41.23
   7   0  -7   80.81   30.02
  -7   0   7   51.74   66.92
   7   0   7   20.82   28.96
  -7   0   7    2.62   44.10
   7   0   7   -2.55   58.92
  -7   1  -7    4.05   45.96
   7  -1  -7   19.41   34.05
   7  -1  -7   -6.69   30.71
   7  -1   7    2.63   66.86
  -7   1   7  -17.83   44.31
   7  -1   7   -9.06   28.63
  -7   2  -7 1100.93  306.03
  -7   2  -7  990.06  267.60
   7  -2   7 1060.01  263.13
   7  -2   7 1111.22  301.83
  -7   3  -7  506.64  147.22
  -7   3  -7  624.56  142.97
   7  -3   7  628.66  140.38
   7  -3   7  607.47  157.05
  -7   4  -7  557.69  127.60
  -7   4  -7  459.72  132.06
   7  -4   7  573.40  136.71
   7  -4   7  380.50  121.38
   5   7  -7   25.70   42.06
  -7   5  -7   47.93   57.71
   7  -5   7   42.75   70.10
   7  -5   7    9.44   36.17
   6   7  -7  104.38   53.76
   7  -6   7  126.70   47.97
  -6  -7   7  101.45   43.56
   7   7  -7   -2.52   52.47
   7   7  -7  -34.02   55.15
  -7  -7   7   17.75   34.06
   8   7  -7  446.58  129.04
   8   7  -7  461.52  114.66
  -8  -7   7  310.97  106.53
   8   6  -7  -56.31   51.02
   8   6  -7  -10.54   32.43
   8   6  -7   56.18   68.59
  -8  -6   7   39.45   32.70
   8   5  -7   13.84   41.51
   8   5  -7   68.08   65.09
   8   5  -7    6.23   28.16
   8   5  -7   25.44   48.47
  -8  -5   7   32.08   50.88
  -8  -5   7   -2.23   27.72
   8   4  -7  117.34   61.12
   8   4  -7  146.45   78.00
   8   4  -7  129.74   43.42
   8   4  -7  142.18   51.90
  -8  -4   7  197.11   60.09
  -8  -4   7  191.52   46.12
  -8  -4   7  153.53   69.16
   8   3  -7  -42.52   29.20
   8   3  -7   11.62   66.02
  -8  -3  -7   30.45   54.90
   8   3  -7    1.50   21.25
   8   3  -7   24.44   45.76
   8   3   7   43.09   59.62
  -8  -3   7   11.61   52.97
  -8  -3   7  -26.88   44.91
   8   3   7   69.92   46.70
  -8  -3   7   -9.76   24.21
   8   2  -7  444.02  138.22
   8   2  -7  312.66  123.86
   8   2  -7  459.31  106.24
   8   2  -7  434.41  104.66
  -8  -2  -7  435.86  126.31
  -8  -2   7  472.52  141.49
   8   2   7  551.19  133.68
  -8  -2   7  447.32  118.53
   8   2   7  301.81  110.08
  -8  -2   7  493.22  125.66
   8   1  -7   69.70   63.89
   8   1  -7  246.99   73.69
   8   1  -7  145.51   39.18
  -8  -1  -7  145.55   58.69
   8   1  -7  158.49   45.65
   8   1   7   74.45   78.46
   8   1   7  144.50   47.58
  -8  -1   7  120.95   79.45
  -8  -1   7  133.63   73.52
  -8  -1   7   87.97   58.48
   8   0  -7   25.42   23.95
   8   0  -7    4.50   33.78
  -8   0  -7   20.05   48.27
   8   0  -7   91.76   58.83
   8   0  -7    3.00   56.66
  -8   0   7   -6.08   75.41
   8   0   7   28.08   35.32
   8   0   7   35.75   75.84
  -8   0   7  -43.94   50.01
   8  -1  -7  246.63   71.44
   8  -1  -7   92.82   52.55
  -8   1  -7   94.30   67.95
   8  -1  -7  201.63   47.47
   8  -1   7  183.28   90.98
   8  -1   7   88.01   45.81
  -8   1   7  134.69   64.83
  -8   2  -7  344.29  137.85
   8  -2  -7  408.40  119.51
  -8   2  -7  488.10  119.49
   8  -2   7  362.21  141.14
   8  -2   7  477.18  111.12
  -8   3  -7  -11.85   68.69
  -8   3  -7   -9.13   53.46
   8  -3   7  -37.88   72.07
   8  -3   7   -4.76   37.97
  -8   4  -7  171.37   71.18
   8  -4   7  185.07   80.34
   8  -4   7  104.54   53.92
  -8   5  -7   47.83   65.02
   8  -5   7   15.75   43.63
   8  -5   7   46.13   74.07
   8  -6   7  -30.58   45.46
   9   8  -7 1073.15  282.77
   9   7  -7   71.94   81.45
   9   7  -7   67.51   61.41
  -9  -7   7   22.91   40.71
   9   6  -7  207.73   70.29
   9   6  -7  260.25   83.26
   9   6  -7  266.49  104.43
  -9  -6   7  225.46   69.29
   9   5  -7  301.28   92.63
   9   5  -7  259.83  100.26
   9   5  -7  298.98  119.62
   9   5  -7  294.24   83.75
  -9  -5   7  283.28   84.33
  -9  -5   7  443.52  101.81
   9   4  -7    4.93   51.83
   9   4  -7   51.91   75.61
   9   4  -7   68.84   37.28
   9   4  -7   27.57   27.44
  -9  -4   7   16.63   49.56
  -9  -4   7  -33.16   59.56
  -9  -4   7    6.41   28.20
   9   3  -7   52.53   49.57
   9   3  -7   14.49   23.44
  -9  -3  -7   65.19   59.96
   9   3  -7   21.67   75.47
   9   3  -7   -2.11   33.76
  -9  -3   7    8.29   52.88
  -9  -3   7  -12.01   52.05
  -9  -3   7   62.29   29.48
   9   3   7    3.03   72.82
  -9  -3   7    4.31   63.65
   9   3   7   37.48   48.09
   9   2  -7   -5.06   51.65
   9   2  -7   54.17   72.13
   9   2  -7  -20.59   21.83
  -9  -2  -7    2.69   52.30
   9   2  -7    4.02   31.33
  -9  -2   7  -29.01   29.76
   9   2   7    3.13   73.78
   9   2   7   -5.94   42.15
  -9  -2   7   61.72   69.26
  -9  -2   7   37.60   59.41
  -9  -2   7   20.47   51.04
   9   1  -7  -62.70   70.17
  -9  -1  -7   55.20   55.33
   9   1  -7   67.56   36.50
   9   1  -7   34.22   55.69
   9   1  -7   41.40   24.76
  -9  -1   7   58.98   69.82
   9   1   7  -19.84   87.85
   9   1   7   61.98   40.12
  -9  -1   7   91.95   52.82
  -9  -1   7    2.89   79.96
  -9   0  -7   10.19   58.04
   9   0  -7   10.09   38.90
   9   0  -7   39.99   70.47
   9   0  -7    8.59   24.30
   9   0  -7   16.22   60.96
   9   0   7   14.68   37.65
  -9   0   7  -23.04   56.12
   9   0   7 -128.05   85.99
  -9   0   7   -3.40   84.55
   9  -1  -7   -8.62   47.07
   9  -1  -7  -15.34   70.24
   9  -1  -7   69.96   32.16
  -9   1  -7   10.88   66.81
  -9   1   7   71.08   61.80
   9  -1   7   38.40   38.17
   9  -1   7   28.04   89.08
  -9   2  -7  -85.65   73.10
   9  -2  -7   26.31   47.89
  -9   2  -7  -52.60   59.88
   9  -2   7   34.43   81.58
   9  -2   7   55.15   40.69
  -9   3  -7   50.25   77.97
  -9   3  -7    3.49   62.59
   9  -3   7   26.39   83.73
   9  -3   7   51.45   42.04
  -9   4  -7   96.12   66.92
   9  -4   7  -25.23   46.01
   9  -4   7  -13.26   82.62
  -9   5  -7  227.82  116.56
   9  -5   7  448.92  102.19
   9  -5   7  551.62  127.22
  -9   6  -7  258.59  100.34
   9  -6   7  311.71   81.32
  10   8  -7   57.74   69.60
  10   7  -7  369.95   99.66
  10   7  -7  492.37  126.90
 -10  -7   7  192.58   88.20
  10   6  -7  197.47   74.32
  10   6  -7   97.15   67.75
  10   6  -7  137.66  101.93
  10   6  -7  163.22   51.47
 -10  -6   7   91.24   73.80
 -10  -6   7  152.85   49.29
  10   5  -7   47.02   60.06
  10   5  -7  104.96   89.16
  10   5  -7  -24.02   34.88
  10   5  -7   71.92   48.47
 -10  -5   7   52.40   62.54
 -10  -5   7   94.75   69.07
 -10  -5   7   45.31   34.03
  10   4  -7  203.55   65.57
  10   4  -7  285.60   85.15
  10   4  -7  404.13  114.12
 -10  -4  -7  261.50   99.12
  10   4  -7  221.72   71.62
 -10  -4   7  289.24   85.36
 -10  -4   7  218.74   67.86
 -10  -4   7  253.45   99.07
 -10  -3  -7   10.22   65.03
  10   3  -7   40.53   37.10
  10   3  -7   17.05   25.10
  10   3  -7   -2.60   59.41
  10   3  -7  -28.04   86.05
  10   3   7    3.64   51.64
 -10  -3   7   52.99   55.82
  10   3   7    3.42   83.46
 -10  -3   7   10.94   30.44
 -10  -3   7   19.05   57.09
 -10  -3   7  -84.17   68.68
  10   2  -7   81.02   31.37
  10   2  -7   95.66   42.54
 -10  -2  -7  210.01   66.80
  10   2  -7  108.02   64.95
  10   2  -7   24.53   85.31
  10   2   7   18.91   51.06
 -10  -2   7  126.02   83.29
  10   2   7    3.61   91.79
 -10  -2   7   69.59   35.26
 -10  -2   7   21.74   72.25
 -10  -2   7  107.98   61.15
  10   1  -7  325.80   89.36
  10   1  -7  423.67  126.44
  10   1  -7  289.41  118.91
  10   1  -7  405.48   97.63
 -10  -1  -7  469.77  112.16
  10   1   7  435.34  140.05
  10   1   7  254.90   93.35
 -10  -1   7  383.48  150.14
 -10  -1   7  303.70  112.74
 -10  -1   7  331.10  129.85
 -10   0  -7   26.08   62.52
  10   0  -7   38.81   69.25
  10   0  -7  -31.20   26.74
  10   0  -7   22.81   46.03
  10   0  -7  -41.19   79.35
 -10   0   7    7.36   64.00
 -10   0   7  -49.11   96.83
  10   0   7   -2.73   42.98
  10   0   7   87.36  101.31
  10  -1  -7  654.84  131.77
 -10   1  -7  363.66  128.06
  10  -1  -7  187.84  110.57
 -10   1  -7  583.11  126.91
  10  -1  -7  297.92  104.13
  10  -1   7  713.42  155.09
 -10   1   7  392.72  127.24
  10  -1   7  444.90  104.26
 -10   2  -7  177.71   78.59
  10  -2  -7  101.15   48.73
  10  -2  -7   87.64   61.11
 -10   2  -7   96.13   87.25
  10  -2   7  245.76  113.41
  10  -2   7  186.98   55.63
 -10   2   7   81.55   76.11
 -10   3  -7    3.99   72.64
 -10   3  -7  -71.59   94.22
  10  -3   7 -207.90   96.08
  10  -3   7    3.03   51.04
 -10   4  -7  211.66   96.26
  10  -4   7  260.32   77.60
  10  -4   7  169.29  109.14
 -10   5  -7   18.89   86.53
  10  -5   7   32.08   54.47
 -10   6  -7  163.15   89.70
  10  -6   7   75.53   58.70
  11   8  -7  247.40   94.79
  11   7  -7  112.61   71.87
  11   7  -7  -14.67  100.07
  11   6  -7  189.09  109.33
  11   6  -7  113.26   46.29
  11   6  -7    3.06   71.26
  11   6  -7   87.47   62.85
 -11  -6   7  152.44   75.14
 -11  -6   7   81.63   45.70
 -11  -6   7   75.28   78.71
  11   5  -7  316.88   94.14
  11   5  -7  463.33  110.21
  11   5  -7  302.09  145.62
  11   5  -7  468.42  100.10
 -11  -5   7  308.05  126.35
 -11  -5   7  403.12  111.65
 -11  -5   7  256.99   94.73
  11   4  -7   47.38   62.70
 -11  -4  -7   46.04   78.14
  11   4  -7   52.63   31.45
  11   4  -7  -28.64  100.16
  11   4  -7    2.87   45.05
  11   4   7    4.26   62.76
 -11  -4   7   -2.50   77.08
 -11  -4   7   26.12   63.74
 -11  -4   7   -7.05   31.65
  11   3  -7  135.58   67.55
  11   3  -7   35.44  103.90
  11   3  -7  144.79   50.50
 -11  -3  -7  -14.74   84.06
  11   3  -7  123.90   36.60
 -11  -3   7  126.71   42.37
 -11  -3   7  176.56   73.58
 -11  -3   7  139.53   71.97
  11   3   7    3.84   68.52
 -11  -3   7  161.13   86.99
  11   2  -7  575.80  116.42
 -11  -2  -7  192.63  144.84
  11   2  -7  700.41  162.84
  11   2  -7  654.15  118.94
  11   2  -7  465.91  145.51
  11   2   7  165.49  120.73
 -11  -2   7  423.79  122.93
 -11  -2   7  513.95  149.26
 -11  -2   7  339.33  138.67
 -11  -2   7  670.65  178.45
  11   1  -7   -2.91   46.25
 -11  -1  -7 -192.48   86.36
  11   1  -7  -17.21   72.78
  11   1  -7   34.32   87.74
  11   1  -7    1.66   25.29
 -11  -1   7  -25.41   91.78
  11   1   7 -299.15  114.50
 -11  -1   7   -3.69   70.43
 -11  -1   7   17.78  102.15
  11   0  -7 1048.00  236.51
 -11   0  -7  995.21  256.14
  11   0  -7  954.32  263.27
  11   0  -7  978.29  226.79
  11   0   7  761.85  294.28
 -11   0   7  779.31  349.86
 -11   0   7  700.46  255.78
  11   0   7 1018.64  221.43
  11  -1  -7   59.45   85.58
 -11   1  -7  -78.04   91.37
  11  -1  -7  -28.21   54.29
 -11   1  -7 -303.15  103.60
 -11   1   7  -68.20   78.59
 -11   2  -7  382.82  166.14
 -11   2  -7  180.91  150.18
  11  -2  -7  461.24  131.24
  11  -2   7  670.83  127.36
 -11   2   7  426.65  148.49
 -11   3  -7  163.77   90.25
 -11   3  -7  -87.80  114.39
  11  -3   7 -294.99   70.27
 -11   4  -7  -43.72   86.57
 -11   4  -7  134.82  109.49
  11  -4   7  -73.60  106.47
  11  -4   7   38.86   62.71
 -11   5  -7  177.34  120.12
  11  -5   7  636.55  107.49
  11  -5   7  148.35  138.26
 -11   6  -7   51.18   94.11
  11  -6   7 -108.48  108.70
  11  -6   7  148.11   62.36
  11  -7   7  -40.87   63.63
  12   8  -7   21.00   77.53
  12   7  -7   85.08   77.94
  12   6  -7    8.42   59.91
  12   6  -7  -78.61  116.68
 -12  -6   7   47.36   77.59
 -12  -6   7   19.76   43.85
 -12  -6   7   71.01   84.02
  12   5  -7   42.39   61.45
  12   5  -7  309.43  126.67
 -12  -5   7  155.73   76.84
  12   4  -7  -76.68  115.08
  12   4  -7  -15.76   51.45
 -12  -4   7   70.15   74.25
 -12  -4   7   36.60   77.56
  12   3  -7  384.12  116.15
  12   3  -7  699.73  173.67
 -12  -3  -7  447.45  144.47
 -12  -3   7  347.10  142.95
 -12  -3   7  366.85  141.50
  12   3   7  515.17  122.34
  12   2  -7    6.10   49.69
 -12  -2  -7   50.07   82.86
  12   2  -7  -34.46  105.89
 -12  -2   7    3.48   90.39
 -12  -2   7    3.95   76.97
  12   2   7  -52.99   56.40
  12   2   7  106.37  126.89
  12   1  -7 1312.05  372.78
  12   1  -7  934.91  326.56
 -12  -1  -7 1578.81  354.19
  12   1   7 1512.29  403.84
 -12  -1   7 1215.10  393.27
 -12  -1   7 1094.22  353.92
  12   1   7 1460.12  308.18
  12   0  -7   54.40   58.68
  12   0  -7  -11.61   99.24
 -12   0  -7  159.46   91.65
  12   0   7   76.55   63.24
 -12   0   7  -63.78   82.10
 -12   0   7  -51.03  122.34
  12   0   7  201.89  142.31
  12  -1  -7 1380.74  383.01
  12  -1  -7 1277.52  358.06
 -12   1  -7 1745.27  392.15
 -12   1  -7 1417.60  381.38
 -12   1   7 1189.47  379.97
  12  -1   7 1312.32  420.26
  12  -1   7 1760.08  339.56
  12  -2  -7  -37.64   65.41
 -12   2  -7   34.64  107.93
 -12   2  -7   20.09   94.69
 -12   2   7 -102.81   87.25
  12  -2   7  114.92   61.45
  12  -2   7 -276.89  139.14
 -12   3  -7  491.21  180.99
 -12   3  -7  713.02  158.10
  12  -3   7  431.39  135.16
  12  -3   7  316.07  180.70
 -12   4  -7   98.41   96.51
 -12   4  -7    4.78  120.69
  12  -4   7 -109.81   66.82
  12  -5   7   67.02   72.14
  13   6  -7 -121.25  138.06
  13   6  -7  -84.46   68.86
 -13  -6   7   31.36   89.14
  13   5  -7    3.82   62.45
  13   5  -7 -340.49  136.46
 -13  -5   7  -57.03   84.23
 -13  -4  -7   67.44   98.20
  13   4  -7    9.04  124.20
  13   4  -7    6.95   57.26
 -13  -4   7   29.41   78.38
  13   4   7   -4.85   70.86
  13   4   7  221.74  128.92
 -13  -4   7   53.81   90.02
  13   3  -7  145.59  120.63
  13   3  -7  -80.34   57.61
 -13  -3   7  -68.27   83.30
  13   3   7   -4.46   51.52
 -13  -3   7  -34.82   87.55
  13   2  -7  219.06   83.96
  13   2  -7  229.75  137.40
 -13  -2   7  129.09  112.72
 -13  -2   7  256.58  124.38
  13   1  -7  -36.52   61.44
  13   1  -7  181.67  110.65
 -13  -1   7 -165.09   98.69
 -13  -1   7  -76.24  119.36
  13   0  -7  678.15  201.20
  13   0  -7  748.86  175.25
 -13   0   7  759.48  235.80
 -13   0   7  424.74  192.17
  13  -1  -7 -101.97  107.41
  13  -1  -7   77.85   72.85
 -13   1   7  142.82   96.62
  13  -2  -7  260.71   94.42
 -13   2   7   -5.87  106.94
  13  -3   7   -5.18  138.49
 -13   4  -7    6.16  111.94
  13  -4   7    5.04  128.80
 -13   5  -7    6.45  113.20
 -13   5  -7 -237.47  137.70
  13  -5   7   -4.36   77.70
  13  -5   7 -541.43  139.40
 -13   6  -7   27.31  109.09
  13  -6   7  160.77   76.30
  13  -6   7 -459.50  142.95
  13  -7   7  -48.49   74.73
 -14  -5  -7   22.44  101.95
  14   5   7   42.42  136.51
 -14  -4  -7 -109.90  104.37
  14   4   7   99.13   76.08
  14   4   7    5.39  142.32
 -14  -4   7  120.58   91.87
  14   3  -7   -3.77   61.51
 -14  -3  -7  187.47  105.30
  14   3   7    4.75   73.45
 -14  -3   7   23.29   99.63
 -14  -2  -7  283.33  146.88
  14   2   7  368.17  117.96
 -14  -2   7  126.94  164.74
 -14  -1  -7  -75.67  109.13
  14   1   7   24.54  179.38
  14   1   7   -4.38   79.01
 -14   0  -7  -78.67  117.90
 -14   0  -7  -79.61  141.85
  14   0   7 -168.42   87.35
 -14   1  -7   -6.39  174.77
 -14   1  -7 -148.73  123.74
  14  -1   7    4.44   89.01
  14  -1   7  179.86  187.71
 -14   2  -7  273.34  186.80
  14  -2  -7  549.55  143.47
 -14   2  -7   19.52  180.17
 -14   2   7  422.36  166.29
  14  -2   7  450.74  219.77
  14  -2   7  540.20  141.30
 -14   3  -7  -71.61  144.49
 -14   3  -7  167.35  126.48
  14  -3   7 -282.85   81.19
  14  -3   7 -103.60  167.17
 -14   4  -7   80.10  148.57
 -14   4  -7   76.16  126.82
  14  -4   7   78.26  149.36
  14  -4   7  159.59   86.46
 -14   5  -7  -80.49  141.17
 -14   5  -7  108.03  128.00
  14  -5   7   56.28  143.43
  14  -5   7   62.46   74.73
 -14   6  -7  188.58  131.78
  14  -6   7  109.72   79.03
  14  -6   7   23.04  140.52
  14  -7   7  283.95  107.84
 -15  -5  -7  188.61  123.34
  15   5  -7  254.59  160.57
  15   5  -7   17.95   70.14
 -15  -5   7   69.35   95.65
  15   5   7  160.20  162.54
 -15  -5   7  -47.32  112.35
 -15  -4  -7  -28.63  116.94
  15   4  -7   71.98  145.89
  15   4  -7  -21.15   70.45
 -15  -4   7   21.58  115.06
 -15  -4   7  -12.25  100.37
  15   4   7    5.65   82.82
  15   4   7  175.27  172.37
 -15  -3  -7   41.50  111.44
  15   3  -7    5.30  145.27
  15   3  -7   20.94   67.52
 -15  -3   7  252.33  114.70
  15   3   7 -192.62   81.92
 -15  -3   7    4.36  110.62
 -15  -2  -7   88.91  117.99
  15   2  -7    4.38   74.36
  15   2  -7    5.19  135.86
  15   2   7    5.09   80.09
 -15  -2   7    9.77  124.85
 -15  -2   7   39.91  111.17
 -15  -1  -7   93.10  140.91
  15   1  -7    5.10  127.79
  15   1  -7   31.93   72.23
 -15  -1  -7  -39.90  113.86
  15   1   7   -6.77  180.40
 -15  -1   7    5.98  118.91
 -15  -1   7   82.26  146.23
  15   1   7   -4.88   82.48
  15   0  -7  295.16  134.89
 -15   0  -7 -124.24  127.42
 -15   0  -7  117.42  149.77
  15   0  -7    4.92   79.81
 -15   0   7   -6.17  156.13
 -15   0   7  161.63  113.44
  15   0   7    6.86  185.98
  15   0   7 -182.59   82.88
 -15   1  -7  146.90  131.28
  15  -1  -7 -249.00  131.36
  15  -1  -7  -31.92   87.80
 -15   1  -7  -35.74  152.63
 -15   1   7  -99.86  170.49
  15  -1   7    6.79  191.83
 -15   1   7    6.65  112.14
  15  -1   7   64.93   87.92
 -15   2  -7   29.66  146.00
 -15   2  -7   45.91  141.18
  15  -2  -7  275.80  134.29
  15  -2  -7    5.49   82.21
  15  -2   7   32.76  180.65
 -15   2   7  -34.94  117.27
  15  -2   7  -54.79   82.53
 -15   3  -7  -68.80  146.13
  15  -3  -7   34.07   98.24
 -15   3  -7 -235.68  154.29
  15  -3   7   -6.35  162.81
  15  -3   7  -60.70   86.70
 -15   4  -7  -54.54  145.77
 -15   4  -7 -105.03  164.62
  15  -4   7  128.60   87.03
  15  -4   7  297.71  166.34
 -15   5  -7   80.96  153.66
 -15   5  -7   32.26  146.96
  15  -5   7   10.45   88.79
  15  -5   7    6.21  151.34
 -15   6  -7  462.30  174.15
 -15   6  -7  242.66  151.63
  15  -6   7  346.98  106.75
  15  -6   7 -183.10  164.00
  15  -7   7  252.27  104.04
 -16  -5  -7   85.99  130.30
  16   5   7   -6.63  179.31
 -16  -5   7   23.73  123.43
 -16  -5   7   27.09  104.13
 -16  -4  -7  334.43  154.84
  16   4   7    6.81  194.43
  16   4   7  190.73  110.09
 -16  -3  -7 -195.96  128.40
  16   3   7 -141.75  194.01
 -16  -3   7 -146.57  134.54
  16   3   7 -103.19   92.18
 -16  -3   7   18.67  132.87
  16   2  -7   19.80   81.35
 -16  -2  -7   44.67  127.83
  16   2  -7 -176.74  159.07
 -16  -2   7  121.13  124.94
  16   2   7 -265.05   86.05
 -16  -2   7 -169.27  139.83
 -16  -1  -7  220.97  153.82
  16   1  -7    5.13   81.96
 -16  -1  -7  -22.34  128.44
  16   1  -7    5.61  137.92
 -16  -1   7  -97.43  160.89
 -16  -1   7   -6.67  129.39
  16   1   7    5.43   85.72
 -16   0  -7  -40.46  142.08
  16   0  -7 -443.45   93.84
 -16   0  -7  283.54  161.34
  16   0  -7   11.37  139.88
 -16   0   7 -194.43  181.93
  16   0   7 -152.78   85.56
 -16   0   7  158.64  135.33
  16   0   7    7.56  209.09
 -16   1  -7  290.09  148.88
  16  -1  -7   34.78   97.75
 -16   1  -7   40.60  163.85
  16  -1  -7 -104.17  137.10
 -16   1   7   95.21  125.53
 -16   1   7  209.96  191.46
  16  -1   7  318.03  210.46
  16  -1   7 -187.61   91.76
 -16   2  -7  132.90  163.73
 -16   2  -7 -141.35  166.10
  16  -2  -7   18.21  104.00
  16  -2  -7   17.99  142.55
  16  -2   7   36.05  198.83
 -16   2   7  112.54  199.26
 -16   2   7  -30.72  129.53
  16  -2   7   -5.62   90.56
 -16   3  -7   97.58  165.20
 -16   3  -7  -25.75  168.12
  16  -3  -7 -111.85  107.64
  16  -3   7  -83.50   97.12
  16  -3   7 -126.22  180.76
 -16   4  -7  478.66  197.66
 -16   4  -7  194.57  182.60
  16  -4   7    5.60  110.78
  16  -4   7  386.74  195.95
 -16   5  -7 -277.97  173.79
 -16   5  -7  235.03  163.51
  16  -5   7   11.35   93.48
  16  -5   7 -171.71  171.18
 -16   6  -7    9.32  154.14
 -16   6  -7 -230.00  169.61
  16  -6   7  214.09   98.79
  16  -6   7   27.80  167.15
 -16   7  -7 -236.47  164.39
  16  -7   7   -5.79   96.00
 -17  -5  -7   87.11  152.60
  17   5   7    7.46  205.34
  17   4  -7 -235.32  173.21
  17   4  -7    5.33   83.84
 -17  -4  -7  -48.90  144.20
  17   4   7    7.62  209.79
  17   4   7  114.74   97.37
 -17  -4   7  -30.59  120.49
 -17  -4   7  -88.83  136.23
  17   3  -7  -47.33   86.39
  17   3  -7  127.29  172.69
 -17  -3  -7 -102.94  139.84
 -17  -3   7 -204.51  139.93
  17   3   7    6.49  100.32
 -17  -3   7    5.44  134.01
  17   3   7    7.83  217.52
 -17  -2  -7   37.49  147.05
  17   2  -7 -456.12  162.95
  17   2  -7    5.48   95.26
  17   2   7 -400.82  103.85
 -17  -2   7   14.41  152.61
 -17  -2   7 -102.13  156.73
  17   1  -7    5.69   89.37
 -17  -1  -7 -206.35  147.97
  17   1  -7    6.16  151.51
  17   1   7 -218.52  103.46
 -17  -1   7   66.62  172.71
 -17  -1   7  -89.05  138.47
 -17   0  -7   34.73  177.46
  17   0  -7 -155.74  155.56
 -17   0  -7 -423.51  160.90
  17   0  -7   29.94   99.19
 -17   0   7   15.50  142.38
 -17   0   7 -154.72  191.78
  17   0   7  -24.21   97.65
  17   0   7    8.24  223.42
 -17   1  -7    9.03  176.20
 -17   1  -7 -234.27  163.49
  17  -1  -7  240.45  156.54
  17  -1  -7  -63.26  115.22
  17  -1   7    6.17   97.24
 -17   1   7   -8.09  150.26
  17  -1   7    8.05  213.14
 -17   1   7   -7.83  208.77
 -17   2  -7  249.43  174.31
 -17   2  -7  -47.18  192.54
 -17   2   7 -378.93  197.34
 -17   2   7 -407.14  241.57
  17  -2   7 -158.56  215.69
  17  -2   7 -354.41  105.47
  17  -3  -7   13.65  118.68
 -17   3  -7 -175.56  180.32
 -17   3  -7   19.59  191.16
  17  -3   7 -179.27  103.49
 -17   3   7   57.38  213.38
  17  -3   7  -15.45  201.67
 -17   4  -7  180.91  186.47
 -17   4  -7  -99.26  176.27
  17  -4   7   -7.67  192.62
  17  -4   7 -222.14  102.51
 -17   5  -7  -41.06  189.40
 -17   5  -7 -211.33  184.82
  17  -5   7  216.98  106.61
  17  -5   7   15.20  186.14
 -17   6  -7  -93.73  173.05
 -17   6  -7   65.78  182.18
  17  -6   7  131.46   98.80
  17  -6   7 -475.90  184.99
 -17   7  -7 -256.49  193.57
 -18  -5  -7 -449.13  199.23
  18   5   7 -125.22  243.04
 -18  -4  -7 -568.23  220.30
 -18  -4   7  -34.49  165.69
 -18  -4   7 -392.75  194.90
  18   3  -7 -216.06  189.47
  18   3  -7  -23.24   95.65
 -18  -3  -7   50.51  158.14
  18   3   7   14.45  110.69
  18   3   7   -8.62  231.06
 -18  -3   7  -54.74  150.24
 -18  -3   7 -172.84  160.07
  18   2  -7    6.82  176.30
  18   2  -7   -6.14  102.79
 -18  -2  -7   63.03  154.93
  18   2   7    8.83  233.18
 -18  -2   7   72.17  155.00
 -18  -2   7 -133.70  168.04
  18   2   7   20.89  111.77
  18   1  -7  -32.10  108.72
  18   1  -7  237.34  172.25
 -18  -1  -7  -49.39  159.29
  18   1   7 -111.16  112.60
 -18  -1   7  -73.24  179.49
 -18  -1   7   58.31  155.82
 -18   0  -7    7.14  171.32
  18   0  -7 -259.69  170.89
  18   0  -7   -6.59  104.24
 -18   0  -7 -205.76  197.00
 -18   0   7 -285.75  209.99
 -18   0   7  197.98  163.91
  18   0   7  -33.54  111.02
  18   0   7   44.65  240.80
 -18   1  -7  212.50  176.99
  18  -1  -7 -187.13  163.99
 -18   1  -7  173.19  197.15
  18  -1  -7    6.91  114.02
 -18   1   7  177.03  220.44
  18  -1   7 -346.56  115.28
  18  -1   7 -290.60  249.41
 -18   1   7  -44.65  157.98
 -18   2  -7  158.03  204.13
  18  -2  -7  -72.46  123.22
 -18   2  -7  -45.66  180.80
  18  -2   7    8.70  229.15
 -18   2   7   64.78  155.39
  18  -2   7  173.50  117.71
 -18   2   7 -405.11  233.92
 -18   3  -7 -197.46  215.86
  18  -3  -7   45.08  126.57
 -18   3  -7  284.28  192.02
  18  -3   7 -400.32  225.25
  18  -3   7 -258.25  114.82
 -18   3   7   97.98  232.39
 -18   4  -7 -758.39  238.96
 -18   4  -7 -309.88  216.97
  18  -4   7 -621.93  143.02
 -18   5  -7  125.18  208.92
 -18   5  -7 -230.69  218.53
 -18   6  -7  163.29  194.37
 -18   6  -7   47.21  195.35
  18  -6   7   47.60  115.65
  18  -6   7 -127.54  204.21
 -19  -5  -7  115.87  192.03
  19   5   7    9.32  255.65
 -19  -4  -7   69.68  186.18
  19   4   7   74.37  126.26
  19   4   7 -187.66  263.79
 -19  -3  -7  -91.71  187.67
  19   3  -7  -26.43  105.60
 -19  -3  -7  -18.60  189.48
  19   3  -7 -197.19  214.81
 -19  -3   7  159.34  174.22
 -19  -3   7 -257.99  172.34
  19   3   7  -72.54  124.10
  19   3   7  180.45  266.35
  19   2  -7  253.76  198.00
 -19  -2  -7   31.46  184.43
 -19  -2  -7  -78.09  204.86
  19   2  -7   94.53  106.69
 -19  -2   7 -126.84  177.61
  19   2   7    9.65  261.76
 -19  -2   7 -110.20  185.92
  19   2   7   15.91  125.18
  19   1  -7  -64.68  119.90
 -19  -1  -7   39.46  190.64
  19   1  -7    7.49  190.09
 -19  -1   7  -37.04  178.84
  19   1   7  -92.69  132.00
 -19  -1   7  -32.32  210.04
  19   0  -7  -14.65  119.04
 -19   0  -7  182.79  199.70
 -19   0  -7  205.94  226.81
  19   0  -7   -7.49  188.39
  19   0   7  -99.58  127.83
 -19   0   7   38.70  176.68
 -19   0   7   77.27  215.19
  19  -1  -7  -15.19  128.73
  19  -1  -7 -144.41  186.30
 -19   1  -7 -153.76  206.83
 -19   1  -7   57.45  230.86
 -19   1   7  168.71  174.08
  19  -1   7 -182.59  263.38
 -19   1   7 -385.52  245.90
  19  -1   7 -489.81  133.15
 -19   2  -7   24.72  206.41
 -19   2  -7  166.67  239.54
  19  -2  -7  -39.38  128.71
 -19   2   7  132.52  171.03
  19  -2   7 -258.64  128.98
  19  -2   7   -9.52  241.34
 -19   2   7  653.35  249.84
 -19   3  -7   12.27  234.12
 -19   3  -7 -108.65  209.35
  19  -3   7 -579.35  135.30
  19  -3   7   -9.40  243.70
 -19   4  -7  139.61  238.66
 -19   4  -7  158.27  218.89
  19  -4   7    9.41  243.65
  19  -4   7  434.39  135.52
 -19   5  -7 -275.98  222.45
 -19   5  -7 -414.69  240.26
  19  -5   7 -445.09  138.69
  19  -5   7 -459.57  246.72
 -19   6  -7  145.18  216.26
  19  -6   7    7.41  124.47
 -20  -3   7    9.82  198.49
  20   2  -7    8.17  215.57
  20   2  -7    7.60  131.08
 -20  -2   7  305.26  196.33
 -20  -2   7  333.79  211.72
  20   1  -7   63.09  133.32
  20   1  -7  221.45  210.74
 -20  -1   7   -8.78  221.78
 -20  -1   7 -166.99  190.77
  20   0  -7    8.23  128.68
  20   0  -7  321.65  206.09
 -20   0   7 -122.28  234.50
 -20   0   7 -171.85  191.16
  20  -1  -7   58.23  139.51
  20  -1  -7 -359.54  201.16
 -20   1   7  131.84  186.61
 -20   1   7  -68.74  251.00
  20  -2  -7   42.79  145.00
 -20   2   7  596.21  192.19
 -20   2   7 -294.35  265.29
   0   0  -8 1479.89  380.30
   0   0   8 1429.28  401.18
   0   1  -8    5.84   21.57
   1   0  -8   -2.05   26.75
   0   1  -8    4.20   11.03
   1   0  -8   -8.37   17.08
  -1   0  -8   12.02   15.54
  -1   0   8  -18.05   31.37
   0  -1   8   -1.26   24.69
   1   0   8    3.38   29.83
  -1   1  -8  342.55   74.09
   1   1  -8  323.33   72.52
   1   1  -8  248.54   80.34
  -1   1  -8  283.97   82.50
   1  -1   8  315.59   85.60
   1  -1   8  267.07   86.54
  -1  -1   8  234.18   85.64
  -1   2  -8   -5.62   11.34
   2   1  -8  -19.88   26.29
  -1   2  -8    6.40    9.48
  -1   2  -8  -12.24   20.17
   1  -2   8    2.30    9.61
   1  -2   8   -2.66   19.66
  -2  -1   8  -36.21   31.56
   1  -2   8   -2.26   19.44
   0   2  -8   -5.27    9.33
   2   0  -8    6.43   32.64
  -2   0  -8   -8.32   15.28
   0   2  -8  -14.59   21.40
   0  -2   8   -0.98   21.08
  -2   0   8  -15.26   35.73
   2   0   8   -1.70   17.77
  -2   1  -8    2.75   23.62
  -2   1  -8    7.68   14.71
   1   2  -8   -0.96   10.91
   1   2  -8   10.61   21.73
  -2   1  -8    3.41   10.23
  -1  -2   8   16.18   23.21
   2  -1   8   12.96   12.93
   2  -1   8    3.51   27.11
   2  -1   8    6.08   22.56
   2   2  -8   38.97   24.81
  -2   2  -8   30.47   22.17
  -2   2  -8   13.50   10.26
  -2   2  -8   27.30   17.56
   2  -2   8   21.72   26.58
  -2  -2   8   -8.34   26.86
   2  -2   8   18.50   12.56
   2  -2   8    8.07   21.06
  -2   3  -8    7.66   11.31
  -2   3  -8   20.01   20.73
   3   2  -8   -0.98   10.27
   3   2  -8   -4.64   19.64
  -2   3  -8    1.18   22.82
   2  -3   8   -5.34   29.94
   2  -3   8   11.83   12.48
  -3  -2   8   37.31   17.31
   2  -3   8   10.32   13.17
  -3  -2   8   12.06   18.92
   3   1  -8  879.45  225.09
  -1   3  -8  919.36  227.77
  -1   3  -8  859.88  214.03
   1  -3   8  933.69  215.82
   0   3  -8   10.45   10.74
  -3   0  -8    7.27   21.73
  -3   0  -8    1.26   15.64
   3   0  -8   -2.26   36.37
   0   3  -8    2.40   22.06
   3   0   8    3.93   17.61
  -3   0   8    2.05   40.52
   3   0   8   -1.18   25.80
   0  -3   8   25.77   13.49
  -3   1  -8 1014.19  231.40
  -3   1  -8  749.95  244.86
  -3   1  -8 1026.01  217.70
   3  -1   8  801.87  210.79
   3  -1   8  783.28  247.71
   3  -1   8  742.35  240.52
  -3   2  -8    5.56    9.48
  -3   2  -8   13.08   20.95
  -3   2  -8   15.48   23.45
   3  -2   8   -5.08   15.16
   3  -2   8    8.59    9.96
   3  -2   8   -1.50   23.45
   3  -2   8   11.88   34.22
  -3   3  -8 4759.30 1108.38
  -3   3  -8 4920.12 1104.01
   3   3  -8 5173.20 1121.33
  -3   3  -8 4587.90 1148.06
   3   3  -8 4870.01 1017.02
   3   3  -8 4027.69 1101.65
   3   3  -8 4376.26 1238.81
   3  -3   8 3862.95 1075.46
  -3  -3   8 4537.22 1170.93
  -3  -3   8 3850.62 1164.50
   3  -3   8 4468.64 1058.22
   3  -3   8 4511.59 1201.92
   4   3  -8 1091.33  254.73
  -3   4  -8  934.15  253.77
   4   3  -8 1031.33  225.02
   4   3  -8 1093.57  250.34
  -3   4  -8  936.31  260.23
  -3   4  -8 1009.40  270.90
   4   3  -8  784.59  275.50
  -4  -3   8 1122.55  230.29
   3  -4   8 1086.07  239.20
   3  -4   8  890.89  248.68
  -4  -3   8 1113.15  260.48
  -4  -3   8  929.95  262.72
  -2   4  -8  852.71  205.96
   4   2  -8  743.02  192.10
   4   2  -8  588.35  236.72
   4   2  -8  891.81  186.88
  -2   4  -8  892.47  215.05
   4   2  -8  865.17  206.35
  -4  -2   8  880.57  211.87
  -4  -2   8  606.72  218.60
   2  -4   8  868.74  196.05
  -4  -2   8 1055.40  222.36
   2  -4   8  647.24  210.32
   4   1  -8   13.33   16.22
   4   1  -8   -1.36   17.26
  -1   4  -8    1.21   24.30
  -4  -1   8    2.64   23.05
  -4   0  -8 5503.32 1287.66
  -4   0  -8 5609.55 1282.05
   4   0   8 3900.08 1308.02
   4   0   8 4849.31 1168.40
  -4   1  -8    4.68   26.06
  -4   1  -8   30.06   10.81
   1   4  -8   14.60   15.26
  -4   1  -8   32.15   30.83
   4  -1   8   19.44   33.21
  -1  -4   8    9.69   17.36
   4  -1   8   14.99   41.73
   4  -1   8   20.09   19.05
  -4   2  -8  818.32  218.75
  -4   2  -8  815.94  214.88
  -4   2  -8  892.21  202.03
   4  -2   8  788.30  221.74
   4  -2   8  672.67  193.10
   4  -2   8  768.48  221.61
  -2  -4   8  851.42  190.95
   4  -2   8  915.59  196.05
   3   4  -8  714.91  274.16
  -4   3  -8 1008.18  251.79
  -4   3  -8  957.22  235.50
   3   4  -8  984.88  242.84
  -4   3  -8  991.36  246.35
   4  -3   8  973.11  258.22
   4  -3   8 1054.25  232.06
   4  -3   8  985.18  233.76
   4   4  -8  843.47  241.54
  -4   4  -8  945.78  234.53
   4   4  -8  919.42  201.17
   4   4  -8  659.11  220.20
   4  -4   8  930.72  217.90
  -4  -4   8  831.43  202.59
   5   4  -8   99.24   40.68
   5   4  -8   40.06   41.73
   5   4  -8   66.35   25.49
  -4   5  -8   90.12   31.76
   5   4  -8   66.59   29.49
  -5  -4   8   75.32   33.77
  -5  -4   8   83.27   28.49
   5   3  -8 1916.08  455.05
   5   3  -8 1810.30  412.25
   5   3  -8 1961.53  500.14
  -3   5  -8 1800.81  466.70
   5   3  -8 2023.21  450.17
  -5  -3   8 1651.44  466.60
  -5  -3   8 2076.95  422.59
  -5  -3   8 1822.57  480.02
   5   2  -8  138.96   56.16
   5   2  -8  186.75   43.01
   5   2  -8  204.02   61.17
   5   2  -8  203.59   42.79
  -5  -2   8  193.44   51.93
  -5  -2   8  210.61   63.79
  -5  -2   8  140.86   53.06
   5   1  -8 1574.90  406.77
  -5  -1  -8 1862.59  466.33
   5   1  -8 1608.55  475.61
   5   1  -8 2067.36  396.28
  -1   5  -8 1868.73  433.84
  -5  -1   8 1766.54  468.27
   5   1   8 1864.75  418.24
   5   1   8 1430.57  451.54
  -5  -1   8 1633.11  481.69
   5   0  -8  -33.81   23.72
   5   0  -8  142.07   44.53
  -5   0  -8   -8.60   16.28
   0   5  -8   -5.88   26.70
   5   0  -8    3.61   22.68
   0   5  -8    4.93   19.10
  -5   0   8  148.34   54.41
   0  -5   8   -9.39   17.44
   5   0   8    3.64   42.35
   5  -1  -8 2088.21  419.95
  -5   1  -8 1612.17  423.58
   1   5  -8 1550.97  415.55
  -1  -5   8 1696.82  402.66
  -5   2  -8   88.48   40.58
   2   5  -8  165.43   49.38
   2   5  -8  188.40   43.17
  -5   2  -8  113.03   48.76
  -2  -5   8  121.07   40.71
   5  -2   8  194.61   38.76
   5  -2   8  218.30   50.54
   3   5  -8 1768.39  417.55
  -5   3  -8 1391.88  441.95
   5  -3   8 1557.32  411.02
  -5   4  -8   95.00   46.33
   4   5  -8   98.53   37.78
   4   5  -8   73.90   40.53
   4   5  -8   80.83   27.48
  -5   4  -8   63.77   31.19
   5  -4   8   69.14   57.25
  -4  -5   8   88.60   28.45
  -5   5  -8  939.07  282.19
   5   5  -8 1167.89  293.32
  -5  -5   8  951.36  239.48
   6   5  -8  333.29   83.04
   6   5  -8  378.57   95.62
   5  -6   8  368.52   88.26
  -6  -5   8  297.35   83.55
   6   4  -8  676.50  166.77
   6   4  -8  720.11  147.05
   6   4  -8  672.98  165.54
  -6  -4   8  649.75  177.85
  -6  -4   8  489.12  149.52
   6   3  -8 2167.35  505.88
   6   3  -8 1658.78  585.33
   6   3  -8 2047.34  530.89
   6   3  -8 1721.07  473.59
  -6  -3   8 2393.42  509.81
  -6  -3   8 2148.49  568.94
  -6  -3   8 2337.61  488.75
  -6  -3   8 1753.30  533.11
  -6  -2  -8  728.34  225.89
   6   2  -8  766.69  187.98
   6   2  -8 1081.53  230.71
   6   2  -8  913.21  208.25
   6   2  -8  729.28  190.65
  -6  -2   8  859.97  228.65
   6   2   8  916.68  211.78
  -6  -2   8 1033.87  209.69
  -6  -2   8  729.87  211.58
   6   1  -8  230.07   73.68
   6   1  -8  279.35   58.39
  -6  -1  -8  227.88   71.69
   6   1  -8  254.72   59.53
   6   1   8  239.31   77.32
  -6  -1   8  232.91   85.96
   6   1   8  287.89   63.66
   6   0  -8   89.75   30.81
  -6   0  -8   79.42   26.68
   6   0  -8  103.37   53.63
  -6   0  -8   97.23   41.63
   6   0   8   71.82   32.37
   0  -6   8   93.13   29.32
  -6   0   8   99.09   66.38
   6   0   8   72.78   57.68
  -6   1  -8  262.61   68.36
   6  -1  -8  298.34   62.86
   1   6  -8  205.83   59.88
  -6   1  -8  184.68   53.66
   1   6  -8  209.73   62.68
  -1  -6   8  155.01   56.63
   6  -1   8  230.41   52.47
   6  -1   8  208.51   56.06
   6  -1   8  267.91   82.44
   2   6  -8  672.49  201.96
  -6   2  -8  832.88  210.82
   2   6  -8  939.61  199.24
  -6   2  -8  841.11  198.16
  -6   2  -8  911.25  218.54
  -6   2  -8  908.12  233.69
   6  -2   8  851.16  221.96
   6  -2   8  757.16  232.70
   6  -2   8  717.04  197.12
   6  -2   8  913.72  191.75
   3   6  -8 2311.82  534.60
  -6   3  -8 1958.76  516.59
  -6   3  -8 2259.72  566.83
   6  -3   8 2465.35  557.76
   6  -3   8 2298.80  525.15
   6  -3   8 1793.73  571.12
   4   6  -8  653.10  153.85
  -6   4  -8  651.27  162.38
  -6   4  -8  581.47  172.78
   4   6  -8  578.66  159.84
   6  -4   8  557.43  158.47
   6  -4   8  759.10  175.23
   5   6  -8  396.88   82.98
   5   6  -8  435.91  101.08
  -6   5  -8  253.38   99.72
   5   6  -8  231.26   89.77
   6  -5   8  265.47   86.48
  -5  -6   8  251.98   80.26
   6  -5   8  305.40  109.03
   6   6  -8  -24.96   43.92
   6   6  -8  -11.45   26.13
  -6  -6   8   11.80   27.89
   6  -6   8  -31.29   34.02
   7   6  -8   26.61   48.37
   7   6  -8   -9.59   31.59
   7   6  -8   34.57   59.34
  -7  -6   8   -4.98   30.78
   7   5  -8   30.60   34.79
   7   5  -8   23.41   25.59
   7   5  -8   67.54   48.58
   7   5  -8   17.28   57.39
  -7  -5   8   36.46   26.41
  -7  -5   8  120.86   43.13
   7   4  -8 1059.77  245.95
   7   4  -8  982.30  276.61
   7   4  -8  964.07  269.77
   7   4  -8 1053.11  299.36
  -7  -4   8 1132.52  251.08
  -7  -4   8 1052.21  296.04
   7   3  -8  600.60  155.85
   7   3  -8  415.08  121.36
   7   3  -8  545.61  140.97
  -7  -3   8  465.44  153.98
  -7  -3   8  518.09  125.87
  -7  -3   8  563.22  133.37
   7   2  -8  905.65  275.95
   7   2  -8  625.48  305.04
   7   2  -8  986.00  243.29
  -7  -2  -8 1165.42  294.99
   7   2   8 1288.04  280.47
   7   2   8 1022.67  258.95
  -7  -2   8 1140.29  273.10
  -7  -2   8  836.68  309.31
   7   1  -8  643.79  173.76
  -7  -1  -8  815.89  199.03
   7   1  -8 1049.22  219.25
   7   1   8  487.30  209.01
  -7   0  -8  -23.39   46.74
   7   0  -8  -76.49   35.38
   7   0  -8  -71.93   38.39
   7   0  -8 -180.95   68.53
   7   0  -8 -205.61   74.37
   7   0   8  -21.68   37.08
  -7   0   8 -191.14   68.18
  -7   0   8 -174.39  100.54
   7   0   8 -102.99   79.15
   7  -1  -8  663.04  190.48
  -7   1  -8  807.78  203.23
   7  -1   8  793.74  226.74
  -7   2  -8 1466.46  293.04
  -7   2  -8 1157.32  320.06
   7  -2   8 1209.34  322.15
   7  -2   8 1190.43  283.02
   3   7  -8  299.77  137.88
  -7   3  -8  539.33  138.71
  -7   3  -8  554.65  163.96
   7  -3   8  570.00  135.29
   7  -3   8  759.04  153.68
   4   7  -8  952.43  262.27
  -7   4  -8 1064.41  261.87
   7  -4   8 1009.19  273.86
  -7   5  -8   28.87   58.42
   5   7  -8    2.74   31.38
   5   7  -8   -2.36   46.69
   7  -5   8   37.26   38.18
  -5  -7   8   24.36   31.72
   7  -5   8  -18.03   69.33
   6   7  -8  -14.21   34.50
   6   7  -8   49.72   47.62
  -6  -7   8    2.83   31.37
   7  -6   8  -12.40   39.50
   7   7  -8  254.10   85.16
   7   7  -8  404.47   96.21
   7   7  -8  392.42  105.15
  -7  -7   8  245.72   83.82
   8   7  -8   -6.17   39.58
   8   7  -8   -2.46   71.39
   8   7  -8  105.69   60.42
  -8  -7   8   27.94   39.03
   8   6  -8  135.85   68.40
   8   6  -8  172.99   82.56
   8   6  -8  176.04   54.07
  -8  -6   8  225.76   55.41
   8   5  -8   29.60   66.67
   8   5  -8   16.28   39.83
   8   5  -8  -38.57   53.15
   8   5  -8   10.29   29.04
  -8  -5   8  -15.93   28.07
  -8  -5   8  -23.69   48.02
   8   4  -8  -14.05   25.19
   8   4  -8   38.77   69.58
   8   4  -8   59.60   50.57
   8   4  -8    2.10   31.32
  -8  -4   8  -25.06   43.36
  -8  -4   8  -16.52   57.99
  -8  -4   8  -10.92   29.19
   8   3  -8 1245.51  290.85
  -8  -3  -8  601.42  282.85
   8   3  -8  937.26  234.44
   8   3  -8  903.01  263.77
   8   3  -8  996.12  238.08
  -8  -3   8  857.95  258.14
   8   3   8 1218.14  262.86
  -8  -3   8 1131.97  242.80
  -8  -3   8  931.58  253.17
  -8  -3   8 1020.31  292.28
   8   2  -8   17.34   28.55
   8   2  -8   13.80   59.17
   8   2  -8   38.11   55.18
   8   2  -8    3.10   22.59
  -8  -2  -8   -5.45   51.70
  -8  -2   8   16.41   64.22
  -8  -2   8    6.09   53.58
   8   2   8   46.47   67.49
  -8  -2   8   86.09   46.55
   8   2   8   34.97   43.52
  -8  -1  -8  332.41  104.85
   8   1  -8  475.59   91.78
   8   1  -8  285.12   87.91
   8   1  -8  350.85  110.65
   8   1  -8  475.80  116.97
  -8  -1   8  444.99  133.38
   8   1   8   14.47  122.92
  -8  -1   8  430.76  108.94
   8   1   8  427.60   92.04
   8   0  -8  214.25   64.79
   8   0  -8  332.91   70.67
  -8   0  -8  187.57   79.04
   8   0  -8  274.98   90.69
   8   0  -8  192.21   89.70
   8   0   8  226.52  101.98
  -8   0   8  276.68   84.69
   8   0   8  240.75   66.95
  -8   0   8  252.74  109.09
   8  -1  -8  281.02   95.49
   8  -1  -8  443.57  100.26
  -8   1  -8  364.96  108.45
   8  -1   8  430.88  129.05
   8  -1   8  269.46   90.47
  -8   1   8  404.89  112.19
  -8   2  -8   51.83   54.06
  -8   2  -8   25.94   58.45
   8  -2   8   -6.48   35.84
   8  -2   8    6.13   76.53
  -8   3  -8 1161.99  298.58
  -8   3  -8 1129.68  251.35
   8  -3   8  750.55  271.34
   8  -3   8  969.21  250.98
  -8   4  -8   -3.36   61.55
   8  -4   8    5.97   75.11
   8  -4   8    2.48   39.62
  -8   5  -8   -7.77   62.38
   8  -5   8   15.54   40.68
   8  -5   8  -87.69   75.50
  -8   6  -8  152.55   81.49
   8  -6   8  131.01   58.60
   7   8  -8    5.72   56.37
   8  -7   8   68.75   45.83
   8   8  -8  627.95  174.13
   9   8  -8   44.04   65.52
   9   7  -8  476.93  137.40
   9   7  -8  507.07  129.34
  -9  -7   8  470.92  128.53
   9   6  -8  121.08   65.18
   9   6  -8  117.33   45.41
   9   6  -8  124.04   87.99
  -9  -6   8   74.96   44.62
   9   5  -8  -32.03   42.32
   9   5  -8  -13.04   28.37
   9   5  -8  -90.89   80.23
   9   5  -8   27.84   58.99
  -9  -5   8   18.56   53.03
  -9  -5   8  -34.10   29.75
  -9  -5   8   43.90   66.13
   9   4  -8  181.20   83.13
   9   4  -8   45.55   34.69
   9   4  -8   83.07   65.09
   9   4  -8  109.26   41.64
  -9  -4   8  123.33   68.92
  -9  -4   8   71.68   37.23
  -9  -4   8  103.32   55.15
   9   3  -8   71.79   36.51
   9   3  -8   68.79   79.82
  -9  -3  -8  109.46   66.13
   9   3  -8   65.64   60.20
   9   3  -8   59.64   31.17
  -9  -3   8   70.49   55.56
   9   3   8   12.22   76.99
   9   3   8   49.21   53.49
  -9  -3   8   65.44   34.00
  -9  -3   8  119.93   54.07
  -9  -3   8  155.46   74.22
   9   2  -8  -61.05   52.86
   9   2  -8 -113.17   74.94
   9   2  -8   27.63   23.51
   9   2  -8   44.31   32.57
  -9  -2  -8   51.72   58.28
   9   2   8  -42.57   46.88
  -9  -2   8  -61.14   58.15
  -9  -2   8  -10.64   51.88
  -9  -2   8   65.83   75.84
   9   2   8    3.14   74.81
   9   1  -8   59.65   26.76
   9   1  -8  -24.87   61.85
  -9  -1  -8   36.23   57.70
   9   1  -8   67.79   69.04
   9   1  -8   59.06   37.77
  -9  -1   8    3.12   84.76
  -9  -1   8  -53.82   55.05
  -9  -1   8   51.41   71.71
   9   1   8   81.77   41.72
   9   1   8    6.61   81.81
   9   0  -8  -28.99   68.77
   9   0  -8   36.50   29.57
   9   0  -8  -28.12   65.41
  -9   0  -8  -25.38   56.77
   9   0  -8   33.56   39.99
   9   0   8  -73.57   90.81
  -9   0   8  -34.42   61.34
  -9   0   8   25.58   93.06
   9   0   8  -36.83   38.13
   9  -1  -8   14.87   43.34
   9  -1  -8    4.75   34.00
  -9   1  -8   24.23   59.54
   9  -1   8   32.31   95.22
   9  -1   8  -14.78   39.57
  -9   1   8   50.19   60.04
  -9   2  -8  -33.86   62.00
  -9   2  -8  -29.81   66.69
   9  -2  -8    6.71   48.60
   9  -2   8   38.50   91.31
   9  -2   8  -27.18   39.47
  -9   3  -8   52.66   82.78
  -9   3  -8   27.96   66.00
   9  -3   8   63.63   86.15
   9  -3   8   98.95   46.18
  -9   4  -8   34.13   69.09
   9  -4   8  173.39   86.26
   9  -4   8   53.32   49.83
  -9   5  -8    4.27   71.29
   9  -5   8  -17.33   45.61
   9  -5   8   -7.07   86.20
  -9   6  -8   82.12   83.72
   9  -6   8  281.34   64.45
   9  -7   8  542.49  133.37
  10   8  -8  500.06  148.06
  10   7  -8  181.85   71.92
  10   7  -8  114.96   50.54
 -10  -7   8   75.75   53.49
  10   6  -8  110.19   60.57
  10   6  -8   49.28   72.96
  10   6  -8  111.99   99.84
  10   6  -8  180.98   50.71
 -10  -6   8  149.38   50.00
 -10  -6   8  100.93   74.30
  10   5  -8  317.49   84.45
  10   5  -8  364.39  106.08
  10   5  -8  209.50   92.10
  10   5  -8  324.92  127.60
 -10  -5   8  340.14   84.27
 -10  -5   8  367.21  118.86
 -10  -5   8  419.70  103.02
  10   4  -8   15.35   39.66
  10   4  -8   24.46   86.37
  10   4  -8   24.03   27.98
  10   4  -8   -5.67   58.81
 -10  -4   8   30.10   58.63
 -10  -4   8   17.55   70.78
 -10  -4   8   31.53   32.40
 -10  -4   8    2.28   57.07
  10   3  -8   30.39   85.35
  10   3  -8   -4.66   36.89
  10   3  -8   17.14   60.86
 -10  -3  -8  -61.94   69.84
  10   3  -8   27.03   25.71
 -10  -3   8  -30.82   32.19
  10   3   8    3.75   53.61
 -10  -3   8   40.57   59.47
 -10  -3   8  -15.85   76.90
  10   3   8    3.44   83.48
 -10  -3   8  -13.89   58.89
  10   2  -8  237.62   50.24
  10   2  -8  168.37   57.27
  10   2  -8  241.57   95.63
  10   2  -8  185.33   81.54
 -10  -2  -8  193.70   78.23
 -10  -2   8  152.50   74.13
  10   2   8   39.62  102.60
 -10  -2   8  247.51   84.46
  10   2   8  148.58   64.05
 -10  -2   8  161.17  104.89
 -10  -2   8   91.34   57.08
  10   1  -8    6.83   68.02
  10   1  -8    2.61   41.37
  10   1  -8   -9.13   75.32
 -10  -1  -8   60.09   63.44
  10   1  -8  -12.48   27.74
 -10  -1   8   -6.93   93.89
  10   1   8   49.16  100.75
 -10  -1   8   22.76   83.52
 -10  -1   8   -6.74   61.88
  10   1   8  -39.17   45.08
 -10   0  -8  506.39  110.71
  10   0  -8  407.28  119.99
  10   0  -8  282.69   86.95
  10   0  -8  400.02   97.12
  10   0  -8  334.84  119.55
  10   0   8  378.58   90.36
 -10   0   8  302.33  112.17
  10   0   8   52.23  138.26
 -10   0   8  367.00  153.35
  10  -1  -8    9.66   49.80
 -10   1  -8  -73.78   72.90
  10  -1  -8   20.91   33.64
  10  -1  -8   20.69   76.18
  10  -1   8  -52.66  115.43
 -10   1   8   72.40   64.85
  10  -1   8  -47.54   46.10
  10  -2  -8  208.95   65.09
 -10   2  -8  155.51   87.86
 -10   2  -8  234.10   97.64
  10  -2  -8  160.01   75.74
  10  -2   8  254.97   66.92
  10  -2   8  199.51  119.97
 -10   3  -8    8.14   73.01
 -10   3  -8  -33.42   90.28
  10  -3   8   45.00   53.36
  10  -3   8 -260.55   98.62
 -10   4  -8   43.13   94.89
 -10   4  -8   -4.28   77.70
  10  -4   8    3.72   91.57
  10  -4   8   22.25   55.23
 -10   5  -8  287.37  103.13
  10  -5   8  270.37   80.27
  10  -5   8 -239.55  119.27
 -10   6  -8  135.33   92.90
  10  -6   8  158.40  102.82
  10  -6   8   72.08   59.91
  10  -7   8  165.01   62.49
  11   8  -8  -59.73   81.02
  11   7  -8  102.39   56.17
  11   7  -8  127.60   76.74
 -11  -7   8  109.44   55.13
  11   6  -8  164.29   90.21
  11   6  -8  163.36   62.71
 -11  -6   8  237.02   89.78
 -11  -6   8  196.96   62.76
 -11  -6   8  240.26  100.55
  11   5  -8  135.33   71.62
  11   5  -8  109.67  103.95
  11   5  -8   67.34   37.42
  11   5  -8    3.23   50.04
 -11  -5   8   29.83   35.38
 -11  -5   8    2.72   81.32
 -11  -5   8  -46.16   62.75
  11   4  -8   85.65   41.13
  11   4  -8  119.64   74.28
 -11  -4  -8  177.28   85.90
  11   4  -8  205.83   55.10
  11   4  -8   31.15  103.74
 -11  -4   8   40.73   73.66
 -11  -4   8  205.32   87.24
 -11  -4   8  181.81   70.53
 -11  -4   8   80.30   45.53
 -11  -3  -8  186.99   81.69
  11   3  -8  117.48   72.95
  11   3  -8  127.75   48.35
  11   3  -8   88.12   36.21
  11   3  -8   51.38   98.30
  11   3   8 -116.60  103.07
 -11  -3   8   51.80   74.40
 -11  -3   8   84.48   71.59
  11   3   8  176.32   64.58
 -11  -3   8   -5.82   91.28
 -11  -3   8  129.29   42.06
 -11  -2  -8 -293.85   88.80
  11   2  -8   56.35   72.82
  11   2  -8   80.17   28.71
  11   2  -8  143.83   92.71
  11   2  -8   29.19   44.12
 -11  -2   8   64.89   34.97
 -11  -2   8  -33.68   78.75
 -11  -2   8  110.94   97.59
 -11  -2   8   45.08   69.02
  11   1  -8  551.24  228.32
  11   1  -8  627.74  185.70
  11   1  -8  586.72  180.23
  11   1  -8 1008.84  222.21
 -11  -1   8  528.85  277.94
 -11  -1   8  499.25  208.99
 -11  -1   8  724.72  234.92
  11   0  -8   16.26   53.90
 -11   0  -8  230.93   96.55
  11   0  -8  -46.26   88.88
 -11   0   8   26.59  115.23
  11   0   8  724.28  154.51
 -11   0   8   12.70   74.68
  11  -1  -8  759.73  199.21
 -11   1  -8 1075.18  236.28
  11  -1  -8  623.39  231.19
  11  -1  -8  781.60  207.87
 -11   1   8  622.35  229.85
 -11   2  -8  -81.56   99.32
  11  -2  -8   44.63   42.57
  11  -2  -8  -19.39   61.76
 -11   2  -8 -244.73  104.97
 -11   3  -8  205.31  102.82
 -11   3  -8   83.44   89.53
  11  -3   8   -3.36   60.12
  11  -3   8   59.39  115.10
 -11   4  -8  129.96  113.27
 -11   4  -8   96.79   98.77
  11  -4   8    4.14  115.64
  11  -4   8  283.44   71.39
 -11   5  -8   41.84   95.03
  11  -5   8   -4.24  102.35
  11  -5   8    3.58   58.96
 -11   6  -8  187.18  109.13
  11  -6   8  183.79   73.09
  11  -6   8  228.28  118.78
  11  -7   8   99.37   63.99
  12   8  -8  -14.87   82.64
  12   7  -8   25.18   84.91
 -12  -7   8   76.07   50.71
 -12  -7   8   42.88   96.80
  12   6  -8   19.38   43.18
  12   6  -8   13.74   74.98
 -12  -6   8    3.28   40.80
 -12  -6   8   35.28   88.45
  12   5  -8  -20.91   54.33
  12   5  -8  -59.60  115.62
 -12  -5   8   43.83   91.15
 -12  -5   8  -53.67   69.20
 -12  -5   8  -34.29   37.28
  12   4  -8 -117.03  110.37
  12   4  -8   12.11   48.07
 -12  -4   8   26.80   92.80
 -12  -4   8   -5.16   31.47
 -12  -4   8  -28.42   73.42
 -12  -4   8   57.41   71.62
 -12  -3  -8  -66.02   86.25
  12   3  -8 -175.26  105.94
  12   3  -8   17.93   47.61
 -12  -3   8  -67.16   78.19
  12   3   8   -4.25   62.10
 -12  -3   8   14.81   72.80
 -12  -2  -8  836.14  200.50
  12   2  -8  764.70  221.37
  12   2  -8  594.88  174.76
 -12  -2   8  566.95  213.40
  12   2   8  771.13  171.55
 -12  -2   8  536.98  200.42
  12   1  -8   39.43   54.82
  12   1  -8   -3.74   95.01
 -12  -1  -8   39.33   81.33
 -12  -1   8  -12.90   80.62
 -12  -1   8   41.26  105.42
  12   1   8  -28.63   61.04
  12   1   8 -256.29  135.94
  12   0  -8 1347.44  308.15
  12   0  -8 1195.79  338.41
 -12   0  -8 1569.87  330.14
 -12   0   8 1001.83  333.08
  12   0   8  393.87  376.04
  12   0   8 1410.19  285.26
 -12   0   8 1208.66  386.75
 -12   1  -8  -65.23   98.43
  12  -1  -8 -177.05   96.52
  12  -1  -8  -35.45   65.64
 -12   1  -8   -7.87   98.24
  12  -1   8   -3.55   57.15
  12  -1   8 -143.49  136.65
 -12   1   8  153.71   90.89
 -12   2  -8  746.30  211.34
 -12   2  -8 1034.38  226.18
  12  -2  -8  620.38  189.73
  12  -2   8  691.42  179.40
  12  -2   8  184.74  238.00
 -12   3  -8  -73.72   99.35
 -12   3  -8   91.22  122.74
  12  -3   8    4.74  121.84
  12  -3   8    7.46   67.81
 -12   4  -8  -71.26  117.07
 -12   4  -8  409.47  103.65
  12  -4   8  -81.75   67.95
  12  -4   8   -4.60   99.45
 -12   5  -8   48.36  124.34
  12  -5   8   -3.98   69.55
  13   5  -8  852.18  162.13
  13   5  -8  199.41   92.37
 -13  -5   8  376.93  113.61
 -13  -5   8   40.52  111.97
  13   4  -8   -4.37  122.19
  13   4  -8   27.43   54.52
 -13  -4  -8  -89.93   98.60
 -13  -4   8  126.18   86.54
  13   4   8   74.32   74.00
 -13  -4   8  -38.56   76.34
  13   3  -8  -42.08  124.86
  13   3  -8   49.95   63.41
 -13  -3  -8  292.57  100.37
  13   3   8  251.89   77.40
  13   3   8   29.71  135.28
 -13  -3   8  231.22   96.79
 -13  -3   8  212.62   93.99
  13   2  -8   74.52  109.12
  13   2  -8  -65.04   58.24
 -13  -2   8   -7.76  102.23
  13   2   8 -371.96  138.27
 -13  -2   8  174.62   86.54
  13   1  -8  425.15  162.22
  13   1  -8  651.33  127.86
 -13  -1   8  237.48  180.01
  13   1   8  448.33  202.38
 -13  -1   8  335.61  149.97
  13   0  -8  -28.63   68.13
  13   0  -8   94.12  105.51
 -13   0   8 -103.42   93.82
 -13   0   8   20.72  136.93
  13  -1  -8  223.90  163.20
  13  -1  -8  670.62  142.10
 -13   1   8  568.73  162.71
  13  -2  -8   87.93   78.95
  13  -2   8   -5.52  162.12
 -13   3  -8   96.95  123.05
  13  -3   8    5.27  148.45
 -13   4  -8  137.60  116.08
  13  -4   8   -4.27   67.95
  13  -4   8 -204.27  133.23
 -13   5  -8  237.76  149.85
 -13   5  -8   97.65  134.29
  13  -5   8  334.13  154.92
  13  -5   8  241.22   98.95
 -13   6  -8   61.75  116.60
  13  -6   8 -179.20  128.04
  13  -6   8  117.45   76.83
  13  -7   8    8.76   71.88
 -14  -5   8  122.82   89.26
  14   4  -8  -98.30   63.51
 -14  -4  -8   53.75  106.85
 -14  -4   8   79.05   88.03
  14   4   8  -26.56   77.94
 -14  -3  -8 -133.16  107.48
  14   3  -8   22.24   60.63
 -14  -3   8  120.49   99.74
  14   3   8  -59.72   79.30
  14   2  -8  -38.31   64.34
 -14  -2  -8 -104.23  104.22
  14   2   8  120.74   71.21
  14   2   8    5.89  160.77
 -14  -2   8  -43.66  115.07
 -14  -1  -8  107.50  113.10
  14   1   8 -167.66   83.48
  14   1   8 -503.61  186.60
 -14   0  -8  179.68  149.45
 -14   0  -8  212.67  122.16
  14   0   8   39.67   95.96
  14   0   8    6.27  203.26
 -14   1  -8 -421.79  194.21
 -14   1  -8 -155.81  130.51
 -14   2  -8  -15.51  130.90
 -14   2  -8  -59.93  142.33
 -14   2   8 -233.94  117.87
  14  -2   8 -116.96   81.23
 -14   3  -8  130.04  133.64
 -14   3  -8  296.59  144.23
  14  -3   8  240.35  164.17
  14  -3   8    4.58   82.82
 -14   4  -8  345.03  154.94
 -14   4  -8  -35.27  131.57
  14  -4   8   -4.69   76.13
  14  -4   8  -56.76  151.94
 -14   5  -8  160.52  135.76
 -14   5  -8  167.29  150.54
  14  -5   8   95.52   88.64
  14  -5   8    5.67  150.70
 -14   6  -8  273.78  137.07
 -14   6  -8  143.72  153.37
  14  -6   8    5.76  142.71
  14  -6   8  217.03   91.11
 -14   7  -8  149.68  140.50
  14  -7   8  258.56   97.54
  15   4  -8    4.18   66.40
  15   4  -8  -79.06  148.74
 -15  -4  -8 -176.16  120.33
 -15  -4   8   64.27  101.69
  15   4   8  103.27   86.41
 -15  -4   8   85.34  108.29
  15   3  -8   16.65   70.10
 -15  -3  -8   43.59  117.60
  15   3  -8  224.21  143.63
 -15  -3   8  -32.62  107.53
  15   3   8    5.45   84.83
 -15  -3   8   69.07  109.04
  15   2  -8    4.36   71.95
  15   2  -8   25.06  128.01
 -15  -2  -8  -60.58  109.08
 -15  -2   8   14.60  125.23
  15   2   8   32.92  182.62
  15   2   8  -87.12   81.71
 -15  -2   8  -51.20  111.52
  15   1  -8 -469.51  133.54
  15   1  -8   36.52   74.25
 -15  -1  -8    5.01  115.50
 -15  -1   8  130.52  112.12
 -15  -1   8  -38.49  147.10
  15   1   8   65.85   83.88
  15   1   8    6.77  187.24
  15   0  -8  -29.67   84.97
 -15   0  -8  -48.26  152.46
 -15   0  -8  -67.00  119.46
  15   0  -8 -194.67  127.83
 -15   0   8  -86.94  158.78
  15   0   8    4.91   88.77
 -15   0   8 -107.11  116.71
  15   0   8   -6.93  191.67
  15  -1  -8    5.35   91.07
 -15   1  -8 -160.16  167.42
  15  -1  -8  132.28  129.46
 -15   1  -8  141.11  128.85
  15  -1   8    6.91  187.73
  15  -1   8 -188.45   97.70
 -15   1   8 -207.86  180.51
 -15   1   8    6.71  123.36
 -15   2  -8   75.71  158.86
 -15   2  -8  -11.38  139.41
  15  -2  -8 -377.31   91.82
  15  -2   8  188.17   85.42
 -15   2   8  -42.39  121.35
  15  -2   8   -6.66  180.98
 -15   3  -8  124.47  148.22
 -15   3  -8  -84.80  146.23
  15  -3   8  -19.48  175.86
  15  -3   8   85.99   84.83
 -15   4  -8  -95.33  142.57
 -15   4  -8   91.53  154.32
  15  -4   8   -5.12   82.22
  15  -4   8 -528.27  167.33
 -15   5  -8 -174.77  158.84
 -15   5  -8  -73.61  143.56
  15  -5   8  106.74  157.89
  15  -5   8  -99.25   87.25
 -15   6  -8  -25.39  146.55
 -15   6  -8  224.43  155.19
  15  -6   8 -158.29  159.10
  15  -6   8  -89.86   87.94
 -15   7  -8   26.05  139.27
 -15   7  -8 -105.40  158.90
  15  -7   8   -5.25   88.96
  16   5   8    6.63  184.71
 -16  -4  -8 -219.21  146.46
  16   4   8 -281.12   99.06
 -16  -4   8 -498.28  144.93
  16   4   8 -305.52  189.11
 -16  -4   8 -303.59  148.15
  16   3  -8   82.93  103.32
 -16  -3  -8  344.45  148.50
  16   3   8  179.59  100.19
 -16  -3   8  -98.60  150.81
 -16  -3   8  347.96  150.74
 -16  -2  -8  -16.91  124.61
  16   2  -8  -34.07   86.55
  16   2  -8 -417.93  146.68
  16   2   8   39.69   90.31
  16   2   8 -291.78  214.82
 -16  -2   8  -70.72  146.82
 -16  -2   8 -158.40  133.37
  16   1  -8  -76.01   83.93
  16   1  -8   98.82  144.10
 -16  -1  -8  125.50  152.25
 -16  -1  -8   22.62  128.27
 -16  -1   8 -213.23  165.07
  16   1   8    5.63   85.28
 -16  -1   8  179.54  124.63
  16   1   8  -37.32  207.43
  16   0  -8  -43.51   93.64
 -16   0  -8  -23.24  167.40
  16   0  -8 -106.38  139.71
 -16   0  -8   63.29  134.98
  16   0   8   15.27  201.13
  16   0   8   16.32   93.60
 -16   0   8  -27.81  132.27
 -16   0   8 -136.21  176.00
  16  -1  -8   28.79  133.05
  16  -1  -8    5.83   98.05
 -16   1  -8  -48.68  165.44
 -16   1  -8   90.41  149.79
 -16   1   8 -225.76  191.40
  16  -1   8 -138.88   96.86
 -16   1   8  -66.22  125.18
  16  -1   8    7.53  196.04
  16  -2  -8  -30.61  110.00
 -16   2  -8   25.44  169.72
 -16   2  -8 -169.63  159.40
 -16   2   8 -218.73  200.33
  16  -2   8    5.63   99.05
  16  -2   8 -300.58  217.00
 -16   2   8 -253.90  145.92
 -16   3  -8  -35.09  182.34
 -16   3  -8  134.70  171.60
  16  -3   8  658.64  212.57
  16  -3   8  337.35  113.23
 -16   4  -8 -160.82  179.43
 -16   4  -8 -392.20  183.23
  16  -4   8  -50.18  106.13
  16  -4   8 -181.35  190.81
 -16   5  -8  119.33  165.16
 -16   5  -8 -134.21  168.92
  16  -5   8 -141.83   94.36
  16  -5   8  -83.38  172.94
 -16   6  -8 -148.03  174.63
 -16   6  -8  -56.68  159.47
  16  -6   8   97.32   92.12
  16  -6   8   27.91  169.83
 -16   7  -8  181.87  176.48
 -16   7  -8   19.24  152.78
  16  -7   8   75.03   96.35
 -17  -5  -8 -207.50  154.49
  17   5   8 -178.63  206.19
 -17  -4  -8  -99.79  145.51
  17   4   8   45.60  218.73
  17   4   8 -205.25  104.15
  17   3  -8 -245.32  162.25
  17   3  -8    5.21   83.25
 -17  -3  -8  303.23  154.12
 -17  -3   8  -75.66  137.94
 -17  -3   8  158.09  137.48
  17   3   8    6.61   98.06
 -17  -2  -8 -163.96  141.07
  17   2  -8  168.25  161.46
 -17  -2  -8    7.90  165.68
  17   2  -8    5.47   86.17
  17   2   8 -188.71   95.65
 -17  -2   8   -5.97  149.55
 -17  -2   8  222.10  145.02
 -17  -1  -8 -326.97  173.03
  17   1  -8   -5.66   97.82
  17   1  -8   -6.05  148.57
 -17  -1  -8  -31.65  151.71
 -17  -1   8   -7.37  138.21
  17   1   8   49.26  228.85
 -17  -1   8  133.01  178.47
  17   1   8  137.57   97.26
 -17   0  -8 -153.98  153.28
  17   0  -8   -5.94  103.22
  17   0  -8  159.04  146.59
 -17   0  -8  -43.84  181.25
 -17   0   8   61.47  136.29
 -17   0   8 -280.48  204.94
  17   0   8    8.33  237.38
  17   0   8    6.20  100.82
  17  -1  -8    6.35  111.64
  17  -1  -8 -175.73  151.24
 -17   1  -8 -128.42  181.65
 -17   1  -8    6.61  154.68
 -17   1   8    7.95  202.51
 -17   1   8 -185.78  144.63
  17  -1   8  171.65  227.49
  17  -1   8  208.34  104.41
 -17   2  -8   20.73  163.00
 -17   2  -8  288.24  190.53
  17  -2   8    8.04  216.64
  17  -2   8   -6.29  100.68
 -17   3  -8 -471.57  201.87
 -17   3  -8    7.02  174.49
  17  -3   8   -6.18  101.34
  17  -3   8 -581.44  204.65
 -17   4  -8  -60.79  185.03
 -17   4  -8 -227.74  188.98
  17  -4   8 -411.17  207.47
  17  -4   8  271.49  104.04
 -17   5  -8 -144.45  182.30
 -17   5  -8 -273.47  189.73
  17  -5   8   61.67  101.62
  17  -5   8    7.69  195.75
 -17   6  -8 -219.40  183.91
 -17   6  -8   10.57  182.47
  17  -6   8    7.72  187.15
  17  -6   8   37.24  100.74
 -17   7  -8  643.73  704.14
  17  -7   8 3965.83  619.32
 -18  -5  -8 -294.43  170.16
  18   5   8  -83.44  226.39
  18   4   8 1190.55  377.52
  18   4   8 2475.47  476.34
 -18  -3  -8 -316.53  220.94
 -18  -3   8 -495.90  192.12
  18   3   8 -440.71  144.69
  18   2  -8  -98.72  172.11
 -18  -2  -8  275.80  161.69
  18   2  -8    6.02  102.12
  18   2   8 -208.19  114.12
 -18  -2   8  331.77  167.46
 -18  -2   8  135.37  150.61
 -18  -1  -8 -113.32  168.18
  18   1  -8    6.39  103.64
  18   1  -8  292.29  172.55
 -18  -1  -8  119.09  188.21
  18   1   8 -757.65  250.40
 -18  -1   8   89.94  156.39
 -18  -1   8   88.09  184.17
  18   1   8 -229.46  107.73
 -18   0  -8  165.15  195.51
  18   0  -8   -6.59  109.15
 -18   0  -8  -50.04  168.34
  18   0  -8 -234.25  162.44
  18   0   8   48.32  105.75
  18   0   8 -442.26  257.72
 -18   0   8 -481.32  159.34
 -18   0   8   23.84  213.89
  18  -1  -8   13.87  121.07
 -18   1  -8 -350.72  206.12
  18  -1  -8  219.36  166.40
 -18   1  -8  256.02  175.61
  18  -1   8  133.42  240.25
 -18   1   8  -94.05  226.29
  18  -1   8   -6.91  114.42
 -18   1   8   35.53  154.45
  18  -2  -8   14.57  122.30
 -18   2  -8  -10.71  210.03
 -18   2  -8 -404.89  187.23
  18  -2   8   44.14  243.68
  18  -2   8 -165.51  110.22
 -18   2   8   53.07  237.93
 -18   3  -8 -580.69  222.78
 -18   3  -8 -424.69  254.22
  18  -3   8 -665.91  153.85
 -18   4  -8 1084.69  388.49
 -18   4  -8 1170.97  397.54
  18  -4   8  464.67  302.62
 -18   5  -8 -164.42  212.87
 -18   5  -8   15.63  198.67
  18  -5   8 -264.08  222.60
  18  -5   8    6.77  115.57
 -18   6  -8 -225.33  202.75
 -18   6  -8  258.78  198.38
  18  -6   8    6.77  110.00
  18  -6   8   85.60  207.11
 -18   7  -8  126.44  199.63
  18  -7   8    6.84  107.31
 -19  -5  -8   36.31  179.61
 -19  -4  -8  265.91  192.97
  19   4   8 -217.03  133.73
  19   4   8  140.83  262.48
 -19  -3  -8  118.58  192.78
  19   3   8    8.18  130.12
  19   3   8    9.49  273.58
 -19  -2  -8 -219.84  191.24
  19   2  -8   40.26  110.82
 -19  -2   8 -178.52  167.72
  19   2   8    7.98  128.16
 -19  -2   8  109.22  182.24
  19   1  -8 -445.05  119.55
 -19  -1  -8  166.26  191.91
 -19  -1  -8  -82.76  214.72
  19   1  -8 -538.43  193.41
 -19  -1   8  367.55  177.32
 -19  -1   8  361.84  207.38
  19   1   8   15.93  127.01
 -19   0  -8 -135.32  194.71
  19   0  -8   -7.34  179.07
  19   0  -8  -65.96  121.72
 -19   0  -8  196.71  219.12
  19   0   8    7.68  127.47
 -19   0   8  540.30  233.11
 -19   0   8  -19.02  169.07
  19   0   8  379.70  261.68
 -19   1  -8 -346.20  204.44
  19  -1  -8 -285.07  178.39
  19  -1  -8    7.52  130.45
 -19   1  -8  171.64  236.84
  19  -1   8    9.70  269.71
 -19   1   8 -117.37  170.98
  19  -1   8 -168.07  126.53
 -19   1   8 -137.82  241.87
 -19   2  -8 -120.86  234.62
 -19   2  -8 -312.91  201.38
  19  -2  -8   -7.90  130.77
 -19   2   8  180.46  243.01
  19  -2   8   15.33  130.23
  19  -2   8    9.64  242.26
 -19   3  -8  208.73  214.73
 -19   3  -8  312.30  238.52
  19  -3   8   -9.52  255.23
 -19   4  -8   33.31  208.16
 -19   4  -8   90.48  243.53
  19  -4   8 -562.48  248.20
  19  -4   8    7.49  133.68
 -19   5  -8  382.73  239.01
 -19   5  -8 -384.31  217.67
  19  -5   8   -7.40  125.25
 -20  -2   8  -79.14  187.60
  20   1  -8   15.91  191.88
  20   1  -8   23.57  132.23
 -20  -1   8  152.74  184.93
 -20  -1   8  -69.75  218.04
  20   0  -8   16.10  198.57
  20   0  -8    8.04  133.59
 -20   0   8  347.15  190.79
 -20   0   8  112.46  242.86
  20  -1  -8  -58.20  136.44
 -20   1   8  -10.83  181.79
 -20   1   8  373.23  253.47
  20  -2  -8  -85.84  146.53
 -20   2   8 -304.92  267.23
   0   0  -9    4.56   34.71
   0   0  -9    1.80   18.46
   0   0   9   -1.98   36.34
   1   0  -9 2151.62  430.94
   0   1  -9 1739.09  427.67
  -1   0  -9 1770.23  415.91
  -1   0   9 1721.68  453.71
   0  -1   9 1701.15  446.30
   1   0   9 1933.58  453.92
  -1   1  -9   -1.14   13.78
  -1   1  -9    3.38   28.69
   1   1  -9   14.46   29.08
   1  -1   9   -3.84   17.52
  -1  -1   9   12.64   33.06
   1  -1   9   15.87   32.23
  -1   2  -9   30.47   13.87
  -1   2  -9   26.10   15.08
  -1   2  -9   34.33   27.05
   1  -2   9   53.34   28.88
   1  -2   9    2.86   22.11
   1  -2   9   31.01   13.41
  -2   0  -9   11.16   19.08
   0   2  -9  -22.38   25.66
   0   2  -9   23.22   11.95
   0  -2   9    3.47   27.81
   2   0   9   -0.90   18.45
  -2   1  -9   32.81   15.89
  -2   1  -9   43.72   31.74
  -2   1  -9   42.06   19.24
   2  -1   9   30.57   28.14
   2  -1   9   32.81   16.73
   2  -1   9   33.76   36.89
  -2   2  -9    4.18   17.80
  -2   2  -9   -7.55   11.56
  -2   2  -9   -6.17   25.80
   2  -2   9    4.41   27.91
   2  -2   9   -0.72   13.55
   2  -2   9   12.08   27.11
   3   2  -9  340.21   66.23
  -2   3  -9  319.72   75.02
   3   2  -9  311.60   77.45
  -2   3  -9  265.84   79.31
  -2   3  -9  323.50   69.00
   3   2  -9  248.78   65.93
  -2   3  -9  314.59   76.70
   2  -3   9  209.02   68.51
   2  -3   9  254.58   77.89
  -3  -2   9  329.94   84.05
   2  -3   9  372.31   83.63
   2  -3   9  175.12   67.48
  -3  -2   9  243.74   74.83
  -1   3  -9  157.22   38.88
  -1   3  -9  149.58   32.13
  -1   3  -9  114.48   41.63
   3   1  -9  110.77   35.11
  -1   3  -9  122.67   37.37
   1  -3   9   70.06   41.78
   1  -3   9  140.00   32.89
   1  -3   9  119.51   31.30
   1  -3   9   88.72   40.86
  -3   0  -9   -2.60   22.75
  -3   0  -9   54.26   19.92
   3   0  -9   21.44   24.59
   3   0   9   55.84   31.05
  -3   1  -9  138.15   35.49
  -3   1  -9  153.87   41.54
  -3   1  -9  125.75   49.81
   3  -1   9  190.77   53.29
   3  -1   9   66.92   36.31
   3  -1   9  140.36   50.22
   2   3  -9  266.88   63.87
  -3   2  -9  247.89   75.10
  -3   2  -9  238.58   75.15
   2   3  -9  302.97   75.21
  -3   2  -9  253.87   66.59
   3  -2   9  245.95   66.84
  -2  -3   9  272.75   78.26
   3  -2   9  310.85   78.51
   3  -2   9  230.82   80.91
  -3   3  -9   -7.71   24.89
   3   3  -9   -3.72   20.30
   3   3  -9   -3.55   32.39
  -3   3  -9  -22.43   25.69
  -3   3  -9  -25.42   29.89
   3   3  -9   -2.35   10.35
  -3   3  -9   12.11   11.71
   3  -3   9   -4.97   25.07
  -3  -3   9   -1.73   15.24
   3  -3   9    2.98   11.93
  -3  -3   9   18.36   35.73
   3  -3   9    7.35   16.92
   3  -3   9   -7.94   39.07
  -3  -3   9   -5.74   13.08
  -3   4  -9  583.02  142.93
  -3   4  -9  336.54  149.04
   4   3  -9  599.60  139.99
   4   3  -9  542.96  139.62
  -3   4  -9  632.96  136.49
   4   3  -9  474.64  123.17
   4   3  -9  388.65  157.92
   3  -4   9  669.77  154.99
  -4  -3   9  554.35  147.21
  -4  -3   9  617.74  137.30
   3  -4   9  414.78  129.06
  -4  -3   9  499.99  143.00
   3  -4   9  688.41  135.01
   4   2  -9   -8.05   17.68
  -2   4  -9   21.07   24.49
   4   2  -9    2.84   13.32
   4   2  -9    0.97   26.51
   4   2  -9   13.60   36.03
  -4  -2   9   -1.14   23.69
   2  -4   9   11.19   16.68
  -4  -2   9   -2.47   24.94
  -4  -2   9   35.41   42.15
   4   1  -9  277.66   68.96
   4   1  -9  255.23   73.01
   4   1  -9  342.53   84.29
  -4  -1   9  308.40   91.96
   1  -4   9  258.40   74.60
   0   4  -9  -11.09   16.43
  -4   0  -9   11.92   19.41
   4   0  -9  -21.42   47.99
  -4   0  -9    4.45   28.79
   4   0  -9   13.83   24.56
   0  -4   9   11.21   16.89
  -4   0   9   56.43   58.41
   4   0   9   -9.77   23.49
   1   4  -9  245.64   70.06
   1   4  -9  230.53   78.60
  -4   1  -9  321.42   74.36
  -4   1  -9  276.76   79.67
   4  -1   9  260.18   90.06
   4  -1   9  307.99   71.90
  -1  -4   9  298.71   69.96
   4  -1   9  429.67   90.01
  -4   2  -9    1.21   29.61
  -4   2  -9    1.27   10.31
   2   4  -9   -6.56   28.98
   2   4  -9   13.12   17.32
  -4   2  -9  -18.49   26.86
  -2  -4   9   -7.96   17.83
   4  -2   9  -14.48   19.12
   4  -2   9   17.81   29.35
   4  -2   9   32.67   43.40
   4  -2   9    3.17   11.86
   3   4  -9  510.74  146.60
  -4   3  -9  558.48  134.20
  -4   3  -9  491.51  141.03
  -4   3  -9  520.40  151.80
   3   4  -9  565.86  138.44
  -4   3  -9  574.75  131.71
   4  -3   9  494.86  130.61
   4  -3   9  525.24  142.93
   4  -3   9  562.80  127.77
   4  -3   9  520.15  146.89
   4   4  -9  -12.79   29.00
  -4   4  -9    1.28   15.91
   4   4  -9  -11.83   37.15
  -4   4  -9    6.41   23.88
   4   4  -9  -14.61   19.36
   4  -4   9   -2.66   23.43
   4  -4   9  -13.03   14.47
  -4  -4   9   -1.81   20.39
  -4   5  -9  968.32  221.58
   5   4  -9  693.96  228.83
   5   4  -9  790.68  187.82
   5   4  -9  822.43  215.23
   5   4  -9  748.77  212.76
  -5  -4   9  900.01  190.26
  -5  -4   9  749.14  225.21
  -5  -4   9  691.07  223.79
   5   3  -9 1111.83  262.80
   5   3  -9 1227.87  257.84
   5   3  -9 1126.47  296.93
  -5  -3   9 1032.24  267.72
  -5  -3   9  805.19  258.73
  -5  -3   9  846.62  279.26
  -2   5  -9  823.73  186.58
   5   2  -9  593.92  166.58
   5   2  -9  754.13  208.66
   5   2  -9  801.66  187.01
   5   2  -9  772.61  169.69
   2  -5   9  756.88  176.65
  -5  -2   9  679.16  190.34
  -5  -2   9  734.50  203.24
  -5  -2   9  736.59  199.03
  -1   5  -9  435.79  120.86
   5   1  -9  527.22  111.69
  -5  -1  -9  366.30  131.73
   5   1  -9  494.48  126.25
   5   1  -9  455.52  107.58
  -1   5  -9  469.62  115.29
   5   1   9  293.66  126.26
   1  -5   9  490.86  109.64
  -5  -1   9  436.60  140.75
  -5  -1   9  482.03  129.06
   5   1   9  373.03  116.05
   0   5  -9  875.57  180.08
  -5   0  -9  842.16  201.83
  -5   0  -9  827.68  194.27
   0   5  -9  750.24  187.72
   5   0  -9  753.39  196.70
   5   0   9  853.76  202.32
   0  -5   9  753.23  174.84
  -5   0   9  681.54  215.41
   1   5  -9  516.33  118.43
  -5   1  -9  485.79  123.40
   1   5  -9  573.00  126.51
  -1  -5   9  466.19  115.57
   5  -1   9  493.65  141.48
   2   5  -9  836.82  182.85
  -5   2  -9  734.58  204.37
   2   5  -9  691.31  170.58
  -5   2  -9  865.49  179.94
   5  -2   9  664.00  172.82
   5  -2   9  504.69  207.28
   3   5  -9 1077.50  268.38
   3   5  -9 1016.69  304.32
  -5   3  -9 1115.64  276.42
  -5   3  -9 1247.55  258.08
  -5   3  -9  965.32  279.80
   5  -3   9 1214.19  282.90
   5  -3   9  974.39  258.78
   5  -3   9 1113.15  282.98
   4   5  -9  826.58  212.99
   4   5  -9  901.42  240.12
  -5   4  -9  798.47  226.38
  -5   4  -9  578.52  214.95
   4   5  -9 1009.61  196.90
  -4  -5   9 1005.15  195.14
   5  -4   9  759.51  227.50
   5   5  -9    1.78   24.08
   5   5  -9   44.95   42.81
  -5   5  -9  -18.04   45.78
   5   5  -9  -14.74   38.86
  -5   5  -9  -71.14   28.22
  -5  -5   9   16.17   24.71
   5  -5   9   -7.16   30.94
   6   5  -9   86.08   30.44
   6   5  -9   55.77   48.54
  -6  -5   9   87.73   31.20
   5  -6   9   55.35   35.86
   6   4  -9 1239.64  292.27
   6   4  -9 1130.73  257.72
   6   4  -9 1020.27  296.04
   6   4  -9 1042.97  316.61
  -6  -4   9 1126.02  262.31
  -6  -4   9 1000.32  311.05
  -6  -4   9 1038.07  302.45
  -3   6  -9 1743.90  427.08
   6   3  -9 1855.35  473.98
   6   3  -9 1549.07  402.09
   6   3  -9 1668.18  376.40
  -6  -3   9 1546.36  415.02
  -6  -3   9 1754.76  423.81
  -6  -3   9 1416.46  455.55
   6   2  -9  817.07  194.04
   6   2  -9  628.90  239.49
  -2   6  -9  697.23  214.22
   6   2  -9  982.39  191.04
   6   2  -9  786.38  215.53
  -6  -2   9  726.88  236.69
  -6  -2   9 1008.69  219.30
  -6  -2   9  836.33  224.60
   6   2   9  897.90  215.76
  -1   6  -9  534.57  122.18
   6   1  -9  447.61  130.54
  -6  -1  -9  591.67  132.31
   6   1  -9  541.67  111.69
   6   1  -9  389.44  114.29
  -6  -1   9  469.04  146.52
   6   1   9  476.63  133.48
   6   1   9  468.66  117.82
   1  -6   9  498.87  116.73
  -6   0  -9   -3.57   37.36
   0   6  -9   31.24   32.33
  -6   0  -9  -11.44   16.87
   6   0  -9  -21.39   54.31
   6   0  -9  -32.90   27.43
   0   6  -9   -4.14   24.66
   6   0   9   46.69   53.25
   6   0   9   -3.85   29.50
  -6   0   9  -14.55   65.60
   0  -6   9    2.00   22.91
   1   6  -9  361.02  114.60
  -6   1  -9  428.98  110.06
   1   6  -9  357.56  111.58
   6  -1  -9  315.92  112.75
  -6   1  -9  456.29  119.54
  -1  -6   9  561.14  106.47
   6  -1   9  404.25  105.30
   6  -1   9  506.32  136.90
  -6   2  -9 1104.99  257.68
  -6   2  -9  851.96  234.82
  -6   2  -9  801.58  223.90
   6  -2   9  913.00  256.17
   6  -2   9 1184.45  243.40
   6  -2   9  874.03  211.83
   6  -2   9  810.27  208.55
  -6   3  -9 1522.97  477.41
  -6   3  -9 1610.08  449.29
   3   6  -9 1545.72  423.01
  -6   3  -9 1322.24  411.14
   6  -3   9 1465.46  458.61
   6  -3   9 2926.40  451.33
   6  -3   9 1763.00  416.73
  -6   4  -9 1404.84  297.09
  -6   4  -9 1271.06  318.88
   4   6  -9 1321.19  296.27
   4   6  -9 1114.51  283.23
   4   6  -9 1057.60  335.85
   6  -4   9 1213.65  296.30
   6  -4   9 1193.68  310.26
  -4  -6   9 1230.77  278.46
   5   6  -9   46.67   31.84
  -6   5  -9  103.59   34.80
   5   6  -9   53.88   46.81
   5   6  -9   74.75   47.33
  -6   5  -9   61.86   58.93
   6  -5   9  108.79   37.12
  -5  -6   9   54.55   32.52
   6  -5   9  139.05   69.67
   6   6  -9  -14.48   45.75
   6   6  -9  -15.67   29.96
  -6  -6   9    9.56   29.14
   6  -6   9   24.15   36.01
   7   6  -9   25.89   52.29
   7   6  -9    9.63   54.28
   7   6  -9   30.42   33.10
  -7  -6   9   30.21   33.23
   7   5  -9  511.23  109.02
   7   5  -9  356.35   93.59
   7   5  -9  398.03  112.15
   7   5  -9  257.62  121.44
  -7  -5   9  416.86   94.90
   7   4  -9  -22.49   22.12
   7   4  -9  -42.69   54.20
   7   4  -9   -2.49   46.61
  -7  -4   9   55.41   56.71
  -7  -4   9  -35.27   28.28
   7   3  -9 3854.04  843.54
   7   3  -9 3518.95 1041.21
   7   3  -9 3777.07  938.46
  -7  -3   9 3585.80  877.13
  -7  -3   9 3562.57 1027.34
   7   2  -9   43.45   59.16
   7   2  -9   66.45   27.25
   7   2  -9   58.81   54.22
  -7  -2  -9   65.74   53.11
   7   2   9  114.01   43.04
  -7  -2   9   71.82   62.54
  -7  -2   9   41.35   45.00
   7   2   9   70.48   56.18
   7   1  -9 1067.22  249.35
  -7  -1  -9 1074.14  280.04
   7   1  -9 1040.06  300.55
   7   1  -9 1070.96  280.68
   7   1  -9 1024.37  243.24
   7   1   9  851.86  247.45
  -7  -1   9 1043.99  318.29
   7   1   9  844.89  284.22
  -7  -1   9 1124.99  292.68
  -7   0  -9   -3.33   13.12
   7   0  -9  -14.77   32.21
  -7   0  -9  -16.01   44.65
   7   0  -9  -16.72   29.40
   7   0  -9 -154.13   69.44
   7   0   9  -16.69   32.31
  -7   0   9  -83.18   83.05
  -7   0   9  -80.66   48.20
   7   0   9  -91.81   73.26
   1   7  -9 1044.09  270.21
   7  -1  -9 1422.46  279.33
  -7   1  -9  813.37  282.27
   7  -1  -9 1202.24  268.11
   7  -1   9  959.54  307.17
   7  -1   9 1134.61  252.83
   2   7  -9   68.39   41.75
   2   7  -9   66.44   34.30
  -7   2  -9   73.45   54.80
  -7   2  -9   53.40   49.35
   7  -2   9   89.97   35.54
  -2  -7   9   45.06   31.61
   7  -2   9  140.39   76.12
   3   7  -9 3281.97  902.91
  -7   3  -9 3503.88  883.58
  -7   3  -9 3970.47 1036.08
   7  -3   9 4073.03  954.08
   7  -3   9 3109.72  893.31
   4   7  -9    6.93   42.70
  -7   4  -9   -8.91   53.46
   4   7  -9   58.23   34.41
  -4  -7   9   13.12   30.59
   7  -4   9   15.19   34.86
   7  -4   9  -56.08   66.47
  -7   5  -9  277.23  112.72
   5   7  -9  412.11  106.40
   5   7  -9  253.58   97.89
  -5  -7   9  365.00   95.61
   7  -5   9  433.93  102.46
   7  -5   9  525.36  122.20
   6   7  -9  -17.97   54.03
   6   7  -9   73.43   33.75
  -6  -7   9    8.39   33.15
   7  -6   9  -19.53   40.32
   7   7  -9    8.22   57.51
   7   7  -9    2.94   37.10
  -7  -7   9   32.21   36.14
   7  -7   9    5.20   41.77
   8   7  -9  300.50  105.39
   8   7  -9  372.63  116.01
  -8  -7   9  354.36  103.35
   8   6  -9  109.26   66.46
   8   6  -9  157.23   45.14
  -8  -6   9  122.24   45.99
   8   5  -9   23.55   40.04
   8   5  -9   -4.41   63.28
   8   5  -9  -12.43   27.68
   8   5  -9   11.14   56.86
  -8  -5   9    2.40   28.77
  -8  -5   9   41.54   47.57
  -8  -5   9    4.59   64.00
   8   4  -9   65.93   34.74
   8   4  -9   80.89   62.42
   8   4  -9   72.77   68.55
   8   4  -9  108.91   42.04
  -8  -4   9  125.12   50.91
  -8  -4   9  156.37   39.74
  -8  -4   9   86.37   69.01
   8   3  -9   33.78   64.74
   8   3  -9   34.38   55.88
   8   3  -9   70.40   25.54
   8   3  -9   26.37   31.42
  -8  -3   9   89.75   48.02
  -8  -3   9   26.13   66.26
  -8  -3   9   23.11   29.57
  -8  -3   9   80.60   48.12
   8   2  -9  591.36  137.06
  -8  -2  -9  779.65  166.52
   8   2  -9  475.85  135.97
   8   2  -9  471.42  161.36
   8   2  -9  581.88  173.75
   8   2   9  570.61  144.38
  -8  -2   9  545.82  160.80
   8   2   9  622.90  162.51
  -8  -2   9  695.59  181.95
  -8  -2   9  417.96  157.60
   8   1  -9  276.59   90.37
   8   1  -9  208.89   94.10
   8   1  -9  257.38   68.07
   8   1  -9  252.93   64.45
  -8  -1  -9  167.38   79.73
   8   1   9  302.91   71.69
  -8  -1   9  283.80  109.60
   8   1   9  314.10   99.00
  -8  -1   9  187.62   86.27
  -8   0  -9   13.57   47.13
   8   0  -9  -15.55   59.77
   8   0  -9  -44.71   36.12
   8   0  -9  -42.26   62.70
   8   0  -9   19.18   29.54
   8   0   9  -23.27   37.03
   8   0   9  -42.64   76.81
  -8   0   9   -7.08   88.86
  -8   0   9  -38.43   53.28
   8  -1  -9  240.24   77.34
   8  -1  -9  275.74   73.54
  -8   1  -9  265.45   84.86
   8  -1   9  248.76   69.26
   8  -1   9  234.19  110.86
  -8   2  -9  729.45  166.45
  -8   2  -9  644.15  155.92
   8  -2   9  464.77  178.89
   8  -2   9  460.22  141.16
  -8   3  -9   27.80   57.88
  -8   3  -9   19.95   67.20
   8  -3   9   60.43   83.13
   8  -3   9   25.46   39.52
  -8   4  -9  104.37   64.96
  -8   4  -9   52.52   80.35
   8  -4   9  141.53   78.63
   8  -4   9  124.38   48.12
  -8   5  -9   15.39   62.05
   5   8  -9   21.58   48.33
  -5  -8   9   -9.51   34.09
   8  -5   9   -6.44   78.41
   8  -5   9  -33.62   42.82
  -8   6  -9  155.16   75.92
   6   8  -9  111.93   64.69
  -6  -8   9   52.73   47.74
   8  -6   9  136.00   52.11
   7   8  -9  476.99  131.65
  -7  -8   9  643.42  122.20
   8  -7   9  399.56  122.61
   8   8  -9   92.92   65.35
  -8  -8   9   -3.60   44.44
   9   8  -9  287.88   95.56
  -9  -8   9  256.56   84.58
   9   7  -9    3.12   63.77
   9   7  -9  112.28   45.66
  -9  -7   9  -12.98   41.96
   9   6  -9   55.43   69.15
   9   6  -9   48.14   36.76
  -9  -6   9  -11.22   39.46
  -9  -6   9   53.55   58.08
   9   5  -9  204.88   89.89
   9   5  -9  164.20   60.12
   9   5  -9  167.76   49.56
   9   5  -9   44.75   74.33
  -9  -5   9  196.07   51.43
  -9  -5   9  132.30   87.46
  -9  -5   9  195.59   68.75
   9   4  -9  224.07   65.07
   9   4  -9  195.61  103.27
   9   4  -9  306.92   71.81
   9   4  -9  263.75   90.42
  -9  -4   9  274.36   82.70
  -9  -4   9  220.80   69.27
  -9  -4   9  219.18   81.16
  -9  -4   9  330.16  102.37
  -9  -3  -9   42.53   63.41
   9   3  -9   -2.88   60.46
   9   3  -9   25.24   26.22
   9   3  -9   -2.02   33.11
   9   3  -9    2.59   73.60
  -9  -3   9  -36.64   50.29
   9   3   9   21.58   73.29
  -9  -3   9    8.17   54.14
  -9  -3   9   26.88   33.39
  -9  -3   9   20.76   72.78
   9   2  -9   39.19   70.01
   9   2  -9   36.30   35.10
  -9  -2  -9   24.66   61.46
   9   2  -9   73.28   65.37
   9   2  -9   17.96   28.93
  -9  -2   9   41.37   55.87
  -9  -2   9  106.19   78.91
   9   2   9   55.23   48.56
   9   2   9   -3.14   76.85
  -9  -2   9  107.29   64.38
   9   1  -9   10.93   67.91
   9   1  -9   30.09   27.86
   9   1  -9   27.34   68.96
   9   1  -9   84.02   37.81
  -9  -1  -9   50.37   54.83
   9   1   9    2.87   42.63
   9   1   9  116.69   89.10
  -9  -1   9    9.50   58.86
  -9  -1   9   10.13   86.86
   9   0  -9   46.94   68.40
   9   0  -9   44.68   32.40
  -9   0  -9   61.35   57.84
   9   0  -9   49.37   71.15
   9   0  -9   99.46   44.52
   9   0   9  -17.74   40.00
  -9   0   9  117.10   98.84
  -9   0   9   -7.18   59.16
   9   0   9   56.15   86.48
   9  -1  -9  -39.42   44.77
   9  -1  -9   18.23   37.01
  -9   1  -9   13.24   61.77
   9  -1   9   65.23   39.77
   9  -1   9    3.65   96.12
  -9   2  -9   95.60   66.77
  -9   2  -9   86.01   69.28
   9  -2   9   67.16   43.08
   9  -2   9  103.89  100.30
  -9   3  -9   10.70   63.85
  -9   3  -9    9.65   78.22
   9  -3   9   44.85   43.44
   9  -3   9    3.42   88.40
  -9   4  -9  179.54   93.18
  -9   4  -9  171.30  115.42
   9  -4   9  252.32  104.76
   9  -4   9  355.92   80.47
  -9   5  -9  121.53   83.94
   9  -5   9  208.72   62.90
   9  -5   9  109.09   92.79
  -9   6  -9  104.83   81.10
   9  -6   9   62.36   52.94
   9  -7   9    9.16   48.96
   9   9  -9   49.41   73.14
  10   8  -9   24.26   75.01
 -10  -8   9   51.43   49.25
  10   7  -9  245.28   66.76
  10   7  -9  133.91   87.59
 -10  -7   9  140.05   64.84
  10   6  -9  244.97  103.49
  10   6  -9  470.39  128.79
 -10  -6   9  443.63  103.75
 -10  -6   9  509.06  141.21
  10   5  -9   32.94   89.68
  10   5  -9   25.52   67.40
  10   5  -9   11.84   32.61
  10   5  -9   51.47   45.87
 -10  -5   9   59.92   81.40
 -10  -5   9   14.44   56.93
 -10  -5   9   10.61   35.91
  10   4  -9   -2.96   91.43
  10   4  -9   31.82   52.68
  10   4  -9  182.53   77.56
  10   4  -9   62.15   40.19
 -10  -4   9   98.15   65.17
 -10  -4   9  156.36   67.25
 -10  -4   9  142.53   89.28
 -10  -4   9  159.11   45.89
  10   3  -9   32.26   82.96
 -10  -3  -9   72.40   74.76
  10   3  -9    2.30   38.19
  10   3  -9   18.75   68.37
  10   3  -9    1.93   28.44
  10   3   9   17.34   81.60
 -10  -3   9   -2.58   35.69
  10   3   9    7.73   54.33
 -10  -3   9  -51.60   56.16
 -10  -3   9   14.27   80.69
 -10  -3   9   -9.43   60.79
  10   2  -9   19.83   71.89
 -10  -2  -9   16.21   65.42
  10   2  -9  -38.31   80.46
  10   2  -9    9.36   26.61
  10   2  -9  -27.76   38.43
 -10  -2   9  -43.52   70.97
 -10  -2   9  -16.17   90.21
 -10  -2   9   56.48   61.27
  10   2   9    3.62   93.54
  10   2   9   -3.47   55.97
  10   1  -9  246.98   98.39
  10   1  -9  280.60   62.39
  10   1  -9  264.18   96.92
  10   1  -9  177.73   69.61
 -10  -1  -9  241.37   85.36
 -10  -1   9  102.35  108.25
 -10  -1   9  230.70   89.65
 -10  -1   9  241.43  121.98
  10   1   9  136.76  117.99
  10   1   9  281.96   71.34
 -10   0  -9    2.89   65.43
  10   0  -9  -45.72   76.80
  10   0  -9   36.83   78.59
  10   0  -9    4.32   31.34
  10   0  -9    2.93   44.34
  10   0   9    4.03  101.85
 -10   0   9  -39.91   66.79
 -10   0   9   -8.59  110.24
  10   0   9    2.84   46.30
  10  -1  -9  158.09   63.97
  10  -1  -9  205.30   72.78
 -10   1  -9   93.63   89.68
  10  -1   9  157.29  128.74
  10  -1   9  318.20   70.02
 -10   1   9  231.15   91.26
 -10   2  -9   -3.30   77.41
 -10   2  -9    8.01   77.73
  10  -2  -9   33.43   55.81
  10  -2   9  -37.19   46.42
  10  -2   9  -93.23  109.33
 -10   3  -9 -101.72   90.93
 -10   3  -9   45.06   79.48
  10  -3   9  -65.49  107.66
  10  -3   9   11.93   49.48
 -10   4  -9  291.91  115.02
 -10   4  -9  143.04   96.89
  10  -4   9  213.32   72.90
  10  -4   9  304.86  114.27
 -10   5  -9    9.31   85.93
  10  -5   9   69.51   98.63
  10  -5   9   55.19   54.77
 -10   6  -9  440.29  133.07
  10  -6   9  452.33  114.08
  10  -6   9  292.39  143.62
  10  -7   9  290.73   80.46
  11   8  -9   74.52   83.51
 -11  -8   9  157.08   59.45
  11   7  -9    3.52   48.20
  11   7  -9   25.43   83.48
 -11  -7   9   29.10   46.35
 -11  -7   9   37.02   89.91
  11   6  -9   47.34   42.62
  11   6  -9   -3.50   76.86
 -11  -6   9   72.31   44.59
 -11  -6   9   17.82   91.28
  11   5  -9   43.55   76.84
  11   5  -9   42.33   38.53
 -11  -5   9   74.06   62.76
 -11  -5   9   78.03   39.20
 -11  -5   9   29.52   88.96
  11   4  -9   42.22   33.34
  11   4  -9  -39.14   70.01
  11   4  -9  -36.82  103.21
  11   4  -9    2.70   43.38
 -11  -4   9   -9.02   91.61
 -11  -4   9   40.05   65.88
 -11  -4   9   35.32   37.93
 -11  -4   9   67.79   63.01
 -11  -3  -9    8.12   82.62
  11   3  -9   -2.60   41.80
  11   3  -9  -13.14   92.76
  11   3  -9  -20.32   29.93
  11   3  -9  -80.54   75.20
  11   3   9   19.46   99.18
  11   3   9   16.51   59.77
 -11  -3   9  -51.24   67.77
 -11  -3   9   10.76   39.01
 -11  -3   9   72.15   95.94
 -11  -3   9    9.83   68.76
  11   2  -9  220.78  125.39
 -11  -2  -9  264.76  110.04
  11   2  -9  400.96   85.57
  11   2  -9  366.38   81.46
  11   2  -9  147.16  113.82
  11   2   9  438.67   92.31
 -11  -2   9  278.14   89.99
  11   2   9    8.13  133.97
 -11  -2   9  220.17  141.50
 -11  -2   9  270.91  117.02
 -11  -2   9  414.83  108.53
  11   1  -9  -56.03   85.20
 -11  -1  -9 -196.45   90.37
  11   1  -9   70.96   87.81
  11   1  -9  -14.33   32.17
  11   1  -9  -29.48   47.14
 -11  -1   9   26.00   99.29
 -11  -1   9    3.91   73.68
 -11  -1   9   20.33  105.82
  11   0  -9  652.06  174.79
  11   0  -9  686.30  140.58
 -11   0  -9  247.24  175.10
  11   0  -9  576.86  151.86
 -11   0   9  450.93  229.80
 -11   0   9  571.97  173.18
  11  -1  -9  -32.84   56.99
 -11   1  -9 -208.94   91.76
 -11   1  -9 -146.65  103.46
  11  -1  -9    5.05   37.20
 -11   1   9   -4.80   76.24
  11  -2  -9  392.26  100.65
 -11   2  -9  556.39  135.41
  11  -2  -9  247.68  110.60
 -11   2  -9  438.02  127.56
  11  -2   9  293.32  157.61
  11  -2   9  380.06  102.14
 -11   3  -9  136.77   95.55
 -11   3  -9  -46.73   93.89
  11  -3   9 -181.44  122.24
  11  -3   9  -56.57   58.52
 -11   4  -9  -29.46   90.10
 -11   4  -9   55.88  115.29
  11  -4   9   -7.03   59.03
  11  -4   9 -408.60  114.45
 -11   5  -9   35.38  115.26
 -11   5  -9   88.18   95.15
  11  -5   9   55.24  108.82
  11  -5   9   39.81   61.37
 -11   6  -9   50.75   98.30
  11  -6   9 -133.31  109.12
  11  -6   9  123.10   63.54
  11  -7   9   58.63   62.40
  12   9  -9  423.04  140.49
  12   7  -9   -7.70   88.49
  12   7  -9   14.89   49.10
 -12  -7   9  -35.79  104.62
 -12  -7   9   22.88   49.37
  12   6  -9   19.21   46.39
  12   6  -9   22.15   81.30
 -12  -6   9   60.80   99.09
 -12  -6   9   13.18   43.49
  12   5  -9  -69.79   76.79
  12   5  -9   78.16   39.49
 -12  -5   9  -57.16   98.96
 -12  -5   9   14.74   38.85
  12   4  -9  -94.18   78.46
  12   4  -9   74.64   48.16
  12   4  -9   34.81   35.64
  12   4  -9   11.32  108.74
 -12  -4   9    2.82   71.47
 -12  -4   9  -21.03   74.49
 -12  -4   9   16.67   38.73
 -12  -4   9   -9.69   99.44
  12   3  -9   59.22   51.83
  12   3  -9   21.89  104.11
 -12  -3   9   55.63   74.22
 -12  -3   9  101.10   81.19
 -12  -3   9  -22.32   39.84
 -12  -3   9   93.25  106.76
 -12  -2  -9  -23.18   85.23
  12   2  -9   53.94   48.97
  12   2  -9   76.89   99.73
 -12  -2   9  -20.86   93.14
 -12  -2   9  -31.09   41.36
 -12  -2   9   27.48  114.51
  12   2   9   91.92   65.60
 -12  -2   9   47.79   77.20
 -12  -1  -9  660.40  194.01
  12   1  -9  613.67  173.85
  12   1  -9  748.85  205.34
 -12  -1   9  404.28  196.64
  12   1   9  522.66  166.32
 -12  -1   9  829.96  222.91
  12   1   9 1288.19  229.35
  12   0  -9  -29.33   59.03
  12   0  -9   78.42   97.07
 -12   0  -9   29.28   85.62
 -12   0   9    9.67   87.65
  12   0   9    3.55   59.88
  12   0   9  123.54  138.15
 -12   1  -9  668.45  202.68
  12  -1  -9  743.32  179.63
 -12   1  -9  763.13  205.02
  12  -1  -9  665.69  205.22
  12  -1   9  606.43  241.84
  12  -1   9  794.64  167.81
 -12   1   9  308.11  199.26
  12  -2  -9  -25.93   67.56
 -12   2  -9  -74.57  107.27
 -12   2  -9  110.85  102.22
  12  -2   9    3.62   63.72
 -12   3  -9   53.76  117.92
 -12   3  -9  204.95  108.70
  12  -3   9   77.52   64.57
 -12   4  -9  -80.80  120.19
  12  -4   9   23.22   69.07
 -12   7  -9   13.20  104.78
 -13  -4  -9   71.85   99.43
  13   4  -9 -115.30   58.81
 -13  -4   9 -110.52   81.09
  13   4   9    4.82  128.34
 -13  -4   9  -56.70   87.58
  13   3  -9    4.05  109.70
  13   3  -9   -3.32   53.23
 -13  -3  -9 -162.00   97.30
 -13  -3   9  167.39   89.85
  13   3   9    4.76   74.49
 -13  -3   9 -178.17   86.96
  13   3   9   98.88  129.21
  13   2  -9  235.88   72.60
 -13  -2  -9  451.66  106.05
  13   2  -9  -56.49  117.25
  13   2   9    5.17  151.78
  13   2   9  385.04   84.66
 -13  -2   9  212.56  102.45
 -13  -2   9   58.85  117.12
  13   1  -9   14.76   60.42
  13   1  -9  -65.59  102.59
 -13  -1   9  -82.78   92.52
  13   1   9   99.21  157.05
 -13  -1   9  -18.35  120.42
  13   0  -9  385.65  100.20
  13   0  -9  333.74  131.09
 -13   0   9  125.38  156.10
 -13   0   9  318.68  120.82
  13   0   9   85.79  178.61
 -13   1  -9  143.83  121.93
  13  -1  -9   49.89  104.05
  13  -1  -9  153.51   72.60
  13  -1   9 -357.99  161.89
 -13   1   9   28.45   96.73
 -13   2  -9  125.15  123.62
  13  -2  -9   -4.67   83.69
  13  -2   9  310.48  175.82
 -13   3  -9  -24.41  117.46
  13  -3   9    5.38  141.27
 -13   4  -9    6.28  120.82
 -13   4  -9  666.69  136.15
  13  -4   9  209.18   80.12
 -13   5  -9  313.06  142.54
 -13   5  -9  -71.54  115.81
  13  -5   9 -305.57  139.70
  13  -5   9   -4.37   79.37
 -13   6  -9  103.06  122.61
 -13   6  -9  -95.46  127.34
  13  -6   9    4.42   73.44
  13  -6   9   -5.27  131.13
 -13   7  -9   14.41  124.87
  13  -7   9 -302.25   82.01
 -14  -4  -9  266.69  113.52
  14   4   9   -5.44   77.61
 -14  -3  -9   40.53  102.81
  14   3  -9   51.60   64.97
 -14  -3   9  107.66  100.39
  14   3   9    5.55  146.74
  14   3   9  -81.34   76.86
  14   2  -9    3.81   61.58
 -14  -2  -9   82.87  101.27
 -14  -2   9  -26.10  119.63
  14   2   9 -186.75  161.43
  14   2   9 -235.61   80.53
 -14  -1  -9 -100.12  108.01
  14   1   9    4.58   79.01
  14   1   9  166.27  177.76
 -14   0  -9   46.08  116.66
 -14   0  -9   12.60  138.42
  14   0   9 -123.17   75.53
  14   0   9    6.33  178.40
 -14   1  -9 -305.76  119.57
 -14   1  -9  -91.24  149.53
  14  -1   9  -36.06   86.21
  14  -1   9 -275.37  192.12
 -14   2  -9  -40.91  136.83
  14  -2  -9  203.88   79.59
 -14   2  -9   10.24  123.16
  14  -2   9   62.11  179.99
  14  -2   9 -160.65   80.39
 -14   3  -9 -322.96  151.24
 -14   3  -9  -62.95  137.89
  14  -3   9   -4.58   76.37
  14  -3   9   17.88  163.21
 -14   4  -9  155.65  132.77
 -14   4  -9 -111.71  145.09
  14  -4   9    4.67   76.23
  14  -4   9   -5.76  148.33
 -14   5  -9   -5.75  154.16
 -14   5  -9   21.89  132.18
  14  -5   9    5.73  147.23
  14  -5   9  148.36   85.64
 -14   6  -9   -7.64  138.51
 -14   6  -9  -28.81  139.74
  14  -6   9  340.76  146.98
  14  -6   9   72.67   87.52
 -14   7  -9   55.43  124.75
  14  -7   9   19.18   82.73
 -15  -4  -9  217.95  122.77
  15   4   9 -281.40   88.62
  15   3  -9   98.28  132.97
 -15  -3  -9   22.30  124.61
  15   3  -9  219.76   74.64
 -15  -3   9   10.81  116.68
 -15  -3   9  526.70  113.98
  15   3   9    6.26  170.81
  15   3   9   94.40   88.78
 -15  -2  -9 -271.22  112.76
  15   2  -9  -17.04   71.83
  15   2  -9  -38.85  123.56
  15   2   9  150.40  178.77
  15   2   9  148.42   83.64
 -15  -2   9  -39.91  107.38
 -15  -2   9  102.27  122.20
  15   1  -9    4.52   73.03
  15   1  -9   94.09  128.52
 -15  -1  -9 -264.54  123.63
  15   1   9    6.81  187.35
  15   1   9   10.17   85.99
 -15  -1   9  -17.88  114.56
 -15  -1   9  -22.38  149.41
 -15   0  -9  -27.97  150.61
  15   0  -9    4.99   82.14
  15   0  -9   20.31  119.99
 -15   0  -9  159.82  128.22
  15   0   9    6.99  194.22
 -15   0   9  258.19  164.72
  15   0   9   50.28   87.16
 -15   0   9   31.99  115.10
  15  -1  -9   15.95  118.49
 -15   1  -9  294.54  136.47
 -15   1  -9  -51.88  170.06
  15  -1  -9  -48.24   94.85
 -15   1   9  -47.41  186.21
 -15   1   9  175.60  115.69
  15  -1   9    4.99   92.82
  15  -1   9  133.66  195.91
  15  -2  -9   27.90   93.14
 -15   2  -9  -53.41  156.55
 -15   2  -9   11.35  145.61
  15  -2   9  393.48  190.99
  15  -2   9    5.09   81.99
 -15   3  -9   78.81  149.99
 -15   3  -9   46.75  148.17
  15  -3   9 -250.96  181.54
  15  -3   9   35.76   87.22
 -15   4  -9 -335.57  156.93
 -15   4  -9  -40.49  155.14
  15  -4   9 -137.56   91.80
  15  -4   9   -6.39  162.74
 -15   5  -9 -108.03  151.44
 -15   5  -9   92.91  161.36
  15  -5   9   25.37  157.81
  15  -5   9 -265.17   86.48
 -15   6  -9   34.09  153.69
 -15   6  -9  -43.53  157.39
  15  -6   9   -6.36  151.60
  15  -6   9  115.50   88.58
 -15   7  -9  140.07  142.24
 -15   7  -9   31.19  168.48
  15  -7   9    5.27   85.38
 -16  -4  -9  285.47  144.77
 -16  -3  -9    6.17  135.15
  16   3   9    7.00  186.12
 -16  -3   9 -138.59  127.57
  16   3   9    6.09   92.59
  16   2  -9   29.01  125.05
 -16  -2  -9  175.48  170.60
  16   2   9  228.55  124.26
  16   2   9 1104.13  229.12
 -16  -2   9  616.00  190.15
 -16  -2   9  399.03  168.95
 -16  -1  -9  111.60  159.85
 -16  -1  -9  -62.57  135.81
  16   1  -9  -15.17   92.28
 -16  -1   9 -170.32  171.37
 -16  -1   9  -59.27  132.50
  16   1   9 -441.87  218.03
  16   1   9 -282.28   94.14
  16   0  -9  -32.76  102.63
 -16   0  -9 -195.95  172.35
 -16   0  -9 -190.04  144.00
  16   0  -9 -349.31  156.90
  16   0   9 -802.80  228.20
 -16   0   9 -323.37  144.50
  16   0   9 -279.76  105.82
 -16   0   9 -320.90  197.02
  16  -1  -9   -5.85  103.99
  16  -1  -9 -247.72  143.64
 -16   1  -9 -208.22  147.99
 -16   1  -9  -98.87  173.21
  16  -1   9   49.74   93.63
 -16   1   9 -117.80  200.93
 -16   1   9 -221.01  127.90
 -16   2  -9  336.86  247.36
 -16   2  -9 1285.20  246.68
  16  -2   9 1931.00  284.35
 -16   2   9  113.54  277.07
  16  -2   9  922.91  202.24
 -16   3  -9  176.84  176.60
 -16   3  -9  -38.48  160.28
  16  -3   9 -254.66  201.84
  16  -3   9 -191.50  105.26
 -16   4  -9   58.85  164.48
 -16   4  -9  -72.94  171.10
  16  -4   9   35.35  188.75
  16  -4   9   16.93   89.25
 -16   5  -9 -199.24  168.04
 -16   5  -9  -46.70  171.88
  16  -5   9    7.03  174.77
  16  -5   9 -203.66   94.95
 -16   6  -9 -182.25  173.70
 -16   6  -9  228.86  168.25
  16  -6   9  119.60   99.07
  16  -6   9  189.52  171.40
 -16   7  -9  343.80  175.87
 -16   7  -9  -68.07  173.84
  16  -7   9  -40.48   96.27
 -17  -4  -9   95.27  149.37
  17   4   9 -125.38  108.50
 -17  -3  -9  -82.32  152.72
  17   3   9   60.44  104.07
  17   2  -9   46.63  149.17
 -17  -2  -9  235.51  147.81
  17   2  -9    5.43   90.17
  17   2   9   -7.99  220.11
 -17  -2   9   36.06  155.89
 -17  -2   9  -14.05  134.27
  17   2   9   38.95   97.76
  17   1  -9   62.21   91.97
 -17  -1  -9  139.93  149.85
 -17  -1  -9  -49.33  171.68
  17   1  -9 -106.52  145.98
  17   1   9    8.24  210.21
 -17  -1   9  103.29  137.10
  17   1   9   90.34   98.40
 -17  -1   9  -86.17  175.21
  17   0  -9   17.88  105.35
  17   0  -9 -290.02  151.56
 -17   0  -9 -263.51  147.46
 -17   0  -9 -251.30  180.50
  17   0   9    6.23  105.06
 -17   0   9 -147.79  197.91
  17   0   9    8.40  235.53
 -17   0   9  278.03  146.71
 -17   1  -9   -9.30  182.86
 -17   1  -9   33.03  154.23
  17  -1  -9    6.41  114.70
  17  -1   9    6.25   99.59
  17  -1   9   -8.29  218.46
 -17   1   9  105.04  142.22
 -17   1   9  -63.77  213.59
  17  -2  -9   -6.74  114.01
 -17   2  -9  105.99  194.05
 -17   2  -9  211.06  165.64
 -17   2   9   74.07  208.70
  17  -2   9    6.26  105.32
  17  -2   9   32.62  222.17
 -17   3  -9  -50.19  189.99
 -17   3  -9 -279.43  166.41
  17  -3   9   37.92  102.58
  17  -3   9   16.02  203.67
 -17   4  -9 -112.62  187.45
 -17   4  -9 -242.06  177.68
  17  -4   9   -7.83  205.49
  17  -4   9   68.77  103.20
 -17   5  -9 -663.53  186.12
 -17   5  -9   84.04  196.53
  17  -5   9 -140.99  109.56
  17  -5   9    7.78  190.55
 -17   6  -9  115.78  184.78
 -17   6  -9  -75.21  191.53
  17  -6   9 -241.63  107.42
 -17   7  -9 -119.31  203.43
 -17   7  -9 -465.07  207.40
 -18  -4  -9 -658.60  241.15
  18   4   9 -467.46  148.72
 -18  -3  -9 1065.36  491.61
  18   3   9 2197.32  406.96
 -18  -2  -9    8.69  188.45
 -18  -2  -9 -117.49  175.62
 -18  -2   9   31.42  151.36
  18   1  -9 -219.93  158.45
 -18  -1  -9  191.91  168.02
 -18  -1  -9   -9.19  191.96
  18   1  -9    6.24  106.94
  18   1   9    8.98  251.60
 -18  -1   9  -51.12  186.91
  18   1   9 -480.50  121.51
 -18  -1   9 -122.30  151.26
  18   0  -9   26.35  156.91
 -18   0  -9 -301.03  173.71
  18   0  -9   -6.58  112.83
 -18   0  -9   78.23  202.51
  18   0   9 -373.88  115.54
 -18   0   9 -170.01  156.51
  18   0   9  109.39  253.29
 -18   0   9   79.37  212.53
 -18   1  -9  236.67  213.25
  18  -1  -9  111.36  119.69
 -18   1  -9 -298.59  175.11
  18  -1   9 -395.28  255.93
 -18   1   9  119.99  228.98
 -18   1   9  106.12  154.14
  18  -1   9 -186.20  116.48
 -18   2  -9 -489.50  224.33
  18  -2  -9   14.62  117.93
 -18   2   9  115.32  229.18
 -18   3  -9 1000.65  459.22
 -18   3  -9  549.13  472.65
  18  -3   9 1701.70  374.07
 -18   4  -9 -521.84  247.23
 -18   4  -9 -459.22  222.77
  18  -4   9 -314.43  146.69
 -18   5  -9 -238.46  193.83
 -18   5  -9   11.81  212.10
  18  -5   9   74.40  111.38
  18  -5   9 -370.70  220.32
 -18   6  -9  193.78  202.99
 -18   6  -9 -289.57  211.09
  18  -6   9 -322.28  118.82
  18  -6   9 -172.34  216.97
 -18   7  -9   60.70  202.11
 -18   7  -9  171.61  198.46
  18  -7   9  -94.75  114.90
 -19  -4  -9 -363.01  190.09
  19   4   9   -9.40  198.22
  19   4   9   -8.48  134.20
 -19  -3  -9  -94.71  193.42
  19   3   9    8.39  131.29
 -19  -2  -9  211.57  202.77
 -19  -2  -9 -107.28  190.17
  19   2   9   -9.67  261.59
  19   2   9 -224.19  133.73
 -19  -1  -9 -362.00  203.20
 -19  -1  -9   81.22  208.33
 -19  -1   9   71.90  201.86
  19   1   9    9.86  270.46
 -19  -1   9    9.00  165.08
  19   1   9    7.98  118.21
  19   0  -9   14.63  123.90
 -19   0  -9  -32.97  227.02
  19   0  -9 -309.52  175.25
 -19   0  -9  143.68  194.20
  19   0   9  -31.77  129.30
  19   0   9 -764.84  278.96
 -19   0   9 -268.43  236.57
 -19   0   9 -159.77  171.11
 -19   1  -9 -300.29  227.61
 -19   1  -9 -572.23  198.23
  19  -1  -9   52.86  126.06
  19  -1   9    7.62  126.74
 -19   1   9  101.10  232.94
  19  -1   9    9.79  262.90
 -19   1   9  -77.56  162.75
 -19   2  -9  325.87  204.03
  19  -2  -9   47.52  129.95
 -19   2  -9  -48.38  244.68
  19  -2   9   -7.62  127.76
 -19   2   9  442.65  245.50
  19  -2   9  -39.04  261.61
 -19   3  -9  485.90  208.77
 -19   3  -9   12.71  240.87
  19  -3   9  115.56  255.53
  19  -3   9 -299.96  127.81
 -19   4  -9   25.97  250.08
 -19   4  -9   74.65  206.53
  19  -4   9   19.29  243.96
  19  -4   9 -374.43  133.01
 -19   5  -9  175.49  201.56
 -19   5  -9  282.54  245.99
  19  -5   9 -411.34  126.31
  20   0  -9 -551.26  192.81
  20   0  -9    8.00  138.96
 -20   0   9   37.29  235.33
 -20   0   9 -175.91  189.32
  20  -1  -9   74.66  134.21
 -20   1   9    9.80  252.25
 -20   1   9  -95.79  177.79
  20  -2  -9  120.45  143.39
 -20   2   9  -71.99  268.66
   0   0  10 6633.18 1858.35
   0   1 -10   14.17   35.40
  -1   0 -10  -19.06   22.52
   0  -1  10   33.38   40.67
  -1   1 -10  547.79  122.41
  -1   1 -10  512.07  108.59
   1  -1  10  394.32  119.79
   1  -1  10  271.94  126.48
  -1   2 -10   40.30   21.70
  -1   2 -10   70.32   34.39
   2   1 -10   -2.19   34.97
   2   1 -10  122.32   23.85
  -1   2 -10   -1.07   20.03
   1  -2  10   75.99   28.84
   1  -2  10   93.22   37.99
   2   0 -10   -2.14  527.85
  -2   0 -10 4255.97  562.10
  -2   1 -10  111.81   44.83
   1   2 -10  117.98   26.85
  -2   1 -10   96.21   27.40
   2  -1  10   86.62   37.99
   2  -1  10  110.29   47.02
  -2   2 -10 1199.21  238.61
  -2   2 -10  586.97  231.67
   2   2 -10 1041.69  204.05
   2   2 -10  862.44  224.23
  -2   2 -10  665.85  213.34
   2  -2  10  794.46  240.14
  -2  -2  10  952.09  239.06
   2  -2  10  889.50  217.89
   2  -2  10  806.60  236.95
  -2   3 -10  516.18  123.75
  -2   3 -10  654.41  131.54
   3   2 -10  476.75  128.71
  -2   3 -10  536.73  129.62
   3   2 -10  410.51  113.87
   2  -3  10  511.57  132.05
   2  -3  10  514.89  137.63
   2  -3  10  430.06  118.11
  -3  -2  10  525.97  138.48
  -1   3 -10  202.72   46.10
   3   1 -10  113.97   58.63
  -1   3 -10  178.08   44.39
   3   1 -10   -1.65   42.33
  -3  -1  10  133.20   64.40
   1  -3  10  148.38   50.86
   1  -3  10  196.55   39.79
   3   0 -10  -10.75   27.33
   3   0 -10  -44.81   45.78
  -3   0 -10   -9.98   22.54
   0   3 -10   13.53   15.20
   3   0  10  -18.78   29.94
  -3   0  10    7.56   54.63
   1   3 -10  233.89   56.18
   1   3 -10   98.72   43.38
  -3   1 -10  124.39   63.64
  -3   1 -10  204.32   53.12
  -3   1 -10  158.84   47.35
   3  -1  10  260.18   65.14
   3  -1  10  207.98   47.25
  -1  -3  10  215.69   57.53
   3  -1  10  174.40   59.98
   2   3 -10  533.50  132.03
  -3   2 -10  689.32  133.90
   2   3 -10  586.57  117.98
  -3   2 -10  535.02  123.88
  -3   2 -10  554.43  136.40
   3  -2  10  472.49  138.92
   3  -2  10  485.49  122.33
  -2  -3  10  369.40  136.85
   3  -2  10  578.77  140.23
   3   3 -10   22.26   11.36
  -3   3 -10   39.97   14.28
  -3   3 -10    8.94   26.81
  -3   3 -10   51.23   27.77
   3   3 -10   43.22   36.76
  -3   3 -10   26.90   29.24
   3   3 -10   31.53   16.49
  -3  -3  10   22.25   39.76
   3  -3  10   17.74   27.44
   3  -3  10   14.27   17.29
   3  -3  10   18.47   40.11
  -3  -3  10   11.63   15.15
  -3  -3  10   20.57   13.45
   3  -3  10    6.60   14.36
   4   3 -10   14.57   19.28
  -3   4 -10  -13.00   33.35
   4   3 -10   -6.33   28.79
   4   3 -10    4.22   39.80
   4   3 -10    6.52   16.29
  -3   4 -10  -19.56   29.72
   3  -4  10  -16.41   19.40
   3  -4  10  -23.76   45.06
  -4  -3  10  -12.24   21.16
  -4  -3  10  -42.14   45.47
  -4  -3  10  -16.96   24.14
   4   2 -10  166.56   59.70
   4   2 -10  199.46   42.60
   4   2 -10  114.28   40.48
  -4  -2  10   92.51   64.55
   2  -4  10  198.18   44.34
   4   1 -10  304.53   77.63
   4   1 -10  202.04   72.29
  -1   4 -10  332.93   73.64
   4   1 -10  178.92   88.86
  -4  -1  10  377.57   99.54
   1  -4  10  343.18   74.25
   1  -4  10  296.49   72.10
   4   0 -10   -2.18   24.76
   0   4 -10    1.27   18.31
  -4   0 -10   16.75   21.39
   4   0 -10   38.31   49.33
   0   4 -10  -17.51   31.45
   0  -4  10    1.51   16.45
  -4   0  10  -16.17   57.03
  -4   1 -10  373.91   77.70
   1   4 -10  223.47   70.54
  -4   1 -10  265.56   82.65
   1   4 -10  265.62   81.76
   4  -1  10  325.34   94.92
  -1  -4  10  306.52   70.77
   4  -1  10  245.40   73.96
  -4   2 -10  180.29   58.80
  -4   2 -10  154.09   45.47
   2   4 -10  151.66   44.67
   2   4 -10  138.12   58.22
  -4   2 -10  287.78   54.93
   4  -2  10  200.13   47.14
   4  -2  10  187.60   67.51
  -2  -4  10  146.08   46.61
   4  -2  10  206.34   61.04
  -4   3 -10   -7.10   27.92
  -4   3 -10   43.31   34.76
  -4   3 -10    9.66   12.72
   3   4 -10  -35.94   36.76
  -4   3 -10   32.65   28.51
   3   4 -10   13.44   18.85
   4  -3  10    7.38   29.91
  -3  -4  10   15.95   38.68
   4  -3  10  -24.02   20.08
   4  -3  10   89.98   48.17
   4  -3  10    0.99   13.47
  -4   4 -10  800.06  176.85
  -4   4 -10  658.51  169.73
   4   4 -10  545.87  188.04
   4   4 -10  628.92  152.00
   4   4 -10  749.84  172.77
  -4  -4  10  625.21  153.92
   4  -4  10  747.98  164.37
   4  -4  10  633.27  159.54
  -4  -4  10  585.73  181.48
   5   4 -10  838.51  193.44
   5   4 -10  609.26  194.81
   5   4 -10  786.43  169.67
   5   4 -10  535.20  209.62
  -5  -4  10  948.65  172.74
  -5  -4  10  686.00  200.37
  -5  -4  10  763.41  203.73
   5   3 -10  210.27   70.61
   5   3 -10  189.96   70.04
  -3   5 -10  190.64   57.83
   5   3 -10  185.21   55.63
   5   3 -10  208.50   52.49
   3  -5  10  250.37   58.66
  -5  -3  10  283.30   74.80
  -5  -3  10  213.07   60.62
  -5  -3  10  238.90   62.61
   3  -5  10  217.35   54.01
  -2   5 -10  737.56  188.42
   5   2 -10  667.07  164.60
   5   2 -10  709.21  186.84
   5   2 -10  658.11  202.72
   5   2 -10  703.72  166.64
  -5  -2  10  522.44  202.07
   2  -5  10  940.41  171.80
   2  -5  10  915.00  186.23
  -5  -2  10  826.34  200.87
  -5  -2  10  602.64  189.50
  -1   5 -10    3.16   29.77
   5   1 -10  -10.68   52.79
   5   1 -10   39.52   22.48
  -1   5 -10   20.47   21.75
   5   1 -10   46.58   24.70
  -5  -1  10    7.47   57.85
   5   1  10   47.68   42.38
   1  -5  10   36.44   19.67
   5   0 -10  -62.42   55.28
   5   0 -10    4.49   28.67
  -5   0 -10  -14.84   20.39
   0   5 -10  -21.79   30.77
  -5   0 -10   20.83   33.84
   0   5 -10    1.57   18.28
   5   0  10    1.90   48.01
   0  -5  10   16.29   19.20
  -5   0  10   20.33   64.34
   5   0  10  -21.23   28.03
  -5   1 -10   31.36   15.53
   1   5 -10   33.51   34.15
   1   5 -10   43.95   19.62
   5  -1  10  -46.57   56.25
  -1  -5  10   36.10   21.28
   2   5 -10  571.29  163.99
  -5   2 -10  798.84  203.68
   2   5 -10  680.56  177.79
  -5   2 -10  681.69  172.93
   5  -2  10  647.92  167.11
   5  -2  10  792.24  204.85
   5  -2  10  615.10  196.52
   3   5 -10  142.78   63.15
  -5   3 -10  224.33   59.41
  -5   3 -10  221.09   52.65
  -5   3 -10  194.96   59.25
   3   5 -10  192.86   61.59
   5  -3  10  161.46   75.96
   5  -3  10  232.81   61.46
   5  -3  10  171.23   49.53
   4   5 -10  867.01  204.60
  -5   4 -10  659.39  199.82
   4   5 -10  905.79  190.86
  -5   4 -10  791.16  188.76
   4   5 -10  907.01  173.05
  -5   4 -10  824.94  196.13
   5  -4  10  455.58  205.41
   5  -4  10  669.28  185.10
  -4  -5  10  968.38  173.18
   5  -4  10  484.74  183.79
   5   5 -10   45.98   24.26
  -5   5 -10   13.75   27.94
   5   5 -10   -5.64   36.88
   5   5 -10  -18.65   44.46
  -5   5 -10   11.75   48.89
   5  -5  10   19.10   29.21
  -5  -5  10  -21.69   26.61
   5  -5  10  -41.71   61.49
   6   5 -10  207.00   67.65
   6   5 -10  117.98   67.87
   6   5 -10  187.38   46.23
   5  -6  10  153.64   54.39
  -6  -5  10  156.20   47.75
  -6  -5  10   88.50   72.63
   6   4 -10   81.08   35.28
   6   4 -10  119.94   40.46
   6   4 -10  107.07   56.78
  -4   6 -10  130.27   44.48
   6   4 -10   94.90   56.42
  -6  -4  10  136.71   63.14
  -6  -4  10  135.77   42.76
  -6  -4  10  138.20   38.44
  -6  -4  10  140.89   44.63
   6   3 -10 1743.55  630.45
   6   3 -10 2258.27  593.88
   6   3 -10 2765.68  746.13
   6   3 -10 2869.45  659.01
  -3   6 -10 2985.59  683.78
  -6  -3  10 2818.98  664.00
  -6  -3  10 2753.54  715.33
  -6  -3  10 2852.00  680.80
   6   2 -10  344.02   77.25
   6   2 -10  271.28   95.70
   6   2 -10  282.36  104.84
  -2   6 -10  247.85   88.02
   6   2 -10  404.88   77.04
  -6  -2  10  203.94   96.13
  -6  -2  10  257.92  110.93
   2  -6  10  366.64   81.84
  -6  -2  10  374.32   95.07
   6   1 -10  983.27  234.26
  -1   6 -10 1138.92  255.97
   6   1 -10  973.37  265.74
  -1   6 -10 1134.91  257.64
  -6  -1 -10 1113.84  279.58
  -6  -1  10  975.95  295.18
   6   1  10  850.99  247.28
   6   1  10  935.22  267.85
  -6   0 -10  189.81   58.64
  -6   0 -10  182.37   63.89
   6   0 -10  209.32   79.18
   0   6 -10  295.42   60.11
   0   6 -10  191.91   52.65
   6   0 -10  223.44   55.41
  -6   0  10  186.29   91.20
   6   0  10  135.61   56.50
   0  -6  10  218.14   52.22
   6   0  10   95.00   82.20
  -6   1 -10  905.40  256.09
  -6   1 -10 1038.60  249.59
   1   6 -10  975.11  238.68
   6  -1 -10 1153.63  242.07
   6  -1  10  671.16  279.31
   6  -1  10  831.30  228.83
  -1  -6  10 1098.54  230.21
  -6   2 -10  318.72   82.88
   2   6 -10  398.47   83.96
  -6   2 -10  272.10  107.25
   2   6 -10  453.02   90.48
  -6   2 -10  191.93   97.98
  -2  -6  10  399.66   80.59
   6  -2  10  310.13   79.92
   6  -2  10  267.48   83.67
  -6   3 -10 2877.65  738.19
  -6   3 -10 2838.99  709.92
  -6   3 -10 2390.38  724.68
  -6   3 -10 2790.66  649.16
   3   6 -10 2935.92  667.88
   6  -3  10 2729.44  705.08
   6  -3  10 2623.49  660.94
   6  -3  10 2959.54  651.73
   6  -3  10 2964.47  740.07
  -6   4 -10  130.03   53.98
   4   6 -10  116.41   36.38
   4   6 -10  109.98   52.82
  -6   4 -10   80.22   40.10
  -6   4 -10   34.45   66.19
  -4  -6  10   95.41   35.38
   6  -4  10  125.63   67.56
   6  -4  10   94.64   41.30
   6  -4  10   92.74   40.11
   5   6 -10  202.32   51.35
  -6   5 -10  149.77   59.56
   5   6 -10  194.07   65.13
  -6   5 -10   89.49   72.36
   6  -5  10  141.77   79.23
  -5  -6  10  237.08   52.26
   6  -5  10  262.77   58.50
   6   6 -10   15.54   26.48
   6   6 -10  -23.17   50.06
   6  -6  10   10.80   35.61
  -6  -6  10    7.33   29.41
   7   6 -10   13.92   57.67
   7   6 -10   18.58   29.31
   6  -7  10   27.76   37.47
  -7  -6  10   10.31   29.71
   7   5 -10  209.53   62.53
   7   5 -10   58.94   35.87
   7   5 -10   58.46   63.57
  -7  -5  10   81.86   68.13
   5  -7  10   51.47   41.20
  -7  -5  10  121.56   39.28
   7   4 -10 1061.74  277.97
  -4   7 -10 1262.26  317.36
   7   4 -10 1133.53  317.59
  -7  -4  10 1234.87  285.20
  -7  -4  10 1172.95  342.58
  -3   7 -10   26.71   35.98
   7   3 -10    3.45   21.62
   7   3 -10   21.30   52.60
  -7  -3  10  -23.61   62.95
   7   2 -10 2346.64  508.87
  -7  -2 -10 1214.81  547.84
   7   2 -10 1822.99  559.02
   7   2 -10 2027.15  451.75
  -7  -2  10 2001.21  539.77
  -7  -2  10 2113.16  561.25
   7   2  10 1979.84  504.20
  -7  -1 -10  680.34  151.11
   7   1 -10  613.31  127.84
   7   1 -10  624.12  159.21
  -1   7 -10  398.90  138.84
   7   1 -10  556.39  151.15
  -7  -1  10  516.24  156.54
   7   1  10  504.51  153.25
   7   1  10  506.45  133.46
  -7  -1  10  419.91  173.94
   7   0 -10   -6.88   29.11
   0   7 -10  -22.16   35.60
  -7   0 -10  -20.84   42.44
   7   0 -10   -3.55   61.64
   7   0 -10  -13.24   35.36
  -7   0  10   13.81   76.12
   7   0  10    2.22   32.56
   0  -7  10  -21.88   27.47
   7   0  10   15.94   68.04
   1   7 -10  636.99  135.73
  -7   1 -10  507.31  142.65
   1   7 -10  467.56  135.01
   7  -1 -10  384.40  133.75
  -1  -7  10  513.31  129.11
   7  -1  10  445.74  164.33
   7  -1  10  556.29  124.90
  -7   2 -10 1866.77  533.50
   2   7 -10 1828.63  498.38
   2   7 -10 1858.10  497.29
   7  -2  10 2621.94  553.09
   7  -2  10 1937.73  474.72
  -2  -7  10 2191.34  480.42
   3   7 -10   16.01   43.18
  -7   3 -10  -26.23   57.80
  -7   3 -10  -45.13   50.83
   7  -3  10    8.09   73.55
  -3  -7  10   -2.53   27.77
   7  -3  10  -11.88   31.93
   4   7 -10 1168.03  307.90
  -7   4 -10 1246.55  369.08
  -7   4 -10 1129.92  306.82
   7  -4  10 1083.48  322.81
  -4  -7  10 1496.85  292.21
   7  -4  10 1261.14  312.08
   5   7 -10  124.18   43.54
  -7   5 -10   34.60   65.48
   5   7 -10  111.38   58.92
   7  -5  10  198.57   78.97
   7  -5  10  105.18   48.08
  -5  -7  10  182.06   44.05
   6   7 -10   21.59   53.75
   6   7 -10   27.96   36.84
  -7   6 -10   16.25   64.10
   7  -6  10   16.70   39.13
  -6  -7  10  -30.72   35.12
   7   7 -10   14.37   59.86
   7   7 -10   66.82   40.99
  -7  -7  10   46.85   37.96
   7  -7  10   50.16   41.86
   8   7 -10    6.07   42.85
   8   7 -10    9.25   63.49
  -8  -7  10   -6.15   38.19
   8   6 -10  -73.62   66.42
   8   6 -10   37.77   35.11
  -8  -6  10  -29.92   35.16
   8   5 -10    2.99   60.42
   8   5 -10   12.84   29.17
  -8  -5  10   48.11   47.72
  -8  -5  10    9.92   68.27
  -8  -5  10   -7.71   30.11
   8   4 -10  324.20   96.56
   8   4 -10  264.43   69.50
   8   4 -10  245.24   87.53
   8   4 -10  220.33   63.07
  -8  -4  10  237.70   76.99
  -8  -4  10  298.51   67.63
  -8  -4  10  152.88   74.82
  -8  -4  10  266.44   97.38
   8   3 -10  211.12   57.00
   8   3 -10  203.11   81.48
   8   3 -10  155.05   88.71
   8   3 -10  218.99   54.71
  -8  -3  10  239.75   62.35
  -8  -3  10  198.53   95.72
  -8  -3  10  145.36   71.63
  -8  -3  10  190.40   71.69
  -8  -2 -10  214.19   84.42
   8   2 -10  291.34   60.48
   8   2 -10  261.63   87.20
   8   2 -10  278.18   86.68
   8   2 -10  127.99   59.24
  -8  -2  10  214.76  101.89
   8   2  10  231.00   86.57
   8   2  10  261.29   71.73
  -8  -2  10  213.02   77.84
  -8  -2  10  203.94   82.25
   8   1 -10  236.44   73.97
   8   1 -10  119.55   44.89
  -8  -1 -10  137.44   64.87
   8   1 -10  131.49   49.42
   8   1 -10  170.71   78.53
   8   1  10  148.48   52.92
   8   1  10  122.06   85.18
  -8  -1  10  173.79   94.30
  -8  -1  10  109.90   67.03
   8   0 -10  128.49   49.99
   8   0 -10  174.73   85.42
   8   0 -10  206.73   55.53
  -8   0 -10  159.69   67.43
   8   0  10  138.28   53.43
   8   0  10  209.71   90.95
  -8   0  10  201.03  106.57
   8  -1 -10  175.60   56.11
   8  -1 -10  163.54   59.31
  -8   1 -10  112.48   65.45
   8  -1  10  251.92   96.05
   8  -1  10  181.04   52.71
  -8   2 -10  166.15   81.10
  -8   2 -10  231.13   81.90
   8  -2  10  169.22   63.15
   8  -2  10  319.48  105.82
  -8   3 -10  235.63   79.98
  -8   3 -10  287.36   95.12
   3   8 -10  228.19   75.89
  -3  -8  10  174.84   65.27
   8  -3  10  253.33   67.97
   8  -3  10  271.95  101.89
  -8   4 -10  307.89  110.64
  -8   4 -10  156.94   90.55
   4   8 -10  341.26   85.66
   8  -4  10  393.54   81.69
   8  -4  10  302.77  103.16
   5   8 -10  -35.82   52.93
   5   8 -10   44.83   39.91
  -8   5 -10    7.53   63.37
   8  -5  10  124.25   44.87
  -5  -8  10  -34.98   37.24
   8  -5  10   25.55   78.24
   6   8 -10   -3.30   42.73
  -8   6 -10  -34.90   67.51
   6   8 -10   26.01   52.41
   8  -6  10   24.09   42.62
   8  -6  10   17.77   83.72
  -6  -8  10   23.12   34.51
   7   8 -10   15.23   62.27
   7   8 -10   23.97   40.32
  -7  -8  10   62.00   41.36
   8  -7  10  -44.20   46.85
   8   8 -10  815.89  157.24
   8   8 -10  676.19  146.62
  -8  -8  10  266.76  144.82
   9   8 -10 -102.92   77.06
   9   8 -10  -48.18   51.02
  -9  -8  10  -60.42   48.67
   9   7 -10  162.87   86.01
   9   7 -10  209.88   62.52
  -9  -7  10  165.31   61.10
   9   6 -10  314.67   67.83
   9   6 -10  215.50   96.18
  -9  -6  10  179.78  101.95
  -9  -6  10  163.75   66.90
   9   5 -10  202.20   76.86
   9   5 -10   63.09   42.20
  -9  -5  10  143.51   84.84
  -9  -5  10  134.05   43.69
   9   4 -10   -7.52   75.10
   9   4 -10   61.79   27.77
   9   4 -10  -15.36   62.59
   9   4 -10    4.34   35.59
  -9  -4  10  -25.02   49.94
  -9  -4  10  -13.68   78.03
  -9  -4  10   -4.56   49.91
  -9  -4  10   15.97   33.95
   9   3 -10  260.96   65.08
   9   3 -10  170.58   97.20
   9   3 -10  183.82   62.33
   9   3 -10  185.06   89.29
  -9  -3  10  201.24   83.08
  -9  -3  10  304.31   71.14
   9   3  10  212.97   95.40
  -9  -3  10  246.41  107.56
  -9  -3  10  228.68   82.53
  -9  -2 -10  122.23   71.14
   9   2 -10   77.32   40.89
   9   2 -10  168.73   78.78
   9   2 -10  106.18   75.16
   9   2 -10  114.74   44.86
  -9  -2  10  138.45   72.83
   9   2  10  163.53   56.52
  -9  -2  10  146.65   66.91
   9   2  10  104.46   82.49
  -9  -2  10  162.30   91.87
   9   1 -10   -2.08   30.34
   9   1 -10   63.82   66.10
   9   1 -10   20.63   37.76
   9   1 -10  -59.11   71.19
  -9  -1 -10   52.47   58.61
   9   1  10  -53.51   88.30
  -9  -1  10   -3.31   58.90
   9   1  10   81.24   46.85
  -9  -1  10   32.61   92.75
  -9   0 -10   23.38   56.32
   9   0 -10  -50.85   41.64
   9   0 -10  -20.44   77.33
   9   0 -10  -30.73   33.42
   9   0  10   21.24   41.38
   9   0  10  -67.33   93.89
  -9   0  10   44.36   59.10
  -9   0  10   29.09  103.15
   9  -1 -10   12.58   47.89
  -9   1 -10   58.35   60.39
   9  -1 -10  -31.18   38.06
   9  -1  10  222.68  106.53
   9  -1  10   78.68   42.16
  -9   2 -10  158.60   73.16
  -9   2 -10  124.63   71.64
   9  -2  10  218.66  106.17
   9  -2  10   40.25   49.00
  -9   3 -10  222.15  110.32
  -9   3 -10  186.80   98.95
   9  -3  10  463.33   86.95
   9  -3  10  470.82  122.17
  -9   4 -10  -34.28   85.68
  -9   4 -10   53.31   70.12
   9  -4  10  -23.82   88.68
   9  -4  10   33.60   47.60
  -9   5 -10  171.63   80.02
   9  -5  10    3.50   94.86
   9  -5  10  136.73   56.31
  -9   6 -10  288.48  102.36
   9  -6  10  282.63   81.33
   9  -6  10  242.68  113.78
   9  -7  10  163.89   67.83
   8   9 -10   31.21   72.91
   9   9 -10    3.66   77.31
  10   8 -10  -30.93   49.48
  10   8 -10   91.77   80.01
 -10  -8  10  103.07   49.55
  10   7 -10  166.75   56.64
  10   7 -10  141.95   89.75
 -10  -7  10   70.70   95.84
 -10  -7  10  160.38   57.45
  10   6 -10   42.40   71.88
  10   6 -10   22.24   38.17
 -10  -6  10  -20.49   86.61
 -10  -6  10  -27.25   37.89
  10   5 -10  149.17   60.65
  10   5 -10  105.50   89.84
 -10  -5  10  245.22   63.43
 -10  -5  10  434.24  107.44
  10   4 -10  128.93   85.34
  10   4 -10  136.67   51.32
  10   4 -10  168.70   57.67
  10   4 -10  129.57   96.12
 -10  -4  10  220.24   72.02
 -10  -4  10  138.29   99.16
 -10  -4  10  192.97   57.57
 -10  -4  10  166.13   73.44
  10   3 -10  251.35   48.93
  10   3 -10  224.72  101.77
 -10  -3 -10  -15.78   84.76
 -10  -3  10  277.14   78.17
 -10  -3  10  -42.00   52.15
 -10  -3  10  114.66   78.25
  10   2 -10    8.24   28.92
  10   2 -10  -20.40   77.15
  10   2 -10   -7.21   75.91
 -10  -2 -10   34.63   68.29
  10   2 -10   34.73   37.58
 -10  -2  10  -49.91   98.70
 -10  -2  10  -29.23   61.98
  10   2  10  -57.63   54.03
  10   2  10    3.59   91.73
 -10  -2  10  -35.82   74.65
  10   1 -10  -55.71   79.64
 -10  -1 -10   -3.04   62.87
  10   1 -10   -6.47   33.43
  10   1 -10   26.31   43.29
  10   1 -10  -32.09   78.06
  10   1  10    3.21   48.81
 -10  -1  10   22.18   65.95
 -10  -1  10   -3.96  103.84
  10   1  10 -152.71  100.62
 -10  -1  10 -113.12   88.15
  10   0 -10  196.95   78.05
  10   0 -10  286.65   69.61
  10   0 -10  191.89  102.97
 -10   0 -10  215.85   95.35
  10   0 -10  206.05  113.46
  10   0  10  351.46   75.70
 -10   0  10  246.52   98.96
  10   0  10  191.08  128.65
 -10   0  10  232.25  142.89
  10  -1 -10   -8.44   40.05
 -10   1 -10   15.08   68.57
  10  -1 -10   16.82   54.08
  10  -1  10   -4.20  114.86
  10  -1  10  -80.19   45.89
 -10   2 -10  -29.07   81.77
 -10   2 -10  -12.20   82.97
  10  -2  10 -232.05  116.58
  10  -2  10    2.91   50.63
 -10   3 -10  -53.18   89.82
 -10   3 -10   41.96   83.35
  10  -3  10   88.03   56.02
  10  -3  10 -197.97  118.64
 -10   4 -10   82.28   91.15
 -10   4 -10  307.79  113.46
  10  -4  10  352.09   72.38
  10  -4  10   -3.82  112.07
 -10   5 -10  201.02  123.38
 -10   5 -10  280.30   98.85
  10  -5  10  223.45   75.70
  10  -5  10   61.64  112.31
 -10   6 -10   66.74   87.12
  10  -6  10 -220.31  105.58
  10  -6  10  -36.29   54.34
  10  -7  10  133.74   66.67
  10  -8  10   37.60   57.98
  11   9 -10 1004.67  271.79
  11   7 -10   35.04   86.91
  11   7 -10   17.48   46.43
 -11  -7  10  -62.10   93.74
 -11  -7  10  -18.17   43.80
  11   6 -10   82.52   78.78
  11   6 -10   -8.76   42.40
 -11  -6  10  103.15   96.59
 -11  -6  10   22.45   42.31
  11   5 -10   67.78   80.35
  11   5 -10   37.75   36.82
 -11  -5  10   38.05   41.60
 -11  -5  10  -50.62   93.08
  11   4 -10   21.30   76.93
  11   4 -10   16.16   36.18
 -11  -4  10   18.51   65.15
 -11  -4  10   27.05   62.51
 -11  -4  10   35.94   98.66
 -11  -4  10    8.82   40.28
  11   3 -10  -28.99   76.06
 -11  -3 -10   -4.24   82.46
  11   3 -10   17.98   43.73
  11   3 -10   10.94   33.32
  11   3 -10   41.45   92.35
 -11  -3  10   89.58  102.02
 -11  -3  10  -47.97   70.35
 -11  -3  10   38.15   42.57
  11   3  10  -67.86   62.54
 -11  -3  10   46.39   70.49
  11   3  10    3.91   95.72
  11   2 -10  -58.51   81.33
  11   2 -10  -29.21   85.74
  11   2 -10  -28.88   43.98
 -11  -2 -10   45.05   78.29
  11   2 -10   17.05   31.32
 -11  -2  10   70.11  111.14
  11   2  10    4.08  105.14
 -11  -2  10   10.93   69.99
 -11  -2  10   46.65   81.80
  11   2  10    3.87   60.16
  11   1 -10  331.39  101.94
 -11  -1 -10  447.68  129.19
  11   1 -10  456.14  143.93
  11   1 -10  441.99  109.99
  11   1 -10  510.27  140.19
 -11  -1  10  463.20  133.20
 -11  -1  10  553.55  151.31
  11   1  10  445.70  160.95
 -11  -1  10  286.12  171.71
  11   1  10  208.01  107.12
  11   0 -10  -16.61   56.13
  11   0 -10   43.52   36.83
  11   0 -10 -105.57   87.58
 -11   0 -10   62.24   78.96
  11   0  10 -152.24  128.13
 -11   0  10 -129.05  126.53
 -11   0  10   -9.06   78.74
  11   0  10 -184.15   54.06
  11  -1 -10  497.22  108.17
  11  -1 -10  390.07  117.57
 -11   1 -10  338.26  132.81
  11  -1  10  399.69  107.65
  11  -1  10  264.05  179.23
  11  -2 -10   -4.05   64.03
 -11   2 -10   -9.39   93.69
 -11   2 -10   14.64   91.64
  11  -2  10    3.29   60.90
  11  -2  10  353.46  140.54
 -11   3 -10   -7.84   97.73
 -11   3 -10    9.58   96.33
  11  -3  10   -4.42  118.03
  11  -3  10  113.39   61.87
 -11   4 -10   59.33  110.65
 -11   4 -10   39.39   93.07
  11  -4  10    4.27  114.03
  11  -4  10   48.81   58.24
 -11   5 -10  -35.42  110.74
 -11   5 -10   -5.23   96.61
  11  -5  10   14.59   64.90
  11  -5  10    4.25  110.94
 -11   6 -10   95.82   95.64
  11  -6  10   53.05  107.27
  11  -6  10   62.23   60.83
 -11   7 -10  157.64   92.70
  11  -7  10  -65.95   60.79
  12   9 -10 -153.14  101.74
 -12  -8  10    8.73   53.49
  12   7 -10   -3.72   42.58
  12   7 -10   32.73   93.15
 -12  -7  10   34.89  104.39
  12   6 -10 -113.61   93.87
  12   6 -10    3.17   44.06
 -12  -6  10   20.12   47.17
 -12  -6  10  124.47  106.01
  12   5 -10  -67.83   43.09
  12   5 -10   41.50   80.03
 -12  -5  10   34.12  104.14
 -12  -5  10    3.05   41.02
  12   4 -10  -60.50   83.71
  12   4 -10   95.99   39.11
 -12  -4  10  102.59  105.60
 -12  -4  10   -3.03   41.63
  12   3 -10   53.15   99.71
  12   3 -10  -15.54   86.08
  12   3 -10   45.59   33.65
  12   3 -10   86.85   49.31
 -12  -3  10   39.34   44.94
 -12  -3  10   39.39   78.58
 -12  -3  10 -106.45  111.03
 -12  -3  10   -3.80   75.35
  12   2 -10  154.14  101.07
  12   2 -10   86.51   62.14
  12   2 -10  157.83   48.52
  12   2 -10  155.29   96.21
 -12  -2  10  194.12   91.47
 -12  -2  10   71.65   54.88
 -12  -2  10  105.79  100.84
 -12  -2  10   67.52  130.43
 -12  -1 -10  -33.27   82.93
  12   1 -10  -67.68   96.09
  12   1 -10    3.33   55.44
 -12  -1  10   45.83  113.62
 -12  -1  10  -36.19   84.68
  12   1  10    3.89   60.31
 -12  -1  10   -9.44  131.28
 -12   0 -10  378.79  114.21
  12   0 -10  361.42  124.04
  12   0 -10  454.42   96.63
  12   0  10  219.67   88.14
 -12   0  10  248.29  118.69
  12   0  10   -5.19  130.21
 -12   1 -10  347.27  110.64
 -12   1 -10  125.83   96.65
  12  -2 -10   87.38   73.96
 -12   2 -10  371.55  111.32
 -12   2 -10  253.90  108.69
  12  -2  10   -3.69   69.99
 -12   3 -10  144.37  114.70
 -12   3 -10  348.40  106.98
  12  -3  10   -3.73   64.86
 -12   4 -10  -23.44  123.78
  12  -4  10   96.68   70.21
 -12   7 -10   26.39  102.83
  12  -8  10  -60.81   68.23
 -13  -9  10  -52.01  126.59
 -13  -8  10   72.50   55.18
 -13  -4 -10  500.83  113.61
  13   4  10 -252.25  134.09
 -13  -3 -10  274.59  110.86
  13   3  10  -68.23   82.32
 -13  -3  10   34.14   95.05
 -13  -3  10  -37.67   99.08
  13   3  10   -4.91  141.45
  13   2 -10 -165.62  105.76
  13   2 -10    6.71   55.78
 -13  -2 -10  -83.10  100.44
  13   2  10 -134.31  138.00
 -13  -2  10  -74.22  105.50
  13   2  10   35.45   70.29
 -13  -2  10   41.35   90.10
 -13  -1 -10  456.85   96.53
  13   1 -10  172.60  106.40
  13   1 -10   22.17   67.97
 -13  -1  10  -79.79   99.12
 -13  -1  10  101.25  125.54
  13   1  10  278.81   73.47
  13   1  10    5.52  146.17
  13   0 -10    4.32  103.61
  13   0 -10   45.46   66.31
 -13   0  10  -75.59   94.85
  13   0  10   -4.08   58.72
 -13   0  10   -5.27  139.52
  13   0  10    5.78  164.24
 -13   1 -10   47.13  119.90
  13  -1 -10 -217.55   75.72
 -13   1  10  104.49   95.42
  13  -1  10   52.76  171.03
  13  -2 -10   95.20   74.78
 -13   2 -10    6.11  126.17
 -13   3 -10  -75.04  154.43
 -13   3 -10  923.05  156.14
  13  -3  10  482.31  111.21
 -13   4 -10   38.39  124.56
 -13   4 -10   30.57  134.59
  13  -4  10    5.29  148.33
  13  -4  10 -135.77   77.18
 -13   5 -10   74.15  139.21
 -13   5 -10  -32.99  118.83
  13  -5  10 -210.45   80.49
  13  -5  10    5.21  137.10
 -13   6 -10  -48.45  119.53
 -13   6 -10  255.66  142.49
  13  -6  10    8.90   77.38
  13  -6  10    5.28  125.71
 -13   7 -10   79.49  118.96
  13  -7  10  149.52   78.67
  13  -8  10   26.51   71.00
 -14  -4 -10 -159.19  109.67
  14   4  10    5.37  139.16
 -14  -3 -10   10.69  110.85
  14   3  10    5.55  140.26
  14   3  10    5.27   74.49
  14   2 -10  -72.21   62.27
 -14  -2 -10   82.07  107.90
  14   2  10   33.94   76.19
  14   2  10   -5.83  155.42
 -14  -2  10 -210.47  121.33
 -14  -1 -10  -82.61  107.83
 -14  -1  10    5.11  139.79
  14   1  10   94.91   71.79
  14   1  10    6.17  168.89
 -14   0 -10   60.07  115.94
 -14   0 -10    6.41  133.19
  14   0  10    4.54   73.65
  14   0  10  223.26  182.80
 -14   1 -10   81.41  120.20
 -14   1 -10   79.82  141.51
  14  -1  10 -548.44  187.38
  14  -1  10    4.48   73.16
 -14   2 -10  224.54  137.61
  14  -2 -10  230.88   84.81
 -14   2 -10  150.85  135.74
  14  -2  10    4.65   84.79
  14  -2  10 -412.10  191.70
 -14   3 -10   53.02  140.80
 -14   3 -10    7.05  141.21
  14  -3  10   -4.63   75.79
  14  -3  10   12.15  171.79
 -14   4 -10   28.90  142.11
 -14   4 -10  117.40  144.38
  14  -4  10  -56.40   83.63
  14  -4  10    5.85  156.88
 -14   5 -10   -5.71  156.47
 -14   5 -10   59.32  134.46
  14  -5  10   28.63   84.37
  14  -5  10   -5.78  145.36
 -14   6 -10  173.89  155.21
 -14   6 -10   92.62  146.58
  14  -6  10   46.39  140.93
  14  -6  10   82.10   88.42
 -14   7 -10   17.31  146.44
 -14   7 -10  103.57  125.86
  14  -7  10  -77.81   76.07
  14  -8  10  -62.59   79.74
 -15  -4 -10 -235.16  126.33
  15   4  10  -89.95  157.73
 -15  -3 -10  -99.73  126.40
  15   3  10    6.24  158.37
  15   3  10  -40.10   84.01
 -15  -2 -10 -160.70  113.24
  15   2  10  110.94  175.42
 -15  -2  10  430.54  120.28
 -15  -2  10   90.39  109.01
  15   2  10   -5.34   79.16
 -15  -1 -10   35.85  110.62
  15   1 -10   -9.05   77.30
  15   1 -10    4.89  121.44
 -15  -1  10  -89.44  147.01
  15   1  10    6.83  191.85
 -15  -1  10 -319.95  117.08
  15   1  10    5.26   77.79
  15   0 -10   10.16  122.37
 -15   0 -10   -5.17  123.15
  15   0 -10    5.00   84.40
 -15   0 -10  -28.36  147.14
 -15   0  10  138.83  167.99
  15   0  10    7.00  195.47
  15   0  10   -5.06   82.72
 -15   0  10  213.38  117.20
 -15   1 -10   96.25  127.35
  15  -1 -10  -16.18   94.25
 -15   1 -10  -44.33  153.13
 -15   1  10  190.31  184.56
  15  -1  10 -142.36   86.61
 -15   1  10 -143.50  115.71
  15  -1  10   14.25  204.45
  15  -2 -10   11.22   93.26
 -15   2 -10 -161.91  142.62
 -15   2 -10 -226.17  163.82
  15  -2  10   -6.91  189.28
  15  -2  10  174.77   91.37
 -15   3 -10  280.45  146.86
 -15   3 -10    8.06  152.84
  15  -3  10    6.71  181.42
  15  -3  10  -78.24   91.64
 -15   4 -10  -42.04  153.15
 -15   4 -10  -48.85  151.76
  15  -4  10    6.48  160.02
  15  -4  10   41.29   89.80
 -15   5 -10    8.34  151.15
 -15   5 -10  391.08  158.26
  15  -5  10   72.73   90.31
  15  -5  10 -436.14  165.10
 -15   6 -10   25.01  158.56
 -15   6 -10   51.79  156.98
  15  -6  10   -6.39  154.63
  15  -6  10   15.80   91.61
 -15   7 -10 -249.38  156.58
 -15   7 -10  -35.33  152.61
  15  -7  10  169.87   91.08
 -15   8 -10  267.24  165.07
  15  -8  10   15.84   90.88
 -16  -4 -10    6.78  132.53
  16   4  10 -268.23  181.24
 -16  -3 -10   19.41  135.97
  16   3  10    6.99  183.18
  16   3  10   50.20   96.65
 -16  -2 -10 -297.92  143.38
  16   2  10 -329.92  104.29
  16   2  10 -522.85  206.75
 -16  -1 -10  237.30  144.55
  16   1 -10  100.81   87.43
 -16  -1 -10   67.53  160.27
  16   1  10 -540.49  214.34
 -16  -1  10  200.29  159.41
 -16  -1  10 -212.33  126.05
  16   1  10    5.83   98.61
 -16   0 -10  728.01  180.54
 -16   0 -10  109.28  191.76
  16   0  10  284.86  245.87
 -16   0  10  102.60  223.32
 -16   1 -10   53.34  143.29
  16  -1 -10   -5.92  102.10
 -16   1 -10  108.67  170.16
 -16   1  10   -7.38  198.08
  16  -1  10 -838.90  220.16
 -16   1  10  -81.57  132.50
  16  -1  10   16.92   92.69
  16  -2 -10  -49.05  116.45
 -16   2 -10 -351.85  166.80
 -16   2 -10  -35.27  181.02
  16  -2  10 -279.73  215.29
  16  -2  10  -62.26  104.78
 -16   3 -10   90.32  175.66
 -16   3 -10  268.01  161.08
  16  -3  10  115.19   93.89
  16  -3  10    7.40  199.29
 -16   4 -10  223.46  175.07
 -16   4 -10  393.00  168.93
  16  -4  10   -7.17  184.39
  16  -4  10  -11.45   94.93
 -16   5 -10   95.21  174.26
 -16   5 -10  279.75  181.28
  16  -5  10   14.22  186.54
  16  -5  10   95.67   95.30
 -16   6 -10   33.50  174.27
 -16   6 -10  183.97  177.84
  16  -6  10  364.87  101.35
  16  -6  10 -261.42  177.08
 -16   7 -10   19.67  165.36
 -16   7 -10 -188.12  174.02
  16  -7  10 -171.90   98.77
 -17  -4 -10   37.32  151.83
 -17  -3 -10  -14.39  151.68
  17   3  10  -82.92  100.57
  17   3  10 -210.32  212.83
 -17  -2 -10    6.66  145.48
  17   2  10    8.01  214.82
  17   2  10    6.53  104.28
 -17  -1 -10 -142.31  143.23
 -17  -1 -10  239.88  177.01
 -17  -1  10  -14.60  130.96
  17   1  10  279.18  234.46
 -17  -1  10  180.43  175.63
  17   1  10   -6.48   99.61
  17   0 -10 -161.41  140.95
  17   0 -10   -5.96  100.31
 -17   0 -10   38.69  148.67
 -17   0 -10 -174.69  184.49
 -17   0  10 -108.01  137.73
  17   0  10   -8.45  231.55
 -17   0  10 -154.93  195.68
  17   0  10  -32.28  104.49
 -17   1 -10   92.07  156.47
 -17   1 -10 -263.94  189.37
  17  -1 -10   12.83  107.31
 -17   1  10  -56.42  137.44
  17  -1  10   -6.23  102.70
  17  -1  10   -8.41  230.46
 -17   1  10   71.79  209.62
 -17   2 -10 -101.06  160.76
  17  -2 -10    6.75  111.03
 -17   2 -10  147.00  199.66
  17  -2  10 -113.46  103.40
 -17   2  10 -198.84  228.29
  17  -2  10  124.08  213.91
 -17   3 -10  209.69  176.94
 -17   3 -10 -286.89  195.70
  17  -3  10    6.41  106.46
  17  -3  10    8.13  215.81
 -17   4 -10 -219.65  199.90
 -17   4 -10  162.12  171.35
  17  -4  10    7.93  204.79
  17  -4  10   12.52  106.60
 -17   5 -10   42.87  191.80
 -17   5 -10 -312.72  199.07
  17  -5  10 -260.67  115.88
  17  -5  10 -354.62  211.89
 -17   6 -10   43.50  271.33
 -17   6 -10  243.56  266.13
 -17   7 -10 -129.64  192.58
 -17   7 -10   87.96  190.72
  17  -7  10 -365.47  114.39
 -18  -4 -10  -16.56  174.04
 -18  -2 -10 1529.95  393.67
 -18  -2 -10  688.03  383.92
  18   2  10 1613.72  325.55
 -18  -1 -10  195.38  187.53
 -18  -1 -10 -100.01  199.60
  18   1  10   -9.01  291.22
  18   1  10  489.29  141.77
  18   0 -10 -500.65  173.72
 -18   0 -10 -326.39  179.94
 -18   0 -10 -167.24  209.56
  18   0 -10  131.16  115.13
 -18   0  10  144.76  220.03
 -18   0  10 -168.89  156.60
  18   0  10    7.17  115.21
 -18   1 -10 -353.99  231.88
 -18   1 -10  335.39  194.09
  18  -1 -10   55.65  133.16
 -18   1  10  -78.99  166.73
  18  -1  10 1135.77  304.99
  18  -1  10  898.58  145.82
 -18   1  10  -60.01  237.59
 -18   2 -10 1913.36  376.26
  18  -2 -10  146.49  312.60
 -18   2 -10  541.65  393.81
 -18   2  10   -8.94  426.72
  18  -2  10 1121.64  293.28
 -18   3 -10  -11.43  229.88
  18  -3  10 -182.38  122.17
 -18   4 -10 -137.32  186.76
 -18   4 -10   82.88  219.48
  18  -4  10   -6.99  114.44
  18  -4  10  122.84  223.26
 -18   5 -10 -131.05  198.62
 -18   5 -10   60.24  219.29
  18  -5  10   17.46  229.78
  18  -5  10   -6.86  114.48
 -18   6 -10   54.37  200.96
 -18   6 -10  -61.42  218.23
  18  -6  10    8.68  214.04
  18  -6  10 -249.96  113.60
 -18   7 -10  -93.52  201.40
 -18   7 -10  172.56  213.94
  18  -7  10  195.24  119.78
 -19  -4 -10 -239.76  198.92
 -19  -3 -10  296.91  205.59
  19   3  10    8.51  128.96
  19   3  10   -9.46  223.68
 -19  -2 -10 -103.39  191.83
 -19  -2 -10    9.63  202.03
  19   2  10    9.68  262.21
  19   2  10 -107.97  127.55
 -19  -1 -10  213.44  210.88
 -19  -1 -10   24.32  177.29
  19   1  10    9.88  259.66
  19   1  10 -272.03  127.03
 -19   0 -10   65.20  222.09
 -19   0 -10  622.41  198.60
  19   0  10    7.95  127.60
  19   0  10   29.73  276.35
 -19   0  10    9.25  162.01
 -19   1 -10 -161.52  192.95
  19  -1 -10  -83.00  128.37
 -19   1 -10  -70.04  236.46
  19  -1  10    9.88  267.03
 -19   1  10  -64.20  235.30
  19  -1  10   54.89  130.51
 -19   2 -10  257.70  245.57
 -19   2 -10 -244.60  201.79
  19  -2  10  155.57  123.21
  19  -2  10  355.61  281.55
 -19   3 -10  247.32  201.44
 -19   3 -10   38.79  252.01
  19  -3  10   19.48  248.71
  19  -3  10 -248.55  133.08
 -19   4 -10 -158.86  254.24
 -19   4 -10 -415.36  215.82
  19  -4  10 -176.18  131.23
 -19   5 -10  -33.05  206.24
  19  -5  10 -396.45  138.49
  20  -1 -10  189.87  136.66
 -20   1  10 -224.47  243.91
   1   0 -11 3799.18  924.18
   1   1 -11   25.22   22.70
   1   1 -11  107.06   43.05
  -1  -1  11  122.91   50.16
   2   1 -11  558.83  168.69
   2   1 -11  712.17  150.46
  -2  -1  11  427.78  181.47
   1  -2  11  681.22  169.57
   0   2 -11   10.51   18.29
   2   0 -11  -11.72   27.92
   2   0 -11   -5.95   50.68
  -2   0 -11   58.05   24.70
  -2   0  11   -2.65   54.99
   1   2 -11  656.86  165.60
   1   2 -11  547.23  148.88
  -2   1 -11  761.81  182.25
  -2   1 -11  788.42  161.95
   2  -1  11  668.16  184.64
   2  -1  11  562.16  180.18
  -1  -2  11  410.04  174.49
   2   2 -11   34.24   40.29
   2   2 -11   -2.97   20.10
  -2   2 -11    3.48   19.90
  -2   2 -11   17.65   34.13
   2  -2  11   -0.96   17.09
   2  -2  11    0.94   31.32
  -2  -2  11   18.19   43.16
   2  -2  11  -26.14   40.89
  -2   3 -11  131.74   39.42
   3   2 -11  157.51   54.46
  -2   3 -11  102.23   41.13
   3   2 -11  105.74   32.01
   2  -3  11   98.93   49.22
  -3  -2  11  162.65   59.60
   2  -3  11  126.31   35.82
   3   1 -11   -2.61   41.36
  -1   3 -11   28.02   18.44
  -1   3 -11   12.91   16.96
  -1   3 -11   18.52   14.33
  -3  -1  11  -32.71   53.35
   1  -3  11   11.60   24.61
   1  -3  11    7.09   11.94
   0   3 -11  130.86   49.39
   0   3 -11  165.67   36.95
   3   0 -11  169.26   59.84
  -3   0 -11  123.80   43.76
  -3   0  11  146.87   70.27
   0  -3  11   42.62   50.60
   3   0  11  162.32   48.52
   1   3 -11   26.37   35.61
   1   3 -11    6.73   17.27
  -3   1 -11   17.78   17.74
  -3   1 -11   11.61   43.69
  -3   1 -11    1.31   25.50
   3  -1  11  -12.50   21.72
   3  -1  11   17.21   38.66
  -1  -3  11    3.06   37.45
   3  -1  11   93.40   46.65
  -3   2 -11  202.77   46.85
   2   3 -11  112.82   40.25
   2   3 -11  160.58   54.00
  -3   2 -11  149.88   54.74
  -3   2 -11  166.84   40.34
   3  -2  11  187.46   58.00
   3  -2  11  156.98   41.85
   3  -2  11  258.22   57.90
  -2  -3  11   77.46   55.75
   3   3 -11   -6.23    8.93
  -3   3 -11   -5.00   26.63
  -3   3 -11    1.98   26.62
   3   3 -11   32.26   39.97
  -3   3 -11  -29.25   31.86
   3  -3  11  -14.75   18.47
   3  -3  11    2.67   45.67
   3  -3  11   -1.22   12.90
  -3  -3  11  -16.02   44.68
   3  -3  11    2.34   34.80
  -3  -3  11   -3.68   11.10
  -3   4 -11   16.69   35.44
   4   3 -11   23.96   26.40
  -3   4 -11   53.33   35.73
   4   3 -11   48.28   45.84
   4   3 -11   30.36   22.80
   4   3 -11   21.99   18.32
   3  -4  11   74.82   46.68
  -4  -3  11   46.92   50.33
  -4  -3  11   61.78   24.66
   3  -4  11   19.79   21.51
  -4  -3  11   33.43   22.81
  -2   4 -11  968.28  193.80
   4   2 -11  858.22  204.93
  -2   4 -11  679.36  221.86
  -2   4 -11  771.21  221.54
   4   2 -11  685.68  182.82
   4   2 -11  937.87  182.04
  -4  -2  11  551.50  219.38
  -1   4 -11   72.91   34.85
  -1   4 -11   17.58   19.60
   4   1 -11   30.48   49.13
   4   1 -11   22.99   23.63
  -1   4 -11   24.75   17.36
   1  -4  11    1.91   12.14
   1  -4  11   19.98   18.09
  -4  -1  11    5.06   61.05
   1  -4  11    9.20   34.93
   4   0 -11   22.53   50.55
   0   4 -11   27.13   17.59
   4   0 -11  -14.27   29.75
  -4   0 -11    3.43   22.92
   0   4 -11   -9.00   33.58
   0  -4  11  -16.37   19.67
   0  -4  11    5.61   37.04
  -4   0  11   11.77   61.19
   1   4 -11   52.38   39.20
  -4   1 -11   62.45   30.80
   1   4 -11   22.83   19.32
  -4   1 -11   23.84   18.66
   4  -1  11   27.99   24.36
  -1  -4  11   14.01   19.93
  -1  -4  11   14.98   37.77
   4  -1  11   -1.92   48.33
  -4   2 -11  658.32  201.55
  -4   2 -11  904.42  228.28
   2   4 -11  812.20  209.65
   2   4 -11  883.66  187.94
  -2  -4  11  651.33  217.91
  -2  -4  11  797.46  187.85
   4  -2  11 1043.24  231.95
   3   4 -11   81.77   45.56
   3   4 -11   23.79   19.59
  -4   3 -11   41.15   34.49
  -4   3 -11   38.25   17.27
  -4   3 -11   64.24   35.14
   4  -3  11   27.55   18.03
  -3  -4  11   69.38   45.70
   4  -3  11   62.76   36.23
  -3  -4  11   19.32   16.07
   4  -3  11   28.61   23.67
  -4  -4  11  216.76   60.94
   5   4 -11  -10.12   22.56
   5   4 -11  -57.14   39.33
   5   4 -11   30.48   48.71
  -4   5 -11   -6.74   22.08
   5   4 -11   13.78   22.85
  -5  -4  11   49.32   28.30
  -5  -4  11    3.18   28.35
  -5  -4  11    7.88   26.45
  -5  -4  11    2.04   51.48
   4  -5  11  -14.19   20.16
  -3   5 -11  598.42  145.99
   5   3 -11  898.36  133.32
   5   3 -11  598.43  150.80
  -3   5 -11  678.51  153.24
   5   3 -11  697.93  142.50
   5   3 -11  533.57  165.01
  -5  -3  11  582.96  164.13
   3  -5  11  325.48  146.02
  -5  -3  11  498.65  159.24
   3  -5  11  611.14  138.35
  -5  -3  11  538.48  148.40
   5   2 -11   26.06   24.22
   5   2 -11   46.86   17.70
  -2   5 -11  -45.78   37.11
  -2   5 -11   -7.97   22.69
   5   2 -11  100.13   52.01
   2  -5  11  -60.63   21.69
  -5  -2  11   23.02   60.08
   2  -5  11   22.24   18.67
  -1   5 -11  172.83   58.39
   5   1 -11  162.52   78.47
   5   1 -11  262.24   59.01
  -1   5 -11  201.17   67.59
   5   1 -11  237.11   60.71
   1  -5  11  235.44   55.88
   5   1  11  210.05   71.22
   1  -5  11  248.37   60.26
  -5  -1  11  295.43   91.62
   0   5 -11    3.19   20.98
   5   0 -11   39.20   32.25
  -5   0 -11    7.80   23.09
   0   5 -11   -3.66   36.81
  -5   0 -11   21.51   38.09
   5   0 -11   27.13   57.20
   0  -5  11   12.11   21.36
   5   0  11   47.73   30.93
   5   0  11   83.45   50.40
  -5   0  11  -37.86   68.79
  -5   1 -11  193.55   62.96
   1   5 -11  258.08   58.52
   1   5 -11  291.75   70.34
  -5   1 -11  259.98   70.03
   5  -1  11  240.58   60.93
  -1  -5  11  147.76   58.05
   5  -1  11  360.51   83.96
   2   5 -11   30.61   23.09
  -5   2 -11  -23.82   35.13
   2   5 -11   42.93   40.50
  -5   2 -11 -124.25   59.82
  -5   2 -11    1.53   17.11
  -2  -5  11    9.79   23.12
   5  -2  11 -162.36   78.02
  -5   3 -11  410.35  141.83
  -5   3 -11  687.93  127.19
   3   5 -11  722.02  135.31
  -5   3 -11  640.35  128.40
   5  -3  11  353.69  121.24
   5  -3  11  170.11  159.16
   5  -3  11  211.15  147.16
  -5   4 -11    3.86   18.66
   4   5 -11   -5.44   22.05
  -5   4 -11  -18.03   41.81
  -5   4 -11  -28.64   33.31
   4   5 -11   16.87   47.89
  -5   4 -11  229.81   49.92
   5  -4  11   34.43   32.88
   5  -4  11   58.03   58.95
   5  -4  11    9.48   16.18
  -4  -5  11  -17.57   27.85
  -5   5 -11  -14.32   47.99
   5   5 -11   -2.57   52.13
   5   5 -11   -1.90   25.59
   5  -5  11   16.85   62.39
  -5  -5  11   -2.09   53.23
  -5  -5  11   27.88   28.25
   5  -5  11   47.34   30.19
   6   5 -11  229.60   59.72
   6   5 -11  175.42   80.12
  -5   6 -11  358.76   73.62
  -6  -5  11  137.79   61.17
   5  -6  11  224.39   67.63
  -6  -5  11   90.21   88.05
   6   4 -11 2023.51  530.37
  -4   6 -11 2115.63  554.03
   6   4 -11 2145.40  549.45
   6   4 -11 1750.28  594.49
   6   4 -11 2120.10  473.11
  -6  -4  11 1872.85  527.35
  -6  -4  11 2442.24  482.33
  -6  -4  11 2231.54  551.83
  -6  -4  11 2170.23  565.13
   6   3 -11   37.59   52.14
   6   3 -11    4.72   21.77
   6   3 -11  -14.28   25.15
   6   3 -11   -3.07   44.73
  -3   6 -11    8.42   34.68
  -6  -3  11  -21.65   38.17
   3  -6  11   25.29   25.71
   3  -6  11    5.95   22.05
  -6  -3  11   28.25   61.02
  -6  -3  11   41.81   33.52
   6   2 -11 3742.47  728.38
  -2   6 -11 3084.89  828.99
   6   2 -11 2623.62  901.59
   6   2 -11 2873.40  740.59
   6   2 -11 3618.92  817.06
  -6  -2  11 2988.51  905.37
  -6  -2  11 3242.72  890.72
  -6  -2  11 2848.98  844.05
  -1   6 -11  278.16   72.56
  -1   6 -11  312.09   78.45
   6   1 -11  341.74   92.02
   6   1 -11  272.17   70.66
   6   1 -11  270.79   68.93
  -6  -1 -11  155.01   87.01
  -6  -1  11  332.29  107.36
   1  -6  11  221.88   68.76
   6   1  11  289.88   87.08
  -6   0 -11   -2.03   40.75
   0   6 -11  -11.53   37.26
   6   0 -11   -2.46   28.93
  -6   0 -11  -26.87   23.83
   6   0 -11    3.59   65.27
   0   6 -11  -16.26   24.29
   0  -6  11    9.95   23.91
  -6   0  11    6.82   76.33
   6   0  11  -28.40   34.46
   6   0  11  -41.47   62.01
  -6   1 -11  301.22   71.76
   1   6 -11  241.90   69.55
  -6   1 -11  258.91   80.03
   1   6 -11  248.25   78.74
   6  -1  11  226.10   98.34
   6  -1  11  232.24   70.51
  -1  -6  11  325.98   66.89
  -6   2 -11 3486.06  877.56
   2   6 -11 3835.90  842.51
  -6   2 -11 4124.91  998.85
  -6   2 -11 3005.35  849.88
   2   6 -11 3614.70  801.82
   6  -2  11 3913.24  919.89
  -2  -6  11 3513.28  785.05
   6  -2  11 3244.81  797.91
   6  -2  11 3447.53  815.10
   6  -2  11 3555.40  998.32
  -6   3 -11  -42.91   46.19
  -6   3 -11  -11.24   45.22
   3   6 -11   13.57   42.54
   3   6 -11   14.32   24.80
  -6   3 -11   23.09   14.80
  -6   3 -11   27.86   35.18
  -3  -6  11    2.18   24.81
   6  -3  11   17.29   13.38
   6  -3  11  -34.15   37.67
   6  -3  11   -4.73   69.48
   6  -3  11  -20.06   28.65
   4   6 -11 2254.18  505.82
  -6   4 -11 1982.94  585.74
  -6   4 -11 1875.61  496.97
   4   6 -11 2202.34  470.06
  -6   4 -11 1921.35  545.93
   6  -4  11 1805.84  524.87
   6  -4  11 1870.13  506.04
  -4  -6  11 2176.59  464.48
   5   6 -11  143.83   82.03
  -6   5 -11  307.41   88.90
   5   6 -11  363.32   68.33
  -6   5 -11  301.56   78.68
   6  -5  11  246.59   75.33
  -5  -6  11  269.81   68.85
   6  -5  11  265.83   99.01
   6   6 -11    2.30   32.04
   6   6 -11  -16.67   57.43
  -6  -6  11  -10.05   30.62
   6  -6  11  -10.57   36.40
   7   6 -11   33.66   32.07
   7   6 -11  -15.27   63.01
   6  -7  11  -31.31   37.37
  -7  -6  11    5.30   34.65
   7   5 -11  -33.59   25.47
   7   5 -11  -14.94   61.34
  -5   7 -11    1.70   36.71
   5  -7  11   63.17   34.08
  -7  -5  11  -18.26   31.22
  -7  -5  11   63.95   68.23
   7   4 -11   96.04   42.07
  -4   7 -11  167.64   51.69
   7   4 -11  112.87   68.48
  -7  -4  11  145.42   45.54
   4  -7  11  144.52   45.78
  -7  -4  11  121.40   74.95
  -3   7 -11  673.21  171.66
   7   3 -11  683.43  149.48
   7   3 -11  537.54  174.89
  -7  -3  11  629.56  193.08
   7   2 -11  141.95   76.74
  -2   7 -11  239.20   63.85
   7   2 -11  149.13   52.81
  -7  -2  11  145.58   93.00
   7   2  11  310.81   76.86
  -7  -2  11  182.66   69.94
   7   1 -11  459.34   76.18
  -7  -1 -11  260.95   94.60
   7   1 -11  195.27   74.29
   7   1 -11  333.18   99.46
  -1   7 -11  253.42   83.03
  -7  -1  11  327.34   91.45
   7   1  11  325.47   99.33
  -7  -1  11  328.99  117.17
   1  -7  11  291.66   76.44
   7   1  11  275.30   81.74
  -7   0 -11  800.18  267.46
   7   0 -11 1159.11  275.37
   0   7 -11 1144.25  255.73
   7   0  11 1084.81  285.73
   7   0  11  899.22  239.32
  -7   0  11  961.97  313.42
   1   7 -11  197.16   73.00
  -7   1 -11  295.27   81.26
   7  -1 -11  213.79   76.75
   1   7 -11  215.40   78.74
  -1  -7  11  293.15   68.46
   7  -1  11  207.12  107.17
   7  -1  11  217.35   68.45
   2   7 -11  170.63   55.48
   2   7 -11  138.60   63.13
  -7   2 -11  180.03   70.05
   7  -2  11  223.98   55.06
  -2  -7  11  204.62   53.18
   7  -2  11  138.68   94.37
  -7   3 -11  656.80  160.75
   3   7 -11  555.11  159.81
  -7   3 -11  433.35  180.20
   3   7 -11  652.85  152.65
  -3  -7  11  659.21  147.35
   7  -3  11  575.12  152.57
   7  -3  11  544.96  181.96
  -7   4 -11  100.89   77.88
  -7   4 -11   82.20   63.90
   4   7 -11  108.96   59.71
   7  -4  11  184.97   51.38
   7  -4  11  239.51   82.21
   5   7 -11    5.30   30.47
  -7   5 -11   27.01   60.22
   5   7 -11   18.63   53.91
  -5  -7  11   29.67   31.18
   7  -5  11   43.31   76.75
   7  -5  11  -22.80   39.93
  -7   6 -11   12.02   61.93
   6   7 -11  -38.47   33.49
   6   7 -11   31.23   56.91
   7  -6  11  -33.50   43.29
  -6  -7  11   53.62   33.70
   7   7 -11   12.22   63.41
   7   7 -11  -11.43   39.64
   7  -7  11  -57.13   43.05
  -7  -7  11    2.96   37.93
   8   7 -11   38.81   38.86
   8   7 -11   85.86   68.67
   7  -8  11   49.88   46.08
  -8  -7  11   65.32   43.74
   8   6 -11    2.52   35.84
   8   6 -11  -49.57   75.06
  -8  -6  11   22.37   34.58
  -8  -6  11   -2.70   73.93
   8   5 -11  605.97  155.33
   8   5 -11  713.92  183.90
  -8  -5  11  687.09  159.80
  -8  -5  11  768.44  196.20
   8   4 -11   39.18   31.92
   8   4 -11   58.71   66.30
  -8  -4  11   29.81   46.23
  -8  -4  11   32.61   76.43
  -8  -4  11   89.41   37.92
  -8  -4  11   44.16   44.82
   8   3 -11  280.54  157.42
   8   3 -11  549.92  168.65
   8   3 -11  576.11  131.01
   8   3 -11  567.32  129.87
  -8  -3  11  514.02  175.82
  -8  -3  11  488.47  155.53
  -8  -3  11  608.26  146.86
   8   2 -11  397.92  105.80
   8   2 -11  523.05  133.92
   8   2 -11  348.30  139.46
   8   2 -11  440.39  105.82
  -8  -2 -11  296.95  134.26
  -8  -2  11  476.61  153.55
   8   2  11  542.20  131.46
  -8  -2  11  292.86  130.03
  -8  -2  11  415.72  133.54
   8   1 -11  234.09  108.38
   8   1 -11  319.87   85.82
   8   1 -11  362.93  114.05
   8   1 -11  413.00   83.65
  -8  -1 -11  318.44  103.47
  -8  -1  11  312.13  133.62
   8   1  11  324.38   88.73
   8   1  11  449.10  113.66
  -8  -1  11  276.16  106.02
   8   0 -11   49.69   39.52
   0   8 -11   16.15   44.42
   8   0 -11   -5.09   35.01
   8   0 -11  -40.92   75.91
  -8   0 -11   43.13   52.51
   8   0  11    3.10   79.82
  -8   0  11   28.32   94.88
   8   0  11  -13.00   41.48
   1   8 -11  244.05   87.59
  -8   1 -11  262.75   93.75
   8  -1 -11  239.54   86.70
   8  -1 -11  461.80   91.67
   8  -1  11  368.46  122.81
  -1  -8  11  300.80   81.30
   8  -1  11  230.08   79.89
  -8   2 -11  493.15  139.24
   2   8 -11  408.45  126.77
  -2  -8  11  605.58  120.49
   8  -2  11  418.94  118.77
   8  -2  11  631.55  156.92
  -8   3 -11  545.46  155.79
   3   8 -11  640.71  146.71
   3   8 -11  714.93  149.25
  -8   3 -11  427.45  170.85
   8  -3  11  651.85  176.87
   8  -3  11  507.16  143.99
  -3  -8  11  520.67  142.33
  -8   4 -11   53.90   61.50
  -8   4 -11   53.62   75.62
   4   8 -11   73.10   56.12
   8  -4  11    2.44   42.31
   8  -4  11   39.63   80.69
   5   8 -11  488.46  155.64
  -8   5 -11  618.59  196.32
  -8   5 -11  521.41  162.22
   5   8 -11  563.46  148.90
  -5  -8  11  618.33  144.40
   8  -5  11  421.02  170.82
   8  -5  11  605.75  157.22
   6   8 -11    3.02   63.34
  -8   6 -11   21.58   73.20
   6   8 -11   36.27   42.85
   8  -6  11   27.95   86.75
  -6  -8  11   16.39   38.46
   8  -6  11   85.79   47.79
   7   8 -11  102.48   67.30
   7   8 -11   37.55   48.93
   8  -7  11   60.58   49.34
  -7  -8  11  109.36   47.28
   8   8 -11    3.55   46.10
   8   8 -11 -274.25   74.30
  -8  -8  11  -32.19   46.06
   8  -8  11    2.86   49.23
   9   8 -11  -33.30   46.24
   9   8 -11    3.63   79.18
  -9  -8  11   78.83   46.24
   9   7 -11  318.60   90.41
   9   7 -11  168.90   56.05
  -9  -7  11   81.75   56.68
   9   6 -11  -24.76   77.70
   9   6 -11  -31.76   39.62
  -9  -6  11    5.82   79.10
  -9  -6  11  -41.34   41.78
   9   5 -11  146.67  101.29
   9   5 -11  289.82   69.87
  -9  -5  11  272.90  114.57
  -9  -5  11  170.70   73.95
   9   4 -11  333.36  145.49
   9   4 -11  515.54  115.52
  -9  -4  11  465.81  121.73
  -9  -4  11  428.64  165.11
   9   3 -11  -20.67   30.21
   9   3 -11  -27.34   70.88
   9   3 -11    1.91   31.99
   9   3 -11   51.14   71.77
  -9  -3  11  -12.43   85.98
  -9  -3  11  -43.86   55.97
  -9  -3  11    5.81   39.10
  -9  -3  11   15.89   53.11
   9   2 -11  229.18   77.34
   9   2 -11  253.38  111.86
  -9  -2 -11  293.34  107.05
   9   2 -11  304.66   78.87
   9   2 -11  327.31  111.40
  -9  -2  11  313.85  101.66
  -9  -2  11  303.98  104.13
   9   2  11  394.94   89.50
  -9  -2  11  382.98  130.12
   9   2  11  143.92  110.14
   9   1 -11   15.88   31.63
   9   1 -11  -13.97   66.89
   9   1 -11   32.08   73.21
   9   1 -11   -2.30   37.57
  -9  -1 -11   58.89   59.77
   9   1  11   55.48   47.54
   9   1  11   60.79   85.89
  -9  -1  11   24.25   61.89
  -9  -1  11   61.99  102.08
  -9   0 -11   72.14   59.90
   9   0 -11   21.92   84.22
   9   0 -11   21.62   43.26
   9   0 -11   72.08   35.42
   9   0  11   -2.79   45.41
   9   0  11   50.15   94.54
  -9   0  11   57.39  110.84
  -9   1 -11   42.13   59.02
   9  -1 -11  -38.53   51.22
   9  -1 -11   27.56   41.31
   9  -1  11   83.18   46.09
   9  -1  11   60.09  105.50
  -9   2 -11  354.73  110.51
  -9   2 -11  440.15  113.64
   9  -2  11  432.39  136.92
   9  -2  11  280.29   90.91
  -9   3 -11  -27.24   73.47
  -9   3 -11   55.12   70.84
   9  -3  11    7.19   99.72
   9  -3  11   10.41   43.40
  -9   4 -11  331.94  175.85
  -9   4 -11  701.85  153.61
   9  -4  11  610.49  143.98
   9  -4  11  581.12  166.25
  -9   5 -11  205.83  134.48
   5   9 -11  375.68  102.27
  -9   5 -11  276.57  108.92
   9  -5  11  638.96  122.92
   9  -5  11  329.14   97.71
   6   9 -11    3.24   64.42
  -9   6 -11  -28.05   81.63
   9  -6  11  -23.95   52.22
  -6  -9  11   19.09   43.90
   9  -6  11   11.24   94.35
   7   9 -11    6.80   76.73
  -7  -9  11    3.97   57.96
   9  -7  11  192.02   58.21
   8   9 -11  -75.64   75.60
   9  -8  11   31.14   53.87
 -10  -9  11    4.52   56.61
  10   8 -11   -3.93   84.53
  10   7 -11   19.69   46.78
  10   7 -11  124.67   84.70
 -10  -7  11  117.21   97.79
 -10  -7  11   -3.48   43.78
  10   6 -11    2.78   40.80
  10   6 -11   93.36   79.48
 -10  -6  11   75.57   93.15
 -10  -6  11  -25.17   42.62
  10   5 -11   72.36   38.74
  10   5 -11   14.40   80.45
 -10  -5  11   -6.06   41.83
 -10  -5  11   60.13   90.19
  10   4 -11   71.93   77.32
  10   4 -11   41.69   33.69
 -10  -4  11   16.14   91.62
 -10  -4  11   27.10   40.91
  10   3 -11  145.93   43.38
  10   3 -11  117.15   86.16
 -10  -3  11  129.52   71.20
 -10  -3  11   71.54   70.02
 -10  -3  11   88.60   53.24
  10   3  11  225.08   98.32
 -10  -3  11  222.45  105.68
  10   2 -11   44.98   48.12
  10   2 -11   66.67   95.02
  10   2 -11    2.31   50.38
  10   2 -11  108.06   95.50
 -10  -2  11   57.77   84.49
 -10  -2  11   65.00   81.96
 -10  -2  11  118.25  116.98
 -10  -1 -11 -144.32   80.35
  10   1 -11   34.43   89.66
  10   1 -11  -46.92   79.11
  10   1 -11   -7.88   45.92
  10   1 -11    7.05   36.99
  10   1  11 -282.08   64.97
 -10  -1  11   25.33  118.61
 -10  -1  11  -15.40   71.39
  10   0 -11  -49.50   40.97
  10   0 -11   28.11   90.86
  10   0 -11  -45.16   48.75
 -10   0 -11 -139.11   74.30
 -10   0  11  -37.73   67.66
 -10   0  11    4.82  121.80
  10  -1 -11   62.33   54.72
  10  -1 -11   39.57   43.43
 -10   1 -11  -74.67   74.73
 -10   2 -11  193.30  110.44
 -10   2 -11  389.05  107.82
 -10   3 -11  299.52   98.90
 -10   3 -11  152.40   88.57
  10  -3  11   28.38  121.68
  10  -3  11   85.63   60.71
 -10   4 -11   92.34   79.19
 -10   4 -11    3.77   96.95
  10  -4  11 -224.09  105.53
  10  -4  11  130.62   55.50
 -10   5 -11   55.84   80.91
 -10   5 -11   56.05  101.27
  10  -5  11    3.84  101.69
  10  -5  11   49.50   56.80
 -10   6 -11   97.25   89.51
  10  -6  11   -3.32   57.54
  10  -6  11  -24.29   99.43
 -10   7 -11   11.15   89.05
  10  -7  11   10.06   59.36
  10  -8  11   -3.41   56.84
  11  10 -11  -77.44  102.63
  11   9 -11    4.36   96.28
  11   7 -11 -132.30   95.67
  11   7 -11  166.83   49.53
 -11  -7  11  -28.02  108.47
  11   6 -11  -67.50   87.22
  11   6 -11  -39.19   42.98
 -11  -6  11    3.42  101.75
 -11  -6  11   -6.62   44.71
  11   5 -11   61.15   38.17
  11   5 -11   26.56   82.16
 -11  -5  11   18.83   40.05
 -11  -5  11   27.49  101.54
  11   4 -11  164.66   91.34
  11   4 -11  148.01   53.79
 -11  -4  11  205.95  112.16
 -11  -4  11  132.09   59.18
 -11  -3 -11   26.22   80.87
  11   3 -11   46.39   38.29
  11   3 -11   55.12   84.30
 -11  -3  11   44.18   70.99
 -11  -3  11  -19.08   42.48
  11   3  11  331.20  106.68
 -11  -3  11  109.88  115.59
  11   2 -11   38.85   88.19
 -11  -2 -11  -38.90   80.83
  11   2 -11  -25.75   35.49
  11   2 -11   41.91   84.77
  11   2 -11   31.45   44.30
  11   2  11    4.11  108.11
 -11  -2  11   61.02   74.30
 -11  -2  11  -62.73   83.46
  11   2  11    4.04   59.07
 -11  -2  11   62.29  113.33
 -11  -1 -11   13.76   74.06
  11   1 -11    3.44   89.33
  11   1 -11   32.85   50.41
  11   1 -11   56.09   39.04
  11   1 -11  -18.38   88.85
  11   1  11   30.43  122.59
 -11  -1  11   25.54   77.55
  11   1  11   62.45   59.39
 -11  -1  11   30.10   97.40
 -11  -1  11   73.64  120.07
  11   0 -11  527.98  113.39
  11   0 -11  487.45  121.90
 -11   0 -11  423.90  137.02
 -11   0  11  517.64  200.59
  11   0  11    4.66  181.86
  11   0  11  488.56  113.89
 -11   0  11  310.83  145.88
  11  -1 -11   18.20   46.42
 -11   1 -11  -20.27   81.36
  11  -1 -11   37.08   61.13
  11  -1  11  110.36  140.34
  11  -1  11  147.77   57.31
 -11   2 -11   57.12   95.67
 -11   2 -11  -10.83   89.85
  11  -2  11   -3.33   54.06
  11  -2  11    4.74  135.10
 -11   3 -11   98.39   95.88
 -11   3 -11  -11.65  102.21
  11  -3  11  164.95   62.12
  11  -3  11    4.53  128.80
 -11   4 -11  125.26  108.96
 -11   4 -11  149.60  118.07
  11  -4  11  346.12   77.90
  11  -4  11  129.82  125.29
 -11   5 -11   62.79   96.85
 -11   5 -11   17.61  115.39
  11  -5  11   90.67   62.39
  11  -5  11   38.23  108.18
 -11   6 -11    5.65  103.22
 -11   6 -11   99.08  115.53
  11  -6  11   -4.40  108.30
  11  -6  11  170.84   66.98
 -11   7 -11  259.87  101.58
  11  -7  11  -14.75   66.56
  12  10 -11 -198.12  113.72
  12   9 -11    9.42  101.25
 -12  -9  11  104.51  120.52
  12   8 -11  343.51  102.23
 -12  -8  11   79.28   65.60
  12   6 -11 -111.57   95.51
  12   6 -11  -40.99   49.67
 -12  -6  11  -22.14  118.24
 -12  -6  11  127.93   46.30
  12   5 -11  -52.58   40.57
  12   5 -11   24.21   92.08
 -12  -5  11  -45.65   47.68
 -12  -5  11    7.42  110.50
  12   4 -11   48.80   37.70
  12   4 -11   56.85   89.89
 -12  -4  11   45.96   44.89
 -12  -4  11   56.72  116.32
  12   3 -11   42.19   89.79
  12   3 -11  -24.57   37.34
 -12  -3  11    3.30   46.16
 -12  -3  11  183.84  116.36
  12   3  11    4.44  108.99
  12   2 -11  -26.45   35.50
  12   2 -11   -8.83   49.84
  12   2 -11   49.91   93.18
  12   2 -11    4.51   94.44
 -12  -2  11  -63.22   95.19
 -12  -2  11 -122.59   82.15
 -12  -2  11  166.26  128.61
  12   1 -11   96.62   62.90
  12   1 -11  169.60   98.54
  12   1 -11  166.88   48.14
  12   1 -11  204.06  102.84
 -12  -1  11  -10.01  137.30
 -12  -1  11  -16.82  118.56
 -12  -1  11   65.51   91.42
  12   0 -11   33.35   61.85
  12   0 -11   13.33   41.86
 -12   0 -11  -37.08   86.35
 -12   0  11  101.61   85.46
  12   0  11  -49.67   61.92
  12  -1 -11   73.27   74.36
 -12   1 -11  129.40  100.89
  12  -1  11  158.03   70.00
 -12   2 -11   92.25  106.45
  12  -2  11 -153.18   62.83
 -12   3 -11  -60.07  114.62
  12  -3  11    3.76   62.15
  12  -4  11    3.83   65.71
 -12   7 -11  -19.79  106.67
  12  -8  11  -93.28   69.63
  13  10 -11   36.41  121.64
 -13 -10  11  -26.74  132.93
  13   9 -11   89.61  130.72
 -13  -9  11  456.45  155.21
  13   8 -11   53.05   57.38
  13   8 -11 -255.38  103.21
 -13  -8  11  -93.47  123.82
 -13  -8  11   27.75   63.31
 -13  -7  11    4.05   52.50
 -13  -3 -11   30.55  110.74
  13   3  11   -4.93  130.96
  13   3  11    4.98   82.64
 -13  -2 -11  133.88  105.60
 -13  -2  11   58.30  108.71
  13   2  11    4.66   71.15
  13   2  11  -93.11  146.37
 -13  -2  11 -140.16   92.82
 -13  -1 -11 -181.30   96.80
  13   1 -11   40.88   62.38
  13   1 -11 -213.62  105.57
 -13  -1  11   41.89  124.25
 -13  -1  11   56.40   93.39
  13   1  11 -181.89   68.55
  13   1  11 -199.42  159.29
  13   0 -11  131.12  109.53
 -13   0 -11  294.72   99.37
  13   0 -11  -12.39   74.61
 -13   0  11  -84.59  142.51
 -13   0  11   99.22   98.44
  13   0  11    5.81  166.27
  13   0  11  263.28   76.29
 -13   1 -11  156.76  129.99
  13  -1 -11   -4.46   80.24
  13  -1  11  217.58   70.01
  13  -2 -11   23.96   78.68
 -13   2 -11  332.82  174.82
 -13   2 -11   25.04  129.12
  13  -2  11   23.57  215.96
  13  -2  11  174.96   76.13
 -13   3 -11  592.07  158.20
 -13   3 -11    6.41  142.95
  13  -3  11    5.59  201.23
  13  -3  11  469.61  100.52
 -13   4 -11   32.70  127.21
 -13   4 -11  417.14  137.91
  13  -4  11    4.27   79.39
  13  -4  11   75.17  147.80
 -13   5 -11   53.59  119.00
 -13   5 -11   -5.25  138.35
  13  -5  11   -4.37   78.74
  13  -5  11    5.23  133.21
 -13   6 -11 -308.97  141.98
 -13   6 -11   41.90  123.68
  13  -6  11   42.15  135.66
  13  -6  11    4.45   73.25
 -13   7 -11   14.50  118.17
 -13   7 -11  251.44  144.00
  13  -7  11 -224.07   79.56
  13  -8  11  -92.88   74.13
 -14  -3 -11 -345.74  110.97
  14   3  11   16.10   83.29
  14   3  11    5.52  145.48
 -14  -2 -11  -15.25  108.22
  14   2  11    5.83  157.28
  14   2  11   20.31   75.34
  14   1 -11   -4.10   72.97
 -14  -1 -11   51.61  104.01
  14   1  11  -49.48  175.27
 -14  -1  11   91.83  136.09
  14   1  11    4.78   78.43
 -14   0 -11  260.15  113.89
  14   0  11    6.40  184.98
  14   0  11   14.17   82.86
 -14   1 -11  -47.67  121.92
 -14   1 -11  -66.79  138.47
  14  -1  11   -4.57   78.71
  14  -1  11 -130.70  190.21
 -14   2 -11   70.21  139.32
 -14   2 -11 -195.62  142.10
  14  -2 -11  192.67   84.12
  14  -2  11  168.17  193.93
  14  -2  11 -207.92   78.55
 -14   3 -11   89.41  141.69
 -14   3 -11  137.22  142.32
  14  -3  11    6.19  179.97
  14  -3  11  137.43   84.79
 -14   4 -11  142.72  141.42
 -14   4 -11   44.31  145.86
  14  -4  11 -179.07   79.09
  14  -4  11  268.42  159.64
 -14   5 -11  -90.53  149.91
 -14   5 -11   52.83  142.33
  14  -5  11   -4.77   82.14
  14  -5  11 -279.72  148.55
 -14   6 -11  347.63  147.40
 -14   6 -11  -31.22  132.82
  14  -6  11   34.84  144.22
  14  -6  11 -145.56   81.93
 -14   7 -11   56.14  139.02
 -14   7 -11  156.27  151.51
  14  -7  11   -4.89   86.21
 -14   8 -11  -40.24  144.81
  14  -8  11   -4.84   78.11
 -15  -4 -11  -12.67  126.70
  15   4  11 -228.59  159.49
 -15  -3 -11  -30.07  131.18
  15   3  11   87.73   90.70
  15   3  11   -6.18  168.33
 -15  -2 -11   -5.62  120.67
  15   2  11   78.26  180.95
  15   2  11    5.58   90.36
 -15  -1 -11   31.37  109.69
 -15  -1  11 -100.26  149.98
  15   1  11 -327.73  194.98
  15   1  11 -179.93   86.31
 -15  -1  11  -36.80  112.67
  15   0 -11   20.39  117.05
 -15   0 -11   41.56  117.24
  15   0 -11    5.00   81.54
 -15   0 -11   42.84  145.23
 -15   0  11  -56.82  164.95
  15   0  11 -507.74  199.76
  15   0  11   94.45   85.96
 -15   0  11   45.53  111.58
 -15   1 -11 -127.71  129.53
  15  -1 -11   21.56   89.78
 -15   1 -11  270.42  158.82
  15  -1  11    7.20  201.08
  15  -1  11  -71.02   86.91
 -15   1  11   88.44  177.67
 -15   2 -11   78.00  134.57
 -15   2 -11  127.41  155.93
  15  -2 -11   -5.67   94.69
  15  -2  11   10.37   90.60
  15  -2  11 -769.66  209.79
 -15   3 -11  -92.89  144.70
 -15   3 -11   24.36  157.40
  15  -3  11 -150.18  196.28
  15  -3  11   31.45   88.88
 -15   4 -11    8.33  161.76
 -15   4 -11 -118.64  154.95
  15  -4  11    5.23   82.57
  15  -4  11 -553.60  185.79
 -15   5 -11  252.44  166.22
 -15   5 -11   42.48  155.46
  15  -5  11    6.48  166.97
  15  -5  11   56.95   90.49
 -15   6 -11  -78.74  154.07
 -15   6 -11 -192.86  156.71
  15  -6  11  120.86   92.27
  15  -6  11  -51.44  153.62
 -15   7 -11   44.57  149.70
 -15   7 -11  -18.70  165.16
  15  -7  11  163.73   95.30
 -15   8 -11 -168.17  160.74
  15  -8  11   -5.30   89.55
 -16  -4 -11   83.14  132.83
  16   4  11 -322.35  182.98
 -16  -3 -11  205.29  137.23
  16   3  11    6.93  182.10
  16   3  11   57.56  103.10
 -16  -2 -11 -193.41  133.51
  16   2  11  617.39  200.79
  16   2  11   92.20  101.74
 -16  -1 -11    5.84  127.99
  16   1  11   52.76   96.95
  16   1  11  -82.48  209.96
  16   0 -11 -108.96   96.40
  16   0 -11 -385.33  142.18
 -16   0 -11 -118.32  169.93
 -16   0 -11    5.85  136.91
  16   0  11    5.83   91.26
 -16   0  11 -102.45  182.16
  16   0  11 -247.96  216.19
 -16   0  11  -21.20  126.94
  16  -1 -11   47.36  105.85
 -16   1 -11  -41.49  141.42
 -16   1 -11  -33.95  176.56
  16  -1  11  -89.99   98.87
  16  -1  11   55.01  222.15
 -16   1  11    7.39  191.07
  16  -2 -11  -24.70  101.69
 -16   2 -11   26.58  177.58
 -16   2 -11  -30.51  149.85
  16  -2  11   46.03  212.38
  16  -2  11    5.70   94.84
 -16   3 -11    6.38  162.21
 -16   3 -11    9.23  175.12
  16  -3  11    7.52  200.70
  16  -3  11  151.90  101.10
 -16   4 -11  -76.07  181.98
 -16   4 -11   71.32  164.50
  16  -4  11 -137.74  103.33
  16  -4  11 -363.58  196.66
 -16   5 -11  248.86  179.50
 -16   5 -11   46.03  169.60
  16  -5  11 -194.11  183.23
  16  -5  11  148.47  103.73
 -16   6 -11 -166.17  177.80
 -16   6 -11  -58.99  181.43
  16  -6  11 -185.00  177.22
  16  -6  11 -216.19  103.44
 -16   7 -11  141.68  173.83
 -16   7 -11 -109.48  175.27
  16  -7  11    5.71   93.78
 -16   8 -11  485.24  424.98
  16  -8  11 2062.60  361.13
 -17  -4 -11    7.63  144.90
  17   4  11 -738.90  212.86
 -17  -3 -11 -102.75  150.09
  17   3  11   14.06  109.09
  17   3  11    7.75  204.52
 -17  -2 -11  236.71  155.53
  17   2  11    8.02  216.99
  17   2  11    6.81  105.52
 -17  -1 -11 -469.95  152.87
 -17  -1 -11 -272.81  168.76
  17   1  11    8.23  222.59
  17   1  11   60.09  100.18
 -17   0 -11   96.97  184.74
 -17   0 -11   84.94  160.34
  17   0  11  161.50  240.71
  17   0  11  439.49  116.15
 -17   0  11   96.68  203.70
 -17   0  11    7.71  131.77
 -17   1 -11  441.05  192.89
  17  -1 -11  -96.21  104.02
 -17   1 -11  309.56  160.08
  17  -1  11    8.52  227.37
  17  -1  11   25.62  102.46
 -17   1  11  127.61  208.37
 -17   2 -11   80.82  164.46
 -17   2 -11  189.53  197.62
  17  -2  11    8.39  224.33
  17  -2  11 -338.98  103.80
 -17   3 -11  123.66  193.99
 -17   3 -11  172.51  170.80
  17  -3  11   -6.39  104.59
  17  -3  11  206.47  223.36
 -17   4 -11   32.02  207.36
 -17   4 -11  210.82  176.34
  17  -4  11  153.80  111.62
  17  -4  11    8.04  209.08
 -17   5 -11  -54.59  226.54
 -17   5 -11 -285.11  211.39
  17  -5  11 -624.02  141.98
 -17   6 -11  -66.34  200.89
 -17   6 -11  129.42  182.17
 -17   7 -11  -78.04  184.99
 -17   7 -11  115.39  190.07
  17  -7  11   -6.20   97.03
 -17   8 -11  -94.20  196.55
  17  -8  11 -398.37  120.93
 -18  -4 -11 -168.85  173.64
  18   4  11 -573.05  224.42
 -18  -3 -11   24.54  182.80
  18   3  11   17.21  237.44
  18   3  11   -7.77  124.74
 -18  -2 -11 -693.07  196.47
 -18  -2 -11 -139.92  206.01
  18   2  11 -227.07  129.79
 -18  -1 -11 -328.36  201.42
 -18  -1 -11 -452.96  185.11
 -18   0 -11  257.54  210.79
 -18   0 -11 -189.49  175.57
 -18   1 -11 -263.44  234.04
 -18   1 -11 -884.81  201.76
  18  -1 -11   13.88  129.36
 -18   1  11   -8.56  233.10
 -18   2 -11   44.37  194.67
 -18   2 -11 -177.08  239.82
  18  -2  11 -360.35  130.49
  18  -2  11 -740.03  270.18
 -18   3 -11 -453.84  233.41
 -18   3 -11  -75.57  180.26
  18  -3  11 -184.42  121.10
  18  -3  11 -650.83  247.61
 -18   4 -11 -502.02  228.76
 -18   4 -11 -237.40  189.91
  18  -4  11   -7.02  116.58
  18  -4  11  621.04  235.61
 -18   5 -11   12.28  218.73
 -18   5 -11   -7.64  200.96
  18  -5  11  194.18  234.52
  18  -5  11 -233.49  122.42
 -18   6 -11  273.90  223.27
 -18   6 -11   15.30  195.12
  18  -6  11    6.77  115.83
  18  -6  11   35.00  221.18
 -18   7 -11  -23.12  202.73
 -18   7 -11  -75.11  219.70
  18  -7  11 -207.26  116.82
 -19  -3 -11   27.46  193.63
  19   3  11   -8.60  131.01
 -19  -2 -11  221.96  201.11
 -19  -2 -11 -122.43  193.39
  19   2  11   -8.45  136.95
 -19  -1 -11  112.15  211.37
 -19  -1 -11  -33.57  191.90
  19   1  11   -8.24  134.76
  19   1  11   29.72  261.98
 -19   0 -11  185.74  221.75
 -19   0 -11   56.83  185.60
  19   0  11 -279.39  268.99
  19   0  11 -213.15  129.40
 -19   1 -11  243.26  197.46
 -19   1 -11 -282.95  238.96
  19  -1  11 -168.92  279.09
  19  -1  11  196.70  129.83
 -19   2 -11  322.97  249.87
 -19   2 -11  496.37  201.17
  19  -2  11 -129.55  275.24
  19  -2  11   -7.76  128.93
 -19   3 -11 -253.48  203.25
 -19   3 -11 -103.48  248.57
  19  -3  11   54.10  128.44
 -19   4 -11   82.15  205.74
 -19   4 -11   27.00  245.88
  19  -4  11 -240.11  129.85
   0   0 -12 5027.45 1112.37
   0   0  12 3992.71 1248.81
   0   1 -12    1.78   22.73
   0   1 -12   26.37   46.41
   1   0 -12    4.92   29.95
  -1   0 -12  -32.29   27.31
   1   0 -12   22.59   49.19
  -1   0  12   67.18   56.46
   0  -1  12  -11.19   52.38
  -1   1 -12  920.17  231.20
   1   1 -12  819.02  247.85
  -1  -1  12 1103.84  258.41
   1  -1  12  859.15  246.45
  -1   2 -12    8.33   16.76
   2   1 -12  -11.70   23.41
   2   1 -12  -22.32   46.44
  -1   2 -12   -2.11   30.93
   1  -2  12  -30.75   26.46
   1  -2  12  120.15   40.65
  -2  -1  12   26.73   54.43
   2   0 -12  272.43   93.38
   0   2 -12  323.72   86.25
   0   2 -12  299.03   72.63
   2   0 -12  258.05   78.13
   0  -2  12  283.20   82.09
   0  -2  12  242.21   89.84
  -2   0  12  353.19  102.29
   1   2 -12   -9.08   41.33
   1   2 -12    9.44   21.06
  -1  -2  12  -15.40   45.93
   2  -1  12  -17.42   30.31
   2   2 -12  198.92   53.63
  -2   2 -12  199.70   62.19
   2   2 -12  179.47   69.36
   2  -2  12  276.15   65.81
  -2  -2  12  162.04   75.76
   3   2 -12   35.51   46.58
  -2   3 -12  -13.40   24.00
  -2   3 -12   18.30   18.39
  -2   3 -12   15.72   21.22
   3   2 -12    3.10   11.79
   2  -3  12   54.30   17.87
   2  -3  12   33.04   37.80
  -3  -2  12   32.97   51.93
  -1   3 -12   37.08   19.28
  -1   3 -12   55.46   21.27
  -1   3 -12   53.74   38.98
  -1   3 -12   54.40   21.10
   3   1 -12   28.92   47.40
   1  -3  12   54.63   28.97
  -3  -1  12   61.91   60.13
   1  -3  12   51.51   41.83
   1  -3  12   33.56   16.92
   3   0 -12  -13.50   55.62
   0   3 -12    1.41   19.09
   0   3 -12   -1.96   36.95
   0  -3  12   32.25   41.16
  -3   0  12  -94.01   65.61
   3   0  12   34.97   32.59
   1   3 -12   63.07   22.15
   1   3 -12   39.47   43.58
  -3   1 -12   71.89   54.53
   3  -1  12    6.89   40.34
  -1  -3  12   72.38   47.48
   3  -1  12   67.40   55.38
   2   3 -12   11.02   42.94
  -3   2 -12   32.90   44.90
   2   3 -12    6.34   23.14
  -3   2 -12   11.23   27.69
  -2  -3  12   20.32   48.40
   3  -2  12  182.15   48.86
   3  -2  12  144.34   46.71
   3  -2  12   79.61   25.22
  -3   3 -12  496.85  127.27
   3   3 -12  437.82  140.25
  -3   3 -12  538.76  141.36
   3  -3  12  508.44  147.14
   3  -3  12  580.83  126.93
  -3  -3  12  393.98  150.24
   4   3 -12  586.62  117.89
   4   3 -12  363.58  129.07
   4   3 -12  591.93  137.46
  -4  -3  12  574.72  131.92
  -4  -3  12  503.59  146.11
   4   2 -12  -14.57   23.51
  -2   4 -12  -22.69   20.21
  -2   4 -12  -53.07   33.20
  -2   4 -12  -72.17   27.44
   4   2 -12   -2.70   52.77
   4   2 -12   -8.53   15.98
  -2   4 -12  -67.95   40.04
   2  -4  12  -74.34   42.94
   2  -4  12  -21.75   19.66
   2  -4  12  -11.88   17.05
  -4  -2  12    7.11   58.15
  -1   4 -12   26.57   37.02
  -1   4 -12   27.93   19.55
   4   1 -12   15.26   51.50
  -1   4 -12  -12.92   16.00
   4   1 -12   -2.10   24.76
   1  -4  12   -8.80   39.73
   1  -4  12   26.71   20.74
   1  -4  12   -7.27   11.09
  -4  -1  12   57.88   63.21
  -4   0 -12   38.59   28.71
   4   0 -12   21.04   58.47
   0   4 -12   44.18   40.44
   4   0 -12   51.64   34.48
   0   4 -12   18.82   21.10
   0  -4  12   44.51   23.00
  -4   0  12   64.10   67.89
   0  -4  12   14.07   42.40
   1   4 -12   -6.37   40.11
   1   4 -12    4.56   21.89
  -4   1 -12    9.27   19.29
  -1  -4  12   -3.33   43.85
  -1  -4  12   15.13   20.02
   2   4 -12  -24.74   45.36
   2   4 -12   -1.60   20.00
  -4   2 -12    3.16   19.64
   4  -2  12 -185.35   52.59
  -2  -4  12  -10.07   26.13
  -2  -4  12  -49.79   48.67
   4  -2  12  -22.45   25.85
  -3  -4  12  532.25  119.86
  -4   4 -12  387.63  124.25
   4   4 -12  387.74  121.02
   4   4 -12  438.82  100.24
  -4  -4  12  385.70  102.72
  -4  -4  12  420.43  128.29
   4  -4  12  446.53  106.17
  -4   5 -12  517.81  121.77
   5   4 -12  416.00  121.39
   5   4 -12  398.10   98.54
  -4   5 -12  408.39  112.16
  -5  -4  12  356.67  102.26
   4  -5  12  434.75  104.06
  -5  -4  12  255.95  129.46
   5   3 -12   89.61   57.11
  -3   5 -12   74.28   41.26
   5   3 -12   44.57   27.03
  -3   5 -12   54.75   26.63
   5   3 -12   60.01   34.95
   5   3 -12   51.22   22.64
  -5  -3  12   80.51   32.10
   3  -5  12   22.27   23.01
  -5  -3  12  120.15   60.97
  -5  -3  12   47.67   33.06
   3  -5  12   36.19   27.03
  -2   5 -12 1655.69  428.56
   5   2 -12 1723.68  446.62
  -2   5 -12 1838.06  461.08
  -5  -2  12 1772.94  481.63
   5   1 -12  -12.95   29.55
   5   1 -12    3.26   61.63
  -1   5 -12  -49.76   43.62
  -1   5 -12   -9.77   24.03
   5   1 -12   37.12   25.48
   1  -5  12   -1.78   15.49
  -5  -1  12  -41.44   74.59
   5   1  12   57.72   47.39
   1  -5  12    3.49   22.76
  -5   0 -12   17.34   35.20
   5   0 -12   29.42   69.81
   0   5 -12   54.51   47.53
   0   5 -12   18.34   29.93
   5   0 -12   31.83   40.45
   0  -5  12   56.24   30.63
  -5   0  12   92.29   86.68
  -5   1 -12  -17.12   21.22
  -5   1 -12  -97.07   47.61
   1   5 -12  -14.94   46.53
   1   5 -12   35.68   21.72
  -1  -5  12   33.85   25.08
  -5   2 -12 1896.28  461.41
  -5   2 -12 1798.80  447.52
   2   5 -12 1678.35  413.95
  -5   2 -12 1723.53  520.09
   2   5 -12 1540.37  454.30
   5  -2  12 2116.03  485.65
   5  -2  12 1889.98  417.99
   5  -2  12 1766.91  516.72
   3   5 -12   46.46   49.37
  -5   3 -12   35.52   20.58
   3   5 -12   78.24   25.70
  -5   3 -12   68.13   42.05
  -5   3 -12  118.82   42.82
  -3  -5  12   31.38   51.37
   5  -3  12   10.09   64.37
   5  -3  12    8.73   19.84
  -3  -5  12   52.91   29.65
   5  -3  12   23.15   42.82
  -5   4 -12  417.09  120.07
   4   5 -12  352.45  127.79
  -5   4 -12  399.67  125.93
  -5   4 -12  465.72  134.21
   5  -4  12  653.80  115.24
   5  -4  12  444.15  129.17
   5  -4  12  429.19  132.91
  -4  -5  12  580.73  134.49
  -5   5 -12  398.55  104.82
  -5   5 -12  265.25   95.48
   5   5 -12  292.82  107.08
   5   5 -12  308.50   84.52
  -5  -5  12  440.80   86.91
  -5  -5  12  325.76  111.96
   5  -5  12  301.73  112.47
   5  -5  12  410.16   89.15
   5  -5  12  410.25   93.20
   6   5 -12   65.81   61.89
   6   5 -12   18.80   30.89
  -5   6 -12  105.51   41.77
  -6  -5  12   73.05   35.01
   5  -6  12   27.19   36.76
  -6  -5  12   51.28   65.71
   6   4 -12  409.49  139.66
  -4   6 -12  617.73  137.97
   6   4 -12  476.66  115.91
   4  -6  12  503.44  124.35
  -6  -4  12  394.71  150.82
  -6  -4  12  578.05  119.93
   6   3 -12 1305.70  397.78
  -3   6 -12 1385.47  366.67
   6   3 -12 1572.18  315.56
  -6  -3  12 1109.99  384.05
  -6  -3  12 1226.46  391.86
  -6  -3  12 1562.71  349.58
  -2   6 -12  448.55  105.43
   6   2 -12  455.86  120.74
  -2   6 -12  339.31  111.45
   6   2 -12  395.97   96.14
   6   2 -12  482.70   96.53
   2  -6  12  461.63  107.52
  -6  -2  12  239.47  133.57
   2  -6  12  475.86   99.99
   6   1 -12  242.82   68.96
  -1   6 -12  318.34   79.77
   6   1 -12  313.31   70.95
   6   1 -12  243.71   95.99
  -1   6 -12  283.36   71.22
   1  -6  12  227.28   66.58
   1  -6  12  281.28   72.70
   6   1  12  241.75   88.10
  -6  -1  12  228.79  109.20
   6   0 -12 2911.67  691.97
  -6   0 -12 2839.44  767.35
   6   0 -12 3061.78  629.57
   0   6 -12 2982.36  641.42
  -6   0 -12 2271.91  717.63
   6   0  12 2893.16  712.60
   6   0  12 2646.30  642.20
  -6   0  12 2553.29  764.21
  -6   1 -12  294.64   73.95
  -6   1 -12  240.56   81.46
   1   6 -12  237.29   80.25
   1   6 -12  258.46   69.12
   6  -1  12  303.88   72.05
  -1  -6  12  271.65   67.40
   6  -1  12  333.86  101.34
  -6   2 -12  292.21   96.53
   2   6 -12  477.25  106.83
   2   6 -12  441.31   92.93
  -6   2 -12  325.32  106.89
  -2  -6  12  352.41   90.68
   6  -2  12  301.24  125.33
   6  -2  12  387.35   93.02
  -6   3 -12 1286.97  371.68
  -6   3 -12 1482.81  394.71
   3   6 -12 1352.03  324.11
  -6   3 -12 1454.87  352.50
  -6   3 -12 1483.99  341.36
   3   6 -12 1320.69  350.56
   6  -3  12 1268.58  331.19
   6  -3  12 1640.82  373.73
  -6   4 -12  511.33  122.36
   4   6 -12  328.83  126.77
  -6   4 -12  462.01  142.28
   6  -4  12  367.02  117.83
   6  -4  12  473.51  137.61
  -6   5 -12  106.97   62.18
   5   6 -12   92.23   61.57
  -6   5 -12   33.62   68.05
   5   6 -12  132.03   34.92
  -5  -6  12   80.84   35.06
   6  -5  12   57.12   74.75
   6  -5  12   97.98   41.52
  -6   6 -12  153.34   75.66
   6   6 -12  107.44   51.73
   6   6 -12  249.98   77.48
  -6  -6  12  167.99   84.90
  -6  -6  12  231.43   54.29
   6  -6  12  174.22   60.35
   7   6 -12   24.44   35.07
   7   6 -12   36.23   72.13
  -7  -6  12   25.26   39.11
   6  -7  12   75.21   41.93
  -7  -6  12  110.57   74.05
  -5   7 -12  483.75  105.49
   7   5 -12  302.75  116.06
   7   5 -12  228.29   87.89
  -7  -5  12  327.01  124.39
   5  -7  12  362.09   97.89
  -7  -5  12  472.88   92.00
  -4   7 -12   20.61   42.53
   7   4 -12   31.03   63.02
   7   4 -12   49.45   30.94
  -7  -4  12   -2.74   36.07
   4  -7  12  130.63   36.63
  -7  -4  12   75.79   72.70
   7   3 -12  469.08   94.28
   7   3 -12  174.68  120.87
  -3   7 -12  319.99  111.41
  -7  -3  12  365.60  134.44
   7   2 -12  339.17  116.96
   7   2 -12  173.25   89.25
  -2   7 -12  379.16  106.09
   2  -7  12  396.56   96.25
  -7  -2  12  267.29  134.81
   7   1 -12  566.21  122.72
  -7  -1 -12  366.58  146.10
  -1   7 -12  523.68  131.54
  -1   7 -12  402.95  128.59
   7   1 -12  481.04  119.58
   7   1 -12  603.89  148.60
   1  -7  12  556.22  122.39
  -7  -1  12  694.99  166.44
   7   1  12  368.23  126.69
   7   1  12  626.91  142.50
   7   0 -12  -44.68   36.98
   7   0 -12    2.70   36.45
  -7   0 -12   14.07   48.41
   7   0 -12  -24.75   78.49
   0   7 -12   -7.72   30.83
   0   7 -12  -17.50   42.37
   7   0  12   -4.98   35.57
   7   0  12    5.50   71.74
  -7   0  12    3.97   90.25
   0  -7  12    9.75   28.23
   1   7 -12  381.41  118.73
   1   7 -12  359.92  112.61
  -7   1 -12  381.11  124.02
   7  -1  12  406.29  108.85
  -1  -7  12  406.70  107.85
   7  -1  12  546.98  147.98
   2   7 -12  402.94  121.81
  -7   2 -12  439.74  126.58
   2   7 -12  604.70  113.80
   7  -2  12  417.34  111.54
   7  -2  12  534.59  148.80
  -2  -7  12  503.83  109.84
   3   7 -12  368.36  117.76
  -7   3 -12  485.42  120.52
  -7   3 -12  404.12  128.83
   3   7 -12  409.65  107.14
  -3  -7  12  413.55  104.31
   7  -3  12  402.40  108.26
   7  -3  12  608.57  140.10
   4   7 -12   58.84   54.05
  -7   4 -12   22.43   64.29
  -7   4 -12   81.49   57.76
   7  -4  12   93.50   39.07
   7  -4  12   67.53   75.69
   5   7 -12  312.02   88.07
   5   7 -12  353.38  105.89
  -7   5 -12  289.54  127.90
  -7   5 -12  344.98  107.50
   7  -5  12  336.59  115.93
  -5  -7  12  405.67   88.25
   7  -5  12  306.37   98.00
   6   7 -12   40.79   35.51
   6   7 -12   48.55   59.65
  -7   6 -12   78.74   66.09
  -6  -7  12   25.95   36.49
   7  -6  12   99.78   82.17
   7  -6  12   23.88   42.86
   7   7 -12  -90.61   42.88
   7   7 -12 -108.23   78.54
   7  -7  12   32.27   43.02
  -7  -7  12   -6.05   42.75
   8   7 -12    2.96   42.88
   8   7 -12   79.14   76.80
  -8  -7  12    3.00   86.32
  -8  -7  12   19.26   41.08
   7  -8  12   41.31   44.12
   8   6 -12  -38.81   78.89
   8   6 -12   40.92   35.45
  -8  -6  12   77.88   81.14
   6  -8  12   42.28   39.26
  -8  -6  12   35.51   37.25
   8   5 -12   37.77   72.31
   8   5 -12   44.51   33.59
  -5   8 -12   61.06   43.55
  -8  -5  12   51.92   78.67
  -8  -5  12   17.61   39.13
  -4   8 -12  800.33  231.41
   8   4 -12  924.98  234.44
   8   4 -12  801.96  201.05
  -8  -4  12  798.69  259.18
  -8  -4  12  892.15  209.28
   8   3 -12  104.90   35.71
   8   3 -12   68.61   74.38
  -3   8 -12   93.74   49.86
  -8  -3  12   15.42   89.61
  -2   8 -12  454.12  124.72
   8   2 -12  399.90  110.92
   8   2 -12  469.48  140.42
   8   2 -12  507.96  110.87
   8   2 -12  419.54  144.26
  -8  -2  12  495.99  160.75
  -8  -2  12  482.27  141.47
  -8  -2  12  398.89  135.08
   8   2  12  405.01  135.87
  -1   8 -12  186.67   63.92
   8   1 -12  160.14   54.49
   8   1 -12  136.70   89.23
  -8  -1 -12   84.33   75.40
   8   1 -12  202.74   56.06
  -8  -1  12  132.91  108.88
   8   1  12  280.30   88.38
   8   1  12  202.17   62.29
   8   0 -12  673.86  146.76
   8   0 -12  540.94  168.33
   0   8 -12  572.51  146.15
   8   0 -12  454.03  138.36
  -8   0 -12  679.84  155.02
   8   0  12  515.90  174.48
   8   0  12  637.07  136.13
  -8   0  12  430.18  197.75
   0  -8  12  434.92  139.57
   8  -1 -12  140.34   60.62
   1   8 -12  182.43   63.91
  -8   1 -12  116.97   67.09
   1   8 -12  161.63   57.78
   8  -1  12  156.10  101.11
  -1  -8  12  223.47   54.07
   8  -1  12  161.13   55.86
   2   8 -12  474.39  121.68
   2   8 -12  438.75  119.54
  -8   2 -12  350.85  131.93
  -2  -8  12  586.09  114.56
   8  -2  12  366.55  112.95
   8  -2  12  433.74  157.83
  -8   3 -12   10.23   65.74
   3   8 -12   93.01   41.77
  -8   3 -12   76.57   66.03
   3   8 -12   56.20   54.18
  -3  -8  12   66.24   40.38
   8  -3  12   77.60   42.93
   8  -3  12  125.93   92.98
  -8   4 -12  979.43  262.33
   4   8 -12  910.53  221.69
  -8   4 -12  767.97  226.10
   8  -4  12  975.96  222.82
   8  -4  12  786.06  239.97
  -8   5 -12   34.76   86.24
   5   8 -12   38.24   41.22
   5   8 -12   17.87   59.01
  -8   5 -12   40.80   69.21
   8  -5  12   72.01   83.98
  -5  -8  12   47.97   40.14
   8  -5  12   28.64   46.46
  -8   6 -12  -34.02   74.32
   6   8 -12   12.64   63.34
   6   8 -12   49.24   41.65
   8  -6  12   37.67   48.08
   8  -6  12  -41.29   90.54
  -6  -8  12   66.40   39.53
   7   8 -12   23.82   45.72
   7   8 -12  -16.88   71.88
  -7  -8  12   24.28   42.33
   8  -7  12   41.49   49.21
   8   8 -12 -222.75   78.32
   8   8 -12   28.30   46.31
  -8  -8  12    3.63   44.75
   8  -8  12   56.61   49.37
   9   8 -12   19.44   82.97
   9   7 -12   12.38   41.47
   9   7 -12   -3.88   81.92
  -9  -7  12   -3.22   91.50
  -9  -7  12   16.90   45.67
   9   6 -12  123.45   81.15
   9   6 -12   24.11   42.07
  -9  -6  12  112.60   93.30
  -9  -6  12  151.64   46.16
   9   5 -12  351.33  117.47
   9   5 -12  411.21   87.33
  -9  -5  12  409.77  130.42
  -9  -5  12  282.73   89.93
   9   4 -12  254.06   89.56
   9   4 -12  188.63   51.39
  -9  -4  12  129.68   54.93
  -9  -4  12   41.80  104.29
   9   3 -12  764.00  168.39
   9   3 -12  597.01  199.52
  -9  -3  12  817.83  222.55
   9   2 -12   93.82   80.63
   9   2 -12   25.77   34.47
   9   2 -12   44.26   36.72
   9   2 -12   65.79   71.58
  -9  -2 -12   86.70   68.71
  -9  -2  12   48.91  100.32
   9   2  12   12.88   80.31
  -9  -2  12   60.44   63.57
  -9  -2  12   50.58   69.86
   9   1 -12  120.77  105.30
   9   1 -12  192.54   66.77
  -9  -1 -12  274.90   91.95
   9   1 -12  193.39   69.73
  -9  -1  12  131.96  126.93
   9   1  12  385.20  112.33
   9   1  12  237.13   74.75
  -9  -1  12  372.65   93.67
  -9   0 -12  -19.33   61.17
   9   0 -12   77.64   44.44
   9   0 -12  -42.19   84.89
   9   0 -12  -44.59   41.15
   9   0  12  -61.54   47.78
  -9   0  12  -14.04  110.65
   9   0  12    3.60   95.89
  -9   1 -12  237.81   90.22
   9  -1 -12  271.47   84.31
   9  -1 -12  125.18   78.37
   9  -1  12  336.08   76.31
   9  -1  12  614.08  131.45
  -9   2 -12   27.38   65.19
  -9   2 -12   53.29   74.60
   9  -2  12  -53.31  104.20
   9  -2  12   51.78   44.13
  -9   3 -12  614.90  181.11
  -9   3 -12  577.12  194.66
   3   9 -12  542.18  166.36
   9  -3  12  529.78  202.24
   9  -3  12  729.44  162.14
  -3  -9  12  603.95  161.95
  -9   4 -12   11.57   81.74
  -9   4 -12   35.78   95.23
   4   9 -12  398.79   80.21
   9  -4  12  127.91   62.71
   9  -4  12  194.54  106.85
  -9   5 -12  425.18  128.67
  -9   5 -12  354.13  105.17
   5   9 -12    3.18   95.10
   9  -5  12  360.06  116.25
  -5  -9  12  127.08   81.88
   9  -5  12  355.55   90.43
  -9   6 -12   92.91   84.53
   6   9 -12   -3.82   52.96
   6   9 -12    3.37   71.02
   9  -6  12   37.06   95.25
  -6  -9  12   27.09   48.71
   9  -6  12  138.78   56.64
   7   9 -12  -53.01   77.23
   9  -7  12    9.18   54.75
   9  -8  12   31.17   53.26
   9   9 -12   16.97   53.84
  -9  -9  12 -173.75   60.61
  10   9 -12   60.43   94.59
  10   9 -12  -26.48   60.12
 -10  -9  12   -4.59   56.81
  10   7 -12  140.78   95.54
  10   7 -12  194.89   55.42
 -10  -7  12   37.75  100.23
  10   6 -12   -2.90   42.75
  10   6 -12  -44.02   89.26
 -10  -6  12   13.68   96.45
 -10  -6  12    3.26   44.15
  10   5 -12  103.58   43.83
  10   5 -12   88.27   89.27
 -10  -5  12  237.25  106.12
 -10  -5  12   42.30   48.54
  10   4 -12  384.58  103.61
  10   4 -12  382.98  136.42
 -10  -4  12  411.56  157.44
 -10  -4  12  498.30  109.77
  10   3 -12    4.70   35.68
  10   3 -12   15.90   81.32
 -10  -3  12   51.55  102.50
 -10  -3  12   59.78   45.45
  10   2 -12    8.43   90.05
 -10  -2 -12  120.36   78.96
  10   2 -12   59.03   39.43
 -10  -2  12  110.84  117.15
 -10  -2  12  128.36   70.10
  10   2  12   58.33   60.00
  10   2  12 -309.28   96.50
 -10  -2  12   74.92   78.54
  10   1 -12   -3.16   76.85
  10   1 -12  -87.66   89.39
  10   1 -12   44.86   44.85
 -10  -1 -12  -73.21   77.78
  10   1 -12    7.65   34.25
 -10  -1  12   49.48  115.47
 -10  -1  12   23.68   69.55
  10   1  12 -288.06  111.87
  10   0 -12   14.11   45.37
  10   0 -12   -3.07   52.30
 -10   0 -12 -188.13   79.79
 -10   0  12  -20.33  130.01
  10   0  12 -151.91   55.41
 -10   1 -12   56.72   68.90
  10  -1 -12   28.04   54.09
  10  -1 -12   52.47   48.09
  10  -1  12 -143.14  141.21
  10  -1  12  -75.27   53.13
 -10   2 -12  142.52   88.96
 -10   2 -12   28.09   71.55
  10  -2  12  107.44  125.06
  10  -2  12  105.70   53.38
 -10   3 -12  -13.02   85.45
 -10   3 -12    3.36   86.02
  10  -3  12  -66.34  120.20
  10  -3  12    5.95   49.33
 -10   4 -12  541.96  135.95
 -10   4 -12  264.65  152.07
  10  -4  12  336.71  112.96
  10  -4  12  414.05  149.93
 -10   5 -12   93.82   91.99
 -10   5 -12   55.44  104.71
  10  -5  12  136.96   64.93
  10  -5  12  153.77  104.94
 -10   6 -12   10.23   92.95
 -10   6 -12  -61.74  107.50
  10  -6  12  -26.97   57.06
  10  -6  12 -104.27  100.35
 -10   7 -12   33.25   90.14
  10  -7  12  -84.55   63.84
  10  -8  12 -116.00   72.16
   9  10 -12    4.24   87.58
  10  10 -12    9.01   97.00
  11  10 -12    4.81  103.90
  11   9 -12   14.09  103.03
 -11  -9  12   -4.80   58.41
  11   8 -12 1017.31  206.13
  11   6 -12  155.43   96.85
  11   6 -12    9.11   42.50
 -11  -6  12   33.36  110.88
 -11  -6  12   71.91   50.10
  11   5 -12  -53.38   92.60
  11   5 -12   38.73   42.64
 -11  -5  12   14.94  106.17
 -11  -5  12    6.78   49.58
  11   4 -12   53.72   88.35
  11   4 -12  -36.35   39.82
 -11  -4  12   47.56   42.01
 -11  -4  12  -45.67  110.71
  11   3 -12   78.81   40.35
  11   3 -12   12.72   89.99
 -11  -3  12   13.87   49.85
 -11  -3  12   20.36  113.02
  11   2 -12   40.95   91.05
  11   2 -12   17.79   38.73
 -11  -2 -12    4.14   83.52
 -11  -2  12  -71.21  119.55
  11   2  12   37.46   63.76
  11   2  12   32.93  110.85
  11   1 -12   37.15   39.37
 -11  -1 -12   39.96   78.50
  11   1 -12   19.60   98.15
  11   1 -12   24.42   85.27
  11   1 -12   38.97   51.25
  11   1  12   33.55   56.21
  11   1  12  -43.41  111.75
 -11  -1  12   75.70  100.00
 -11  -1  12   21.86   76.99
 -11  -1  12   19.54  134.32
 -11   0 -12   20.30   75.90
  11   0 -12   10.07   56.68
  11   0 -12   20.07   46.73
 -11   0  12   38.51  132.85
  11   0  12  456.03  133.15
  11   0  12   24.33   57.04
 -11   1 -12   77.45   78.40
  11  -1 -12  -13.11   48.49
  11  -1 -12   90.94   58.29
  11  -1  12   62.37   57.18
  11  -1  12 -151.12  139.79
 -11   2 -12  -29.44  105.11
 -11   2 -12   49.56   89.52
  11  -2  12 -120.95  140.49
  11  -2  12  -69.41   59.66
 -11   3 -12   91.08   97.70
 -11   3 -12   54.62  100.56
  11  -3  12   75.11   61.49
  11  -3  12  115.89  131.42
 -11   4 -12  111.18  106.37
 -11   4 -12  -10.22   99.03
  11  -4  12 -245.63  126.79
  11  -4  12    3.46   58.20
 -11   5 -12   47.57   94.92
 -11   5 -12  178.36  111.77
  11  -5  12    4.27  111.43
  11  -5  12   97.31   67.93
 -11   6 -12   72.70  103.45
 -11   6 -12 -180.62  123.62
  11  -6  12 -100.63  113.76
  11  -6  12  179.85   65.97
 -11   7 -12  409.84  113.86
  11  -7  12   41.01   78.64
  12  10 -12  145.87  122.20
  12   9 -12   95.23  114.28
 -12  -9  12  -40.06   64.64
 -12  -9  12 -139.86  126.19
  12   8 -12    4.79   96.94
  12   8 -12  -30.01   55.32
 -12  -8  12  155.31  122.73
 -12  -8  12   22.07   59.17
  12   7 -12   47.95   65.31
 -12  -7  12    7.91   67.49
  12   5 -12  502.10  114.40
  12   5 -12   77.92   61.91
 -12  -5  12  168.14  139.08
 -12  -5  12  184.51   64.90
  12   4 -12    8.74   94.05
  12   4 -12   62.26   44.01
 -12  -4  12  119.74   53.63
 -12  -4  12  119.34  126.61
  12   3 -12   -4.53   93.78
  12   3 -12   78.16   40.78
  12   3  12    4.47  109.88
 -12  -3  12   14.31   49.70
 -12  -3  12   26.78  124.01
  12   2 -12   18.30   38.71
  12   2 -12   19.34  102.03
 -12  -2  12  -14.33  135.01
  12   1 -12  -46.61   41.10
  12   1 -12   36.20  102.45
 -12  -1  12  -33.59   82.99
 -12  -1  12  117.75  114.03
 -12  -1  12 -100.83  140.10
  12   0 -12  194.15   77.76
  12   0 -12  389.99   92.14
 -12   1 -12    3.79   88.01
  12  -1 -12   53.27   67.88
  12  -1 -12   58.32   51.20
  12  -1  12  -14.68   62.30
 -12   2 -12  -91.75  101.33
  12  -2  12    3.76   62.67
 -12   3 -12  114.40  113.09
  12  -3  12  138.05   73.28
  12  -6  12   -4.80  126.28
 -12   7 -12  694.68  179.16
  12  -7  12  756.27  146.16
  12  -8  12   61.15   71.55
  13  10 -12   -5.52  114.28
 -13 -10  12   37.53  141.76
  13   9 -12 -436.73  118.09
 -13  -9  12   67.66  137.54
 -13  -9  12   -5.20   66.55
  13   8 -12    5.05  112.29
  13   8 -12  -44.65   60.95
 -13  -8  12  -18.66   65.57
 -13  -8  12  -65.89  130.38
  13   7 -12    9.58  106.81
  13   7 -12   23.87   56.56
 -13  -7  12  102.60  129.90
 -13  -7  12  -74.19   56.08
 -13  -6  12   56.46   48.54
 -13  -5  12  166.98  130.65
 -13  -4  12  196.70   61.75
 -13  -3 -12   31.34  100.09
  13   3  12   14.88  133.28
 -13  -2 -12 -270.66  115.58
  13   2  12 -150.04   79.26
 -13  -1 -12   79.26  103.91
  13   1  12 -303.14  158.38
 -13  -1  12  162.32   99.58
  13   1  12    4.49   74.60
  13   0 -12  144.01   93.99
 -13   0 -12  278.42  121.21
  13   0  12  321.72  190.73
 -13   0  12  162.84  119.48
  13   0  12  311.78   90.60
  13  -1 -12  -80.52   74.44
 -13   1 -12  217.11  107.87
 -13   1 -12  -61.29  125.82
  13  -1  12   69.67   70.71
  13  -1  12 -586.64  186.81
 -13   2 -12  -56.59  139.97
 -13   2 -12   48.71  143.78
  13  -2  12 -280.73   85.00
  13  -2  12   -5.99  210.61
 -13   3 -12  283.80  143.97
 -13   3 -12  -51.86  126.61
  13  -3  12  -79.61  180.39
  13  -3  12 -235.25   83.63
 -13   4 -12  -79.10  131.55
 -13   4 -12   54.83  138.35
  13  -4  12 -300.62  154.73
  13  -4  12  -69.34   78.30
 -13   5 -12   13.49  118.92
 -13   5 -12  -25.95  128.54
  13  -5  12    8.71   73.76
  13  -5  12   21.10  138.94
 -13   6 -12 -332.63  134.48
 -13   6 -12  -20.89  131.65
  13  -6  12    5.28  135.07
  13  -6  12   -4.45   75.34
 -13   7 -12 -134.39  137.21
 -13   7 -12   50.76  123.51
  13  -7  12    4.52   78.56
  13  -7  12 -146.82  129.92
  13  -8  12   35.70   76.27
 -14  -3 -12   51.12  112.15
  14   3  12 -286.04   85.62
  14   3  12  188.35  148.16
 -14  -2 -12  -10.41  110.70
  14   2  12  -83.11   81.01
  14   2  12 -116.64  158.87
 -14  -1 -12  -24.40  111.61
  14   1  12 -232.65   83.33
  14   1  12  227.96  176.19
 -14   0 -12  -70.71  108.57
  14   0  12    4.74   79.03
  14   0  12 -406.81  182.15
 -14   1 -12   42.89  117.19
 -14   1 -12   -6.82  143.88
  14  -1  12  430.14  192.26
  14  -1  12 -182.75   76.07
 -14   2 -12  -49.46  132.22
 -14   2 -12  -93.29  142.87
  14  -2  12    6.58  188.71
  14  -2  12  -51.12   84.08
 -14   3 -12   37.03  145.33
 -14   3 -12    5.25  135.92
  14  -3  12   -4.81   82.29
  14  -3  12  232.53  179.18
 -14   4 -12   45.36  145.71
 -14   4 -12  -70.43  139.39
  14  -4  12    4.77   77.78
  14  -4  12   60.58  160.52
 -14   5 -12  102.12  144.10
 -14   5 -12   15.39  140.22
  14  -5  12   19.22   84.14
  14  -5  12   -5.86  154.46
 -14   6 -12  -15.62  141.90
 -14   6 -12  132.55  151.41
  14  -6  12  101.77   87.82
 -14   7 -12  365.08  160.77
 -14   7 -12   -8.05  141.77
  14  -7  12  146.45   89.25
  14  -7  12   11.87  148.25
 -14   8 -12   11.62  158.52
  14  -8  12   39.08   83.28
 -15  -3 -12  105.51  127.62
  15   3  12  172.79   96.13
  15   3  12 -290.51  167.67
 -15  -2 -12    5.75  120.40
  15   2  12 -153.68   84.47
  15   2  12   19.60  177.42
 -15  -1 -12  -43.45  120.66
  15   1  12   21.88   90.24
  15   1  12    6.85  187.73
 -15   0 -12  205.46  124.85
 -15   0 -12   36.18  159.86
  15   0  12 -142.08   83.29
  15   0  12   -7.10  202.09
 -15   0  12  111.82  104.22
 -15   1 -12  183.46  158.35
  15  -1 -12   26.84   93.22
 -15   1 -12  111.85  126.33
  15  -1  12   67.83   87.49
  15  -1  12  -36.20  208.86
 -15   2 -12  121.01  136.01
 -15   2 -12   80.07  156.92
  15  -2  12   72.00   88.20
  15  -2  12   -7.19  201.60
 -15   3 -12  390.08  168.71
 -15   3 -12  234.38  143.70
  15  -3  12    5.31   90.47
  15  -3  12 -748.87  193.44
 -15   4 -12  -17.83  149.50
 -15   4 -12  221.33  168.51
  15  -4  12    5.25   90.60
  15  -4  12    6.70  174.70
 -15   5 -12  -86.72  166.75
 -15   5 -12 -297.43  161.69
  15  -5  12  152.42   96.20
  15  -5  12  503.11  174.85
 -15   6 -12  115.43  169.34
 -15   6 -12  -12.35  166.90
  15  -6  12 -194.40   93.42
  15  -6  12  -64.48  164.48
 -15   7 -12   18.83  162.70
 -15   7 -12   -8.97  154.13
  15  -7  12 -149.84  158.49
  15  -7  12    5.27   89.97
 -15   8 -12 -175.11  164.05
  15  -8  12   -5.28   89.42
 -16  -3 -12   75.08  140.18
  16   3  12   -6.49  100.66
  16   3  12   97.22  186.83
 -16  -2 -12  204.07  137.12
  16   2  12    7.27  191.06
  16   2  12    6.27   95.45
 -16  -1 -12  -42.45  133.45
  16   1  12  108.89   94.08
  16   1  12   -7.53  212.02
 -16   0 -12  258.89  136.32
 -16   0 -12  366.93  171.84
  16   0  12 -327.72  219.20
  16   0  12    5.85  100.20
 -16   1 -12  -84.32  177.09
 -16   1 -12  -83.15  140.84
  16  -1 -12   64.97  100.13
  16  -1  12   40.59   92.37
  16  -1  12  198.79  220.40
 -16   1  12 -228.92  192.61
 -16   2 -12   30.50  149.49
 -16   2 -12  216.90  179.18
  16  -2  12   62.37  212.12
  16  -2  12   75.60   98.52
 -16   3 -12 -169.73  192.93
 -16   3 -12   50.38  152.99
  16  -3  12  168.88  100.56
  16  -3  12   38.06  209.87
 -16   4 -12 -143.58  192.06
 -16   4 -12  116.37  159.00
  16  -4  12  152.81  105.54
  16  -4  12  155.02  197.91
 -16   5 -12  -32.97  175.59
 -16   5 -12 -117.23  183.93
  16  -5  12 -297.70  187.56
  16  -5  12 -284.56  105.31
 -16   6 -12   80.20  170.45
 -16   6 -12   79.96  174.86
  16  -6  12 -130.62   97.51
  16  -6  12   85.97  177.23
 -16   7 -12  -40.14  171.59
 -16   7 -12 -154.19  183.08
  16  -7  12 -240.23  111.53
 -16   8 -12  -26.88  176.40
  16  -8  12 -217.87  105.58
 -17  -3 -12  -83.08  156.33
  17   3  12   15.51  219.78
  17   3  12 -292.29  108.95
 -17  -2 -12  113.52  157.67
  17   2  12   55.37  111.50
  17   2  12    8.03  213.15
 -17  -1 -12  158.08  179.82
 -17  -1 -12 -196.57  152.79
  17   1  12    8.26  225.73
  17   1  12 -402.49  109.21
 -17   0 -12  -32.83  150.57
 -17   0 -12   -8.89  184.16
  17   0  12   73.40  100.63
  17   0  12 -390.64  238.05
 -17   1 -12   57.01  190.40
 -17   1 -12  138.80  155.82
  17  -1  12   25.73  101.53
  17  -1  12    8.61  241.51
 -17   2 -12 -121.70  203.54
 -17   2 -12 -329.14  160.27
  17  -2  12    8.47  230.81
  17  -2  12  109.10  104.97
 -17   3 -12  157.77  214.37
 -17   3 -12   62.18  160.82
  17  -3  12   -6.47  106.48
  17  -3  12  334.77  229.05
 -17   4 -12  -10.90  226.09
 -17   4 -12 -500.57  195.65
  17  -4  12 -263.98  129.30
 -17   5 -12  747.28  289.78
 -17   5 -12  537.29  266.45
  17  -5  12  233.97  196.25
 -17   6 -12 -191.25  203.26
 -17   6 -12   42.59  182.81
  17  -6  12  206.57  194.40
  17  -6  12  -49.92  105.20
 -17   7 -12  146.98  196.07
 -17   7 -12 -214.46  188.59
  17  -7  12   86.36  106.39
 -17   8 -12 -215.43  184.89
  17  -8  12  148.37  104.09
 -18  -3 -12  353.14  178.87
  18   3  12  -86.54  118.96
  18   3  12    8.62  236.56
 -18  -2 -12  -79.29  176.50
  18   2  12   85.71  124.63
  18   2  12    8.78  236.33
 -18  -1 -12 -395.20  176.49
 -18  -1 -12   27.50  187.24
  18   1  12 -679.72  266.04
  18   1  12 -237.69  121.07
 -18   0 -12 -342.08  210.79
 -18   0 -12  199.94  173.63
  18   0  12 -111.01  111.69
  18   0  12    9.29  254.91
 -18   1 -12   29.37  172.85
 -18   1 -12   63.93  221.44
  18  -1  12    7.36  117.47
  18  -1  12    9.26  251.98
 -18   2 -12 -336.49  225.21
 -18   2 -12  -96.33  177.24
  18  -2  12   64.62  251.30
  18  -2  12  232.71  120.59
 -18   3 -12   23.72  243.08
 -18   3 -12 -381.98  185.87
  18  -3  12 -155.24  238.81
  18  -3  12   -7.05  120.74
 -18   4 -12  -37.86  191.36
 -18   4 -12 -256.13  235.46
  18  -4  12    8.96  236.68
  18  -4  12    7.11  122.19
 -18   5 -12   12.52  230.84
 -18   5 -12   45.75  192.06
  18  -5  12  276.18  234.69
  18  -5  12   28.14  116.84
 -18   6 -12  430.05  204.59
 -18   6 -12  177.44  226.93
  18  -6  12    8.81  224.04
  18  -6  12    6.86  118.38
 -18   7 -12  -50.87  216.85
 -18   7 -12  123.53  195.89
  18  -7  12 -182.04  119.21
 -18   8 -12 -495.75  206.67
  18  -8  12  127.02  116.71
 -19  -2 -12  178.00  194.84
  19   2  12  -43.35  132.32
 -19  -1 -12  286.39  185.05
 -19  -1 -12   42.61  194.53
  19   1  12  132.46  132.98
 -19   0 -12 -404.60  186.44
  19   0  12   41.11  135.80
  19   0  12   10.04  223.23
 -19   1 -12    8.22  194.48
  19  -1  12   -8.14  136.90
  19  -1  12   10.01  245.68
 -19   2 -12  179.60  199.79
  19  -2  12  -10.05  216.33
  19  -2  12   87.82  134.99
 -19   3 -12 -352.63  204.98
  19  -3  12  307.68  133.82
 -19   4 -12   24.73  196.32
  19  -4  12   61.80  129.98
   0   0 -13   -7.72   30.95
   0   0  13  -47.96   61.62
  -1   0 -13  715.85  192.13
   1   0 -13  561.78  186.41
   0   1 -13  832.66  207.65
   0   1 -13  963.17  184.49
   0  -1  13  615.95  213.45
  -1   0  13  774.25  218.13
  -1   1 -13  -33.75   24.15
   1   1 -13    2.05   26.31
  -1   1 -13   59.12   53.20
   1   1 -13   -3.01   55.57
  -1  -1  13   23.16   57.21
   1  -1  13  -19.50   56.01
   1  -1  13   -9.06   23.49
  -1   2 -13  101.62   52.82
   2   1 -13   76.84   37.36
   2   1 -13   30.95   60.11
  -1   2 -13  103.59   32.70
  -2  -1  13   45.69   69.76
   1  -2  13  133.35   40.11
   1  -2  13  109.10   59.55
   0   2 -13   14.94   21.97
   2   0 -13  -32.21   30.69
  -2   0 -13   12.03   30.21
   0   2 -13  -24.64   45.96
   2   0 -13   46.79   59.78
   0  -2  13   -7.18   18.24
   0  -2  13  -62.91   50.39
  -2   0  13   34.71   68.00
   1   2 -13   97.22   54.37
   1   2 -13   85.52   35.07
  -2   1 -13  149.03   36.28
  -1  -2  13  123.21   61.39
   2  -1  13   67.88   42.77
  -2   2 -13   10.23   21.71
   2   2 -13   29.46   51.20
   2   2 -13    1.83   23.77
  -2   2 -13  106.98   48.51
  -2  -2  13   -6.83   54.58
   2  -2  13   29.20   36.77
  -2   3 -13  -17.88   20.91
   3   2 -13   11.40   12.11
  -2   3 -13  -57.63   27.04
  -2   3 -13  -18.39   50.07
   3   2 -13   31.03   55.56
  -3  -2  13  -29.10   65.97
   2  -3  13  -32.50   21.93
   3   1 -13    3.22   52.04
  -1   3 -13   21.54   17.67
  -1   3 -13   74.63   45.06
  -1   3 -13   32.62   19.16
   1  -3  13   -8.62   46.12
   1  -3  13   18.13   26.96
  -3  -1  13    8.50   67.19
   0   3 -13   25.16   22.33
   0   3 -13   -8.83   41.69
   3   0 -13   -3.69   64.68
  -3   0  13   59.13   71.53
   0  -3  13   23.75   47.12
   1   3 -13   18.21   20.96
   1   3 -13   37.23   45.25
  -1  -3  13   23.28   50.16
   3  -1  13  -22.92   42.97
   2   3 -13  -27.81   26.96
   2   3 -13   -9.83   53.13
  -2  -3  13  -55.88   61.66
   3   3 -13  -36.50   28.73
   3   3 -13  -84.46   61.21
   3  -3  13   43.37   46.79
  -3  -3  13  -79.71   68.22
  -3   4 -13  121.17   45.30
  -3   4 -13  156.44   53.12
   4   3 -13   -1.92   45.82
  -3   4 -13  210.86   55.46
  -3   4 -13  230.56   61.15
   4   3 -13  252.70   71.51
   3  -4  13  119.59   62.10
   3  -4  13  284.61   66.41
  -4  -3  13  177.83   74.94
   3  -4  13  222.06   44.31
   3  -4  13  123.60   44.52
  -2   4 -13  271.28   56.29
   4   2 -13  206.33   71.05
  -2   4 -13  259.91   46.14
  -2   4 -13  221.15   62.62
   4   2 -13  158.40   47.96
   4   2 -13  170.79   42.73
  -2   4 -13  135.15   50.97
   2  -4  13   29.40   68.47
   2  -4  13  144.98   44.76
   2  -4  13   26.86   64.57
  -4  -2  13  225.96   81.63
   2  -4  13  153.89   45.85
  -1   4 -13  -12.58   53.44
   4   1 -13   27.01   62.28
  -1   4 -13   25.41   27.17
   4   1 -13   91.52   31.74
   1  -4  13   76.03   27.36
   1  -4  13    9.87   51.25
  -4  -1  13   42.17   72.96
   4   0 -13   27.89   48.87
   0   4 -13  185.70   40.80
   4   0 -13   95.41   79.66
  -4   0  13  172.92   90.36
   1   4 -13   25.67   51.74
   1   4 -13   32.52   26.93
  -1  -4  13  131.83   56.57
  -1  -4  13   10.30   27.96
   2   4 -13  185.51   66.85
   2   4 -13  187.34   46.55
  -2  -4  13  113.84   49.06
  -2  -4  13  201.74   69.03
   3   4 -13  117.70   47.61
  -4   3 -13  182.53   56.10
   3   4 -13  167.01   69.40
   4  -3  13  293.15   48.51
  -3  -4  13  190.99   73.72
  -3  -4  13  132.50   50.36
  -4   4 -13    1.31   21.11
   4   4 -13   16.55   54.71
  -4  -4  13  -23.01   60.49
   4  -4  13  -27.26   23.68
   4  -4  13   24.31   20.99
   5   4 -13  328.89  196.55
  -4   5 -13  728.20  189.67
   5   4 -13  845.01  168.66
  -4   5 -13  861.07  208.74
   4  -5  13  770.36  213.01
  -5  -4  13  439.03  213.51
   4  -5  13  666.48  177.19
   5   3 -13 1733.00  434.68
  -3   5 -13 1657.59  463.11
  -3   5 -13 1948.95  423.56
   5   3 -13 1509.04  388.34
  -5  -3  13 1596.67  469.28
   3  -5  13 1477.44  424.00
  -2   5 -13  357.77   95.64
  -2   5 -13  400.71  110.32
   5   2 -13  402.23   89.37
   5   2 -13  187.61  112.51
   5   2 -13  373.59   90.60
   2  -5  13  321.48   91.07
  -5  -2  13  303.27  125.37
   2  -5  13  427.35  113.73
   2  -5  13  451.45   94.82
   5   1 -13  407.29  104.64
  -1   5 -13  426.22   98.25
   5   1 -13  466.90   98.52
  -1   5 -13  373.86  113.49
   5   1 -13  445.33  120.15
  -5  -1  13  299.65  132.65
   1  -5  13  400.29  116.51
   1  -5  13  356.21   95.69
   5   0 -13 1274.94  304.25
   0   5 -13 1343.20  333.92
  -5   0 -13 1251.31  358.72
   5   0 -13 1067.25  337.00
   0  -5  13 1357.40  345.75
   5   0  13 1595.97  343.90
  -5   0  13 1222.79  369.12
   1   5 -13  350.61   96.89
  -5   1 -13  434.55  115.22
  -5   1 -13  349.23  109.18
   1   5 -13  362.97  113.26
  -1  -5  13  410.99  117.93
   5  -1  13  440.94  101.71
   5  -1  13  433.75  126.63
  -1  -5  13  433.52   95.42
  -5   2 -13  439.05  128.05
  -5   2 -13  304.15  102.48
  -5   2 -13  612.00  110.12
   2   5 -13  273.20  112.69
   2   5 -13  370.82   95.77
  -2  -5  13  472.23  118.10
   5  -2  13  409.42   98.25
   5  -2  13  384.44  125.89
   5  -2  13  328.59  128.87
  -2  -5  13  402.98   95.32
  -5   3 -13 1793.77  440.33
   3   5 -13 1667.95  463.95
  -5   3 -13 2204.53  500.34
  -5   3 -13 1814.36  471.99
  -3  -5  13 2130.94  485.32
   5  -3  13 1847.29  508.64
   5  -3  13 1760.03  429.25
  -5   4 -13  758.10  211.18
  -5   4 -13  928.13  230.93
   4   5 -13  854.45  223.94
  -4  -5  13  856.96  233.47
   5  -4  13 1023.50  206.15
   5  -4  13 1007.95  226.00
   5   5 -13    9.02   60.44
  -5   5 -13  -46.21   48.37
  -5   5 -13  132.05   43.94
  -5   5 -13   46.64   53.70
  -5   5 -13  -18.65   22.78
   5   5 -13  -21.22   29.56
  -5  -5  13   -7.31   66.66
   5  -5  13  -14.20   21.26
   5  -5  13  -37.81   42.11
  -5  -5  13  -10.54   31.82
   5  -5  13  -99.57   66.74
   5  -5  13   56.10   30.55
   6   5 -13  246.97   67.67
  -5   6 -13  343.37   83.19
   6   5 -13  219.81   95.55
  -6  -5  13  306.77   71.23
   5  -6  13  234.38   75.48
  -6  -5  13  248.51  100.26
  -4   6 -13   60.27   31.58
  -4   6 -13   51.10   44.93
   6   4 -13   90.98   31.81
   6   4 -13   96.76   65.34
   4  -6  13   29.88   28.16
  -6  -4  13   11.15   39.25
  -6  -4  13   59.43   75.20
  -3   6 -13  372.71  108.07
  -3   6 -13  408.88  117.48
   6   3 -13  197.03  121.18
   6   3 -13  552.45   98.50
  -6  -3  13  292.49  134.81
   3  -6  13  417.34  100.97
  -2   6 -13  259.65   65.69
   6   2 -13  310.61   63.47
  -2   6 -13  240.55   77.44
   6   2 -13  197.22   91.06
  -6  -2  13  154.92  101.43
   2  -6  13  207.74   62.28
  -1   6 -13 1023.44  241.43
   6   1 -13  894.47  213.48
  -1   6 -13 1044.29  224.44
   6   1 -13  921.77  228.10
   6   1 -13  865.78  249.27
   6   1  13  756.18  243.36
   1  -6  13  901.88  214.57
  -6  -1  13  697.16  272.28
   6   0 -13   -2.88   37.32
  -6   0 -13   17.06   26.56
  -6   0 -13    2.41   46.96
   0   6 -13  -27.11   46.48
   0   6 -13    2.03   25.24
   6   0 -13  -37.71   75.84
   6   0  13    2.51   37.01
  -6   0  13   23.56   88.94
   6   0  13   14.29   63.18
   0  -6  13   10.50   26.01
   1   6 -13  952.27  221.43
  -6   1 -13 1062.03  253.25
   1   6 -13  796.83  240.79
  -6   1 -13  817.20  249.58
  -1  -6  13 1036.60  215.12
   6  -1  13 1056.74  267.07
   6  -1  13  778.19  222.87
  -6   2 -13  199.45   72.55
   2   6 -13  281.51   78.41
   2   6 -13  223.16   62.51
   6  -2  13  208.14   62.41
   6  -2  13  254.05   98.42
  -2  -6  13  203.19   60.15
   3   6 -13  450.92  101.06
  -6   3 -13  426.36  119.26
   3   6 -13  389.14  118.68
  -6   3 -13  464.56  112.74
  -3  -6  13  433.02   99.96
   6  -3  13  269.62  103.69
   6  -3  13  479.95  132.78
   4   6 -13   20.20   58.17
  -6   4 -13  135.39   54.17
  -6   4 -13   30.34   52.74
   6  -4  13   57.36   35.37
   6  -4  13  130.47   73.30
  -6   5 -13  244.42   84.02
   5   6 -13  296.92   64.26
   5   6 -13  229.40   89.03
  -6   5 -13   94.84   95.24
   6  -5  13  181.80   92.25
  -5  -6  13  276.37   95.48
   6  -5  13  192.33   71.37
  -5  -6  13  254.12   65.45
   6   6 -13  -29.64   69.63
  -6   6 -13  -10.78   60.92
   6   6 -13  -29.05   30.66
  -6  -6  13  -22.78   36.39
  -6  -6  13  -48.11   73.70
   6  -6  13   -2.06   38.44
   7   6 -13  176.14   85.96
   7   6 -13  108.87   53.30
   6  -7  13  137.55   59.39
  -7  -6  13  200.28   94.68
  -7  -6  13  255.23   56.64
   7   5 -13   16.35   33.84
   7   5 -13   10.31   71.71
  -5   7 -13   36.51   44.51
  -7  -5  13   32.53   38.05
  -7  -5  13  -29.16   77.84
  -4   7 -13 1232.00  343.61
   7   4 -13 1309.12  332.71
   7   4 -13 1488.00  292.27
  -7  -4  13 1058.23  361.50
  -7  -4  13 1247.44  301.61
   7   3 -13  538.94  143.25
  -3   7 -13  402.21  134.54
   7   3 -13  664.02  116.31
  -7  -3  13  572.66  156.50
   3  -7  13  274.85  122.57
  -2   7 -13  371.70  104.27
   7   2 -13  388.84  121.11
   7   2 -13  260.85   88.27
  -2   7 -13  408.94   98.73
   2  -7  13  346.57   92.53
  -7  -2  13  312.63  135.73
  -1   7 -13  121.82   56.65
  -1   7 -13  124.85   47.46
   7   1 -13   28.37   87.02
   7   1 -13  134.01   43.58
   7   1 -13  172.91   47.12
  -7  -1 -13   79.36   61.02
   7   1  13  128.67   71.97
   1  -7  13  119.40   41.66
  -7  -1  13  108.57   98.42
  -7   0 -13 1059.40  247.04
   7   0 -13  824.35  234.06
   0   7 -13 1017.79  230.79
   7   0 -13  603.12  248.88
   7   0 -13  990.34  215.34
   7   0  13  750.75  253.88
  -7   0  13  904.13  283.17
   7   0  13  895.48  217.16
   1   7 -13  147.12   56.32
  -7   1 -13  149.78   56.62
   1   7 -13  128.88   43.16
  -1  -7  13  111.78   42.09
   7  -1  13   58.16   87.90
   7  -1  13   86.60   46.37
   2   7 -13  482.14   96.78
  -7   2 -13  380.98  108.84
   2   7 -13  394.62  107.53
   7  -2  13  247.15   94.00
   7  -2  13  304.40  135.13
  -2  -7  13  440.66   92.76
  -7   3 -13  540.44  135.35
  -7   3 -13  598.14  129.46
   3   7 -13  387.13  114.09
   3   7 -13  451.09  127.71
   7  -3  13  392.87  115.79
  -3  -7  13  457.98  111.03
   7  -3  13  409.02  149.59
   4   7 -13 1047.55  302.80
  -7   4 -13 1010.86  297.85
  -7   4 -13 1036.49  341.77
   7  -4  13 1112.54  316.90
   7  -4  13 1372.64  294.01
   5   7 -13    5.25   35.94
   5   7 -13    3.06   60.99
  -7   5 -13    5.36   70.05
  -7   5 -13   29.70   60.54
   7  -5  13   -8.87   38.49
  -5  -7  13   25.69   35.08
   7  -5  13   61.84   78.22
   6   7 -13  183.65   82.26
   6   7 -13   68.08   55.05
  -7   6 -13  240.94   82.87
   7  -6  13  156.17   61.20
   7  -6  13  227.31   94.54
  -6  -7  13  224.21   56.78
   7   7 -13   14.30   78.17
   7   7 -13   -2.84   37.82
  -7  -7  13    3.14   41.23
   7  -7  13   22.13   44.89
  -7  -7  13   11.86   79.03
   8   7 -13    6.12   43.41
   8   7 -13   65.62   85.82
  -8  -7  13   -3.18   91.04
  -8  -7  13   -3.30   42.14
   8   6 -13  193.66   47.34
   8   6 -13  179.29   82.01
  -8  -6  13   15.52   96.20
  -8  -6  13    6.26   51.22
   8   5 -13  392.59   91.89
  -5   8 -13  294.47  107.87
   8   5 -13  381.29  124.58
  -8  -5  13  301.08   95.13
  -8  -5  13  410.76  136.38
   8   4 -13   37.28   34.77
  -4   8 -13   25.72   45.95
   8   4 -13   25.18   74.85
  -8  -4  13   70.38   86.90
  -8  -4  13  -15.66   43.15
   8   3 -13  774.93  191.29
   8   3 -13  578.82  229.22
  -3   8 -13  751.03  220.79
  -8  -3  13  844.96  256.68
  -2   8 -13  101.33   54.28
   8   2 -13  122.87   42.25
   8   2 -13  137.54   84.87
   8   2  13  137.82   75.62
  -8  -2  13   81.73  100.04
   8   1 -13  255.46  155.33
   8   1 -13  427.30  123.01
   8   1 -13  456.37  126.55
  -1   8 -13  485.93  134.68
  -8  -1 -13  438.71  149.80
   8   1  13  816.77  152.55
  -8  -1  13  465.38  181.07
   8   1  13  504.25  129.69
   1  -8  13  510.78  127.47
   8   0 -13  -11.85   43.99
  -8   0 -13    8.03   56.29
   0   8 -13   19.77   49.07
   0   8 -13   27.67   35.85
   8   0 -13  -10.47   43.20
   8   0 -13  -23.53   87.29
   8   0  13  -28.80   43.45
   8   0  13   -6.39   86.57
  -8   0  13  -45.69  106.77
   0  -8  13  -17.61   30.86
  -8   1 -13  421.02  143.30
   1   8 -13  515.38  132.81
   1   8 -13  518.67  136.68
  -1  -8  13  582.53  127.85
   8  -1  13  513.83  126.25
   8  -1  13  535.86  172.82
  -8   2 -13   99.13   61.28
   2   8 -13  105.68   46.52
   2   8 -13   72.34   55.78
   8  -2  13  153.64  104.64
  -2  -8  13   35.78   41.79
   8  -2  13   84.53   45.60
  -8   3 -13  599.11  248.37
  -8   3 -13  840.22  237.36
   3   8 -13 1127.56  219.92
   3   8 -13 1168.49  227.55
   8  -3  13  930.19  218.69
  -3  -8  13  834.05  213.43
   8  -3  13  813.22  258.17
  -8   4 -13   27.19   65.00
  -8   4 -13   43.72   67.64
   4   8 -13   65.46   60.45
   8  -4  13  -15.52   87.88
   8  -4  13   -9.47   40.89
  -8   5 -13  207.70  118.58
   5   8 -13  550.80  115.92
   5   8 -13  378.87  100.17
  -8   5 -13  286.39  137.39
  -5  -8  13  443.68   98.00
   8  -5  13  283.60  107.16
   8  -5  13  545.40  130.01
   6   8 -13  180.67   79.64
   6   8 -13  270.54   56.22
  -8   6 -13  193.87   85.23
  -8   6 -13   92.46   96.88
  -6  -8  13   10.04   53.28
   8  -6  13  189.84   90.41
   8  -6  13  138.15   61.48
   7   8 -13  -10.79   77.67
   7   8 -13   -3.36   45.31
  -7  -8  13   76.84   45.47
   8  -7  13   11.10   47.37
   8   8 -13  -88.67   86.94
   9   7 -13    4.13   88.34
   9   7 -13  198.57   48.01
  -9  -7  13   -3.48   45.72
  -9  -7  13  -20.40   99.30
   9   6 -13    8.48   38.95
   9   6 -13  -44.10   89.45
  -9  -6  13    3.40   93.92
  -9  -6  13    3.30   42.72
   9   5 -13   15.44   81.89
   9   5 -13   36.12   39.68
  -9  -5  13    3.42   99.72
  -9  -5  13  -13.21   41.84
   9   4 -13  817.23  141.24
   9   4 -13  580.10  171.74
  -9  -4  13  614.36  192.10
  -9  -4  13  436.54  147.82
   9   3 -13  -11.92   81.24
   9   3 -13   -7.30   34.86
  -9  -3  13   43.81  102.00
   9   2 -13  364.20  116.71
   9   2 -13  404.40   80.08
   9   2  13   61.99  110.86
  -9  -2  13  186.21  142.38
   9   1 -13  124.45   89.80
   9   1 -13   83.30   42.05
  -9  -1 -13   54.21   70.37
   9   1  13    6.88   90.50
   9   1  13    3.46   57.52
  -9  -1  13   96.67  111.55
   0   9 -13  375.26  124.13
   9   0 -13  505.55  123.89
   9   0 -13  374.99  155.27
   9   0 -13  448.23  117.47
  -9   0 -13  416.92  134.90
   9   0  13  614.78  159.21
   9   0  13  506.17  116.31
  -9   0  13  311.69  185.47
   1   9 -13   69.37   55.88
  -9   1 -13   93.72   63.82
   9  -1 -13   49.45   47.56
   9  -1  13   73.40   48.50
   9  -1  13    7.75  112.21
   2   9 -13  325.53   94.10
  -9   2 -13  267.20  103.72
  -2  -9  13  312.33   86.54
   9  -2  13  298.07  144.16
   9  -2  13  281.52   85.25
   3   9 -13   11.99   59.62
  -9   3 -13   49.45   76.59
  -9   3 -13  -54.87   72.10
   3   9 -13  -32.65   44.55
  -3  -9  13    7.17   44.37
   9  -3  13  -82.56  111.68
   9  -3  13  -37.26   46.67
  -9   4 -13  579.88  160.90
   4   9 -13  467.62  149.78
  -9   4 -13  661.52  175.47
   9  -4  13  557.83  145.60
   9  -4  13  667.87  173.72
  -9   5 -13   17.28   89.77
   5   9 -13    3.32   70.96
   5   9 -13  -68.05   46.88
  -9   5 -13   46.04   78.87
   9  -5  13   55.46   93.85
  -5  -9  13    7.49   47.88
   9  -5  13   86.08   50.88
   6   9 -13   45.59   72.37
  -9   6 -13  -18.43   98.52
  -9   6 -13   46.26   83.72
   9  -6  13    3.66   94.45
   9  -6  13  -60.90   54.57
  -9   7 -13    5.09   79.92
   9  -7  13   33.93   54.51
   8   9 -13   28.75   55.00
  -8  -9  13    4.21   54.84
   9  -8  13   53.09   55.45
   9   9 -13    4.26   92.01
   9   9 -13  -38.39   55.83
  -9  -9  13  -96.86   59.24
  10   9 -13   60.59   95.42
  10   9 -13  -31.49   59.03
 -10  -9  13   32.36   60.85
  10   8 -13  -39.36   56.26
 -10  -8  13   -3.78   98.85
 -10  -8  13    4.05   52.86
  10   6 -13  143.90  101.52
  10   6 -13  106.47   54.11
 -10  -6  13  197.79   58.09
 -10  -6  13   36.99  111.85
  10   5 -13  331.84  109.16
  10   5 -13  250.05   63.61
 -10  -5  13  115.77  123.19
 -10  -5  13  174.62   68.27
  10   4 -13  107.58   48.98
  10   4 -13  117.06   94.16
 -10  -4  13  113.96  115.44
 -10  -4  13  147.22   59.27
  10   3 -13  546.36  113.14
  10   3 -13  235.15  151.78
 -10  -3  13  379.81  176.87
 -10  -2 -13   80.31   76.63
  10   2 -13  -13.58   93.69
  10   2 -13  -10.64   39.08
  10   2  13  -44.10   92.39
 -10  -2  13    4.36  120.39
 -10  -1 -13   10.66   72.76
  10   1 -13  -13.85   41.48
  10   1 -13   24.58   96.50
  10   1  13  -19.38  105.91
  10   1  13   22.27   60.70
 -10  -1  13   28.63  125.43
  10   0 -13  -30.85   51.26
  10   0 -13  -36.49   45.42
 -10   0 -13  -28.17   67.69
  10   0  13   -4.13  110.82
  10   0  13  -49.22   52.20
 -10   0  13   -5.36  130.39
 -10   1 -13   60.21   69.32
  10  -1 -13  -79.25   57.21
  10  -1 -13   66.81   49.76
  10  -1  13  -12.19   48.98
  10  -1  13 -153.08  122.57
 -10   2 -13   64.50   76.80
 -10   2 -13  -44.64   90.80
  10  -2  13   23.56   49.83
  10  -2  13  359.37  133.26
 -10   3 -13  477.48  155.99
 -10   3 -13  471.43  156.44
  10  -3  13  474.37  178.37
  10  -3  13  505.13  128.71
 -10   4 -13   78.27   98.16
 -10   4 -13   85.47   95.67
  10  -4  13  237.93  110.18
  10  -4  13  116.57   60.64
 -10   5 -13  279.03  117.12
 -10   5 -13   99.33  102.67
  10  -5  13  199.78   77.73
  10  -5  13  239.36  113.37
 -10   6 -13  147.46  121.55
 -10   6 -13  201.99  103.86
  10  -6  13  354.87  115.50
  10  -6  13  208.71   76.76
   7  10 -13    3.93   80.82
 -10   7 -13   22.04   90.36
  10  -7  13    3.42   61.23
   8  10 -13 -108.28   89.28
  -8 -10  13 -170.58   63.37
  10  -8  13  -85.85   68.13
   9  10 -13 -110.97   93.03
  10  10 -13   -4.75  102.22
  11  10 -13   -5.18  115.04
  11   9 -13   95.04  108.70
  11   9 -13   14.07   57.14
 -11  -9  13   24.25   57.47
 -11  -9  13  -37.50  119.02
  11   8 -13 -250.18  105.08
  11   8 -13   37.08   56.48
 -11  -8  13   -4.26   54.02
 -11  -8  13  -40.75  122.54
  11   7 -13   24.61   50.12
 -11  -7  13   -3.89   51.04
  11   5 -13   35.49   93.55
  11   5 -13   25.90   44.81
 -11  -5  13  -28.23  118.50
 -11  -5  13  -14.59   51.14
  11   4 -13   77.00   40.61
  11   4 -13   48.90   99.30
 -11  -4  13   62.53   50.95
 -11  -4  13  -28.90  121.12
  11   3 -13   36.69   95.28
  11   3 -13  -21.21   39.59
 -11  -3  13   -3.76   50.22
 -11  -3  13  -35.67  118.55
  11   2 -13   -4.87   95.05
 -11  -2 -13  -30.26   84.41
  11   2 -13   46.86   39.29
 -11  -2  13 -104.01  130.26
  11   2  13   -4.28   61.65
  11   1 -13   -5.73   40.48
  11   1 -13 -119.68  102.91
 -11  -1 -13   30.82   78.30
 -11  -1  13   41.42  130.21
  11   1  13   19.71   59.59
  11   1  13 -322.99  120.98
  11   0 -13   37.12   47.40
 -11   0 -13   69.38   78.34
  11   0 -13   13.58   57.06
  11   0  13   75.04  129.25
  11   0  13  -72.36   56.56
  11  -1 -13   68.79   63.03
 -11   1 -13  -47.38   81.33
  11  -1 -13  -38.66   53.55
  11  -1  13  129.26   58.39
  11  -1  13    4.92  139.81
 -11   2 -13  -10.44   87.05
 -11   2 -13  -40.46  112.47
  11  -2  13    4.93  140.09
  11  -2  13  -23.21   55.38
 -11   3 -13    3.74   94.59
 -11   3 -13  101.93  104.85
  11  -3  13   44.38   59.47
  11  -3  13 -412.30  133.83
 -11   4 -13   20.56  103.24
 -11   4 -13   76.05  103.06
  11  -4  13   17.78  122.11
  11  -4  13   73.33   65.41
 -11   5 -13  119.42  113.56
 -11   5 -13  -21.43   98.51
  11  -5  13   53.68   62.62
  11  -5  13  -94.61  109.99
 -11   6 -13   94.31  119.97
 -11   6 -13  -78.59  100.56
  11  -6  13  -40.96   65.15
 -11   7 -13   -5.99   84.32
 -11   7 -13 -123.72  126.26
  11  -7  13   30.30   66.87
  12  10 -13  147.34  123.10
 -12 -10  13   -4.63  140.84
  12   9 -13  211.90  119.13
  12   9 -13  -82.94   69.56
 -12  -9  13   -5.07   68.13
 -12  -9  13 -382.57  135.02
  12   8 -13   -8.62   59.79
  12   8 -13    5.11  109.42
 -12  -8  13  -67.83   53.55
 -12  -8  13   48.50  132.75
  12   7 -13   14.58  112.44
  12   7 -13   95.22   56.63
 -12  -7  13  -65.06   64.15
 -12  -7  13   90.58  136.48
 -12  -6  13   -3.77   52.32
  12   5 -13   -4.71  108.94
 -12  -5  13  106.66  125.66
  12   4 -13  538.71  134.37
  12   4 -13   98.68   71.10
 -12  -4  13  236.16   79.30
 -12  -4  13  555.63  157.91
  12   3 -13   42.11   42.54
  12   3 -13  -48.91  103.78
  12   3  13 -248.09  116.43
 -12  -3  13   28.49  133.00
 -12  -3  13  -58.42   58.09
  12   2 -13   57.22  100.89
  12   2 -13   34.22   43.85
  12   2  13    9.24  119.86
 -12  -2  13   10.12  140.53
  12   1 -13   85.89   49.75
  12   1 -13  -38.56  112.98
 -12  -1  13  106.39  148.75
  12   0 -13   40.69   49.49
  12  -1 -13   -3.48   55.58
  12  -1 -13  132.99   69.81
  12  -6  13  187.56  133.54
 -12   7 -13   32.93  126.72
 -12   7 -13  777.02  145.57
  12  -7  13  563.51   96.10
  12  -7  13    4.97  134.90
  12  -8  13  103.09   75.66
  13  10 -13   17.32  132.24
 -13 -10  13   44.20  145.09
  13   9 -13 -215.31  125.49
 -13  -9  13    5.33   63.39
 -13  -9  13   18.97  141.74
  13   8 -13  242.73  100.09
  13   8 -13  505.68  142.37
  13   7 -13 -273.12  108.43
  13   7 -13  -55.67   54.60
 -13  -7  13  -96.89  138.02
 -13  -7  13   29.61   54.48
  13   6 -13  119.87  104.87
  13   6 -13  -72.82   49.83
 -13  -6  13   18.40  136.85
 -13  -6  13    3.96   49.19
 -13  -5  13   26.92   55.56
 -13  -4  13   -4.79  139.61
 -13  -3 -13  -64.44  101.91
 -13  -3  13    5.05  144.68
 -13  -3  13  256.17   57.14
  13   3  13    5.00  128.58
 -13  -2 -13   10.04  100.41
  13   2  13    4.96   79.22
  13   2  13   -5.18  138.97
 -13  -1 -13   54.11   98.21
  13   1  13   -5.54  155.32
  13   1  13    4.66   73.17
 -13   0 -13  -90.32  102.16
  13   0  13    4.42   68.32
  13   0  13   41.22  163.52
 -13   1 -13  -68.25  103.78
 -13   1 -13   -6.27  129.37
  13  -1 -13   45.15   78.31
  13  -1  13    6.06  176.55
  13  -1  13  143.79   71.02
 -13   2 -13  105.83  115.26
 -13   2 -13  180.33  130.92
  13  -2  13  -66.98  177.95
  13  -2  13   72.21   77.41
 -13   3 -13  -23.17  129.25
 -13   3 -13   -6.65  127.14
  13  -3  13  -90.63   77.60
  13  -3  13    5.80  173.22
 -13   4 -13 -114.68  132.29
 -13   4 -13   53.90  129.92
  13  -4  13 -205.29  157.85
  13  -4  13    4.33   74.28
 -13   5 -13 -351.91  144.23
 -13   5 -13   20.57  128.72
  13  -5  13  170.20  147.69
  13  -5  13  -26.34   80.71
 -13   6 -13   69.15  140.63
 -13   6 -13   63.34  126.14
  13  -6  13  275.95  139.83
  13  -6  13    4.46   77.76
 -13   7 -13  236.84  145.70
 -13   7 -13  109.31  125.07
  13  -7  13   22.57   83.49
  13  -7  13   64.91  126.77
 -13   8 -13  162.09  160.45
  13  -8  13   90.40  101.11
  13  -9  13  -62.23   76.50
 -14  -3 -13   29.03  112.24
  14   3  13  100.19  148.96
 -14  -2 -13   54.89  111.93
  14   2  13 -161.29   84.44
  14   2  13  469.49  163.32
 -14  -1 -13   64.84  109.47
  14   1  13  -54.95   79.14
  14   1  13   12.36  170.60
 -14   0 -13 -115.20  111.78
  14   0  13   19.61   75.03
  14   0  13  -65.07  181.36
 -14   1 -13   52.55  113.21
 -14   1 -13  -83.35  147.49
  14  -1  13  -65.97   75.16
  14  -1  13    6.69  188.48
 -14   2 -13 -227.32  152.32
 -14   2 -13   83.82  121.13
  14  -2  13   28.38   80.40
  14  -2  13   40.18  182.39
 -14   3 -13   89.68  152.29
 -14   3 -13  128.86  128.79
  14  -3  13 -255.61  179.20
  14  -3  13   -4.78   84.41
 -14   4 -13   76.26  150.25
 -14   4 -13 -292.13  145.98
  14  -4  13   -4.88   81.65
  14  -4  13   61.54  162.23
 -14   5 -13  -85.29  141.62
 -14   5 -13  290.14  144.23
  14  -5  13  -96.38   83.12
  14  -5  13 -289.77  153.67
 -14   6 -13  457.52  168.24
 -14   6 -13 -118.54  158.20
  14  -6  13  290.73  106.80
  14  -6  13  363.56  167.34
 -14   7 -13 -192.63  149.66
 -14   7 -13  -72.94  134.21
  14  -7  13  -58.56   84.31
  14  -7  13   88.81  143.21
 -14   8 -13  -23.28  149.83
  14  -8  13 -175.97   89.43
 -15  -3 -13  291.83  131.36
  15   3  13    6.21  170.53
 -15  -2 -13 -175.21  128.22
  15   2  13    6.49  172.94
  15   2  13 -193.71   87.23
 -15  -1 -13   -5.54  123.45
  15   1  13 -556.23  202.07
  15   1  13    5.51   88.15
 -15   0 -13  176.86  129.01
 -15   0 -13  -58.67  157.82
  15   0  13  285.70  203.41
  15   0  13   48.93   92.44
 -15   1 -13  -30.59  155.62
 -15   1 -13  -53.42  124.79
  15  -1  13 -314.58  212.65
  15  -1  13   20.96   90.43
 -15   2 -13  138.72  160.33
 -15   2 -13    5.47  135.82
  15  -2  13  328.50  221.32
  15  -2  13  168.03   96.32
 -15   3 -13   22.83  141.49
 -15   3 -13  -17.00  176.11
  15  -3  13 -208.55  101.53
  15  -3  13   -7.04  205.50
 -15   4 -13   53.25  148.43
 -15   4 -13 -139.40  171.42
  15  -4  13  224.75  185.26
  15  -4  13  150.48   97.42
 -15   5 -13  -26.55  163.75
 -15   5 -13    6.01  153.12
  15  -5  13 -216.90  169.61
  15  -5  13   37.34   91.36
 -15   6 -13 -133.58  165.15
 -15   6 -13 -155.09  163.43
  15  -6  13  387.19  100.85
  15  -6  13  129.75  165.41
 -15   7 -13  -81.55  157.37
 -15   7 -13  493.16  170.27
  15  -7  13  -63.57   95.15
  15  -7  13  169.28  156.40
 -15   8 -13  -87.55  164.49
  15  -8  13   53.01   88.03
 -16  -3 -13  208.84  144.97
  16   3  13    6.97  193.54
 -16  -2 -13   33.45  140.40
  16   2  13 -405.61  195.18
  16   2  13   70.96   98.13
 -16  -1 -13  -30.85  133.62
  16   1  13 -332.75  204.72
  16   1  13   36.57   92.66
 -16   0 -13  406.91  144.55
 -16   0 -13  -24.19  163.17
  16   0  13    6.04  101.60
  16   0  13    7.80  216.46
 -16   1 -13   59.87  178.94
 -16   1 -13  119.15  145.55
  16  -1  13  456.88  111.12
  16  -1  13   -8.02  209.89
 -16   2 -13 -119.63  186.15
 -16   2 -13  -42.52  140.79
  16  -2  13   23.19   96.16
  16  -2  13  181.92  216.26
 -16   3 -13   75.93  195.79
 -16   3 -13  479.49  164.22
  16  -3  13  293.35  219.41
  16  -3  13    5.86  105.14
 -16   4 -13  225.10  193.28
 -16   4 -13  110.01  164.17
  16  -4  13 -137.27   97.78
  16  -4  13    7.50  194.48
 -16   5 -13  -79.78  189.31
 -16   5 -13   71.94  172.87
  16  -5  13  190.49  199.61
  16  -5  13  384.77  113.20
 -16   6 -13  -72.60  175.79
 -16   6 -13  142.23  186.06
  16  -6  13   75.01  100.03
  16  -6  13   71.88  174.37
 -16   7 -13  392.69  333.34
 -16   7 -13  447.09  325.37
  16  -7  13 1095.79  266.12
 -16   8 -13   86.83  181.15
  16  -8  13  268.48  114.11
 -17  -2 -13  111.50  155.32
  17   2  13 -312.93  231.86
  17   2  13    7.12  103.64
 -17  -1 -13  167.61  186.36
 -17  -1 -13   41.34  152.75
  17   1  13   -6.92  107.69
  17   1  13   16.58  224.72
 -17   0 -13   97.09  185.73
 -17   0 -13  233.88  157.75
  17   0  13  174.03  109.56
  17   0  13   76.83  245.96
 -17   1 -13  107.04  154.29
 -17   1 -13  269.29  196.89
  17  -1  13   34.79  235.84
  17  -1  13   46.67  109.81
 -17   2 -13  423.83  159.79
 -17   2 -13  437.14  208.35
  17  -2  13 -231.46  227.95
  17  -2  13 -302.58  112.77
 -17   3 -13 -273.73  189.43
 -17   3 -13  -42.90  232.31
  17  -3  13 -527.81  128.07
 -17   4 -13 1013.50  508.97
 -17   4 -13 1806.00  490.36
  17  -4  13 1140.87  402.20
 -17   5 -13  123.34  209.59
 -17   5 -13   63.57  178.74
  17  -5  13 -149.16  113.39
  17  -5  13 -553.29  215.48
 -17   6 -13   35.67  190.04
 -17   6 -13 -229.01  212.29
  17  -6  13  215.54  111.79
  17  -6  13   40.01  195.94
 -17   7 -13   57.09  192.65
 -17   7 -13  208.31  190.76
  17  -7  13 -191.06  195.79
  17  -7  13  161.97  113.96
 -17   8 -13  -64.72  192.45
  17  -8  13  246.78  113.98
 -18  -3 -13 -264.77  172.56
  18   3  13   -8.64  236.81
 -18  -2 -13 -257.40  185.06
  18   2  13  387.57  252.82
  18   2  13 -228.95  129.36
 -18  -1 -13  193.01  170.32
 -18  -1 -13   73.74  191.43
  18   1  13  191.03  260.47
  18   1  13   84.81  125.19
 -18   0 -13 -164.15  172.48
 -18   0 -13   -9.84  202.70
  18   0  13    9.33  259.83
  18   0  13 -245.01  121.89
 -18   1 -13  290.84  222.74
 -18   1 -13 -319.88  177.86
  18  -1  13 -571.55  260.28
  18  -1  13    7.37  118.84
 -18   2 -13   -7.43  180.29
 -18   2 -13 -284.59  232.69
  18  -2  13 -428.94  122.66
  18  -2  13   18.64  243.82
 -18   3 -13   11.91  236.49
 -18   3 -13  -97.60  180.28
  18  -3  13    7.20  116.06
  18  -3  13  490.50  250.29
 -18   4 -13  174.14  233.82
 -18   4 -13  205.11  190.07
  18  -4  13    7.19  121.20
  18  -4  13 -326.43  238.48
 -18   5 -13  245.12  184.23
 -18   5 -13 -138.53  243.37
  18  -5  13  325.14  121.24
  18  -5  13 -405.26  234.67
 -18   6 -13 -257.99  236.51
 -18   6 -13   38.09  190.95
  18  -6  13  165.32  121.94
  18  -6  13 -399.35  231.32
 -18   7 -13 -411.17  208.20
 -18   7 -13  232.39  240.40
  18  -7  13 -398.56  123.86
 -18   8 -13  -69.01  201.45
  18  -8  13 -265.65  122.32
 -19   0 -13  241.49  201.68
  19   0  13  313.16  153.16
 -19   1 -13 -239.51  195.25
  19  -1  13    8.16  138.31
 -19   2 -13 -295.42  212.57
  19  -2  13 -393.23  148.24
 -19   3 -13   49.15  198.48
   0   0 -14  978.44  241.61
   0   1 -14  -46.25   55.95
   0   1 -14  -12.91   27.73
   1   0 -14   17.34   35.49
  -1   0 -14   -5.36   33.94
   0  -1  14  -19.22   61.87
  -1   0  14  -23.29   71.38
  -1   1 -14  647.34  142.46
   1   1 -14  384.97  162.03
  -1   1 -14  426.31  165.83
   1   1 -14  610.96  137.09
   1  -1  14  582.90  150.74
  -1  -1  14  431.33  166.43
   1  -1  14  568.33  170.41
  -1   2 -14    2.72   52.31
   2   1 -14   20.58   59.85
  -1   2 -14   33.24   26.50
   2   1 -14   44.14   31.58
   1  -2  14  -11.53   67.80
   1  -2  14  -52.08   37.13
  -2  -1  14  126.18   70.79
   2   0 -14   95.46   40.90
  -2   0 -14   87.29   41.19
   0   2 -14  150.21   56.80
   0   2 -14   73.53   31.90
   2   0 -14   50.99   68.73
   0  -2  14   -4.79   64.76
  -2   0  14   47.87   81.59
   0  -2  14   83.76   31.83
  -2   1 -14   49.15   27.98
  -2   1 -14    3.30   73.65
   1   2 -14   74.93   26.49
   1   2 -14   48.83   56.32
   2  -1  14  -59.18   42.95
  -1  -2  14   17.12   65.54
   2   2 -14   26.06   35.95
   2   2 -14   97.74   66.47
  -2   2 -14   74.27   36.34
  -2   2 -14  137.92   66.65
  -2  -2  14  151.63   73.38
  -2   3 -14   20.87   46.71
  -2   3 -14   13.84   21.94
   3   2 -14    2.09   28.51
  -2   3 -14   -9.55   24.38
   3   2 -14   40.35   59.94
  -2   3 -14   33.28   23.20
  -3  -2  14    2.72   67.48
   2  -3  14   -1.05   38.49
   2  -3  14  -30.14   54.48
  -1   3 -14  -29.88   20.30
   3   1 -14  -28.63   30.37
   3   1 -14   -7.10   62.15
  -1   3 -14  -11.53   25.34
  -1   3 -14  -96.22   55.60
   1  -3  14  -79.05   58.95
  -3  -1  14  -67.82   79.88
   0   3 -14  -77.67   59.38
   3   0 -14  -12.02   73.75
   0   3 -14  -41.58   27.08
   0  -3  14  -81.60   61.44
  -3   0  14  -14.20   81.74
   1   3 -14    1.81   27.00
   1   3 -14  -33.93   56.72
  -3   1 -14  -53.92   32.20
   3  -1  14 -199.23   75.73
  -1  -3  14  -73.31   62.51
   2   3 -14   17.07   24.08
   2   3 -14    5.49   51.94
  -3   2 -14    5.48   54.14
  -3   2 -14    9.15   22.04
   3  -2  14  -53.65   59.64
  -2  -3  14   27.45   57.48
   3  -2  14    4.25   47.33
  -3   3 -14  427.75  102.57
  -3   3 -14  433.75   94.09
   3   3 -14  372.71  109.53
  -3   3 -14  365.95  110.13
   3   3 -14  376.94   89.61
  -3   3 -14  380.20   92.67
   3  -3  14  283.85   92.34
  -3  -3  14  416.51  117.86
   3  -3  14  296.79  114.22
   3  -3  14  223.67  107.18
  -3   4 -14  515.24  124.90
   4   3 -14  524.44  140.84
  -3   4 -14  324.61  137.10
  -3   4 -14  501.86  129.15
   3  -4  14  556.43  140.63
  -4  -3  14  379.48  148.90
   3  -4  14  470.86  120.11
   3  -4  14  550.13  120.48
   3  -4  14  692.05  144.05
  -2   4 -14  -24.67   21.97
   4   2 -14    9.90   63.48
  -2   4 -14    8.72   45.27
  -4  -2  14   55.18   74.93
   2  -4  14   10.54   17.55
   2  -4  14   29.37   23.09
   2  -4  14 -111.03   51.38
  -1   4 -14  507.14  126.36
   4   1 -14  422.06  150.51
   4   1 -14  594.36  124.13
  -1   4 -14  460.90  141.83
  -4  -1  14  466.38  162.30
   1  -4  14  502.02  147.79
   1  -4  14  520.46  123.67
   0   4 -14   16.89   24.00
  -4   0 -14    9.24   32.06
   4   0 -14  -16.54   70.19
   4   0 -14  -11.98   36.58
   0   4 -14   -2.41   48.51
  -4   0  14    3.72   82.77
   0  -4  14   18.91   26.89
   4   0  14   17.71   46.08
   0  -4  14    5.83   54.16
   1   4 -14  574.24  119.80
   1   4 -14  281.50  137.35
  -1  -4  14  404.07  119.68
  -1  -4  14  463.74  146.14
   4  -1  14  611.38  150.40
   2   4 -14   50.69   53.93
  -4   2 -14    9.70   21.01
   2   4 -14   -1.86   23.01
  -2  -4  14    2.19   58.90
  -4   3 -14  465.24  137.32
   3   4 -14  358.33  129.62
   3   4 -14  540.41  148.57
  -4   3 -14 1020.40  153.92
   4  -3  14  954.97  158.97
  -3  -4  14  607.92  156.87
   4  -3  14  462.60  133.14
  -4   4 -14  449.59  116.35
  -4   4 -14  360.75  129.21
   4   4 -14  354.03  129.82
   4  -4  14  493.82  134.91
  -4  -4  14  452.73  140.74
   4  -4  14  521.94  111.36
   4  -4  14  475.33  111.62
  -4   5 -14  176.02   65.13
  -4   5 -14  113.12   48.20
   5   4 -14  127.84   74.93
   5   4 -14  207.00   47.81
   4  -5  14  131.47   67.48
  -5  -4  14  130.20   84.92
   4  -5  14  148.86   45.34
  -5  -4  14  157.99   53.77
  -3   5 -14  380.34  113.50
  -3   5 -14  409.86  130.48
   5   3 -14  383.84  130.36
   5   3 -14  417.30  105.86
   3  -5  14  398.49  107.19
  -5  -3  14  397.83  143.17
   3  -5  14  448.45  134.52
  -2   5 -14  403.03  117.42
   5   2 -14  373.86  125.19
   5   2 -14  527.67   97.15
  -2   5 -14  353.39  102.48
   2  -5  14  410.91  120.94
  -5  -2  14  229.23  136.01
   2  -5  14  405.86   98.50
  -1   5 -14  801.14  278.97
   5   1 -14 1117.09  267.26
   5   1 -14  759.03  242.18
   5   1 -14 1144.09  280.28
  -5  -1  14  875.19  299.66
   1  -5  14 1412.26  288.11
   0   5 -14   14.73   25.58
   5   0 -14  -21.06   39.36
   5   0 -14   21.51   75.13
   0   5 -14    2.49   51.16
  -5   0  14    7.86   86.68
   0  -5  14   12.93   25.22
   0  -5  14   -7.80   52.76
   5   0  14   27.17   54.86
  -5   1 -14 1005.14  300.46
   1   5 -14 1062.33  281.89
  -1  -5  14 1285.03  292.76
   5  -1  14 1134.75  265.28
  -1  -5  14 1063.42  248.67
   5  -1  14  927.63  302.24
   2   5 -14  227.29  114.07
   2   5 -14  527.48   94.32
  -5   2 -14  413.87  109.89
  -2  -5  14  160.25   93.97
   5  -2  14  421.35   97.56
   5  -2  14  368.88  127.62
  -2  -5  14  410.96  120.34
   3   5 -14  533.31  139.41
  -5   3 -14  607.70  133.86
  -5   3 -14  478.91  129.24
   3   5 -14  481.59  118.94
  -3  -5  14  679.58  147.14
   5  -3  14  516.42  120.27
   5  -3  14  441.52  147.07
  -3  -5  14  423.42  119.39
  -5   4 -14  234.32   63.08
  -5   4 -14  161.09   49.60
  -5   4 -14  124.93   62.48
  -5   4 -14  229.60   63.19
   4   5 -14  175.44   78.91
   5  -4  14  189.60   46.95
   5  -4  14  135.57   77.05
  -4  -5  14  258.14   85.06
   5  -4  14  126.09   50.66
   5   5 -14  630.22  164.48
  -5   5 -14  543.39  152.80
  -5   5 -14  638.37  167.16
   5   5 -14  540.59  138.19
  -5   5 -14  676.11  159.16
   5  -5  14  622.12  143.02
  -5  -5  14  475.15  140.26
   5  -5  14  686.87  170.83
   5  -5  14  591.71  167.65
   5  -5  14  636.87  149.05
  -5  -5  14  433.02  176.53
  -5   6 -14    2.15   27.36
  -5   6 -14   48.32   47.75
   6   5 -14   20.65   75.79
   6   5 -14    2.35   31.17
   5  -6  14   19.83   26.32
  -6  -5  14   46.51   77.33
   5  -6  14   -7.77   48.46
  -6  -5  14  -71.82   40.18
   6   4 -14  391.26  135.37
   6   4 -14  415.71  107.20
  -4   6 -14  412.94  119.95
  -4   6 -14  333.39  132.51
   4  -6  14  465.26  111.55
  -6  -4  14  450.20  147.98
  -6  -4  14  659.80  113.53
   6   3 -14  576.73  102.96
  -3   6 -14  427.77  125.30
  -3   6 -14  390.35  110.39
   6   3 -14  254.74  126.36
   3  -6  14  333.38  104.00
  -6  -3  14  478.95  142.22
   6   2 -14  193.27  121.28
   6   2 -14  322.09   89.10
  -2   6 -14  475.68   94.64
  -2   6 -14  318.26  109.87
  -6  -2  14  304.29  134.55
   2  -6  14  369.96   89.33
  -1   6 -14  157.49   56.86
  -1   6 -14   55.91   34.96
   6   1 -14  102.59   43.93
   6   1 -14   57.59   77.61
   1  -6  14  120.40   34.42
  -6  -1  14   -3.72   93.84
   6   1  14   75.71   61.34
  -6   0 -14  437.10   89.15
  -6   0 -14  219.34   92.56
   6   0 -14  320.81   79.77
   0   6 -14  257.37   91.38
   6   0 -14  135.22  108.94
   0   6 -14  336.29   73.45
   6   0  14  281.81  100.83
   0  -6  14  242.47   70.97
  -6   0  14  159.15  124.15
   1   6 -14   66.58   57.11
   1   6 -14  105.56   35.11
  -6   1 -14   76.19   51.24
  -1  -6  14   67.65   34.34
   6  -1  14   93.77   77.63
   6  -1  14   67.28   41.11
   2   6 -14  429.38  113.13
  -6   2 -14  287.69  106.95
   2   6 -14  227.99   93.09
   6  -2  14  354.68   93.91
  -2  -6  14  368.75   91.85
  -2  -6  14  602.64  117.31
   6  -2  14  376.17  130.25
   3   6 -14  390.83  104.15
  -6   3 -14  460.32  118.48
  -6   3 -14  419.95  119.69
   3   6 -14  413.06  126.31
  -3  -6  14  447.86  103.63
   6  -3  14  271.03  105.27
   6  -3  14  571.49  136.04
  -3  -6  14  527.85  130.77
  -6   4 -14  488.65  121.49
  -6   4 -14  367.65  129.99
   4   6 -14  444.87  130.88
  -4  -6  14  678.77  139.39
   6  -4  14  374.79  133.13
   6  -4  14  364.28  112.40
  -6   5 -14   65.31   57.78
   5   6 -14   26.99   35.15
  -6   5 -14    5.91   56.10
   5   6 -14   46.17   66.05
  -5  -6  14  -11.53   37.38
   6  -5  14   -5.50   33.36
  -5  -6  14  -34.70   72.71
   6  -5  14  -45.23   72.12
   6   6 -14  158.57   83.87
   6   6 -14  194.51   52.91
  -6  -6  14   91.01   55.85
  -6  -6  14  213.45   93.35
   7   6 -14   -5.35   39.70
   7   6 -14   75.55   79.74
  -7  -6  14   40.99   88.06
  -7  -6  14  -15.99   44.71
  -5   7 -14  209.71   98.97
   7   5 -14  394.61  114.11
   7   5 -14  233.98   80.63
  -7  -5  14  369.41   84.73
  -7  -5  14  339.94  123.89
  -4   7 -14   12.93   49.73
   7   4 -14    3.67   74.95
   7   4 -14  119.20   35.71
   4  -7  14   19.35   31.58
  -7  -4  14   12.74   42.87
  -7  -4  14   98.63   89.27
   7   3 -14  534.48  157.63
  -3   7 -14  599.23  150.42
  -3   7 -14  440.59  142.14
   7   3 -14  422.64  126.67
   3  -7  14  602.87  133.75
  -7  -3  14  552.53  174.09
   7   2 -14  353.12   78.40
  -2   7 -14  254.65   82.71
   7   2 -14  261.48  109.94
  -2   7 -14  335.39   90.57
   2  -7  14  294.87   76.70
  -7  -2  14  264.90  126.81
   7   1 -14  953.42  189.38
  -1   7 -14  925.05  211.09
  -1   7 -14  712.50  201.40
   7   1 -14  650.20  225.75
   1  -7  14  785.56  191.20
   7   1  14  822.13  217.21
  -7  -1  14  798.69  248.26
  -7   0 -14   22.02   53.18
   0   7 -14  -45.57   54.66
   0   7 -14   10.23   32.61
   7   0 -14    7.40   40.08
   7   0 -14   37.98   83.36
   7   0 -14   -6.25   46.61
   7   0  14   -5.60   74.08
   0  -7  14  -14.95   31.68
  -7   0  14   -4.49  103.71
   7   0  14  -42.49   45.05
   1   7 -14  841.33  181.68
  -7   1 -14  880.35  204.02
   1   7 -14  646.81  196.32
   7  -1  14  709.67  178.28
  -1  -7  14  438.21  173.65
   7  -1  14  733.64  226.41
   2   7 -14  335.06   74.64
  -7   2 -14  259.75   88.76
   2   7 -14  306.25   89.54
   7  -2  14  150.79   74.75
   7  -2  14  362.46  121.13
  -2  -7  14  242.27   71.98
   3   7 -14  348.48  146.24
   3   7 -14  517.67  130.45
  -7   3 -14  695.39  149.04
  -7   3 -14  508.78  150.40
  -3  -7  14  618.46  127.98
   7  -3  14  542.37  132.03
   7  -3  14  524.38  170.20
  -7   4 -14   83.31   62.80
  -7   4 -14   74.35   60.82
   4   7 -14   24.80   63.53
   7  -4  14  104.11   81.36
   7  -4  14   54.90   39.58
   5   7 -14  330.52   84.66
  -7   5 -14  271.32  117.12
   5   7 -14  356.95  109.76
  -7   5 -14  309.14  104.43
  -5  -7  14  390.99   85.43
   7  -5  14  307.27   91.86
   7  -5  14  343.02  115.12
   6   7 -14   14.28   81.39
   6   7 -14   -5.67   41.64
   7  -6  14  -21.71   77.81
  -6  -7  14   12.33   40.47
  -6  -7  14  -32.31   83.29
   7  -6  14   21.20   42.55
   7   7 -14  313.18   57.38
   7   7 -14  134.54   92.38
  -7  -7  14   77.74   57.79
  -7  -7  14  -47.25  100.87
   8   7 -14  209.78   54.42
   8   7 -14   41.09   96.10
  -8  -7  14  150.13   52.56
  -8  -7  14   13.66  106.08
   8   6 -14   70.06   43.29
   8   6 -14  204.32   91.25
  -8  -6  14    3.37   48.49
  -8  -6  14  -50.60   97.29
   8   5 -14   10.46   38.49
  -5   8 -14  -10.99   50.74
   8   5 -14   38.74   82.28
  -8  -5  14    3.34   44.80
  -8  -5  14   23.83   94.49
   8   4 -14 1383.71  282.48
  -4   8 -14  952.01  280.37
  -8  -4  14  512.76  250.10
  -8  -4  14 1256.87  311.89
   8   3 -14   -8.00   83.47
   8   3 -14  161.19   45.58
  -3   8 -14  178.50   60.05
  -8  -3  14   43.46  102.33
  -2   8 -14  459.47  139.23
   8   2 -14  374.69  157.25
   8   2 -14  472.52  120.56
  -8  -2  14  439.76  183.17
   2  -8  14  451.91  130.14
   8   1 -14  -23.15   88.36
  -1   8 -14   25.38   51.03
   8   1 -14   16.73   37.95
  -8  -1 -14   -3.31   59.16
  -1   8 -14   37.24   41.26
   1  -8  14   35.25   34.66
  -8  -1  14  -90.66  111.96
   8   1  14  109.38   79.64
  -8   0 -14  767.04  182.75
   8   0 -14  616.81  158.71
   8   0 -14  660.87  169.52
   8   0 -14  758.25  195.55
   0   8 -14  556.98  169.41
   0   8 -14  733.85  165.60
  -8   0  14  517.51  221.85
   8   0  14  586.16  159.14
   0  -8  14  605.55  157.19
   8   0  14  596.82  196.80
   1   8 -14   36.86   37.82
  -8   1 -14   32.35   53.88
   1   8 -14    8.16   56.64
   8  -1  14   47.79   44.06
   8  -1  14   95.00   95.14
  -1  -8  14   -2.98   36.41
   2   8 -14  588.33  143.26
  -8   2 -14  536.33  157.53
   2   8 -14  704.55  151.80
  -2  -8  14  617.73  138.69
   8  -2  14  486.34  188.87
   8  -2  14  577.67  138.76
   3   8 -14  104.23   46.65
  -8   3 -14   63.41   62.71
  -8   3 -14   33.84   74.71
   3   8 -14  205.54   65.27
   8  -3  14    4.66   44.14
  -3  -8  14   83.13   44.22
   8  -3  14   60.01   99.94
   4   8 -14 1819.04  281.55
  -8   4 -14  774.16  283.11
   4   8 -14 1367.86  265.71
  -8   4 -14  846.66  310.25
   8  -4  14  796.91  272.57
  -4  -8  14 1262.56  259.09
   8  -4  14 1127.01  297.71
  -8   5 -14   11.70   78.23
   5   8 -14   10.01   69.76
   5   8 -14    9.65   42.28
  -8   5 -14    7.44   70.09
   8  -5  14  -37.31   86.33
   8  -5  14   27.19   44.21
  -5  -8  14   -3.27   43.85
   6   8 -14   10.73   78.05
  -8   6 -14  179.68   81.35
   6   8 -14   19.93   47.96
  -8   6 -14   87.38   89.72
   8  -6  14  160.75   89.79
  -6  -8  14  108.92   51.63
   8  -6  14   90.56   51.64
   7   8 -14    3.91   84.69
   9   8 -14    3.75   49.37
   9   8 -14   -4.49   87.93
  -9  -8  14    3.92   51.92
   9   6 -14  152.70   59.40
   9   6 -14    8.48  106.36
  -9  -6  14  315.84   65.17
  -9  -6  14   33.10  118.32
   9   5 -14    4.17   94.15
   9   5 -14  115.40   49.20
  -9  -5  14  145.10   56.42
  -9  -5  14  -14.88  110.69
  -4   9 -14    2.42   52.45
   9   4 -14   25.24   92.91
   9   4 -14   81.54   39.33
  -9  -4  14  -21.38   50.52
  -9  -4  14   41.59  104.26
  -3   9 -14  658.62  176.20
   9   3 -14  434.23  196.03
   9   3 -14  621.28  154.89
  -9  -3  14  612.59  223.96
   9   2 -14  -54.54   95.71
  -2   9 -14  -15.53   52.52
   9   2 -14   10.88   40.04
  -9  -2  14   38.74  117.14
   9   2  14   26.49   84.04
  -1   9 -14  369.29  110.27
   9   1 -14  375.03  138.24
  -9  -1 -14  366.75  127.19
   9   1 -14  370.53   98.86
  -9  -1  14  345.50  167.28
   9   1  14  388.92  137.57
   9   1  14  372.26  105.15
   9   0 -14   -9.67   44.48
   0   9 -14   66.49   56.45
  -9   0 -14    6.23   67.14
  -9   0  14  -52.18  125.87
   9   0  14 -121.50  102.41
   9   0  14  -80.89   52.93
   1   9 -14  416.66  109.75
  -9   1 -14  408.65  116.99
   9  -1  14  249.56  152.82
  -1  -9  14  381.65   99.56
   9  -1  14  335.52  100.10
   2   9 -14    3.65   46.45
  -9   2 -14  -24.19   64.01
   2   9 -14   23.91   61.81
   9  -2  14    2.73   47.35
   9  -2  14 -162.17  116.97
  -2  -9  14  -49.45   43.56
  -9   3 -14  510.97  201.19
   3   9 -14  449.67  184.18
   3   9 -14  872.96  179.84
  -9   3 -14 1100.25  201.57
   9  -3  14  663.34  175.20
  -3  -9  14  756.19  171.55
   9  -3  14  741.60  219.91
   4   9 -14   19.68   72.22
  -9   4 -14   21.20   78.57
   4   9 -14  104.28   48.87
  -9   4 -14  -31.94   82.27
   9  -4  14  135.32  106.98
  -4  -9  14   -3.63   45.52
   9  -4  14   70.30   49.26
  -9   5 -14  189.63   90.68
   5   9 -14    3.47   80.80
  -9   5 -14  153.54   99.89
   9  -5  14  232.38  106.14
   9  -5  14  272.44   64.31
  -9   6 -14  191.98  115.24
  -9   6 -14  109.28  102.31
   9  -6  14  327.25   76.97
   9  -6  14  243.10  110.53
   7   9 -14   -4.04   52.88
   9  -7  14  -24.98   55.36
  -7  -9  14    4.04   48.09
   8   9 -14   37.69   51.87
   8   9 -14   12.65   91.41
  -8  -9  14  -42.20   52.88
   9   9 -14   74.04   58.64
   9   9 -14  -50.69   98.31
  -9  -9  14   -4.43   55.52
  10   9 -14    4.96  112.76
  10   9 -14  -27.23   62.07
 -10  -9  14   46.50   61.62
 -10  -9  14    4.12  117.47
  10   8 -14    7.84   54.69
  10   8 -14 -186.99  106.30
 -10  -8  14   -4.18   54.79
 -10  -8  14   36.35  118.85
  10   7 -14  -13.53   44.67
 -10  -7  14   53.62   53.56
  10   5 -14   -2.88   43.55
  10   5 -14   26.86   97.95
 -10  -5  14  156.18   52.84
 -10  -5  14  -47.75  116.87
  10   4 -14  304.07   76.93
  10   4 -14  201.89  117.81
 -10  -4  14  243.92   84.66
 -10  -4  14  222.53  140.61
  10   3 -14   37.00   96.94
  10   3 -14   82.54   41.17
 -10  -3  14   21.63  117.90
  10   2 -14  117.24   50.84
  10   2 -14  132.35  102.17
 -10  -2  14  139.99  130.45
  10   2  14    3.72  100.43
  10   1 -14   29.82   42.92
  10   1 -14   20.93  100.52
 -10  -1 -14  -26.57   75.76
  10   1  14   -3.83   56.68
  10   1  14 -199.94  106.21
 -10  -1  14  126.56  131.76
 -10   0 -14  -43.02   71.97
  10   0 -14  -13.06   50.31
 -10   0  14  -45.01  137.41
  10   0  14  -41.00   56.13
  10   0  14    4.17  113.46
 -10   1 -14   12.27   68.96
  10  -1 -14  -78.92   54.65
  10  -1  14   -6.35   52.02
  10  -1  14 -119.59  127.35
 -10   2 -14   96.93   99.86
 -10   2 -14  122.02   77.19
  10  -2  14  214.21  129.92
  10  -2  14   59.95   57.13
 -10   3 -14  -32.10   79.64
 -10   3 -14   80.93   96.15
  10  -3  14   51.84  126.01
  10  -3  14   45.37   52.51
 -10   4 -14  310.77  120.88
 -10   4 -14  293.84  121.01
  10  -4  14  236.90  133.22
  10  -4  14  341.63   90.24
 -10   5 -14   18.85  101.60
 -10   5 -14   79.97   91.81
  10  -5  14   37.92   55.76
  10  -5  14   58.16  107.59
 -10   6 -14  125.36  110.54
   6  10 -14    3.89   78.91
 -10   6 -14  -15.16   91.79
  10  -6  14   91.35  109.04
  10  -6  14  -13.35   58.24
  -6 -10  14   13.41   52.53
   7  10 -14   32.73   85.54
  10  -7  14   38.11   64.75
  -7 -10  14   74.15   62.67
   8  10 -14    4.37   94.33
  -8 -10  14  -33.78   61.76
   9  10 -14   51.50   96.87
  -9 -10  14    5.04   59.50
  10  10 -14  -75.11  111.70
 -10 -10  14  -15.80   65.01
  11  10 -14   -5.43  121.35
 -11 -10  14  -41.32  139.01
 -11 -10  14   71.59   74.15
  11   9 -14   99.60   65.80
  11   9 -14  -68.05  118.17
 -11  -9  14    4.95   61.90
 -11  -9  14   26.47  126.67
  11   8 -14    4.10   55.83
  11   8 -14   -5.12  108.34
 -11  -8  14  -57.12   56.91
 -11  -8  14   35.15  126.55
  11   7 -14   54.91   52.18
  11   7 -14 -240.38  114.67
 -11  -7  14   73.40  130.18
 -11  -7  14  -12.10   53.60
 -11  -6  14   34.81   51.94
  11   5 -14   -4.75  102.01
 -11  -5  14   94.19  121.41
  11   4 -14   44.19   44.27
  11   4 -14  -23.82  105.25
 -11  -4  14  114.77   55.37
 -11  -4  14  106.00  131.23
  11   3 -14   93.33  102.42
  11   3 -14    2.87   41.39
 -11  -3  14   -4.07   55.99
 -11  -3  14  109.00  133.18
  11   2 -14   47.18  104.04
  11   2 -14   35.89   48.06
 -11  -2 -14   -8.90   84.87
 -11  -2  14   15.05  135.70
 -11  -1 -14  127.00   88.52
  11   1 -14  204.56  113.17
  11   1 -14   52.38   53.79
  11   1  14  119.25   72.22
 -11  -1  14  241.75  145.25
 -11   0 -14   14.52   79.61
  11   0 -14   33.21   49.67
  11   0  14  217.60  132.01
  11   0  14 -105.20   58.34
 -11   1 -14   27.50   82.34
  11  -1 -14  -33.85   57.70
  11  -1 -14   26.95   65.22
  11  -1  14  114.71  146.27
  11  -1  14   21.22   59.46
 -11   2 -14    5.18  102.18
 -11   2 -14  -34.51   83.45
  11  -2  14  -69.80  150.91
  11  -2  14 -182.02   55.52
 -11   3 -14   94.36  106.71
 -11   3 -14   29.13   91.30
  11  -3  14    4.84  136.07
  11  -3  14  105.92   59.84
 -11   4 -14  -15.60  100.22
 -11   4 -14   57.75  106.93
  11  -4  14  221.09  127.52
  11  -4  14   84.74   69.17
 -11   5 -14   76.01  107.01
 -11   5 -14   87.09  111.51
  11  -5  14  -28.60   66.89
 -11   6 -14   13.29  118.60
 -11   6 -14  -33.83  102.79
  11  -6  14  445.43  119.08
  11  -6  14  -48.09   74.09
 -11   7 -14   36.64  124.10
  11  -7  14   41.71   69.13
  12  10 -14    5.79  133.76
 -12 -10  14    5.75   70.79
 -12 -10  14    9.78  144.65
  12   9 -14   49.43   71.87
  12   9 -14   49.98  128.91
 -12  -9  14  218.07  151.81
 -12  -9  14   -5.19   67.49
  12   8 -14  145.59  121.59
  12   8 -14    4.44   64.44
 -12  -8  14    9.22   60.82
 -12  -8  14 -139.74  139.62
  12   7 -14   66.89  110.39
  12   7 -14  -72.74   54.19
 -12  -7  14    4.22   54.10
 -12  -7  14  222.74  138.93
  12   6 -14   51.06   51.95
  12   6 -14  261.47  114.96
 -12  -6  14   19.98   55.89
 -12  -6  14  -87.33  134.89
 -12  -5  14   36.65   56.87
  12   3 -14  240.21  118.31
  12   3 -14  181.49   51.93
 -12  -3  14   -4.23   59.77
 -12  -3  14   -5.08  155.22
  12   2 -14 -177.45  119.05
  12   2 -14   12.31   49.12
 -12  -2  14  -64.38  149.24
  12   2  14  325.05   74.70
  12   2  14 -377.36  126.31
  12   1 -14  -41.02  118.72
  12   1 -14   73.32   51.43
  12   1  14  177.65  139.28
 -12  -1  14   47.19  155.37
  12   0 -14   33.87   52.04
  12  -1 -14  -26.13   57.30
 -12   6 -14   63.25  114.56
  12  -6  14  -52.94  127.44
 -12   7 -14 -112.16  120.73
 -12   7 -14  268.66  132.74
  12  -7  14  399.74  127.94
  12  -7  14  191.16   77.95
  13  11 -14 -102.37  131.03
 -13 -11  14  135.36  162.49
  13  10 -14    6.10  133.77
 -13 -10  14   36.58  157.72
  13   9 -14 -499.49  133.10
  13   9 -14   -5.21   67.47
 -13  -9  14    5.42   66.99
 -13  -9  14  306.96  152.38
  13   8 -14  134.01  124.50
  13   8 -14  -55.60   71.72
 -13  -8  14   14.63   59.75
 -13  -8  14 -119.82  152.52
  13   7 -14   33.08   59.90
 -13  -7  14  -66.51   61.88
  13   6 -14 -421.58  119.07
  13   6 -14   58.42   56.43
 -13  -6  14   -4.15   57.58
 -13  -6  14  346.11  143.46
  13   5 -14  147.56  113.40
  13   5 -14   27.12   48.63
 -13  -5  14   58.74   57.55
 -13  -5  14  -29.66  147.25
 -13  -4  14  -42.45   55.44
  13   3  14   -5.05  131.02
 -13  -2 -14   99.01  110.56
  13   2  14  243.15   81.62
  13   2  14  187.54  145.59
 -13  -2  14   97.20  160.97
 -13  -1 -14  -76.12  107.27
  13   1  14    5.56  156.50
  13   1  14    4.79   74.02
 -13  -1  14 -176.23  171.99
 -13   0 -14   -4.35   92.48
  13   0  14    4.57   75.67
  13   0  14 -438.79  166.22
 -13   1 -14  -25.90  102.89
 -13   1 -14   -6.41  134.68
  13  -1  14    6.13  173.78
  13  -1  14  -30.68   76.99
 -13   2 -14  100.61  109.08
 -13   2 -14  105.67  137.01
  13  -2  14 -426.45  178.29
  13  -2  14    4.22   70.97
 -13   3 -14  -92.02  113.42
 -13   3 -14   40.95  141.01
  13  -3  14 -195.04  169.94
  13  -3  14  -21.62   75.33
 -13   4 -14  -20.68  135.28
 -13   4 -14 -218.02  124.04
  13  -4  14  101.25  156.68
  13  -4  14   88.20   80.34
 -13   5 -14   48.89  134.95
 -13   5 -14   15.23  136.10
  13  -5  14  142.25   81.01
  13  -5  14  128.78  147.84
 -13   6 -14  147.33  144.65
 -13   6 -14   71.10  130.22
  13  -6  14  416.80   91.15
  13  -6  14    5.32  142.66
 -13   7 -14   36.63  127.48
 -13   7 -14 -112.58  140.80
  13  -7  14  -63.12   84.74
  13  -7  14   10.76  140.77
  13  -8  14  -13.59   86.83
 -14 -11  14   -5.75  174.28
  14   3  14   -5.61  143.62
 -14  -2 -14  -39.45  114.29
  14   2  14  125.97   85.01
  14   2  14  110.46  160.55
 -14  -1 -14   36.74  115.43
  14   1  14   73.38   81.88
  14   1  14  -86.90  172.10
 -14   0 -14  140.58  111.52
  14   0  14   10.12   83.84
  14   0  14  118.02  190.77
 -14   1 -14 -135.35  113.71
 -14   1 -14    7.08  145.11
  14  -1  14    4.88   81.21
  14  -1  14  -87.35  185.21
 -14   2 -14   36.74  156.15
 -14   2 -14  102.86  118.92
  14  -2  14    4.71   81.50
  14  -2  14  271.66  190.56
 -14   3 -14  126.93  128.91
 -14   3 -14    7.66  156.67
  14  -3  14   52.79   82.64
  14  -3  14   64.95  179.49
 -14   4 -14  123.29  136.83
 -14   4 -14  109.26  156.14
  14  -4  14   14.83   87.61
  14  -4  14  280.94  178.29
 -14   5 -14  150.13  161.36
 -14   5 -14  -93.58  145.97
  14  -5  14  141.45   92.19
  14  -5  14  447.67  169.56
 -14   6 -14   48.07  149.28
 -14   6 -14   -5.73  153.49
  14  -6  14 -259.11   93.63
  14  -6  14 -135.55  158.73
 -14   7 -14  -75.46  157.42
 -14   7 -14   49.03  138.00
  14  -7  14   58.86   85.62
  14  -7  14 -141.67  148.90
 -14   8 -14 -110.74  147.61
  14  -8  14  122.95   84.85
 -15  -3 -14  -45.38  125.70
  15   3  14   37.45  166.84
 -15  -2 -14  -24.76  144.93
  15   2  14 -400.14  103.89
  15   2  14 -201.99  185.64
 -15  -1 -14 -185.97  128.93
  15   1  14  -97.93   96.97
  15   1  14  -48.29  196.94
 -15   0 -14  -64.88  126.63
  15   0  14  343.64  212.57
  15   0  14  -39.24   97.22
 -15   1 -14    5.40  128.55
 -15   1 -14  132.23  159.55
  15  -1  14  -96.00  214.87
  15  -1  14   75.81   93.97
 -15   2 -14   41.62  177.10
 -15   2 -14 -163.99  148.82
  15  -2  14 -349.23  108.23
  15  -2  14 -570.47  224.97
 -15   3 -14  202.76  148.16
 -15   3 -14  -17.39  180.94
  15  -3  14  221.47  203.41
  15  -3  14  148.43   97.68
 -15   4 -14 -157.22  149.01
 -15   4 -14   62.42  178.97
  15  -4  14 -635.64  190.02
  15  -4  14   27.24   92.66
 -15   5 -14  -42.14  153.12
 -15   5 -14   62.53  163.87
  15  -5  14  -92.84  175.25
  15  -5  14   -5.45   98.46
 -15   6 -14  262.14  171.70
 -15   6 -14  -18.36  158.75
  15  -6  14    5.33   88.48
  15  -6  14    6.53  161.53
 -15   7 -14  -18.59  158.63
 -15   7 -14  109.87  159.29
  15  -7  14   52.02  153.94
  15  -7  14   -5.29   85.93
 -15   8 -14  -87.18  178.01
  15  -8  14 -545.41  122.62
 -16  -3 -14   14.23  131.09
  16   3  14    6.99  183.38
 -16  -2 -14  -61.49  142.91
  16   2  14  118.20   97.45
  16   2  14 -370.38  200.71
 -16  -1 -14  -58.17  137.26
  16   1  14   30.39  208.60
  16   1  14  101.80  104.76
 -16   0 -14  386.43  156.36
 -16   0 -14   24.32  178.35
  16   0  14  211.78  231.52
  16   0  14  161.62  111.34
 -16   1 -14  392.11  152.93
 -16   1 -14   43.39  178.99
  16  -1  14  -96.24  101.14
  16  -1  14  283.23  228.30
 -16   2 -14  328.31  153.78
 -16   2 -14  168.92  194.57
  16  -2  14  240.88  228.76
  16  -2  14  202.87  108.39
 -16   3 -14  155.62  154.86
 -16   3 -14   29.08  200.93
  16  -3  14 -101.73  212.29
  16  -3  14 -197.11  101.94
 -16   4 -14 -180.04  192.00
 -16   4 -14   95.88  158.84
  16  -4  14   37.98  194.03
  16  -4  14   89.28  101.60
 -16   5 -14   32.63  167.35
 -16   5 -14  -20.35  182.00
  16  -5  14  331.45  192.89
  16  -5  14  -41.82  103.88
 -16   6 -14 -111.19  174.98
 -16   6 -14  -71.41  199.12
  16  -6  14  234.40  110.80
  16  -6  14 -817.64  223.36
 -16   7 -14 -144.01  186.42
 -16   7 -14 -200.58  178.22
  16  -7  14   71.92  181.06
  16  -7  14 -323.09  108.21
 -16   8 -14 -227.64  177.38
  16  -8  14   17.14   98.37
  17   3  14    7.80  235.66
  17   2  14    7.24  126.16
  17   2  14    8.05  249.69
 -17  -1 -14  118.26  193.12
  17   1  14 -360.09  123.18
 -17   0 -14   47.21  153.30
 -17   0 -14 -365.47  193.57
 -17   1 -14 -282.35  166.61
 -17   1 -14   48.67  205.86
 -17   2 -14   51.73  223.88
 -17   2 -14   74.22  178.32
  17  -2  14  403.13  132.67
  17  -2  14  433.54  283.85
 -17   3 -14  262.41  223.08
 -17   3 -14  600.78  187.66
  17  -3  14    6.57  118.49
  17  -3  14 -608.33  271.89
 -17   4 -14  134.30  225.71
 -17   4 -14  125.79  170.52
  17  -4  14 -417.05  222.77
  17  -4  14  125.13  114.99
 -17   5 -14  -22.88  225.65
 -17   5 -14 -425.36  183.51
  17  -5  14   46.19  113.21
  17  -5  14 -106.63  209.62
 -17   6 -14  -28.33  180.21
 -17   6 -14  -93.17  213.51
  17  -6  14  350.55  116.05
  17  -6  14 -152.52  204.78
 -17   7 -14  196.93  201.60
 -17   7 -14 -141.79  189.78
  17  -7  14 -470.48  205.05
  17  -7  14 -112.53  107.49
 -17   8 -14  -35.64  185.02
  17  -8  14 -221.21  107.56
 -18  -3 -14 -313.31  173.69
  18   3  14    8.68  224.72
 -18  -2 -14 -279.17  176.42
  18   2  14  433.63  256.29
  18   2  14    7.99  123.06
 -18  -1 -14 -305.99  192.27
 -18  -1 -14  137.08  175.96
  18   1  14    9.07  250.75
  18   1  14  235.43  126.46
 -18   0 -14 -548.75  181.30
 -18   0 -14  -79.30  204.32
  18   0  14   65.66  260.16
  18   0  14  137.75  120.20
 -18   1 -14   52.31  172.45
 -18   1 -14 -107.04  214.60
  18  -1  14   -9.46  263.15
  18  -1  14  114.00  121.31
 -18   2 -14   82.16  176.74
 -18   2 -14  -11.56  224.53
  18  -2  14  197.68  268.78
  18  -2  14  124.07  120.60
 -18   3 -14 -133.31  235.90
 -18   3 -14  -82.51  180.11
  18  -3  14   35.97  119.77
  18  -3  14    9.36  248.14
 -18   4 -14  256.38  186.64
 -18   4 -14 -266.31  247.42
  18  -4  14 -143.06  121.25
  18  -4  14 -265.85  232.47
 -18   5 -14  -51.39  239.90
 -18   5 -14  197.23  191.70
  18  -5  14  363.54  237.97
  18  -5  14   85.92  124.81
 -18   6 -14 -236.29  255.22
 -18   6 -14  129.44  196.34
  18  -6  14  268.02  222.20
  18  -6  14 -338.87  124.71
 -18   7 -14  -13.05  228.68
 -18   7 -14 -407.55  204.15
  18  -7  14 -232.71  125.11
   0   0 -15  -39.07   39.63
   0   1 -15 1320.01  424.21
   0   1 -15 1531.49  381.00
   1   0 -15 1605.44  382.19
   0  -1  15 1707.98  434.76
  -1   0  15 1607.35  438.29
   1   1 -15  -33.99   33.25
  -1   1 -15  -18.05   31.91
   1   1 -15  -14.71   69.90
  -1   1 -15  -64.96   64.03
  -1  -1  15  -15.45   71.42
   1  -1  15  -23.99   71.59
  -1   2 -15   -3.05   53.86
   2   1 -15   10.07   34.53
   2   1 -15    7.50   65.68
  -1   2 -15   -7.73   26.50
   1  -2  15   47.99   32.71
   1  -2  15   87.32   64.33
  -2  -1  15  -25.54   74.32
   0   2 -15   65.34   58.27
   2   0 -15  -18.66   40.15
   0   2 -15  -12.11   26.83
  -2   0 -15  -30.62   36.16
  -2   0  15   36.89   81.61
   0  -2  15  -50.43   68.37
  -2   1 -15    2.16   29.16
  -2   1 -15  -29.30   65.89
   1   2 -15  -38.08   59.76
   1   2 -15    6.31   27.16
   2  -1  15   52.03   38.25
   2  -1  15  -23.96   72.19
  -1  -2  15  -24.67   65.18
  -2   2 -15   55.27   59.58
   2   2 -15   -9.86   63.93
   2   2 -15    8.74   29.94
  -2   2 -15  -27.53   25.24
   2  -2  15  -95.97   67.54
  -2  -2  15  -83.37   70.98
   2  -2  15  -73.30   41.05
  -2   3 -15    1.72   23.55
   3   2 -15   11.36   30.04
   3   2 -15   17.15   59.89
  -2   3 -15   44.33   53.14
   2  -3  15   51.40   58.71
  -3  -2  15  -72.78   73.85
  -1   3 -15  384.48  106.83
   3   1 -15  232.20  131.26
   3   1 -15  389.28  103.91
  -1   3 -15  442.60  124.70
   1  -3  15  524.21  128.87
  -3  -1  15  350.07  139.42
   3   0 -15   28.11   38.09
   0   3 -15   17.09   27.60
  -3   0 -15  -34.57   36.22
   0   3 -15   -5.56   57.29
   3   0 -15   43.36   77.94
  -3   0  15  -26.72   84.20
   0  -3  15   52.54   58.83
   1   3 -15  493.04  112.95
   1   3 -15  404.61  131.57
  -3   1 -15  513.50  124.07
   3  -1  15  614.16  150.61
  -1  -3  15  396.51  137.49
  -3   2 -15    1.71   24.78
   2   3 -15   -6.04   55.71
  -3   2 -15  -15.53   61.87
   2   3 -15    6.19   26.42
   3  -2  15  -52.74   48.74
  -2  -3  15  -27.93   65.93
   3  -2  15   52.43   65.06
   3   3 -15   -8.60   28.42
  -3   3 -15   14.29   22.69
   3   3 -15   19.07   59.21
  -3   3 -15   -2.57   53.61
   3  -3  15  -19.61   47.50
  -3  -3  15  -26.92   68.14
   3  -3  15   -9.54   25.92
   3  -3  15  -63.82   59.63
   4   3 -15   94.27   69.06
  -3   4 -15  160.49   39.17
  -3   4 -15  178.81   60.36
   3  -4  15   26.39   62.61
   3  -4  15  116.35   38.20
  -4  -3  15  160.47   80.43
  -2   4 -15  512.66  155.89
   4   2 -15  294.85  157.49
  -2   4 -15  537.90  139.34
   2  -4  15  547.61  162.99
   2  -4  15  474.21  134.02
  -4  -2  15  713.98  173.01
  -1   4 -15  110.50   43.01
   4   1 -15   88.51   81.29
  -1   4 -15  109.28   65.17
   1  -4  15  164.73   67.87
  -4  -1  15  136.90   91.54
   1  -4  15  183.98   46.03
  -4   0 -15   10.10   35.84
   0   4 -15  -18.60   52.03
   0   4 -15   25.95   24.85
   4   0 -15  -17.84   80.68
  -4   0  15  -35.89   86.98
   0  -4  15    4.55   30.03
   4   0  15   21.74   47.15
   0  -4  15  -51.95   58.05
   1   4 -15  164.37   67.76
  -4   1 -15  184.89   52.07
   1   4 -15  197.77   46.88
  -1  -4  15  157.78   74.17
   4  -1  15   93.01   68.06
   2   4 -15  495.65  157.07
  -4   2 -15  656.23  170.05
   2   4 -15  714.43  175.91
  -4   2 -15  926.92  196.79
   4  -2  15  840.57  196.41
  -2  -4  15  849.07  184.77
  -4   3 -15  138.38   69.10
   3   4 -15   92.51   69.34
  -4   3 -15   70.57   38.86
   3   4 -15  156.17   41.15
  -3  -4  15  185.28   74.70
   4  -3  15  204.88   70.59
  -4   4 -15   -2.26   52.65
   4   4 -15  -26.03   61.42
  -4   4 -15    6.00   21.63
   4  -4  15   19.94   53.62
   4  -4  15  -53.96   23.47
  -4  -4  15   22.25   68.84
   5   4 -15  160.49   84.27
  -4   5 -15  230.84   75.27
   5   4 -15  158.82   53.97
  -4   5 -15  196.24   54.09
   4  -5  15  325.15   77.53
  -5  -4  15  136.68   94.12
   4  -5  15  106.18   50.57
   5   3 -15   94.20   40.29
  -3   5 -15  119.99   38.28
   5   3 -15   53.41   72.09
  -3   5 -15  118.05   63.91
   3  -5  15  104.58   37.03
  -5  -3  15  124.63   88.06
   3  -5  15   77.03   62.12
  -2   5 -15  193.85   54.78
  -2   5 -15  175.89   73.35
   5   2 -15   94.82   86.24
   5   2 -15  140.34   56.05
  -5  -2  15  253.54  101.08
   2  -5  15  215.58   54.28
   2  -5  15  329.68   77.67
  -1   5 -15  339.13   69.80
   5   1 -15  237.63   71.80
  -1   5 -15  259.96   88.81
   5   1 -15  248.35  104.72
   1  -5  15  300.42   92.67
   1  -5  15  178.98   67.78
  -5  -1  15  279.39  118.41
   5   0 -15  202.89   58.40
   0   5 -15  219.90   51.44
   0   5 -15  163.21   72.89
   5   0 -15  106.34   90.40
  -5   0 -15  188.14   61.52
  -5   0  15  142.86  105.59
   0  -5  15  215.33   75.37
   5   0  15  145.84   74.15
   0  -5  15  129.05   50.94
  -5   1 -15  218.85   80.40
  -5   1 -15  195.53   87.32
   1   5 -15  278.83   93.61
   1   5 -15  257.20   72.74
  -1  -5  15  347.23   97.90
  -1  -5  15  358.95   72.25
   5  -1  15  409.46  100.60
  -5   2 -15  188.13   53.44
   2   5 -15  244.10   52.91
   2   5 -15  110.17   76.73
  -5   2 -15  191.41   64.55
   5  -2  15  179.57   55.92
   5  -2  15  150.46   89.31
  -2  -5  15  230.02   80.99
  -2  -5  15  100.29   53.97
  -5   3 -15  141.85   36.40
  -5   3 -15   -8.25   52.56
  -5   3 -15  100.86   48.14
   3   5 -15   46.36   40.19
   3   5 -15   75.25   68.24
  -3  -5  15  162.58   43.65
   5  -3  15   97.13   40.56
  -3  -5  15  126.89   73.89
   5  -3  15  180.59   75.01
   5  -3  15  141.76   35.98
   5  -3  15  107.69   72.58
  -5   4 -15  243.04   80.03
   4   5 -15  217.14   88.81
  -5   4 -15  176.40   60.25
   5  -4  15  139.53   57.97
   5  -4  15  287.36   81.98
  -4  -5  15  325.66   95.97
   5  -4  15  326.23   61.41
   5  -4  15  386.56   85.95
  -5   5 -15   83.31   48.78
   5   5 -15   17.31   74.14
   5   5 -15    7.20   32.71
  -5   5 -15   -5.06   24.59
  -5  -5  15    5.83   76.28
  -5  -5  15   24.15   36.65
  -5   6 -15  233.74   99.73
   6   5 -15  304.70  118.71
  -5   6 -15  386.77  113.78
   6   5 -15  363.85   90.35
  -6  -5  15  467.77  134.25
  -6  -5  15  428.10   94.75
  -4   6 -15  320.92   80.95
   6   4 -15  216.87   75.45
   6   4 -15  348.12  106.49
  -4   6 -15  359.28   98.05
   4  -6  15  232.63   75.93
  -6  -4  15  163.90  121.13
   4  -6  15  439.56  100.62
   6   3 -15  210.21   65.63
  -3   6 -15  205.53   68.33
  -3   6 -15  258.38   84.54
   6   3 -15  193.24   98.62
  -6  -3  15  264.56  110.53
   3  -6  15  254.54   63.30
   3  -6  15  293.44   88.96
   6   2 -15  401.09  122.63
   6   2 -15  432.82  155.34
  -2   6 -15  493.78  151.35
  -2   6 -15  523.69  129.99
  -6  -2  15  381.28  171.18
   2  -6  15  472.92  123.44
   2  -6  15  771.36  155.08
  -1   6 -15  222.59   73.15
   6   1 -15  325.28   74.99
   6   1 -15  154.85  106.68
  -1   6 -15  329.76   93.03
  -6  -1  15  159.01  122.36
   1  -6  15  295.81   71.01
   1  -6  15  330.33   96.13
   6   1  15  258.38   93.81
   0   6 -15   -2.17   29.47
   6   0 -15    9.90   44.91
   0   6 -15   44.68   57.17
   6   0 -15    4.83   84.94
  -6   0  15   17.84  101.93
   0  -6  15   21.21   30.22
   6   0  15    7.40   66.49
   0  -6  15  -52.52   60.13
   1   6 -15  247.42   70.85
  -6   1 -15  158.88   89.35
   1   6 -15  238.57   93.72
   6  -1  15  220.59  106.64
   6  -1  15  271.33   75.76
  -1  -6  15  321.10   72.40
  -1  -6  15  375.90   98.05
  -6   2 -15  576.05  144.91
   2   6 -15  472.65  125.88
   2   6 -15  434.00  148.89
   6  -2  15  637.57  168.31
  -2  -6  15  482.87  125.19
  -2  -6  15  613.80  156.49
   6  -2  15  435.74  127.93
   3   6 -15  352.49   93.28
  -6   3 -15  219.15   78.91
  -6   3 -15  185.76   81.47
   3   6 -15  292.91   65.95
  -3  -6  15  357.63   95.32
  -3  -6  15  228.22   67.06
   6  -3  15  135.66   67.24
   6  -3  15  274.50  104.75
   4   6 -15  205.30  100.04
  -6   4 -15  332.06   92.10
  -6   4 -15  390.42   90.92
   4   6 -15  198.56   76.88
  -4  -6  15  265.91   78.99
   6  -4  15  465.46  107.46
   6  -4  15  266.53   78.42
  -4  -6  15  345.33  108.82
   5   6 -15  357.95  124.79
   5   6 -15  448.71   97.70
  -5  -6  15  344.13   99.39
  -5  -6  15  524.94  131.56
   6   6 -15  -91.03   93.82
   6   6 -15  -58.47   44.22
  -6  -6  15  -64.78   44.07
  -6  -6  15 -232.47   94.49
   7   6 -15    4.02   88.65
   7   6 -15  161.06   48.37
  -7  -6  15   17.10   51.79
  -7  -6  15   16.77   99.72
   7   5 -15    7.77   80.84
   7   5 -15    2.63   39.89
  -7  -5  15  -54.14   45.62
   7   4 -15  154.21   95.60
  -4   7 -15  168.88   75.76
  -4   7 -15  262.15   63.38
   7   4 -15  277.87   59.19
  -7  -4  15  178.87  111.53
   4  -7  15  204.37   57.86
  -7  -4  15  139.96   67.81
  -3   7 -15  200.37   70.93
   7   3 -15  150.83   52.57
   7   3 -15  134.03   95.38
  -3   7 -15  113.73   55.63
   3  -7  15  226.30   52.09
  -7  -3  15  180.32  108.63
   7   2 -15  656.79  169.18
  -2   7 -15  792.78  201.48
  -2   7 -15  776.41  186.60
   7   2 -15  528.39  205.04
   2  -7  15  714.49  174.58
  -7  -2  15  618.41  232.57
   7   1 -15   63.83   43.51
  -1   7 -15    2.66   60.02
   7   1 -15   28.13   87.90
  -1   7 -15   83.08   35.78
  -7  -1  15   72.57  107.24
   1  -7  15   37.48   35.99
   7   1  15   95.40   72.58
   7   0 -15  484.24   99.01
   0   7 -15  480.52  110.65
   0   7 -15  396.80   97.82
   7   0 -15  207.91  134.13
  -7   0 -15  222.85  115.75
  -7   0  15  219.13  154.21
   0  -7  15  376.42   91.52
   7   0  15  330.58  126.57
   1   7 -15   94.99   63.08
  -7   1 -15   59.96   54.95
   1   7 -15   53.31   37.13
   7  -1  15   36.90   44.53
  -1  -7  15   66.16   35.46
   7  -1  15   96.00   90.83
   2   7 -15  640.17  203.04
   2   7 -15  684.91  181.40
  -7   2 -15  686.15  203.31
   7  -2  15  752.68  181.72
   7  -2  15  904.33  232.29
  -2  -7  15  881.99  176.96
  -7   3 -15  138.36   75.42
  -7   3 -15  144.38   67.13
   3   7 -15  181.07   76.36
   3   7 -15  131.39   57.11
   7  -3  15  160.08   55.27
   7  -3  15  209.70   97.31
  -3  -7  15  225.87   54.21
   4   7 -15  262.73   52.37
  -7   4 -15  193.37   73.96
   4   7 -15  101.97   92.75
  -7   4 -15  181.57   73.96
  -4  -7  15   79.51   52.41
   7  -4  15  166.41   54.92
   7  -4  15   99.76   96.02
  -4  -7  15  -60.99   92.53
   7  -5  15   66.56   77.02
   7  -5  15  -33.54   38.55
  -5  -7  15 -194.91   98.52
   6   7 -15  127.04   49.54
   6   7 -15   76.71   87.65
  -6  -7  15  215.21   53.28
  -6  -7  15   -3.13   92.22
   7   7 -15  167.96   98.60
   7   7 -15  174.31   53.60
  -7  -7  15  -74.45  105.85
  -7  -7  15  210.76   56.90
   8   6 -15  -89.03   92.07
   8   6 -15  -66.87   44.14
  -8  -6  15  237.36   50.78
  -8  -6  15    3.65  103.64
   8   5 -15  338.90  111.90
   8   5 -15  350.50   71.17
  -8  -5  15    3.59   77.22
  -8  -5  15    3.70  124.22
   8   4 -15   84.36   41.32
  -4   8 -15   83.01   56.69
   8   4 -15  110.07   93.13
  -8  -4  15    3.62   51.32
  -8  -4  15   30.06  103.91
   8   3 -15  589.13  190.44
  -3   8 -15  670.59  179.84
   8   3 -15  657.61  154.53
   3  -8  15  592.22  163.68
  -8  -3  15  711.98  214.15
   8   2 -15  270.08   98.39
   8   2 -15  181.13   45.06
  -2   8 -15   21.88   47.65
  -2   8 -15   75.88   61.93
   2  -8  15   43.99   43.00
  -8  -2  15  114.78  117.13
   8   1 -15  557.15  135.30
  -1   8 -15  641.74  145.61
   8   1 -15  362.08  176.23
  -1   8 -15  484.02  152.64
   1  -8  15  553.41  137.48
  -8  -1  15  482.16  202.72
   8   1  15  664.20  164.68
   0   8 -15  -13.97   57.22
  -8   0 -15   30.98   61.35
   8   0 -15    3.40   51.11
   0   8 -15   12.43   39.12
   8   0  15  -12.65   48.08
   8   0  15  -45.87   92.32
   0  -8  15   20.82   35.74
  -8   0  15   61.29  116.20
  -8   1 -15  484.16  157.00
   1   8 -15  713.16  151.15
   1   8 -15  500.13  140.41
  -1  -8  15  407.94  134.06
   8  -1  15  820.64  185.61
   8  -1  15  446.61  136.08
   2   8 -15  154.73   47.77
  -8   2 -15  125.37   63.84
   2   8 -15   91.53   68.45
   8  -2  15   31.87  115.24
   8  -2  15   91.35   52.63
  -2  -8  15   72.92   47.41
  -8   3 -15  590.86  177.62
   3   8 -15  567.86  154.06
   3   8 -15  599.87  170.02
  -8   3 -15  514.03  175.43
   8  -3  15  696.03  153.64
   8  -3  15  655.53  198.59
  -3  -8  15  652.72  149.96
  -8   4 -15  114.85   66.14
  -8   4 -15   34.67   70.85
   4   8 -15   13.57   71.49
   4   8 -15    3.23   45.88
  -4  -8  15   13.00   41.19
   8  -4  15   59.53   43.98
   8  -4  15  145.70   92.04
   5   8 -15  212.22  113.11
  -8   5 -15  455.80  110.71
  -8   5 -15  292.36  117.93
   8  -5  15  630.18  123.73
   8  -5  15  303.92   94.02
   6   8 -15   -3.90   83.20
   8   8 -15   -4.46   78.40
   8   8 -15  -43.00   52.08
  -8  -8  15  -34.89   51.71
   9   8 -15    7.48   49.92
   9   8 -15    4.76   97.35
  -9  -8  15    4.08   54.33
  -9  -8  15  -55.89  122.52
   9   7 -15   71.08   49.26
  -9  -7  15   26.43   51.74
   9   5 -15  136.18   49.48
   9   5 -15   18.00  100.36
  -9  -5  15   98.20   53.19
  -9  -5  15  -71.32  116.81
  -4   9 -15  520.72  116.67
   9   4 -15  289.16  145.06
   9   4 -15  413.24   97.65
  -9  -4  15  364.06  109.20
  -9  -4  15   52.34  159.79
   9   3 -15   -5.68   41.89
  -3   9 -15  -84.09   57.92
   9   3 -15   -4.66   97.33
  -9  -3  15    4.29  113.59
  -2   9 -15  545.95  158.33
   9   2 -15  659.69  140.24
   9   2 -15  723.78  184.34
  -9  -2  15   18.42  209.69
   9   1 -15   -3.10   45.93
   9   1 -15  -52.50   99.47
  -9  -1 -15  -51.70   70.21
  -1   9 -15  -11.33   58.71
  -9  -1  15  138.87  126.64
   9   1  15 -149.83   88.51
   0   9 -15  -11.72   64.52
   9   0 -15  -20.70   51.61
  -9   0 -15   55.16   69.39
   9   0  15  186.50  103.21
  -9   0  15   16.47  135.14
   0  -9  15   52.53   43.24
   9   0  15   54.41   53.34
   1   9 -15    3.03   63.65
  -9   1 -15   14.15   64.09
   1   9 -15 -121.52   45.74
  -1  -9  15  -17.61   43.59
   9  -1  15    9.19   50.81
   9  -1  15    3.96  114.86
   2   9 -15  611.60  159.64
  -9   2 -15  442.95  173.68
   2   9 -15  719.21  165.15
  -2  -9  15  676.68  154.33
   9  -2  15  621.15  152.92
   9  -2  15  681.54  214.09
  -9   3 -15   13.73   67.81
   3   9 -15   13.21   66.46
  -9   3 -15  -88.72   83.14
   3   9 -15  -29.88   47.87
   9  -3  15  -81.24  113.76
   9  -3  15   18.60   46.34
  -3  -9  15   39.68   41.58
  -9   4 -15  513.55  128.51
   4   9 -15    3.45  119.61
  -9   4 -15  356.80  132.13
   9  -4  15  536.43  146.07
   9  -4  15  480.95  106.25
  -9   5 -15   66.90   84.34
  -9   5 -15  182.20   91.12
   9  -5  15   97.48   57.77
   9  -5  15  114.93  101.73
   6   9 -15   51.15   51.77
  -6  -9  15    7.82   50.96
   7   9 -15  -54.40   88.53
   7   9 -15   32.50   50.85
  -7  -9  15   12.24   51.47
   8   9 -15   50.55   55.66
   8   9 -15  -77.53   96.31
  -8  -9  15  -42.66   55.37
  -8  -9  15  -61.18  114.99
   9   9 -15    4.91  112.43
   9   9 -15  -61.40   56.27
  -9  -9  15   40.79   56.93
  -9  -9  15   16.22  118.89
  10   9 -15  -77.85   61.42
  10   9 -15  -10.40  116.81
 -10  -9  15    8.72  127.95
 -10  -9  15  -52.44   61.57
  10   8 -15   25.51  105.13
  10   8 -15   32.40   60.04
 -10  -8  15  -81.50   58.22
 -10  -8  15   -4.26  125.58
  10   7 -15  -24.80   51.41
  10   7 -15   -4.91  109.24
 -10  -7  15   87.50   52.71
 -10  -7  15   -4.29  127.93
 -10  -6  15   31.85   55.40
  10   5 -15   -4.79  103.19
 -10  -5  15   -4.27  125.22
  10   4 -15  -35.53   47.61
  10   4 -15   81.56  103.98
 -10  -4  15   30.81  127.06
 -10  -4  15  242.12   59.19
  10   3 -15 1065.49  200.29
  10   3 -15  673.12  161.00
 -10  -3  15  791.30  219.57
  10   2 -15  115.32  103.51
  10   2 -15    6.13   50.35
 -10  -2  15  -64.43  128.79
  10   2  15   41.23   99.69
  10   1 -15  260.79  111.97
 -10  -1 -15   19.82   81.70
  10   1 -15   63.99   52.26
 -10  -1  15  118.29  135.98
  10   1  15   98.65   62.86
  10   1  15  -15.77  104.90
 -10   0 -15   81.00   74.64
  10   0 -15   -3.49   53.46
  10   0  15 -166.79   59.62
  10   0  15  -46.37  118.26
   1  10 -15  -76.97   69.34
 -10   1 -15   56.57   70.91
  10  -1  15  -58.33  126.36
  10  -1  15   42.88   56.09
   2  10 -15  256.59   70.47
 -10   2 -15  -79.34   74.19
  10  -2  15  -49.53   51.88
  10  -2  15 -108.50  125.37
 -10   3 -15  241.44  130.01
 -10   3 -15  240.66  139.70
  10  -3  15  171.49  160.07
  10  -3  15  262.33  100.30
 -10   4 -15   74.97   96.19
 -10   4 -15    6.74   88.40
  -4 -10  15   -4.28   49.60
  10  -4  15   37.34   55.24
  10  -4  15   81.29  118.39
   5  10 -15  146.06   80.09
 -10   5 -15  163.42   96.80
 -10   5 -15   33.33   94.71
  10  -5  15  -27.28  109.68
  10  -5  15   28.77   57.83
   6  10 -15   -4.04   82.31
   6  10 -15    4.51   61.07
  10  -6  15   16.45   61.66
  -6 -10  15  -49.65   55.44
  10  -6  15  -23.74  113.29
   7  10 -15 -146.50   94.86
   7  10 -15   23.23   64.37
  -7 -10  15   23.42   62.70
   8  10 -15    4.80   66.39
   8  10 -15   46.24   98.38
  -8 -10  15   14.64   62.83
   9  10 -15 -149.37   68.01
   9  10 -15 -267.81  110.11
  -9 -10  15 -147.84   68.48
  10  10 -15    5.36  117.64
  10  10 -15   51.73   74.28
 -10 -10  15   42.70   74.00
 -10 -10  15   22.63  129.21
  11  10 -15   64.59   75.39
  11  10 -15   86.39  129.21
 -11 -10  15    5.65   71.57
 -11 -10  15   24.18  149.98
  11   9 -15   43.87   64.29
  11   9 -15  -22.17  118.48
 -11  -9  15    4.70  139.46
 -11  -9  15   65.12   64.66
  11   8 -15   -4.24   55.72
  11   8 -15    5.38  120.01
 -11  -8  15   -4.51   56.18
 -11  -8  15   69.58  138.81
  11   7 -15  119.30  115.12
  11   7 -15    3.71   51.08
 -11  -7  15    4.18   51.42
 -11  -7  15   -4.64  141.06
  11   6 -15 -325.62  110.18
  11   6 -15  -23.87   49.75
 -11  -6  15  -50.67  134.56
 -11  -6  15  -20.60   57.21
 -11  -5  15 -162.96   60.06
  11   3 -15  -58.18  103.32
 -11  -3  15  -55.77  141.92
  11   2 -15 -100.70  113.18
  11   2 -15   25.71   50.19
 -11  -2  15  -79.61  145.54
 -11  -1 -15  -50.91   87.44
  11   1 -15   72.61   51.29
  11   1 -15  -17.64  109.80
 -11  -1  15   28.97  148.56
  11   1  15   25.31   65.79
 -11   0 -15  123.34  112.20
  11   0 -15  171.67   84.39
  11   0  15  391.94   92.70
 -11   1 -15   77.08   83.86
  11  -1  15 -121.20  139.22
  11  -1  15   80.47   59.11
 -11   2 -15   27.56   80.59
 -11   2 -15  -21.34  110.74
  11  -2  15  258.42  147.90
  11  -2  15   -3.47   58.42
 -11   3 -15   89.04   88.39
 -11   3 -15  -48.43  110.47
  11  -3  15  -71.61   60.45
  11  -3  15 -266.03  141.34
 -11   4 -15  -48.34  114.84
 -11   4 -15   19.10  104.74
  11  -4  15 -576.13  143.04
  11  -4  15 -149.36   72.49
 -11   5 -15  119.29  105.95
 -11   5 -15  -12.25  113.63
  11  -5  15 -222.37  139.19
  11  -5  15  -39.41   74.67
 -11   6 -15   21.64  114.38
 -11   6 -15   45.37  104.40
  11  -6  15   21.90   65.05
   9  11 -15   -5.17  109.65
  10  11 -15   -5.52  116.59
  11  11 -15 -113.54  138.77
 -11 -11  15  -35.44  175.06
  12  11 -15   -6.39  138.94
 -12 -11  15   80.73  154.41
  12  10 -15   -6.11  136.15
 -12 -10  15   -5.90   68.42
 -12 -10  15    5.20  150.95
  12   9 -15  -15.27   68.37
  12   9 -15  -29.56  136.93
 -12  -9  15  -84.18   69.96
 -12  -9  15  -10.22  148.77
  12   8 -15    8.88   60.86
  12   8 -15 -248.50  126.46
 -12  -8  15 -305.59  154.40
 -12  -8  15    4.78   67.08
  12   7 -15  126.81  125.40
  12   7 -15  -52.13   56.63
 -12  -7  15  133.32  144.24
 -12  -7  15   -4.44   60.45
  12   6 -15   21.70   51.08
  12   6 -15 -385.63  114.19
 -12  -6  15    4.30   53.92
 -12  -6  15  172.22  147.37
  12   5 -15   -5.38  113.66
  12   5 -15   27.28   54.08
 -12  -5  15    4.38   60.65
 -12  -5  15  184.73  146.21
  12   4 -15   -3.29   50.11
 -12  -4  15    8.88   58.21
 -12  -2 -15  148.17   95.61
  12   2 -15 -130.02  131.24
  12   2  15 -117.62  124.87
 -12  -2  15 -125.19  155.88
  12   1 -15 -217.54  159.85
 -12  -1 -15  414.17  104.92
 -12  -1  15  -12.42  181.45
  12   1  15  -79.61  153.22
  12   1  15  314.99   85.81
  12   0 -15   39.90   55.55
  12   0  15 -300.19  155.24
  12  -1  15   -5.62  176.30
  12  -5  15   97.16  132.22
 -12   6 -15    6.38  120.16
  12  -6  15   52.92  131.37
  13  11 -15   67.37  144.70
 -13 -11  15 -184.35  179.87
  13  10 -15   64.74  143.45
 -13 -10  15   12.30   76.56
 -13 -10  15   -5.62  170.05
  13   9 -15   30.90  128.53
  13   9 -15   90.12   72.58
 -13  -9  15   -5.59   69.23
 -13  -9  15  -60.38  164.60
  13   8 -15 -194.84  137.74
  13   8 -15   67.05   66.33
 -13  -8  15  -30.02   67.66
 -13  -8  15 -177.24  157.51
  13   7 -15 -587.65  143.05
  13   7 -15 -108.68   71.45
 -13  -7  15  -88.02   71.31
  13   6 -15    5.72  120.92
  13   6 -15   97.44   54.28
 -13  -6  15 -105.49  155.36
 -13  -6  15  -48.58   59.27
  13   5 -15   -5.68  115.89
  13   5 -15   46.07   52.10
 -13  -5  15  -54.31   64.10
 -13  -5  15  -58.08  153.55
  13   4 -15 -217.08  123.35
  13   4 -15  -10.26   51.37
 -13  -4  15 -321.53  161.24
 -13  -4  15  -36.61   62.13
  13   3 -15   89.52   51.64
 -13  -3  15 -117.19   71.10
 -13  -2 -15   16.01  103.83
  13   2  15   73.43  138.87
 -13  -1 -15   -5.02  107.67
  13   1  15  -39.58   78.43
  13   1  15    5.59  154.35
 -13   0 -15   63.76   98.85
  13   0  15   68.88   72.27
  13   0  15 -155.22  164.23
 -13   1 -15  130.01  101.71
  13  -1  15 -592.36  173.91
  13  -1  15   36.16   69.92
 -13   2 -15  121.82  141.60
 -13   2 -15   78.55  104.36
  13  -2  15  -95.50   72.84
  13  -2  15   43.60  174.63
 -13   3 -15   28.00  143.66
 -13   3 -15   72.25  111.11
  13  -3  15   52.45   73.42
  13  -3  15    6.02  172.67
 -13   4 -15  203.60  122.64
 -13   4 -15  -14.11  141.90
  13  -4  15   79.91   75.46
  13  -4  15 -176.44  162.78
 -13   5 -15   63.99  138.29
 -13   5 -15    9.97  126.72
  13  -5  15 -119.70   73.48
  13  -5  15  -64.89  147.25
 -13   6 -15   57.51  135.96
 -13   6 -15  113.51  134.96
  13  -6  15  149.27  141.10
  13  -6  15  -31.33   78.58
  13  -7  15 -214.19  136.37
  14  11 -15 -127.51  160.12
 -14 -11  15 -530.90  196.71
  14  10 -15   -6.74  143.61
 -14 -10  15    6.00  180.97
 -14  -9  15  187.07  174.29
 -14  -9  15 -104.69   74.67
 -14  -8  15   52.01   68.85
 -14  -2 -15  128.00  116.03
  14   2  15   17.55  151.51
  14   2  15 -123.33   85.42
 -14  -1 -15   32.23  112.17
  14   1  15  -97.37   89.31
  14   1  15    6.25  165.88
 -14   0 -15 -126.39  114.30
  14   0  15 -116.63   82.21
  14   0  15  236.84  192.44
 -14   1 -15   53.33  115.91
 -14   1 -15   28.69  151.12
  14  -1  15  -67.90  191.44
  14  -1  15 -361.75   79.49
 -14   2 -15  -22.53  146.01
 -14   2 -15  107.61  115.65
  14  -2  15    4.84   80.28
  14  -2  15   -6.88  190.95
 -14   3 -15  243.44  161.20
 -14   3 -15 -151.35  130.13
  14  -3  15   79.18  190.33
  14  -3  15   -4.87   85.37
 -14   4 -15  404.92  197.04
 -14   4 -15   63.83  211.38
  14  -4  15  967.46  227.96
  14  -4  15  554.39  152.97
 -14   5 -15  112.75  156.82
 -14   5 -15 -103.74  142.46
  14  -5  15  154.63   86.92
  14  -5  15  277.15  167.66
 -14   6 -15  -24.35  147.85
 -14   6 -15  -73.23  153.68
  14  -6  15  253.27   93.21
  14  -6  15  443.93  165.93
  14  -7  15  182.44  150.63
  14  -7  15  210.03  102.06
 -15  -2 -15  191.38  128.70
  15   2  15 -203.18  179.65
  15   2  15  164.68   95.99
 -15  -1 -15   41.55  128.56
  15   1  15 -124.72  191.25
  15   1  15  -71.32   93.45
 -15   0 -15   39.43  122.73
  15   0  15  151.54   91.68
  15   0  15 -108.11  202.90
 -15   1 -15   10.84  125.11
 -15   1 -15  -23.73  163.65
  15  -1  15  -50.23   87.57
  15  -1  15 -469.62  211.91
 -15   2 -15   85.01  169.65
 -15   2 -15   54.66  129.36
  15  -2  15  240.20  208.37
  15  -2  15 -177.79   88.71
 -15   3 -15  -72.69  139.28
 -15   3 -15   97.78  176.37
  15  -3  15  238.60  197.27
  15  -3  15 -124.06   91.22
 -15   4 -15  -71.92  174.29
 -15   4 -15 -284.61  149.13
  15  -4  15  230.68  197.12
  15  -4  15 -246.53   97.95
 -15   5 -15   36.44  180.77
 -15   5 -15 -251.53  153.82
  15  -5  15 -197.34   99.06
  15  -5  15   40.13  184.15
 -15   6 -15 -128.42  168.96
 -15   6 -15   60.54  159.76
  15  -6  15 -140.48   94.39
  15  -6  15  137.87  172.82
 -15   7 -15  -18.50  168.09
 -15   7 -15  287.59  156.08
  15  -7  15    5.35   90.93
  15  -7  15  -77.95  162.32
  16   3  15 -373.17  191.23
 -16  -2 -15  196.90  145.91
  16   2  15   86.76  103.33
  16   2  15   36.49  199.44
 -16  -1 -15  138.44  142.78
  16   1  15  267.35  214.47
  16   1  15    6.56  104.42
 -16   0 -15   73.78  171.92
 -16   0 -15  -18.84  149.40
  16   0  15 -244.71  225.29
  16   0  15 -224.04  105.02
 -16   1 -15    6.12  144.37
 -16   1 -15   17.62  186.85
  16  -1  15   92.98   97.17
  16  -1  15   24.48  226.69
 -16   2 -15  -67.00  149.21
 -16   2 -15  -56.38  189.92
  16  -2  15  381.57  230.24
  16  -2  15 -166.72  101.07
 -16   3 -15   69.25  195.91
 -16   3 -15   92.87  151.41
  16  -3  15   83.20  102.00
  16  -3  15 -126.77  216.85
 -16   4 -15  -10.22  193.17
 -16   4 -15  233.78  158.94
  16  -4  15 -531.76  203.59
  16  -4  15   -5.99  101.18
 -16   5 -15 -659.51  213.63
 -16   5 -15 -318.54  239.53
 -16   6 -15 -413.74  193.27
 -16   6 -15 -279.76  218.73
 -16   7 -15   59.41  174.32
 -16   7 -15 -218.58  180.13
  16  -7  15  251.67  184.35
  16  -7  15  249.23  107.14
  17   3  15    7.86  203.91
  17   2  15 -484.82  141.70
 -17  -1 -15 -110.11  166.92
 -17   0 -15  393.10  174.01
 -17   0 -15 -116.95  195.55
  17   0  15 -992.67  271.89
 -17   1 -15 -334.36  175.07
 -17   1 -15  -49.31  208.27
 -17   2 -15  -10.52  254.96
 -17   2 -15 -656.22  194.85
  17  -2  15 -471.84  143.37
 -17   3 -15   77.95  215.64
 -17   3 -15 -348.63  170.11
  17  -3  15 -242.13  116.62
  17  -3  15  198.94  239.58
 -17   4 -15   96.86  173.02
 -17   4 -15  182.65  223.60
  17  -4  15  -52.33  112.83
  17  -4  15   25.30  219.25
 -17   5 -15    7.01  174.74
 -17   5 -15   23.34  219.71
  17  -5  15   16.52  211.94
  17  -5  15   59.29  113.36
 -17   6 -15  -91.98  177.82
 -17   6 -15  -11.70  213.81
  17  -6  15  395.47  204.78
  17  -6  15 -202.56  121.65
 -17   7 -15  -23.47  205.87
 -17   7 -15  175.79  181.06
  17  -7  15   15.96  189.50
  17  -7  15  -25.38  108.21
 -18  -2 -15  294.91  183.29
  18   2  15  115.67  249.99
  18   2  15   24.36  125.38
 -18  -1 -15  393.78  181.29
 -18  -1 -15 -129.90  202.29
  18   1  15  209.28  133.63
  18   1  15  200.52  258.35
 -18   0 -15    9.99  204.49
 -18   0 -15   55.00  173.61
  18   0  15 -292.37  272.32
  18   0  15  165.30  128.45
 -18   1 -15  281.37  219.46
 -18   1 -15   -7.60  173.61
  18  -1  15  228.57  128.33
  18  -1  15 -353.11  269.51
 -18   2 -15 -117.18  241.01
 -18   2 -15  287.36  183.54
  18  -2  15 -615.10  259.74
  18  -2  15 -249.03  127.62
 -18   3 -15  112.89  184.04
 -18   3 -15  123.38  250.85
  18  -3  15 -414.89  129.85
  18  -3  15   66.09  261.49
 -18   4 -15  -38.79  254.04
 -18   4 -15   52.93  187.25
  18  -4  15   27.69  238.10
  18  -4  15  -43.84  122.67
 -18   5 -15  -91.61  253.24
 -18   5 -15   53.29  187.11
  18  -5  15  101.33  119.40
  18  -5  15 -530.96  243.36
 -18   6 -15 -320.41  249.42
 -18   6 -15  305.97  201.29
  18  -6  15  258.49  130.96
  18  -6  15   89.61  221.70
 -18   7 -15  -30.33  190.71
  18  -7  15 -126.04  126.32
   0   0 -16 3842.44  935.83
   0   1 -16   23.73   72.39
  -1   0 -16   18.10   39.32
   0   1 -16  -50.79   34.60
   1   0 -16   16.14   37.38
   0  -1  16   89.22   76.42
  -1   1 -16 1179.41  288.68
   1   1 -16 1304.91  313.83
   1   1 -16 1083.28  277.45
  -1   1 -16 1012.88  324.51
  -1  -1  16 1035.78  324.06
   1  -1  16 1375.20  331.48
  -1   2 -16   42.43   31.63
  -1   2 -16   37.70   67.89
   2   1 -16   49.00   75.62
   2   1 -16   27.12   37.37
   1  -2  16   76.65   73.70
  -2  -1  16   48.49   83.22
  -2   0 -16  176.98   54.70
   0   2 -16  165.30   48.53
   2   0 -16  116.38   53.83
   0   2 -16  204.31   80.47
  -2   0  16  241.57   96.11
   0  -2  16   55.07   79.44
  -2   1 -16   12.08   75.56
   1   2 -16   57.56   32.95
  -2   1 -16   47.13   34.48
   1   2 -16   42.08   66.51
   2  -1  16   75.17   40.77
   2  -1  16  193.66   80.45
  -1  -2  16   30.11   73.66
  -2   2 -16   86.00   78.52
  -2   2 -16  186.34   49.57
   2   2 -16  120.82   49.49
   2   2 -16   -3.62   77.62
   2  -2  16  279.14   84.01
  -2  -2  16  220.08   90.70
   3   2 -16  788.34  195.80
   3   2 -16  421.11  226.96
  -2   3 -16  738.25  234.00
  -2   3 -16  990.70  212.87
  -3  -2  16  914.95  244.13
   2  -3  16  881.09  242.10
  -1   3 -16   15.93   28.34
   3   1 -16   -4.20   73.25
  -1   3 -16   24.00   59.96
   3   1 -16  -13.86   37.31
   1  -3  16   27.71   67.24
  -3  -1  16   90.20   83.73
   0   3 -16  -12.38   61.24
   0   3 -16   33.19   28.35
  -3   0 -16   19.50   38.28
   3   0 -16   26.71   44.43
  -3   0  16   28.65   91.23
   0  -3  16   43.52   66.06
  -3   1 -16   15.59   31.55
   1   3 -16   17.24   30.47
   1   3 -16   38.25   65.21
  -1  -3  16   72.25   68.32
   2   3 -16  930.90  206.93
  -3   2 -16 1026.83  228.08
  -3   2 -16  837.84  258.06
   2   3 -16  650.60  233.32
  -2  -3  16  881.67  245.43
   3  -2  16  898.26  245.79
   3  -2  16  879.38  257.68
   3   3 -16   76.43   77.77
  -3   3 -16   58.12   75.28
  -3   3 -16  122.87   47.13
   3   3 -16  172.20   48.55
  -3  -3  16  232.09   87.65
   3  -3  16  289.48   78.85
  -3   4 -16   15.56   25.60
   4   3 -16  -36.53   70.00
  -3   4 -16   10.54   57.07
   3  -4  16 -132.76   58.22
  -4  -3  16  110.57   82.03
   3  -4  16    4.00   26.62
  -2   4 -16   12.72   26.54
   4   2 -16   62.89   73.92
  -2   4 -16  -21.72   56.32
   2  -4  16   21.69   28.56
  -4  -2  16  -59.34   88.73
   2  -4  16  107.74   61.21
  -1   4 -16  385.93  112.54
  -1   4 -16  496.61  129.91
   4   1 -16  491.59  141.54
   1  -4  16  465.81  110.90
   1  -4  16  508.51  135.79
  -4  -1  16  515.01  150.29
  -4   0 -16   69.03   47.70
   0   4 -16   47.06   63.90
   0   4 -16  133.51   39.76
   4   0  16  130.87   57.93
  -4   0  16  132.10  100.00
   0  -4  16  131.35   68.53
   1   4 -16  386.99  127.85
   1   4 -16  335.24  107.72
  -4   1 -16  359.89  121.57
   4  -1  16  598.69  134.10
  -1  -4  16  581.32  136.45
   2   4 -16    9.64   66.77
   2   4 -16   17.54   33.63
  -4   2 -16  128.90   70.34
  -4   2 -16   72.29   29.24
  -2  -4  16   10.66   70.41
   4  -2  16   -2.81   72.31
   4  -2  16   28.02   61.45
   3   4 -16   10.13   62.79
  -4   3 -16   -5.80   61.83
  -4   3 -16  -16.20   23.44
   3   4 -16   25.29   29.98
   4  -3  16  107.86   68.49
  -3  -4  16 -117.18   75.27
  -4   4 -16   45.86   60.52
   4   4 -16   -2.39   31.81
   4   4 -16   24.92   67.06
  -4   4 -16   51.94   26.31
   4  -4  16  114.51   61.91
   4  -4  16    3.68   26.41
  -4  -4  16  -12.10   80.44
   5   4 -16   11.31   74.71
  -4   5 -16   76.08   30.63
  -4   5 -16   28.97   58.07
   5   4 -16   52.01   39.40
  -5  -4  16   48.30   89.02
   4  -5  16   72.40   30.11
   4  -5  16  175.93   62.03
  -3   5 -16   -9.29   26.20
   5   3 -16   30.39   35.24
  -3   5 -16   15.29   58.83
   5   3 -16   -3.89   78.71
   3  -5  16   59.83   60.35
   3  -5  16  -10.28   28.19
  -5  -3  16  -43.85   86.49
   5   2 -16  768.50  190.52
   5   2 -16  582.02  224.74
  -2   5 -16  808.38  204.39
  -2   5 -16  793.60  226.51
   2  -5  16 1083.22  236.01
   2  -5  16  832.40  194.94
  -5  -2  16  774.66  244.78
   5   1 -16  -40.83   88.61
  -1   5 -16   18.40   28.35
   5   1 -16   20.51   41.61
  -1   5 -16  -33.57   56.93
   1  -5  16  -21.03   30.69
  -5  -1  16  100.05   98.50
   1  -5  16   83.38   63.79
   5   0 -16   55.02   43.03
   0   5 -16   20.46   63.58
   0   5 -16  -10.57   28.13
  -5   0 -16   22.50   37.82
   0  -5  16   47.43   64.01
   5   0  16   -4.39   57.97
  -5   0  16   40.27   97.40
   0  -5  16   19.85   30.28
   1   5 -16   -6.60   32.68
  -5   1 -16   -1.92   30.09
   1   5 -16   -6.10   60.79
  -1  -5  16  119.69   68.97
   5  -1  16   22.55   64.94
  -1  -5  16   23.52   32.87
   2   5 -16  812.93  200.05
  -5   2 -16  669.01  236.28
   2   5 -16  625.16  226.02
  -5   2 -16  847.23  224.57
  -2  -5  16 1042.42  238.24
   5  -2  16  958.29  243.37
  -2  -5  16  853.14  197.23
   5  -2  16  912.21  260.19
   5  -2  16  964.81  208.85
  -5   3 -16   25.88   22.83
  -5   3 -16    2.94   64.80
   3   5 -16   18.65   31.32
   3   5 -16    3.35   67.06
   5  -3  16   58.48   72.87
   5  -3  16   39.87   33.71
  -3  -5  16  -20.21   38.10
  -3  -5  16   77.66   75.72
  -5   4 -16   53.64   25.54
  -5   4 -16    2.49   57.79
   4   5 -16   -3.52   70.01
   4   5 -16   53.33   34.62
  -4  -5  16   79.09   39.72
  -4  -5  16  -53.76   80.12
   5   5 -16   -2.53   36.35
   5   5 -16  -18.53   75.44
  -5  -5  16   63.54   86.25
   6   5 -16    3.97  102.36
   6   5 -16  166.21   58.91
  -6  -5  16  452.07  115.91
  -6  -5  16  -10.22   58.87
   6   4 -16  111.37   37.63
   6   4 -16   52.26   83.76
  -4   6 -16   -2.55   59.01
  -4   6 -16   42.03   31.44
  -6  -4  16  -28.05   93.61
   4  -6  16   55.38   28.98
   4  -6  16  -31.14   63.32
   6   3 -16  308.70  117.17
  -3   6 -16  348.40  106.93
   6   3 -16  262.69   82.15
  -3   6 -16  303.98   86.38
   3  -6  16  325.72   80.91
   3  -6  16  302.67  111.80
  -6  -3  16  217.74  132.68
  -2   6 -16  101.29   48.63
   6   2 -16   91.46   92.50
  -2   6 -16  189.36   73.79
   6   2 -16  134.47   53.92
   2  -6  16  224.83   47.35
  -6  -2  16  260.57  111.43
   2  -6  16  123.53   74.24
   6   1 -16  372.58   77.51
   6   1 -16  114.12  112.36
  -1   6 -16  322.26   98.50
  -1   6 -16  220.03   76.77
   1  -6  16  332.82   72.72
   1  -6  16  234.01  101.41
  -6  -1  16  220.95  130.94
   6   0 -16  121.62   60.55
   0   6 -16  120.25   48.07
   0   6 -16  120.79   74.09
  -6   0  16  123.08  115.46
   0  -6  16  152.79   48.88
   0  -6  16  202.15   76.80
   6   0  16  181.44   79.45
   1   6 -16  302.83   74.52
  -6   1 -16  205.41   92.68
   1   6 -16  367.50  101.65
  -1  -6  16  265.05   75.00
  -1  -6  16  299.01  103.89
   6  -1  16  249.64  112.24
   2   6 -16   75.36   48.17
   2   6 -16  170.27   76.34
  -6   2 -16  158.40   61.84
  -2  -6  16  120.26   82.41
   6  -2  16  227.28   90.57
  -2  -6  16  157.73   50.09
   6  -2  16  102.37   50.54
  -6   3 -16  314.46  100.41
   3   6 -16  405.48   88.20
  -6   3 -16  525.32  105.69
   3   6 -16  370.57  116.08
   6  -3  16  348.95  122.72
  -3  -6  16  253.26  121.07
   6  -3  16  455.24   88.88
  -3  -6  16  159.16   89.19
   4   6 -16   36.56   40.68
   4   6 -16   39.98   75.76
  -4  -6  16  101.05   83.58
  -4  -6  16   30.91   41.05
   5   6 -16   57.26  114.66
  -5  -6  16  592.49  121.75
   6   6 -16   92.67   93.43
   6   6 -16  217.65   51.39
  -6  -6  16   44.25  101.28
  -6  -6  16   44.54   52.52
   7   6 -16   79.69   44.11
   7   6 -16    4.24   88.68
  -7  -6  16    3.62   48.53
  -7  -6  16  -25.46  104.18
   7   5 -16  159.82   94.44
   7   5 -16   33.15   39.46
  -7  -5  16  -10.83   48.56
  -7  -5  16   33.20  101.27
  -4   7 -16  250.05   80.34
   7   4 -16  268.39   62.60
  -4   7 -16  169.14   63.30
   7   4 -16  140.73  103.78
   4  -7  16  169.43   56.45
  -7  -4  16  254.62  115.76
   4  -7  16  240.20   85.40
   7   3 -16  267.71   80.26
  -3   7 -16  286.88   84.23
  -3   7 -16  321.73  103.18
   7   3 -16  283.96  122.59
   3  -7  16  404.25  105.29
  -7  -3  16  253.37  135.13
   3  -7  16  274.57   77.79
  -2   7 -16  370.68   94.57
  -2   7 -16  317.07  113.88
   7   2 -16  346.40   89.03
   7   2 -16  269.95  129.84
  -7  -2  16  303.58  148.64
   2  -7  16  160.09   89.12
   2  -7  16  533.37  119.63
  -1   7 -16  147.89   84.67
  -1   7 -16  229.32   64.42
   7   1 -16   70.05  108.81
   7   1 -16  176.89   68.10
   1  -7  16  273.18   89.69
   1  -7  16  216.10   59.38
   7   1  16  236.75   91.72
  -7  -1  16  222.70  128.61
   0   7 -16   23.32   37.52
   7   0 -16  -24.96   49.56
   0   7 -16   45.96   62.34
   0  -7  16  -10.65   32.37
   7   0  16  -26.10   78.88
   0  -7  16   17.16   67.89
  -7   0  16    5.04  115.28
  -7   1 -16  159.18   81.61
   1   7 -16  194.05   87.25
   1   7 -16  204.98   64.43
   7  -1  16  342.28  109.84
  -1  -7  16  150.51   60.91
  -1  -7  16  362.54   93.39
   7  -1  16  175.35   67.66
   2   7 -16  424.69   95.66
  -7   2 -16  342.25  112.32
   2   7 -16  346.05  120.92
  -2  -7  16  435.41   94.59
   7  -2  16  434.34  143.41
  -2  -7  16  436.96  124.84
   7  -2  16  284.96   97.48
   3   7 -16  257.83   77.45
  -7   3 -16  217.59   90.68
   3   7 -16  235.01  106.48
  -7   3 -16  495.63   99.94
  -3  -7  16  143.72  119.07
  -3  -7  16  206.56   74.96
   7  -3  16  301.16   76.68
   7  -3  16  361.60  121.99
   4   7 -16  221.25   58.38
   4   7 -16    3.67   92.86
  -4  -7  16  203.57   56.51
   7  -4  16  121.51   54.21
   7  -4  16  215.75   92.74
  -4  -7  16    8.89   96.22
   5   7 -16    3.89   81.07
  -5  -7  16    6.37   96.34
   6   7 -16    4.10   85.97
   6   7 -16  152.69   44.69
  -6  -7  16  -50.57   97.64
  -6  -7  16   -3.44   42.24
   8   7 -16 -172.35   46.38
  -8  -7  16  -11.43   51.80
   8   5 -16    5.89   45.19
   8   5 -16    9.04   95.30
  -8  -5  16  114.74   52.68
  -8  -5  16  -39.92  108.94
   8   4 -16  190.40   50.32
  -4   8 -16  176.85   68.11
   8   4 -16  145.50  103.06
  -8  -4  16   36.02  122.82
  -8  -4  16   11.62   59.57
   8   3 -16   14.07   96.28
   8   3 -16   67.32   41.26
  -3   8 -16   73.83   61.44
  -3   8 -16   43.84   44.24
   3  -8  16   88.49   38.34
  -8  -3  16   30.53  118.43
  -2   8 -16  545.60  123.92
   8   2 -16  545.72  104.42
   8   2 -16  475.92  147.67
  -2   8 -16  454.66  112.68
   2  -8  16  233.99  104.40
  -8  -2  16   45.54  167.62
  -1   8 -16   56.64   42.56
   8   1 -16   68.64   97.60
   8   1 -16   51.52   45.33
  -1   8 -16  -23.35   61.95
   8   1  16  -44.01   84.50
  -8  -1  16  107.44  128.54
   1  -8  16   35.80   39.55
   0   8 -16   31.90   43.60
   0   8 -16  126.86   61.35
   8   0 -16   54.31   50.25
  -8   0 -16   45.48   64.27
   8   0  16  -23.30   98.38
   0  -8  16    9.02   36.84
  -8   0  16   91.49  122.73
   1   8 -16   53.38   40.01
  -8   1 -16   11.33   61.52
   1   8 -16   56.99   65.00
   8  -1  16   17.52  104.38
  -1  -8  16   27.48   41.24
   8  -1  16  -47.39   51.56
   2   8 -16  548.07  126.16
   2   8 -16  447.56  109.35
  -8   2 -16  334.10  121.98
   8  -2  16  198.22  105.01
  -2  -8  16  421.61  102.15
   8  -2  16  764.45  162.00
  -8   3 -16   14.17   76.72
  -8   3 -16   85.33   61.52
   3   8 -16   60.04   48.88
   3   8 -16   10.40   72.42
   8  -3  16   43.92   46.41
  -3  -8  16   64.51   43.74
   8  -3  16  148.75  107.99
   4   8 -16   22.34   83.92
   4   8 -16  158.84   56.03
   8  -4  16  471.78  106.67
  -4  -8  16   13.39   52.72
   8  -4  16  140.95   54.28
   5   8 -16  -23.51   86.74
  -5  -8  16  -48.40   90.80
   7   8 -16  -68.08   51.41
   7   8 -16   -4.43   74.41
  -7  -8  16    3.81   49.78
   8   8 -16  -29.83   56.96
   8   8 -16 -137.31   99.63
  -8  -8  16   12.02   52.83
  -8  -8  16   -7.89  121.43
   9   8 -16   15.58   51.81
   9   8 -16   86.24  109.28
  -9  -8  16    4.31  125.43
  -9  -8  16  -37.98   54.02
   9   7 -16  -39.27  113.43
   9   7 -16    3.46   52.91
  -9  -7  16  -25.57  127.31
  -9  -7  16  160.59   63.26
  -9  -6  16    4.05   55.93
  -4   9 -16   49.03   67.46
   9   4 -16  216.37   49.28
   9   4 -16 -237.11  109.34
  -9  -4  16  164.30   60.81
  -9  -4  16  -26.27  123.26
   9   3 -16    4.99  140.09
   9   3 -16  387.15   93.19
  -3   9 -16  506.92  113.03
  -9  -3  16   37.38  167.57
   9   2 -16   53.22   46.54
   9   2 -16    5.26  108.53
  -2   9 -16   14.54   61.76
  -9  -2  16  -14.68  128.09
   9   1 -16    5.57  100.81
   9   1 -16   63.04   49.71
  -1   9 -16  -12.00   62.24
   9   1  16   14.15   93.25
  -9  -1  16   47.38  129.94
   1  -9  16   31.50   41.55
   9   0 -16   44.14   55.20
   0   9 -16  -40.96   48.69
  -9   0 -16  -27.80   70.48
   0   9 -16   21.68   61.09
  -9   0  16  -17.32  134.68
   9   0  16    7.01   54.20
   0  -9  16    3.53   42.56
   9   0  16   48.72  107.97
   1   9 -16   67.28   68.48
  -9   1 -16   18.00   63.10
   1   9 -16   93.10   46.43
   9  -1  16  -12.04  118.00
  -1  -9  16   38.79   42.84
   9  -1  16   -9.58   52.33
   2   9 -16  117.08   50.29
  -9   2 -16   60.40   64.77
   2   9 -16   20.18   71.04
   9  -2  16   29.50   49.48
   9  -2  16  102.23  122.03
  -2  -9  16   64.79   49.39
  -9   3 -16  687.08  138.72
  -9   3 -16  398.35  126.19
   3   9 -16  242.50  126.86
   9  -3  16  377.72  161.51
   9  -3  16  414.52  107.18
  -9   4 -16   39.78   73.64
  -9   4 -16   24.59   85.47
   9  -4  16  127.54  108.63
   9  -4  16   89.40   51.88
   6   9 -16    4.04   52.19
   6   9 -16    4.27   89.99
  -6  -9  16    4.02   54.22
   7   9 -16  -33.38   63.06
   7   9 -16    4.52   95.87
  -7  -9  16   20.97   57.21
  -7  -9  16   11.32  108.85
   8   9 -16   52.03   63.87
   8   9 -16  -48.67  105.55
  -8  -9  16  -17.59   57.03
  -8  -9  16  -84.78  117.76
   9   9 -16   -5.15  113.12
   9   9 -16 -108.43   58.98
  -9  -9  16   21.49  124.38
  -9  -9  16   64.63   60.88
  10   9 -16    4.72   64.76
  10   9 -16  -33.03  125.24
 -10  -9  16   -9.30  135.60
 -10  -9  16    4.86   65.40
  10   8 -16   59.08  119.99
  10   8 -16   89.63   56.09
 -10  -8  16    4.44   57.40
 -10  -8  16   -9.20  136.54
  10   7 -16    5.19  108.40
  10   7 -16   61.42   50.50
 -10  -7  16   32.33  135.84
 -10  -7  16  -58.71   53.57
  10   6 -16   -5.11  115.58
  10   6 -16  -64.43   50.96
 -10  -6  16  -96.50  148.88
 -10  -6  16  -29.75   57.77
 -10  -5  16  -25.56   56.18
  -4  10 -16  279.43   84.50
  -3  10 -16    5.84   61.91
  10   3 -16   -3.19   43.05
  10   3 -16  -21.33  110.71
 -10  -3  16  -15.11  139.48
  10   2 -16  101.29  113.32
  -2  10 -16   72.46   64.61
  10   2 -16  -13.10   55.14
  10   2  16   68.56   99.97
 -10  -2  16   10.49  139.53
  -1  10 -16  113.30   68.59
  10   1 -16  -20.51   48.85
  10   1 -16 -300.56  117.96
 -10  -1 -16  -24.55   78.10
 -10  -1  16   -5.69  143.88
  10   1  16 -123.88  110.24
  10   0 -16  -40.92   52.50
   0  10 -16 -139.75   70.31
 -10   0 -16   29.95   78.51
  10   0  16  -33.98   60.70
  10   0  16   -4.23  118.81
 -10   1 -16    3.29   71.90
   1  10 -16    3.36   69.66
  10  -1  16 -422.98  146.62
  10  -1  16  -51.22   55.49
 -10   2 -16   43.23   73.79
  10  -2  16   64.05   54.12
  10  -2  16    9.19  137.08
   3  10 -16  -86.73   55.00
 -10   3 -16   -3.09   75.65
 -10   3 -16    9.51   94.69
  10  -3  16  134.06  129.43
  -3 -10  16   -4.22   50.28
  10  -3  16   73.09   52.34
   4  10 -16   70.67   68.74
 -10   4 -16  214.82   93.55
 -10   4 -16  264.27  106.79
   4  10 -16    3.81   85.30
  10  -4  16  246.77   65.81
  -4 -10  16    4.32   65.19
  10  -4  16  366.43  130.02
   5  10 -16 -101.16   85.39
  10  -5  16  -62.68  109.02
  10  -5  16   32.00   60.96
   6  10 -16    4.27   87.51
   6  10 -16  -18.28   61.39
  -6 -10  16  -87.33   59.95
   7  10 -16    4.70   58.40
   7  10 -16   -4.58   88.88
  -7 -10  16 -114.53   62.12
   8  10 -16  -34.06   62.68
   8  10 -16    4.99  104.96
  -8 -10  16    4.98   61.40
   9  10 -16   -5.05   70.55
   9  10 -16   47.72  110.37
  -9 -10  16   35.62  120.76
  -9 -10  16   -5.21   66.45
  10  10 -16   -5.32   71.36
  10  10 -16    5.70  120.91
 -10 -10  16   27.34   72.11
 -10 -10  16  -23.84  141.95
  11  10 -16   42.52  132.20
  11  10 -16    5.55   70.49
 -11 -10  16   20.60  157.21
 -11 -10  16   -5.75   70.24
  11   9 -16 -266.76   73.15
  11   9 -16   17.69  131.00
 -11  -9  16    5.11   63.63
 -11  -9  16  116.54  152.14
  11   8 -16  -29.87   61.01
  11   8 -16    5.66  123.87
 -11  -8  16   39.90  141.91
 -11  -8  16  -56.59   60.69
  11   7 -16   -3.90   56.38
  11   7 -16 -194.16  129.60
 -11  -7  16  141.30   62.15
 -11  -7  16  -44.42  144.15
  11   6 -16  -14.48   52.96
  11   6 -16   65.83  123.04
 -11  -6  16    4.45   59.92
 -11  -6  16    4.94  146.09
  11   5 -16  -13.74   50.95
  11   5 -16    5.45  114.42
 -11  -5  16    4.91  138.44
 -11  -5  16   -4.49   60.52
  11   4 -16   13.27   50.65
 -11  -4  16  -36.38   63.60
  11   2 -16   -5.95  119.87
 -11  -2  16   45.00  146.65
  11   1 -16   -3.53   45.79
  11   1 -16   68.74  116.01
 -11  -1  16   12.20  158.54
  11   0 -16  324.15   59.80
 -11   0 -16  -79.13   84.16
  11   0  16 -130.87   68.73
 -11   1 -16   49.71   81.36
 -11   2 -16  -54.89  116.44
 -11   2 -16  -34.76   84.00
  11  -2  16  -14.33   64.08
  11  -2  16 -272.70  147.09
 -11   3 -16   75.83  123.43
 -11   3 -16   59.59   97.59
  11  -3  16  135.20  163.02
  11  -3  16  213.12   75.11
 -11   4 -16  -38.42  110.28
 -11   4 -16  -59.22   94.66
  11  -4  16  -20.94   64.88
  11  -4  16 -180.62  142.98
 -11   5 -16  -27.70  100.68
  11  -5  16  -18.08   65.72
   6  11 -16    4.47   92.86
  -6 -11  16   30.93   60.91
   7  11 -16 -333.57  102.05
  -7 -11  16 -245.71   66.91
   8  11 -16    5.10  107.19
  -8 -11  16  -38.88   68.29
   9  11 -16  -59.78  115.36
  -9 -11  16  -57.92   71.85
  10  11 -16  -29.51  123.75
 -10 -11  16    6.05   72.76
 -10 -11  16  -24.92  145.69
  11  11 -16   37.99  143.15
 -11 -11  16  -26.59  156.40
  12  11 -16   26.88  143.51
 -12 -11  16    5.73  165.53
  12  10 -16  -64.75  139.13
  12  10 -16  -28.89   82.09
 -12 -10  16  114.63   75.83
 -12 -10  16   -5.47  164.24
  12   9 -16 -410.27  140.42
  12   9 -16  -46.49   70.86
 -12  -9  16    5.44   66.82
 -12  -9  16   -5.47  168.31
  12   8 -16   50.85   68.67
 -12  -8  16    4.95   63.68
 -12  -8  16  -59.15  171.21
  12   7 -16   36.72   56.61
  12   7 -16   58.42  130.98
 -12  -7  16  -10.65  157.74
 -12  -7  16   -4.63   59.99
  12   6 -16    7.56   52.75
  12   6 -16 -122.24  129.01
 -12  -6  16    4.59   59.12
 -12  -6  16   31.94  156.69
  12   5 -16  -43.04   55.74
  12   5 -16   -5.74  118.45
 -12  -5  16  -37.29  153.57
 -12  -5  16   51.49   66.55
  12   4 -16  -31.21   46.71
  12   4 -16    5.83  129.47
 -12  -4  16  111.83  156.06
 -12  -4  16  -81.08   67.91
  12   3 -16  -20.68   49.29
 -12  -3  16   24.50   65.97
  12   2  16  295.21  144.71
 -12  -1 -16  200.36  103.96
  12   1  16  -65.31   70.99
  12   1  16  135.44  137.83
 -12   0 -16  650.27  208.91
  12   0  16  246.54  251.58
  12   0  16  967.09  178.99
  12  -1  16   -5.66  165.51
  12  -2  16   -5.73  169.79
  12  -3  16   27.79  161.70
  12  -4  16  124.23  145.38
 -12   5 -16  137.82  122.57
  12  -5  16   78.37  137.62
  13  11 -16   -7.04  146.85
 -13 -11  16    6.04  176.77
  13  10 -16 -198.10   88.55
  13  10 -16 -325.65  150.85
 -13 -10  16  -19.07   83.81
 -13 -10  16   -5.91  179.90
  13   9 -16 -136.56  142.12
  13   9 -16  115.29   76.16
 -13  -9  16  -57.94  174.90
 -13  -9  16   34.17   75.06
  13   8 -16  -88.54  136.34
  13   8 -16   38.65   68.15
 -13  -8  16    5.79  174.35
 -13  -8  16 -149.79   69.33
  13   7 -16  -17.02   60.73
  13   7 -16  111.57  130.13
 -13  -7  16   29.34   68.34
 -13  -7  16    5.66  169.49
  13   6 -16  463.26  105.10
 -13  -6  16    9.53  110.53
  13   5 -16   22.69   55.40
  13   5 -16  339.21  130.77
 -13  -5  16  207.01  164.73
  13   4 -16  300.90  127.38
  13   4 -16   36.64   52.40
 -13  -4  16 -284.36  177.35
 -13  -4  16   24.73   69.48
  13   3 -16   82.68  128.35
  13   3 -16  -24.88   49.68
 -13  -3  16 -254.45  167.46
 -13  -3  16   30.39   72.09
  13   2 -16  -51.32   53.67
  13   2 -16   58.80  125.23
 -13  -2  16  596.00  160.15
  13   2  16   26.47  135.82
 -13  -1 -16   67.04  105.59
  13   1 -16  113.30   58.37
  13   1  16 -232.00   84.52
  13   1  16  118.23  158.16
 -13   0 -16   28.68  103.88
  13   0 -16  109.75   56.12
  13   0  16 -406.74  173.46
  13   0  16    9.62   75.42
 -13   1 -16  172.00  100.17
  13  -1  16  -22.62   76.72
  13  -1  16    6.23  175.02
 -13   2 -16  -26.37  106.60
 -13   2 -16  -20.46  139.89
  13  -2  16 -219.65   76.22
  13  -2  16  113.60  177.03
 -13   3 -16  -17.83  106.85
 -13   3 -16   42.33  139.63
  13  -3  16   12.24  166.68
  13  -3  16  121.12   75.26
 -13   4 -16   14.21  139.42
 -13   4 -16  -84.29  119.05
  13  -4  16   26.52   77.27
  13  -4  16  138.40  160.65
 -13   5 -16  -78.53  124.48
 -13   5 -16  -28.48  136.41
  13  -5  16  -40.55   78.69
  13  -5  16    5.46  144.35
  13  -6  16  235.32  167.17
  14  11 -16    7.43  168.78
 -14 -11  16   32.46  199.00
  14  10 -16   14.10  160.59
 -14 -10  16  -50.63  192.52
 -14 -10  16 -105.49   89.14
  14   9 -16   51.35   80.24
  14   9 -16  290.05  161.31
 -14  -9  16    5.93   80.21
 -14  -9  16  185.86  202.52
  14   8 -16    6.66  145.72
  14   8 -16   41.49   71.07
 -14  -8  16    6.07  178.07
 -14  -8  16    5.44   65.19
 -14  -7  16   -5.07   63.53
 -14  -7  16  120.23  173.07
 -14  -6  16   -4.86   62.89
 -14  -6  16   41.69  175.74
 -14  -5  16   39.89   67.83
 -14  -2 -16 -142.76  116.81
  14   2  16 -147.41  170.20
 -14  -1 -16    5.66  117.01
  14   1  16 -154.33   89.25
  14   1  16 -257.64  181.09
 -14   0 -16  -42.30  120.33
  14   0  16  -95.25   87.55
  14   0  16 -172.32  189.21
 -14   1 -16  -59.10  110.45
 -14   1 -16  175.40  156.64
  14  -1  16 -266.25   85.04
 -14   2 -16  115.14  163.52
 -14   2 -16 -211.91  129.40
  14  -2  16 -591.65  217.12
  14  -2  16 -154.76   92.36
 -14   3 -16  112.48  166.38
 -14   3 -16   49.94  129.31
  14  -3  16    4.83   82.05
  14  -3  16    6.70  194.76
 -14   4 -16  -89.72  161.78
 -14   4 -16   -5.16  130.77
  14  -4  16    6.40  170.29
  14  -4  16  -34.35   90.36
 -14   5 -16  -92.25  139.10
 -14   5 -16  106.61  158.03
  14  -5  16  -80.63   86.68
  14  -5  16   72.86  168.66
  14  -6  16  114.11   87.92
  14  -6  16  -65.21  158.54
 -15  -2 -16 -201.29  131.46
  15   2  16  362.97  181.84
 -15  -1 -16 -105.88  127.53
  15   1  16 -181.28   95.35
  15   1  16   13.94  191.07
 -15   0 -16   29.43  133.00
  15   0  16  334.13  205.97
  15   0  16   46.72   98.42
 -15   1 -16  -16.53  122.42
 -15   1 -16 -128.64  163.45
  15  -1  16   97.77  208.59
  15  -1  16    5.58   92.41
 -15   2 -16  121.29  134.29
 -15   2 -16  -60.62  178.04
  15  -2  16 -272.15   99.46
  15  -2  16 -516.46  213.01
 -15   3 -16  134.26  177.11
 -15   3 -16  172.61  138.55
  15  -3  16   21.98  203.60
  15  -3  16   16.52   95.18
 -15   4 -16   91.83  181.44
 -15   4 -16   22.86  143.85
  15  -4  16   70.78  183.52
  15  -4  16  -59.51   90.48
 -15   5 -16   92.81  177.10
 -15   5 -16   23.53  148.38
  15  -5  16 -138.16   95.11
  15  -5  16    6.75  170.40
 -15   6 -16 -314.88  157.63
  15  -6  16    6.60  167.26
  15  -6  16    5.53   93.11
 -16  -2 -16  214.58  143.74
  16   2  16  146.75  209.50
 -16  -1 -16   34.56  143.19
  16   1  16    6.66  104.09
  16   1  16 -260.18  213.31
 -16   0 -16    8.30  171.54
 -16   0 -16   85.26  145.41
  16   0  16  129.36  105.14
  16   0  16   -7.94  213.48
 -16   1 -16 -215.37  138.95
 -16   1 -16  151.81  182.90
  16  -1  16  108.21  106.28
  16  -1  16  302.37  224.89
 -16   2 -16  181.48  188.87
 -16   2 -16   67.65  145.16
  16  -2  16 -252.62  104.56
  16  -2  16 -394.58  227.18
 -16   3 -16  105.14  153.20
 -16   3 -16 -262.63  202.65
  16  -3  16   54.94  103.61
 -16   4 -16 -354.83  260.74
 -16   4 -16 -712.45  217.17
  16  -4  16 -511.47  155.51
 -16   5 -16  -41.88  218.70
 -16   6 -16  379.09  193.74
 -16   6 -16 -222.59  166.93
  16  -6  16   -6.03  105.45
  16  -6  16    7.32  186.37
 -17  -2 -16  102.91  162.25
  17   2  16    8.14  215.97
 -17  -1 -16  245.99  169.84
  17   1  16   66.22  117.18
  17   1  16   16.74  233.06
 -17   0 -16   51.29  161.80
 -17   0 -16 -127.27  187.72
  17   0  16 -115.02  116.68
  17   0  16 -225.86  243.34
 -17   1 -16   -9.77  197.79
 -17   1 -16 -460.22  164.39
  17  -1  16   71.36  250.71
  17  -1  16  339.11  120.67
 -17   2 -16  -47.91  161.69
 -17   2 -16   64.06  211.38
  17  -2  16   -8.85  240.84
  17  -2  16 -157.06  105.34
 -17   3 -16 -111.86  234.99
 -17   3 -16  390.18  177.68
  17  -3  16  107.97  125.46
  17  -3  16  488.88  246.61
 -17   4 -16  200.00  171.63
 -17   4 -16  -69.89  235.67
  17  -4  16  383.31  227.14
  17  -4  16 -146.95  115.37
 -17   5 -16  107.09  234.64
 -17   5 -16   62.51  171.55
  17  -5  16 -190.65  222.43
  17  -5  16   59.74  112.95
 -17   6 -16  285.29  225.66
 -17   6 -16  -99.25  181.87
  17  -6  16  292.03  115.61
  17  -6  16 -129.83  205.13
 -18  -2 -16 -140.77  175.82
 -18  -1 -16  -37.40  191.10
 -18  -1 -16  -17.17  178.72
  18   1  16 -277.48  126.92
  18   1  16  256.47  249.26
 -18   0 -16 -221.12  180.19
 -18   0 -16 -141.05  220.58
  18   0  16 -175.89  130.40
  18   0  16   56.51  260.97
 -18   1 -16  -54.62  224.89
 -18   1 -16  157.15  174.21
  18  -1  16   54.83  124.06
  18  -1  16    9.61  270.02
 -18   2 -16 -136.60  177.22
 -18   2 -16  -71.33  236.80
  18  -2  16  163.14  127.79
  18  -2  16   19.10  263.73
 -18   3 -16  105.74  186.03
 -18   3 -16  137.84  242.36
  18  -3  16    9.52  249.32
  18  -3  16   89.19  126.45
 -18   4 -16  -22.65  184.79
 -18   4 -16   25.90  253.15
  18  -4  16  400.94  245.70
  18  -4  16   50.99  125.91
 -18   5 -16   13.33  255.21
 -18   5 -16  -30.22  189.19
  18  -5  16 -313.02  241.07
  18  -5  16 -216.11  125.52
 -18   6 -16   81.41  250.37
 -18   6 -16    7.57  188.61
  18  -6  16    7.16  117.46
   0   0 -17  -23.39   43.10
   0   1 -17 3039.50  697.36
   0   1 -17 2596.23  625.61
   0  -1  17 2202.54  714.41
  -1   1 -17  -21.19   34.95
   1   1 -17  -13.01   76.20
   1   1 -17   28.23   34.05
  -1   1 -17  -30.42   77.11
   1  -1  17   14.30   82.37
  -1  -1  17  -32.99   82.82
  -1   2 -17  -38.02   74.66
   2   1 -17  -61.78   82.75
  -1   2 -17   50.87   32.73
   2   1 -17  -11.52   36.08
   1  -2  17  -43.52   79.96
  -2  -1  17  131.28   86.04
   0   2 -17   14.47   31.21
   2   0 -17   13.83   47.29
   0   2 -17    7.63   70.49
  -2   0 -17  -34.31   40.69
   0  -2  17 -101.83   78.53
   1   2 -17   -2.49   34.05
   1   2 -17   -3.89   74.78
  -2   1 -17   28.14   35.30
  -1  -2  17  -39.41   80.38
   2  -1  17   50.07   81.91
  -2   2 -17   49.25   73.68
   2   2 -17  -23.91   75.20
  -2   2 -17  -15.55   33.53
   2   2 -17   -7.73   36.36
   2  -2  17  -42.90   77.64
  -2  -2  17  -16.96   85.99
  -2   3 -17  524.91  122.58
  -2   3 -17  373.35  143.17
   3   2 -17  455.02  113.83
   3   2 -17  535.43  146.00
   2  -3  17  448.66  149.56
  -3  -2  17  429.66  153.63
  -1   3 -17  221.97   70.75
   3   1 -17  326.82   74.41
   3   1 -17  190.06  103.56
  -1   3 -17  307.46   96.41
  -3  -1  17  248.71  112.55
   1  -3  17  287.23  102.41
   0   3 -17  275.54   82.44
   3   0 -17  135.02   64.53
  -3   0 -17  119.90   60.04
   0   3 -17  140.06   53.76
  -3   0  17  428.01  112.87
   0  -3  17  186.94   90.03
   1   3 -17  220.32   63.98
   1   3 -17  165.08   92.87
  -3   1 -17  254.86   73.18
  -1  -3  17  251.65  101.15
   2   3 -17  584.63  122.00
  -3   2 -17  727.55  159.95
   2   3 -17  404.63  146.16
  -3   2 -17  369.50  132.20
   3  -2  17  732.16  162.08
  -2  -3  17  354.61  154.51
   3   3 -17  -19.02   72.37
   3   3 -17   17.60   33.06
  -3   3 -17   52.04   67.30
  -3   3 -17   -7.88   29.05
   3  -3  17   10.81   76.55
  -3  -3  17  -76.00   86.08
  -3   4 -17  175.41   57.24
   4   3 -17  247.18   95.23
  -3   4 -17  154.49   85.76
   4   3 -17  148.52   59.74
   3  -4  17  262.98   87.29
   3  -4  17  165.54   56.74
  -4  -3  17  405.64  108.13
  -2   4 -17 1022.61  253.70
   4   2 -17  943.64  253.77
   2  -4  17  806.52  260.86
  -4  -2  17 1095.59  266.57
   4   1 -17   74.78   88.64
  -1   4 -17  124.40   44.04
  -1   4 -17   65.54   71.02
   1  -4  17  135.84   77.81
  -4  -1  17  142.14  102.04
   0   4 -17   -6.61   30.47
   0   4 -17   61.60   66.01
  -4   0 -17    2.86   38.88
  -4   0  17  -27.22   98.68
   4   0  17  -17.38   53.20
   0  -4  17  -31.64   68.83
  -4   1 -17  152.21   50.72
   1   4 -17  175.56   78.24
   1   4 -17  209.87   45.40
   4  -1  17   23.55   72.10
  -1  -4  17   99.51   81.95
   2   4 -17  659.97  214.42
  -4   2 -17  899.31  274.66
   2   4 -17  719.00  242.76
  -4   2 -17 1057.90  240.53
   4  -2  17  964.93  273.62
  -2  -4  17 1195.53  254.39
   3   4 -17   99.52   89.37
  -4   3 -17  252.23   58.07
   3   4 -17  190.93   56.98
  -4   3 -17  127.78   90.73
  -3  -4  17  138.26   96.20
   4  -3  17  255.84   93.57
  -4   4 -17  -14.26   64.64
  -4   4 -17    8.74   26.25
   4   4 -17   23.18   35.50
   4   4 -17   -3.87   73.49
  -4  -4  17   -3.31   90.41
   4  -4  17  143.32   70.59
   4  -4  17    2.00   28.88
   5   4 -17   12.25   84.52
  -4   5 -17   47.51   29.14
  -4   5 -17   83.89   60.63
   4  -5  17   42.43   28.83
  -5  -4  17   10.55   97.15
   4  -5  17   -2.18   63.59
  -3   5 -17  437.80  164.05
   5   3 -17  369.49  165.94
  -3   5 -17  593.20  144.40
   5   3 -17  725.26  133.85
   3  -5  17  693.05  136.34
   3  -5  17  231.50  171.51
  -5  -3  17  542.98  182.40
   5   2 -17  102.35   43.74
  -2   5 -17   64.55   66.82
  -2   5 -17   75.67   35.29
   5   2 -17   71.95   90.60
  -5  -2  17  -55.40  105.92
   2  -5  17   56.51   37.02
   2  -5  17  125.59   71.53
  -1   5 -17  559.45  137.30
   5   1 -17  495.63  149.94
  -1   5 -17  570.74  118.18
   5   1 -17  457.56  115.91
  -5  -1  17  342.58  162.03
   1  -5  17  462.86  146.89
   1  -5  17  450.57  115.05
  -5   0 -17   31.73   38.43
   0   5 -17  -44.16   64.20
   5   0 -17  -18.28   48.19
   0   5 -17    6.85   31.93
   0  -5  17   15.95   33.71
   5   0  17   29.34   58.87
   0  -5  17    2.60   71.16
  -5   0  17  -19.02  105.41
   1   5 -17  512.76  113.93
  -5   1 -17  269.37  130.70
   1   5 -17  371.56  137.01
  -1  -5  17  487.96  112.54
  -1  -5  17  738.57  145.76
   5  -1  17  305.10  144.43
   2   5 -17  108.74   39.55
  -5   2 -17   83.54   33.93
   2   5 -17   72.05   69.60
  -2  -5  17   89.25   79.66
  -2  -5  17    5.87   40.50
   5  -2  17   18.40   75.67
   3   5 -17  445.81  140.53
   3   5 -17  629.01  165.77
  -3  -5  17  562.34  178.38
  -3  -5  17  698.59  140.77
   4   5 -17   44.16   39.31
   4   5 -17   22.94   82.69
  -4  -5  17 -297.07   88.34
  -4  -5  17  -26.03   44.62
   5   5 -17  321.88  261.63
  -5  -5  17 1463.53  283.63
   6   5 -17 -215.06   89.18
   6   5 -17   -5.64   41.61
  -6  -5  17    3.62   48.69
  -6  -5  17   -3.69  103.26
  -4   6 -17  144.85   46.63
  -4   6 -17  133.98   74.54
   6   4 -17  147.02   52.27
   6   4 -17  -60.36  117.10
   4  -6  17  199.06   43.74
   4  -6  17  255.05   75.29
   6   3 -17  -67.07   93.61
   6   3 -17   -8.52   41.19
  -3   6 -17    8.97   33.57
  -3   6 -17  -43.44   66.79
  -6  -3  17 -273.74  120.21
   3  -6  17   72.55   69.09
   3  -6  17   20.00   30.64
   6   2 -17  655.27  138.42
  -2   6 -17  507.93  171.49
  -2   6 -17  582.40  148.59
   6   2 -17  284.57  177.71
   2  -6  17  553.64  139.84
  -6  -2  17  707.70  193.70
   2  -6  17  517.20  180.00
   6   1 -17  -32.36   45.65
  -1   6 -17   21.35   34.32
  -1   6 -17   40.99   69.70
   6   1 -17 -111.74   97.47
  -6  -1  17 -108.99  111.59
   1  -6  17  -67.46   71.09
   1  -6  17   48.78   34.74
   0   6 -17   33.87   33.63
   6   0 -17    7.40   46.91
   0   6 -17   32.79   69.87
   6   0  17  -18.03   71.82
  -6   0  17  -10.03  113.37
   0  -6  17   15.69   72.96
   0  -6  17  -13.62   34.34
   1   6 -17    5.02   33.21
   1   6 -17   34.08   73.35
   6  -1  17   32.37   80.16
  -1  -6  17  -43.81   74.89
  -1  -6  17  -25.67   37.33
   2   6 -17  675.84  151.48
   2   6 -17  783.38  177.13
  -6   2 -17  522.64  176.48
   6  -2  17  605.65  192.19
   6  -2  17  446.49  155.24
  -2  -6  17  787.39  148.67
  -2  -6  17  607.82  186.68
   3   6 -17 -378.40  106.59
  -3  -6  17 -157.09   53.95
   4   6 -17 -154.90  103.98
   4   6 -17  -52.12   51.46
   5   6 -17  -40.56   83.22
  -5  -6  17  -41.11   96.11
   6   6 -17    4.28   94.04
   6   6 -17   41.49   42.34
  -6  -6  17   -7.39  108.18
  -6  -6  17   32.86   45.02
   7   5 -17   47.14   42.85
   7   5 -17   27.31   94.87
  -7  -5  17   -7.95  113.22
  -7  -5  17  122.56   53.93
  -4   7 -17   -7.97   36.71
   7   4 -17   -4.58   96.74
   7   4 -17   84.22   47.42
  -4   7 -17    5.75   66.59
   4  -7  17   24.62   33.89
   4  -7  17   46.25   70.36
  -7  -4  17  -44.68  113.67
   7   3 -17  541.87  121.34
   7   3 -17  535.16  162.85
  -3   7 -17  466.12  127.39
  -3   7 -17  569.91  150.48
   3  -7  17  400.63  119.58
  -7  -3  17    4.34  176.78
   3  -7  17  751.18  157.25
  -2   7 -17   37.30   72.21
  -2   7 -17   79.21   41.40
   7   2 -17  170.29  104.63
   7   2 -17   58.15   44.95
  -7  -2  17  -95.00  124.12
   2  -7  17   25.74   34.19
   2  -7  17  191.64   73.62
  -1   7 -17  182.29   68.51
  -1   7 -17  103.13   97.89
   7   1 -17  213.20  120.38
   7   1 -17  139.05   75.58
   1  -7  17  211.52   66.49
  -7  -1  17  198.69  139.51
   1  -7  17  371.35  101.45
   7   1  17  262.33   99.34
   7   0 -17   15.17   59.37
   0   7 -17  180.08   83.63
   0   7 -17   73.57   53.36
   7   0  17  183.22   94.68
   0  -7  17  371.16   88.84
   0  -7  17   52.44   49.06
  -7   0  17  409.23  129.92
   1   7 -17  217.46  104.57
  -7   1 -17  184.63   94.21
   1   7 -17  261.86   75.04
   7  -1  17  329.99  121.10
  -1  -7  17  252.17   71.54
  -7   2 -17   17.16   53.84
   2   7 -17   45.12   43.07
   2   7 -17  -57.91   85.14
  -2  -7  17    9.09   44.18
   7  -2  17    3.18  102.77
   7  -2  17   36.19   43.32
   3   7 -17  410.66  146.57
   3   7 -17  352.15  118.07
  -3  -7  17  585.33  114.54
  -3  -7  17  432.45  153.93
   4   7 -17    3.94   83.05
   4   7 -17    5.91   42.26
  -4  -7  17   36.41   45.96
  -4  -7  17  441.76  100.72
   5   7 -17    4.18   91.08
  -5  -7  17   47.32   97.48
   7   7 -17   13.23   49.89
  -7  -7  17  -42.13   51.00
   8   7 -17  -55.19   46.68
   8   7 -17  -97.96  105.54
  -8  -7  17   21.15  122.16
  -8  -7  17   -8.06   55.22
   8   6 -17   -3.23   47.44
  -8  -6  17   28.40   58.84
   8   4 -17  206.75   47.62
  -4   8 -17  121.16   70.56
   8   4 -17   92.59  104.60
  -8  -4  17    4.36  120.17
   4  -8  17   34.97   42.77
  -3   8 -17  157.04   47.38
  -3   8 -17  116.54   70.31
   8   3 -17   -5.02  107.21
   8   3 -17  109.57   53.11
  -8  -3  17    4.64  129.11
   3  -8  17   59.15   45.01
  -2   8 -17   86.82   70.29
   8   2 -17  191.01   53.51
   8   2 -17   10.61  111.62
  -2   8 -17  158.78   52.91
   2  -8  17   89.40   43.72
  -8  -2  17   -4.84  129.63
  -1   8 -17  -12.94   45.74
   8   1 -17   44.62   50.66
  -1   8 -17  -78.58   67.95
   8   1 -17    5.61   97.22
   1  -8  17  -27.16   38.87
  -8  -1  17  -46.70  130.35
   8   1  17   -6.41   83.32
   0   8 -17   74.42   70.41
   8   0 -17   57.81   57.57
   0   8 -17    6.40   44.59
   8   0  17  -67.68   91.95
   0  -8  17   15.34   39.25
  -8   0  17   45.35  130.08
  -8   1 -17   48.66   63.21
   1   8 -17    3.15   39.54
   1   8 -17   56.00   74.93
   8  -1  17   28.47  101.15
  -1  -8  17  -18.99   40.05
   8  -1  17  -21.75   48.59
  -8   2 -17   73.04   66.49
   2   8 -17  105.38   85.34
   2   8 -17  138.38   54.36
  -2  -8  17  100.58   43.94
   8  -2  17  106.86   52.21
   8  -2  17  150.36  113.80
  -2  -8  17   50.30   88.58
   3   8 -17   45.45   82.60
   3   8 -17  204.49   51.01
  -3  -8  17    3.36   50.56
   8  -3  17   80.88  110.64
   8  -3  17   48.06   49.12
  -3  -8  17   98.79   91.19
   4   8 -17   -4.02   87.72
  -4  -8  17  -35.92   93.22
   6   8 -17  -31.49   48.71
   6   8 -17   -4.47   86.31
  -6  -8  17   41.31   52.98
   7   8 -17  -56.62  102.39
   7   8 -17   39.94   49.82
  -7  -8  17  -51.76   54.22
  -7  -8  17  -43.08  110.14
   8   8 -17  -94.51   56.98
   8   8 -17 -116.33  118.20
  -8  -8  17 -117.29   59.47
  -8  -8  17  -55.48  132.33
   9   8 -17    5.35  112.72
   9   8 -17    7.89   52.83
  -9  -8  17   63.72  129.55
  -9  -8  17   52.98   60.97
   9   7 -17   -5.19  108.40
   9   7 -17  117.29   55.77
  -9  -7  17   -4.58  133.81
  -9  -7  17  -38.27   58.56
   9   6 -17 -472.12  123.80
   9   6 -17   24.05   52.99
  -9  -6  17 -105.09  142.56
  -9  -6  17    8.59   62.18
   9   5 -17   -3.29   47.48
  -9  -5  17    8.63   56.20
  -4   9 -17  351.49   95.57
  -3   9 -17  193.98   73.67
   9   3 -17   75.14  113.85
  -9  -3  17   44.97  141.91
  -2   9 -17   87.46   68.70
   9   2 -17   -5.66  112.88
   9   2 -17   -6.68   50.86
  -9  -2  17   62.17  132.83
   2  -9  17   20.93   43.03
   9   1 -17    5.92  112.10
  -1   9 -17   54.78   67.09
  -1   9 -17    3.76   47.12
   9   1 -17  -17.69   49.62
   9   1  17    3.59   95.67
  -9  -1  17   -5.59  139.17
   1  -9  17   84.62   43.10
  -9   0 -17  -43.41   69.90
   0   9 -17    6.65   72.17
   0   9 -17  -45.31   53.27
   9   0 -17   -3.91   55.07
   9   0  17   53.22  104.62
   0  -9  17  -56.55   44.73
   1   9 -17  110.18   76.67
   1   9 -17    3.83   48.86
  -9   1 -17   35.18   66.56
   9  -1  17   28.45  118.19
   9  -1  17    3.35   52.75
  -1  -9  17   68.44   44.80
  -9   2 -17   64.69   63.60
   2   9 -17    7.23   76.42
   9  -2  17  137.15  122.49
   9  -2  17   30.47   50.34
  -9   3 -17   24.29   68.48
  -9   3 -17   33.68   90.90
   9  -3  17   35.96  117.90
   9  -3  17   48.57   51.17
   4   9 -17  107.60   59.25
  -4  -9  17    3.85   54.11
   5   9 -17  -85.59   90.47
  -5  -9  17 -195.20   99.57
  -5  -9  17   -3.94   50.68
   6   9 -17    4.51   98.21
   6   9 -17   20.26   56.69
  -6  -9  17  -48.58  109.88
  -6  -9  17    4.11   55.56
   7   9 -17  101.59  104.73
   7   9 -17   12.56   59.30
  -7  -9  17  -15.97  114.44
  -7  -9  17  -30.04   59.47
   8   9 -17    5.16  101.39
   8   9 -17  -56.56   57.16
  -8  -9  17    4.49   53.89
  -8  -9  17   -4.25  122.34
   9   9 -17 -223.92  118.88
   9   9 -17   13.60   64.41
  -9  -9  17   -4.78   61.49
  -9  -9  17   22.95  131.71
  10   9 -17   -5.86  132.07
  10   9 -17 -109.10   68.81
 -10  -9  17   10.07   65.88
 -10  -9  17   20.04  149.45
  10   8 -17   12.79   60.09
  10   8 -17  -84.80  123.32
 -10  -8  17  -84.09  144.58
 -10  -8  17   -4.66   60.21
  10   7 -17    3.83   55.11
  10   7 -17 -466.12  124.13
 -10  -7  17   26.85   63.40
 -10  -7  17  112.94  145.30
  10   6 -17    3.60   53.31
  10   6 -17 -115.62  121.60
 -10  -6  17   24.61  142.18
 -10  -6  17  -13.64   61.74
  10   5 -17    3.46   52.74
  10   5 -17 -175.89  128.03
 -10  -5  17  114.17   64.41
 -10  -5  17   -4.90  150.84
  10   4 -17  -86.44   51.98
 -10  -4  17    4.64   60.65
  -3  10 -17  199.16   75.07
  -2  10 -17   73.87   69.98
  10   1 -17  -37.61  120.15
  -1  10 -17   53.03   71.18
  10   1  17  162.10  115.29
 -10  -1  17   11.98  156.43
  10   0 -17   -3.95   54.78
   0  10 -17  -51.35   69.01
 -10   0 -17  -31.24   80.71
  10   0  17   58.19   58.67
  10   0  17  235.78  122.27
 -10   1 -17  -20.90   75.74
  10  -1  17  -17.94   58.68
  10  -1  17  170.48  138.77
   2  10 -17  -74.62   57.03
 -10   2 -17   53.35   72.81
  -2 -10  17   25.32   51.57
  10  -2  17   13.21   57.10
  10  -2  17   74.72  134.14
   3  10 -17    3.87   77.10
   3  10 -17    8.91   57.96
 -10   3 -17  156.54  107.49
 -10   3 -17  137.89   78.86
  10  -3  17  112.71  135.03
  10  -3  17  174.69   57.54
  -3 -10  17   -4.30   54.09
   4  10 -17  -20.24   82.13
   4  10 -17   -4.48   61.77
  10  -4  17 -300.08  138.37
  -4 -10  17   -4.41   57.00
   5  10 -17  -73.28   62.33
   5  10 -17   -4.31   87.82
  -5 -10  17    4.48   58.44
   6  10 -17  -47.01   60.95
   6  10 -17   54.81   94.37
  -6 -10  17   -4.63   57.33
   7  10 -17   24.22   63.12
   7  10 -17   74.17  102.04
  -7 -10  17 -101.29   60.95
  -7 -10  17  -33.15  113.01
   8  10 -17   -5.32  110.63
   8  10 -17  -15.04   61.94
  -8 -10  17   92.06  125.69
  -8 -10  17    5.04   61.15
   9  10 -17    5.64  114.52
   9  10 -17    5.21   70.23
  -9 -10  17   23.47  129.30
  -9 -10  17    5.28   66.49
  10  10 -17  -21.69   72.31
  10  10 -17    6.02  128.47
 -10 -10  17  -16.64   71.94
 -10 -10  17   66.05  150.35
  11  10 -17    6.43  135.38
  11  10 -17 -254.68   78.64
 -11 -10  17   11.83   78.80
 -11 -10  17   -5.41  157.92
  11   9 -17    6.21  127.16
  11   9 -17   10.23   73.21
 -11  -9  17   21.38  156.97
 -11  -9  17  -68.95   68.04
  11   8 -17   35.70   67.24
  11   8 -17   41.85  135.93
 -11  -8  17    5.35  160.12
 -11  -8  17   -4.91   62.27
  11   7 -17    5.88  130.08
  11   7 -17   59.95   61.65
 -11  -7  17  102.75   61.44
 -11  -7  17   31.91  156.78
  11   6 -17   -5.88  132.80
  11   6 -17   22.63   55.45
 -11  -6  17  -23.80   63.64
 -11  -6  17 -366.29  149.99
  11   5 -17   32.93   54.58
  11   5 -17   11.62  122.04
 -11  -5  17    5.32  153.83
 -11  -5  17  -90.93   65.63
  11   4 -17    3.54   51.35
  11   4 -17    5.89  131.26
 -11  -4  17   67.13  153.32
 -11  -4  17    4.87   67.31
  11   3 -17   -6.09  111.78
  11   3 -17   60.13   53.69
  11   0  17   -4.19   76.83
 -11   1 -17  122.96   98.09
  11  -1  17  148.52   77.17
 -11   2 -17  208.79  117.50
 -11   2 -17  -35.19   89.33
  11  -2  17   -3.68   65.78
  11  -2  17   -5.22  143.70
 -11   3 -17   41.68   89.11
 -11   3 -17  155.56  120.68
   3  11 -17    4.05   87.13
  11  -3  17   63.27   64.95
   4  11 -17  -67.55   89.25
  11  -4  17  -10.37   59.57
  -4 -11  17    4.97   59.55
   5  11 -17    4.47   84.94
  -5 -11  17   30.66   65.08
   6  11 -17 -122.41   98.83
   7  11 -17  -25.20  107.49
  -7 -11  17    5.47   64.47
   8  11 -17   -5.49  111.00
  -8 -11  17    5.69   66.23
   9  11 -17   46.55  126.88
  -9 -11  17  -34.28  137.90
  -9 -11  17   11.89   75.73
  10  11 -17 -150.17  134.19
 -10 -11  17    5.24  150.04
 -10 -11  17   12.45   75.70
  11  11 -17   19.99  145.50
 -11 -11  17  -39.11   79.24
 -11 -11  17    5.56  164.00
  12  11 -17    7.02  152.81
 -12 -11  17  184.21   98.35
 -12 -11  17   59.86  189.13
  12  10 -17  -65.76   83.28
  12  10 -17   13.58  149.85
 -12 -10  17    6.22   77.88
 -12 -10  17  -58.83  173.78
  12   9 -17    5.36   72.00
  12   9 -17  -65.06  145.37
 -12  -9  17   -5.78  164.93
 -12  -9  17    5.58   71.10
  12   8 -17   32.70   68.83
  12   8 -17  -76.40  143.11
 -12  -8  17   51.38  162.29
 -12  -8  17   -5.20   68.74
  12   7 -17  116.29   74.16
  12   7 -17  163.23  157.61
 -12  -7  17   24.51   75.65
 -12  -7  17  250.68  192.31
  12   6 -17   -4.02   59.42
  12   6 -17 -179.37  136.79
 -12  -6  17    4.97   64.31
 -12  -6  17  -11.26  166.92
  12   5 -17  -49.73   59.80
  12   5 -17  160.32  133.25
 -12  -5  17  -50.28   63.61
 -12  -5  17  231.73  171.71
  12   4 -17  300.23  146.97
 -12  -4  17  414.35  182.41
  12   3 -17 -269.50  130.64
  12   3 -17  -36.88   55.36
 -12  -3  17   12.15  164.70
  12   2 -17 -165.95  126.32
  12   2 -17   42.02   59.68
 -12  -2  17  120.91  167.95
  12   2  17 -154.32  128.09
 -12  -1 -17 -268.36  127.25
  12   1 -17  -11.70   85.76
  12   1  17    5.03  155.50
 -12   0 -17  173.88   98.98
  12   0 -17  -20.61   60.62
  12   0  17  104.46   74.21
  12   0  17 -205.62  148.70
 -12   1 -17  712.95  164.63
  12  -1  17  977.32  150.00
  12  -1  17  103.02  223.21
 -12   2 -17  -31.51  133.12
  12  -2  17  115.43  162.31
 -12   3 -17  -19.27  134.33
  12  -3  17    5.64  158.50
 -12   4 -17  127.93  134.07
  12  -4  17  288.23  157.57
  13  11 -17 -209.18  158.73
 -13 -11  17   -6.49  193.13
  13  10 -17  -31.16   90.33
  13  10 -17   -7.12  169.62
 -13 -10  17  -31.71  195.94
 -13 -10  17   -6.53   84.86
  13   9 -17  -28.00   83.58
  13   9 -17    6.83  141.78
 -13  -9  17   74.71  183.76
 -13  -9  17    5.93   76.39
  13   8 -17  -40.40   71.18
  13   8 -17   -6.69  139.92
 -13  -8  17  -36.81  177.81
 -13  -8  17   -5.44   70.17
  13   7 -17   19.92  139.29
  13   7 -17  -13.47   63.76
 -13  -7  17 -171.05  178.82
 -13  -7  17  -15.36   66.71
  13   6 -17   41.81   59.21
  13   6 -17 -539.67  146.05
 -13  -6  17    6.04  179.74
 -13  -6  17   -5.09   70.55
  13   5 -17 1237.77  277.26
 -13  -5  17 1463.73  309.73
  13   4 -17 -288.03  141.60
  13   4 -17   -3.92   59.11
 -13  -4  17   50.11  178.98
 -13  -4  17  -15.93   73.22
  13   3 -17  -49.41   54.82
  13   3 -17 -175.98  138.23
 -13  -3  17  121.76  170.56
 -13  -3  17   -5.44   74.37
  13   2 -17   20.77  144.37
  13   2 -17   50.96   59.45
  13   2  17 -267.54  145.43
 -13  -2  17  468.44  182.07
 -13  -1 -17 -106.30  104.24
  13   1 -17  -60.41   64.51
 -13  -1  17  210.57  176.03
  13   1  17    5.62  150.18
 -13   0 -17  200.35  107.51
  13   0 -17 -171.24   60.55
  13   0  17   94.28   81.18
  13   0  17   -6.03  166.32
 -13   1 -17 -164.72  101.14
  13  -1  17  176.31   80.31
  13  -1  17 -151.24  178.33
 -13   2 -17  -13.97  145.32
 -13   2 -17 -131.59  106.50
  13  -2  17 -504.38  182.95
  13  -2  17  -68.86   72.57
 -13   3 -17   -7.23  143.10
 -13   3 -17   39.80  109.48
  13  -3  17   24.87  174.61
  13  -3  17   -8.85   75.19
 -13   4 -17  -18.27  112.43
 -13   4 -17  101.73  150.02
  13  -4  17 -173.61   77.52
  13  -4  17 -215.61  167.73
  14  11 -17   -7.79  165.04
 -14 -11  17  -62.61  205.48
  14  10 -17   12.92   87.85
  14  10 -17  -59.47  161.77
 -14 -10  17   41.19   85.63
 -14 -10  17  -67.77  207.63
  14   9 -17  -23.77   86.53
  14   9 -17 -238.39  157.02
 -14  -9  17  -37.14   79.61
 -14  -9  17 -199.88  198.92
  14   8 -17  -21.22  160.11
  14   8 -17 -105.32   80.48
 -14  -8  17    5.65   76.62
 -14  -8  17  -19.43  200.31
  14   7 -17  -57.87   68.94
  14   7 -17  200.12  146.11
 -14  -7  17 -477.36  192.35
 -14  -7  17  107.54   68.46
  14   6 -17    8.79   64.10
  14   6 -17 -115.69  149.52
 -14  -6  17   31.47   69.94
 -14  -6  17 -220.29  191.22
 -14  -5  17 -124.04   80.68
 -14  -5  17 -424.45  190.88
 -14  -4  17   -5.43   73.71
 -14  -4  17  197.44  184.63
  14   2  17  107.03  167.75
 -14  -1 -17 -145.46  128.97
  14   1  17 -268.97   99.58
  14   1  17    6.28  178.83
 -14   0 -17  -86.29  123.38
  14   0  17 -500.97  197.79
 -14   1 -17  -52.09  159.73
 -14   1 -17 -194.07  127.53
  14  -1  17 -221.65   93.45
  14  -1  17 -553.68  209.24
 -14   2 -17   23.50  160.37
 -14   2 -17  -19.67  117.74
  14  -2  17 -302.73  193.63
  14  -2  17   20.48   83.86
 -14   3 -17  119.14  120.82
 -14   3 -17   41.11  174.04
  14  -3  17 -746.23  188.20
  14  -3  17  -44.47   86.36
 -14   4 -17  239.15  126.93
 -14   4 -17   83.37  167.14
  14  -4  17   32.26  187.23
  14  -4  17    4.96   87.68
  14  -5  17   85.59  168.98
  15   2  17    6.65  180.62
 -15  -1 -17  359.05  134.60
  15   1  17   30.65   97.50
  15   1  17  -83.75  187.31
 -15   0 -17  -77.92  125.14
  15   0  17 -453.88  209.67
  15   0  17  204.63   95.71
 -15   1 -17   32.70  167.48
 -15   1 -17   34.24  121.85
  15  -1  17 -171.70   93.20
  15  -1  17  189.59  213.41
 -15   2 -17 -114.78  179.55
 -15   2 -17   71.55  130.75
  15  -2  17 -667.50  221.20
  15  -2  17   17.08   87.21
 -15   3 -17 -499.26  143.24
 -15   3 -17 -118.96  199.74
  15  -3  17    5.50   92.02
  15  -3  17  274.01  203.61
 -15   4 -17 -163.96  144.26
 -15   4 -17   93.81  187.36
  15  -4  17  -49.36   94.79
  15  -4  17 -221.46  190.85
  15  -5  17  142.65  178.43
  15  -5  17    5.54   91.42
 -16  -1 -17  -49.66  162.86
  16   1  17 -504.96  124.97
  16   1  17    7.70  225.74
 -16   0 -17  134.34  181.32
 -16   0 -17   -6.66  147.90
  16   0  17 -346.34  111.66
  16   0  17   80.00  225.70
 -16   1 -17  -45.31  200.84
 -16   1 -17 -382.30  166.98
  16  -1  17 -381.41  123.33
 -16   2 -17 -379.03  240.31
 -16   4 -17 -750.67  206.94
 -16   4 -17 -136.57  259.66
 -16   5 -17 -190.47  162.96
  16  -5  17    7.53  204.19
  16  -5  17   12.10  105.36
 -17  -2 -17  265.36  157.33
  17   2  17 -139.32  226.65
 -17  -1 -17   15.77  168.18
  17   1  17   -8.42  228.67
  17   1  17 -290.01  118.17
 -17   0 -17 -137.73  193.03
 -17   0 -17   81.87  167.21
  17   0  17 -393.47  243.59
  17   0  17   73.85  118.19
 -17   1 -17  -29.70  213.32
 -17   1 -17 -284.97  167.86
  17  -1  17 -246.77  120.80
  17  -1  17   17.96  250.97
 -17   2 -17  216.93  216.32
 -17   2 -17  -13.86  164.28
  17  -2  17    7.02  116.02
  17  -2  17    8.93  244.87
 -17   3 -17 -151.94  158.42
 -17   3 -17 -148.04  226.18
  17  -3  17    8.80  238.43
  17  -3  17   34.81  117.68
 -17   4 -17  -23.75  238.01
 -17   4 -17  -13.78  168.82
  17  -4  17  -68.22  120.24
  17  -4  17 -155.14  221.84
 -17   5 -17  327.29  230.66
 -17   5 -17   -6.94  170.29
  17  -5  17    6.74  111.01
  17  -5  17   41.66  220.90
 -18  -2 -17  401.83  185.77
 -18  -1 -17   18.86  196.50
 -18  -1 -17  166.92  185.59
  18   1  17 -175.07  257.72
  18   1  17 -214.26  128.38
 -18   0 -17  -71.18  213.13
 -18   0 -17  349.52  189.38
  18   0  17  303.52  139.22
  18   0  17   56.82  264.61
 -18   1 -17   44.17  237.36
 -18   1 -17 -286.77  186.98
  18  -1  17   62.70  130.55
  18  -1  17  -29.03  262.26
 -18   2 -17 -237.32  243.89
 -18   2 -17  246.49  177.73
  18  -2  17   77.64  133.06
  18  -2  17 -519.37  270.68
 -18   3 -17 -191.07  257.58
 -18   3 -17 -328.33  186.32
  18  -3  17  -30.64  129.19
  18  -3  17 -354.75  262.21
 -18   4 -17  279.88  180.60
 -18   4 -17 -408.76  273.48
  18  -4  17  104.97  126.21
  18  -4  17 -394.52  240.71
 -18   5 -17  -13.57  260.47
 -18   5 -17  -75.38  182.61
  18  -5  17  176.18  121.75
   0   1 -18   23.49   83.83
   0   1 -18   38.24   42.76
   0  -1  18  159.75   93.18
   1   1 -18  914.61  221.48
  -1   1 -18  856.40  230.62
   1   1 -18  634.83  257.64
   1  -1  18 1010.50  270.23
  -1  -1  18 1124.78  266.15
   2   1 -18   12.33   41.69
  -1   2 -18  -24.94   81.45
  -1   2 -18   20.08   37.97
   2   1 -18   28.52   89.78
   1  -2  18  -54.17   85.26
  -2  -1  18  -40.59   90.65
   0   2 -18  119.92   48.46
   0   2 -18   83.92   87.14
   0  -2  18  186.49   93.38
   1   2 -18   21.50   38.22
   1   2 -18   76.75   84.68
  -2   1 -18   35.47   40.10
  -1  -2  18   28.46   85.58
  -2   2 -18   62.32   89.66
   2   2 -18   80.32   49.88
  -2   2 -18  147.67   48.12
   2   2 -18   86.70   84.86
  -2  -2  18  202.80  101.01
   2  -2  18  187.91   91.79
   3   2 -18   68.12   40.44
   3   2 -18   53.67   86.73
  -2   3 -18   39.92   76.90
  -2   3 -18   31.89   35.90
  -3  -2  18   80.77   99.40
   2  -3  18  139.38   86.49
   3   1 -18  660.65  184.79
  -1   3 -18  447.14  178.99
   3   1 -18  695.71  150.19
  -1   3 -18  627.94  157.63
  -3  -1  18  678.02  193.77
   1  -3  18  612.96  187.06
   0   3 -18    2.46   34.59
  -3   0 -18   28.88   42.78
   0   3 -18  -11.27   75.02
   0  -3  18  -76.96   85.76
   1   3 -18  653.65  150.69
   1   3 -18  560.78  176.48
  -3   1 -18  544.77  166.57
  -1  -3  18  670.53  187.12
   2   3 -18  117.66   40.01
  -3   2 -18   50.85   40.78
  -3   2 -18   91.59   91.11
   2   3 -18   75.96   86.14
   3  -2  18   94.58   91.59
  -2  -3  18   87.16   90.47
  -3   3 -18  596.62  213.28
   3   3 -18  613.48  172.91
   3   3 -18  607.17  203.97
  -3   3 -18  742.85  190.22
  -3  -3  18 1120.06  216.96
   3  -3  18  815.58  217.01
   4   3 -18  947.57  246.04
  -3   4 -18  841.95  249.95
   4   3 -18 1031.09  207.60
  -3   4 -18  846.22  228.38
  -4  -3  18  810.60  260.38
   3  -4  18 1026.82  258.42
   3  -4  18  720.52  215.50
   4   2 -18 1030.91  319.67
  -2   4 -18  994.99  324.73
   4   2 -18 1171.57  272.36
  -2   4 -18  997.13  300.21
   2  -4  18 1270.27  335.19
  -4  -2  18 1332.55  335.18
  -1   4 -18  389.96  125.79
   4   1 -18    3.28  100.17
   4   1 -18  500.30  133.62
  -1   4 -18  402.24  100.82
  -4  -1  18  423.07  148.17
   1  -4  18  470.13  132.33
   0   4 -18  530.35  142.35
  -4   0 -18  512.88  159.83
   0   4 -18  836.01  166.38
   0  -4  18  575.34  171.82
  -4   1 -18  436.79  129.63
   1   4 -18  515.11  140.23
   1   4 -18  511.77  117.78
  -1  -4  18  617.20  148.21
  -4   2 -18 1513.50  338.78
  -4   2 -18 1212.33  376.72
   2   4 -18 1349.38  302.45
   2   4 -18  960.87  334.74
  -2  -4  18 1318.26  350.29
   4  -2  18 1690.25  376.73
  -4   3 -18  870.50  248.31
   3   4 -18 1096.73  225.15
  -4   3 -18  781.35  276.89
   3   4 -18 1223.61  255.23
  -3  -4  18 1011.70  267.57
   4  -3  18 1006.47  276.54
  -4   4 -18  538.08  130.91
   4   4 -18  688.40  121.89
  -4   4 -18  439.63  155.41
   4   4 -18   67.00  167.86
   4  -4  18  567.20  122.20
   4  -4  18  313.96  158.37
  -4   5 -18   74.18   30.95
  -4   5 -18   47.82   69.03
   4  -5  18   85.34   71.47
   4  -5  18   52.19   32.89
  -5  -4  18 -275.37  130.84
  -3   5 -18  170.63   75.54
  -3   5 -18  155.87   43.28
   5   3 -18   82.06  118.68
   3  -5  18  139.13   44.70
   3  -5  18  263.76   81.82
  -5  -3  18 -183.78  125.69
  -2   5 -18  654.27  178.64
  -2   5 -18  471.20  202.31
   5   2 -18  771.10  205.27
   2  -5  18  753.81  167.21
  -5  -2  18  643.80  220.43
   2  -5  18  447.23  211.09
   5   1 -18   36.73   47.88
  -1   5 -18   53.08   72.90
  -1   5 -18   78.03   40.58
   5   1 -18   51.87   93.95
  -5  -1  18  155.75  109.59
   1  -5  18   80.87   40.03
   1  -5  18  123.24   80.09
  -5   0 -18   -8.53   41.22
   5   0 -18   -7.76   54.71
   0   5 -18  -38.00   73.52
   0   5 -18   99.36   37.30
   5   0  18  -20.85   65.52
   0  -5  18   -8.50   37.70
   0  -5  18  151.92   82.34
   1   5 -18   57.50   79.61
  -5   1 -18   67.28   40.98
   1   5 -18   87.95   38.16
  -1  -5  18  150.29   84.36
  -1  -5  18   26.91   42.50
   2   5 -18  981.68  225.98
   2   5 -18 1007.72  199.92
  -2  -5  18  879.80  237.30
  -2  -5  18  754.57  197.16
   3   5 -18 -129.10  106.75
   3   5 -18 -119.04   60.40
  -3  -5  18   46.25   62.03
   4   5 -18  -90.42   56.87
  -4  -5  18 -132.01   63.91
   5   5 -18    4.36   95.31
  -5  -5  18   -3.75  109.39
   6   5 -18  168.41   51.20
   6   5 -18 -101.40  102.89
  -6  -5  18   75.41  112.42
  -6  -5  18  193.04   59.04
  -4   6 -18   44.70   34.61
   6   4 -18   92.76   47.85
   6   4 -18   37.14   95.08
  -4   6 -18   17.59   68.12
   4  -6  18   52.60   30.21
  -6  -4  18    8.14  111.58
   4  -6  18   11.96   75.33
  -3   6 -18 1114.73  257.50
   6   3 -18 1018.99  209.43
  -3   6 -18  948.22  228.70
   6   3 -18  980.53  253.54
   3  -6  18 1034.25  270.41
   3  -6  18  678.48  212.58
  -6  -3  18  121.42  276.38
   6   2 -18 -101.87   99.23
  -2   6 -18   -3.23   75.50
   6   2 -18   72.21   48.27
  -2   6 -18    9.68   36.30
   2  -6  18   -7.83   76.18
  -6  -2  18    9.04  118.79
   2  -6  18   46.24   36.95
   6   1 -18  244.91  123.35
  -1   6 -18  741.67  156.42
   6   1 -18  497.60  168.07
  -1   6 -18  427.85  126.74
   1  -6  18  656.26  161.66
  -6  -1  18 1056.18  187.73
   1  -6  18  278.01  121.39
   6   0 -18  117.87   59.88
   0   6 -18   70.02   41.71
   0   6 -18  178.70   87.71
   6   0  18  123.79   77.68
   0  -6  18   -8.67   43.58
   0  -6  18  174.53   88.62
   1   6 -18  651.46  126.92
   6  -1  18  278.35  161.85
  -1  -6  18  514.60  123.11
   2   6 -18  -90.38   48.19
   2   6 -18 -310.07   99.43
  -2  -6  18 -124.16   49.31
   3   6 -18  815.62  239.67
   3   6 -18 1379.71  271.87
  -3  -6  18 1135.78  236.62
  -3  -6  18 1028.59  288.94
   4   6 -18   28.90   90.07
   4   6 -18  102.50   43.64
  -4  -6  18    3.49   51.22
  -4  -6  18   77.29  105.65
   5   6 -18  -34.60   95.19
  -5  -6  18  -44.56  108.59
   7   6 -18  -62.50   48.69
  -7  -6  18    8.17   53.08
   7   4 -18   34.65  113.31
  -4   7 -18   68.13   45.70
  -4   7 -18  207.87   76.48
  -7  -4  18   39.17  122.11
   4  -7  18   24.86   40.52
   7   3 -18    3.18   44.30
  -3   7 -18   29.22   37.57
   7   3 -18   61.34  104.40
  -3   7 -18  -55.31   74.84
   3  -7  18  -98.04   76.67
   3  -7  18  -43.85   36.37
  -7  -3  18   27.69  129.27
  -2   7 -18  454.05  116.22
   7   2 -18  237.50  162.00
   7   2 -18  382.05  108.95
  -2   7 -18  683.59  143.06
  -7  -2  18   38.50  177.88
   2  -7  18  520.96  150.79
   2  -7  18  343.38  107.47
   7   1 -18   52.87   52.82
   7   1 -18  -90.64  116.17
  -1   7 -18   72.97   74.89
  -1   7 -18    8.35   37.60
   1  -7  18   24.99   37.85
  -7  -1  18   -5.16  124.90
   1  -7  18   27.43   79.64
   0   7 -18   39.56   76.46
   7   0 -18  -32.19   59.48
   0   7 -18  -22.40   37.12
   0  -7  18  -26.36   40.99
   7   0  18  -42.19   85.67
   0  -7  18 -117.10   81.43
   1   7 -18   -3.72   75.08
   1   7 -18  -29.03   41.59
  -1  -7  18 -327.19   88.34
  -1  -7  18   52.11   44.19
   7  -1  18   88.03   99.35
   2   7 -18  488.31  152.72
   2   7 -18  615.78  126.31
  -2  -7  18  605.61  123.69
  -2  -7  18  295.07  162.46
   3   7 -18   12.16   45.68
   3   7 -18   20.33   90.65
  -3  -7  18   -3.39   45.80
  -3  -7  18 -142.87   98.90
   4   7 -18    4.24   94.70
  -4  -7  18  254.85  104.99
   6   7 -18   70.74   52.16
  -6  -7  18    3.91   51.95
   7   7 -18 -126.11   51.84
   7   7 -18   14.70  113.94
  -7  -7  18 -143.20  119.82
  -7  -7  18   28.79   57.97
   8   7 -18   -3.65   53.71
   8   7 -18 -207.67  118.79
  -8  -7  18   -4.56  143.88
  -8  -7  18    8.65   63.39
   8   6 -18   96.21   51.78
   8   6 -18   73.07  104.72
  -8  -6  18   -8.65   58.92
  -8  -6  18   59.16  132.37
   8   5 -18    6.58   52.26
  -8  -5  18   -8.63   63.48
  -4   8 -18  -22.43   76.35
  -4   8 -18  181.46   51.86
  -3   8 -18  203.72   84.52
   8   3 -18    5.41  111.37
  -3   8 -18  133.17   53.15
  -8  -3  18   19.85  134.95
   3  -8  18  201.39   86.38
   3  -8  18   85.95   46.82
  -2   8 -18  -27.66   77.70
   8   2 -18  -17.11  114.98
  -2   8 -18    9.82   44.01
   8   2 -18  111.92   48.89
   2  -8  18  -12.05   40.24
   2  -8  18   16.19   78.32
  -8  -2  18   56.44  135.43
   8   1 -18   -5.96  112.57
  -1   8 -18   55.19   46.17
   8   1 -18   14.60   56.18
  -1   8 -18   71.32   79.49
  -8  -1  18   -5.51  130.04
   8   1  18   87.72   88.61
   1  -8  18   89.21   44.71
   1  -8  18   53.20   80.86
   0   8 -18   25.76   76.89
   8   0 -18   40.92   56.93
   0   8 -18   12.86   45.31
   0  -8  18   -6.37   39.75
   8   0  18  -48.18   93.00
   0  -8  18  -82.11   85.19
  -8   1 -18   12.72   66.36
   1   8 -18   11.41   79.76
   1   8 -18   26.32   50.17
  -1  -8  18   -3.04   89.89
  -1  -8  18  114.42   41.22
   8  -1  18   57.86  110.02
   2   8 -18    3.94   81.00
   2   8 -18   81.63   44.60
   8  -2  18 -118.50  114.84
   8  -2  18   26.15   46.35
  -2  -8  18   77.81   46.61
  -2  -8  18   34.78   93.65
   3   8 -18   -4.08   95.99
  -3  -8  18  274.27  100.03
  -5  -8  18   -3.70   98.42
   6   8 -18  146.97   55.81
   6   8 -18    4.78  107.84
  -6  -8  18    7.87   56.97
  -6  -8  18    3.91  111.55
   7   8 -18 -111.13  113.63
   7   8 -18    7.63   57.98
  -7  -8  18    4.13   57.13
  -7  -8  18 -110.46  128.85
   8   8 -18    5.35  118.73
   8   8 -18  142.86   59.54
  -8  -8  18   -4.35   63.26
  -8  -8  18   81.40  139.40
   9   8 -18    5.63  124.69
   9   8 -18   37.28   57.02
  -9  -8  18  103.03  143.64
  -9  -8  18   59.58   64.00
   9   7 -18    5.56  124.75
   9   7 -18   45.79   58.44
  -9  -7  18   31.54   61.84
  -9  -7  18  -14.62  136.34
   9   6 -18    3.60   50.53
   9   6 -18    5.53  117.59
  -9  -6  18 -177.52   64.67
  -9  -6  18  -68.54  142.97
   9   5 -18  -79.34   50.62
   9   5 -18  -38.67  124.26
  -9  -5  18  -63.46  135.59
  -9  -5  18    4.59   59.76
   9   4 -18    3.40   53.03
  -3   9 -18  250.92   73.14
   3  -9  18   -3.45   44.20
  -2   9 -18   15.13   50.29
  -2   9 -18   20.40   75.35
   2  -9  18   -7.04   42.07
  -1   9 -18   26.75   51.78
  -1   9 -18   94.74   74.48
   9   1 -18    6.30  119.66
  -9  -1  18   47.14  151.40
   9   1  18   -3.65   98.39
   1  -9  18   31.83   44.79
   0   9 -18   57.96   77.74
   0   9 -18   38.93   54.59
   9   0  18  -81.03  105.67
   0  -9  18    3.61   44.36
   1   9 -18  -82.41   82.40
  -9   1 -18   57.93   68.43
   9  -1  18   32.96  129.04
   9  -1  18   -6.87   55.15
  -9   2 -18  -11.84   65.77
   9  -2  18    8.44  126.62
   9  -2  18    9.48   52.01
   3   9 -18    3.89   50.61
  -3  -9  18    7.63   52.99
   4   9 -18 -143.47   54.12
   4   9 -18   -4.32   92.74
  -4  -9  18    3.95   50.77
  -4  -9  18   31.98  101.05
   5   9 -18   44.98   56.26
   5   9 -18   36.77   96.67
  -5  -9  18   28.71   58.31
  -5  -9  18  -30.14  107.80
   6   9 -18   38.60  106.15
  -6  -9  18 -107.34  113.15
   7   9 -18   -4.36   56.89
   7   9 -18    5.13  111.35
  -7  -9  18  -58.09   53.97
  -7  -9  18   59.86  121.32
   8   9 -18  298.46  119.99
   8   9 -18    4.52   63.94
  -8  -9  18  -93.71   61.53
  -8  -9  18  -13.63  130.26
   9   9 -18   -4.72   70.49
   9   9 -18    5.82  122.81
  -9  -9  18   -9.91  145.57
  -9  -9  18    9.86   66.52
  10   9 -18  147.88   79.36
  10   9 -18    6.17  139.71
 -10  -9  18  134.97   81.65
 -10  -9  18  105.74  163.40
  10   8 -18   -4.33   64.95
  10   8 -18   35.81  125.72
 -10  -8  18  -10.62  149.39
 -10  -8  18   -4.89   63.21
  10   7 -18  -35.36  122.87
  10   7 -18   -4.06   61.09
 -10  -7  18   -9.50   67.98
 -10  -7  18  -47.62  145.48
  10   6 -18   41.38  128.35
  10   6 -18   49.73   54.50
 -10  -6  18  -52.16  147.45
 -10  -6  18    4.82   64.80
  10   5 -18    5.86  125.26
  10   5 -18  -22.07   49.92
 -10  -5  18  -92.33   68.50
 -10  -5  18   74.35  147.75
  10   4 -18  -10.62   52.58
  10   4 -18    5.94  126.47
 -10  -4  18   64.20   70.16
 -10  -4  18   -5.57  158.98
  -3  10 -18  452.92  106.81
  10   3 -18  802.80  152.95
  10   3 -18  101.82   88.26
 -10  -3  18  437.13  175.87
  10   2 -18  -11.14   59.37
  -2  10 -18    3.43   78.56
  -1  10 -18   81.41   77.39
  10   1  18  111.04  117.29
 -10   0 -18    4.02   85.73
  10   0  18  421.06  128.48
 -10   1 -18   -3.69   79.54
   1  10 -18   35.63   62.18
  -1 -10  18   -4.22   50.56
  10  -1  18 -138.66  132.08
  10  -1  18  -33.53   60.95
   2  10 -18 -142.69   86.14
 -10   2 -18  -26.13   76.52
   2  10 -18    4.47   58.47
  -2 -10  18  -68.83   55.75
  10  -2  18 -227.56  150.19
  10  -2  18  -37.34   62.93
   3  10 -18   53.86   97.98
   3  10 -18   54.47   73.33
  -3 -10  18  169.14   69.66
   4  10 -18   99.89   94.14
   4  10 -18   64.76   65.63
  -4 -10  18   26.76   60.90
   5  10 -18    4.73   64.93
   5  10 -18    4.68   97.71
  -5 -10  18    4.60   60.51
   6  10 -18   93.63  102.20
  -6 -10  18  -36.93  115.91
   7  10 -18   73.73   63.19
   7  10 -18   21.11  109.11
  -7 -10  18   94.32   63.92
  -7 -10  18   65.60  122.21
   8  10 -18  152.64   76.14
   8  10 -18  -66.88  119.73
  -8 -10  18   15.57   65.68
  -8 -10  18  106.71  136.33
   9  10 -18   41.69  133.55
   9  10 -18   95.25   72.08
  -9 -10  18  185.18   77.51
  -9 -10  18  -10.02  152.12
  10  10 -18 -134.98   83.42
  10  10 -18  -44.65  128.67
 -10 -10  18    5.73   75.47
 -10 -10  18   16.02  154.13
  11  10 -18   99.82   79.74
  11  10 -18   33.77  142.41
 -11 -10  18    6.04   84.33
 -11 -10  18   34.96  164.67
  11   9 -18    5.16   74.75
  11   9 -18    6.49  136.84
 -11  -9  18   27.66   73.50
 -11  -9  18   11.47  167.48
  11   8 -18  121.28  141.54
  11   8 -18   -4.69   65.10
 -11  -8  18   77.36   69.11
 -11  -8  18  -39.76  174.04
  11   7 -18  -88.39  131.87
  11   7 -18    8.48   64.90
 -11  -7  18   -5.00   64.89
 -11  -7  18   74.02  167.19
  11   6 -18   84.03   53.86
  11   6 -18  -31.22  136.69
 -11  -6  18   50.75  159.48
 -11  -6  18   15.29   68.51
  11   5 -18  -46.27   59.86
  11   5 -18  -74.82  128.62
 -11  -5  18    5.10   69.89
 -11  -5  18  162.26  164.79
  11   4 -18  -88.60  128.50
  11   4 -18   85.47   57.31
 -11  -4  18   15.61   75.11
 -11  -4  18   23.68  160.95
  11   3 -18   38.02   57.49
  11   3 -18  -58.36  134.26
 -11  -3  18 -339.02  163.90
  11   2 -18  -38.92   55.31
  11   2 -18   -6.70  137.98
 -11  -2  18  -25.19  163.59
  11   1 -18  567.82  145.54
  11   1 -18   48.14   69.05
  11   1  18   -4.56  133.52
 -11  -1  18  209.19  172.36
   0  11 -18  -67.94   81.49
  11   0 -18  -17.22   63.67
   1  11 -18   46.83   89.09
  11  -1  18  134.03   72.15
 -11   2 -18    7.26   85.11
   2  11 -18   45.00   86.03
  -2 -11  18    9.70   60.09
  11  -2  18  -22.66   63.18
   3  11 -18  -21.33   89.70
  11  -3  18  -17.99   61.64
  -3 -11  18    4.96   58.87
   4  11 -18   -4.46   91.63
  -4 -11  18   10.18   60.98
   5  11 -18  -26.32   71.42
   5  11 -18   37.89   97.68
  -5 -11  18   26.21   65.22
   6  11 -18    5.01  107.85
   7  11 -18    5.43  115.30
   7  11 -18   66.60   74.52
  -7 -11  18   -5.57   71.50
   8  11 -18 -120.73  121.07
   8  11 -18   28.66   81.18
  -8 -11  18   52.99  134.39
  -8 -11  18  -87.07   73.83
   9  11 -18 -160.64  134.71
   9  11 -18  -11.88   75.08
  -9 -11  18  -15.46  145.41
  -9 -11  18 -109.21   81.74
  10  11 -18    6.59  139.46
 -10 -11  18 -126.09  158.42
 -10 -11  18    6.36   80.35
  11  11 -18   44.94   84.55
  11  11 -18    6.96  148.84
 -11 -11  18   40.44   80.20
 -11 -11  18    5.92  169.08
  12  11 -18  -89.40  158.19
 -12 -11  18   70.78  193.08
 -12 -11  18    7.06   83.53
  12  10 -18  -24.52   79.81
  12  10 -18    7.13  154.48
 -12 -10  18    6.35   82.76
 -12 -10  18  -31.53  179.54
  12   9 -18  -34.31  153.05
  12   9 -18   50.21   80.63
 -12  -9  18   43.44  179.51
 -12  -9  18   17.48   77.15
  12   8 -18    6.74  142.60
  12   8 -18   39.23   71.79
 -12  -8  18   12.27  174.32
 -12  -8  18   -5.43   69.54
  12   7 -18   61.87   68.61
  12   7 -18    6.72  142.08
 -12  -7  18  162.49  176.23
 -12  -7  18    5.20   72.72
  12   6 -18 -230.89  137.79
  12   6 -18   37.69   65.08
 -12  -6  18   58.54   78.63
 -12  -6  18   30.37  185.18
  12   5 -18    4.08   63.95
  12   5 -18    6.57  140.92
 -12  -5  18 -187.53   76.42
 -12  -5  18  -24.68  177.24
  12   4 -18   71.11   58.02
  12   4 -18 -132.99  127.91
 -12  -4  18   63.11  176.95
 -12  -4  18  -32.64   74.19
  12   3 -18 -384.76  148.34
  12   3 -18   15.74   61.83
 -12  -3  18 -102.66  179.60
  12   2 -18   -7.02  152.88
  12   2 -18    4.07   72.20
 -12  -2  18   74.19  182.33
  12   1 -18   58.03   69.82
 -12  -1  18  546.53  186.63
  12   1  18   15.27  141.93
  12   0 -18   61.27   71.67
 -12   0 -18  241.25  105.21
  12   0  18  191.20  155.91
  12   0  18  157.18   78.30
 -12   1 -18   69.08   93.46
  12  -1  18 -197.61   69.29
 -12   2 -18  179.75  167.77
 -12   2 -18  534.18  125.55
  12  -2  18  483.67  108.62
  12  -2  18  315.37  193.06
  12  -3  18   62.85  192.80
  12  -3  18  678.77  114.80
 -12 -12  18    6.59  194.95
  13  11 -18   86.19  169.37
 -13 -11  18  125.60   91.33
 -13 -11  18  -20.82  203.83
  13  10 -18  -19.20   85.52
  13  10 -18   22.47  163.67
 -13 -10  18  -40.58   93.09
 -13 -10  18    6.79  193.88
  13   9 -18 -599.76  174.79
 -13  -9  18   -6.11   90.27
  13   8 -18   -7.17  149.37
  13   8 -18   20.50   77.05
 -13  -8  18    5.74   76.35
 -13  -8  18   91.68  195.17
  13   7 -18   -7.04  145.64
  13   7 -18   -4.75   66.68
 -13  -7  18    5.44   76.98
 -13  -7  18   12.91  187.63
  13   6 -18  -48.78  150.94
  13   6 -18   13.35   66.71
 -13  -6  18   26.29  196.05
 -13  -6  18   38.66   75.42
  13   5 -18   46.70   62.69
  13   5 -18   -6.94  145.62
 -13  -5  18   16.72   68.56
 -13  -5  18 -385.08  188.23
  13   4 -18 -753.19  161.10
  13   4 -18  -32.93   65.03
 -13  -4  18   22.73   77.15
 -13  -4  18    6.67  199.18
  13   3 -18 -101.38   70.06
  13   3 -18 -208.83  159.38
 -13  -3  18 -441.34  200.90
 -13  -3  18 -244.25   87.20
  13   2 -18 -161.78  148.34
  13   2 -18   12.55   61.74
 -13  -2  18  150.13  189.82
 -13  -1 -18   81.34  106.76
  13   1 -18   55.66   73.50
  13   1  18    5.68  152.41
 -13   0 -18 -102.58  108.15
  13   0 -18  -35.52   69.37
  13   0  18 -115.55  164.73
  13   0  18  -20.13   81.68
 -13   1 -18  277.37  111.50
  13  -1  18    4.83   80.30
  13  -1  18    6.37  188.16
 -13   2 -18 -102.00  103.50
 -13   2 -18   35.69  149.13
  13  -2  18 -387.58  200.26
  13  -2  18 -178.13   79.08
 -13   3 -18  -48.67  116.86
 -13   3 -18 -125.52  157.31
  13  -3  18  -62.93  194.52
  13  -3  18  -54.39   88.18
  14  11 -18 -106.37  173.63
 -14 -11  18 -117.38  214.27
  14  10 -18   40.43   95.03
  14  10 -18    7.92  168.27
 -14 -10  18 -100.48  209.22
 -14 -10  18   42.46   90.95
  14   9 -18    6.09   84.85
  14   9 -18    7.73  164.75
 -14  -9  18   28.17  209.88
 -14  -9  18   19.41   80.17
  14   8 -18 -110.68   88.08
 -14  -8  18   27.95  205.41
 -14  -8  18   -5.97   71.03
  14   7 -18   44.46   71.06
  14   7 -18    7.36  163.90
 -14  -7  18   62.11   74.85
 -14  -7  18   13.73  200.37
  14   6 -18 -123.44  151.54
  14   6 -18  -56.26   72.55
 -14  -6  18   62.04  202.21
 -14  -6  18   16.88   70.02
  14   5 -18   75.86   67.14
  14   5 -18  326.79  149.81
 -14  -5  18  -92.48   77.83
 -14  -5  18  -34.85  201.65
  14   4 -18  -47.64   65.82
  14   4 -18  102.56  151.12
 -14  -4  18 -278.88  192.26
 -14  -4  18  -35.18   77.37
 -14  -3  18   21.41  197.81
 -14  -3  18   -5.97   76.29
  14   2  18    6.01  159.62
 -14  -1 -18  124.19  120.54
  14   1  18   -6.33  176.35
 -14   0 -18   22.61  120.08
  14   0  18   67.34  192.72
  14   0  18 -182.59   88.30
 -14   1 -18  -79.84  121.11
 -14   1 -18  -30.32  158.17
  14  -1  18   -5.33   86.37
  14  -1  18 -418.90  201.58
 -14   2 -18   74.56  110.60
 -14   2 -18   -8.00  172.43
  14  -2  18 -157.75   84.95
  14  -2  18  163.51  198.75
 -14   3 -18   16.81  171.60
 -14   3 -18   29.83  117.58
  14  -3  18 -130.87  197.38
  14  -3  18 -146.80   88.39
  15   2  18   94.00  180.81
 -15  -1 -18 -175.68  136.79
  15   1  18   56.25  195.11
 -15   0 -18   75.13  134.78
  15   0  18    6.09   91.10
  15   0  18 -206.62  209.41
 -15   1 -18  224.32  170.29
 -15   1 -18 -201.94  127.88
  15  -1  18   -7.65  209.35
  15  -1  18  -76.89   98.08
 -15   2 -18  -94.64  124.04
 -15   2 -18   35.24  177.05
  15  -2  18  131.80  216.22
  15  -2  18 -107.69   90.91
 -15   3 -18  140.14  190.12
 -15   3 -18  122.50  133.41
  15  -3  18 -388.92  208.23
  15  -3  18    5.64   92.64
  15  -4  18   28.79  197.52
  16   2  18 -843.04  249.73
 -16  -1 -18  546.68  213.57
 -16   0 -18   51.02  187.55
  16   0  18 -558.52  131.49
  16   0  18   96.63  241.57
 -16   1 -18  471.12  207.72
 -16   1 -18  235.24  236.29
 -16   2 -18 -454.42  271.11
  16  -2  18 -550.21  153.70
 -16   3 -18 -125.84  209.29
 -16   3 -18   31.06  145.86
  16  -3  18 -415.55  220.56
  16  -3  18   12.53  103.04
  16  -4  18 -111.33  103.50
  16  -4  18   23.76  207.78
  17   2  18    8.26  224.96
 -17  -1 -18  -31.92  162.54
  17   1  18   -8.48  244.03
 -17   0 -18 -411.54  175.03
 -17   0 -18  130.04  198.87
  17   0  18   44.76  123.92
  17   0  18 -437.04  243.78
 -17   1 -18  -20.04  219.83
 -17   1 -18  133.32  162.77
  17  -1  18  241.25  120.21
  17  -1  18 -334.32  251.35
 -17   2 -18 -187.62  164.51
 -17   2 -18  330.31  229.06
  17  -2  18 -301.85  120.86
  17  -2  18  396.98  252.23
 -17   3 -18 -139.03  233.17
 -17   3 -18   89.76  167.60
  17  -3  18 -215.00  117.46
  17  -3  18 -372.64  253.05
 -17   4 -18   89.43  165.13
  17  -4  18   86.89  237.72
  17  -4  18    6.82  113.64
 -18  -1 -18 -142.38  179.40
 -18   0 -18   69.46  184.19
  18   0  18  116.07  132.39
 -18   1 -18  -41.44  180.25
 -18   1 -18   33.48  231.37
  18  -1  18   48.79  133.30
 -18   2 -18  -72.16  246.24
 -18   2 -18   39.69  178.45
  18  -2  18   15.92  130.06
 -18   3 -18   25.86  258.90
 -18   3 -18 -244.44  179.54
  18  -3  18  -62.95  125.13
 -18   4 -18  -26.81  256.47
 -18   4 -18   -7.57  174.91
  18  -4  18 -255.51  131.31
  18  -4  18    9.45  203.38
   0   1 -19 1116.82  241.04
   0   1 -19  884.05  283.04
   0  -1  19  811.00  287.98
   1   1 -19  -28.78   43.38
   1   1 -19   -5.09   98.48
  -1   1 -19    6.05   39.61
  -1  -1  19  -63.95  102.62
   1  -1  19  -12.51   96.11
  -1   2 -19   13.56   39.17
  -1   2 -19  -13.58   90.35
   2   1 -19    5.14   95.24
   2   1 -19   23.02   47.35
   1  -2  19  -55.22   95.67
  -2  -1  19 -104.59  102.38
   0   2 -19   32.00   88.78
   0   2 -19  -14.04   37.49
   0  -2  19  130.97   93.12
  -2   1 -19   17.60   42.22
   1   2 -19   40.40   40.31
   1   2 -19    9.26   96.20
  -1  -2  19   19.18   96.23
  -2   2 -19    4.51   85.91
   2   2 -19   32.67   42.38
  -2   2 -19   23.62   36.32
   2   2 -19   14.20   89.62
   2  -2  19   54.99   88.21
  -2  -2  19  -47.56  102.15
   3   2 -19 1360.74  268.70
  -2   3 -19 1194.52  297.61
   3   2 -19 1007.16  315.91
  -2   3 -19  881.85  326.82
  -3  -2  19 1229.36  327.33
   2  -3  19 1066.16  330.61
  -1   3 -19   60.63   81.66
   3   1 -19  105.08   47.24
  -1   3 -19   51.38   40.11
   3   1 -19  -31.34   96.09
   1  -3  19   16.89   86.31
  -3  -1  19 -171.02  106.66
   0   3 -19  594.64  132.88
   0   3 -19  263.94  160.64
   0  -3  19  604.51  171.58
   1   3 -19   55.05   84.08
  -3   1 -19   62.38   42.69
   1   3 -19   35.48   38.72
  -1  -3  19  -64.76   96.14
   2   3 -19 1319.64  315.77
   2   3 -19 1112.49  276.58
  -3   2 -19  975.48  344.00
   3  -2  19 1173.08  348.20
  -2  -3  19 1293.45  329.60
   3   3 -19   78.22   42.29
   3   3 -19 -107.91   87.38
  -3   3 -19   18.95   35.41
  -3   3 -19  -56.26   83.98
   3  -3  19 -103.99   88.19
  -3  -3  19   62.81  104.90
  -3   4 -19 1298.27  344.04
  -3   4 -19 1231.06  372.19
   4   3 -19 1876.60  308.98
   3  -4  19 1319.11  381.04
   3  -4  19  862.52  322.38
   4   2 -19  262.01  138.75
   4   2 -19  291.73   85.09
  -2   4 -19  367.31   88.31
  -2   4 -19  602.99  116.94
   2  -4  19  304.93  126.12
  -4  -2  19  120.92  140.08
   4   1 -19 1043.90  218.27
  -1   4 -19 1205.68  233.50
  -1   4 -19  842.83  258.11
   4   1 -19  707.59  259.43
   1  -4  19  818.44  268.38
  -4  -1  19  702.16  276.57
   0   4 -19   -3.88   80.40
  -4   0 -19  -16.01   46.50
   0   4 -19   15.67   37.79
   0  -4  19   54.61   85.46
   1   4 -19 1069.76  230.19
   1   4 -19  914.38  260.60
  -4   1 -19  801.72  261.41
  -1  -4  19  952.19  272.83
  -4   2 -19  380.75   84.75
   2   4 -19  120.11  113.92
   2   4 -19  289.06   78.53
   4  -2  19  259.02  125.21
  -2  -4  19  -35.05  132.74
  -4   3 -19 1088.58  395.45
   3   4 -19 1836.03  322.62
  -4   3 -19  920.17  361.21
   4  -3  19 1509.87  394.02
   4   4 -19  -14.82   41.53
  -4   4 -19  -10.31   29.13
   4   4 -19    4.52   92.96
  -4   4 -19   35.28   74.84
   4  -4  19    5.85   85.29
  -4  -4  19  -77.75  104.73
   4  -4  19    7.02   31.89
  -4   5 -19  225.33  103.22
  -4   5 -19  192.89   71.80
   5   4 -19   81.10  114.62
  -5  -4  19   37.02  130.47
   4  -5  19  327.00   68.44
   5   3 -19  306.37  213.85
  -3   5 -19  720.10  212.74
  -3   5 -19  991.44  188.24
  -5  -3  19   56.67  233.04
   3  -5  19  782.00  222.88
   3  -5  19  754.96  173.41
   5   2 -19  220.29  223.08
  -2   5 -19  965.24  219.48
  -2   5 -19  869.34  195.48
   2  -5  19  821.29  183.62
   2  -5  19  796.70  228.21
  -1   5 -19  425.09  104.24
   5   1 -19  537.77  153.76
  -1   5 -19  274.00  132.67
   1  -5  19  402.74  139.71
   1  -5  19  198.36   98.60
   0   5 -19  774.48  224.74
   0   5 -19  954.82  254.83
   0  -5  19  842.00  217.25
   0  -5  19 1147.84  265.01
   1   5 -19  341.15  102.34
   1   5 -19  483.76  137.48
  -1  -5  19  278.30  101.96
   2   5 -19  950.93  181.89
   2   5 -19  385.26  216.15
  -2  -5  19  735.73  179.44
   3   5 -19  898.14  228.97
   3   5 -19  734.51  196.71
  -3  -5  19  817.73  195.16
  -3  -5  19  962.02  244.27
   4   5 -19  281.70  130.72
   4   5 -19  501.01   91.95
  -4  -5  19  574.85  141.48
  -4  -5  19  211.03   96.32
   5   5 -19  -51.95  105.03
  -5  -5  19  -40.76  113.15
  -4   6 -19  195.20   49.11
   6   4 -19   50.18  116.83
  -4   6 -19  191.97   85.73
  -6  -4  19   58.02  130.02
   6   3 -19  560.52  127.43
  -3   6 -19  312.22   74.38
  -3   6 -19  316.69  104.46
   6   3 -19  103.46   76.07
   3  -6  19  307.15   70.85
   3  -6  19  229.79  109.42
  -6  -3  19   -4.65  144.08
   6   2 -19    5.49  204.31
  -2   6 -19  574.51  168.02
   6   2 -19  809.36  152.48
  -2   6 -19  657.62  195.37
  -6  -2  19  115.38  219.73
   2  -6  19  678.91  157.19
   2  -6  19  781.28  206.09
   6   1 -19  110.00   57.16
  -1   6 -19   97.67   83.76
  -1   6 -19  117.47   48.80
   6   1 -19   75.05  117.06
   1  -6  19  230.49   92.35
   1  -6  19  152.00   47.54
  -6  -1  19    5.17  127.75
   0   6 -19    2.74   42.18
   0   6 -19   56.40   77.11
   6   0  19   -5.39   78.52
   0  -6  19   21.48   41.48
   0  -6  19    3.13   91.21
   1   6 -19   96.57   46.25
   1   6 -19  -19.51   82.57
  -1  -6  19   67.83   45.52
  -1  -6  19  -94.68   94.75
   2   6 -19  788.94  188.28
   2   6 -19 1089.96  217.27
  -2  -6  19  881.98  183.68
  -2  -6  19  549.15  231.47
   3   6 -19  168.61  106.58
  -3  -6  19 -164.76  116.96
  -3  -6  19  102.69   62.11
   4   6 -19    4.47   93.60
  -4  -6  19  158.18  112.32
  -4  -6  19   -3.71   45.34
   6   6 -19   13.29   47.01
  -6  -6  19   12.31   56.46
   7   6 -19   13.99   51.31
   7   6 -19    5.25  108.99
  -7  -6  19    4.33   60.27
  -7  -6  19  -13.79  131.34
   7   5 -19   82.41   49.62
  -7  -5  19   56.42   58.03
  -3   7 -19  514.42  115.63
   7   3 -19  142.04  158.78
  -3   7 -19  642.56  141.60
   3  -7  19  370.50  107.76
   3  -7  19  682.64  153.19
  -7  -3  19   39.55  180.86
  -2   7 -19   56.47   42.66
   7   2 -19   17.31  112.23
  -2   7 -19    7.27   81.95
   7   2 -19   -3.48   51.14
  -7  -2  19  -66.38  131.93
   2  -7  19   41.65   37.99
   2  -7  19  239.21   84.98
  -1   7 -19  231.81   70.62
  -1   7 -19  285.49  100.47
   7   1 -19  114.78  131.49
   7   1 -19  108.68   74.89
   1  -7  19  194.43   65.79
   1  -7  19  363.74  110.98
  -7  -1  19   32.84  153.17
   0   7 -19   26.88   45.74
   0   7 -19  155.56   84.45
   0  -7  19   24.80   43.68
   0  -7  19   93.91   91.79
   7   0  19   43.02   89.98
   1   7 -19  253.38  109.01
   1   7 -19  349.49   79.33
  -1  -7  19  246.38   74.12
  -1  -7  19  270.30  120.12
   2   7 -19   66.89   90.94
   2   7 -19   81.55   47.16
  -2  -7  19   61.94   45.41
  -2  -7  19 -135.80   95.34
   3   7 -19  325.05  139.70
  -3  -7  19  242.02  146.44
   5   7 -19 -101.40   49.76
  -5  -7  19    3.96   55.39
   6   7 -19  -74.26  114.14
   6   7 -19   -3.50   47.91
  -6  -7  19   51.46  126.32
   7   7 -19   -3.71   57.79
   7   7 -19    5.21  152.27
  -7  -7  19  191.28  142.82
  -7  -7  19    4.37   85.98
   8   7 -19  108.44   59.02
   8   7 -19   50.18  124.79
  -8  -7  19  -49.32  146.60
  -8  -7  19    4.60   69.57
   8   6 -19  -21.93   50.81
   8   6 -19   83.51  119.79
  -8  -6  19    4.58   63.87
  -8  -6  19  -43.87  146.66
   8   5 -19 -166.81  129.08
   8   5 -19   10.50   50.20
  -8  -5  19  -13.76   62.27
  -8  -5  19   69.34  142.81
   8   4 -19    3.46   57.82
  -3   8 -19   13.13   45.36
  -3   8 -19   14.34   82.50
   3  -8  19   87.53   87.11
   3  -8  19   44.85   38.32
  -2   8 -19  271.55   88.56
  -2   8 -19   82.06   54.54
   2  -8  19  129.67   91.64
   2  -8  19   88.87   49.32
  -1   8 -19   23.70   47.69
  -1   8 -19  142.15   88.55
   1  -8  19 -180.58   91.51
   1  -8  19    3.19   39.37
   0   8 -19   26.94   50.23
   0   8 -19  -27.74   88.67
   0  -8  19   65.84   44.19
   8   0  19   59.51  100.53
   0  -8  19   82.51   89.12
   1   8 -19  204.42   93.79
  -1  -8  19   71.65   45.81
  -1  -8  19   19.74   94.45
   8  -1  19  120.37  115.69
   4   8 -19  392.61  124.73
   5   8 -19   43.55   51.14
   5   8 -19    4.84  100.80
  -5  -8  19   -8.05  112.38
  -5  -8  19    3.95   52.92
   6   8 -19   -5.07  110.88
  -6  -8  19    8.49  126.04
   7   8 -19  -70.09   59.01
   7   8 -19  133.46  122.08
  -7  -8  19    4.34   62.57
  -7  -8  19    4.58  129.15
   8   8 -19  -84.22  122.51
   8   8 -19   16.74   63.02
  -8  -8  19 -443.47  145.57
  -8  -8  19    4.57   63.82
   9   8 -19   65.47   68.04
   9   8 -19  184.53  130.60
  -9  -8  19  110.93   69.86
  -9  -8  19   26.34  150.19
   9   7 -19   -5.90  127.14
   9   7 -19   20.22   54.92
  -9  -7  19  -10.52  143.25
  -9  -7  19   87.22   67.70
   9   6 -19   -5.94  127.68
   9   6 -19   19.11   53.91
  -9  -6  19    4.85   62.33
  -9  -6  19   74.09  150.55
   9   5 -19   29.35   57.48
   9   5 -19   88.46  130.27
  -9  -5  19   14.56   66.47
  -9  -5  19   15.88  154.93
   9   4 -19   94.14   64.45
   9   4 -19  209.68  146.43
  -9  -4  19  127.50  165.68
   9   3 -19    3.72   57.36
   9   3 -19  414.04  130.71
  -3   9 -19 -224.79   85.34
  -3   9 -19   48.98   51.75
  -9  -3  19  411.35  157.53
   3  -9  19   14.06   45.02
   3  -9  19   63.52   86.86
  -2   9 -19  -29.94   83.44
   9   2 -19   22.64   56.94
  -2   9 -19   53.85   51.76
   2  -9  19   21.47   46.78
   2  -9  19  -41.98   85.77
  -1   9 -19  149.88   53.78
  -1   9 -19  -92.53   86.83
   1  -9  19   96.24   92.88
   1  -9  19   68.72   51.46
   9   1  19  122.63  101.05
   0   9 -19  115.09   94.43
   9   0  19  133.13  114.94
   0  -9  19  118.79  101.98
   9  -1  19  -74.49  123.42
   2   9 -19    3.98   55.38
  -2  -9  19 -107.58   49.68
   3   9 -19   52.74   61.36
   3   9 -19   -4.46   95.39
  -3  -9  19 -195.66  104.69
  -3  -9  19   47.64   50.96
   4   9 -19    4.64  101.38
   4   9 -19   12.05   58.38
  -4  -9  19   37.92  112.38
  -4  -9  19    4.11   50.34
   5   9 -19   44.08  112.06
   5   9 -19  -12.37   58.95
  -5  -9  19   84.96  115.71
  -5  -9  19   17.09   55.62
   6   9 -19    5.14  112.11
  -6  -9  19   68.15  124.20
   7   9 -19   21.90  114.43
   7   9 -19    4.40   61.86
  -7  -9  19    4.62   58.63
  -7  -9  19  -13.54  127.07
   8   9 -19   45.70   69.42
   8   9 -19   52.09  129.75
  -8  -9  19    4.91  143.92
  -8  -9  19   14.69   64.65
   9   9 -19   19.04   71.21
   9   9 -19   49.05  135.53
  -9  -9  19   15.46   66.40
  -9  -9  19   63.78  149.26
  10   9 -19    6.46  137.22
  10   9 -19   41.21   74.42
 -10  -9  19  152.08   73.67
 -10  -9  19  -11.37  162.46
  10   8 -19 -567.22  144.71
  10   8 -19  -68.45   68.52
 -10  -8  19    5.64  166.68
 -10  -8  19  -30.55   70.72
  10   7 -19   12.65  134.91
  10   7 -19   29.61   65.67
 -10  -7  19   84.98  160.41
 -10  -7  19   96.90   69.17
  10   6 -19   69.05  135.07
  10   6 -19   68.05   61.24
 -10  -6  19  -44.97  156.75
 -10  -6  19 -173.69   70.46
  10   5 -19    6.28  132.11
  10   5 -19   -3.85   56.73
 -10  -5  19    5.78  162.65
 -10  -5  19   25.81   69.77
  10   4 -19   60.27   55.80
  10   4 -19   38.29  137.42
 -10  -4  19   76.64  162.89
 -10  -4  19   -5.24   69.55
  10   3 -19   -6.53  128.57
  10   3 -19   89.05   59.69
  -3  10 -19  -10.82   79.30
 -10  -3  19   42.07  156.90
  -2  10 -19  -52.07   83.82
  10   2 -19  -27.59   58.31
  10   2 -19    6.75  133.09
 -10  -2  19  -12.45  168.63
  10   1 -19 -126.80  142.16
  10   1 -19    8.22   68.34
 -10  -1  19  -53.13  173.42
   0  10 -19   36.12   60.93
  10   0 -19   17.81   64.28
  10   0  19 -105.54  131.40
   0 -10  19  -67.66   55.10
 -10   1 -19   22.99   87.24
   1  10 -19    4.09   89.23
   1  10 -19  222.43   66.21
  10  -1  19  201.14  139.43
  10  -1  19   64.72   69.57
  -1 -10  19   25.90   55.94
   2  10 -19   18.47   60.33
   2  10 -19   -4.34   94.23
  -2 -10  19   17.39   54.91
   3  10 -19   72.23   98.70
   3  10 -19  -79.89   64.54
  -3 -10  19  -26.77   58.59
   4  10 -19   70.53   66.02
   4  10 -19 -113.16  102.28
  -4 -10  19  -35.12  110.44
  -4 -10  19   45.90   59.01
   5  10 -19    4.81   70.46
   5  10 -19    5.01  107.94
  -5 -10  19   70.23   61.47
  -5 -10  19   20.44  115.68
   6  10 -19    5.26  108.94
  -6 -10  19    4.34  123.13
   7  10 -19  102.00   73.82
   7  10 -19  122.97  121.11
  -7 -10  19  -32.18  130.95
  -7 -10  19    5.07   67.77
   8  10 -19   -5.90  121.68
   8  10 -19    5.28   67.82
  -8 -10  19  -58.38   66.67
  -8 -10  19   44.56  149.38
   9  10 -19  -27.48   78.70
   9  10 -19    6.32  135.72
  -9 -10  19  -70.10  157.82
  -9 -10  19    5.57   71.24
  10  10 -19 -147.38  135.95
  10  10 -19   -5.73   79.95
 -10 -10  19   -5.87   74.39
 -10 -10  19   69.03  166.90
  11  10 -19  -17.97   81.09
  11  10 -19   -7.09  152.36
 -11 -10  19   18.82   88.28
 -11 -10  19 -193.61  171.08
  11   9 -19  -80.98   78.27
  11   9 -19  -34.26  151.92
 -11  -9  19   36.91  179.04
 -11  -9  19    5.73   74.48
  11   8 -19   -9.56   70.36
  11   8 -19    6.76  152.98
 -11  -8  19  110.02  179.23
 -11  -8  19   -5.37   74.18
  11   7 -19  409.79  153.80
  11   7 -19   79.67   73.14
 -11  -7  19  174.33  186.83
 -11  -7  19   31.86   77.11
  11   6 -19  -21.28   64.02
  11   6 -19  -73.20  140.72
 -11  -6  19    6.08  173.24
 -11  -6  19  -70.32   72.41
  11   5 -19   73.10  139.41
  11   5 -19   69.76   60.69
 -11  -5  19  129.55  175.88
 -11  -5  19   49.11   79.21
  11   4 -19   -3.95   59.27
  11   4 -19  262.52  133.82
 -11  -4  19  -49.84   74.89
 -11  -4  19 -246.02  181.15
  11   3 -19   27.77  139.07
  11   3 -19   -8.09   60.26
 -11  -3  19    6.39  171.30
  11   2 -19  -35.42  138.08
  11   2 -19   66.12   67.08
 -11  -2  19   20.00  174.32
  -1  11 -19   85.40   86.10
  11   1 -19   21.28   66.94
 -11  -1  19   35.43  174.75
  11   1  19 -217.28  124.27
   0  11 -19  300.87   96.91
  11   0 -19   41.07   73.11
   1  11 -19 -190.89   88.62
  -1 -11  19   14.56   58.27
   2  11 -19 -143.71   90.88
  -2 -11  19  -64.60   53.80
   3  11 -19  -10.46   71.35
   3  11 -19    4.54   97.95
  -3 -11  19   56.00   61.19
   4  11 -19   10.66   72.03
   4  11 -19   -4.77   98.57
  -4 -11  19   77.64   64.86
   5  11 -19  -43.56   74.14
   5  11 -19  -15.39  109.79
  -5 -11  19  -79.91   68.60
   6  11 -19   -5.40  110.06
  -6 -11  19   -4.51  126.12
   7  11 -19   11.56  124.95
   7  11 -19   91.84   79.21
  -7 -11  19    4.75  140.00
  -7 -11  19   28.60   75.35
   8  11 -19    6.11  123.68
   8  11 -19 -172.02   85.08
  -8 -11  19  -29.84   73.56
  -8 -11  19   20.31  147.16
   9  11 -19    6.51  135.35
   9  11 -19    6.16   83.73
  -9 -11  19    6.25   79.73
  -9 -11  19   38.41  158.60
  10  11 -19  -82.68  143.69
  10  11 -19   -6.40   79.13
 -10 -11  19   39.44   79.74
 -10 -11  19   -5.83  163.76
  11  11 -19  420.54  114.65
  11  11 -19    7.39  183.41
 -11 -11  19   69.19  107.19
 -11 -11  19  400.72  224.83
  12  11 -19   -6.95   99.37
  12  11 -19  -93.76  165.82
 -12 -11  19  101.75   88.65
 -12 -11  19  -41.28  205.13
  12  10 -19  523.90  132.64
  12  10 -19 1183.23  207.12
 -12 -10  19  385.20  236.96
 -12 -10  19   19.82  124.41
  12   9 -19   14.67  162.88
  12   9 -19  -16.97   75.93
 -12  -9  19   60.09  194.62
 -12  -9  19    6.03   74.89
  12   8 -19    7.22  149.35
  12   8 -19    5.17   70.11
 -12  -8  19   19.69  192.46
 -12  -8  19  -68.72   72.58
  12   7 -19  -51.67   71.21
  12   7 -19  -14.26  156.20
 -12  -7  19   50.16   79.67
 -12  -7  19   38.89  191.13
  12   6 -19    7.07  151.87
  12   6 -19  -48.92   63.93
 -12  -6  19   12.92  180.84
 -12  -6  19  -45.59   81.69
  12   5 -19    7.06  150.15
  12   5 -19  -25.76   64.98
 -12  -5  19    5.71   80.99
 -12  -5  19    6.68  200.54
  12   4 -19  -79.82   67.31
  12   4 -19    7.15  148.60
 -12  -4  19   53.24  182.75
 -12  -4  19    5.80   87.73
  12   3 -19   41.88   64.90
  12   3 -19    7.29  144.99
 -12  -3  19   40.72  187.31
  12   2 -19 -230.67  145.16
  12   2 -19 -164.25   67.97
 -12  -2  19   85.42  188.35
  12   1 -19    8.79   72.06
  12   1  19  118.53  142.62
 -12  -1  19   -7.53  185.62
 -12   0 -19    9.63   97.18
  12   0 -19   74.23   72.81
  12   0  19 -270.39  158.30
 -12   1 -19  204.05  109.27
  12  -1  19   93.53  173.81
  12  -1  19  225.46   81.61
  12  -2  19  -11.81  170.58
  12  -2  19  -50.30   72.39
   7  12 -19 -185.89  127.92
  -7 -12  19 -171.09   75.03
   8  12 -19    6.34  133.92
  -8 -12  19   72.54   81.03
  -8 -12  19  -15.95  149.25
   9  12 -19  -47.62  142.55
  -9 -12  19  -22.71  157.01
  -9 -12  19    6.88   84.35
  10  12 -19    7.25  169.72
 -10 -12  19  174.91  201.00
  11  12 -19    7.66  163.90
 -11 -12  19  -26.01  183.40
  12  12 -19   16.38  174.92
 -12 -12  19  -14.14  206.65
  13  12 -19    8.64  179.63
 -13 -12  19   44.99  228.85
  13  11 -19    8.18  177.47
 -13 -11  19 -146.17  212.87
 -13 -11  19    7.69   94.37
  13  10 -19  -33.36   90.08
  13  10 -19    7.87  168.25
 -13 -10  19  -21.56  206.54
 -13 -10  19   -6.95   88.36
  13   9 -19   -7.72  169.53
  13   9 -19  -53.33   85.21
 -13  -9  19   -6.41   86.78
 -13  -9  19  -21.22  215.85
  13   8 -19  -21.62   75.02
  13   8 -19    7.67  163.62
 -13  -8  19    6.01   76.45
 -13  -8  19  -69.25  204.63
  13   7 -19  105.05  165.69
  13   7 -19  -68.40   72.52
 -13  -7  19   20.82  198.64
 -13  -7  19  -75.09   81.28
  13   6 -19    7.42  159.92
  13   6 -19  -66.30   68.77
 -13  -6  19  -20.95  205.41
 -13  -6  19 -106.45   80.78
  13   5 -19    9.05   66.08
  13   5 -19    7.44  154.16
 -13  -5  19  -28.30  198.46
 -13  -5  19 -179.29   77.60
  13   4 -19    7.50  144.72
  13   4 -19    4.38   66.90
 -13  -4  19 -109.14   89.17
 -13  -4  19   70.60  194.71
  13   3 -19    7.63  153.51
  13   3 -19    8.70   68.03
 -13  -3  19    6.19   83.85
 -13  -3  19   93.28  201.32
  13   2 -19   44.55   74.09
  13   2 -19 -155.95  174.06
 -13  -2  19 -233.36  202.17
  13   1 -19  118.16   82.30
  13   1  19   91.75  164.63
 -13   0 -19  437.39  184.63
  13   0  19 1073.90  240.85
  13   0  19  378.91  151.23
 -13   1 -19  428.40  121.98
  13  -1  19  128.83   94.72
  13  -1  19   32.15  188.43
 -13   2 -19  -91.54  110.54
  13  -2  19 -186.15   83.26
  13  -2  19 -319.52  205.89
  14  11 -19   68.69  190.63
 -14 -11  19   -7.86  233.74
 -14 -11  19  120.32  102.60
  14  10 -19    6.96   99.00
  14  10 -19  -33.47  180.13
 -14 -10  19    7.39   89.91
 -14 -10  19    7.70  229.18
  14   9 -19   38.28   85.64
  14   9 -19    8.20  173.47
 -14  -9  19   -7.51  218.65
 -14  -9  19 -107.34   86.78
  14   8 -19    5.63   77.96
  14   8 -19   40.08  165.21
 -14  -8  19    6.32   82.23
 -14  -8  19  -14.75  222.06
  14   7 -19   10.47   86.21
  14   7 -19  -63.07  191.56
 -14  -7  19 -204.26   84.04
 -14  -7  19    7.30  224.21
  14   6 -19  -29.46   70.36
  14   6 -19   38.96  161.63
 -14  -6  19 -121.94   81.83
 -14  -6  19    7.48  214.70
  14   5 -19    7.73  156.98
  14   5 -19  -14.29   74.66
 -14  -5  19   -7.36  207.38
 -14  -5  19  -86.42   85.05
  14   4 -19 -463.19  164.63
  14   4 -19  -41.60   73.84
 -14  -4  19    6.27   83.46
 -14  -4  19 -781.28  215.58
  14   3 -19    7.88  148.45
  14   3 -19  -62.64   68.78
 -14  -3  19 -302.22  194.34
 -14  -3  19   38.32   86.22
  14   2 -19   55.03   67.41
 -14  -2  19 -435.00  207.25
  14   1  19   63.95  176.37
 -14   0 -19  168.01  118.16
  14   0  19 -246.25   87.69
  14   0  19   74.67  181.40
 -14   1 -19  345.25  123.32
 -14   1 -19   84.86  164.24
  14  -1  19   21.13  195.12
  14  -1  19    5.47   90.49
 -14   2 -19   24.46  174.30
 -14   2 -19   61.40  111.32
  14  -2  19   78.42  197.04
  14  -2  19   15.54   87.97
  15   1  19 -163.01  192.23
 -15   0 -19  -38.47  132.97
  15   0  19   52.06  205.31
  15   0  19   24.58   99.00
 -15   1 -19 -204.19  132.85
 -15   1 -19  185.60  177.81
  15  -1  19    6.06   96.90
  15  -1  19   53.60  212.94
 -15   2 -19 -188.27  185.82
 -15   2 -19 -177.64  130.01
  15  -2  19 -437.30  222.35
  15  -2  19  312.03  100.40
 -16  -1 -19  138.46  139.66
  16   1  19 -132.96  216.48
 -16   0 -19  211.84  150.63
 -16   0 -19   34.45  185.80
  16   0  19 -277.89  110.99
  16   0  19 -413.61  227.30
 -16   1 -19  137.61  191.62
 -16   1 -19  261.50  152.74
  16  -1  19   -6.73  106.30
  16  -1  19   -8.35  234.85
 -16   2 -19   64.23  144.30
 -16   2 -19  -70.24  214.45
  16  -2  19  320.98  241.71
  16  -2  19    6.42  107.64
  16  -3  19 -665.06  273.42
 -17  -1 -19 -541.66  162.43
  17   1  19 -359.06  241.62
 -17   0 -19  -47.20  167.76
 -17   0 -19 -187.80  203.01
  17   0  19  272.61  248.32
  17   0  19 -105.09  115.82
 -17   1 -19  141.97  210.89
 -17   1 -19 -120.02  171.06
  17  -1  19  118.25  262.54
  17  -1  19 -216.90  125.46
 -17   2 -19 -172.45  165.55
 -17   2 -19  -89.32  225.93
  17  -2  19   64.26  122.07
  17  -2  19 -454.28  260.25
  17  -3  19  -42.55  116.61
  17  -3  19   62.50  244.03
 -18   0 -19  -87.81  183.15
 -18   1 -19  -11.28  170.17
 -18   1 -19 -201.40  183.64
  18  -1  19  157.91  136.62
 -18   2 -19  120.25  181.71
 -18   2 -19 -292.60  243.75
  18  -2  19 -317.11  132.58
 -18   3 -19   38.65  180.24
  18  -3  19  195.79  133.04
   0   1 -20  -13.28   42.01
   0  -1  20   81.18  105.65
   1   1 -20   98.60   99.93
   1   1 -20   88.63   49.72
  -1   1 -20   -9.70   46.82
  -1  -1  20  242.27  107.37
  -1   2 -20  102.61   90.64
   2   1 -20   45.58   46.83
  -1   2 -20   43.73   43.10
   2   1 -20   77.35  109.53
  -2  -1  20   37.35  113.60
   1  -2  20  -59.97  102.42
   0   2 -20   39.46   93.80
   0   2 -20   30.15   48.95
   0  -2  20    4.05  102.15
   1   2 -20  125.17   96.84
   1   2 -20   21.64   48.13
  -2   1 -20    9.42   46.91
  -1  -2  20  132.31  104.86
   2   2 -20  250.53  126.97
  -2   2 -20  421.16  127.42
  -2   2 -20  288.89   85.09
   2   2 -20  248.97   80.88
  -2  -2  20  161.95  136.69
   2  -2  20  386.58  128.32
  -2   3 -20  106.18  108.18
   3   2 -20  243.24   69.12
   3   2 -20  146.52  116.95
  -2   3 -20  129.01   65.40
   2  -3  20  276.63  113.27
  -1   3 -20  562.08  123.98
   3   1 -20  325.83  161.15
   3   1 -20  450.75  119.23
  -1   3 -20  440.51  152.38
  -3  -1  20  144.12  174.31
   1  -3  20  551.42  162.57
   0   3 -20   -2.86   40.59
   0   3 -20   27.14   92.11
   0  -3  20 -278.10  105.74
   1   3 -20  522.00  130.28
   1   3 -20  486.39  165.57
  -3   1 -20  502.32  141.72
  -1  -3  20  646.28  174.16
   2   3 -20  373.03  116.31
   2   3 -20  156.49   64.67
  -3   2 -20   43.63   68.72
  -3   2 -20  247.39  119.53
   3  -2  20  358.66  116.78
  -3   3 -20  969.07  321.96
   3   3 -20 1283.27  300.14
  -3   3 -20 1419.01  292.17
   3   3 -20  963.73  256.34
   3  -3  20  896.37  321.48
  -3  -3  20 1003.98  318.83
  -3   4 -20   71.05   84.16
  -3   4 -20   56.26   39.16
   4   3 -20   76.79   45.13
   4   3 -20   -5.07  100.16
   3  -4  20  160.71   91.41
  -4  -3  20  -40.00  114.05
   4   2 -20  811.82  182.55
  -2   4 -20  727.26  227.29
  -2   4 -20  671.63  201.09
   4   2 -20  508.19  225.51
  -4  -2  20  895.18  239.70
   2  -4  20  970.85  231.95
  -1   4 -20   40.90   36.22
  -1   4 -20  -49.56   85.15
   4   1 -20   25.65   49.77
   4   1 -20  -74.84  112.17
  -4  -1  20    4.98  119.72
   1  -4  20  -34.41   94.11
   0   4 -20  696.09  194.96
   0   4 -20  718.72  166.49
   0  -4  20  492.25  202.41
  -4   1 -20   20.19   41.87
   1   4 -20  -69.67   89.20
   1   4 -20   17.43   45.44
  -4   2 -20  756.14  224.16
   2   4 -20  942.45  233.57
   2   4 -20  866.37  201.97
  -2  -4  20 1006.67  246.47
   3   4 -20    3.08   44.33
  -4   3 -20   48.43   37.71
   3   4 -20   89.05   98.81
  -4   3 -20 -139.60   93.01
  -3  -4  20  -44.63  111.63
   4  -3  20 -129.76   97.50
  -4   4 -20  139.10  105.81
   4   4 -20  117.38  120.79
   4   4 -20  304.56   72.16
  -4   4 -20  274.51   67.85
  -4  -4  20   21.34  132.55
   5   4 -20  102.51  114.17
  -4   5 -20  166.28   48.22
  -5  -4  20   -9.01  125.96
  -3   5 -20  700.17  192.51
  -3   5 -20  765.04  167.43
   5   3 -20   10.59  195.97
   3  -5  20  567.95  153.58
   3  -5  20 1080.52  203.93
  -5  -3  20   74.81  215.82
  -2   5 -20  863.22  192.04
  -2   5 -20  826.66  218.53
   5   2 -20  488.50  219.20
   2  -5  20  914.63  228.06
   2  -5  20  823.50  178.38
  -5  -2  20  111.51  235.86
  -1   5 -20  875.31  206.76
  -1   5 -20  978.47  233.43
   5   1 -20  576.30  238.27
   1  -5  20 1013.56  243.72
  -5  -1  20   67.70  256.17
   1  -5  20  996.91  194.34
   0   5 -20  -19.45   42.28
   0   5 -20   94.79   90.16
   0  -5  20  211.90   96.58
   0  -5  20  -51.97   47.91
   1   5 -20  979.43  229.53
   1   5 -20  844.87  195.53
  -1  -5  20  685.70  244.13
  -1  -5  20  546.13  189.75
   2   5 -20  701.86  218.53
   2   5 -20  901.78  182.91
  -2  -5  20  624.00  232.75
  -2  -5  20  611.53  177.74
   3   5 -20  841.81  207.49
   3   5 -20  797.77  170.44
  -3  -5  20  274.30  221.10
  -3  -5  20  861.64  169.24
   4   5 -20  144.77  102.36
  -4  -5  20   65.85  122.92
   6   5 -20   10.09   47.14
  -3   6 -20  556.72  124.43
  -3   6 -20  576.03  149.33
   3  -6  20  356.37  117.22
   3  -6  20  602.21  159.66
  -2   6 -20  353.02  104.25
  -2   6 -20  245.38   66.97
   6   2 -20    5.86  130.62
   2  -6  20  258.38   66.11
   2  -6  20  103.19  111.18
  -6  -2  20  -51.19  144.16
   6   1 -20   -3.89   72.28
  -1   6 -20  240.38   99.22
   6   1 -20  351.58  133.33
  -1   6 -20  333.59   65.75
  -6  -1  20   49.30  146.87
   1  -6  20  163.69  110.58
   1  -6  20  179.87   62.01
   0   6 -20   47.10   49.90
   0   6 -20  274.16   93.71
   0  -6  20  170.35   51.13
   0  -6  20    3.42  101.61
   1   6 -20  254.55  103.88
   1   6 -20  188.75   64.98
  -1  -6  20  247.21   69.05
  -1  -6  20   64.19  118.86
   2   6 -20  226.64   74.45
   2   6 -20  497.63  116.66
  -2  -6  20  111.70  123.36
  -2  -6  20  276.48   76.83
   3   6 -20    4.58  133.01
  -3  -6  20  210.69  149.73
   5   6 -20   61.39   51.26
  -5  -6  20   87.13   61.03
   6   6 -20   31.95  118.18
  -6  -6  20  -41.38  135.39
   7   6 -20    5.61  138.46
   7   6 -20   62.54   61.04
  -7  -6  20  321.32  145.90
  -7  -6  20    4.59   68.67
   7   5 -20    5.62  113.49
   7   5 -20   10.52   50.91
  -7  -5  20    4.60   62.78
  -7  -5  20  -49.54  127.50
   7   4 -20   -5.72  107.43
   7   4 -20   14.19   52.42
  -7  -4  20   -5.20  112.31
  -3   7 -20   62.84   79.73
  -3   7 -20   39.71   41.97
   3  -7  20   36.17   38.14
   3  -7  20   12.16   95.12
  -2   7 -20  290.04   90.56
  -2   7 -20  645.29  124.33
   2  -7  20  186.87   83.78
   2  -7  20  458.75  131.79
  -1   7 -20    6.11   47.36
  -1   7 -20   20.09   90.38
   1  -7  20   28.04   42.44
   1  -7  20  157.16   96.89
   0   7 -20  -62.12   90.94
   0   7 -20  -25.05   43.77
   0  -7  20    9.96   45.79
   0  -7  20   37.53   98.14
   1   7 -20   35.66   49.86
   1   7 -20  141.33   94.95
  -1  -7  20  124.22  102.05
  -1  -7  20   87.33   49.23
   2   7 -20  476.25  128.20
  -2  -7  20  107.29  134.68
   4   7 -20    3.47   49.45
  -4  -7  20   40.15   54.33
   5   7 -20  155.34  108.59
   5   7 -20  -14.35   53.44
  -5  -7  20    8.66  125.26
  -5  -7  20    4.20   58.52
   6   7 -20    5.32  128.54
  -6  -7  20  283.97  145.72
   8   7 -20 -183.39  142.79
   8   7 -20   92.54   55.18
  -8  -7  20   99.48  144.26
  -8  -7  20  -63.39   69.34
   8   6 -20    5.97  129.40
   8   6 -20    3.84   57.75
  -8  -6  20 -256.94   69.59
  -8  -6  20   68.50  150.99
   8   5 -20   -3.72   56.19
   8   5 -20   -5.93  126.81
  -8  -5  20    5.28  146.95
  -8  -5  20    4.86   71.85
   8   4 -20 -235.46  136.59
   8   4 -20 -121.27   57.53
  -8  -4  20  -55.18  156.86
   8   3 -20    6.23  123.72
  -3   8 -20  -27.03   87.87
  -3   8 -20   57.73   49.97
   8   3 -20  -26.37   58.70
   3  -8  20  -18.48   95.29
   3  -8  20   21.51   45.38
  -8  -3  20   39.22  151.14
  -2   8 -20 -104.40   89.77
  -2   8 -20   20.54   47.79
   8   2 -20   42.30   53.72
   2  -8  20  -31.85   40.46
   2  -8  20   -6.43   95.10
   8   1 -20  123.39   66.96
  -1   8 -20  144.08   57.96
  -1   8 -20  211.66   96.58
   1  -8  20  237.13  105.76
   1  -8  20   23.12   48.38
   0   8 -20  111.30   94.09
   0   8 -20   -3.43   37.81
   0  -8  20   24.25  102.26
   0  -8  20  154.73   47.58
   2   8 -20   -3.64   54.99
   3   8 -20  632.73  117.39
   3   8 -20  130.32   79.80
  -3  -8  20  568.40  123.37
   4   8 -20 -272.31   61.86
   4   8 -20   73.88  106.61
  -4  -8  20    4.07  125.28
  -4  -8  20   -4.02   57.90
   5   8 -20   11.55   52.76
   5   8 -20 -215.31  115.15
  -5  -8  20  -47.83  130.77
  -5  -8  20   -4.20   61.22
   6   8 -20    5.36  121.69
  -6  -8  20  -36.75  134.29
   7   8 -20    5.64  121.63
   7   8 -20   45.38   59.86
  -7  -8  20   -4.61   66.80
  -7  -8  20    4.86  136.81
   8   8 -20    5.95  121.25
   8   8 -20  102.91   62.08
  -8  -8  20  -15.74  152.44
  -8  -8  20    4.86   69.59
   9   8 -20  152.89  140.21
   9   8 -20    4.46   67.30
  -9  -8  20  111.76   71.76
  -9  -8  20    5.70  156.13
   9   7 -20   85.75   64.40
   9   7 -20    6.34  137.64
  -9  -7  20   11.26  158.20
  -9  -7  20  138.88   74.53
   9   6 -20   12.62  136.29
   9   6 -20   32.49   60.50
  -9  -6  20    5.13   65.06
  -9  -6  20   61.53  154.00
   9   5 -20  -19.49   58.17
   9   5 -20  170.73  142.20
  -9  -5  20  190.12  169.48
  -9  -5  20    5.15   68.78
   9   4 -20    6.42  133.13
   9   4 -20   -3.85   58.43
  -9  -4  20  -29.32  155.38
  -3   9 -20   51.36   87.05
   9   3 -20  -65.81  141.31
   9   3 -20   11.85   60.03
  -3   9 -20  -46.53   55.98
  -9  -3  20    5.97  157.95
   3  -9  20   24.80   45.52
   3  -9  20  -18.55   97.56
  -2   9 -20   64.68  103.53
  -2   9 -20  206.25   69.15
   9   2 -20  625.02  148.98
   9   2 -20  116.01   72.06
  -9  -2  20  104.82  170.50
   2  -9  20  136.91   63.83
   2  -9  20  443.67  117.75
   9   1 -20   -7.09  139.88
  -1   9 -20   -4.17   97.11
   9   1 -20   16.92   64.32
  -9  -1  20   52.40  155.74
   9   0  20  -23.86  118.85
   1   9 -20   60.99   60.56
  -1  -9  20    3.87   54.53
   2   9 -20    8.31   64.03
   2   9 -20  129.02  107.16
  -2  -9  20   55.99   63.01
  -2  -9  20  330.68  116.42
   3   9 -20  -90.35   54.49
   3   9 -20    4.77   99.42
  -3  -9  20 -253.87  115.72
  -3  -9  20    4.14   51.82
   4   9 -20   -8.42   59.04
   4   9 -20  -34.71  108.63
  -4  -9  20   34.07   55.78
  -4  -9  20   -4.08  120.57
   5   9 -20  -20.97  105.54
   5   9 -20  -12.98   65.12
  -5  -9  20    4.29  121.96
  -5  -9  20   -4.43   57.88
   6   9 -20    5.50  122.20
  -6  -9  20   69.34  134.57
   7   9 -20  265.79  134.40
   7   9 -20  138.51   73.55
  -7  -9  20   53.77  147.23
  -7  -9  20  183.98   76.01
   8   9 -20    9.59   71.30
   8   9 -20 -152.50  132.14
  -8  -9  20    5.28  142.59
  -8  -9  20   25.43   68.33
   9   9 -20   -6.46  139.25
   9   9 -20  -29.99   71.48
  -9  -9  20    5.36   72.63
  -9  -9  20  -22.54  170.93
  10   9 -20   -6.82  138.25
  10   9 -20  -26.11   76.77
 -10  -9  20    6.10  171.59
 -10  -9  20    5.70   79.55
  10   8 -20   77.10   70.08
  10   8 -20    6.75  145.50
 -10  -8  20   24.28  179.00
 -10  -8  20  128.83   75.43
  10   7 -20 -203.37  146.47
  10   7 -20    8.97   67.93
 -10  -7  20   -5.98  164.94
 -10  -7  20 -119.20   74.87
  10   6 -20  -59.52   57.19
  10   6 -20   13.39  146.85
 -10  -6  20  -30.30  169.31
 -10  -6  20  -43.54   67.88
  10   5 -20    6.69  136.17
  10   5 -20    4.09   54.29
 -10  -5  20   16.41   68.05
 -10  -5  20  122.99  167.88
  10   4 -20  -24.19   62.37
  10   4 -20   81.44  133.97
 -10  -4  20    6.28  169.87
 -10  -4  20   33.29   75.27
  10   3 -20  -12.40   59.07
  -3  10 -20   -3.96   83.26
  10   3 -20  -76.97  145.27
 -10  -3  20    6.35  168.56
  10   2 -20   -7.13  141.85
  10   2 -20   45.97   61.95
 -10  -2  20   26.36  169.05
  10   1 -20   21.77   64.96
  -1  10 -20  -91.07   64.81
   1 -10  20  -71.75   51.45
 -10  -1  20   76.79  171.61
   0  10 -20  170.66   96.66
   0  10 -20  562.58  123.64
   0 -10  20  349.40  131.91
   0 -10  20   69.16   87.45
   1  10 -20  258.85   97.89
   1  10 -20   14.10   68.29
  -1 -10  20  -51.10  102.38
  -1 -10  20    4.37   58.76
   2  10 -20    4.68   98.64
   2  10 -20   28.22   60.96
  -2 -10  20   71.58   60.87
  -2 -10  20 -306.36  110.74
   3  10 -20  -19.18   69.68
   3  10 -20    4.86  103.80
  -3 -10  20 -131.74   59.57
  -3 -10  20  190.60  110.49
   4  10 -20    5.06  104.89
   4  10 -20    9.78   64.64
  -4 -10  20    4.14  117.72
  -4 -10  20    4.69   61.16
   5  10 -20   42.18  111.33
   5  10 -20   64.99   66.46
  -5 -10  20    4.85   58.75
  -5 -10  20  -87.08  116.76
   6  10 -20  145.32  117.44
  -6 -10  20  -83.72  132.20
   7  10 -20   31.82   71.83
   7  10 -20   -5.88  119.39
  -7 -10  20   -4.92  140.74
  -7 -10  20  -68.43   72.94
   8  10 -20   87.93   72.76
   8  10 -20    6.29  130.26
  -8 -10  20  -93.74   69.29
  -8 -10  20  -32.08  156.10
   9  10 -20  -34.32   75.82
   9  10 -20    6.64  145.35
  -9 -10  20   56.85  162.20
  -9 -10  20   -5.80   73.14
  10  10 -20   -7.03  157.90
  10  10 -20  -47.83   89.08
 -10 -10  20    6.17  177.29
 -10 -10  20  -36.69   80.18
  11  10 -20   31.29   90.17
  11  10 -20  -81.98  165.01
 -11 -10  20  -39.52  192.99
 -11 -10  20    6.45   85.43
  11   9 -20    7.31  160.49
  11   9 -20   16.40   78.19
 -11  -9  20  -66.18   74.39
 -11  -9  20    6.63  196.12
  11   8 -20   -7.24  161.42
  11   8 -20   15.13   71.26
 -11  -8  20   -6.54  185.99
 -11  -8  20   -5.67   73.46
  11   7 -20   -7.17  153.74
  11   7 -20  -51.62   70.95
 -11  -7  20   11.41   76.02
 -11  -7  20   45.32  190.96
  11   6 -20  151.44   69.77
  11   6 -20  318.61  167.66
 -11  -6  20   -5.73   84.09
 -11  -6  20  129.19  195.41
  11   5 -20   26.15   64.70
  11   5 -20   -7.12  155.64
 -11  -5  20  -23.16   79.09
 -11  -5  20   -6.69  179.94
  11   4 -20  -71.32   61.87
  11   4 -20  122.79  142.70
 -11  -4  20   59.84  181.49
 -11  -4  20    5.87   78.41
  11   3 -20   68.68   65.10
  11   3 -20    7.37  152.35
 -11  -3  20  -40.53  178.46
  11   2 -20    4.38   66.47
  11   2 -20   52.51  157.33
  -2  11 -20  146.03   88.87
 -11  -2  20   21.17  174.95
  -1  11 -20  259.24   93.73
  11   1 -20   67.64   69.10
  11   1  20 -103.19  133.38
 -11  -1  20   14.85  184.57
   0  11 -20 -151.16   92.59
  11   0  20   -4.98  141.40
   0 -11  20  -24.25   59.59
   1  11 -20  424.37  104.68
  -1 -11  20    4.98   69.01
   2  11 -20  -94.99  100.57
   2  11 -20    5.32   67.28
  -2 -11  20  -45.49   66.20
   3  11 -20   54.34  102.13
  -3 -11  20    5.19   69.68
   4  11 -20  -55.23   77.92
   4  11 -20    5.16  108.56
  -4 -11  20   72.89  119.58
  -4 -11  20   21.27   69.42
   5  11 -20    5.48  115.46
   5  11 -20 -189.70   70.92
  -5 -11  20   22.43  125.60
  -5 -11  20   82.21   70.04
   6  11 -20   -5.76  126.32
  -6 -11  20   -5.68   77.15
  -6 -11  20  -19.05  140.83
   7  11 -20   84.67  122.73
   7  11 -20  -82.44   79.24
  -7 -11  20    5.04  140.55
  -7 -11  20   -5.81   78.68
   8  11 -20   12.17   82.64
   8  11 -20  -64.49  132.99
  -8 -11  20    6.07   75.54
  -8 -11  20   75.80  152.45
   9  11 -20    6.32   86.28
   9  11 -20    6.82  135.94
  -9 -11  20 -126.70  174.65
  -9 -11  20   12.93   84.01
  10  11 -20  -65.85  155.49
  10  11 -20   26.32   83.33
 -10 -11  20 -217.64   85.82
 -10 -11  20  -31.40  184.15
  11  11 -20    6.94   93.72
  11  11 -20    7.75  166.76
 -11 -11  20  -27.20  198.19
 -11 -11  20    7.17   89.33
  12  11 -20  108.84   97.98
  12  11 -20   48.95  182.67
 -12 -11  20   94.34  212.69
 -12 -11  20   68.03   92.69
  12  10 -20  130.95   88.58
  12  10 -20  -86.57  170.82
 -12 -10  20   -6.89   92.02
 -12 -10  20   14.27  212.89
  12   9 -20  -46.45  195.61
  12   9 -20 -427.18  101.07
 -12  -9  20 -141.03  235.99
 -12  -9  20   -6.35   90.96
  12   8 -20  -15.84   77.60
  12   8 -20    7.68  164.17
 -12  -8  20    5.98   81.13
 -12  -8  20  -96.89  198.48
  12   7 -20  -14.97   67.84
  12   7 -20  106.25  159.97
 -12  -7  20  -27.87  201.27
 -12  -7  20 -118.55   76.85
  12   6 -20    7.51  155.97
  12   6 -20   28.36   68.67
 -12  -6  20   42.08  207.27
 -12  -6  20    6.05   84.34
  12   5 -20  -13.69   68.01
  12   5 -20    7.55  147.66
 -12  -5  20   12.20   81.54
 -12  -5  20   77.68  193.62
  12   4 -20   26.39   66.11
  12   4 -20  -15.24  164.15
 -12  -4  20    7.09  207.11
 -12  -4  20  -18.50   87.82
  12   3 -20 -302.16  161.80
  12   3 -20   31.11   69.82
 -12  -3  20   -7.17  198.24
  12   2 -20  -13.74   68.00
  12   2 -20   94.70  160.72
 -12  -2  20   74.94  196.35
  12   1 -20  -32.60   67.40
  12   1  20 -391.14  142.63
  12   0  20  133.92  164.11
  12  -1  20  277.19  172.52
   3  12 -20  -15.04  105.61
   4  12 -20   -5.26  107.59
   5  12 -20   33.92  115.66
  -5 -12  20 -146.33   76.87
   6  12 -20   53.50  123.12
  -6 -12  20  -19.91  138.34
  -6 -12  20  -37.79   85.28
   7  12 -20    6.36  136.07
  -7 -12  20   36.68  146.03
  -7 -12  20   -6.54   80.16
   8  12 -20   60.47  143.66
  -8 -12  20  -72.70  156.17
  -8 -12  20    6.81   82.13
   9  12 -20   -7.16  165.64
  -9 -12  20 -192.25  105.97
  -9 -12  20 -136.62  189.85
  10  12 -20    7.57  154.88
 -10 -12  20   37.32   95.26
 -10 -12  20  -38.44  188.09
  11  12 -20   40.57  173.48
 -11 -12  20  -86.18   99.92
 -11 -12  20 -139.63  196.14
  12  12 -20   42.98  185.07
 -12 -12  20    7.42  221.84
  13  11 -20   -8.61  186.96
  13  11 -20 -121.06  105.40
 -13 -11  20   78.34  228.72
 -13 -11  20  -23.86   97.19
  13  10 -20  -27.93   98.04
  13  10 -20    8.42  182.15
 -13 -10  20    7.27   92.70
 -13 -10  20    7.71  229.59
  13   9 -20 -180.02   91.90
  13   9 -20 -157.28  182.45
 -13  -9  20  -53.32   96.70
 -13  -9  20   30.16  225.57
 -13  -8  20 -108.06   90.30
  13   7 -20 -319.24  172.33
  13   7 -20  -15.59   72.44
 -13  -7  20   22.13  219.30
 -13  -7  20   -6.20   86.30
  13   6 -20   49.34   67.77
  13   6 -20   39.76  174.41
 -13  -6  20   30.34  215.77
 -13  -6  20   63.15   87.15
  13   5 -20    7.89  157.94
  13   5 -20  -28.90   65.67
 -13  -5  20   -7.47  205.71
 -13  -5  20  -12.72   89.48
  13   4 -20  -41.96   72.57
  13   4 -20   48.19  174.82
 -13  -4  20   83.63   87.23
 -13  -4  20    7.46  198.57
  13   3 -20    4.63   71.58
  13   3 -20  -24.21  164.35
 -13  -3  20    7.60  203.29
  13   2 -20   42.82   72.05
  13   2 -20    8.26  173.65
 -13  -2  20    7.93  206.81
  13   1 -20  -57.79   73.75
  13   1  20   -5.80  156.77
 -13   0 -20   32.09  103.94
  13   0  20 -371.87  180.00
  13  -1  20   38.94  185.97
  13  -1  20   69.89   82.57
  14  10 -20    8.95  196.39
  14  10 -20  101.99   97.36
 -14 -10  20 -658.95  251.86
 -14 -10  20   38.12   93.63
  14   9 -20    8.75  186.82
  14   9 -20  -71.46   89.78
 -14  -9  20   48.52  236.81
 -14  -9  20    7.07   93.82
  14   8 -20  -95.16   87.92
  14   8 -20   85.23  192.48
 -14  -8  20  158.90  236.16
 -14  -8  20    6.65   81.17
  14   7 -20    8.39  178.60
  14   7 -20   53.85   78.15
 -14  -7  20  108.74   94.39
 -14  -7  20   -7.93  230.17
  14   6 -20   41.84   80.98
  14   6 -20    8.29  191.25
 -14  -6  20    7.91  246.69
 -14  -6  20 -333.07   95.00
  14   5 -20   74.86  175.54
  14   5 -20   49.98   70.27
 -14  -5  20    6.58   90.76
 -14  -5  20  101.88  225.30
  14   4 -20  -91.65  163.68
  14   4 -20  -29.53   75.67
 -14  -4  20   70.23  218.05
 -14  -4  20  -20.07   89.58
  14   3 -20  -57.12   74.04
  14   3 -20 -166.91  162.10
 -14  -3  20 -224.47  210.61
 -14  -3  20   40.83   94.08
  14   2 -20  -43.86   75.89
 -14  -2  20  224.54  211.84
  14   1 -20  -69.66   75.27
  14   1  20    6.46  180.97
 -14   0 -20  111.37  114.61
  14   0  20  102.75  189.55
 -14   1 -20  258.95  167.94
 -14   1 -20   67.51  120.28
  14  -1  20   55.17   86.10
  14  -1  20 -106.47  193.02
 -15 -10  20  111.74  257.40
 -15  -9  20    7.35   91.81
 -15  -9  20  -58.88  255.78
 -15  -8  20   20.83   89.34
  15   1  20  629.59  278.83
 -15   0 -20 -505.22  189.07
  15  -1  20 1544.04  305.46
  16   1  20 -362.63  218.45
 -16   0 -20 -186.86  143.70
 -16   0 -20 -209.35  193.65
  16   0  20  -73.49  231.51
 -16   1 -20 -241.93  193.65
 -16   1 -20 -181.20  153.00
  16  -1  20    6.76  107.80
  16  -1  20  126.15  242.30
  16  -2  20  187.22  240.67
  17   1  20    8.62  244.24
 -17   0 -20  143.98  169.46
 -17   0 -20   94.96  202.00
  17   0  20  327.62  240.44
 -17   1 -20 -108.96  170.20
 -17   1 -20 -215.65  221.83
  17  -1  20 -457.10  262.61
  17  -1  20   30.06  118.16
  17  -2  20  155.16  256.95
   0   1 -21  417.30  114.28
   1   1 -21   39.90   53.01
  -1   1 -21  -17.24   47.19
  -1  -1  21  -58.63  120.10
   2   1 -21   44.73   53.25
  -1   2 -21  169.04  105.85
  -1   2 -21   28.12   47.83
   1  -2  21  121.26  110.44
  -2  -1  21   39.86  115.75
   0   2 -21  -12.81   47.61
   0   2 -21  -21.20   99.05
   0  -2  21   87.45  108.41
   1   2 -21    6.56   46.04
   1   2 -21  112.89  104.46
  -2   1 -21   43.61   49.59
  -1  -2  21  129.16  110.78
   2   2 -21  -23.52   51.27
  -2   2 -21  -18.25   43.95
  -2   2 -21  -42.44  102.36
   2   2 -21  -10.96  109.64
   2  -2  21  -90.31  106.21
  -2  -2  21    9.15  114.53
  -2   3 -21  695.74  188.04
  -2   3 -21  391.87  154.67
   3   2 -21  657.64  187.96
   3   2 -21  721.78  141.74
  -3  -2  21  217.76  193.30
   2  -3  21  768.23  190.69
  -1   3 -21  -48.63   99.68
  -1   3 -21   -8.99   46.34
   3   1 -21   38.33   49.37
   3   1 -21 -174.43  117.03
  -3  -1  21 -256.17  120.07
   1  -3  21   79.28  102.88
   0   3 -21  353.53  130.05
   0   3 -21  303.92   89.76
   0  -3  21  256.90  134.70
   1   3 -21 -130.49  100.30
   1   3 -21   15.70   45.69
  -3   1 -21  -29.30   48.35
  -1  -3  21  -92.56  112.10
   2   3 -21  794.79  146.97
   2   3 -21  546.34  185.76
  -3   2 -21  534.53  161.36
   3  -2  21  661.59  199.92
  -2  -3  21  458.18  194.53
   3   3 -21   46.27   50.76
  -3   3 -21    4.76   96.83
   3   3 -21  -21.25  108.14
  -3   3 -21    5.58   40.31
  -3  -3  21 -159.29  121.82
   3  -3  21   38.30  103.88
   4   3 -21   -3.41   97.54
  -3   4 -21  519.65  143.82
   4   3 -21    5.51  150.22
  -3   4 -21  611.71  111.64
   3  -4  21  669.32  150.98
  -4  -3  21  181.03  165.84
   4   2 -21   78.23   57.93
  -2   4 -21   50.55   48.18
  -2   4 -21  149.49   94.90
   4   2 -21    5.80  118.99
   2  -4  21  121.67  106.50
  -4  -2  21   29.60  126.02
  -1   4 -21 1039.30  202.90
   4   1 -21  813.25  161.18
  -1   4 -21  656.78  173.22
   4   1 -21   67.67  209.96
  -4  -1  21  275.93  218.40
   1  -4  21  860.16  210.85
   0   4 -21   88.08   47.37
   0   4 -21    9.22   97.29
   0  -4  21  114.11  109.97
   1   4 -21  893.27  201.75
   1   4 -21  733.41  166.18
  -4   1 -21  725.47  187.31
  -1  -4  21  274.27  214.21
   2   4 -21  135.24   51.73
   2   4 -21  112.99  108.17
  -4   2 -21  114.08   50.52
  -2  -4  21    4.27  114.84
   3   4 -21  412.34  155.28
   3   4 -21  479.57  116.49
  -4   3 -21  712.20  127.98
  -3  -4  21  111.62  168.12
   4   4 -21   -5.30  111.99
  -4  -4  21   -4.69  125.71
  -3   5 -21  316.22   69.85
  -3   5 -21  165.84  106.80
   3  -5  21  203.05  116.32
   3  -5  21  183.02   63.96
   5   2 -21    6.01  153.91
  -2   5 -21  444.50  135.95
  -2   5 -21  487.33  104.90
   2  -5  21  247.87   96.50
   2  -5  21  458.69  147.34
  -5  -2  21  118.87  165.08
  -1   5 -21  146.60   95.17
   5   1 -21    6.34  121.74
  -1   5 -21   96.73   48.66
   1  -5  21   52.65   47.64
   1  -5  21  125.50  103.66
  -5  -1  21  -33.20  132.37
   0   5 -21  816.51  170.51
   0   5 -21  675.39  136.23
   0  -5  21  171.89  178.00
   0  -5  21  388.52  129.65
   1   5 -21  119.92   54.55
   1   5 -21   50.85  100.76
  -1  -5  21  167.27  112.96
  -1  -5  21  156.27   56.99
   2   5 -21  598.89  153.47
   2   5 -21  558.55  112.16
  -2  -5  21  150.43  157.60
  -2  -5  21  440.61  112.01
   3   5 -21  214.23  118.99
  -3  -5  21  -80.83  128.22
   5   5 -21   20.69   52.97
   5   5 -21   -5.44  102.36
  -5  -5  21 -157.56   58.91
   6   5 -21    5.70  117.08
  -6  -5  21   -4.99  136.16
   6   4 -21  749.27  152.06
  -6  -4  21  333.15  171.74
   6   3 -21  109.71   77.33
  -3   6 -21  358.87  107.57
  -3   6 -21  239.29   70.75
   3  -6  21  182.67   67.88
   3  -6  21  364.41  116.55
  -2   6 -21  690.87  169.15
  -2   6 -21  560.17  139.38
   2  -6  21  348.82  129.55
   2  -6  21  626.08  177.47
  -1   6 -21   63.80   50.59
  -1   6 -21  232.58   97.10
   1  -6  21   82.81   50.36
   1  -6  21    7.08  101.85
   0   6 -21   93.66   96.49
   0   6 -21   34.78   48.41
   0  -6  21  -25.87  107.83
   0  -6  21  -24.36   43.59
   1   6 -21  115.38   96.46
   1   6 -21  151.76   53.17
  -1  -6  21  -14.58   53.94
  -1  -6  21  -38.57  111.26
   2   6 -21  822.91  175.54
  -2  -6  21  342.10  192.79
   4   6 -21   14.07   65.41
   4   6 -21   -5.19   91.71
  -4  -6  21  146.48   65.36
   5   6 -21    5.46  115.50
   5   6 -21   -3.63   54.67
  -5  -6  21   23.17  139.27
  -5  -6  21    4.39   60.01
   6   6 -21  177.51  131.93
  -6  -6  21   49.83  151.58
   7   6 -21  113.38   59.50
   7   6 -21  234.94  140.07
  -7  -6  21    4.87   69.92
  -7  -6  21   52.68  150.33
   7   5 -21    7.45   56.80
   7   5 -21 -114.77  141.20
  -7  -5  21   -5.41  162.17
  -7  -5  21   -4.87   66.42
   7   4 -21 -219.87  128.78
  -7  -4  21 -104.64  150.23
  -3   7 -21   35.98   90.81
   7   3 -21   34.31   57.73
   7   3 -21   37.86  130.17
  -3   7 -21   80.99   48.90
   3  -7  21   49.10   44.41
   3  -7  21   19.88  103.22
  -7  -3  21   11.19  154.12
  -2   7 -21  -30.95   46.17
   7   2 -21   86.21   55.19
   7   2 -21   13.07  129.00
  -2   7 -21  208.93   93.68
  -7  -2  21  121.10  138.99
   2  -7  21 -153.90  101.48
   2  -7  21   40.40   39.84
   7   1 -21   -4.21   65.54
  -1   7 -21   22.47   49.09
  -1   7 -21  -17.35   96.04
   1  -7  21    9.89   47.88
   1  -7  21  -71.40  106.20
   0   7 -21   13.30  101.08
   0   7 -21  120.43   53.41
   0  -7  21   96.56  112.95
   0  -7  21   84.61   49.74
   1   7 -21   -4.58   98.61
   4   7 -21  -25.90   66.88
   4   7 -21    5.18  116.67
  -4  -7  21 -143.03  144.09
  -4  -7  21   -4.24   65.28
   5   7 -21 -129.90  125.30
   5   7 -21  -64.89   61.54
  -5  -7  21    4.70  145.24
  -5  -7  21 -102.05   62.74
   6   7 -21    5.67  126.13
  -6  -7  21   54.48  144.93
   7   7 -21   72.46  138.66
   7   7 -21    4.10   59.81
  -7  -7  21  152.11   81.61
  -7  -7  21 -106.06  155.96
   8   7 -21   -4.26   57.25
   8   7 -21  -51.03  128.52
  -8  -7  21   39.21  158.03
  -8  -7  21    5.18   77.03
   8   6 -21   31.84  135.56
   8   6 -21   -4.08   59.18
  -8  -6  21    5.58  150.38
  -8  -6  21   56.40   71.23
   8   5 -21  -82.90  132.90
   8   5 -21  -31.12   55.43
  -8  -5  21    5.15   70.68
  -8  -5  21  109.29  163.96
   8   4 -21    3.93   55.76
   8   4 -21  123.19  135.84
  -8  -4  21   52.99  162.43
   8   3 -21  100.32  140.52
  -3   8 -21   23.95   52.45
  -3   8 -21 -257.60   94.57
   8   3 -21   -3.99   56.47
  -8  -3  21    5.94  155.03
   3  -8  21 -183.80  107.74
   3  -8  21   -6.29   46.08
   8   2 -21    6.85  136.16
  -2   8 -21   17.32   51.92
  -2   8 -21    8.53   99.21
   8   2 -21    4.08   60.14
  -8  -2  21   30.64  153.42
   2  -8  21  -29.61   43.77
   2  -8  21   69.75  110.31
  -1   8 -21  -70.74  102.66
   8   1 -21   -8.71   58.58
   8   1 -21  -85.82  142.65
   1  -8  21 -351.84  112.44
  -8  -1  21   25.95  159.56
   1   8 -21  -56.19   52.28
  -1  -8  21   52.03   49.71
   2   8 -21    3.74   53.39
   2   8 -21   14.56  107.85
  -2  -8  21  -93.28  116.89
  -2  -8  21  -50.73   50.10
   3   8 -21  -50.05   61.01
   3   8 -21    5.01  111.66
  -3  -8  21   42.27  128.89
  -3  -8  21  -44.71   57.69
   4   8 -21    5.20  112.68
   4   8 -21   39.66   59.04
  -4  -8  21  145.68  132.15
  -4  -8  21  -97.60   55.87
   5   8 -21   -8.17   67.16
   5   8 -21   16.31  113.90
  -5  -8  21   22.17   60.32
  -5  -8  21   23.18  135.35
   6   8 -21    5.69  122.64
  -6  -8  21   39.68  147.00
   7   8 -21    5.97  130.82
   7   8 -21   87.49   62.72
  -7  -8  21  141.34   75.77
  -7  -8  21   -5.26  150.99
   8   8 -21 -131.82   64.97
   8   8 -21   19.16  129.89
  -8  -8  21  -39.75  153.80
  -8  -8  21   10.26   68.21
   9   8 -21  121.51  156.78
   9   8 -21    4.73   68.30
  -9  -8  21  108.13   75.63
  -9  -8  21    6.04  169.89
   9   7 -21  -81.59  149.94
   9   7 -21   26.71   73.38
  -9  -7  21   10.90   71.81
  -9  -7  21  -17.87  167.87
   9   6 -21  107.65   66.35
   9   6 -21    6.73  146.00
  -9  -6  21  -30.20  173.06
  -9  -6  21   97.74   78.38
   9   5 -21   95.09   66.70
   9   5 -21   -6.80  144.67
  -9  -5  21  134.91  173.07
  -9  -5  21   -5.45   74.84
   9   4 -21  -24.51   64.59
   9   4 -21    6.83  141.72
  -9  -4  21  -93.80  177.38
   9   3 -21  -16.74   59.33
   9   3 -21  -63.48  141.69
  -3   9 -21  -42.46  100.01
  -3   9 -21   -3.95   40.81
  -9  -3  21  145.04  172.02
   9   2 -21 -466.90  147.06
   9   2 -21    8.48   63.92
  -9  -2  21   19.60  170.23
   9   1 -21 -134.44   66.60
  -9  -1  21   -6.89  164.26
   0  -9  21 1135.28  231.39
   1   9 -21    8.52   58.12
   1   9 -21   72.05  106.32
  -1  -9  21    8.06   52.12
  -1  -9  21 -234.79  121.16
   2   9 -21  475.56  110.99
   2   9 -21   46.39   61.23
  -2  -9  21    4.14   54.04
  -2  -9  21   67.92  117.61
   3   9 -21    4.32   60.90
   3   9 -21   56.44  105.92
  -3  -9  21    4.29   55.01
  -3  -9  21   46.75  124.57
   4   9 -21   57.59   67.26
   4   9 -21 -261.12  119.84
  -4  -9  21   17.76  129.08
  -4  -9  21  -17.82   59.69
   5   9 -21    4.55   64.39
   5   9 -21 -221.93  120.53
  -5  -9  21   27.92  137.06
  -5  -9  21   13.91   62.04
   6   9 -21   87.26  126.16
  -6  -9  21  -64.81  143.25
   7   9 -21   24.37  130.78
   7   9 -21  -47.02   73.03
  -7  -9  21    5.07   66.39
  -7  -9  21 -131.91  153.17
   8   9 -21  283.35  152.24
   8   9 -21   30.27   74.45
  -8  -9  21   -5.33   74.93
  -8  -9  21   17.06  178.16
   9   9 -21  -78.83   85.80
   9   9 -21 -129.23  139.09
  -9  -9  21   12.12  177.10
  -9  -9  21  -67.47   75.03
  10   9 -21  -43.92   83.63
  10   9 -21  182.46  149.71
 -10  -9  21  -65.70  190.57
 -10  -9  21   -5.94   79.36
  10   8 -21  -36.24  158.30
  10   8 -21  -74.09   64.98
 -10  -8  21   90.62   73.69
 -10  -8  21   90.88  191.72
  10   7 -21   28.53   65.41
  10   7 -21 -417.11  165.86
 -10  -7  21   70.86  182.75
 -10  -7  21   17.26   74.01
  10   6 -21  -22.56   68.50
  10   6 -21    7.17  147.43
 -10  -6  21   12.88  186.13
 -10  -6  21   34.51   77.44
  10   5 -21  -95.40   61.94
  10   5 -21    7.19  148.90
 -10  -5  21  -80.03  177.54
 -10  -5  21   -5.77   73.99
  10   4 -21    7.28  158.53
  10   4 -21  119.75   69.50
 -10  -4  21   92.72  177.76
  10   3 -21 -252.68  154.53
  10   3 -21   70.13   63.34
 -10  -3  21    6.71  187.03
  -2  10 -21   59.17   66.36
  -2  10 -21   -4.41   88.10
  10   2 -21   97.58   71.24
  10   2 -21    7.55  144.83
   2 -10  21  -29.29   54.83
 -10  -2  21   -6.98  177.25
  10   1 -21   32.24   69.65
  -1  10 -21  188.43   67.65
  -1  10 -21 -154.42   99.14
   1 -10  21  131.23  110.47
 -10  -1  21  -14.64  179.26
   1 -10  21  -56.09   54.52
   0  10 -21  124.29   63.67
   0  10 -21   14.01  101.56
   0 -10  21   52.73  112.81
   0 -10  21  -26.26   55.35
   1  10 -21  192.07   73.10
   1  10 -21  283.54  112.42
  -1 -10  21   42.87  119.52
  -1 -10  21  125.91   63.65
   2  10 -21   -4.90   69.94
   2  10 -21  143.70  114.06
  -2 -10  21   48.51  121.16
  -2 -10  21  -31.97   57.53
   3  10 -21    5.00   73.94
   3  10 -21 -388.98  117.15
  -3 -10  21  -98.86   61.17
  -3 -10  21  260.62  117.91
   4  10 -21   64.29   71.46
   4  10 -21    5.39  116.41
  -4 -10  21   48.63   64.87
  -4 -10  21   93.57  123.03
   5  10 -21 -146.15  126.83
   5  10 -21   50.59   69.61
  -5 -10  21  100.82   67.35
  -5 -10  21  -51.35  132.57
   6  10 -21    5.97  125.74
   6  10 -21   -5.21   73.52
  -6 -10  21  -65.35  147.35
  -6 -10  21    5.18   69.50
   7  10 -21    6.27  136.74
   7  10 -21  145.00   79.16
  -7 -10  21  -58.48  156.41
  -7 -10  21   97.43   73.43
   8  10 -21 -145.87  139.18
   8  10 -21   -5.57   72.56
  -8 -10  21 -191.95  171.10
  -8 -10  21    5.67   74.77
   9  10 -21   46.42   85.44
   9  10 -21  -90.77  156.66
  -9 -10  21   18.15   78.08
  -9 -10  21    6.11  170.38
  10  10 -21    6.06   78.55
  10  10 -21 -407.36  156.54
 -10 -10  21    6.62  192.54
 -10 -10  21    6.38   76.18
  11  10 -21 -261.36  107.67
 -11 -10  21 -155.09   98.88
 -11 -10  21  -77.79  240.31
  11   9 -21   34.51   83.80
  11   9 -21   -7.73  168.59
 -11  -9  21  163.16   78.98
 -11  -9  21  -14.01  198.35
  11   8 -21 -269.44  161.16
  11   8 -21    5.33   72.86
 -11  -8  21  185.58   88.17
 -11  -8  21   -6.89  191.75
  11   7 -21    4.98   75.58
  11   7 -21   30.54  158.85
 -11  -7  21   20.87  199.30
 -11  -7  21   12.12   89.81
  11   6 -21   23.63   69.98
  11   6 -21 -545.53  165.85
 -11  -6  21    7.00  193.70
 -11  -6  21    6.07   79.76
  11   5 -21  -27.30   67.08
  11   5 -21    7.63  165.18
 -11  -5  21   18.39   89.37
 -11  -5  21  -28.25  206.51
  11   4 -21   17.78   65.95
  11   4 -21   -7.70  163.61
 -11  -4  21  -63.69  207.54
 -11  -4  21  -93.14   89.21
  11   3 -21 -125.31  165.20
  11   3 -21  154.61   78.41
 -11  -3  21  -78.66  180.36
  -2  11 -21    4.43   98.71
  11   2 -21   18.52   77.54
  11   2 -21    7.96  159.87
   2 -11  21   54.20  108.39
 -11  -2  21  -22.29  191.15
  -1  11 -21  -95.95  103.45
  11   1 -21  -38.17   67.92
   1 -11  21  -59.82  109.52
   0  11 -21   75.38  105.38
   0 -11  21   14.92   70.42
   1  11 -21 -175.01  109.40
   1  11 -21   27.04   74.73
  -1 -11  21  -15.20   61.82
  -1 -11  21 -172.00  115.15
   2  11 -21    5.03  109.57
   2  11 -21   55.22   77.15
  -2 -11  21   -5.20   65.90
  -2 -11  21  174.10  119.84
   3  11 -21  -22.26   71.87
   3  11 -21    5.30  111.83
  -3 -11  21 -103.41  114.16
  -3 -11  21  -10.65   62.85
   4  11 -21 -141.83   70.21
   4  11 -21 -171.12  122.94
  -4 -11  21 -149.83  130.35
  -4 -11  21    5.40   70.84
   5  11 -21 -191.44   82.46
   5  11 -21   -5.76  123.15
  -5 -11  21   -5.58   70.99
  -5 -11  21   -4.76  139.16
   6  11 -21    6.09  127.67
   6  11 -21   11.91   79.21
  -6 -11  21    5.78   77.19
  -6 -11  21  -86.55  149.10
   7  11 -21 -128.20  127.82
  -7 -11  21   85.99  147.29
   8  11 -21   50.73   87.92
   8  11 -21  -75.27  142.23
  -8 -11  21    6.29   84.07
  -8 -11  21   17.49  164.01
   9  11 -21    7.24  157.37
   9  11 -21   -6.59   89.99
  -9 -11  21    6.61   81.11
  -9 -11  21  -24.81  178.85
  10  11 -21   -7.68  179.45
  10  11 -21  -13.71  105.13
 -10 -11  21 -320.10   98.14
 -10 -11  21 -262.16  222.09
  11  11 -21    8.10  170.20
  11  11 -21  171.92   98.21
 -11 -11  21 -100.46  209.29
 -11 -11  21    7.34   93.30
  12  11 -21   -8.59  189.14
  12  11 -21 -119.82  106.79
 -12 -11  21    7.76  233.16
 -12 -11  21  133.90  105.09
  12  10 -21  227.15  179.95
  12  10 -21   68.58   98.96
 -12 -10  21   23.00  220.37
 -12 -10  21   -7.13   90.02
  12   9 -21  -74.62  178.20
  12   9 -21    6.03   88.58
 -12  -9  21    6.68   85.67
 -12  -9  21    7.53  223.00
  12   8 -21  -33.47   86.63
  12   8 -21 -327.64  184.28
 -12  -8  21  -75.83   93.20
 -12  -8  21  -81.93  234.71
  12   7 -21   96.75  173.08
  12   7 -21 -104.13   77.24
 -12  -7  21   44.06   86.46
 -12  -7  21   36.96  215.63
  12   6 -21  -55.24   73.76
  12   6 -21    8.06  166.59
 -12  -6  21    6.41   88.71
 -12  -6  21  -22.34  209.63
  12   5 -21   -8.02  160.87
  12   5 -21   -4.84   72.66
 -12  -5  21   67.67  213.23
 -12  -5  21 -148.88   86.01
  12   4 -21 -153.88   74.99
  12   4 -21 -220.02  165.27
 -12  -4  21   -7.49  199.05
 -12  -4  21   -6.54   85.60
  12   3 -21  -19.01   72.79
  12   3 -21   16.39  168.63
 -12  -3  21   -7.59  204.55
  12   2 -21   33.45  173.21
  12   2 -21   82.47   78.20
  -2  12 -21 -353.17  103.99
 -12  -2  21  134.22  213.53
  -1  12 -21  114.26  108.85
  12   1 -21   88.70   79.41
  12   1  21    5.28  149.50
   0  12 -21 -207.76  117.82
   1  12 -21  308.90  121.87
   2  12 -21   10.42  115.43
   3  12 -21  320.07  119.79
  -3 -12  21  106.74   80.43
   4  12 -21   56.65  122.50
  -4 -12  21    6.10   71.17
  -4 -12  21   56.65  133.19
   5  12 -21    5.93  123.02
  -5 -12  21 -201.23   77.10
  -5 -12  21   64.21  134.66
   6  12 -21    6.32  127.32
  -6 -12  21   52.43  145.81
  -6 -12  21    6.51   77.42
   7  12 -21   46.52  144.54
  -7 -12  21  -16.60  161.51
   8  12 -21 -120.33  158.38
   8  12 -21    6.95   94.20
  -8 -12  21 -107.12  179.84
  -8 -12  21  -21.17   87.31
   9  12 -21    7.48  158.25
   9  12 -21  -14.39   99.54
  -9 -12  21   63.19  182.96
  -9 -12  21 -457.74   95.59
  10  12 -21    8.02  170.68
 -10 -12  21  -96.32  201.58
 -10 -12  21    7.75   93.10
  11  12 -21   -8.52  174.59
 -11 -12  21    7.33  214.05
  13  11 -21    9.18  201.54
  13  10 -21   -9.00  191.13
  13  10 -21    7.19  102.26
 -13 -10  21    7.61   97.01
 -13 -10  21  -81.39  247.04
  13   9 -21  -26.14   95.13
  13   9 -21   -8.84  184.65
 -13  -9  21  -23.90  225.91
 -13  -9  21   -7.04   92.81
  13   8 -21   35.03   82.03
  13   8 -21   25.94  189.63
 -13  -8  21 -127.85  235.93
 -13  -8  21  -53.76   92.35
  13   7 -21   42.63  223.91
 -13  -7  21   -7.99  276.61
 -13  -7  21 -494.39  102.02
  13   6 -21  -36.68   82.01
  13   6 -21   16.91  182.03
 -13  -6  21    8.01  228.68
 -13  -6  21  -33.74   90.95
  13   5 -21   -8.48  180.37
  13   5 -21  -10.12   75.80
 -13  -5  21   87.89   86.55
 -13  -5  21   15.76  215.97
  13   4 -21  -34.12  174.16
  13   4 -21    4.95   73.14
 -13  -4  21  -86.68  223.79
 -13  -4  21    6.83   94.34
  13   3 -21   44.17   79.50
  13   3 -21    8.52  169.57
 -13  -3  21    8.06  220.57
  13   2 -21  -35.30   75.78
 -13  -2  21    8.34  207.19
  13   1 -21  -20.39   77.25
  13   1  21  105.50  166.90
  13   0  21  212.57  181.32
  14  10 -21   -9.49  195.72
  14  10 -21    7.65   83.29
 -14 -10  21 -173.36  261.56
  14   9 -21    9.27  196.04
  14   9 -21  -34.17   92.08
 -14  -9  21   25.57  253.62
 -14  -9  21  -58.91   92.97
  14   8 -21   50.34   94.33
  14   8 -21 -135.94  197.46
 -14  -8  21    7.05   88.35
 -14  -8  21   33.69  244.78
  14   7 -21    8.99  192.11
  14   7 -21   57.32   83.60
 -14  -7  21  137.31   97.17
 -14  -7  21  151.51  233.97
  14   6 -21  -55.67   81.82
  14   6 -21    8.87  190.57
 -14  -6  21   -8.43  251.28
 -14  -6  21    6.98   86.41
  14   5 -21 -111.72   86.83
 -14  -5  21 -265.64  252.99
 -14  -5  21   -7.04   87.76
  14   4 -21  -72.03   87.71
  14   4 -21 -248.08  196.69
 -14  -4  21    7.12  108.33
 -14  -4  21  -74.33  237.34
  14   3 -21  -70.93  179.04
  14   3 -21   85.82   77.33
 -14  -3  21 -122.85   98.12
 -14  -3  21 -397.58  228.36
  14   2 -21  -98.21   80.71
 -14  -2  21   87.29  215.49
  14   1 -21  -31.62   85.50
  14   1  21 -202.36  175.46
  14   0  21   55.23  194.51
  15   9 -21   48.41  205.56
  15   9 -21   14.68  105.31
 -15  -9  21   63.51  266.71
  15   8 -21    9.48  202.97
 -15  -8  21    7.32   91.68
 -15  -8  21  -36.06  268.90
 -15  -7  21  112.68   99.09
 -15  -7  21   -8.93  254.55
 -15  -6  21   -7.16   89.79
  15   1  21  418.82  236.09
  15   0  21  211.69  220.84
  16   1  21  135.24  225.95
 -16   0 -21 -260.49  147.19
 -16   0 -21   35.34  196.46
  16   0  21  172.74  223.71
  17   1  21  113.00  237.91
 -17   0 -21  136.88  156.86
 -17   0 -21  -19.20  207.54
  17   0  21  436.61  248.04
   0   1 -22   45.11   56.09
  -1   1 -22   14.66   54.34
   1   1 -22   61.65   53.47
   2   1 -22  -19.78   54.36
  -1   2 -22   30.04   51.21
  -1   2 -22  -68.40  109.31
   1  -2  22  102.36  116.36
  -2  -1  22 -275.74  126.97
   0   2 -22  154.15  110.40
   0   2 -22   64.92   55.60
   0  -2  22   80.10  122.72
   1   2 -22  -80.60  120.03
  -2   1 -22   28.57   51.75
   1   2 -22  -48.90   48.93
  -1  -2  22 -288.23  125.58
   2   2 -22  257.71  124.53
   2   2 -22  178.96   68.18
  -2   2 -22  234.42   66.89
   2  -2  22  147.80  124.39
  -2  -2  22   -4.91  131.76
   3   2 -22  256.92   53.26
  -2   3 -22  -51.86  105.74
   3   2 -22    6.00  115.97
  -2   3 -22  -25.00   46.26
   2  -3  22  -96.39  110.82
  -3  -2  22  -30.45  120.98
   3   1 -22   -4.01   89.94
  -1   3 -22  513.97  138.19
  -1   3 -22  344.19   90.95
  -3  -1  22  207.08  160.85
   1  -3  22  422.41  143.46
   0   3 -22  -58.79  112.37
   0   3 -22   -6.57   49.37
   0  -3  22   83.08  117.43
   1   3 -22  392.72  100.13
   1   3 -22  539.74  148.45
  -3   1 -22  448.32  108.33
  -1  -3  22  184.99  151.14
   2   3 -22  162.04  118.61
  -3   2 -22  -12.60   46.99
   2   3 -22   27.47   51.28
  -2  -3  22  130.85  122.67
  -3   3 -22  230.17  120.26
   3   3 -22   45.77  131.44
  -3   3 -22  265.29   70.02
  -3  -3  22  -87.50  135.68
   3  -3  22  319.71  120.17
  -3   4 -22   75.25   96.74
  -3   4 -22  103.76   48.66
   3  -4  22  -38.64  107.41
  -2   4 -22  547.50  122.20
  -2   4 -22  494.61  154.18
   2  -4  22  561.28  159.68
  -1   4 -22   53.90   49.35
  -1   4 -22   48.77   95.96
  -4  -1  22 -101.41  133.89
   1  -4  22  143.49  110.88
   0   4 -22  781.53  188.77
   0   4 -22  623.34  153.37
   0  -4  22  348.39  197.79
  -4   1 -22   42.77   52.10
   1   4 -22   57.19   49.65
   1   4 -22 -170.28  105.53
  -1  -4  22   21.90  122.24
   2   4 -22   -3.44   78.75
   2   4 -22  543.21  132.43
  -2  -4  22  173.26  143.80
   4   4 -22  206.85   76.08
   5   4 -22   93.01   61.03
   5   4 -22   83.68  127.69
  -5  -4  22  -57.65  138.78
  -3   5 -22  107.15   50.66
   5   3 -22  119.96   63.80
  -3   5 -22   26.50  100.10
   3  -5  22   96.15   49.28
   3  -5  22  108.53  110.40
   5   2 -22   -3.89   67.83
  -2   5 -22  241.98   63.20
  -2   5 -22  164.77  111.40
   2  -5  22  178.57   61.67
   2  -5  22  262.73  118.21
  -1   5 -22  384.67  112.98
  -1   5 -22   80.89   62.58
   1  -5  22  129.79   58.30
   1  -5  22    7.91  125.35
   0   5 -22   -3.21   43.96
   0   5 -22  -14.54  101.17
   0  -5  22  -40.60   51.84
   0  -5  22  193.46  115.32
   1   5 -22  265.97  120.46
   1   5 -22  286.55   65.49
  -1  -5  22 -222.01  130.89
  -1  -5  22  242.95   67.73
   4   5 -22   21.35   57.79
   4   5 -22   11.22  119.46
  -4  -5  22   35.25   63.88
   5   5 -22    3.67   57.45
   5   5 -22   -5.86  123.48
  -5  -5  22    4.63   61.24
  -5  -5  22   36.05  146.79
   6   5 -22 -178.04  132.35
  -6  -5  22  -81.66  158.79
   6   4 -22    6.25  120.29
  -6  -4  22  -61.23  150.47
  -3   6 -22  256.72   70.97
  -3   6 -22  154.72  114.07
   6   3 -22    6.46  137.38
   3  -6  22  117.67   68.11
  -6  -3  22   33.67  154.94
   3  -6  22  214.23  127.05
   6   2 -22    6.64  137.18
  -2   6 -22   26.95  105.82
  -2   6 -22  186.39   56.07
   2  -6  22  122.34   53.48
  -6  -2  22  220.39  148.29
   2  -6  22  169.38  114.09
  -1   6 -22  137.25   63.88
  -1   6 -22   46.56  111.44
   6   1 -22  120.92   69.18
   1  -6  22  146.57  118.92
   1  -6  22  101.88   59.26
  -6  -1  22  669.28  153.59
   0   6 -22  278.45   75.90
   0   6 -22  197.99  121.89
   0  -6  22  221.80   74.17
   0  -6  22  132.79  134.71
   3   6 -22 1112.28  222.73
   4   6 -22  -59.96   69.63
   4   6 -22  100.63  128.01
  -4  -6  22    4.42   57.58
  -4  -6  22 -105.24  154.89
   5   6 -22  -11.59   70.30
   5   6 -22 -151.64  128.16
  -5  -6  22  -90.36  150.81
  -5  -6  22  -37.11   65.15
   6   6 -22    6.13  133.33
  -6  -6  22   10.57  149.88
   7   6 -22   -6.43  135.40
   7   6 -22   -8.30   65.58
  -7  -6  22  124.99  160.57
  -7  -6  22    5.14   74.10
   7   5 -22   19.76   56.22
   7   5 -22    6.46  142.05
  -7  -5  22  -34.62  160.02
  -7  -5  22   -5.15   71.58
   7   4 -22    6.56  133.04
   7   4 -22   -4.00   66.24
  -7  -4  22  -29.42  165.49
   7   3 -22  -74.55  137.19
  -3   7 -22   21.64  102.03
   7   3 -22   40.42   62.50
  -3   7 -22   -3.09   48.45
  -7  -3  22    5.92  159.80
   3  -7  22  109.44   47.00
   7   2 -22    4.15   62.61
   7   2 -22 -200.85  136.74
  -2   7 -22   58.77  104.94
  -2   7 -22  105.95   51.82
   2  -7  22  -92.89  117.61
   2  -7  22   -6.58   45.84
  -7  -2  22  -55.13  153.53
   7   1 -22    4.45   64.90
  -1   7 -22 -143.89   99.01
   1  -7  22 -237.01  119.43
   1  -7  22  184.18   49.34
  -7  -1  22  -51.72  154.35
   1   7 -22    3.62   53.34
  -1  -7  22   -3.94   49.08
   2   7 -22  395.86  114.04
   2   7 -22   55.91   60.38
  -2  -7  22  -53.49   61.59
  -2  -7  22  363.16  123.73
   3   7 -22    3.83   60.01
   3   7 -22   10.65  115.43
  -3  -7  22   21.42   62.41
  -3  -7  22  319.71  142.86
  -4  -7  22  612.34  137.62
   5   7 -22    5.84  125.97
   5   7 -22 -202.92   68.00
  -5  -7  22  -55.71  160.49
  -5  -7  22    4.68   62.47
   6   7 -22    6.13  134.82
  -6  -7  22  -85.01  152.97
   7   7 -22 -121.76   66.38
   7   7 -22    6.45  142.90
  -7  -7  22    5.17   72.56
  -7  -7  22   28.05  152.95
   8   7 -22 -129.92  150.99
   8   7 -22  117.57   70.60
  -8  -7  22   54.47  168.18
  -8  -7  22   16.39   77.02
   8   6 -22 -413.98  152.17
   8   6 -22    4.32   67.08
  -8  -6  22  -96.54  169.10
  -8  -6  22  -48.96   80.36
   8   5 -22    4.12   62.11
   8   5 -22  -47.99  141.64
  -8  -5  22    5.45   72.96
  -8  -5  22  150.38  171.99
   8   4 -22  -45.88   61.62
   8   4 -22   -6.91  139.12
  -8  -4  22  -68.43  170.39
  -3   8 -22   53.70   49.55
   8   3 -22 -128.29  141.94
   8   3 -22    8.45   66.36
  -8  -3  22   62.77  160.08
   8   2 -22  -25.90   60.52
  -2   8 -22 -122.51  105.08
   8   2 -22  130.49  140.17
  -8  -2  22  -97.68  166.48
   2  -8  22 -128.47  120.14
   8   1 -22    4.58   67.44
  -8  -1  22   88.85  171.62
   0   8 -22    3.85   56.80
   0  -8  22   18.74   50.86
   1   8 -22   -5.01  104.65
   1   8 -22  -50.15   57.20
  -1  -8  22 -118.69  126.70
  -1  -8  22  -11.84   50.53
   2   8 -22  -67.66   59.99
   2   8 -22 -108.55  113.77
  -2  -8  22 -110.02  126.17
  -2  -8  22  -24.70   54.29
   3   8 -22    4.10   56.39
   3   8 -22  165.68  114.42
  -3  -8  22 -265.38  139.82
  -3  -8  22    4.29   58.70
   4   8 -22   22.17  117.70
   4   8 -22 -161.61   68.99
  -4  -8  22   23.95  139.81
  -4  -8  22    8.96   54.31
   5   8 -22   -5.77  121.59
   5   8 -22  -93.85   68.51
  -5  -8  22    5.02  143.09
  -5  -8  22   -4.68   62.61
   6   8 -22   -6.12  128.52
   6   8 -22   -4.40   65.10
  -6  -8  22   -5.38  152.05
  -6  -8  22   14.70   68.69
   7   8 -22   -6.43  135.41
   7   8 -22   36.49   65.56
  -7  -8  22   -5.68  157.23
  -7  -8  22   15.43   69.28
   8   8 -22    6.87  159.88
   8   8 -22  293.96   84.04
  -8  -8  22   37.92   84.50
  -8  -8  22  -12.04  183.73
   9   8 -22   65.35  152.14
   9   8 -22   10.04   74.54
  -9  -8  22    6.45  179.21
  -9  -8  22   34.29   72.66
   9   7 -22    7.22  166.85
   9   7 -22   42.46   69.31
  -9  -7  22   57.74  186.24
  -9  -7  22   75.17   82.07
   9   6 -22 -129.88  149.78
   9   6 -22   94.85   73.66
  -9  -6  22   32.09  179.49
  -9  -6  22   17.21   82.75
   9   5 -22  -61.33   68.82
   9   5 -22   -7.24  152.77
  -9  -5  22    5.76   79.90
  -9  -5  22   -6.65  182.71
   9   4 -22  112.49   68.84
   9   4 -22   44.07  155.02
  -9  -4  22   46.14  174.27
   9   3 -22   -8.86   66.96
   9   3 -22   22.46  151.63
  -9  -3  22   46.73  179.49
  -2   9 -22   63.01   62.14
   9   2 -22    7.61  143.78
   9   2 -22  -35.88   68.44
  -9  -2  22    6.93  165.08
  -1   9 -22   46.46   66.34
   9   1 -22    4.74   76.88
  -1   9 -22  786.47  112.05
  -9  -1  22   -7.24  179.38
   0   9 -22  -39.23   62.62
   0   9 -22    4.97  109.22
   0  -9  22  -20.26   54.47
   0  -9  22 -292.51  124.62
   1   9 -22    5.11  109.11
   1   9 -22   21.66   65.85
  -1  -9  22  -63.07  126.80
  -1  -9  22  -66.83   57.02
   2   9 -22    5.29  105.54
   2   9 -22    8.89   61.44
  -2  -9  22 -313.86  133.57
  -2  -9  22    4.33   54.71
   3   9 -22 -141.89  120.30
   3   9 -22  123.08   67.58
  -3  -9  22   23.02  132.34
  -3  -9  22  -22.46   60.74
   4   9 -22   -5.65  115.32
   4   9 -22   49.79   62.59
  -4  -9  22    4.66   59.21
  -4  -9  22 -264.26  140.00
   5   9 -22    4.65   67.97
   5   9 -22    5.87  119.68
  -5  -9  22   48.04   63.05
  -5  -9  22   35.26  144.56
   6   9 -22   38.35   67.59
   6   9 -22   -6.15  134.53
  -6  -9  22   40.15   65.44
  -6  -9  22  132.62  152.50
   7   9 -22   -4.96   80.38
   7   9 -22    6.46  137.33
  -7  -9  22  216.14  171.01
   8   9 -22  -27.19  145.90
   8   9 -22   61.78   74.39
  -8  -9  22    5.59   72.68
  -8  -9  22  187.24  175.55
   9   9 -22    7.29  148.42
   9   9 -22    5.36   81.30
  -9  -9  22   -6.53  191.36
  -9  -9  22    5.90   79.06
  10   9 -22    7.72  164.82
  10   9 -22  -63.66   90.80
 -10  -9  22    6.24   78.61
 -10  -9  22  -48.70  198.41
  10   8 -22   62.82   79.27
  10   8 -22  310.01  165.40
 -10  -8  22    6.03   81.81
 -10  -8  22  -47.96  186.25
  10   7 -22   -4.94   72.13
  10   7 -22    7.66  159.52
 -10  -7  22 -103.51   82.05
 -10  -7  22   20.79  196.54
  10   6 -22    7.63  160.91
  10   6 -22   47.83   72.32
 -10  -6  22 -109.31   82.62
 -10  -6  22   83.87  202.07
  10   5 -22  -15.37  167.27
  10   5 -22  234.26   75.40
 -10  -5  22  -42.25  199.29
 -10  -5  22    6.10   89.26
  10   4 -22  -45.29   68.90
  10   4 -22   38.81  163.62
 -10  -4  22  -35.24  190.58
  10   3 -22   31.57  162.00
  10   3 -22    4.64   65.17
 -10  -3  22   28.40  184.58
  10   2 -22  -23.46   66.73
  -2  10 -22   66.02   63.99
  -2  10 -22   28.33   98.57
  10   2 -22 -256.76  153.81
 -10  -2  22  -36.82  185.63
   2 -10  22  -25.72   52.30
   2 -10  22  110.33  116.65
  10   1 -22  -48.72   68.43
  -1  10 -22  107.03  105.97
  -1  10 -22   67.66   66.19
   1 -10  22    8.74   56.11
   1 -10  22   11.81  119.46
   0  10 -22  204.29   71.89
   0  10 -22   45.02  112.97
   0 -10  22   22.57   59.99
   0 -10  22   93.53  122.15
   1  10 -22 -468.49  112.98
   1  10 -22   10.02   67.65
  -1 -10  22    4.21  127.79
  -1 -10  22   13.78   57.84
   2  10 -22   47.80  113.34
  -2 -10  22  -85.29   63.68
  -2 -10  22   95.82  128.38
   3  10 -22    5.56  116.83
   3  10 -22   10.13   70.87
  -3 -10  22   -4.89   64.74
  -3 -10  22   13.58  132.07
   4  10 -22    5.78  119.57
   4  10 -22  -82.83   76.06
  -4 -10  22    4.83  140.04
  -4 -10  22  -80.10   66.80
   5  10 -22    6.02  128.27
   5  10 -22   90.16   76.54
  -5 -10  22   -5.06  146.16
  -5 -10  22    5.20   72.19
   6  10 -22   10.91   75.08
   6  10 -22   -6.32  137.89
  -6 -10  22  -15.99  155.81
  -6 -10  22    5.42   71.99
   7  10 -22   -6.61  144.95
  -7 -10  22   57.27  164.06
   8  10 -22    6.95  148.61
   8  10 -22    5.84   80.87
  -8 -10  22  160.50   85.54
  -8 -10  22   79.03  168.88
   9  10 -22  -73.65  155.18
   9  10 -22  163.98   87.58
  -9 -10  22   85.33  177.79
  -9 -10  22   50.06   86.78
  10  10 -22  171.30   97.71
  10  10 -22    7.79  171.97
 -10 -10  22  119.22  240.64
 -10 -10  22  191.23  104.25
  11  10 -22  343.58  175.17
  11  10 -22    6.65   95.27
 -11 -10  22    7.06   87.14
 -11 -10  22  152.23  213.89
  11   9 -22  963.62  145.24
 -11  -9  22   33.03  130.89
  11   8 -22  131.22   81.97
  11   8 -22 -156.01  175.67
 -11  -8  22 -103.85  212.02
 -11  -8  22    6.32   82.88
  11   7 -22   -5.27   73.58
  11   7 -22  437.92  179.34
 -11  -7  22  -45.00   87.60
 -11  -7  22  -14.76  215.73
  11   6 -22  -20.04   76.74
  11   6 -22  -24.39  178.87
 -11  -6  22   37.20  207.01
 -11  -6  22    6.45   93.83
  11   5 -22 -251.18  164.84
  11   5 -22 -216.79   77.30
 -11  -5  22   22.55  211.65
 -11  -5  22  -12.96   89.03
  11   4 -22    9.42   71.03
  11   4 -22  -65.89  165.45
 -11  -4  22  104.94   89.44
 -11  -4  22  -29.92  199.24
  11   3 -22    4.81   75.96
  11   3 -22   49.69  173.49
 -11  -3  22    7.56  217.14
  -2  11 -22 -105.20  116.27
  11   2 -22   -4.90   79.69
  11   2 -22    8.44  164.36
   2 -11  22 -188.41  119.64
 -11  -2  22   -7.83  204.63
  -1  11 -22  206.98  113.31
  11   1 -22  121.10   81.21
   1 -11  22   51.74  122.78
   1 -11  22   19.78   62.59
   0  11 -22  -60.87  110.40
   0  11 -22   54.77   79.42
   0 -11  22  -69.94  117.97
   0 -11  22   97.21   68.01
   1  11 -22  360.60  120.01
   1  11 -22  185.76   88.55
  -1 -11  22  161.73  129.75
  -1 -11  22   36.50   72.59
   2  11 -22  -96.56   86.55
   2  11 -22 -129.43  116.67
  -2 -11  22 -198.82  128.44
  -2 -11  22    5.35   68.78
   3  11 -22   -5.80   79.84
   3  11 -22  321.42  124.61
  -3 -11  22  142.44  135.46
  -3 -11  22   92.11   84.77
   4  11 -22  -41.04  124.67
   4  11 -22  -59.18   83.27
  -4 -11  22    5.58   71.79
  -4 -11  22  155.76  138.87
   5  11 -22   -6.06   84.43
   5  11 -22    6.11  128.46
  -5 -11  22   -5.77   75.16
  -5 -11  22  -76.43  143.37
   6  11 -22   56.00   93.21
   6  11 -22   97.25  136.97
  -6 -11  22  -37.54  153.72
  -6 -11  22   83.89   77.61
   7  11 -22    6.83  142.85
  -7 -11  22  -57.98  163.22
   8  11 -22   -7.19  153.84
   8  11 -22   45.54   88.01
  -8 -11  22  -12.29  176.10
  -8 -11  22   65.42   81.99
   9  11 -22    7.61  204.49
   9  11 -22  399.43  128.92
  -9 -11  22  171.96  123.08
  10  11 -22   78.94   94.03
  10  11 -22    8.03  174.37
 -10 -11  22    7.25   91.86
 -10 -11  22   14.20  203.41
  11  11 -22   -8.53  174.32
  11  11 -22   75.00   97.81
 -11 -11  22    7.66   96.75
 -11 -11  22    7.68  224.45
  12  11 -22  -36.62  208.41
 -12 -11  22 -685.43  257.38
  12  10 -22    7.19  102.43
  12  10 -22    8.99  195.67
 -12 -10  22  179.45  100.08
 -12 -10  22  -48.60  231.60
  12   9 -22    8.85  183.37
  12   9 -22   -6.35   89.29
 -12  -9  22  -15.90  233.82
 -12  -9  22   20.95   86.11
 -12  -8  22 -407.49  104.63
  12   7 -22  -49.68   87.32
  12   7 -22  -86.20  185.00
 -12  -7  22 -236.39  101.13
 -12  -7  22    8.02  251.17
  12   6 -22 -102.73  186.31
  12   6 -22  -62.96   82.25
 -12  -6  22    6.78   91.72
 -12  -6  22   24.14  219.06
  12   5 -22   71.89   71.78
  12   5 -22 -120.33  176.71
 -12  -5  22   -6.85   85.84
 -12  -5  22   -7.92  211.66
  12   4 -22   19.75   70.48
  12   4 -22 -164.57  183.20
 -12  -4  22   23.70  219.86
 -12  -4  22 -242.22   97.01
  12   3 -22  -70.40   78.01
  12   3 -22   -8.65  175.80
 -12  -3  22   24.12  210.80
  12   2 -22  230.65  111.00
  12   2 -22   -8.85  177.82
  -2  12 -22  245.32  114.79
   2 -12  22  157.44  125.71
 -12  -2  22   58.12  265.56
  -1  12 -22 -273.01  119.99
  12   1 -22    5.21   82.61
   1 -12  22  236.73  121.08
   0  12 -22  948.82  179.76
   0 -12  22  126.86  177.29
   1  12 -22 -265.16  115.77
  -1 -12  22   39.44  124.33
   2  12 -22    5.50  119.59
  -2 -12  22   41.62   75.03
  -2 -12  22  -22.73  127.98
   3  12 -22   -5.79  121.62
  -3 -12  22  269.62  134.19
  -3 -12  22   -6.12   73.63
   4  12 -22    6.04  125.54
  -4 -12  22   -4.99  144.12
  -4 -12  22  -88.20   80.94
   5  12 -22 -166.35   92.95
   5  12 -22   12.62  129.21
  -5 -12  22  -64.41   79.28
  -5 -12  22  -62.79  144.72
   6  12 -22   27.30   83.39
   6  12 -22    6.68  141.21
  -6 -12  22  -22.37  160.78
  -6 -12  22    6.68   83.85
   7  12 -22 -119.38  152.76
  -7 -12  22  -23.58  184.40
   8  12 -22   -7.25  104.32
   8  12 -22 -179.90  166.62
  -8 -12  22 -369.01  207.60
  -8 -12  22    7.24   95.91
   9  12 -22   37.59  105.26
   9  12 -22  150.84  173.07
  -9 -12  22    7.60   94.17
  -9 -12  22   20.40  196.48
  10  12 -22  -70.34  108.32
  10  12 -22   -8.42  168.25
 -10 -12  22  -65.20  214.76
 -10 -12  22    7.99  107.44
  13  10 -22    9.54  198.88
 -13 -10  22   34.68  256.58
  13   9 -22  126.43   95.24
  13   9 -22    9.35  194.89
 -13  -9  22   17.11  247.62
 -13  -9  22   -7.42   97.02
  13   8 -22  -43.21   85.90
  13   8 -22   45.91  202.41
 -13  -8  22 -126.75  102.44
 -13  -8  22  135.60  249.74
  13   7 -22   63.43   83.02
  13   7 -22   36.59  204.17
 -13  -7  22  -42.47  246.64
 -13  -7  22 -315.27   91.89
  13   6 -22 -422.81   99.47
 -13  -6  22 -255.76  298.93
 -13  -6  22   -7.16  114.79
  13   5 -22   -9.03  195.18
  13   5 -22  -42.94   80.17
 -13  -5  22  184.57  246.06
  13   4 -22   -9.06  181.30
  13   4 -22    5.24   72.06
 -13  -4  22   41.76  221.27
 -13  -4  22   -7.24   99.84
  13   3 -22 -126.52  187.31
  13   3 -22   25.99   78.97
 -13  -3  22    8.52  225.28
  13   2 -22 -128.06   87.11
 -13  -2  22  -26.25  224.75
  13   1 -22  134.76   90.29
  14   9 -22   79.30  103.00
  14   9 -22   78.76  210.92
 -14  -9  22    9.17  264.11
  14   8 -22    6.45   98.96
  14   8 -22   -9.68  196.05
 -14  -8  22  100.53  263.16
 -14  -8  22   14.93   95.49
  14   7 -22  114.65  196.45
  14   7 -22  158.40   92.89
 -14  -7  22   29.21  102.79
 -14  -7  22  -18.21  262.82
  14   6 -22    9.43  202.05
  14   6 -22  139.06   88.56
 -14  -6  22  -17.76  252.42
 -14  -6  22   44.65  102.38
  14   5 -22   -5.65   88.82
  14   5 -22    9.47  189.35
 -14  -5  22   -8.76  240.93
 -14  -5  22  -59.82   93.28
  14   4 -22  -16.38   84.21
  14   4 -22   18.76  183.75
 -14  -4  22    8.75  234.15
 -14  -4  22  143.45  100.25
  14   3 -22 -106.98   83.48
  14   3 -22 -630.29  201.04
 -14  -3  22  -35.71  252.23
 -14  -3  22   -7.65  106.44
  14   2 -22  136.79   95.21
  14   1 -22    5.57   82.74
  15   8 -22   10.16  213.04
  15   8 -22  117.78   97.60
 -15  -8  22   -9.79  279.46
  15   7 -22 -159.54  197.27
  15   7 -22  -94.45   89.39
 -15  -7  22   15.01   99.69
 -15  -7  22   -9.51  272.79
  15   6 -22  -69.00  200.84
  15   6 -22  -55.06   88.73
 -15  -6  22    7.64   92.81
 -15  -6  22   18.54  256.89
 -15  -5  22   36.41  251.78
 -15  -5  22    7.70   98.44
 -15  -4  22  -70.07  112.89
   0   1 -23  219.35   79.41
  -1   1 -23   69.98   55.52
   1   1 -23  -44.91   58.76
  -1   2 -23   10.67   54.06
   1  -2  23   39.85  116.87
   0   2 -23   18.17   55.90
   0   2 -23   42.99  117.15
   0  -2  23   95.87  128.28
   1   2 -23  117.61  124.24
  -2   1 -23   33.68   58.32
   1   2 -23    7.43   52.98
  -1  -2  23 -102.78  126.28
  -2   2 -23  -41.69   53.12
   2   2 -23   75.28  123.17
   2  -2  23   29.62  121.04
  -2  -2  23 -242.62  130.89
  -2   3 -23  272.10  125.97
  -2   3 -23  251.41   75.71
   2  -3  23  153.74  130.75
  -1   3 -23   13.77   48.50
  -1   3 -23  -16.94  114.05
   1  -3  23 -137.76  124.97
   0   3 -23  -23.00  113.81
   0   3 -23  144.04   62.21
   0  -3  23  -28.21  120.98
  -3   1 -23  -39.90   56.64
   1   3 -23  158.08  123.22
   1   3 -23  146.75   56.49
  -1  -3  23   91.74  129.07
  -3   2 -23  291.27   73.20
   2   3 -23   -6.01  132.23
  -2  -3  23   -4.98  144.44
  -3   3 -23  -45.36   54.92
  -3   3 -23  -22.05  111.74
   3  -3  23   26.88  117.63
  -3   4 -23  368.53  133.28
   4   3 -23   50.09   81.22
  -3   4 -23  292.65   89.08
   4   3 -23  708.31  145.90
   3  -4  23  248.79  138.72
   4   2 -23   64.07   65.48
  -2   4 -23  115.25   56.84
  -2   4 -23   72.77  110.14
   2  -4  23  149.66  121.43
  -1   4 -23  340.54   73.20
  -1   4 -23  218.20  122.74
   4   1 -23   21.77   77.85
   1  -4  23  277.95  139.00
   0   4 -23  -17.49   52.54
   0   4 -23 -136.01  116.77
   0  -4  23  -27.20  127.15
   1   4 -23   27.75  123.30
  -1  -4  23  103.55  137.16
   3   4 -23  120.29   75.46
   4   4 -23  147.06  129.95
   4   4 -23    3.86   50.74
  -4  -4  23    5.35  145.23
   5   4 -23  170.95   64.59
   5   4 -23   51.08  137.19
  -5  -4  23  -16.81  155.35
  -3   5 -23  172.16   56.57
   5   3 -23    3.98   64.42
  -3   5 -23  316.18  110.04
   5   3 -23    6.63  131.16
   3  -5  23  112.34   54.86
  -5  -3  23   90.51  152.50
  -2   5 -23  104.26   46.98
  -2   5 -23  113.35  108.01
   5   2 -23    4.13   64.25
   5   2 -23 -101.88  134.58
   2  -5  23   17.61   44.21
  -5  -2  23  -41.23  144.85
   2  -5  23 -196.32  122.04
   5   1 -23   49.32   65.13
  -1   5 -23  107.05  109.60
  -1   5 -23   66.83   51.57
   1  -5  23   74.05  126.36
  -5  -1  23  -55.79  146.14
   1  -5  23   18.67   52.65
   0   5 -23 -100.10  106.86
   0  -5  23   -3.91   47.10
   0  -5  23  172.79  125.23
   2   5 -23 -188.83   55.02
  -2  -5  23    4.26   56.81
   3   5 -23  445.50  130.33
   3   5 -23   70.64   66.31
  -3  -5  23   30.05  147.62
  -3  -5  23  159.99   68.01
   4   5 -23  186.49  137.19
   4   5 -23    3.81   65.13
  -4  -5  23  115.43  154.58
  -4  -5  23  195.28   73.83
   5   5 -23    3.93   60.31
   5   5 -23    6.32  133.85
  -5  -5  23    5.51  155.38
  -5  -5  23    4.88   64.90
   6   5 -23   19.84  132.87
  -6  -5  23 -178.23  159.45
   6   4 -23   73.51  143.41
  -6  -4  23   29.46  157.95
  -3   6 -23 -241.89  118.22
   6   3 -23    6.91  143.65
  -3   6 -23  -60.29   51.77
  -6  -3  23   89.24  157.88
  -2   6 -23   16.70   57.76
  -2   6 -23  617.20  126.07
   6   2 -23   84.62  139.79
   2  -6  23   35.26   54.49
   2  -6  23  192.90  130.00
  -6  -2  23   -6.18  151.50
  -1   6 -23    5.01  117.61
  -6  -1  23  -19.44  155.68
   1  -6  23 -192.98  124.83
   1  -6  23   -3.73   48.71
   1   6 -23   -3.70   57.65
  -1  -6  23  -53.48   53.21
   2   6 -23  183.78  128.01
   2   6 -23   26.56   62.18
  -2  -6  23   77.21   62.39
  -2  -6  23  200.35  140.00
   3   6 -23 -530.84  134.02
   3   6 -23  -65.03   62.17
  -3  -6  23 -326.94  156.48
  -3  -6  23   62.63   62.42
   4   6 -23   -5.99  130.46
   4   6 -23  -47.11   65.45
  -4  -6  23  -88.79   62.91
  -4  -6  23 -393.62  172.15
   5   6 -23 -174.96  137.04
   5   6 -23    8.08   64.17
  -5  -6  23   -4.90   66.68
  -5  -6  23   48.97  155.64
   6   6 -23   -6.54  130.97
  -6  -6  23 -114.57  159.23
  -6  -6  23    5.15   66.96
   7   6 -23   22.00   65.25
   7   6 -23    6.91  147.22
  -7  -6  23   36.35  166.25
  -7  -6  23    5.42   69.12
   7   5 -23   37.70   65.60
   7   5 -23  -55.55  149.05
  -7  -5  23  -25.08  170.74
  -7  -5  23    5.43   73.91
   7   4 -23    7.06  142.67
   7   4 -23   63.58   65.13
  -7  -4  23  136.71  162.06
   7   3 -23   47.10   65.51
   7   3 -23 -129.84  148.34
  -7  -3  23    6.28  160.39
   7   2 -23 -161.76  145.98
   7   2 -23    4.39   62.84
  -2   7 -23  -92.78  113.09
  -7  -2  23   91.27  167.86
   2  -7  23  115.88  120.96
   7   1 -23    4.71   66.86
  -7  -1  23   -6.81  163.47
   0   7 -23  -67.42   59.23
   0  -7  23   43.67   54.99
   1   7 -23   11.61   59.40
   1   7 -23   16.19  117.07
  -1  -7  23   16.68   55.50
  -1  -7  23 -145.05  134.96
   2   7 -23   94.86  132.13
   2   7 -23  111.43   60.26
  -2  -7  23  104.16   64.10
  -2  -7  23    4.71  137.94
   3   7 -23  179.20  123.93
   3   7 -23   64.36   64.33
  -3  -7  23   94.91   68.21
  -3  -7  23 -279.92  153.64
   4   7 -23    6.00  150.06
   5   7 -23   37.74  145.22
   5   7 -23   33.99   66.23
  -5  -7  23  166.44  184.15
  -5  -7  23  -19.73   66.11
   6   7 -23  -13.17  140.68
   6   7 -23 -131.57   68.83
  -6  -7  23  -46.03  161.90
  -6  -7  23   82.74   71.10
   7   7 -23 -154.48   66.12
   7   7 -23   13.81  149.63
  -7  -7  23  -30.31  169.92
   8   7 -23  134.26   77.76
   8   7 -23    7.29  172.57
  -8  -7  23  166.47  199.66
  -8  -7  23    5.75   83.39
   8   6 -23    7.27  154.16
   8   6 -23  -73.30   66.69
  -8  -6  23   -6.56  177.84
  -8  -6  23  -68.81   80.08
   8   5 -23   43.66   65.67
   8   5 -23    7.30  156.03
  -8  -5  23   59.65  182.86
  -8  -5  23  -40.18   80.30
   8   4 -23 -101.60   66.83
   8   4 -23  -59.49  154.96
  -8  -4  23  -19.86  170.37
   8   3 -23 -235.12  160.40
   8   3 -23   44.72   63.78
  -8  -3  23  -66.60  171.86
   8   2 -23  107.86  144.60
   8   2 -23   91.39   69.05
  -8  -2  23  -34.46  179.46
   8   1 -23   29.04   70.04
  -1   8 -23   -5.08   97.59
  -1   8 -23   62.84   55.52
   1  -8  23   -4.28  109.47
   1  -8  23  -37.56   51.36
   0   8 -23   -5.25  114.16
   0   8 -23  -35.69   57.48
   0  -8  23  -55.22   54.68
   0  -8  23 -240.79  132.90
   1   8 -23 -151.41  117.13
   1   8 -23    4.11   58.17
  -1  -8  23  -20.82   55.23
  -1  -8  23   49.97  134.95
   2   8 -23 -178.70  120.32
   2   8 -23    4.24   64.79
  -2  -8  23   95.88  137.03
  -2  -8  23   34.78   58.11
   3   8 -23   68.60   64.62
   3   8 -23 -444.52  125.80
  -3  -8  23  -34.89  146.44
  -3  -8  23  -95.14   61.27
   4   8 -23 -220.08   69.30
   4   8 -23   -5.99  134.32
  -4  -8  23   19.14   64.34
  -4  -8  23   20.81  148.66
   5   8 -23    6.23  129.73
   5   8 -23  117.71   67.66
  -5  -8  23 -152.34  155.55
  -5  -8  23   -4.99   66.46
   6   8 -23    6.59  139.95
   6   8 -23   65.38   70.16
  -6  -8  23    5.23   68.19
  -6  -8  23  -17.15  171.13
   7   8 -23   69.24  162.74
  -7  -8  23  109.72  180.71
   8   8 -23    7.30  154.33
   8   8 -23 -240.93   77.77
  -8  -8  23    6.44  178.52
  -8  -8  23   -5.71   83.11
   9   8 -23   53.16   77.72
   9   8 -23   62.20  164.83
  -9  -8  23    6.03   77.59
  -9  -8  23  -20.87  191.38
   9   7 -23 -214.96   74.44
   9   7 -23   61.54  165.11
  -9  -7  23    6.10   81.51
  -9  -7  23   55.29  198.42
   9   6 -23   76.56   66.72
   9   6 -23   -7.68  165.63
  -9  -6  23 -413.10   89.61
  -9  -6  23 -111.59  196.96
   9   5 -23 -131.81  156.97
   9   5 -23 -141.61   70.38
  -9  -5  23   -7.07  194.57
  -9  -5  23    6.08   80.97
   9   4 -23    7.83  152.57
   9   4 -23   13.73   76.14
  -9  -4  23   84.30  192.80
   9   3 -23   93.71   72.44
   9   3 -23    7.96  164.38
  -9  -3  23  -56.54  187.69
  -2   9 -23 -178.78  111.36
   9   2 -23    8.10  149.23
   9   2 -23  -42.70   67.31
  -2   9 -23  -25.48   58.46
   2  -9  23    7.80   53.02
  -9  -2  23    7.31  174.28
   2  -9  23   69.66  126.61
  -1   9 -23 -168.85  119.87
  -1   9 -23  -13.30   57.77
   9   1 -23  -40.05   68.63
   1  -9  23   81.06   50.68
   1  -9  23  106.48  126.29
   0   9 -23   88.70   63.11
   0   9 -23   31.65  114.10
   0  -9  23 -366.45  129.71
   0  -9  23   42.35   55.04
   1   9 -23  -18.30   66.63
   1   9 -23   -5.43  119.50
  -1  -9  23  -36.54  132.64
  -1  -9  23   52.47   55.42
   2   9 -23    4.70   66.38
   2   9 -23  184.46  127.65
  -2  -9  23  -22.69   62.19
  -2  -9  23  -28.39  133.76
   3   9 -23 -162.18  121.39
   3   9 -23   32.66   66.26
  -3  -9  23  309.55  141.68
  -3  -9  23  -41.92   63.63
   4   9 -23    6.00  127.99
   4   9 -23   57.39   70.87
  -4  -9  23  103.96  152.27
  -4  -9  23    4.84   64.40
   5   9 -23   81.08  132.32
   5   9 -23   14.74   72.87
  -5  -9  23   87.06  164.59
  -5  -9  23    5.04   67.95
   6   9 -23  110.67  146.85
   6   9 -23   -5.06   76.99
  -6  -9  23   -5.73  169.52
  -6  -9  23    5.27   72.93
   7   9 -23 -180.17  152.95
  -7  -9  23   79.94  180.39
   8   9 -23 -141.18   85.36
   8   9 -23  -94.95  158.82
  -8  -9  23    5.82   78.05
  -8  -9  23  162.85  187.66
   9   9 -23    5.66   74.71
   9   9 -23  195.47  169.89
  -9  -9  23  -69.18  197.44
  -9  -9  23    6.13   79.69
  10   9 -23 -496.99  202.88
 -10  -9  23 -141.04  246.49
 -10  -9  23   -6.56   96.70
  10   8 -23  -55.48   77.78
  10   8 -23 -213.88  177.91
 -10  -8  23  -73.79  209.04
 -10  -8  23    6.37   80.77
  10   7 -23  -88.83   76.95
  10   7 -23 -545.73  181.58
 -10  -7  23   58.15   94.87
 -10  -7  23   14.72  211.00
  10   6 -23    8.18  168.32
  10   6 -23  150.26   76.80
 -10  -6  23   44.90   86.44
 -10  -6  23  212.72  208.27
  10   5 -23 -163.25  166.37
  10   5 -23  141.01   77.31
 -10  -5  23  -29.98  205.49
 -10  -5  23  -25.72   88.92
  10   4 -23    8.31  168.98
  10   4 -23    4.79   70.70
 -10  -4  23   67.08  195.53
  10   3 -23   -4.90   70.76
  10   3 -23    8.35  169.31
 -10  -3  23  150.35  200.59
  10   2 -23 -104.16   72.13
  -2  10 -23   20.31  117.03
  10   2 -23 -246.67  160.63
  -2  10 -23  164.23   65.49
   2 -10  23  -92.17   58.73
 -10  -2  23  -38.84  194.74
   2 -10  23  -49.70  126.76
  -1  10 -23  -47.14  116.14
  -1  10 -23    5.04   70.99
  10   1 -23    5.15   75.59
   1 -10  23   64.36  127.05
   1 -10  23   31.53   57.69
   0  10 -23    5.11   63.96
   0  10 -23  -21.56  123.03
   0 -10  23    4.43  129.45
   0 -10  23   92.19   60.77
   1  10 -23  133.02  123.70
   1  10 -23    5.24   77.05
  -1 -10  23  229.19  140.11
  -1 -10  23    4.77   63.37
   2  10 -23   20.82   75.98
   2  10 -23   68.49  126.80
  -2 -10  23  -14.80   62.72
  -2 -10  23   14.24  140.87
   3  10 -23    5.32   77.01
   3  10 -23  -94.30  126.49
  -3 -10  23 -312.98   72.50
  -3 -10  23 -231.61  148.09
   4  10 -23   -6.13  133.88
   4  10 -23   10.87   73.65
  -4 -10  23   87.35  151.76
  -4 -10  23   31.40   68.12
   5  10 -23   66.89   75.34
   5  10 -23  222.74  148.81
  -5 -10  23    5.44   69.31
  -5 -10  23   54.67  159.10
   6  10 -23   26.56  132.95
   6  10 -23   22.92   80.91
  -6 -10  23    5.67   70.65
  -6 -10  23   74.81  163.78
   7  10 -23   55.87  142.25
  -7 -10  23    6.07  169.60
   8  10 -23 -153.45   85.33
   8  10 -23    7.35  159.47
  -8 -10  23   52.31  192.48
  -8 -10  23  -68.46   85.59
   9  10 -23   -7.86  174.79
   9  10 -23 -338.60  106.93
  -9 -10  23 -150.83  104.48
  10  10 -23   26.67   93.31
  10  10 -23   16.69  177.35
 -10 -10  23   45.27  206.73
 -10 -10  23    6.93   88.98
  11  10 -23    6.98   91.62
  11  10 -23   -8.97  190.59
 -11 -10  23  -58.61   97.42
 -11 -10  23   64.25  239.40
  11   9 -23    8.86  187.16
  11   9 -23   12.79   92.88
 -11  -9  23   79.01  224.57
 -11  -9  23   -6.95   90.94
  11   8 -23  349.29  263.77
  11   8 -23  121.69  122.52
 -11  -8  23  552.16  133.48
  11   7 -23    8.67  177.97
  11   7 -23  120.50   82.42
 -11  -7  23  -80.06  230.51
 -11  -7  23  265.36   95.45
  11   6 -23  319.71  174.73
  11   6 -23   -5.31   77.65
 -11  -6  23   13.60   95.65
 -11  -6  23   96.51  213.42
  11   5 -23   -8.68  180.30
  11   5 -23   10.20   71.87
 -11  -5  23    6.80   89.69
 -11  -5  23   71.20  210.64
  11   4 -23   96.29  181.04
  11   4 -23  -10.03   76.30
 -11  -4  23   31.55  216.36
 -11  -4  23   -6.91   93.26
  11   3 -23  -34.98  179.44
  11   3 -23   96.70   80.30
 -11  -3  23   56.01  209.40
  11   2 -23   -8.93  172.08
  -2  11 -23   -5.10  112.82
  11   2 -23   77.64   87.49
   2 -11  23  -29.22   59.85
 -11  -2  23    8.25  214.99
  -1  11 -23   84.22  116.14
  11   1 -23  -26.65   84.43
   1 -11  23   77.12  122.98
   1 -11  23   76.25   66.48
   0  11 -23  228.26   84.70
   0  11 -23 -189.62  115.32
   0 -11  23  -41.74   63.97
   0 -11  23   48.76  133.65
   1  11 -23    5.80   75.54
   1  11 -23    5.58  119.47
  -1 -11  23 -229.10  131.28
  -1 -11  23  -53.71   65.45
   2  11 -23    5.93   80.49
   2  11 -23   28.78  124.61
  -2 -11  23 -194.81  140.57
  -2 -11  23    5.45   68.52
   3  11 -23 -226.39  124.21
   3  11 -23  -60.65   87.78
  -3 -11  23  -44.43  141.51
  -3 -11  23  -56.13   75.43
   4  11 -23    6.08   76.54
   4  11 -23   18.81  131.16
  -4 -11  23  195.65  148.94
  -4 -11  23    5.80   76.12
   5  11 -23   12.44   79.11
   5  11 -23 -176.62  143.52
  -5 -11  23  -49.65  152.73
  -5 -11  23   -6.00   74.25
   6  11 -23  -83.00   87.29
   6  11 -23 -300.80  134.21
  -6 -11  23   29.03  165.38
  -6 -11  23    6.15   79.30
   7  11 -23  -79.17  158.66
  -7 -11  23   18.69  180.85
   8  11 -23  252.02  112.36
   8  11 -23    7.56  183.10
  -8 -11  23   26.44  226.26
  -8 -11  23  302.79  119.77
   9  11 -23   56.63   97.27
   9  11 -23   -8.00  175.29
  -9 -11  23    7.17   93.74
  -9 -11  23  -56.29  206.27
  10  11 -23 -135.53  185.85
  10  11 -23   51.67  106.30
 -10 -11  23   76.07  223.95
 -10 -11  23    7.57   93.49
  11  11 -23  -82.00  190.40
 -11 -11  23  -16.55  245.12
  12  10 -23    9.54  196.65
 -12 -10  23    8.63  250.93
  12   9 -23 -154.17   93.54
  12   9 -23    9.39  199.76
 -12  -9  23    7.37   95.22
 -12  -9  23  -85.37  243.48
  12   8 -23 -217.93   87.16
  12   8 -23   18.46  191.15
 -12  -8  23    7.06   91.52
 -12  -8  23  152.62  245.13
 -12  -7  23    7.16  100.64
 -12  -7  23  -59.51  269.65
  12   6 -23 -266.75   93.00
  12   6 -23  -18.32  217.76
 -12  -6  23 -102.69  276.24
  12   5 -23 -114.18   82.70
  12   5 -23  128.19  184.72
 -12  -5  23 -151.55  228.43
 -12  -5  23   28.91  101.04
  12   4 -23   99.19   76.24
  12   4 -23    9.20  189.75
 -12  -4  23  133.85  228.24
 -12  -4  23   36.51   98.26
  12   3 -23   27.48  185.13
  12   3 -23  -15.95   80.49
 -12  -3  23   25.56  225.10
  12   2 -23 -281.71  104.39
 -12  -2  23 -183.40  308.19
  -1  12 -23  474.74  132.15
   1 -12  23  103.97  140.38
   0  12 -23    5.50  129.90
   0 -12  23 -291.62  136.99
   1  12 -23  414.81  135.83
  -1 -12  23  204.53  143.28
  -1 -12  23  -35.71   82.76
   2  12 -23 -135.10  132.54
  -2 -12  23   14.50  141.13
  -2 -12  23  -73.67   82.76
   3  12 -23    6.64   87.93
   3  12 -23   12.30  130.82
  -3 -12  23  130.83  144.91
  -3 -12  23 -139.15   80.72
   4  12 -23    6.40  136.35
   4  12 -23   20.38   90.45
  -4 -12  23   38.77   81.00
  -4 -12  23  -48.03  149.34
   5  12 -23    6.95   90.58
   5  12 -23    6.68  136.11
  -5 -12  23   -5.59  163.66
  -5 -12  23 -166.89   85.03
   6  12 -23 -182.13  155.97
   6  12 -23 -235.42   99.38
  -6 -12  23    6.92   96.03
  -6 -12  23 -117.49  189.36
   7  12 -23    7.46  170.96
  -7 -12  23  -82.55  206.08
   8  12 -23  204.60  176.23
   8  12 -23  113.76   95.47
  -8 -12  23   60.63  201.06
  -8 -12  23 -165.46   96.21
   9  12 -23   66.64  183.34
   9  12 -23    7.87  106.52
  -9 -12  23  116.51  213.97
  -9 -12  23   -7.89   97.43
  13   9 -23 -188.88  203.62
  13   9 -23 -126.51  110.40
 -13  -9  23  -18.38  274.73
 -13  -9  23    7.84   90.89
  13   8 -23  104.64   95.03
 -13  -8  23    7.45   93.77
 -13  -8  23   18.38  263.97
  13   7 -23   77.64  205.43
  13   7 -23  146.79   92.71
 -13  -7  23    7.43   99.50
 -13  -7  23    9.18  256.61
  13   6 -23  -88.52   86.15
  13   6 -23 -191.87  197.04
 -13  -6  23   -8.98  237.44
 -13  -6  23   -7.57  103.72
  13   5 -23 -130.78   90.84
  13   5 -23    9.66  205.79
 -13  -5  23    8.86  249.86
 -13  -5  23   60.91  111.70
  13   4 -23   67.08  222.43
  13   4 -23   11.09   97.08
 -13  -4  23    8.82  263.01
 -13  -4  23  466.50  127.22
  13   3 -23   -9.60  187.37
  13   3 -23  -88.00   84.07
 -13  -3  23   35.93  243.92
  13   2 -23  146.61   92.45
  -5 -13  23 -207.81  185.56
   6  13 -23   44.18  157.97
  -6 -13  23   -6.18  182.01
   7  13 -23   -7.74  170.21
  -7 -13  23   58.61  196.46
  -7 -13  23  -31.62   99.41
   8  13 -23 -132.32  183.11
  -8 -13  23  -75.86  199.87
  14   8 -23   -6.83  100.76
  14   8 -23 -197.28  218.19
 -14  -8  23   19.40  268.70
  14   7 -23   10.22  217.55
  14   7 -23  194.47   95.00
 -14  -7  23    7.77  109.36
 -14  -7  23   67.29  269.82
  14   6 -23  -73.75   85.44
  14   6 -23   10.13  210.07
 -14  -6  23  -18.91  258.06
 -14  -6  23  -23.82  104.20
  14   5 -23 -167.79   84.49
  14   5 -23   20.11  202.83
 -14  -5  23    7.92  105.37
 -14  -5  23   -9.27  254.10
  14   4 -23 -703.86  204.77
  14   4 -23  -98.29   89.95
 -14  -4  23   65.00  247.01
 -14  -4  23   -7.95  112.25
  14   3 -23   19.95  186.30
  14   3 -23   96.27   87.64
 -14  -3  23 -355.69  111.05
 -14  -3  23    9.42  241.68
  14   2 -23   -5.79   85.73
  15   7 -23   10.60  221.40
 -15  -7  23 -592.13  294.89
  15   6 -23 -117.13  103.22
  15   6 -23  -31.66  213.43
 -15  -6  23  -39.27  280.07
 -15  -6  23    8.16  107.53
  15   5 -23   31.03   92.65
  15   5 -23  -10.38  213.44
 -15  -5  23  115.74  269.37
 -15  -5  23    8.18  106.87
  15   4 -23   10.22  201.06
 -15  -4  23  -33.03  107.94
 -15  -4  23  -29.06  254.09
 -15  -3  23   83.15  113.90
   0   1 -24   -4.16   59.86
  -1   1 -24  361.56  109.75
  -1   2 -24   11.35   57.52
   1  -2  24  180.52  133.09
   0   2 -24  115.81   58.01
   0  -2  24  -10.77  134.51
  -2   1 -24   23.72   58.60
   1   2 -24   -6.63  127.49
  -1  -2  24   -5.49  132.38
  -2   2 -24  -36.94   56.50
  -2   3 -24 -131.19  128.18
   2  -3  24   53.57  134.67
  -3  -2  24  810.40  146.93
  -1   3 -24   29.40   55.42
  -1   3 -24   42.22  124.05
   1  -3  24  -19.76  125.75
   0   3 -24   79.93  124.20
   0  -3  24  -25.20  135.93
  -3   1 -24  -23.03   61.62
   2   3 -24   -3.89   60.77
  -3   2 -24   89.17   57.35
   3   3 -24    3.98   63.72
  -3   3 -24  367.02  127.48
  -3   3 -24  225.85   67.82
   3   3 -24  357.32  147.00
   3  -3  24  144.09  131.34
  -3  -3  24 -154.84  149.99
   4   3 -24   13.66  143.06
   4   3 -24  -20.45   69.73
  -3   4 -24  604.52  141.68
  -3   4 -24  190.94   66.22
  -4  -3  24  218.84  154.86
   4   2 -24 -229.11   66.64
  -2   4 -24 -101.35  123.09
   4   2 -24   -7.03  134.89
  -2   4 -24  -91.90   58.17
   2  -4  24 -251.35  130.60
  -4  -2  24  348.10  158.39
  -1   4 -24    5.76  120.89
  -1   4 -24  156.79   56.85
   1  -4  24 -264.48  132.46
   0   4 -24  -17.60  118.94
   0  -4  24   -4.88  135.24
   2   4 -24 1049.14  238.38
  -2  -4  24 1432.78  248.92
   3   4 -24  236.93  135.28
   3   4 -24    4.00   65.08
  -3  -4  24   76.58  157.51
   4   4 -24    6.63  127.90
   4   4 -24    4.10   60.46
  -4  -4  24  -79.98  159.70
   5   4 -24   13.81  150.19
   5   4 -24   37.95   60.06
  -5  -4  24  -11.96  165.63
   5   3 -24    7.08  139.49
   5   3 -24  -84.35   57.63
  -5  -3  24   78.30  152.37
  -2   5 -24 -122.52  117.46
   5   2 -24    7.25  145.24
  -2   5 -24   21.00   57.65
   5   2 -24   83.07   67.82
   2  -5  24 -390.82  138.34
   2  -5  24   33.72   55.41
  -5  -2  24  106.34  162.60
  -1   5 -24 1551.05  255.03
   1  -5  24  845.22  259.66
   1   5 -24  173.24   93.74
  -1  -5  24  168.51   89.67
   2   5 -24 -187.39  133.55
   2   5 -24   23.24   57.46
  -2  -5  24 -262.16  148.67
   3   5 -24   -6.25  132.21
   3   5 -24    7.92   62.37
  -3  -5  24    5.47  149.42
   4   5 -24    6.49  139.14
   4   5 -24   72.99   65.83
  -4  -5  24   51.47  155.96
   5   5 -24  -75.07   68.83
   5   5 -24    6.76  143.33
  -5  -5  24   59.92  169.47
  -5  -5  24   -5.14   71.34
   6   5 -24   -7.06  141.26
   6   5 -24  -76.97   59.59
  -6  -5  24   -5.41   74.29
  -6  -5  24   62.96  169.91
   6   4 -24   -7.20  139.69
  -6  -4  24    6.29  166.24
   6   3 -24 -103.01  151.06
  -6  -3  24  101.27  167.28
  -2   6 -24   41.68  117.90
   6   2 -24  112.80  148.35
  -6  -2  24   39.31  166.19
   2  -6  24  198.15  133.90
   0   6 -24   84.75   54.96
   0  -6  24  -45.84   61.49
   1   6 -24 -126.60   59.62
   1   6 -24  -52.29  128.34
  -1  -6  24  195.03  140.99
  -1  -6  24  -21.75   60.82
   2   6 -24  220.78  129.37
   2   6 -24   95.61   63.28
  -2  -6  24 -259.13  145.53
  -2  -6  24   22.66   62.91
   3   6 -24 -179.22   68.11
   3   6 -24  191.58  129.50
  -3  -6  24  116.53  155.86
  -3  -6  24   -4.72   65.60
   4   6 -24   75.09   62.74
   4   6 -24    6.46  129.86
  -4  -6  24  -59.15   68.25
  -4  -6  24   22.16  160.27
   5   6 -24  -30.02   67.42
   5   6 -24   60.57  144.08
  -5  -6  24    5.16   67.38
  -5  -6  24  -41.58  164.79
   6   6 -24  163.76   74.46
   6   6 -24    7.03  150.61
  -6  -6  24   56.25  181.60
  -6  -6  24   97.56   76.56
   7   6 -24    7.38  153.08
  -7  -6  24 -112.05  182.63
   7   5 -24    7.45  155.34
   7   5 -24  -48.78   71.36
  -7  -5  24   -5.71   82.05
  -7  -5  24 -106.18  182.91
   7   4 -24   44.87   69.20
   7   4 -24 -150.74  147.68
  -7  -4  24   13.26  174.82
   7   3 -24   -7.68  149.60
   7   3 -24  -45.33   66.33
  -7  -3  24   -6.66  171.84
   7   2 -24   47.02  154.61
   7   2 -24   41.84   65.71
  -7  -2  24  117.18  167.76
  -1   7 -24  -19.64   58.39
   1  -7  24  115.51   55.69
   0   7 -24  116.14   54.11
   0   7 -24 -197.04  121.00
   0  -7  24   21.08   54.48
   0  -7  24  -66.21  136.93
   1   7 -24    4.13   61.07
   1   7 -24   23.29  127.69
  -1  -7  24   24.60  141.51
  -1  -7  24   52.78   60.96
   2   7 -24    6.02  124.51
   2   7 -24   33.45   62.01
  -2  -7  24  -77.81   62.37
  -2  -7  24   97.22  147.59
   3   7 -24   24.92  127.13
   3   7 -24    4.28   59.46
  -3  -7  24   23.84   62.79
  -3  -7  24  -10.65  154.77
   4   7 -24   -6.46  136.80
   4   7 -24   -8.78   67.90
  -4  -7  24  127.87  162.20
  -4  -7  24 -249.83   67.12
   5   7 -24    6.72  140.07
   5   7 -24 -139.87   66.64
  -5  -7  24  -17.44  165.99
  -5  -7  24   41.79   75.51
   6   7 -24  -63.34  150.96
   6   7 -24  -74.42   74.11
  -6  -7  24   16.44   74.33
  -6  -7  24 -140.19  174.42
   7   7 -24  427.67  196.00
  -7  -7  24  365.91  235.79
   8   7 -24    7.75  158.78
   8   7 -24 -105.08   72.05
  -8  -7  24   62.23  188.16
  -8  -7  24   -6.05   78.33
   8   6 -24  -29.11   74.78
   8   6 -24  195.69  171.27
  -8  -6  24  111.86  201.47
  -8  -6  24  -66.43   81.73
   8   5 -24    4.62   65.21
   8   5 -24    7.83  157.64
  -8  -5  24   12.09   83.22
  -8  -5  24  -35.31  196.24
   8   4 -24    7.92  157.56
   8   4 -24  126.19   78.02
  -8  -4  24   -7.01  188.18
   8   3 -24    8.03  158.21
   8   3 -24  127.72   72.29
  -8  -3  24   21.16  183.95
   8   2 -24   32.75  154.16
  -2   8 -24   95.11   63.82
   8   2 -24    4.81   66.61
  -8  -2  24   -7.28  186.12
  -1   8 -24   29.25   58.60
  -1   8 -24   27.44  119.01
   1  -8  24 -292.13  134.23
   1  -8  24   27.66   51.08
   0   8 -24   84.66   63.96
   0   8 -24  -73.73  123.15
   0  -8  24   16.78   61.02
   0  -8  24  256.49  144.27
   1   8 -24  210.73  126.63
   1   8 -24   21.95   65.19
  -1  -8  24  281.07  144.10
  -1  -8  24   52.78   59.49
   2   8 -24  -17.78   68.35
   2   8 -24  199.24  143.92
  -2  -8  24  -82.54   63.11
  -2  -8  24    5.12  147.15
   3   8 -24   18.71  131.60
   3   8 -24 -319.06   69.92
  -3  -8  24    4.84   66.09
  -3  -8  24    5.31  156.51
   4   8 -24    6.47  134.65
   4   8 -24    4.68   66.52
  -4  -8  24    5.05   65.79
  -4  -8  24 -168.10  163.66
   5   8 -24   24.02   66.49
   5   8 -24 -121.18  150.05
  -5  -8  24 -173.97   71.14
  -5  -8  24  -52.62  164.61
   6   8 -24  173.32   79.96
   6   8 -24    7.03  147.16
  -6  -8  24  385.86  192.19
  -6  -8  24   -5.52   77.46
   7   8 -24    7.44  149.32
  -7  -8  24   38.77  179.12
   8   8 -24  109.50  170.12
   8   8 -24   63.77   81.74
  -8  -8  24   -6.10   86.00
  -8  -8  24  -34.70  195.23
   9   8 -24    8.24  174.38
   9   8 -24 -143.90   83.23
  -9  -8  24    6.36   81.66
  -9  -8  24  -36.72  199.79
   9   7 -24    8.24  175.26
   9   7 -24   -5.30   75.16
  -9  -7  24   -6.42   87.53
  -9  -7  24  -58.74  201.26
   9   6 -24   55.70   78.64
   9   6 -24  115.30  175.35
  -9  -6  24   -7.58  203.35
  -9  -6  24   51.23   89.66
   9   5 -24 -526.72  176.93
   9   5 -24  -62.79   73.76
  -9  -5  24  121.61   85.92
  -9  -5  24  -97.06  204.15
   9   4 -24  109.01  163.43
   9   4 -24   19.36   70.85
  -9  -4  24   29.68  205.40
   9   3 -24  -44.58   72.93
   9   3 -24    8.42  167.37
  -9  -3  24   -7.49  191.91
  -2   9 -24   40.07   60.19
   9   2 -24   35.13   73.52
   9   2 -24    8.58  164.77
  -2   9 -24  115.65  116.99
  -9  -2  24  -23.15  189.55
   2  -9  24  253.24  134.72
   2  -9  24   20.06   54.03
  -1   9 -24  -70.01   65.55
  -1   9 -24  201.70  124.60
   1  -9  24    4.61  135.59
   1  -9  24    4.23   55.65
   0   9 -24   65.63   72.72
   0   9 -24 -134.93  123.06
   0  -9  24  -43.98   60.12
   0  -9  24   81.42  141.16
   1   9 -24   19.38   69.09
   1   9 -24  196.86  124.58
  -1  -9  24 -208.25  143.14
  -1  -9  24  -45.81   61.73
   2   9 -24    4.82   74.13
   2   9 -24  262.30  135.24
  -2  -9  24   47.07   60.97
  -2  -9  24 -148.79  151.34
   3   9 -24    4.94   67.70
   3   9 -24    6.15  128.13
  -3  -9  24   -4.89   66.66
  -3  -9  24 -207.79  152.43
   4   9 -24    6.46  139.33
   4   9 -24   70.90   82.28
  -4  -9  24   11.11  163.97
  -4  -9  24  152.59   74.35
   5   9 -24   52.01   79.56
   5   9 -24   -6.72  146.35
  -5  -9  24    5.30   71.08
  -5  -9  24 -171.26  173.60
   6   9 -24  203.54  151.46
   6   9 -24 -139.23   76.70
  -6  -9  24  111.61  169.29
  -6  -9  24   -5.54   73.21
   7   9 -24  279.47  161.09
  -7  -9  24  -65.30  192.78
   8   9 -24    7.84  166.83
   8   9 -24   -5.74   77.43
  -8  -9  24  167.68  203.85
  -8  -9  24    6.11   78.42
   9   9 -24    8.30  178.31
   9   9 -24  101.59   90.80
  -9  -9  24   36.91  213.32
  -9  -9  24   -6.45   86.89
  10   9 -24 -168.50   94.72
  10   9 -24 -115.21  188.03
 -10  -9  24  -16.00  232.03
 -10  -9  24 -170.78   95.08
  10   8 -24    5.88   92.43
  10   8 -24 -568.86  212.66
 -10  -8  24 -499.72  273.88
  10   7 -24 -130.68  181.95
  10   7 -24    5.53   74.90
 -10  -7  24    6.81   91.66
 -10  -7  24   -7.98  229.25
  10   6 -24  -34.76  181.37
  10   6 -24  -42.38   83.72
 -10  -6  24   -8.02  212.56
 -10  -6  24   -6.76   92.66
  10   5 -24  262.83  185.83
  10   5 -24    5.14   78.07
 -10  -5  24    6.77   97.11
 -10  -5  24  -47.34  215.69
  10   4 -24   70.95   77.78
  10   4 -24   -8.83  171.18
 -10  -4  24 -133.72  201.27
  10   3 -24   26.45  170.12
  10   3 -24    5.18   73.35
 -10  -3  24   -7.97  203.37
  10   2 -24   41.83   78.70
  10   2 -24   -9.00  178.62
  -2  10 -24   20.13   73.66
  -2  10 -24   80.55  120.85
 -10  -2  24  -98.19  201.86
  -1  10 -24  -56.82   73.74
  -1  10 -24    5.55  124.29
   1 -10  24  334.53  140.82
   1 -10  24    4.66   55.77
   0  10 -24    5.72  127.85
   0  10 -24 -155.24   76.47
   0 -10  24  533.99  146.60
   0 -10  24   23.93   62.70
   1  10 -24   -5.88  126.84
   1  10 -24  -80.04   73.37
  -1 -10  24  -89.34   66.80
  -1 -10  24  407.68  148.05
   2  10 -24   -5.47   74.76
   2  10 -24 -175.51  131.26
  -2 -10  24  -81.47   68.65
  -2 -10  24 -298.66  155.51
   3  10 -24  143.63  134.74
   3  10 -24   39.19   82.23
  -3 -10  24    5.28   63.47
  -3 -10  24 -197.57  153.60
   4  10 -24  -77.86  139.79
   4  10 -24 -108.80   77.88
  -4 -10  24  172.27  161.39
  -4 -10  24   -5.47   73.35
   5  10 -24   28.36   81.64
   5  10 -24 -134.83  144.37
  -5 -10  24   76.77  178.23
  -5 -10  24   28.46   78.45
   6  10 -24   -7.03  149.03
   6  10 -24    5.83   84.73
  -6 -10  24    5.93   77.28
  -6 -10  24  -24.80  177.42
   7  10 -24    7.38  158.17
  -7 -10  24    6.56  193.70
   8  10 -24  -81.11   91.36
   8  10 -24    7.88  177.02
  -8 -10  24 -127.05  223.90
   9  10 -24  -58.31  181.81
   9  10 -24  -51.95   84.80
  -9 -10  24    6.88   90.10
  -9 -10  24   -7.49  213.38
  10  10 -24   -8.94  194.68
  10  10 -24    7.02  104.51
 -10 -10  24    7.28   97.40
 -10 -10  24 -113.00  231.50
  11  10 -24  -38.03  201.75
 -11 -10  24   -7.71   83.89
 -11 -10  24   17.12  247.80
  11   9 -24 -168.97  184.64
  11   9 -24  -19.62   91.68
 -11  -9  24    8.49  241.24
 -11  -9  24    7.32   94.00
  11   8 -24   42.99   89.92
  11   8 -24  148.38  185.94
 -11  -8  24    7.11   93.72
 -11  -8  24 -152.06  238.20
  11   7 -24  654.61  150.45
 -11  -7  24  409.89  159.61
  11   6 -24  -27.70  192.83
  11   6 -24 -241.52   80.50
 -11  -6  24   25.65  239.91
 -11  -6  24   -7.17   98.34
  11   5 -24 -443.71  185.23
  11   5 -24   -5.39   84.17
 -11  -5  24    7.17   97.82
 -11  -5  24   -8.41  231.63
  11   4 -24   74.38  191.85
  11   4 -24   37.12   84.21
 -11  -4  24   58.14  100.98
 -11  -4  24   16.71  225.32
  11   3 -24 -305.46  179.30
  11   3 -24 -177.46   87.28
 -11  -3  24  -33.96  211.89
  11   2 -24   38.26   87.07
 -11  -2  24  173.49  234.71
  -1  11 -24  163.96  131.84
  -1  11 -24  154.69   78.35
   1 -11  24 -116.50  142.14
   1 -11  24  -20.75   64.12
   0  11 -24 -255.89   81.21
   0  11 -24  197.92  127.82
   0 -11  24   21.49   67.15
   0 -11  24  187.99  143.47
   1  11 -24    6.05   83.68
   1  11 -24   -6.00  129.93
  -1 -11  24  -99.68  146.56
  -1 -11  24  191.74   71.08
   2  11 -24    6.22   89.93
   2  11 -24    6.18  135.26
  -2 -11  24   -5.17  148.10
  -2 -11  24   22.60   74.50
   3  11 -24   68.55   85.55
   3  11 -24  -57.46  140.01
  -3 -11  24  107.24  155.96
  -3 -11  24  -46.65   75.13
   4  11 -24   -6.37   83.67
   4  11 -24   -6.65  141.15
  -4 -11  24 -212.63  159.34
  -4 -11  24  142.84   80.09
   5  11 -24 -117.35   97.19
   5  11 -24   55.27  145.61
  -5 -11  24  -12.33   77.42
  -5 -11  24   -5.94  163.46
   6  11 -24   79.27  153.26
   6  11 -24 -127.16   89.22
  -6 -11  24  -43.83  180.87
  -6 -11  24  141.07   82.50
   7  11 -24  143.44  182.06
  -7 -11  24   -6.70  113.81
  -7 -11  24  178.19  235.10
   8  11 -24 -192.81  104.60
   8  11 -24  135.62  170.91
  -8 -11  24   28.42  208.10
  -8 -11  24   -7.02   94.58
   9  11 -24  -96.54  103.77
   9  11 -24   50.55  188.80
  -9 -11  24   73.97   94.14
  -9 -11  24 -121.01  218.26
  10  11 -24    9.06  194.62
 -10 -11  24  -65.57  238.39
  12   9 -24 -162.84  100.07
  12   9 -24   29.90  207.90
 -12  -9  24 -119.19  262.00
 -12  -9  24    7.76  101.03
  12   8 -24   78.93  220.10
  12   8 -24    6.42   92.32
 -12  -8  24    7.52  101.35
 -12  -8  24   91.81  257.65
  12   7 -24   43.38   95.59
  12   7 -24    9.80  202.73
 -12  -7  24 -151.80  103.56
 -12  -7  24   27.62  256.09
  12   6 -24   -9.71  193.67
  12   6 -24 -117.65   87.23
 -12  -6  24  -99.25  262.20
 -12  -6  24    7.60   97.01
  12   5 -24   29.36  227.05
 -12  -5  24  213.57  276.32
 -12  -5  24  404.17  128.10
  12   4 -24  -77.83  189.98
  12   4 -24   33.09   77.75
 -12  -4  24   -8.84  238.60
 -12  -4  24   -7.69  109.01
  12   3 -24  129.15   81.52
  12   3 -24    9.73  184.31
 -12  -3  24   -8.98  240.41
  12   2 -24    5.72   87.25
 -12  -2  24   -9.17  238.58
  -1  12 -24    5.68  127.90
   1 -12  24  167.47  141.15
   0  12 -24  181.69  128.92
   0 -12  24  250.56  148.17
   0 -12  24   -5.93   76.94
   1  12 -24   18.15  132.00
  -1 -12  24  -92.16   78.58
  -1 -12  24  109.85  150.34
   2  12 -24 -225.11  136.01
   2  12 -24   88.20   95.99
  -2 -12  24   77.68  149.22
  -2 -12  24   31.75   79.86
   3  12 -24   84.26  127.92
   3  12 -24  -27.82  100.85
  -3 -12  24   -6.49   81.41
  -3 -12  24  140.13  151.74
   4  12 -24    7.11   89.76
   4  12 -24    6.82  147.58
  -4 -12  24  -56.32  162.89
  -4 -12  24  -93.58   85.77
   5  12 -24  189.20  107.21
   5  12 -24   -7.13  159.85
  -5 -12  24    6.92   98.36
  -5 -12  24  -18.12  183.10
   6  12 -24   -7.46  160.79
   6  12 -24    7.38   93.34
  -6 -12  24 -301.00   98.45
  -6 -12  24    6.35  192.48
   7  12 -24  -68.37  104.44
   7  12 -24    7.86  171.40
  -7 -12  24   -7.47   92.55
  -7 -12  24   26.85  201.26
   8  12 -24  -82.64  184.35
   8  12 -24   62.80   98.54
  -8 -12  24  -15.64   97.41
  -8 -12  24    7.23  210.38
  13   8 -24  -10.41  215.21
  13   8 -24   27.70  100.53
 -13  -8  24   77.97  276.08
  13   7 -24  129.62  100.88
  13   7 -24   10.37  215.92
 -13  -7  24  -77.50  269.20
 -13  -7  24    7.97  101.32
  13   6 -24   10.30  204.95
  13   6 -24  106.25  100.75
 -13  -6  24  -38.18  262.54
 -13  -6  24   -7.99  108.98
  13   5 -24  -20.51  222.62
  13   5 -24  -48.14   90.33
 -13  -5  24 -149.74  257.95
 -13  -5  24 -136.79  112.92
  13   4 -24 -131.79  200.24
  13   4 -24  -57.80   93.26
 -13  -4  24 -112.21  250.13
 -13  -4  24    8.07  110.01
  13   3 -24 -325.47  107.81
 -13  -3  24   -9.48  251.90
  13   2 -24   89.34  120.25
   1  13 -24  297.03  191.81
  -1 -13  24  753.10  218.23
   2  13 -24  320.64  236.37
  -2 -13  24 1604.56  261.01
   3  13 -24 -377.32  156.12
   4  13 -24 -245.85  150.71
  -4 -13  24   35.21  163.49
   5  13 -24   -7.34  158.82
  -5 -13  24   15.23  100.52
  -5 -13  24   18.46  175.35
   6  13 -24    7.70  151.02
  -6 -13  24   -7.90   99.26
  -6 -13  24   64.75  190.77
   7  13 -24    8.22  175.76
  -7 -13  24    7.00  202.77
  14   7 -24   10.83  215.17
 -14  -7  24   30.68  282.14
  14   6 -24  -19.54   96.09
  14   6 -24   64.56  218.78
 -14  -6  24   -8.41  114.56
 -14  -6  24  120.01  269.97
  14   5 -24  -10.68  208.79
  14   5 -24   50.21  100.77
 -14  -5  24   58.64  112.59
 -14  -5  24    9.83  262.90
  14   4 -24  -10.50  211.00
  14   4 -24  -67.28   93.89
 -14  -4  24  -50.48  111.68
 -14  -4  24   -9.86  264.27
  14   3 -24    6.03   91.41
 -14  -3  24  -69.52  262.35
 -14  -3  24 -204.65  119.09
  14   2 -24   67.27  101.29
  15   6 -24  -11.22  231.33
 -15  -6  24  -20.75  290.97
  15   5 -24  -65.82   99.89
  15   5 -24   87.95  221.62
 -15  -5  24  -61.40  282.02
 -15  -5  24   -8.71  119.23
  15   4 -24  -10.87  215.50
  15   4 -24  -90.25   98.08
 -15  -4  24    8.74  123.34
 -15  -4  24  -40.97  273.01
  15   3 -24  -86.77   88.77
 -15  -3  24   -8.80  118.71
 -15  -3  24   10.31  261.88
  -2   1 -25   62.62   70.35
   1   2 -25   29.23   60.95
   2   2 -25    7.18  146.55
   2   2 -25 -136.64   67.27
  -2   2 -25  -27.44   63.39
  -2  -2  25  221.39  144.88
   3   2 -25   -4.37   67.66
  -2   3 -25   64.98   56.94
   3   2 -25  322.03  151.08
  -2   3 -25 -428.36  145.45
  -3  -2  25   -6.16  158.45
   2  -3  25 -291.48  145.10
  -1   3 -25  865.84  224.92
   1  -3  25  911.51  226.82
   1   3 -25   68.87   88.58
   2   3 -25  -78.44   64.13
  -3   2 -25  -68.22   65.94
   2   3 -25 -267.31  147.43
  -2  -3  25  159.60  150.04
   3   3 -25    4.22   60.68
   3   3 -25 -176.07  141.35
  -3   3 -25   44.52   55.20
  -3  -3  25  112.08  155.92
   4   3 -25  -13.01   62.43
   4   3 -25   21.79  145.70
  -4  -3  25  -12.26  162.86
   4   2 -25    7.50  145.95
   4   2 -25   31.45   68.77
  -2   4 -25  -48.24  132.82
  -4  -2  25 -102.05  160.81
   2  -4  25    4.89  133.98
   0   4 -25   55.77   60.94
   1   4 -25  102.07   61.87
   1   4 -25    6.51  135.49
  -1  -4  25  134.81  155.53
   2   4 -25  133.98  137.86
   2   4 -25   12.47   63.61
  -2  -4  25   22.38  152.78
   3   4 -25    4.24   59.47
   3   4 -25  260.95  140.69
  -3  -4  25 -174.63  151.04
   4   4 -25  -78.08  143.22
   4   4 -25    8.69   65.84
  -4  -4  25  -91.09  161.34
   5   4 -25    7.38  140.26
   5   4 -25   -4.47   61.18
  -5  -4  25    6.36  163.72
   5   3 -25 -330.69  153.97
   5   3 -25    4.46   63.05
  -5  -3  25  -64.03  166.82
   5   2 -25   -7.73  158.42
   5   2 -25  -50.56   70.39
  -5  -2  25   13.28  157.06
  -1   5 -25   -3.84   57.60
   0  -5  25 1234.51  260.71
   1   5 -25   56.61   58.35
   1   5 -25 -100.93  126.43
  -1  -5  25   77.49   63.29
  -1  -5  25   43.17  151.64
   2   5 -25 -397.73  138.55
   2   5 -25    4.12   65.60
  -2  -5  25   11.24  158.58
   3   5 -25   29.46   60.05
   3   5 -25 -148.33  145.35
  -3  -5  25   -5.86  160.29
   4   5 -25   -4.31   61.87
   4   5 -25  -20.97  142.35
  -4  -5  25 -281.31  166.71
   5   5 -25 -141.54   64.87
   5   5 -25    7.27  141.78
  -5  -5  25   51.22  181.75
   6   5 -25  -15.16  154.82
   6   5 -25  214.37   75.21
  -6  -5  25    5.69   81.46
  -6  -5  25   -6.72  186.07
   6   4 -25  146.90  162.19
   6   4 -25   -4.58   72.56
  -6  -4  25  -93.39  175.82
   6   3 -25  -15.61  161.64
   6   3 -25 -221.45   68.30
  -6  -3  25   20.16  174.95
   6   2 -25  136.01  157.61
  -6  -2  25   -6.94  166.53
   0   6 -25   82.38   64.52
   0   6 -25  228.70  132.17
   0  -6  25    5.13  144.47
   0  -6  25  -66.05   60.92
   1   6 -25   50.67   78.35
   1   6 -25  180.48  148.48
  -1  -6  25   59.72   69.41
  -1  -6  25  170.82  156.40
   2   6 -25   45.10  135.16
   2   6 -25    4.24   60.19
  -2  -6  25   14.35   64.12
  -2  -6  25 -161.03  153.93
   3   6 -25  473.43  149.63
   3   6 -25  -60.60   75.51
  -3  -6  25  156.23  167.33
   4   6 -25  177.18   72.61
   4   6 -25   27.64  148.46
  -4  -6  25    6.05  172.22
  -4  -6  25    5.17   71.32
   5   6 -25   45.47   73.51
   5   6 -25    7.20  148.46
  -5  -6  25   -5.41   72.64
  -5  -6  25   -6.33  170.03
   6   6 -25  -84.40   67.58
   6   6 -25 -136.26  163.33
  -6  -6  25  -53.28  182.59
  -6  -6  25    5.70   77.97
   7   6 -25 -301.21  175.37
  -7  -6  25   -7.18  198.03
   7   5 -25  -95.16  158.87
  -7  -5  25  -21.21  195.08
   7   4 -25  -72.80  163.53
  -7  -4  25   21.06  179.82
   7   3 -25    8.13  158.75
   7   3 -25    4.80   70.08
  -7  -3  25  -35.43  180.11
  -2   7 -25    3.98   66.00
   7   2 -25   14.76   74.15
   7   2 -25  116.48  161.13
   2  -7  25  -31.64   59.79
  -7  -2  25   58.35  185.76
  -1   7 -25   90.50   63.99
  -1   7 -25   40.70  126.22
   1  -7  25  196.36  142.29
   1  -7  25  -59.31   57.96
   0   7 -25  188.36   64.12
   0   7 -25    6.03  129.83
   0  -7  25   92.04  152.20
   0  -7  25   17.79   62.57
   1   7 -25   -6.24  136.02
   1   7 -25 -101.51   63.93
  -1  -7  25 -234.24  157.88
  -1  -7  25   88.11   61.92
   2   7 -25   35.64   70.21
   2   7 -25 -283.99  142.82
  -2  -7  25  132.94  164.03
  -2  -7  25    4.83   65.43
   3   7 -25  300.28  146.86
   3   7 -25    9.12   68.31
  -3  -7  25    5.05   66.92
  -3  -7  25 -213.18  161.94
   4   7 -25    6.91  145.84
   4   7 -25  -37.34   72.75
  -4  -7  25   48.05  167.68
  -4  -7  25    5.26   67.31
   5   7 -25    7.19  155.16
   5   7 -25  -52.70   75.61
  -5  -7  25   31.46  177.01
  -5  -7  25 -131.94   74.49
   6   7 -25 -277.81  164.38
   6   7 -25   54.27   75.51
  -6  -7  25   79.23  195.75
  -6  -7  25   -5.76   77.09
   7   7 -25    7.92  160.70
  -7  -7  25   20.89  185.74
   8   7 -25   33.28  181.16
   8   7 -25   -5.30   85.52
  -8  -7  25    7.53  210.21
  -8  -7  25  -19.12   90.30
   8   6 -25  -97.52   78.86
   8   6 -25    8.33  174.75
  -8  -6  25    6.35   88.21
  -8  -6  25  -83.34  207.12
   8   5 -25   -8.40  171.18
   8   5 -25   24.42   80.35
  -8  -5  25  -14.90  192.16
  -8  -5  25   95.35   87.91
   8   4 -25    8.48  168.10
   8   4 -25   34.59   75.79
  -8  -4  25   22.23  203.61
   8   3 -25  -30.01   76.02
   8   3 -25  246.27  171.07
  -8  -3  25  -29.97  188.09
   8   2 -25   -5.09   74.28
  -2   8 -25  -33.66   59.10
   8   2 -25 -356.06  165.72
  -2   8 -25 -329.34  130.19
  -8  -2  25    7.69  183.24
   2  -8  25   58.76   54.59
  -1   8 -25  212.54  133.28
  -1   8 -25  116.48   69.72
   1  -8  25   33.27   61.79
   1  -8  25  176.37  146.47
   0   8 -25    6.08  127.14
   0   8 -25  -90.35   66.79
   0  -8  25   61.96   58.07
   0  -8  25   20.39  145.51
   1   8 -25   32.21   66.58
   1   8 -25  181.91  144.66
  -1  -8  25   27.82   65.27
  -1  -8  25  492.70  156.54
   2   8 -25   28.38   69.66
   2   8 -25   38.82  135.00
  -2  -8  25   19.61   68.97
  -2  -8  25  -87.97  162.32
   3   8 -25   43.64   68.52
   3   8 -25   40.14  141.55
  -3  -8  25    5.71  163.08
  -3  -8  25 -122.80   74.50
   4   8 -25   -6.96  151.63
   4   8 -25   29.82   79.03
  -4  -8  25  273.49  173.72
  -4  -8  25   74.73   76.91
   5   8 -25   -7.24  158.29
   5   8 -25  117.36   77.24
  -5  -8  25   27.84   80.57
  -5  -8  25  -25.33  189.39
   6   8 -25   15.12  151.53
   6   8 -25   36.77   78.86
  -6  -8  25   -5.83   80.76
  -6  -8  25  -19.87  180.75
   7   8 -25    7.90  160.88
  -7  -8  25  -20.90  193.45
   8   8 -25  166.83  175.73
   8   8 -25  -16.88   84.72
  -8  -8  25    7.34  212.53
  -8  -8  25    6.43   87.93
   9   8 -25  -87.93  187.79
   9   8 -25   99.57   91.00
  -9  -8  25 -198.12  232.47
  -9  -8  25   -6.78   87.27
   9   7 -25  -70.21  178.34
   9   7 -25   50.43   86.25
  -9  -7  25    6.75   93.29
  -9  -7  25   55.89  214.34
   9   6 -25    8.76  180.73
   9   6 -25 -123.19   71.72
  -9  -6  25    6.73   95.91
  -9  -6  25   24.00  221.09
   9   5 -25   10.21   84.17
   9   5 -25   -8.86  188.51
  -9  -5  25   -6.74   91.54
  -9  -5  25 -150.70  218.32
   9   4 -25  159.94   80.60
   9   4 -25    8.90  175.41
  -9  -4  25   94.16  207.77
   9   3 -25 -231.26  180.89
   9   3 -25  -68.06   84.68
  -9  -3  25  -87.56  205.80
   9   2 -25   37.14   84.38
  -2   9 -25  145.26   69.05
  -9  -2  25   48.81  205.16
  -1   9 -25  217.66  135.96
  -1   9 -25  -90.54   77.11
   1  -9  25  540.38  163.30
   1  -9  25   -4.39   68.17
   0   9 -25  735.22  161.37
   0   9 -25  327.81  106.83
   0  -9  25  115.18   90.90
   0  -9  25  332.46  178.20
   1   9 -25  719.57  201.35
  -1  -9  25  904.43  215.55
   2   9 -25 -174.12  138.01
   2   9 -25    5.11   72.58
  -2  -9  25 -118.69   67.36
  -2  -9  25 -189.51  160.15
   3   9 -25 -312.62  147.47
   3   9 -25 -204.31   80.46
  -3  -9  25  132.95  159.80
  -3  -9  25    5.14   71.96
   4   9 -25  171.98  152.73
   4   9 -25  123.49   83.43
  -4  -9  25  204.59  174.41
  -4  -9  25  -10.69   78.31
   5   9 -25    7.24  152.07
   5   9 -25   -5.34   77.60
  -5  -9  25  128.15   80.10
  -5  -9  25  -75.37  181.27
   6   9 -25    5.49   78.15
   6   9 -25   22.67  165.40
  -6  -9  25   19.99  198.27
  -6  -9  25    5.82   78.00
   7   9 -25  -23.80  166.45
  -7  -9  25    6.99  205.05
   8   9 -25    8.41  182.64
   8   9 -25 -115.33   81.36
  -8  -9  25   -6.43   86.27
  -8  -9  25  -22.15  212.70
   9   9 -25  -56.85  100.13
  -9  -9  25   -6.79   94.45
  -9  -9  25 -199.09  257.54
  10   9 -25   39.56   97.78
  10   9 -25    9.39  194.25
 -10  -9  25   -8.44  234.94
 -10  -9  25    7.19   96.49
  10   8 -25  -18.35   93.75
  10   8 -25    9.30  202.93
 -10  -8  25 -198.59   97.51
 -10  -8  25   -8.42  245.65
  10   7 -25 -251.81  106.32
 -10  -7  25 -127.23  277.92
  10   6 -25   -9.30  189.14
  10   6 -25    5.60   79.86
 -10  -6  25    7.15   95.13
 -10  -6  25  -25.59  237.36
  10   5 -25   16.29   81.82
  10   5 -25 -111.86  190.47
 -10  -5  25    7.13   95.22
 -10  -5  25   41.99  222.65
  10   4 -25   10.71   82.03
  10   4 -25    9.37  178.41
 -10  -4  25    8.33  211.86
  10   3 -25   16.42   83.52
  10   3 -25  -46.69  186.64
 -10  -3  25  -92.96  213.30
  10   2 -25   11.05   83.89
 -10  -2  25  -17.23  209.09
  -1  10 -25 -135.63  128.14
  -1  10 -25   -5.41   71.55
   1 -10  25 -120.53  149.08
   1 -10  25  -14.31   60.17
   0  10 -25   66.88  134.26
   0  10 -25  -44.96   80.40
   0 -10  25   -5.20  147.48
   0 -10  25   -4.98   64.49
   1  10 -25    5.62   76.01
   1  10 -25    6.26  131.59
  -1 -10  25 -252.76  162.44
  -1 -10  25 -123.00   68.13
   2  10 -25    6.44  142.88
   2  10 -25   11.54   79.43
  -2 -10  25  150.33  164.61
  -2 -10  25   -5.32   70.64
   3  10 -25    6.64  138.83
   3  10 -25    5.70   81.75
  -3 -10  25  127.04  166.26
  -3 -10  25    5.52   72.43
   4  10 -25  -11.68   83.09
   4  10 -25  123.71  151.19
  -4 -10  25    5.73   74.51
  -4 -10  25  174.52  168.29
   5  10 -25 -113.78   86.25
   5  10 -25    7.24  154.33
  -5 -10  25  157.56  183.52
  -5 -10  25    5.92   76.64
   6  10 -25   73.87   87.46
   6  10 -25   22.70  161.08
  -6 -10  25   37.05   80.33
  -6 -10  25  -20.16  187.01
   7  10 -25 -101.63  104.79
   7  10 -25 -491.98  198.18
  -7 -10  25 -213.40   97.80
  -7 -10  25 -240.68  228.81
   8  10 -25    8.46  185.95
   8  10 -25    6.58   92.69
  -8 -10  25  -67.37  219.37
  -8 -10  25    6.80   94.44
   9  10 -25  -47.94   92.04
   9  10 -25  -89.43  197.32
  -9 -10  25   -7.23   92.33
  -9 -10  25   -8.02  236.55
  10  10 -25 -151.96  200.41
 -10 -10  25  255.39  243.11
 -10 -10  25    7.64   90.34
  11   9 -25  239.49  214.17
  11   9 -25   -6.91  100.57
 -11  -9  25   18.24  267.11
  11   8 -25   52.05   96.29
  11   8 -25  366.67  215.34
 -11  -8  25    7.51   95.54
 -11  -8  25  -45.82  265.13
  11   7 -25 -110.29   91.87
  11   7 -25   -9.86  216.64
 -11  -7  25   22.86  102.00
 -11  -7  25  -36.76  251.76
  11   6 -25  332.40  118.04
 -11  -6  25  558.51  293.54
 -11  -6  25  -22.64  131.58
  11   5 -25 -227.25  214.85
  11   5 -25   39.89   79.59
 -11  -5  25 -186.77  236.66
 -11  -5  25   37.75  106.95
  11   4 -25  -67.22   86.93
  11   4 -25   -9.83  194.23
 -11  -4  25  -88.29  229.16
  11   3 -25  -62.48   91.97
  11   3 -25    9.83  198.31
 -11  -3  25   17.90  230.16
  11   2 -25    5.78   88.58
 -11  -2  25    9.12  229.34
  -1  11 -25 -125.79  131.41
  -1  11 -25 -155.54   82.36
   1 -11  25   48.05   70.48
   1 -11  25 -327.34  151.24
   0  11 -25    6.17  134.89
   0  11 -25  258.47   89.36
   0 -11  25   21.90   76.10
   0 -11  25  140.81  154.81
   1  11 -25    6.35   82.16
   1  11 -25 -203.40  139.88
  -1 -11  25   -5.68   75.11
  -1 -11  25  -48.52  162.66
   2  11 -25  -64.06   87.35
   2  11 -25    6.54  136.70
  -2 -11  25  -11.18  160.85
  -2 -11  25    5.87   69.40
   3  11 -25    6.55   96.23
   3  11 -25    6.75  147.94
  -3 -11  25   23.96   75.37
  -3 -11  25  179.71  156.70
   4  11 -25   -6.99  152.83
   4  11 -25  -93.68   95.67
  -4 -11  25  187.50  168.55
  -4 -11  25   -6.20   83.37
   5  11 -25 -164.52   95.98
   5  11 -25  -58.41  158.88
  -5 -11  25   44.25  185.37
  -5 -11  25   -6.43   77.56
   6  11 -25    7.62  181.85
   6  11 -25  119.58  122.01
  -6 -11  25  397.56  247.00
  -6 -11  25  335.00  114.55
   7  11 -25 -135.93  174.88
   7  11 -25   43.51  102.97
  -7 -11  25    6.99   92.78
  -7 -11  25    7.12  204.70
   8  11 -25    8.52  182.26
   8  11 -25   -7.51  108.55
  -8 -11  25  188.79  222.47
   9  11 -25  -27.10  196.20
  -9 -11  25   48.91  236.15
  12   8 -25   27.20   94.73
  12   8 -25 -524.13  217.63
 -12  -8  25   19.49  292.20
 -12  -8  25    7.94  104.75
  12   7 -25   10.47  216.97
  12   7 -25 -231.48   89.37
 -12  -7  25  -48.15  105.98
 -12  -7  25   -9.71  271.94
  12   6 -25   56.00   92.66
  12   6 -25   10.42  216.30
 -12  -6  25   -8.01  103.98
 -12  -6  25   -9.58  260.97
  12   5 -25   10.40  206.81
  12   5 -25 -256.89   87.08
 -12  -5  25    8.03  108.68
 -12  -5  25   -9.39  251.20
  12   4 -25  -75.75   97.54
 -12  -4  25 -262.41  275.45
 -12  -4  25    8.09  115.35
  12   3 -25  -30.93  223.57
  12   3 -25    5.93   92.18
 -12  -3  25  -47.40  249.65
  12   2 -25    6.04   94.45
  -1  12 -25    6.09  130.02
   1 -12  25  277.33  156.21
   0  12 -25 -414.59  152.72
   0 -12  25  -85.64   81.37
   0 -12  25 -125.38  160.30
   1  12 -25   90.71  143.98
  -1 -12  25  -81.29  157.10
  -1 -12  25 -139.95   79.65
   2  12 -25 -241.03  153.35
   2  12 -25 -184.87  109.71
  -2 -12  25 -117.35   85.53
  -2 -12  25 -624.09  183.35
   3  12 -25  415.84  158.04
   3  12 -25  160.41  113.93
  -3 -12  25   13.45   96.33
  -3 -12  25    5.85  177.89
   4  12 -25    7.37   99.96
   4  12 -25 -330.97  169.74
  -4 -12  25 -159.74  100.04
   5  12 -25  -97.81  159.39
   5  12 -25   37.72  102.90
  -5 -12  25   63.89  182.62
  -5 -12  25   28.74   92.35
   6  12 -25  139.32  106.05
   6  12 -25   15.71  174.57
  -6 -12  25   47.86  199.16
  -6 -12  25   44.14   95.03
   7  12 -25    8.24  176.32
   7  12 -25   95.69  115.54
  -7 -12  25 -750.27  224.95
  -7 -12  25    7.67  100.69
  13   7 -25 -659.82  229.08
  13   7 -25   -6.87   92.98
 -13  -7  25   10.31  286.61
  13   6 -25   -6.51   95.30
  13   6 -25 -153.20  228.48
 -13  -6  25  -70.62  275.94
 -13  -6  25   50.59  115.70
  13   5 -25   10.90  216.08
  13   5 -25   12.73   92.78
 -13  -5  25 -288.20  122.03
 -13  -5  25  108.99  272.97
  13   4 -25  -10.71  212.31
  13   4 -25  -18.31   97.32
 -13  -4  25   39.70  260.31
 -13  -4  25   -8.51  108.19
  13   3 -25   53.83  218.61
  13   3 -25   30.68   95.46
 -13  -3  25  -39.97  257.03
  13   2 -25  -18.88   84.39
  -1  13 -25 -128.66  126.96
   1 -13  25  161.44  151.08
   0  13 -25  -31.72  152.03
   0 -13  25 -607.94  172.43
   1  13 -25 -124.77  137.78
  -1 -13  25  272.15  158.57
   2  13 -25    6.81  146.15
  -2 -13  25  -73.69  168.01
   3  13 -25  -35.39  155.13
  -3 -13  25  141.86  170.01
   4  13 -25   -7.46  157.94
  -4 -13  25 -278.19  180.54
  -4 -13  25   53.54   94.56
   5  13 -25  -23.45  167.10
  -5 -13  25 -126.64  101.86
  -5 -13  25 -537.83  200.89
   6  13 -25   -8.19  170.47
  -6 -13  25 -559.24  211.02
  14   6 -25   46.05  239.87
 -14  -6  25  -95.04  309.01
  14   5 -25   11.31  220.54
  14   5 -25   66.39  103.17
 -14  -5  25  124.76  279.68
 -14  -5  25  115.17  122.43
  14   4 -25   19.40   98.31
  14   4 -25  -11.16  221.26
 -14  -4  25  133.07  118.81
 -14  -4  25  -31.23  274.50
  14   3 -25   57.35   98.83
 -14  -3  25    8.98  125.84
 -14  -3  25 -491.54  262.75
  14   2 -25   25.85   94.92
  15   4 -25   34.64  225.22
 -15  -4  25   65.03  279.17
  15   3 -25   19.66  102.11
 -15  -3  25  -37.17  121.91
   0   2 -26  207.83   86.62
   1   2 -26   35.34   65.66
  -1  -2  26 -210.73  153.16
   2   2 -26  252.87   81.39
  -2  -2  26  -31.77  158.31
   3   2 -26 -166.56   63.38
  -3  -2  26   -6.54  162.26
  -1   3 -26  327.79   94.77
   0   3 -26 1165.17  210.98
   0  -3  26  652.85  213.48
   1   3 -26   12.90   75.81
   1   3 -26  328.08  151.88
  -1  -3  26  225.52  163.52
   2   3 -26  240.59  149.66
   2   3 -26  109.49   70.33
  -2  -3  26   48.88  157.21
   3   3 -26    4.48   66.86
   3   3 -26  239.42  152.46
  -3  -3  26   88.19  156.31
   4   3 -26  -59.72   65.72
   4   3 -26   38.54  152.43
  -4  -3  26  189.80  161.02
   4   2 -26  -42.50   72.98
  -4  -2  26   20.28  164.18
  -1   4 -26   -8.30   66.76
   0   4 -26   33.96  145.20
   0   4 -26    4.24   61.92
   0  -4  26  -50.03  154.20
   1   4 -26 -146.14  145.72
   1   4 -26   13.01   63.32
  -1  -4  26   17.22  151.43
   2   4 -26   -4.41   65.48
   2   4 -26 -279.62  151.23
  -2  -4  26  219.96  155.88
   3   4 -26 -147.83  152.39
   3   4 -26    4.50   59.51
  -3  -4  26  228.67  166.59
   4   4 -26   -7.64  160.35
   4   4 -26  -32.24   65.40
  -4  -4  26    6.44  173.84
   5   4 -26    9.46   63.92
   5   4 -26 -166.45  155.53
  -5  -4  26 -222.24  171.93
   5   3 -26  -55.79  150.92
   5   3 -26   47.20   68.54
  -5  -3  26  -27.31  161.51
  -2   5 -26   23.72   60.77
   5   2 -26    4.86   70.96
   2  -5  26   54.53   54.60
  -5  -2  26  -70.31  168.21
  -1   5 -26   36.84   59.54
  -1   5 -26  217.52  138.00
   1  -5  26  218.43  149.70
   1  -5  26  -92.87   64.86
   0   5 -26  218.26  132.24
   0   5 -26   -8.38   60.88
   0  -5  26    5.54  147.11
   0  -5  26  -23.09   62.85
   1   5 -26   27.26  145.70
   1   5 -26    8.61   66.78
  -1  -5  26  194.51  156.26
  -1  -5  26  -28.81   60.29
   2   5 -26    4.38   61.07
   2   5 -26 -306.86  153.02
  -2  -5  26  184.58  169.02
   3   5 -26  -58.08   68.56
   3   5 -26   21.64  150.24
  -3  -5  26 -161.33  169.20
   4   5 -26  -22.83   70.44
   4   5 -26   82.20  155.93
  -4  -5  26  -71.24  167.73
   5   5 -26   42.18   75.17
   5   5 -26   46.55  161.10
  -5  -5  26   60.93  181.51
   6   5 -26 -155.01  172.10
   6   5 -26   -4.83   74.75
  -6  -5  26  -56.79  201.65
  -6  -5  26  -23.93   81.13
   6   4 -26  164.94  165.81
   6   4 -26    4.85   75.41
  -6  -4  26  -77.71  181.67
   6   3 -26   74.43  167.74
   6   3 -26   83.03   86.08
  -6  -3  26   71.51  188.66
  -2   6 -26   37.04   56.27
   6   2 -26   35.15   70.40
  -2   6 -26  -96.79  127.24
   2  -6  26  401.36  145.37
   2  -6  26  -29.25   51.51
  -6  -2  26  -22.03  178.96
  -1   6 -26   -6.25  128.87
  -1   6 -26 -170.39   66.54
   1  -6  26  -80.27  147.49
   1  -6  26   13.32   62.45
   0   6 -26  357.23  143.29
   0   6 -26    8.79   72.49
   0  -6  26   46.46   69.54
   0  -6  26  257.21  159.18
   1   6 -26    4.43   64.25
   1   6 -26  168.06  143.17
  -1  -6  26  110.72  156.11
  -1  -6  26    4.84   63.75
   2   6 -26   -4.51   67.71
   2   6 -26 -326.66  150.85
  -2  -6  26    5.02   68.98
  -2  -6  26   36.42  161.78
   3   6 -26  719.21  199.84
  -3  -6  26  569.16  206.12
   4   6 -26    7.45  154.67
   4   6 -26  145.76   70.04
  -4  -6  26   -5.44   74.97
  -4  -6  26 -250.73  180.40
   5   6 -26  -61.95  165.19
   5   6 -26    4.82   72.27
  -5  -6  26  -55.16  199.07
  -5  -6  26 -119.59   80.18
   6   6 -26 -173.75   79.22
   6   6 -26   -8.07  167.93
  -6  -6  26  -65.06  207.61
  -6  -6  26  -83.66   83.47
   7   6 -26  -92.85  182.74
  -7  -6  26   22.78  209.05
   7   5 -26  162.42  175.89
  -7  -5  26 -218.11  195.23
   7   4 -26  146.20  196.66
  -7  -4  26   29.74  219.45
   7   3 -26   51.67  166.46
  -7  -3  26  -15.08  193.72
  -2   7 -26  -72.36   64.56
  -2   7 -26  -77.91  128.44
   7   2 -26   -5.20   76.68
  -7  -2  26   23.12  180.58
  -1   7 -26  153.85   73.99
  -1   7 -26  538.03  148.46
   1  -7  26   17.88   63.64
   1  -7  26    5.36  157.26
   0   7 -26 -227.41  137.20
   0   7 -26  -13.72   68.42
   0  -7  26  431.71  161.11
   0  -7  26   60.93   68.02
   1   7 -26  275.75  152.31
   1   7 -26   18.54   72.56
  -1  -7  26  108.10  162.43
  -1  -7  26  122.21   69.13
   2   7 -26    6.90  144.06
   2   7 -26   80.64   72.69
  -2  -7  26 -219.85   70.03
  -2  -7  26   41.39  168.89
   3   7 -26 -213.27   78.44
   3   7 -26 -453.12  154.85
  -3  -7  26  -53.15   72.66
  -3  -7  26  135.34  179.46
   4   7 -26  267.63  119.29
  -4  -7  26  654.34  226.86
   5   7 -26   71.14   76.57
   5   7 -26  -15.47  167.42
  -5  -7  26   20.58  192.08
  -5  -7  26   52.02   81.47
   6   7 -26  -32.26  167.39
   6   7 -26   62.74   80.39
  -6  -7  26    7.20  194.05
  -6  -7  26   30.30   84.38
   7   7 -26  134.97  178.95
  -7  -7  26   37.86  213.54
   8   7 -26    5.60   84.08
   8   7 -26    8.86  192.43
  -8  -7  26    6.74   86.61
  -8  -7  26  -64.03  218.75
   8   6 -26    5.43   80.56
   8   6 -26    8.92  177.24
  -8  -6  26  -53.43   88.90
  -8  -6  26   40.34  214.89
   8   5 -26 -382.19   86.22
   8   5 -26    8.96  187.04
  -8  -5  26    6.68   92.06
  -8  -5  26 -103.12  218.82
   8   4 -26 -188.77  187.08
   8   4 -26   20.90   79.47
  -8  -4  26   -7.85  206.83
   8   3 -26   36.00  165.82
   8   3 -26    5.29   78.31
  -8  -3  26  -15.93  194.92
   8   2 -26   21.52   82.98
  -8  -2  26   97.42  202.24
  -1   8 -26  174.90  125.90
  -1   8 -26 1170.51  188.46
   1  -8  26  967.99  200.83
   0   8 -26  848.25  171.37
   0   8 -26  496.50  111.52
   0  -8  26   74.65   96.33
   0  -8  26  143.56  190.46
   1   8 -26  142.19   97.34
   1   8 -26  795.46  176.09
  -1  -8  26  212.35  188.09
  -1  -8  26  173.24   89.68
   2   8 -26   25.18   79.09
   2   8 -26   27.83  152.18
  -2  -8  26 -165.33   74.33
  -2  -8  26   17.88  177.23
   3   8 -26  -46.42   77.78
   3   8 -26    7.18  151.58
  -3  -8  26  -49.49  179.80
  -3  -8  26  -75.51   75.51
   4   8 -26    7.44  156.92
   4   8 -26  205.86   79.20
  -4  -8  26  199.41  184.33
  -4  -8  26   16.86   82.27
   5   8 -26  -97.41   84.79
   5   8 -26   15.43  162.90
  -5  -8  26  -88.08   80.44
  -5  -8  26  -53.65  196.90
   6   8 -26  -11.13   84.07
   6   8 -26    8.07  168.40
  -6  -8  26   12.29   84.55
  -6  -8  26  -28.08  195.95
   7   8 -26   -5.75   84.39
   7   8 -26   33.75  178.71
  -7  -8  26  161.24   87.32
  -7  -8  26 -105.25  218.87
   8   8 -26    8.87  192.85
   8   8 -26  190.66   95.91
  -8  -8  26 -119.09  225.64
  -8  -8  26    6.79   97.72
   9   8 -26 -359.47  103.38
   9   8 -26 -291.97  232.90
  -9  -8  26 -260.97  274.67
  -9  -8  26    7.15  103.68
   9   7 -26    5.84   89.99
   9   7 -26 -254.09  213.96
  -9  -7  26    8.67  246.38
  -9  -7  26 -319.23  104.58
   9   6 -26   28.30   76.89
   9   6 -26   -9.37  186.03
  -9  -6  26   -8.52  232.13
  -9  -6  26    7.08   95.29
   9   5 -26   -9.41  192.05
   9   5 -26   43.15   83.71
  -9  -5  26 -109.08  220.63
  -9  -5  26   63.71   94.89
   9   4 -26   -9.45  186.28
   9   4 -26    5.45   85.65
  -9  -4  26    8.31  217.65
   9   3 -26 -132.24  185.17
   9   3 -26  138.40   83.47
  -9  -3  26  -58.95  214.15
   9   2 -26   67.33   79.69
  -9  -2  26   17.13  207.17
  -1   9 -26  242.03   81.45
  -1   9 -26    6.34  150.47
   1  -9  26  166.49  169.39
   1  -9  26  114.90   67.23
   0   9 -26 -127.45   75.20
   0   9 -26  590.08  149.49
   0  -9  26   57.92   63.55
   0  -9  26 -223.63  167.96
   1   9 -26  274.23   90.49
   1   9 -26  439.70  153.77
  -1  -9  26  191.37  172.96
  -1  -9  26    4.99   74.81
   2   9 -26  -13.93  153.73
   2   9 -26   54.24   76.99
  -2  -9  26    5.20   68.42
  -2  -9  26    6.01  167.47
   3   9 -26    5.56   84.73
   3   9 -26    7.18  147.33
  -3  -9  26 -143.16  177.36
  -3  -9  26   27.01   72.17
   4   9 -26   29.79  159.74
   4   9 -26   93.76   78.36
  -4  -9  26   28.09   70.98
  -4  -9  26  323.08  188.75
   5   9 -26  100.67  172.15
   5   9 -26    5.66   83.87
  -5  -9  26 -111.28   79.24
  -5  -9  26   -6.74  185.74
   6   9 -26   52.41   83.13
   6   9 -26 -138.02  172.12
  -6  -9  26    6.12   87.00
  -6  -9  26  -14.11  199.72
   7   9 -26 -382.87  187.05
   7   9 -26 -102.17   90.81
  -7  -9  26  -30.23  228.65
  -7  -9  26   -6.42   87.63
   8   9 -26 -161.72  102.98
   8   9 -26 -330.59  216.81
   9   9 -26 -106.88  103.68
   9   9 -26   -9.46  194.43
  -9  -9  26  157.11  102.79
  -9  -9  26   -8.42  238.26
  10   9 -26  129.91  200.46
  10   9 -26   76.71  106.26
 -10  -9  26   -9.10  253.24
  10   8 -26   77.65  104.91
  10   8 -26    9.95  214.54
 -10  -8  26   27.41  264.46
 -10  -8  26   -7.57  103.98
  10   7 -26    9.92  209.13
  10   7 -26 -161.03   92.34
 -10  -7  26 -137.53  252.10
 -10  -7  26   22.61  109.86
  10   6 -26   29.60  100.92
  10   6 -26 -365.87  221.48
 -10  -6  26  215.67  272.12
 -10  -6  26  278.23  129.40
  10   5 -26   56.50   90.23
  10   5 -26   -9.98  187.66
 -10  -5  26 -310.44  227.08
 -10  -5  26  -67.52  104.75
  10   4 -26 -135.74   87.80
  10   4 -26   29.74  198.85
 -10  -4  26   44.06  231.09
  10   3 -26   34.70   80.62
  10   3 -26   -9.93  198.64
 -10  -3  26 -178.39  228.61
  10   2 -26 -116.86   87.70
 -10  -2  26   27.19  210.31
  -1  10 -26  147.78   78.92
  -1  10 -26    6.35  138.19
   1 -10  26   84.28   63.26
   1 -10  26 -103.56  161.81
   0  10 -26  497.62  143.24
   0  10 -26  -57.40   78.72
   0 -10  26   30.77   60.97
   0 -10  26 -180.82  165.22
   1  10 -26   67.42  143.96
   1  10 -26   -5.93   82.64
  -1 -10  26   58.96   68.39
  -1 -10  26  105.30  174.14
   2  10 -26 -258.94   89.52
   2  10 -26 -236.27  152.22
  -2 -10  26   96.80  180.40
  -2 -10  26   44.59   75.60
   3  10 -26    6.03   79.62
   3  10 -26   14.34  154.15
  -3 -10  26  -17.22   74.94
  -3 -10  26 -131.74  180.97
   4  10 -26   -7.41  157.53
   4  10 -26    6.18   90.90
  -4 -10  26  137.14  189.95
  -4 -10  26  137.15   79.67
   5  10 -26   77.00  169.02
   5  10 -26   18.98   96.43
  -5 -10  26    6.20   82.75
  -5 -10  26  -95.36  194.78
   6  10 -26  -89.54  185.83
   6  10 -26  149.58  104.61
  -6 -10  26   12.95   97.53
  -6 -10  26  -71.40  223.89
   7  10 -26    8.53  177.68
   7  10 -26  -26.83  100.41
  -7 -10  26 -223.92   91.69
  -7 -10  26  167.23  239.50
   8  10 -26  296.67  194.64
  -8 -10  26 -127.93  230.90
   9  10 -26   -9.56  201.19
  -9 -10  26  -25.42  225.84
  -9 -10  26 -195.78   92.98
  11   8 -26  189.39  218.26
  11   8 -26  -40.63   98.31
 -11  -8  26  -87.60  275.15
  11   7 -26  158.24  216.89
  11   7 -26  -19.44   95.10
 -11  -7  26   77.59  277.77
 -11  -7  26    8.02  103.78
  11   6 -26   10.53  205.61
  11   6 -26    6.21   89.42
 -11  -6  26    9.57  263.74
 -11  -6  26   -7.95  110.32
  11   5 -26  -10.50  208.89
  11   5 -26   54.15   95.38
 -11  -5  26    9.38  248.44
 -11  -5  26   -7.95  107.14
  11   4 -26   82.82  111.40
  11   4 -26  446.84  242.71
 -11  -4  26  168.50  293.20
  11   3 -26   10.42  207.68
  11   3 -26    6.00   97.45
 -11  -3  26 -170.19  244.48
  11   2 -26  -54.97   94.49
  -1  11 -26   -6.18   83.27
  -1  11 -26    6.34  136.21
   1 -11  26   44.10   74.02
   1 -11  26  283.07  163.97
   0  11 -26  -51.62   86.21
   0  11 -26    6.55  140.47
   0 -11  26   83.32  167.05
   0 -11  26  -73.77   71.40
   1  11 -26    6.74  142.34
   1  11 -26    6.68   93.94
  -1 -11  26 -114.94  170.48
  -1 -11  26   41.29   78.78
   2  11 -26    6.74   90.67
   2  11 -26 -111.09  148.38
  -2 -11  26    6.03   73.32
  -2 -11  26  -78.53  178.51
   3  11 -26 -179.30  151.02
   3  11 -26   20.67   99.48
  -3 -11  26  -87.39   88.77
  -3 -11  26 -745.42  193.03
   4  11 -26  200.45  195.87
   4  11 -26  471.95  143.42
  -4 -11  26  161.72  123.48
  -4 -11  26 1089.37  236.55
   5  11 -26    7.72  167.96
   5  11 -26   62.95  103.04
  -5 -11  26    6.84  199.29
  -5 -11  26 -315.67   91.38
   6  11 -26   28.76   97.37
   6  11 -26    8.16  167.94
  -6 -11  26  -48.96   90.42
  -6 -11  26   86.08  208.43
   7  11 -26    8.58  186.44
   7  11 -26 -185.03   98.10
  -7 -11  26  253.75  223.51
  -7 -11  26    7.32   94.74
   8  11 -26    9.04  193.57
  -8 -11  26   16.26  235.59
  12   7 -26   11.10  228.16
 -12  -7  26  154.91  292.63
  12   6 -26  -59.22   98.76
  12   6 -26  -77.51  222.25
 -12  -6  26  101.18  276.84
 -12  -6  26    8.43  110.08
  12   5 -26  -50.48   97.14
  12   5 -26  -33.13  221.46
 -12  -5  26  -29.83  258.08
 -12  -5  26    8.44  115.99
  12   4 -26  122.96   94.91
  12   4 -26   10.86  225.96
 -12  -4  26   34.04  120.06
 -12  -4  26    9.95  264.58
  12   3 -26    6.26   95.35
  12   3 -26  -87.35  230.13
 -12  -3  26   10.00  255.89
  12   2 -26  114.91  100.99
  -1  12 -26 -373.31  155.04
   1 -12  26  -66.45   85.59
   0 -12  26 -316.30  107.49
   1  12 -26 -325.72  110.03
   1  12 -26 -342.76  153.86
  -1 -12  26 -182.80  104.14
   2  12 -26 -104.49   97.10
   2  12 -26 -445.89  156.56
  -2 -12  26   -6.75   88.43
  -2 -12  26 -224.38  172.58
   3  12 -26    7.32  153.19
   3  12 -26  -90.79  105.18
  -3 -12  26 -170.48  178.69
  -3 -12  26   34.88   90.50
   4  12 -26    7.59  159.89
   4  12 -26    7.74   99.58
  -4 -12  26   -7.11   89.85
  -4 -12  26 -158.12  188.92
   5  12 -26   -7.90  171.30
   5  12 -26   -7.93  105.84
  -5 -12  26   48.23  197.57
  -5 -12  26   -7.37   94.26
   6  12 -26    8.29  177.71
   6  12 -26    8.14  119.03
  -6 -12  26    7.66  100.81
  -6 -12  26 -345.71  237.39
  13   6 -26   11.71  240.35
 -13  -6  26  -42.60  298.80
  13   5 -26  -11.52  226.76
  13   5 -26   47.05  101.90
 -13  -5  26   62.50  125.66
 -13  -5  26  -41.95  277.67
  13   4 -26  238.33  104.60
  13   4 -26   68.30  233.40
 -13  -4  26   -8.96  118.86
 -13  -4  26   31.48  275.71
  13   3 -26  103.70  102.78
 -13  -3  26   10.53  271.58
   0  13 -26   67.77  145.42
   0 -13  26   28.33  170.33
   1  13 -26    7.01  143.80
  -1 -13  26  -94.27  177.56
   2  13 -26 -109.05  157.82
  -2 -13  26 -239.05  185.92
   3  13 -26   22.64  162.26
  -3 -13  26 -260.90  105.43
  -3 -13  26 -319.81  191.22
   4  13 -26  -31.42  167.98
  -4 -13  26  260.64  195.13
  -4 -13  26  -63.58   95.53
   5  13 -26   74.10  171.04
  -5 -13  26 -133.21  197.67
  14   4 -26   71.15  242.72
 -14  -4  26  -99.12  291.90
  14   3 -26  101.00   99.05
 -14  -3  26   18.91  131.91
  -1   2 -27  387.69  120.30
   0   2 -27  -27.44   65.21
   1   2 -27  354.64  117.58
  -2   2 -27  -47.91   69.08
   2   2 -27   28.63   68.81
  -2   3 -27   94.90   72.50
   3   2 -27   14.58   75.27
  -3  -2  27  304.55  166.04
  -1   3 -27   87.98   67.49
   1  -3  27  -24.05  153.07
   0   3 -27  120.70   92.42
   0   3 -27  749.20  168.75
   0  -3  27  301.42  175.10
   1   3 -27   41.00   75.60
   1   3 -27  412.20  159.54
  -1  -3  27   88.35  160.63
   2   3 -27  120.64   81.35
   2   3 -27  304.02  156.90
  -2  -3  27  331.57  172.35
   3   3 -27 -550.81  160.29
   3   3 -27   18.96   71.65
  -3  -3  27   94.12  163.24
   4   3 -27    4.85   70.63
   4   3 -27    8.21  157.76
  -4  -3  27  418.91  175.39
  -2   4 -27   -4.29   75.70
   4   2 -27    4.99   72.70
  -4  -2  27  279.09  173.88
  -1   4 -27    7.01  139.59
  -1   4 -27   30.85   64.62
   1  -4  27   57.61  148.19
   0   4 -27  259.90  155.10
   0   4 -27    9.00   74.74
   0  -4  27  177.86  158.75
   1   4 -27   23.00   66.29
   1   4 -27    7.43  145.90
  -1  -4  27 -238.73  163.49
   2   4 -27   -7.65  165.80
   2   4 -27    4.68   75.41
  -2  -4  27  196.68  167.36
   3   4 -27    4.77   65.64
   3   4 -27 -205.10  166.93
  -3  -4  27  -46.09  172.49
   4   4 -27 -102.43   68.42
   4   4 -27 -203.86  171.02
  -4  -4  27   54.85  179.17
   5   4 -27    8.45  165.33
   5   4 -27   15.02   70.94
  -5  -4  27   -7.16  185.84
   5   3 -27    8.48  172.17
   5   3 -27  184.88   83.40
  -5  -3  27 -131.00  184.68
   5   2 -27    5.14   73.79
  -2   5 -27   73.01  136.62
  -2   5 -27  -71.71   62.21
  -5  -2  27  -96.62  177.83
  -1   5 -27   -4.36   63.08
  -1   5 -27    6.88  144.64
   1  -5  27   -9.32   57.56
   1  -5  27 -135.81  152.61
   0   5 -27   14.23  144.60
   0   5 -27  -49.06   67.55
   0  -5  27 -559.72  165.01
   0  -5  27  -14.59   64.82
   1   5 -27  -43.76  159.12
   1   5 -27   73.17   73.04
  -1  -5  27  166.74   71.66
  -1  -5  27   79.65  170.68
   2   5 -27  105.46  155.85
   2   5 -27    9.31   66.98
  -2  -5  27  241.93  172.81
   3   5 -27  194.59  169.60
   3   5 -27  270.04   92.31
  -3  -5  27  179.04  193.30
   4   5 -27  -40.30  165.60
   4   5 -27   -4.84   77.61
  -4  -5  27    6.91  191.03
   5   5 -27   69.46   76.47
   5   5 -27 -184.10  168.82
  -5  -5  27  137.32  202.38
   6   5 -27  156.79  178.87
   6   5 -27  199.22   83.20
  -6  -5  27   25.14   90.58
  -6  -5  27    7.58  197.70
   6   4 -27   56.45   79.83
   6   4 -27  263.35  170.62
  -6  -4  27 -202.82  202.51
   6   3 -27  -20.68   81.34
   6   3 -27   -8.79  160.07
  -6  -3  27 -114.22  190.97
   6   2 -27  100.89   85.20
  -2   6 -27  -30.46   66.70
  -6  -2  27  -62.05  188.84
  -1   6 -27    6.72  145.56
  -1   6 -27   36.38   68.00
   1  -6  27   97.15  158.34
   1  -6  27   51.46   67.87
   0   6 -27  168.66   75.71
   0   6 -27   27.92  141.25
   0  -6  27 -453.86  174.27
   0  -6  27   -4.90   65.65
   1   6 -27    7.23  155.92
   1   6 -27   28.26   71.06
  -1  -6  27   81.59   72.04
  -1  -6  27  135.96  168.89
   2   6 -27    4.79   68.04
   2   6 -27 -523.55  162.57
  -2  -6  27  -64.35  174.02
  -2  -6  27  -26.39   77.09
   3   6 -27 -286.00  173.97
   3   6 -27   53.72   78.45
  -3  -6  27  -43.92   84.53
  -3  -6  27 -368.66  192.23
   4   6 -27 -400.81  177.19
   4   6 -27    9.97   83.56
  -4  -6  27 -258.60  198.63
  -4  -6  27   17.19   77.96
   5   6 -27    8.32  175.40
   5   6 -27    5.11   75.35
  -5  -6  27 -197.24  200.93
  -5  -6  27    5.99   75.10
   6   6 -27    5.25   80.21
   6   6 -27   -8.66  179.40
  -6  -6  27   23.13  212.16
  -6  -6  27    6.28   82.43
   7   6 -27    9.05  179.12
  -7  -6  27  129.56  228.77
  -7  -6  27    6.64   90.33
   7   5 -27    9.09  172.14
  -7  -5  27 -159.42  211.56
   7   4 -27    9.15  177.23
  -7  -4  27  -63.10  202.17
   7   3 -27    9.16  170.57
  -7  -3  27 -127.90  200.48
  -7  -2  27   81.27  200.43
  -1   7 -27  -32.85   66.32
  -1   7 -27  -47.14  149.03
   1  -7  27   23.55   63.71
   1  -7  27 -342.87  169.88
   0   7 -27  673.39  233.94
   0  -7  27 1251.05  250.33
   1   7 -27    4.94   76.04
   1   7 -27    7.19  159.22
  -1  -7  27   67.26   73.37
  -1  -7  27  924.62  188.68
   2   7 -27    5.05   70.65
   2   7 -27 -341.97  168.15
  -2  -7  27   21.51   70.43
  -2  -7  27 -477.23  190.94
   3   7 -27  200.86   84.70
   3   7 -27  176.79  168.31
  -3  -7  27   -5.59   81.55
  -3  -7  27   46.97  189.95
   4   7 -27  147.32   85.03
   4   7 -27 -103.39  171.73
  -4  -7  27   17.45   76.62
  -4  -7  27 -167.94  197.08
   5   7 -27   21.56   76.42
   5   7 -27    8.26  174.19
  -5  -7  27   51.18  204.42
  -5  -7  27   18.22   85.81
   6   7 -27   -8.68  181.26
   6   7 -27   -5.54   82.24
  -6  -7  27   50.92   90.61
  -6  -7  27  -76.70  219.45
   7   7 -27   62.89   88.42
   7   7 -27  -63.44  184.78
  -7  -7  27  148.43  223.39
  -7  -7  27    6.70   88.04
   8   7 -27 -337.91   98.35
   8   7 -27    9.51  210.40
  -8  -7  27 -164.94  266.25
  -8  -7  27   -7.08   91.45
   8   6 -27    9.49  204.19
   8   6 -27   -5.64   83.86
  -8  -6  27   68.16  235.34
  -8  -6  27    7.02   94.18
   8   5 -27  201.52  187.55
   8   5 -27    5.46   76.57
  -8  -5  27   16.80  215.68
  -8  -5  27    7.02   98.47
   8   4 -27  334.46  195.70
   8   4 -27   44.16   81.24
  -8  -4  27 -158.15  213.28
   8   3 -27    5.60   82.36
   8   3 -27   -9.57  193.47
  -8  -3  27   42.10  219.01
   8   2 -27  193.57   88.41
  -8  -2  27 -102.63  211.23
  -1   8 -27   -4.91   76.63
  -1   8 -27  390.16  148.12
   1  -8  27 -116.45   62.46
   1  -8  27  165.66  167.61
   0   8 -27   20.93  143.21
   0   8 -27   -5.05   72.20
   0  -8  27  190.88  176.28
   0  -8  27   54.05   67.23
   1   8 -27   31.32   79.95
   1   8 -27  223.64  161.13
  -1  -8  27  272.97  179.59
  -1  -8  27   -5.21   72.70
   2   8 -27  275.70  161.00
   2   8 -27  -58.94   80.44
  -2  -8  27    5.46   71.90
  -2  -8  27   64.34  190.13
   3   8 -27   65.75   83.82
   3   8 -27  146.12  163.42
  -3  -8  27  140.55  192.55
  -3  -8  27   73.92   83.36
   4   8 -27   16.80   84.99
   4   8 -27  -31.83  169.61
  -4  -8  27    5.92   75.13
  -4  -8  27  222.86  195.87
   5   8 -27   45.00   85.06
   5   8 -27    8.26  178.40
  -5  -8  27    6.18   83.02
  -5  -8  27  -72.65  206.09
   6   8 -27    5.78   82.89
   6   8 -27   -8.61  177.69
  -6  -8  27   51.73   84.34
  -6  -8  27 -137.03  214.08
   7   8 -27   -9.07  210.69
   7   8 -27   85.17   91.84
  -7  -8  27    6.78   94.67
  -7  -8  27 -120.17  240.71
   8   8 -27   -9.51  204.72
  -8  -8  27 -216.12  281.53
   9   8 -27 -340.97  102.03
   9   8 -27   10.02  227.55
  -9  -8  27   27.44  270.44
  -9  -8  27    7.54  105.57
   9   7 -27  117.26  101.80
   9   7 -27  139.96  216.93
  -9  -7  27   27.47  249.84
  -9  -7  27   67.13  101.50
   9   6 -27  -30.19  229.20
   9   6 -27 -185.42   99.14
  -9  -6  27  133.93  126.56
  -9  -6  27 -197.45  275.34
   9   5 -27   60.44  197.85
   9   5 -27  -11.40   88.48
  -9  -5  27   88.61  229.95
  -9  -5  27    7.43  105.77
   9   4 -27  247.63   96.38
   9   4 -27  -20.01  193.73
  -9  -4  27  326.15  232.11
   9   3 -27  251.53   93.43
   9   3 -27   10.03  192.28
  -9  -3  27  -53.38  228.27
   9   2 -27   23.74   83.27
  -1   9 -27   42.76   76.55
  -1   9 -27    6.82  148.59
   1  -9  27   28.89   58.78
   1  -9  27   63.76  167.56
   0   9 -27  211.16   80.20
   0   9 -27    7.05  154.15
   0  -9  27    5.01   67.68
   0  -9  27    6.04  174.78
   1   9 -27  -44.82   85.04
   1   9 -27    7.29  155.05
  -1  -9  27   80.00  178.07
  -1  -9  27   -5.24   69.64
   2   9 -27  247.76   93.17
   2   9 -27  345.47  169.85
  -2  -9  27   65.49   81.77
  -2  -9  27 -210.47  186.15
   3   9 -27 -170.32  166.35
   3   9 -27   51.45   81.83
  -3  -9  27  -51.10   75.42
  -3  -9  27 -182.01  197.24
   4   9 -27  -11.71   87.10
   4   9 -27   -8.01  175.54
  -4  -9  27    5.96   82.56
  -4  -9  27   77.01  202.05
   5   9 -27   66.08   93.11
   5   9 -27    8.31  176.68
  -5  -9  27 -105.60   83.33
  -5  -9  27 -160.52  205.59
   6   9 -27    8.65  195.55
   6   9 -27 -265.57   96.57
  -6  -9  27  -45.45   91.49
   7   9 -27  108.22   97.81
   7   9 -27  108.99  194.37
  -7  -9  27 -129.43  106.66
  -7  -9  27   88.00  232.31
   8   9 -27  -66.73  215.38
  -8  -9  27  -60.06  261.62
   9   9 -27   10.07  206.41
  -9  -9  27    7.51  105.85
  -9  -9  27 -118.28  255.24
  10   8 -27 -369.60  107.31
  10   8 -27  149.41  225.41
 -10  -8  27    7.97  112.37
 -10  -8  27 -242.85  294.01
  10   7 -27    6.55   86.64
  10   7 -27 -116.77  217.70
 -10  -7  27 -136.58  278.38
 -10  -7  27  118.83  104.62
  10   6 -27   10.61  216.73
  10   6 -27  -68.83   94.23
 -10  -6  27   38.23  265.93
 -10  -6  27   31.61  115.04
  10   5 -27 -296.48  244.34
  10   5 -27    5.97   91.21
 -10  -5  27    7.88  109.25
 -10  -5  27 -103.14  279.98
  10   4 -27 -397.88  230.21
  10   4 -27    5.97   95.09
 -10  -4  27    9.35  254.08
  10   3 -27   10.52  202.93
  10   3 -27  -24.44   94.33
 -10  -3  27    9.42  230.40
  -1  10 -27   34.16  148.99
  -1  10 -27   95.76   88.43
   1 -10  27  133.03  173.00
   1 -10  27   56.79   67.47
   0  10 -27   -6.06   86.67
   0  10 -27   63.57  159.71
   0 -10  27    6.01  179.19
   0 -10  27 -161.03   74.33
   1  10 -27 -196.40  156.20
   1  10 -27   31.36   87.35
  -1 -10  27   95.33   72.71
  -1 -10  27    6.23  185.23
   2  10 -27  180.64   92.07
   2  10 -27   52.49  169.40
  -2 -10  27    6.45  187.51
  -2 -10  27    5.84   81.32
   3  10 -27   70.24   90.33
   3  10 -27 -193.18  162.41
  -3 -10  27 -421.04  198.72
  -3 -10  27    6.02   74.77
   4  10 -27  -56.00  189.58
   4  10 -27   13.07   96.18
  -4 -10  27 -106.30   89.38
   5  10 -27 -180.71  104.46
  -5 -10  27   -6.51   92.82
  -5 -10  27 -124.40  234.15
   6  10 -27  -20.63  101.14
   6  10 -27    8.68  182.99
  -6 -10  27    6.79   87.13
  -6 -10  27   76.50  223.98
   7  10 -27    9.16  198.18
   7  10 -27    7.09   95.76
  -7 -10  27    7.12   92.61
  -7 -10  27    8.04  239.08
   8  10 -27    9.63  208.79
  -8 -10  27   -8.64  256.61
  11   7 -27  -11.18  226.15
  11   7 -27  226.08  100.93
 -11  -7  27  134.10  281.94
  11   6 -27 -242.53   95.32
  11   6 -27 -100.60  223.43
 -11  -6  27   30.36  281.01
 -11  -6  27    8.36  116.96
  11   5 -27  100.37  225.81
  11   5 -27   25.41   95.80
 -11  -5  27   29.82  263.14
 -11  -5  27  133.58  110.61
  11   4 -27  219.58  219.28
  11   4 -27  274.86  102.89
 -11  -4  27  -69.58  259.35
  11   3 -27    6.34   96.61
  11   3 -27  -11.03  220.90
 -11  -3  27 -688.20  254.35
  -1  11 -27  -25.93  129.80
   0  11 -27 2015.22  526.22
   0 -11  27 3322.63  550.32
   1  11 -27  311.25  203.07
   2  11 -27 -291.18  115.53
  -2 -11  27  -75.50   98.16
   3  11 -27   -7.26  100.24
   3  11 -27   77.19  171.13
  -3 -11  27  -45.63   86.82
  -3 -11  27 -187.29  198.00
   4  11 -27 -167.87  175.63
   4  11 -27   28.84   98.86
  -4 -11  27 -120.32  206.52
  -4 -11  27   27.03   93.59
   5  11 -27    7.37  100.88
   5  11 -27   -8.31  175.02
  -5 -11  27    7.03   92.52
  -5 -11  27   66.56  217.10
   6  11 -27    8.68  186.84
   6  11 -27 -113.59  113.23
  -6 -11  27    7.76  218.20
  -6 -11  27  -94.05   91.21
   7  11 -27  -73.78  202.27
  -7 -11  27   32.64  242.35
  12   6 -27   82.91  239.10
 -12  -6  27   10.68  280.34
  12   5 -27    6.66   95.74
  12   5 -27   70.07  226.64
 -12  -5  27   44.42  111.76
 -12  -5  27   10.52  280.69
  12   4 -27  115.33  240.86
  12   4 -27    6.49   94.81
 -12  -4  27 -273.46  269.54
 -12  -4  27  -35.78  121.32
  12   3 -27  132.28   98.38
 -12  -3  27 -158.11  267.26
   0  12 -27   80.37   98.45
   0  12 -27 -154.65  151.68
   0 -12  27  -71.99  172.41
   0 -12  27   52.48   87.91
   1  12 -27  203.11  162.90
   1  12 -27  -22.82  101.36
  -1 -12  27  167.90  187.94
  -1 -12  27    6.77   86.54
   2  12 -27 -351.99  156.76
   2  12 -27  147.32  106.07
  -2 -12  27    7.02   91.38
  -2 -12  27  -19.36  194.99
   3  12 -27  -77.51  171.95
   3  12 -27   23.86  107.61
  -3 -12  27   -6.81  204.20
  -3 -12  27  107.36   88.55
   4  12 -27   -8.15  105.62
   4  12 -27  160.81  172.87
  -4 -12  27    7.42   97.73
  -4 -12  27   35.46  220.25
   5  12 -27   -8.35  104.97
   5  12 -27   -8.38  183.29
  -5 -12  27   22.28  213.67
  13   4 -27    6.80  100.73
  13   4 -27   12.09  229.75
 -13  -4  27   11.10  280.57
  13   3 -27 -136.91   97.70
   0  13 -27 -500.68  176.84
   0 -13  27 -402.71  208.24
   1  13 -27   29.60  156.34
  -1 -13  27 -152.16  192.85
   2  13 -27 -145.68  167.02
  -2 -13  27   -7.69   92.93
  -2 -13  27   85.78  186.29
   3  13 -27    7.95  168.76
  -3 -13  27   27.55  194.27
  -3 -13  27   -7.98  100.09
  -1   2 -28  -18.80   68.63
   0   2 -28  383.78  120.47
   1   2 -28  -39.21   76.80
  -2   2 -28  137.68   81.98
   2   2 -28  140.25   86.81
  -2   3 -28  -22.83   70.21
   3   2 -28   82.20   73.62
  -1   3 -28   -4.66   69.26
   1  -3  28  159.21  154.21
   0   3 -28   37.86   72.01
   0  -3  28  209.03  166.91
   1   3 -28  211.37  161.99
   1   3 -28   14.43   66.67
  -1  -3  28 -114.08  162.40
   2   3 -28   24.93  163.87
   2   3 -28   -4.90   75.47
  -2  -3  28 -214.24  169.53
   3   3 -28   59.61  171.45
   3   3 -28   60.08   75.40
  -3  -3  28 -250.05  182.19
   4   3 -28  -26.27  172.32
   4   3 -28  123.27   76.64
  -4  -3  28   -7.40  189.85
   4   2 -28 -179.42   80.28
  -2   4 -28  109.30   66.07
  -1   4 -28   29.84  156.80
  -1   4 -28  -70.10   78.35
   1  -4  28    6.16  164.78
   0   4 -28   19.06   71.93
   0   4 -28   61.25  157.70
   0  -4  28  342.66  167.71
   1   4 -28    7.88  161.17
   1   4 -28 -233.82   78.87
  -1  -4  28    6.53  161.21
   2   4 -28   -8.13  161.00
   2   4 -28  -14.85   79.47
  -2  -4  28  -74.33  177.37
   3   4 -28   65.60   81.88
   3   4 -28   -8.38  168.26
  -3  -4  28  -49.07  191.15
   4   4 -28  -10.32   77.77
   4   4 -28   -8.65  177.99
  -4  -4  28  -36.44  191.07
   5   4 -28   21.06   78.49
   5   4 -28    8.96  173.11
  -5  -4  28 -114.21  194.41
   5   3 -28 -578.81  181.10
   5   3 -28    5.29   77.13
  -5  -3  28   15.42  199.84
  -1   5 -28 -293.73  156.80
  -1   5 -28  -13.91   74.14
   1  -5  28   -4.90   64.95
   1  -5  28   -6.01  163.70
   0   5 -28 -113.65   78.30
   0   5 -28 -493.46  158.65
   0  -5  28   -5.11   75.20
   0  -5  28 -337.43  178.64
   1   5 -28 -219.63  168.33
   1   5 -28   19.41   79.04
  -1  -5  28 -311.87  174.06
  -1  -5  28   74.35   76.36
   2   5 -28   88.77   82.66
   2   5 -28  267.18  176.30
  -2  -5  28  337.89  195.59
   3   5 -28   35.13   81.23
   3   5 -28 -167.24  176.93
  -3  -5  28 -591.43  199.49
   4   5 -28   15.37   78.25
   4   5 -28 -138.50  183.30
  -4  -5  28   -7.34  188.83
   5   5 -28    8.98  184.32
   5   5 -28   -5.25   78.26
  -5  -5  28 -107.38  212.87
   6   5 -28   -5.40   83.66
   6   5 -28    9.34  185.80
  -6  -5  28   16.05  214.83
  -6  -5  28  132.08   95.11
   6   4 -28 -232.62  194.51
   6   4 -28   43.39   85.50
  -6  -4  28   87.70  205.27
   6   3 -28  112.44  183.11
   6   3 -28   49.24   88.52
  -6  -3  28   48.37  213.92
  -1   6 -28 -181.03  161.63
  -1   6 -28   19.37   72.85
   1  -6  28 -103.32  171.44
   1  -6  28   54.14   64.75
   0   6 -28    7.51  154.76
   0   6 -28   99.64   73.00
   0  -6  28  -82.42   76.26
   1   6 -28   54.03  165.55
   1   6 -28    5.00   80.42
  -1  -6  28 -362.32  183.02
  -1  -6  28   58.97   69.66
   2   6 -28   86.50   75.71
   2   6 -28  271.36  174.93
  -2  -6  28  137.36  193.60
  -2  -6  28  -16.65   74.04
   3   6 -28   32.98  180.00
   3   6 -28   10.36   83.33
  -3  -6  28   28.62  201.00
  -3  -6  28   69.29   79.65
   4   6 -28   36.96   86.68
   4   6 -28    8.54  172.68
  -4  -6  28   48.14   81.36
  -4  -6  28   96.97  195.84
   5   6 -28   -8.87  185.15
   5   6 -28 -318.93   82.83
  -5  -6  28   18.87   85.47
  -5  -6  28   15.56  209.32
   6   6 -28    9.24  193.82
   6   6 -28  216.80   85.68
  -6  -6  28 -184.73   87.20
  -6  -6  28   48.85  229.78
   7   6 -28    9.73  205.37
   7   6 -28    5.74   83.47
  -7  -6  28  -27.89   91.41
  -7  -6  28   76.90  242.22
   7   5 -28  -29.26  200.57
   7   5 -28   88.79   85.65
  -7  -5  28    6.97   94.69
  -7  -5  28   -8.43  232.45
   7   4 -28 -106.59  189.12
  -7  -4  28   58.73  215.13
   7   3 -28    9.75  188.24
  -7  -3  28  -16.94  210.34
  -1   7 -28  -85.05   70.34
  -1   7 -28  -43.00  156.82
   1  -7  28  278.09  179.47
   1  -7  28   54.49   66.07
   0   7 -28  102.35   75.41
   0   7 -28    7.46  163.61
   0  -7  28  -51.88   70.94
   0  -7  28   71.24  177.45
   1   7 -28   15.75   78.62
   1   7 -28 -387.02  170.65
  -1  -7  28  256.79  186.78
  -1  -7  28    5.44   69.96
   2   7 -28   91.16   82.40
   2   7 -28 -248.13  178.88
  -2  -7  28   67.82   77.49
  -2  -7  28  196.99  194.96
   3   7 -28  191.36   92.34
   3   7 -28  -74.50  179.20
  -3  -7  28    7.32  201.80
  -3  -7  28   88.06   78.70
   4   7 -28   44.62   81.77
   4   7 -28   94.21  184.84
  -4  -7  28   -6.11   82.19
  -4  -7  28  160.16  203.05
   5   7 -28   96.99   82.44
   5   7 -28  -17.78  191.21
  -5  -7  28  -71.61  216.88
  -5  -7  28    6.38   88.56
   6   7 -28   82.09   87.32
   6   7 -28  -27.76  190.42
  -6  -7  28  -46.79   88.11
  -6  -7  28   24.97  221.67
   7   7 -28 -666.62  228.84
  -7  -7  28 -314.07  267.41
  -7  -7  28    7.03  102.74
   8   7 -28  326.17  223.82
  -8  -7  28  -18.36  270.90
   8   6 -28 -408.24  223.24
  -8  -6  28 -244.56  277.88
   8   5 -28    5.77   89.19
   8   5 -28 -122.47  210.26
  -8  -5  28   -8.88  235.04
  -8  -5  28   -7.37   95.59
   8   4 -28  -70.73  205.42
   8   4 -28   52.52   90.55
  -8  -4  28    8.84  220.46
   8   3 -28  -50.86  201.35
   8   3 -28    5.92   92.63
  -8  -3  28  178.26  209.05
  -1   8 -28 -259.41  151.45
  -1   8 -28  -68.01   77.07
   1  -8  28   -6.21  179.82
   1  -8  28   14.70   61.92
   0   8 -28   16.14   84.14
   0   8 -28   67.48  162.80
   0  -8  28   51.92  184.99
   0  -8  28   25.86   71.14
   1   8 -28  105.56   82.36
   1   8 -28    7.76  164.04
  -1  -8  28 -138.81  189.75
  -1  -8  28   60.48   78.33
   2   8 -28   48.10  167.24
   2   8 -28   11.39   87.45
  -2  -8  28  143.51   79.01
  -2  -8  28    6.87  193.82
   3   8 -28   82.78  171.46
   3   8 -28 -104.73   84.33
  -3  -8  28  -57.12  204.29
  -3  -8  28    5.98   80.76
   4   8 -28  116.52   92.60
   4   8 -28    8.56  180.32
  -4  -8  28  -99.71   85.04
  -4  -8  28 -326.74  201.00
   5   8 -28    5.96   83.70
   5   8 -28  -79.94  186.29
  -5  -8  28   32.49   88.30
  -5  -8  28   87.16  219.01
   6   8 -28  -97.89   96.49
   6   8 -28  120.19  207.37
  -6  -8  28  176.84   99.79
  -6  -8  28  107.85  253.23
   7   8 -28   86.93  205.17
   7   8 -28  -31.56   94.13
  -7  -8  28  -17.43  251.27
  -7  -8  28    7.14   99.07
   8   8 -28  235.19  221.91
  -8  -8  28   73.58  267.71
   9   8 -28    6.94  102.21
   9   8 -28   10.75  236.69
  -9  -8  28    7.94   92.31
  -9  -8  28   89.50  277.96
   9   7 -28  -21.40  223.88
   9   7 -28 -143.56   98.31
  -9  -7  28    9.75  277.72
  -9  -7  28    7.88  107.45
   9   6 -28 -202.26   92.85
   9   6 -28  -10.71  226.80
  -9  -6  28   19.12  263.71
  -9  -6  28   -7.81  103.16
   9   5 -28  -78.28  103.54
   9   5 -28 -395.24  248.20
  -9  -5  28   18.78  268.93
  -9  -5  28  -54.73  118.99
   9   4 -28 -560.46  238.20
   9   4 -28 -108.61  106.30
  -9  -4  28 -121.94  266.26
   9   3 -28   74.50  217.13
   9   3 -28  197.99  102.93
  -9  -3  28  263.49  238.46
  -1   9 -28   85.09   83.04
  -1   9 -28  275.84  162.72
   0   9 -28 -120.68   89.54
   0   9 -28   60.27  160.71
   0  -9  28 -370.71  191.98
   0  -9  28  -47.31   76.11
   1   9 -28 -238.14   91.44
   1   9 -28   93.06  166.95
  -1  -9  28    5.50   69.87
  -1  -9  28 -684.14  204.58
   2   9 -28 -664.13  166.39
   2   9 -28    5.93   84.34
  -2  -9  28  -48.23  207.23
  -2  -9  28    5.73   73.44
   3   9 -28 -718.01  172.64
   3   9 -28  151.88   96.44
  -3  -9  28  157.17  208.39
  -3  -9  28    6.01   77.88
   4   9 -28   -8.56  198.69
   4   9 -28  -87.11   99.29
  -4  -9  28 -438.14   98.24
   5   9 -28 -426.45  201.17
   5   9 -28 -248.57  104.40
  -5  -9  28  -94.51  255.13
  -5  -9  28   52.21   93.51
   6   9 -28   -6.54   89.69
   6   9 -28   -9.24  185.83
  -6  -9  28    8.24  244.19
  -6  -9  28    6.82   94.62
   7   9 -28 -270.53  211.25
   7   9 -28  121.44  103.17
  -7  -9  28  -17.30  252.38
  -7  -9  28   -7.16   91.78
   8   9 -28   10.15  218.97
  -8  -9  28 -100.44  270.11
  10   7 -28    6.82   85.73
  10   7 -28   56.40  233.73
 -10  -7  28  185.15  276.98
  10   6 -28  -33.05   98.63
  10   6 -28   11.27  235.42
 -10  -6  28 -343.71  274.36
 -10  -6  28  -66.44  115.32
  10   5 -28 -348.60  226.55
  10   5 -28    6.30   89.88
 -10  -5  28   49.65  262.58
 -10  -5  28   49.68  109.71
  10   4 -28   69.41   99.81
  10   4 -28  299.53  225.68
 -10  -4  28  -29.82  248.33
  10   3 -28  -90.43   92.24
 -10  -3  28 -139.28  274.93
  -1  10 -28 1455.40  317.41
   0  10 -28  685.84  172.44
  -1 -10  28   76.37  166.60
  -1 -10  28  507.79  303.40
   2  10 -28  593.13  234.33
   2  10 -28    6.60  157.70
  -2 -10  28  279.22  136.75
   3  10 -28 -372.48  195.98
   3  10 -28 -189.33  104.40
  -3 -10  28  -75.71   90.86
   4  10 -28   -8.61  174.10
   4  10 -28   41.50  102.24
  -4 -10  28 -104.36  216.02
  -4 -10  28 -183.63   94.06
   5  10 -28  -35.75  201.84
   5  10 -28  148.81  102.33
  -5 -10  28   -6.83   95.66
  -5 -10  28   39.61  225.89
   6  10 -28   29.11  110.37
   6  10 -28  186.30  202.74
  -6 -10  28  -91.01  235.04
  -6 -10  28 -106.93   90.83
   7  10 -28    9.74  211.81
  -7 -10  28  191.15  252.24
  11   6 -28  -11.95  244.88
 -11  -6  28   64.09  296.73
  11   5 -28  -11.79  238.59
  11   5 -28  -33.54  104.40
 -11  -5  28  -10.52  285.39
 -11  -5  28   87.82  123.43
  11   4 -28 -171.57  106.62
  11   4 -28  -11.67  228.80
 -11  -4  28   42.06  278.37
  11   3 -28  -87.04  105.57
 -11  -3  28  -84.17  257.34
   0  11 -28 -112.19   97.71
   0  11 -28   82.18  161.82
   0 -11  28   30.63   77.99
   0 -11  28 -123.56  188.43
   1  11 -28  -80.06  101.67
   1  11 -28 -169.61  172.98
  -1 -11  28 -121.37  191.11
  -1 -11  28  145.27   84.29
   2  11 -28   89.90  118.74
   2  11 -28  151.01  171.50
  -2 -11  28   13.14   90.37
  -2 -11  28  300.22  212.42
   3  11 -28 -223.26  104.59
   3  11 -28   -8.21  178.95
  -3 -11  28  195.57  209.06
  -3 -11  28    6.81   89.91
   4  11 -28    7.61  107.24
   4  11 -28    8.61  175.20
  -4 -11  28  -52.70  216.45
  -4 -11  28  -90.83   91.95
   5  11 -28 -107.37  186.78
   5  11 -28 -101.27  116.51
  -5 -11  28  111.34  229.79
  -5 -11  28   65.48  102.01
  12   4 -28   12.25  241.21
 -12  -4  28   11.13  283.20
  12   3 -28 -258.55  113.32
   0  12 -28 -153.48  102.52
   0  12 -28  148.62  163.39
   0 -12  28    6.74   80.52
   0 -12  28  480.31  198.81
   1  12 -28   38.38  165.43
   1  12 -28   16.00  107.31
  -1 -12  28    7.02   89.38
  -1 -12  28  370.42  204.94
   2  12 -28    8.17  113.06
   2  12 -28    7.93  171.46
  -2 -12  28   62.83  205.54
  -2 -12  28  107.79   96.85
   3  12 -28  -58.15  181.25
   3  12 -28  209.65  111.66
  -3 -12  28 -174.25  209.41
  -3 -12  28   37.32   97.34
   4  12 -28  224.63  183.52
  -4 -12  28  123.08  218.94
   0  13 -28   90.52  164.46
   0 -13  28 -394.91  195.94
   1  13 -28    7.81  168.08
  -1 -13  28    7.66   87.88
  -1 -13  28  100.97  198.30
   2  13 -28    8.09  179.73
  -2 -13  28  427.72  220.26
  -1   2 -29  103.82   79.03
   0   2 -29   20.23   71.23
  -2   2 -29   24.16   77.16
  -1   3 -29 -127.86   81.87
   0   3 -29   45.03   79.40
   1   3 -29   50.87   82.19
  -1  -3  29 -177.89  181.14
   2   3 -29    5.18   69.25
  -2  -3  29    7.33  182.07
   3   3 -29   10.59   81.61
  -3  -3  29 -265.27  195.00
   4   3 -29    9.32  185.27
   4   3 -29   54.34   85.25
  -4  -3  29  196.53  193.05
  -1   4 -29  -71.46  164.92
  -1   4 -29   29.66   75.90
   1  -4  29 -183.00  175.04
   0   4 -29 -342.79  176.59
   0   4 -29 -186.37   86.99
   0  -4  29 -128.18  182.85
   1   4 -29  150.88  180.44
   1   4 -29    5.12   74.51
  -1  -4  29  -62.85  180.32
   2   4 -29  327.37  196.14
   2   4 -29  230.41  109.34
  -2  -4  29  433.42  206.83
   3   4 -29 -239.78  177.49
   3   4 -29    5.33   72.26
  -3  -4  29  292.19  192.02
   4   4 -29 -110.07  174.48
   4   4 -29  -92.16   79.50
  -4  -4  29  225.43  193.31
   5   4 -29 -104.42  184.02
   5   4 -29  155.82   90.01
  -5  -4  29    8.11  207.20
   5   3 -29   78.40   87.51
   5   3 -29   19.23  189.62
  -5  -3  29   24.54  194.26
  -1   5 -29    7.77  158.34
  -1   5 -29   88.50   75.86
   1  -5  29 -377.41  174.94
   1  -5  29  108.02   73.58
   0   5 -29  130.48   74.28
   0   5 -29   56.50  171.53
   0  -5  29 -118.08   71.79
   0  -5  29 -132.81  177.42
   1   5 -29  102.79   75.07
   1   5 -29 -384.70  171.63
  -1  -5  29 -414.73  187.87
  -1  -5  29  -39.03   78.85
   2   5 -29   34.47  182.34
   2   5 -29  114.83   85.71
  -2  -5  29 -179.45  199.68
   3   5 -29   31.86   75.79
   3   5 -29   -8.91  184.98
  -3  -5  29  -22.40  201.60
   4   5 -29 -265.49   83.42
   4   5 -29    9.22  188.99
  -4  -5  29  -62.26  206.77
   5   5 -29   16.65   87.96
   5   5 -29    9.56  190.33
  -5  -5  29   56.88  213.70
   6   5 -29 -288.09  197.91
   6   5 -29   39.98   83.16
  -6  -5  29   68.10  221.35
  -6  -5  29   -6.94   98.73
   6   4 -29  -88.67  190.87
   6   4 -29    5.73   87.71
  -6  -4  29   59.56  203.49
   6   3 -29 -191.17   89.49
   6   3 -29   59.74  198.76
  -6  -3  29   59.83  205.14
  -1   6 -29  -66.89   77.92
  -1   6 -29   77.51  165.12
   1  -6  29   64.36  175.87
   1  -6  29  -15.52   67.73
   0   6 -29  126.95   81.97
   0   6 -29  320.52  172.92
   0  -6  29   32.46   74.96
   0  -6  29 -323.15  192.23
   1   6 -29  390.45  174.99
   1   6 -29  159.18   88.09
  -1  -6  29 -163.21   77.77
  -1  -6  29  365.24  200.21
   2   6 -29  283.94  186.39
   2   6 -29    5.39   91.93
  -2  -6  29  329.32  205.39
  -2  -6  29   29.14   77.43
   3   6 -29   35.60  181.83
   3   6 -29    5.48   81.20
  -3  -6  29   15.24  204.49
  -3  -6  29   48.50   79.48
   4   6 -29   -9.21  187.57
   4   6 -29   39.12   86.55
  -4  -6  29 -309.91  224.10
  -4  -6  29    6.32   80.94
   5   6 -29  142.97  100.48
   5   6 -29   -9.56  193.17
  -5  -6  29   33.03   87.16
  -5  -6  29    8.30  218.60
   6   6 -29   -9.94  196.86
   6   6 -29  105.81   98.51
  -6  -6  29 -112.90  237.35
  -6  -6  29    6.93   92.72
   7   6 -29 1203.48  275.57
   7   6 -29  291.59  139.82
  -7  -6  29  692.89  310.08
   7   5 -29 -103.45  219.88
   7   5 -29 -170.10   95.31
  -7  -5  29  134.11  245.50
  -7  -5  29   -7.32   96.74
   7   4 -29   51.29  207.23
   7   4 -29   23.74   95.50
  -7  -4  29  143.02  234.64
   7   3 -29  -36.08   95.96
   7   3 -29  103.50  193.96
  -7  -3  29    8.96  214.05
  -1   7 -29  191.36  163.39
  -1   7 -29    5.33   76.14
   1  -7  29 -203.78  188.36
   1  -7  29   46.82   69.50
   0   7 -29  -87.97  168.42
   0   7 -29    5.44   80.15
   0  -7  29  147.11   74.15
   0  -7  29 -296.46  191.37
   1   7 -29  107.97  177.37
   1   7 -29   39.05   83.09
  -1  -7  29  -17.14   74.57
  -1  -7  29  128.65  200.68
   2   7 -29  180.57  187.16
   2   7 -29  -51.21   86.15
  -2  -7  29 -372.29  209.48
  -2  -7  29 -178.00   85.80
   3   7 -29  -79.96  182.28
   3   7 -29   28.99   84.27
  -3  -7  29 -248.05  211.20
  -3  -7  29    6.16   85.94
   4   7 -29    9.21  181.90
   4   7 -29  -41.35   89.12
  -4  -7  29  516.71  221.57
  -4  -7  29   19.25   91.68
   5   7 -29 -238.54  201.04
   5   7 -29    6.04   88.98
  -5  -7  29  -66.97   90.48
  -5  -7  29  117.91  235.55
   6   7 -29  235.59  120.24
   6   7 -29 1250.92  245.82
  -6  -7  29  496.95  294.86
  -6  -7  29    7.02  119.00
   7   7 -29   -6.40  101.17
   7   7 -29   10.35  209.96
  -7  -7  29  -65.13  267.47
  -7  -7  29 -125.55   96.77
   8   7 -29 -108.34  235.54
  -8  -7  29 -107.49  278.28
   8   6 -29  -97.78  234.71
  -8  -6  29   47.98  268.41
  -8  -5  29 -169.70  300.11
   8   4 -29 -192.90  238.38
   8   4 -29   -6.17   90.51
  -8  -4  29  -84.75  252.46
   8   3 -29   31.34   87.34
  -8  -3  29  122.52  245.75
  -1   8 -29   -5.57   84.67
   0   8 -29    8.05  174.12
   0   8 -29    5.72   86.79
   0  -8  29  -82.50   76.04
   0  -8  29 -401.07  190.65
   1   8 -29   11.81   86.74
   1   8 -29 -563.07  170.41
  -1  -8  29  266.31  203.46
  -1  -8  29 -138.90   78.68
   2   8 -29   -6.05   83.42
   2   8 -29  162.57  183.46
  -2  -8  29  -29.96  214.79
  -2  -8  29   -6.04   75.46
   3   8 -29  169.46   95.32
   3   8 -29  150.32  187.21
  -3  -8  29   -6.29   86.19
  -3  -8  29  350.35  223.89
   4   8 -29  -45.75  219.77
   4   8 -29   55.55   93.57
  -4  -8  29 -144.12   98.41
   5   8 -29   18.92   99.86
   5   8 -29    9.57  205.62
  -5  -8  29 -102.46   94.52
  -5  -8  29 -278.64  259.49
   6   8 -29   -9.94  214.86
   6   8 -29 -297.77  104.50
  -6  -8  29   -8.84  248.73
  -6  -8  29 -128.71   97.49
   7   8 -29 -269.85  208.65
   7   8 -29   -6.68   92.64
  -7  -8  29  -37.94  271.72
  -7  -8  29   15.01  103.18
   8   8 -29  -10.88  229.11
  -8  -8  29 -518.61  295.64
   9   7 -29  -11.48  246.12
  -9  -7  29   82.26  288.93
   9   6 -29  -53.43   94.95
   9   6 -29  -11.47  241.37
  -9  -6  29   40.47  271.90
  -9  -6  29    8.21  111.02
   9   5 -29  114.53  104.11
   9   5 -29  238.43  229.45
  -9  -5  29  -59.71  254.08
  -9  -5  29  -24.65  111.59
   9   4 -29   11.23  230.15
   9   4 -29   76.54   89.07
  -9  -4  29   79.53  256.13
   9   3 -29 -183.26  108.10
  -9  -3  29 -178.95  270.58
   0   9 -29  732.30  175.47
  -1  -9  29  122.23  317.73
  -1  -9  29  207.85  165.79
   2   9 -29  239.42  174.52
   2   9 -29 1380.97  273.36
  -2  -9  29  559.59  158.28
   3   9 -29   45.19  102.48
  -3  -9  29 -195.86   95.22
   4   9 -29    9.14  187.90
   4   9 -29  125.42   94.87
  -4  -9  29 -297.71  235.37
  -4  -9  29    6.58   86.38
   5   9 -29   -6.76   99.30
   5   9 -29 -436.41  187.03
  -5  -9  29  -58.80  239.33
  -5  -9  29   -6.86   93.41
   6   9 -29   20.81   96.13
   6   9 -29    9.94  206.34
  -6  -9  29    7.17  105.16
  -6  -9  29    8.78  244.32
   7   9 -29 -259.57  214.10
  -7  -9  29  -28.29  286.35
  10   6 -29  108.66  249.53
  10   5 -29   11.90  253.08
  10   5 -29    6.66  106.54
 -10  -5  29 -137.05  279.09
  10   4 -29    6.67   98.40
  10   4 -29  -11.79  227.28
 -10  -4  29   10.51  270.15
  10   3 -29  -47.79  105.40
 -10  -3  29  157.29  249.35
   0  10 -29   24.21  168.34
   0  10 -29  -20.34   95.94
   0 -10  29  -35.22   75.43
   0 -10  29 -159.83  202.53
   1  10 -29 -197.08   97.01
   1  10 -29  175.15  184.65
  -1 -10  29 -621.26  210.59
  -1 -10  29   54.90   76.68
   2  10 -29    8.60  184.40
   2  10 -29   55.95  103.70
  -2 -10  29   76.35   85.40
  -2 -10  29   59.88  221.53
   3  10 -29  266.18  195.94
   3  10 -29   21.49  100.33
  -3 -10  29 -145.54   83.74
  -3 -10  29 -116.49  223.51
   4  10 -29 -241.84  107.01
   4  10 -29  -82.58  193.22
  -4 -10  29  556.27  231.06
  -4 -10  29    6.87   93.67
   5  10 -29   94.42  105.97
   5  10 -29  -19.04  201.70
  -5 -10  29   93.04   96.59
  -5 -10  29 -117.54  236.06
   6  10 -29   29.86  209.30
  -6 -10  29 -184.16  256.43
  11   4 -29  136.33  244.60
 -11  -4  29  278.16  283.88
  11   3 -29   84.90  110.71
   0  11 -29   66.55   94.85
   0  11 -29  104.94  165.55
   0 -11  29   27.84  201.98
   0 -11  29  -25.19   78.37
   1  11 -29 -116.59  177.27
   1  11 -29   15.36  104.31
  -1 -11  29 -276.78   87.41
  -1 -11  29    7.22  216.85
   2  11 -29 -450.69  116.25
   2  11 -29  111.69  187.99
  -2 -11  29   89.18   88.89
  -2 -11  29 -344.61  222.34
   3  11 -29  -53.29  195.99
   3  11 -29 -329.98  105.26
  -3 -11  29 -364.95  223.05
  -3 -11  29   98.54   97.80
   4  11 -29    9.20  195.66
  -4 -11  29    7.32   91.45
  -4 -11  29  -72.72  228.72
   0  12 -29   56.54  106.94
   0  12 -29   23.98  175.48
   0 -12  29  294.35  209.48
   0 -12  29  -62.91   86.97
   1  12 -29    8.27  173.10
   1  12 -29  133.33  120.50
  -1 -12  29  152.70  209.66
  -1 -12  29    7.30   95.34
   2  12 -29  239.13  188.86
   2  12 -29   17.22  112.16
  -2 -12  29  196.37  228.16
  -2 -12  29  -29.96   94.18
   3  12 -29    8.84  201.97
  -3 -12  29  416.12  241.99
   1  13 -29 -181.47  179.29
  -1 -13  29  -79.91  216.95
  -1   3 -30   93.44   79.49
   0   3 -30   21.13   81.73
   1   3 -30   43.00   82.28
   2   3 -30   -5.48   84.37
  -2  -3  30  232.75  187.07
   3   3 -30   56.04   90.81
  -3  -3  30  368.99  206.63
   4   3 -30  -46.01   83.18
  -4  -3  30  224.88  208.50
  -1   4 -30   62.65   80.87
   1  -4  30  -20.75  175.48
   0   4 -30    8.67  179.71
   0   4 -30 -159.53   86.43
   0  -4  30 -193.26  183.85
   1   4 -30  366.19  201.34
   1   4 -30   37.86   87.37
  -1  -4  30 -118.47  195.90
   2   4 -30 -854.48  206.07
   2   4 -30 -148.51   93.80
  -2  -4  30    7.67  205.36
   3   4 -30  -37.86  195.77
   3   4 -30   95.31   79.56
  -3  -4  30  214.98  208.48
   4   4 -30  117.20  184.04
   4   4 -30    5.73   89.55
  -4  -4  30  331.45  202.48
   5   4 -30   30.32  205.28
   5   4 -30    5.88   91.85
  -5  -4  30  103.68  224.66
   5   3 -30  118.55   83.86
  -5  -3  30   34.66  207.76
  -1   5 -30  124.85   80.96
  -1   5 -30  131.22  175.35
   1  -5  30  497.80  184.54
   1  -5  30   -5.39   74.75
   0   5 -30  -63.70   82.95
   0   5 -30   -8.54  169.74
   0  -5  30  190.85  189.91
   0  -5  30  -44.99   77.09
   1   5 -30   16.30   88.98
   1   5 -30 -513.81  187.21
  -1  -5  30 -264.47  200.63
  -1  -5  30  -81.88   85.18
   2   5 -30  126.95   87.95
   2   5 -30  275.09  194.79
  -2  -5  30 -274.70  208.35
   3   5 -30 -170.80  191.51
   3   5 -30 -179.65   83.03
  -3  -5  30  277.83  211.23
   4   5 -30    9.82  188.74
   4   5 -30   63.00   92.88
  -4  -5  30 -140.53  206.32
   5   5 -30   10.18  200.00
   5   5 -30  -29.34   89.45
  -5  -5  30 -483.63  218.96
   6   5 -30  -10.57  217.61
   6   5 -30   -6.04  102.07
  -6  -5  30 -271.17  258.64
  -6  -5  30    7.29  104.25
   6   4 -30    6.06   90.21
   6   4 -30  -20.97  207.76
  -6  -4  30  -27.10  229.32
   6   3 -30  153.37   94.16
  -6  -3  30 -126.66  214.62
  -1   6 -30  525.82  197.14
   0   6 -30  100.96   84.66
   0   6 -30 -317.35  173.07
   0  -6  30  -45.40   73.16
   0  -6  30 -427.06  190.02
   1   6 -30  -39.34   89.56
   1   6 -30    8.91  187.05
  -1  -6  30   -7.43  201.62
  -1  -6  30   -5.90   83.70
   2   6 -30    5.71   86.25
   2   6 -30   27.69  200.48
  -2  -6  30   85.35  203.41
  -2  -6  30   -6.11   77.23
   3   6 -30  105.04  197.05
   3   6 -30  -11.61   92.35
  -3  -6  30    6.36   83.76
  -3  -6  30    8.09  214.97
   4   6 -30    9.82  192.91
   4   6 -30   -5.91   89.97
  -4  -6  30  139.23   94.98
  -4  -6  30 -354.07  226.34
   5   6 -30   36.29  112.73
  -5  -6  30  -44.00  243.77
  -5  -6  30  -34.67   96.55
   6   6 -30  -10.66  222.47
   6   6 -30 -310.74  109.04
  -6  -6  30    7.27   97.36
  -6  -6  30 -313.06  248.62
   7   6 -30 -155.70  218.45
   7   6 -30   -6.42   96.74
  -7  -6  30 -154.36  271.02
  -7  -6  30    7.66  105.21
   7   5 -30  385.23  228.06
   7   5 -30   37.21   90.94
  -7  -5  30   -9.50  251.70
  -7  -5  30    7.69  106.78
   7   4 -30 1355.95  273.29
  -7  -4  30 1061.65  405.61
   7   3 -30 -261.15  113.07
  -7  -3  30 -170.68  253.94
   0   7 -30   23.10   84.99
   0   7 -30  -77.20  181.75
   0  -7  30   43.56  204.47
   0  -7  30 -108.69   72.64
   1   7 -30 -247.57  184.12
   1   7 -30    5.92   90.14
  -1  -7  30  258.47  214.37
  -1  -7  30  179.75   82.85
   2   7 -30 -201.14  182.51
   2   7 -30   18.09   88.29
  -2  -7  30  -87.27  228.37
  -2  -7  30   -6.22   82.60
   3   7 -30 -153.46  106.03
  -3  -7  30  -45.27  103.00
  -3  -7  30 -677.75  254.21
   4   7 -30 1920.58  439.73
   5   7 -30   12.78   92.76
   5   7 -30 -162.75  210.44
  -5  -7  30    7.03   92.25
  -5  -7  30    8.98  235.04
   6   7 -30  -63.49  218.46
   6   7 -30    6.56   88.51
  -6  -7  30  -29.47  105.46
  -6  -7  30   -9.37  254.95
   7   7 -30  128.55  104.08
   7   7 -30  -44.53  231.62
  -7  -7  30  -88.37  264.00
  -7  -7  30   54.28  108.18
   8   7 -30 -198.47  255.27
  -8  -7  30  135.15  290.74
   8   6 -30   11.63  236.74
  -8  -6  30 -679.89  285.96
   8   5 -30   11.49  233.22
  -8  -5  30  -10.00  259.82
   8   4 -30   11.40  232.74
  -8  -4  30    9.97  265.19
  -8  -3  30 -149.27  256.88
   1   8 -30 4275.53  875.95
  -2  -8  30 -412.21  113.88
   3   8 -30   89.76   95.47
   3   8 -30    9.51  204.14
  -3  -8  30   -6.60   93.10
  -3  -8  30 -829.84  241.61
   4   8 -30  241.75  101.37
   4   8 -30 -275.46  214.50
  -4  -8  30    6.87   95.59
  -4  -8  30 -378.69  244.67
   5   8 -30 -285.59  221.70
   5   8 -30    6.68   97.50
  -5  -8  30    7.20   92.99
  -5  -8  30 -293.65  259.04
   6   8 -30   -6.85   99.79
   6   8 -30   10.60  211.40
  -6  -8  30 -488.74  261.39
  -6  -8  30   22.63  110.65
   7   8 -30 -200.62  223.08
  -7  -8  30 -130.45  284.34
   9   5 -30   26.90  100.53
   9   5 -30 -432.71  256.37
  -9  -5  30  -63.45  278.81
  -9  -5  30   -8.63  104.52
   9   4 -30   -6.75  104.26
   9   4 -30 -107.56  239.19
  -9  -4  30  -10.52  266.69
   9   3 -30   48.48  107.46
  -9  -3  30 -104.91  245.18
   0   9 -30    6.48   95.08
   0   9 -30   34.37  179.08
   0  -9  30  -57.78   79.58
   0  -9  30 -442.66  216.79
   1   9 -30   19.50   94.69
   1   9 -30   26.70  190.84
  -1  -9  30 -230.08   90.12
  -1  -9  30  -46.94  228.40
   2   9 -30   -6.69   98.71
   2   9 -30    9.21  190.32
  -2  -9  30   38.21   85.84
  -2  -9  30   97.48  235.80
   3   9 -30 -123.31  103.94
   3   9 -30   -9.51  197.36
  -3  -9  30   33.16   86.35
  -3  -9  30  151.87  243.72
   4   9 -30   42.00  101.14
   4   9 -30   39.29  207.91
  -4  -9  30  -34.58  102.61
  -4  -9  30  789.82  251.55
   5   9 -30  193.42  220.20
   5   9 -30   -7.17  103.71
  -5  -9  30   57.67  100.30
  -5  -9  30 -228.56  258.80
   6   9 -30  -95.40  220.01
  -6  -9  30 -105.26  276.22
  10   4 -30  -12.53  250.46
 -10  -4  30   11.13  282.35
   0  10 -30  206.54  188.10
   0  10 -30  -69.32  103.51
   0 -10  30 -187.07  224.25
   0 -10  30  -18.42   79.28
   1  10 -30 -129.68  113.06
   1  10 -30   26.72  194.09
  -1 -10  30  115.04   82.05
  -1 -10  30 -194.46  222.28
   2  10 -30   -9.19  204.78
   2  10 -30 -311.39  112.54
  -2 -10  30    6.67   87.76
  -2 -10  30 -137.33  238.07
   3  10 -30  939.05  220.06
   3  10 -30    7.59  111.91
  -3 -10  30 -293.34  247.50
  -3 -10  30  138.65   98.64
   4  10 -30  142.79  114.93
   4  10 -30    9.81  199.70
  -4 -10  30 -427.05  259.20
  -4 -10  30    7.21   92.34
   0  11 -30    8.64  184.21
   0  11 -30 -194.95  112.35
   0 -11  30    6.57   86.37
   1  11 -30  187.76  193.33
   1  11 -30    8.11  120.11
  -1 -11  30  -20.65   89.66
  -1 -11  30 -288.94  229.67
   2  11 -30    8.11  109.22
   2  11 -30  461.67  199.50
  -2 -11  30   -7.17   98.19
  -2 -11  30  283.67  236.05
   3  11 -30  104.88  209.95
  -3 -11  30 -132.77   79.80
  -3 -11  30 -134.56  236.64
   1  12 -30  140.58  112.41
   1  12 -30    8.91  191.60
  -1 -12  30    7.49   94.39
  -1 -12  30  335.41  234.48
  -1   3 -31  328.26  111.78
   0   3 -31    5.57   87.46
   1   3 -31   90.81   94.68
   2   3 -31   46.31   89.06
   3   3 -31   -5.92   89.86
   4   3 -31  -85.17   91.50
  -1   4 -31   11.00   88.14
   0   4 -31 -190.67   95.64
   0  -4  31 -522.73  206.66
   1   4 -31  151.74  187.09
   1   4 -31   62.76   90.16
  -1  -4  31    7.85  195.47
   2   4 -31    9.78  197.02
   2   4 -31    5.80   92.26
  -2  -4  31  260.55  209.84
   3   4 -31   41.43   95.32
   3   4 -31   70.54  194.02
  -3  -4  31  507.20  217.92
   4   4 -31  -72.64   98.77
   4   4 -31  603.33  209.95
  -4  -4  31  246.24  225.02
   5   4 -31   68.37  105.17
   5   4 -31  -10.76  236.14
  -5  -4  31  -27.48  242.69
   5   3 -31   62.80  105.89
  -1   5 -31  214.39   88.35
   0   5 -31   -9.03  175.89
   0   5 -31  -89.74   79.54
   0  -5  31 -129.60   85.97
   0  -5  31  384.56  201.18
   1   5 -31 -646.15  190.10
   1   5 -31  108.32   89.67
  -1  -5  31 -141.07  208.72
  -1  -5  31   24.52   87.10
   2   5 -31  -40.81   86.66
   2   5 -31    9.70  190.12
  -2  -5  31    6.37   84.05
  -2  -5  31 -276.41  217.14
   3   5 -31 -112.70   91.29
   3   5 -31  -10.05  195.50
  -3  -5  31 -329.82  224.59
   4   5 -31  -30.27   98.95
   4   5 -31  -20.82  226.41
   5   5 -31 -111.62   95.72
   5   5 -31  -32.36  241.92
  -5  -5  31   -7.28  101.26
  -5  -5  31 -183.88  271.27
   6   5 -31 -246.50  212.57
   6   5 -31   -6.34   86.22
  -6  -5  31    9.62  252.30
  -6  -5  31    7.66  110.66
   6   4 -31 -314.16  101.23
   6   4 -31  -11.17  234.65
  -6  -4  31 -939.60  269.73
   6   3 -31  688.48  198.23
   0   6 -31 -172.02   98.69
   0  -6  31  -11.89   83.33
   0  -6  31 -128.24  207.66
  -1  -6  31   -7.87  227.88
  -1  -6  31  -74.25   90.69
   2   6 -31 -326.03  118.98
   2   6 -31 -579.00  250.79
  -2  -6  31 -352.51  110.03
   3   6 -31 2370.86  565.36
  -3  -6  31 3430.37  580.27
   4   6 -31  -10.54  224.29
   4   6 -31  -56.25  107.19
  -4  -6  31 -883.23  261.80
  -4  -6  31   -6.96  100.33
   5   6 -31  -10.93  221.75
   5   6 -31  -44.76  107.18
  -5  -6  31  101.91  103.78
  -5  -6  31  -55.92  242.09
   6   6 -31  147.58  237.03
   6   6 -31 -124.86  111.47
  -6  -6  31    7.64  108.83
  -6  -6  31  -19.49  251.34
   7   6 -31   11.82  243.13
  -7  -6  31 -153.52  284.03
   7   5 -31  -65.59  104.01
   7   5 -31  -11.65  233.20
  -7  -5  31 -169.80  112.09
  -7  -5  31  -50.55  269.51
   7   4 -31   58.13  230.65
   7   4 -31   26.56   97.81
  -7  -4  31  130.70  260.30
   0   7 -31 -269.29  114.18
   0  -7  31 -143.88   95.11
   1   7 -31 -256.94  110.38
  -1  -7  31 -207.25   95.36
   2   7 -31 -108.39  205.71
   2   7 -31   31.92   96.87
  -2  -7  31   19.57   87.46
  -2  -7  31 -708.90  239.24
   3   7 -31    6.49   99.72
   3   7 -31  -10.20  209.47
  -3  -7  31  149.50  254.39
  -3  -7  31    6.78   95.38
   4   7 -31  169.04  221.45
   4   7 -31   26.45  102.64
  -4  -7  31    7.07   96.06
  -4  -7  31  229.08  259.20
   5   7 -31   10.96  225.73
   5   7 -31   20.27  102.00
  -5  -7  31   -7.38   96.18
  -5  -7  31    9.56  253.97
   6   7 -31   76.27  101.10
   6   7 -31   11.39  226.66
  -6  -7  31   -7.73  103.68
  -6  -7  31 -409.91  274.58
   8   5 -31  -97.28  247.57
  -8  -5  31   96.03  272.01
   8   4 -31   12.13  236.97
  -8  -4  31   95.17  275.11
   0   8 -31   25.80   95.04
   0   8 -31 -264.92  185.14
   0  -8  31  -60.65   76.51
   0  -8  31 -269.97  222.41
   1   8 -31   13.30  100.12
   1   8 -31   19.03  192.24
  -1  -8  31    6.37   80.77
  -1  -8  31 -332.53  239.56
   2   8 -31 -581.98  209.55
   2   8 -31    6.67  102.07
  -2  -8  31  -19.94   89.96
  -2  -8  31 -173.42  251.33
   3   8 -31 -173.54  203.27
   3   8 -31    6.79   96.74
  -3  -8  31   34.64   88.32
  -3  -8  31  358.33  255.27
   4   8 -31   69.17  102.91
   4   8 -31  -10.56  217.22
  -4  -8  31  178.51  262.72
  -4  -8  31 -173.87   97.88
   5   8 -31   54.76  227.68
   5   8 -31  -56.51   96.13
  -5  -8  31    9.79  270.49
  -5  -8  31   30.24   98.92
   0   9 -31   55.22  196.23
   0   9 -31  -61.87  105.47
   0  -9  31 -317.81  235.28
   0  -9  31    6.05   76.88
   1   9 -31  296.52  211.68
   1   9 -31 -172.46   99.58
  -1  -9  31   25.39   89.29
  -1  -9  31 -149.74  231.02
   2   9 -31  475.18  219.43
   2   9 -31 -141.89  110.40
  -2  -9  31   13.36   85.60
  -2  -9  31 -441.46  251.57
   3   9 -31  123.41  114.47
   3   9 -31  143.29  216.70
  -3  -9  31   -6.96   90.75
  -3  -9  31   44.98  251.83
   4   9 -31   52.90  227.54
   4   9 -31   66.80  108.94
  -4  -9  31    7.25   97.45
  -4  -9  31  103.01  260.10
   0  10 -31   51.38  105.72
   1  10 -31   -7.63  110.21
   1  10 -31  601.60  197.86
  -1 -10  31 -124.12  244.32
  -1 -10  31  -53.52   83.02
   2  10 -31    7.85  120.67
   2  10 -31    9.87  205.10
  -2 -10  31  -34.42  247.01
  -2 -10  31    6.98   90.82
   3  10 -31   10.21  216.93
  -3 -10  31  223.43  269.76
   1  11 -31   57.15  191.42
   1  11 -31    8.57  108.75
  -1 -11  31   28.73   97.72
  -1 -11  31 -454.01  239.73
   2  11 -31  364.61  201.52
  -2 -11  31 -403.13  249.08
  -1   3 -32   57.62   86.34
   0   3 -32  -93.96   94.61
   1   3 -32   11.97   94.38
   2   3 -32   24.47   85.57
   0   4 -32 -124.04   92.29
   1   4 -32 -330.52  118.54
  -1  -4  32 -456.31  234.48
   2   4 -32   48.96  100.38
  -2  -4  32 -931.49  247.66
  -3  -4  32 2453.87  501.36
   4   4 -32   11.06  225.51
   4   4 -32 -409.07  117.13
  -4  -4  32 -559.32  258.10
   5   4 -32   34.34  220.04
   5   4 -32   92.00  100.54
  -5  -4  32   29.16  228.56
   0   5 -32 -134.32  216.54
   0  -5  32   61.63   89.81
  -1  -5  32  -64.19   98.20
  -1  -5  32 1147.06  248.11
   2   5 -32 -803.14  229.20
   2   5 -32 -171.13  105.69
  -2  -5  32   33.41  101.13
   3   5 -32   63.91  217.26
   3   5 -32  250.54  101.21
  -3  -5  32   34.84  102.44
  -3  -5  32  207.43  236.00
   4   5 -32    6.39   87.21
   4   5 -32  -11.03  209.79
  -4  -5  32   58.29  104.76
  -4  -5  32 -141.02  236.34
   5   5 -32  -71.63  102.17
   5   5 -32   11.43  219.24
  -5  -5  32 -255.19  251.65
  -5  -5  32   53.53  105.81
   6   5 -32   20.12  101.82
   6   5 -32  -47.50  238.01
  -6  -5  32   -8.05  118.95
  -6  -5  32   82.17  273.27
   6   4 -32   11.87  234.78
   6   4 -32  -54.28  104.89
  -6  -4  32  -30.49  250.57
   0   6 -32   19.21  189.25
   0   6 -32   -6.26   94.52
   0  -6  32 -135.95  220.87
   0  -6  32  -24.87   84.40
   1   6 -32   -6.28   93.98
   1   6 -32 -381.00  208.72
  -1  -6  32  776.58  234.25
  -1  -6  32   90.71   96.67
   2   6 -32   83.41  207.69
   2   6 -32 -197.65  101.97
  -2  -6  32   60.97  230.54
  -2  -6  32    6.71   92.70
   3   6 -32  110.19  124.73
   3   6 -32  486.61  229.34
  -3  -6  32  591.40  250.10
   4   6 -32   22.42  236.03
   4   6 -32  132.12  112.68
  -4  -6  32    7.29   95.49
  -4  -6  32  246.73  258.55
   5   6 -32 -101.37  115.69
   5   6 -32   11.63  228.69
  -5  -6  32    7.63  104.99
  -5  -6  32   99.10  261.54
   6   6 -32  -12.08  249.55
  -6  -6  32  217.51  282.83
   7   5 -32   24.74  260.01
  -7  -5  32  150.93  286.11
  -7  -4  32   31.96  276.35
   0   7 -32    9.73  202.62
   0   7 -32   -6.47   99.06
   0  -7  32   56.99  222.71
   0  -7  32  -50.20   84.99
   1   7 -32 -741.31  205.22
   1   7 -32    6.63  100.15
  -1  -7  32    8.55  236.58
  -1  -7  32  -46.03   85.91
   2   7 -32  -10.54  218.11
   2   7 -32  114.75   99.50
  -2  -7  32   53.61  248.28
  -2  -7  32    6.83   91.18
   3   7 -32  142.15  230.08
   3   7 -32 -151.09  104.94
  -3  -7  32   -7.11   96.63
  -3  -7  32  205.09  252.33
   4   7 -32  -11.25  224.64
   4   7 -32   -6.99   99.68
  -4  -7  32 -184.66  270.38
  -4  -7  32    7.41  100.98
   5   7 -32   11.75  245.69
   5   7 -32   -7.14   92.18
  -5  -7  32  527.39  270.73
   0   8 -32    9.79  198.73
   0   8 -32   82.01  101.17
   1   8 -32  -20.37  205.71
   1   8 -32   49.29  108.12
  -1  -8  32 -122.50  239.79
  -1  -8  32   -6.67   91.91
   2   8 -32 -112.88  106.32
   2   8 -32  -10.50  221.52
  -2  -8  32 -374.93  270.66
  -2  -8  32 -209.23   97.65
   3   8 -32   -7.18  104.07
   3   8 -32  -10.86  229.23
  -3  -8  32  -28.60  268.15
  -3  -8  32  -87.13   94.57
   4   8 -32   11.25  228.71
   4   8 -32   -7.32   93.85
  -4  -8  32  248.21  280.96
   1   9 -32   58.47  106.21
   1   9 -32  518.19  221.74
  -1  -9  32  -19.93   90.64
  -1  -9  32 -377.42  249.93
   2   9 -32  225.63  111.90
   2   9 -32  -63.21  222.14
  -2  -9  32 -524.99  267.92
  -2  -9  32 -280.15   97.46
   3   9 -32  196.07  227.81
  -3  -9  32    7.30   92.02
  -3  -9  32  341.43  285.45
   1  10 -32  304.81  211.66
   1  10 -32  274.69  124.67
  -1 -10  32  -28.00   99.74
  -1 -10  32 -180.01  261.49
   2  10 -32 -347.49  221.91
  -2 -10  32   84.27  263.68
   0   4 -33 -180.15   96.58
   1   4 -33   25.32   96.69
   2   4 -33    6.45   96.98
   3   4 -33   92.29  107.09
  -3  -4  33  369.40  236.67
   4   4 -33 -108.07  103.39
  -4  -4  33  256.47  256.43
   5   4 -33   20.86  102.30
  -5  -4  33   10.29  252.27
   0   5 -33  142.06  202.45
   0   5 -33 -149.55   88.95
   0  -5  33   12.88   81.95
   0  -5  33   59.00  215.64
   1   5 -33  221.73  209.71
   1   5 -33  -25.36   86.62
  -1  -5  33    8.80  224.68
  -1  -5  33    6.72   91.28
   2   5 -33  -70.89  101.43
   2   5 -33   87.66  215.91
  -2  -5  33  -18.34  242.69
  -2  -5  33    7.00   89.58
   3   5 -33  151.01  105.24
   3   5 -33   11.35  229.98
  -3  -5  33    7.31   99.16
  -3  -5  33  162.56  255.61
   4   5 -33  -11.75  231.24
   4   5 -33    6.71   94.01
  -4  -5  33   -7.65  115.61
  -4  -5  33 -548.32  271.79
   5   5 -33  -12.18  240.85
  -5  -5  33   48.22  110.14
  -5  -5  33 -416.46  270.89
  -6  -4  33 -656.27  278.53
   0   6 -33   10.11  209.42
   0   6 -33  138.69  101.23
   0  -6  33   -6.50   81.95
   1   6 -33   95.13  217.17
   1   6 -33    6.63   98.19
  -1  -6  33    6.77   87.68
  -1  -6  33  301.61  234.96
   2   6 -33   33.07  227.54
   2   6 -33 -114.48   92.47
  -2  -6  33  -64.82  236.87
  -2  -6  33    7.03   97.41
   3   6 -33 -116.33   97.91
   3   6 -33   34.34  220.73
  -3  -6  33  -57.96  264.87
  -3  -6  33  -36.63   99.95
   4   6 -33   55.82  115.89
   4   6 -33 -344.52  245.57
  -4  -6  33 -241.99  270.72
  -4  -6  33  -61.20   99.97
   5   6 -33   12.33  248.46
   0   7 -33  102.49  108.93
   1   7 -33   -7.00  106.98
   1   7 -33 -376.25  230.50
  -1  -7  33 -550.50  251.89
  -1  -7  33 -130.73   91.03
   2   7 -33   71.29   98.01
   2   7 -33  179.26  232.07
  -2  -7  33 -292.57  252.65
  -2  -7  33    7.15   96.81
   3   7 -33   -7.25  102.90
   3   7 -33  442.21  243.04
  -3  -7  33  197.03  262.94
  -3  -7  33 -171.30   99.21
   4   7 -33   12.07  241.03
  -4  -7  33  143.90  286.64
   1   8 -33  -52.12  117.72
   1   8 -33   10.84  223.20
  -1  -8  33   13.98   99.11
  -1  -8  33  316.08  254.94
   2   8 -33  169.07  233.27
   2   8 -33  -29.84  107.69
  -2  -8  33  -51.10   96.52
  -2  -8  33 -243.14  268.35
   3   8 -33   11.69  240.65
  -3  -8  33  284.04  288.99
   1   9 -33 -100.64  115.16
   1   9 -33   10.84  223.01
  -1  -9  33  696.82  281.19
  -1  -9  33   42.09   98.89
   0   4 -34    6.52   96.89
   1   4 -34   86.58  103.14
   2   4 -34   20.40  101.76
   3   4 -34   62.61  114.46
   4   4 -34   64.26  111.57
   0   5 -34   78.64   99.25
   1   5 -34   -6.68   99.17
  -1  -5  34    9.30  238.07
  -1  -5  34   14.05   95.65
   2   5 -34    6.80   99.13
  -2  -5  34 -126.32  248.57
  -2  -5  34   -7.33   97.75
   3   5 -34 -397.86  236.07
   3   5 -34  -76.21  106.60
  -3  -5  34    7.66  104.93
  -3  -5  34 -314.26  255.12
   4   5 -34  312.58  254.71
  -4  -5  34  -95.25  250.92
   1   6 -34  -20.94  110.51
   1   6 -34 -682.90  230.04
  -1  -6  34 -188.56  238.64
  -1  -6  34   14.16   94.57
   2   6 -34   28.40  102.85
   2   6 -34 -850.60  231.34
  -2  -6  34   -7.38  100.99
  -2  -6  34  315.67  262.36
   3   6 -34   12.11  239.57
  -3  -6  34  -10.31  278.08
   1   7 -34  614.33  242.27
   1   7 -34   51.64  114.97
  -1  -7  34  -57.53   97.37
  -1  -7  34 -162.30  255.31
   2   7 -34  -15.04  107.42
   2   7 -34  356.32  236.03
  -2  -7  34 -149.95  266.30
  -2  -7  34    7.49   98.46
   1   8 -34    7.86   95.86
   1   8 -34 -589.61  246.51
  -1  -8  34  -39.19  270.33
  -1  -8  34   -7.29  104.70
   1   4 -35    7.00  106.83
   1   5 -35  -70.23  108.95
  -1  -5  35   29.34  104.20
  -1  -5  35    9.81  238.28
  -2  -5  35   15.34  111.01
  -2  -5  35 -369.32  264.60
   1   6 -35 -450.76  241.71
   1   6 -35    7.46  108.49
  -1  -6  35  -59.78  262.39
  -1  -6  35   -7.39  101.33
   2   6 -35  445.91  264.22
  -2  -6  35  -41.76  283.35
   1   7 -35  -95.73  234.45
  -1  -7  35  -10.12  263.96
   0   0   0    0.00    0.00
;
_shelx_hkl_checksum              20247
_shelx_fab_checksum              97160
_shelx_fab_file
;
    0    2    0   -177.32      0.00
    1    2    0    281.83      0.00
    1    3    0     12.50      0.00
    2    3    0    142.06      0.00
    0    4    0     20.98      0.00
    1    4    0     63.82      0.00
    2    4    0     44.46      0.00
    3    4    0     -1.80      0.00
    1    5    0    -55.11      0.00
    2    5    0     32.40      0.00
    3    5    0      7.95      0.00
    0    6    0     31.78      0.00
    1    6    0    -65.33      0.00
    2    6    0     59.51      0.00
    3    6    0    -10.45      0.00
    4    6    0      6.32      0.00
    1    7    0      9.96      0.00
    2    7    0    -22.98      0.00
    3    7    0     51.45      0.00
    4    7    0     27.96      0.00
    0    8    0     -8.63      0.00
    1    8    0    -11.52      0.00
    2    8    0     -7.50      0.00
    3    8    0     -6.11      0.00
    4    8    0      1.15      0.00
    5    8    0    -27.14      0.00
    1    9    0     10.47      0.00
    2    9    0     14.33      0.00
    3    9    0     -2.65      0.00
    4    9    0      9.88      0.00
    5    9    0      7.98      0.00
    0   10    0     -0.29      0.00
    1   10    0     -1.10      0.00
    2   10    0      3.59      0.00
    3   10    0      5.07      0.00
    4   10    0     -4.58      0.00
    5   10    0     13.82      0.00
    6   10    0     11.56      0.00
    1   11    0     -4.72      0.00
    2   11    0     13.15      0.00
    3   11    0     11.28      0.00
    4   11    0     -9.43      0.00
    5   11    0     -4.89      0.00
    6   11    0     11.28      0.00
    0   12    0    -22.80      0.00
    1   12    0      1.13      0.00
    2   12    0     -1.71      0.00
    3   12    0     19.37      0.00
    4   12    0      9.51      0.00
    5   12    0      8.03      0.00
    6   12    0     10.97      0.00
    1   13    0    -10.87      0.00
    2   13    0     22.27      0.00
    3   13    0      9.06      0.00
    4   13    0      3.35      0.00
    5   13    0    -10.50      0.00
    0   14    0    -11.87      0.00
    1   14    0     -5.26      0.00
    2   14    0     13.13      0.00
    3   14    0    -14.23      0.00
    4   14    0     -5.37      0.00
    5   14    0     -4.89      0.00
    6   14    0    -11.11      0.00
    7   14    0    -18.65      0.00
    1   15    0     -9.60      0.00
    2   15    0     -8.78      0.00
    3   15    0     -5.96      0.00
    4   15    0      2.71      0.00
    5   15    0     10.04      0.00
    6   15    0    -31.12      0.00
    7   15    0    -22.26      0.00
    0   16    0    -13.14      0.00
    1   16    0     -2.25      0.00
    2   16    0     11.14      0.00
    3   16    0     -6.87      0.00
    4   16    0    -16.81      0.00
    5   16    0     13.80      0.00
    6   16    0    -11.33      0.00
    7   16    0     -0.06      0.00
    1   17    0     16.22      0.00
    2   17    0      0.70      0.00
    3   17    0      3.25      0.00
    4   17    0     -3.83      0.00
    5   17    0    -17.93      0.00
    6   17    0     -6.67      0.00
    7   17    0    -15.70      0.00
    0   18    0    -16.00      0.00
    1   18    0    -17.58      0.00
    2   18    0     11.83      0.00
    3   18    0     27.49      0.00
    4   18    0      4.02      0.00
    5   18    0      1.66      0.00
    6   18    0     30.75      0.00
    7   18    0     -2.67      0.00
    1   19    0     47.57      0.00
    2   19    0    -16.02      0.00
    3   19    0     -4.57      0.00
    4   19    0      7.45      0.00
    5   19    0    -16.92      0.00
    6   19    0    -25.26      0.00
    7   19    0    -41.20      0.00
    0   20    0     -1.45      0.00
    1   20    0    -34.46      0.00
    2   20    0     14.00      0.00
    3   20    0     17.85      0.00
    4   20    0     14.06      0.00
    5   20    0      0.88      0.00
    6   20    0     20.81      0.00
    1    2    1     64.05      0.00
    0    3    1    -62.02      0.00
    1    3    1    155.48      0.00
    2    3    1     22.62      0.00
    1    4    1     12.00      0.00
    2    4    1     37.06      0.00
    3    4    1     28.78      0.00
    0    5    1     10.33      0.00
    1    5    1     -5.05      0.00
    2    5    1     40.93      0.00
    3    5    1    -13.56      0.00
    1    6    1     19.05      0.00
    2    6    1    -52.94      0.00
    3    6    1      2.55      0.00
    4    6    1     22.45      0.00
    0    7    1    -37.76      0.00
    1    7    1    -17.37      0.00
    2    7    1     11.38      0.00
    3    7    1     15.62      0.00
    4    7    1      0.68      0.00
    5    7    1     -2.36      0.00
    1    8    1    -10.65      0.00
    2    8    1     -0.56      0.00
    3    8    1    -18.70      0.00
    4    8    1      3.78      0.00
    5    8    1     24.83      0.00
    0    9    1      5.33      0.00
    1    9    1      8.80      0.00
    2    9    1     -7.09      0.00
    3    9    1     -1.90      0.00
    4    9    1     10.01      0.00
    5    9    1      7.44      0.00
    1   10    1      5.84      0.00
    2   10    1     -0.17      0.00
    3   10    1     -8.41      0.00
    4   10    1      3.30      0.00
    5   10    1    -17.34      0.00
    6   10    1      5.79      0.00
    0   11    1      5.08      0.00
    1   11    1      2.80      0.00
    2   11    1    -12.97      0.00
    3   11    1     -9.79      0.00
    4   11    1     11.67      0.00
    5   11    1     -3.41      0.00
    6   11    1     -5.08      0.00
    1   12    1      1.33      0.00
    2   12    1      0.09      0.00
    3   12    1      8.97      0.00
    4   12    1    -12.53      0.00
    5   12    1      7.29      0.00
    6   12    1      5.98      0.00
    0   13    1     -2.31      0.00
    1   13    1     10.83      0.00
    2   13    1     -2.79      0.00
    3   13    1    -10.71      0.00
    4   13    1      1.10      0.00
    5   13    1     -0.93      0.00
    6   13    1    -30.46      0.00
    7   13    1      7.46      0.00
    1   14    1     32.52      0.00
    2   14    1      6.77      0.00
    3   14    1      0.24      0.00
    4   14    1     24.06      0.00
    5   14    1      9.01      0.00
    6   14    1     16.67      0.00
    7   14    1     19.82      0.00
    0   15    1     -0.38      0.00
    1   15    1    -37.66      0.00
    2   15    1     -6.68      0.00
    3   15    1      3.67      0.00
    4   15    1     -3.32      0.00
    5   15    1      2.83      0.00
    6   15    1      1.57      0.00
    7   15    1     16.81      0.00
    1   16    1     12.45      0.00
    2   16    1      1.10      0.00
    3   16    1     10.16      0.00
    4   16    1      4.88      0.00
    5   16    1     -7.39      0.00
    6   16    1      3.02      0.00
    7   16    1     -9.59      0.00
    0   17    1     14.75      0.00
    1   17    1     -2.27      0.00
    2   17    1    -16.35      0.00
    3   17    1     14.42      0.00
    4   17    1      3.47      0.00
    5   17    1    -30.61      0.00
    6   17    1     21.18      0.00
    7   17    1     -6.99      0.00
    1   18    1    -11.57      0.00
    2   18    1     -7.41      0.00
    3   18    1     13.78      0.00
    4   18    1      7.53      0.00
    5   18    1    -10.34      0.00
    6   18    1     54.38      0.00
    7   18    1    -24.79      0.00
    0   19    1     58.71      0.00
    1   19    1     70.77      0.00
    2   19    1    -33.79      0.00
    3   19    1     -3.97      0.00
    4   19    1     -4.00      0.00
    5   19    1     -3.14      0.00
    6   19    1      1.78      0.00
    7   19    1    -11.25      0.00
    1   20    1     -4.67      0.00
    2   20    1    -16.19      0.00
    3   20    1     -2.50      0.00
    4   20    1     -1.69      0.00
    5   20    1    -10.96      0.00
    6   20    1      3.03      0.00
    1    1    2   -583.67      0.00
    0    2    2     26.02      0.00
    1    2    2   -108.27      0.00
    2    2    2     52.49      0.00
    1    3    2     12.80      0.00
    2    3    2    -50.61      0.00
    3    3    2    -63.95      0.00
    0    4    2     13.31      0.00
    1    4    2     43.07      0.00
    2    4    2    -23.41      0.00
    3    4    2    -22.99      0.00
    1    5    2     -3.03      0.00
    2    5    2    -28.90      0.00
    3    5    2    -13.67      0.00
    0    6    2    -33.91      0.00
    1    6    2    -12.94      0.00
    2    6    2     32.81      0.00
    3    6    2     -6.49      0.00
    4    6    2      4.92      0.00
    1    7    2    -31.42      0.00
    2    7    2      6.22      0.00
    3    7    2      7.04      0.00
    4    7    2      3.47      0.00
    5    7    2     -9.33      0.00
    0    8    2    -17.38      0.00
    1    8    2      3.33      0.00
    2    8    2    -16.56      0.00
    3    8    2      2.50      0.00
    4    8    2      5.39      0.00
    5    8    2     -9.56      0.00
    1    9    2     10.14      0.00
    2    9    2     -3.22      0.00
    3    9    2      0.55      0.00
    4    9    2      1.37      0.00
    5    9    2      2.85      0.00
    6    9    2     11.72      0.00
    0   10    2     11.59      0.00
    1   10    2     -0.58      0.00
    2   10    2      5.08      0.00
    3   10    2      1.22      0.00
    4   10    2      0.78      0.00
    5   10    2      4.39      0.00
    6   10    2    -10.69      0.00
    1   11    2     13.11      0.00
    2   11    2     -1.50      0.00
    3   11    2     -5.98      0.00
    4   11    2      1.87      0.00
    5   11    2     -2.06      0.00
    6   11    2     -8.75      0.00
    0   12    2     21.40      0.00
    1   12    2    -11.80      0.00
    2   12    2     -5.94      0.00
    3   12    2     -2.16      0.00
    4   12    2      2.17      0.00
    5   12    2     -7.62      0.00
    6   12    2     -2.11      0.00
    7   12    2     23.19      0.00
    1   13    2      1.86      0.00
    2   13    2     -9.79      0.00
    3   13    2    -17.17      0.00
    4   13    2     -8.75      0.00
    5   13    2      1.15      0.00
    6   13    2      6.93      0.00
    0   14    2    -48.88      0.00
    1   14    2     22.36      0.00
    2   14    2     22.55      0.00
    3   14    2     -4.71      0.00
    4   14    2      0.67      0.00
    5   14    2     -8.77      0.00
    6   14    2    -20.70      0.00
    7   14    2     16.88      0.00
    1   15    2     -5.04      0.00
    2   15    2      2.12      0.00
    3   15    2      6.62      0.00
    4   15    2     14.06      0.00
    5   15    2     -6.55      0.00
    6   15    2     -4.23      0.00
    7   15    2     -1.78      0.00
    0   16    2     -6.89      0.00
    1   16    2     -3.94      0.00
    2   16    2     -0.02      0.00
    3   16    2      2.56      0.00
    4   16    2     16.12      0.00
    5   16    2      6.51      0.00
    6   16    2     -4.42      0.00
    7   16    2      4.77      0.00
    1   17    2    -11.79      0.00
    2   17    2    -10.72      0.00
    3   17    2      2.37      0.00
    4   17    2     -6.91      0.00
    5   17    2      6.01      0.00
    6   17    2      2.67      0.00
    7   17    2     17.44      0.00
    0   18    2    -10.83      0.00
    1   18    2     -2.00      0.00
    2   18    2    -17.18      0.00
    3   18    2      6.09      0.00
    4   18    2     -5.34      0.00
    5   18    2     -4.91      0.00
    6   18    2     73.54      0.00
    7   18    2    -18.29      0.00
    1   19    2      5.92      0.00
    2   19    2     -9.43      0.00
    3   19    2      1.46      0.00
    4   19    2     -2.52      0.00
    5   19    2    -17.18      0.00
    6   19    2    -33.77      0.00
    7   19    2    -17.93      0.00
    0   20    2    -10.81      0.00
    1   20    2      1.34      0.00
    2   20    2     -1.83      0.00
    3   20    2     10.40      0.00
    4   20    2      3.77      0.00
    5   20    2     -1.68      0.00
    6   20    2     25.46      0.00
    0    1    3    145.20      0.00
    1    2    3    -95.73      0.00
    0    3    3    119.10      0.00
    1    3    3    -96.27      0.00
    2    3    3    -13.15      0.00
    1    4    3    -31.15      0.00
    2    4    3    -40.01      0.00
    3    4    3    -29.10      0.00
    0    5    3     16.66      0.00
    1    5    3      5.28      0.00
    2    5    3    -94.30      0.00
    3    5    3    -22.05      0.00
    1    6    3      9.29      0.00
    2    6    3     16.12      0.00
    3    6    3      5.24      0.00
    4    6    3     -4.22      0.00
    5    6    3      1.15      0.00
    0    7    3     16.93      0.00
    1    7    3     13.58      0.00
    2    7    3      1.75      0.00
    3    7    3     -6.50      0.00
    4    7    3    -17.60      0.00
    5    7    3     -9.61      0.00
    1    8    3    -14.01      0.00
    2    8    3     13.36      0.00
    3    8    3    -10.82      0.00
    4    8    3     -1.02      0.00
    5    8    3    -11.07      0.00
    6    8    3      4.73      0.00
    0    9    3     15.58      0.00
    1    9    3     -8.62      0.00
    2    9    3      0.69      0.00
    3    9    3     -1.91      0.00
    4    9    3      0.70      0.00
    5    9    3     13.77      0.00
    6    9    3     11.67      0.00
    1   10    3     -1.66      0.00
    2   10    3     -3.28      0.00
    3   10    3      5.03      0.00
    4   10    3     -1.01      0.00
    5   10    3      7.29      0.00
    6   10    3     -3.54      0.00
    0   11    3     -4.75      0.00
    1   11    3     -1.05      0.00
    2   11    3    -10.35      0.00
    3   11    3     -7.56      0.00
    4   11    3    -18.66      0.00
    5   11    3     -7.12      0.00
    6   11    3     -1.39      0.00
    7   11    3    -10.60      0.00
    1   12    3      2.30      0.00
    2   12    3      4.06      0.00
    3   12    3     -0.83      0.00
    4   12    3      4.69      0.00
    5   12    3    -16.65      0.00
    6   12    3    -15.05      0.00
    7   12    3      6.69      0.00
    0   13    3      3.97      0.00
    1   13    3    -11.21      0.00
    2   13    3    -10.61      0.00
    3   13    3    -16.01      0.00
    4   13    3      6.66      0.00
    5   13    3     15.32      0.00
    6   13    3    -13.87      0.00
    1   14    3    -12.21      0.00
    2   14    3     12.45      0.00
    3   14    3     17.78      0.00
    4   14    3    -30.99      0.00
    5   14    3     -0.17      0.00
    6   14    3    -17.79      0.00
    7   14    3    -34.12      0.00
    0   15    3      0.77      0.00
    1   15    3     -8.81      0.00
    2   15    3    -18.95      0.00
    3   15    3     -4.78      0.00
    4   15    3     -7.37      0.00
    5   15    3      7.31      0.00
    6   15    3     16.90      0.00
    7   15    3     13.82      0.00
    8   15    3      9.48      0.00
    1   16    3     11.78      0.00
    2   16    3     -3.82      0.00
    3   16    3    -11.62      0.00
    4   16    3    -17.35      0.00
    5   16    3     -8.07      0.00
    6   16    3     11.61      0.00
    7   16    3    -36.48      0.00
    8   16    3    -45.97      0.00
    0   17    3    -10.80      0.00
    1   17    3     -4.55      0.00
    2   17    3      6.42      0.00
    3   17    3     -3.24      0.00
    4   17    3      3.38      0.00
    5   17    3    -16.00      0.00
    6   17    3     15.09      0.00
    7   17    3    -11.95      0.00
    8   17    3      1.01      0.00
    1   18    3     -8.14      0.00
    2   18    3     -6.22      0.00
    3   18    3      9.97      0.00
    4   18    3      2.91      0.00
    5   18    3    -17.01      0.00
    6   18    3     28.28      0.00
    7   18    3     -4.92      0.00
    8   18    3     21.01      0.00
    0   19    3    -16.60      0.00
    1   19    3     -4.30      0.00
    2   19    3      4.92      0.00
    3   19    3     -5.67      0.00
    4   19    3      8.37      0.00
    5   19    3     -3.90      0.00
    6   19    3      1.48      0.00
    7   19    3     24.82      0.00
    1   20    3    -22.54      0.00
    2   20    3     -7.33      0.00
    3   20    3     12.58      0.00
    4   20    3      1.26      0.00
    5   20    3     -3.28      0.00
    6   20    3    -12.61      0.00
    0    0    4      2.59      0.00
    1    1    4      8.67      0.00
    0    2    4     68.38      0.00
    1    2    4     -9.71      0.00
    2    2    4     -7.37      0.00
    1    3    4     49.30      0.00
    2    3    4     12.32      0.00
    3    3    4    -39.21      0.00
    0    4    4    -78.69      0.00
    1    4    4    -23.03      0.00
    2    4    4     17.94      0.00
    3    4    4     28.20      0.00
    4    4    4     -1.11      0.00
    1    5    4    -65.29      0.00
    2    5    4    -28.36      0.00
    3    5    4     15.67      0.00
    4    5    4    -16.12      0.00
    5    5    4     10.96      0.00
    0    6    4     21.90      0.00
    1    6    4     27.93      0.00
    2    6    4    -24.29      0.00
    3    6    4     20.14      0.00
    4    6    4      1.72      0.00
    5    6    4     -9.06      0.00
    1    7    4      7.49      0.00
    2    7    4      4.64      0.00
    3    7    4     -6.16      0.00
    4    7    4      6.93      0.00
    5    7    4     -4.00      0.00
    6    7    4      4.19      0.00
    0    8    4     10.27      0.00
    1    8    4     24.26      0.00
    2    8    4     -3.79      0.00
    3    8    4      0.90      0.00
    4    8    4     -1.76      0.00
    5    8    4     -3.76      0.00
    6    8    4      0.22      0.00
    1    9    4      9.10      0.00
    2    9    4    -11.59      0.00
    3    9    4      6.03      0.00
    4    9    4     -5.93      0.00
    5    9    4     -4.12      0.00
    6    9    4      4.35      0.00
    0   10    4      4.00      0.00
    1   10    4      6.45      0.00
    2   10    4      4.10      0.00
    3   10    4     -0.09      0.00
    4   10    4      1.15      0.00
    5   10    4      6.10      0.00
    6   10    4    -22.00      0.00
    7   10    4    -11.15      0.00
    1   11    4     -8.28      0.00
    2   11    4      5.04      0.00
    3   11    4      5.05      0.00
    4   11    4      3.48      0.00
    5   11    4     -1.57      0.00
    6   11    4    -12.81      0.00
    7   11    4      9.61      0.00
    0   12    4    -13.90      0.00
    1   12    4     -8.84      0.00
    2   12    4      0.33      0.00
    3   12    4      5.68      0.00
    4   12    4      2.39      0.00
    5   12    4     -0.94      0.00
    6   12    4     21.70      0.00
    7   12    4     18.03      0.00
    1   13    4      1.73      0.00
    2   13    4      9.16      0.00
    3   13    4    -31.99      0.00
    4   13    4      3.24      0.00
    5   13    4     27.79      0.00
    6   13    4     28.43      0.00
    0   14    4      0.00      0.00
    1   14    4      4.15      0.00
    2   14    4     -7.62      0.00
    3   14    4      4.04      0.00
    4   14    4     24.13      0.00
    5   14    4      6.87      0.00
    6   14    4      6.33      0.00
    7   14    4     33.07      0.00
    8   14    4      1.00      0.00
    1   15    4      3.58      0.00
    2   15    4     21.04      0.00
    3   15    4    -17.54      0.00
    4   15    4     -3.96      0.00
    5   15    4      0.82      0.00
    6   15    4     -3.82      0.00
    7   15    4     14.02      0.00
    8   15    4     14.38      0.00
    0   16    4     -3.33      0.00
    1   16    4     18.14      0.00
    2   16    4     -3.09      0.00
    3   16    4     12.33      0.00
    4   16    4     -5.58      0.00
    5   16    4     -2.76      0.00
    6   16    4     18.24      0.00
    7   16    4    -17.55      0.00
    8   16    4     15.65      0.00
    1   17    4     -4.58      0.00
    2   17    4     -4.26      0.00
    3   17    4      9.93      0.00
    4   17    4    -10.21      0.00
    5   17    4    -23.38      0.00
    6   17    4     -3.14      0.00
    7   17    4    -41.74      0.00
    0   18    4     -3.93      0.00
    1   18    4     -1.35      0.00
    2   18    4      3.36      0.00
    3   18    4      4.85      0.00
    4   18    4     -4.90      0.00
    5   18    4     -0.29      0.00
    6   18    4     -1.80      0.00
    7   18    4     28.48      0.00
    1   19    4     -0.64      0.00
    2   19    4     -2.48      0.00
    3   19    4      2.65      0.00
    4   19    4      2.57      0.00
    5   19    4    -13.37      0.00
    6   19    4      8.79      0.00
    7   19    4    -16.21      0.00
    0   20    4     18.38      0.00
    1   20    4      1.97      0.00
    2   20    4    -11.50      0.00
    3   20    4      4.03      0.00
    4   20    4      7.61      0.00
    5   20    4      4.64      0.00
    6   20    4     -5.19      0.00
    0    1    5    -35.42      0.00
    1    2    5     79.44      0.00
    0    3    5     55.42      0.00
    1    3    5    -58.84      0.00
    2    3    5     62.26      0.00
    1    4    5     11.39      0.00
    2    4    5     10.48      0.00
    3    4    5    -50.80      0.00
    0    5    5    -16.42      0.00
    1    5    5      0.63      0.00
    2    5    5     40.35      0.00
    3    5    5     -8.86      0.00
    4    5    5     15.06      0.00
    1    6    5     20.14      0.00
    2    6    5     16.79      0.00
    3    6    5      8.84      0.00
    4    6    5      5.48      0.00
    5    6    5     23.45      0.00
    0    7    5     32.74      0.00
    1    7    5     22.22      0.00
    2    7    5     -1.48      0.00
    3    7    5     16.19      0.00
    4    7    5    -18.46      0.00
    5    7    5     -6.73      0.00
    6    7    5    -14.91      0.00
    1    8    5     17.49      0.00
    2    8    5      7.18      0.00
    3    8    5     -7.13      0.00
    4    8    5    -14.31      0.00
    5    8    5      1.84      0.00
    6    8    5     10.86      0.00
    7    8    5      4.57      0.00
    0    9    5     -3.65      0.00
    1    9    5    -15.34      0.00
    2    9    5     10.31      0.00
    3    9    5    -18.61      0.00
    4    9    5     -2.76      0.00
    5    9    5     -1.14      0.00
    6    9    5     -9.93      0.00
    7    9    5     10.25      0.00
    1   10    5    -11.41      0.00
    2   10    5     -0.28      0.00
    3   10    5     15.69      0.00
    4   10    5      1.74      0.00
    5   10    5     14.21      0.00
    6   10    5      6.99      0.00
    7   10    5      4.94      0.00
    0   11    5    -14.93      0.00
    1   11    5     -3.11      0.00
    2   11    5      8.38      0.00
    3   11    5      7.74      0.00
    4   11    5     -3.73      0.00
    5   11    5     -0.04      0.00
    6   11    5      4.76      0.00
    7   11    5      8.80      0.00
    1   12    5      6.02      0.00
    2   12    5     -2.80      0.00
    3   12    5     -0.83      0.00
    4   12    5      7.32      0.00
    5   12    5      0.54      0.00
    6   12    5     -4.59      0.00
    7   12    5     -2.70      0.00
    8   12    5    -67.69      0.00
    0   13    5      3.27      0.00
    1   13    5     11.99      0.00
    2   13    5      2.44      0.00
    3   13    5     21.97      0.00
    4   13    5     -1.28      0.00
    5   13    5      1.54      0.00
    6   13    5      4.93      0.00
    1   14    5      1.54      0.00
    2   14    5      0.49      0.00
    3   14    5     -6.18      0.00
    4   14    5      3.61      0.00
    5   14    5      0.96      0.00
    6   14    5     -9.37      0.00
    7   14    5    -22.59      0.00
    0   15    5      7.82      0.00
    1   15    5      7.91      0.00
    2   15    5      3.73      0.00
    3   15    5     33.60      0.00
    4   15    5     -5.19      0.00
    5   15    5     -8.75      0.00
    6   15    5     10.72      0.00
    7   15    5     25.33      0.00
    1   16    5     12.05      0.00
    2   16    5      3.30      0.00
    3   16    5     10.00      0.00
    4   16    5     -3.53      0.00
    5   16    5    -35.35      0.00
    6   16    5     19.57      0.00
    7   16    5      7.67      0.00
    0   17    5     -7.80      0.00
    1   17    5     -5.71      0.00
    2   17    5      1.92      0.00
    3   17    5      5.43      0.00
    4   17    5     -1.80      0.00
    5   17    5    -12.61      0.00
    6   17    5     13.54      0.00
    1   18    5    -10.01      0.00
    2   18    5      7.11      0.00
    3   18    5     15.10      0.00
    4   18    5      6.69      0.00
    5   18    5    -29.24      0.00
    6   18    5    -15.26      0.00
    0   19    5      7.56      0.00
    1   19    5     -8.60      0.00
    2   19    5     11.26      0.00
    3   19    5      5.64      0.00
    4   19    5     -1.62      0.00
    5   19    5    -19.64      0.00
    6   19    5      5.12      0.00
    1   20    5      8.41      0.00
    2   20    5      3.80      0.00
    3   20    5      7.58      0.00
    4   20    5     14.22      0.00
    5   20    5     14.84      0.00
    0    0    6    -70.96      0.00
    1    1    6     21.40      0.00
    0    2    6    -57.05      0.00
    1    2    6    -36.87      0.00
    2    2    6    -16.27      0.00
    1    3    6     66.69      0.00
    2    3    6    -29.01      0.00
    3    3    6     59.56      0.00
    0    4    6     69.01      0.00
    1    4    6    -50.92      0.00
    2    4    6     -2.70      0.00
    3    4    6     37.99      0.00
    4    4    6     46.41      0.00
    1    5    6    -14.48      0.00
    2    5    6    -14.17      0.00
    3    5    6     -4.93      0.00
    4    5    6     -9.26      0.00
    5    5    6     29.04      0.00
    0    6    6     49.77      0.00
    1    6    6      8.78      0.00
    2    6    6      3.50      0.00
    3    6    6     20.53      0.00
    4    6    6      6.07      0.00
    5    6    6     -2.73      0.00
    6    6    6     16.47      0.00
    1    7    6      5.20      0.00
    2    7    6     10.12      0.00
    3    7    6      7.71      0.00
    4    7    6     -7.26      0.00
    5    7    6    -14.60      0.00
    6    7    6     -1.39      0.00
    7    7    6    -18.30      0.00
    0    8    6     -0.90      0.00
    1    8    6      4.46      0.00
    2    8    6     -3.47      0.00
    3    8    6     -4.69      0.00
    4    8    6     -7.22      0.00
    5    8    6     -0.16      0.00
    6    8    6     -7.50      0.00
    7    8    6      4.98      0.00
    1    9    6      0.55      0.00
    2    9    6     -9.36      0.00
    3    9    6      6.36      0.00
    4    9    6     -6.45      0.00
    5    9    6     -9.42      0.00
    6    9    6      7.08      0.00
    7    9    6      5.88      0.00
    0   10    6    -14.58      0.00
    1   10    6     -5.86      0.00
    2   10    6      0.90      0.00
    3   10    6      5.82      0.00
    4   10    6     -6.70      0.00
    5   10    6     -9.42      0.00
    6   10    6      4.85      0.00
    7   10    6      0.11      0.00
    8   10    6     14.04      0.00
    1   11    6     -9.07      0.00
    2   11    6      5.82      0.00
    3   11    6      3.24      0.00
    4   11    6      0.43      0.00
    5   11    6     -1.31      0.00
    6   11    6    -11.67      0.00
    7   11    6     -8.73      0.00
    8   11    6     13.89      0.00
    0   12    6     12.98      0.00
    1   12    6    -13.83      0.00
    2   12    6     -4.04      0.00
    3   12    6      2.59      0.00
    4   12    6     10.57      0.00
    5   12    6     18.45      0.00
    6   12    6     -5.70      0.00
    7   12    6    -25.90      0.00
    1   13    6      8.15      0.00
    2   13    6     11.20      0.00
    3   13    6      2.84      0.00
    4   13    6    -10.26      0.00
    5   13    6    -10.26      0.00
    6   13    6    -23.50      0.00
    7   13    6    -48.49      0.00
    0   14    6     15.71      0.00
    1   14    6     -7.92      0.00
    2   14    6      7.86      0.00
    3   14    6    -40.22      0.00
    4   14    6     10.82      0.00
    5   14    6      2.31      0.00
    6   14    6     -9.95      0.00
    1   15    6     10.67      0.00
    2   15    6     10.27      0.00
    3   15    6     -5.88      0.00
    4   15    6    -39.92      0.00
    5   15    6      1.64      0.00
    6   15    6     30.42      0.00
    0   16    6      1.87      0.00
    1   16    6     -5.06      0.00
    2   16    6     11.04      0.00
    3   16    6      8.23      0.00
    4   16    6      3.67      0.00
    5   16    6    -12.37      0.00
    6   16    6     13.50      0.00
    1   17    6      1.72      0.00
    2   17    6     -8.38      0.00
    3   17    6      0.91      0.00
    4   17    6     -9.76      0.00
    5   17    6      9.93      0.00
    6   17    6    -10.30      0.00
    0   18    6     -8.58      0.00
    1   18    6      3.18      0.00
    2   18    6      1.73      0.00
    3   18    6     -5.17      0.00
    4   18    6      2.45      0.00
    5   18    6     83.47      0.00
    6   18    6     12.01      0.00
    1   19    6      2.02      0.00
    2   19    6     -3.85      0.00
    3   19    6     -3.35      0.00
    4   19    6      7.30      0.00
    5   19    6     22.84      0.00
    6   19    6    -13.60      0.00
    0   20    6     -3.94      0.00
    1   20    6     -5.46      0.00
    2   20    6     -5.19      0.00
    3   20    6     -0.45      0.00
    4   20    6    -20.49      0.00
    0    1    7    -27.04      0.00
    1    2    7    -17.27      0.00
    0    3    7     23.49      0.00
    1    3    7    -42.99      0.00
    2    3    7    -68.77      0.00
    1    4    7     23.24      0.00
    2    4    7     14.62      0.00
    3    4    7    -11.89      0.00
    0    5    7    -85.45      0.00
    1    5    7     15.14      0.00
    2    5    7      5.47      0.00
    3    5    7     -5.15      0.00
    4    5    7      3.29      0.00
    1    6    7      4.60      0.00
    2    6    7     -0.84      0.00
    3    6    7     -6.14      0.00
    4    6    7     -3.21      0.00
    5    6    7      4.76      0.00
    0    7    7     15.78      0.00
    1    7    7     17.84      0.00
    2    7    7    -10.87      0.00
    3    7    7      0.71      0.00
    4    7    7     -8.49      0.00
    5    7    7      3.47      0.00
    6    7    7     -5.38      0.00
    1    8    7     -5.57      0.00
    2    8    7     -3.09      0.00
    3    8    7     -7.82      0.00
    4    8    7     -4.08      0.00
    5    8    7     11.83      0.00
    6    8    7     -5.00      0.00
    7    8    7      9.97      0.00
    0    9    7    -16.65      0.00
    1    9    7     -7.98      0.00
    2    9    7     -4.46      0.00
    3    9    7     -6.59      0.00
    4    9    7     10.42      0.00
    5    9    7     -3.02      0.00
    6    9    7     -7.40      0.00
    7    9    7     -7.66      0.00
    8    9    7    -13.29      0.00
    1   10    7     -4.68      0.00
    2   10    7      4.63      0.00
    3   10    7     10.91      0.00
    4   10    7     -1.33      0.00
    5   10    7      4.39      0.00
    6   10    7    -10.37      0.00
    7   10    7      1.89      0.00
    8   10    7      8.82      0.00
    0   11    7      6.52      0.00
    1   11    7     -3.46      0.00
    2   11    7     -0.98      0.00
    3   11    7     -4.65      0.00
    4   11    7      1.03      0.00
    5   11    7      0.26      0.00
    6   11    7     -9.03      0.00
    7   11    7      3.25      0.00
    8   11    7     -3.10      0.00
    1   12    7     -4.73      0.00
    2   12    7     -6.38      0.00
    3   12    7      3.48      0.00
    4   12    7     -6.82      0.00
    5   12    7      1.70      0.00
    6   12    7     -5.30      0.00
    7   12    7      2.78      0.00
    8   12    7     11.19      0.00
    0   13    7     -0.56      0.00
    1   13    7     11.71      0.00
    2   13    7     12.36      0.00
    3   13    7      8.80      0.00
    4   13    7      3.96      0.00
    5   13    7     19.59      0.00
    6   13    7     25.57      0.00
    7   13    7     45.03      0.00
    1   14    7     15.06      0.00
    2   14    7    -47.11      0.00
    3   14    7      7.22      0.00
    4   14    7      0.82      0.00
    5   14    7      4.20      0.00
    6   14    7     -5.64      0.00
    7   14    7    -18.12      0.00
    0   15    7    -20.01      0.00
    1   15    7     -4.19      0.00
    2   15    7    -19.16      0.00
    3   15    7     -4.16      0.00
    4   15    7     -7.42      0.00
    5   15    7    -17.07      0.00
    6   15    7    -14.20      0.00
    7   15    7    -13.49      0.00
    1   16    7     -9.29      0.00
    2   16    7     -7.13      0.00
    3   16    7     -2.79      0.00
    4   16    7     30.44      0.00
    5   16    7      3.31      0.00
    6   16    7    -14.27      0.00
    7   16    7     23.82      0.00
    0   17    7      3.27      0.00
    1   17    7     -8.63      0.00
    2   17    7      8.44      0.00
    3   17    7     -9.19      0.00
    4   17    7     20.63      0.00
    5   17    7    -19.61      0.00
    6   17    7     22.93      0.00
    7   17    7     15.04      0.00
    1   18    7      8.02      0.00
    2   18    7      3.94      0.00
    3   18    7      8.83      0.00
    4   18    7    -16.88      0.00
    5   18    7     10.31      0.00
    6   18    7      3.22      0.00
    0   19    7    -16.12      0.00
    1   19    7     -4.84      0.00
    2   19    7      8.01      0.00
    3   19    7      2.21      0.00
    4   19    7     10.21      0.00
    5   19    7    -12.54      0.00
    6   19    7     -6.99      0.00
    1   20    7     10.63      0.00
    2   20    7     23.65      0.00
    3   20    7      5.10      0.00
    0    0    8    -50.58      0.00
    1    1    8    -17.10      0.00
    0    2    8     39.40      0.00
    1    2    8     61.97      0.00
    2    2    8      5.80      0.00
    1    3    8    -31.19      0.00
    2    3    8    -27.32      0.00
    3    3    8    -78.95      0.00
    0    4    8   -131.79      0.00
    1    4    8     -2.17      0.00
    2    4    8    -11.92      0.00
    3    4    8      3.30      0.00
    4    4    8    -16.67      0.00
    1    5    8    -25.65      0.00
    2    5    8     22.46      0.00
    3    5    8      2.87      0.00
    4    5    8      4.29      0.00
    5    5    8      1.09      0.00
    0    6    8      3.56      0.00
    1    6    8     -3.50      0.00
    2    6    8     25.34      0.00
    3    6    8     -5.55      0.00
    4    6    8    -16.12      0.00
    5    6    8    -11.70      0.00
    6    6    8     -2.10      0.00
    1    7    8     -9.30      0.00
    2    7    8     -3.82      0.00
    3    7    8    -11.84      0.00
    4    7    8     -2.28      0.00
    5    7    8      3.85      0.00
    6    7    8     -2.36      0.00
    7    7    8     -0.54      0.00
    0    8    8      0.62      0.00
    1    8    8    -13.30      0.00
    2    8    8      1.86      0.00
    3    8    8     -2.67      0.00
    4    8    8      3.08      0.00
    5    8    8      6.01      0.00
    6    8    8     -0.19      0.00
    7    8    8      8.91      0.00
    8    8    8      4.95      0.00
    1    9    8     -1.44      0.00
    2    9    8      2.54      0.00
    3    9    8      1.16      0.00
    4    9    8     -5.68      0.00
    5    9    8      8.79      0.00
    6    9    8     -2.55      0.00
    7    9    8     -9.56      0.00
    8    9    8     12.19      0.00
    0   10    8    -10.00      0.00
    1   10    8      8.22      0.00
    2   10    8     -2.36      0.00
    3   10    8      6.46      0.00
    4   10    8      1.87      0.00
    5   10    8     -1.17      0.00
    6   10    8     -3.35      0.00
    7   10    8      3.30      0.00
    8   10    8     -4.92      0.00
    1   11    8      2.22      0.00
    2   11    8     -6.61      0.00
    3   11    8     -3.09      0.00
    4   11    8     -5.28      0.00
    5   11    8     -3.75      0.00
    6   11    8     18.30      0.00
    7   11    8     -5.33      0.00
    8   11    8    -12.46      0.00
    0   12    8     -4.08      0.00
    1   12    8     -2.34      0.00
    2   12    8     -7.35      0.00
    3   12    8      0.79      0.00
    4   12    8     -4.53      0.00
    5   12    8     -0.42      0.00
    6   12    8     12.84      0.00
    7   12    8     -5.86      0.00
    8   12    8     42.62      0.00
    1   13    8     -6.58      0.00
    2   13    8      5.10      0.00
    3   13    8     -0.36      0.00
    4   13    8      8.39      0.00
    5   13    8    -33.20      0.00
    6   13    8     -1.74      0.00
    7   13    8     11.49      0.00
    0   14    8    -16.57      0.00
    1   14    8      1.50      0.00
    2   14    8      6.57      0.00
    3   14    8     -8.65      0.00
    4   14    8     -7.17      0.00
    5   14    8      2.24      0.00
    6   14    8     -8.58      0.00
    7   14    8     -6.38      0.00
    1   15    8     -5.30      0.00
    2   15    8    -13.69      0.00
    3   15    8     -9.62      0.00
    4   15    8      1.27      0.00
    5   15    8     23.82      0.00
    6   15    8      8.45      0.00
    7   15    8     32.61      0.00
    0   16    8      5.22      0.00
    1   16    8    -14.14      0.00
    2   16    8      0.42      0.00
    3   16    8     24.06      0.00
    4   16    8      2.26      0.00
    5   16    8      7.10      0.00
    6   16    8     20.68      0.00
    7   16    8     -8.15      0.00
    1   17    8      1.19      0.00
    2   17    8      2.07      0.00
    3   17    8      1.75      0.00
    4   17    8    -11.37      0.00
    5   17    8      4.70      0.00
    6   17    8     -7.65      0.00
    7   17    8   -139.34      0.00
    0   18    8      1.80      0.00
    1   18    8      2.24      0.00
    2   18    8     23.16      0.00
    3   18    8     -0.31      0.00
    4   18    8    -66.70      0.00
    5   18    8      0.41      0.00
    6   18    8      6.14      0.00
    7   18    8     19.21      0.00
    1   19    8     -6.52      0.00
    2   19    8    -19.85      0.00
    3   19    8     -5.14      0.00
    4   19    8     -7.29      0.00
    5   19    8     13.09      0.00
    0   20    8    -21.59      0.00
    1   20    8     11.41      0.00
    2   20    8      2.55      0.00
    0    1    9    -17.36      0.00
    1    2    9     -7.68      0.00
    0    3    9     -4.58      0.00
    1    3    9    -13.56      0.00
    2    3    9      2.78      0.00
    1    4    9     32.83      0.00
    2    4    9     23.13      0.00
    3    4    9     15.01      0.00
    0    5    9    -49.33      0.00
    1    5    9     -1.18      0.00
    2    5    9      1.04      0.00
    3    5    9     11.60      0.00
    4    5    9     -8.43      0.00
    1    6    9     17.20      0.00
    2    6    9    -10.94      0.00
    3    6    9    -19.10      0.00
    4    6    9     -5.20      0.00
    5    6    9     -3.77      0.00
    0    7    9      3.91      0.00
    1    7    9    -12.18      0.00
    2    7    9      1.55      0.00
    3    7    9     -7.08      0.00
    4    7    9     -8.59      0.00
    5    7    9      2.20      0.00
    6    7    9     -6.71      0.00
    1    8    9     -7.31      0.00
    2    8    9     -6.10      0.00
    3    8    9      1.48      0.00
    4    8    9      4.40      0.00
    5    8    9      9.67      0.00
    6    8    9      1.99      0.00
    7    8    9     -2.92      0.00
    0    9    9     -3.14      0.00
    1    9    9     -5.45      0.00
    2    9    9      3.01      0.00
    3    9    9     10.38      0.00
    4    9    9      6.35      0.00
    5    9    9     10.32      0.00
    6    9    9     -2.71      0.00
    7    9    9     -3.26      0.00
    8    9    9     14.32      0.00
    1   10    9      4.55      0.00
    2   10    9      1.92      0.00
    3   10    9     -9.42      0.00
    4   10    9     -4.42      0.00
    5   10    9     -2.73      0.00
    6   10    9     10.24      0.00
    7   10    9    -10.35      0.00
    8   10    9     -3.98      0.00
    0   11    9     10.69      0.00
    1   11    9      2.78      0.00
    2   11    9      0.10      0.00
    3   11    9     -0.85      0.00
    4   11    9      4.95      0.00
    5   11    9      4.62      0.00
    6   11    9      6.46      0.00
    7   11    9      5.78      0.00
    8   11    9     -4.03      0.00
    1   12    9      2.45      0.00
    2   12    9     10.23      0.00
    3   12    9    -10.81      0.00
    4   12    9     -4.06      0.00
    5   12    9     -3.41      0.00
    6   12    9     -3.99      0.00
    7   12    9      0.98      0.00
    9   12    9    -39.55      0.00
    0   13    9     -7.98      0.00
    1   13    9     11.36      0.00
    2   13    9     -4.76      0.00
    3   13    9     12.76      0.00
    4   13    9    -20.71      0.00
    5   13    9     18.26      0.00
    6   13    9     17.42      0.00
    7   13    9     -1.19      0.00
    1   14    9     15.31      0.00
    2   14    9     -7.63      0.00
    3   14    9      0.34      0.00
    4   14    9     -2.51      0.00
    5   14    9     -3.51      0.00
    6   14    9      1.60      0.00
    7   14    9      6.39      0.00
    0   15    9    -25.55      0.00
    1   15    9      6.51      0.00
    2   15    9    -13.86      0.00
    3   15    9     17.35      0.00
    4   15    9      0.25      0.00
    5   15    9      9.71      0.00
    6   15    9     -1.36      0.00
    7   15    9     -2.16      0.00
    1   16    9     -9.24      0.00
    2   16    9     54.19      0.00
    3   16    9      4.21      0.00
    4   16    9     31.92      0.00
    5   16    9      9.72      0.00
    6   16    9    -12.92      0.00
    7   16    9     -0.19      0.00
    0   17    9     16.02      0.00
    1   17    9     14.69      0.00
    2   17    9    -27.49      0.00
    3   17    9    -13.88      0.00
    4   17    9     -0.69      0.00
    5   17    9     -3.84      0.00
    6   17    9     11.21      0.00
    7   17    9     -3.22      0.00
    1   18    9     -5.89      0.00
    2   18    9    -10.50      0.00
    3   18    9    -75.24      0.00
    4   18    9     -1.34      0.00
    5   18    9     23.87      0.00
    6   18    9      5.76      0.00
    7   18    9     -1.58      0.00
    0   19    9     -4.09      0.00
    1   19    9    -18.69      0.00
    2   19    9    -17.55      0.00
    3   19    9     -6.88      0.00
    4   19    9     15.49      0.00
    5   19    9      6.34      0.00
    1   20    9     -0.41      0.00
    2   20    9     18.82      0.00
    0    0   10     13.81      0.00
    1    1   10    -39.28      0.00
    0    2   10     99.70      0.00
    1    2   10     -2.47      0.00
    2    2   10    -22.24      0.00
    1    3   10     -8.76      0.00
    2    3   10    -14.09      0.00
    3    3   10     -6.72      0.00
    0    4   10     14.48      0.00
    1    4   10     -2.56      0.00
    2    4   10     42.58      0.00
    3    4   10      6.28      0.00
    4    4   10      4.74      0.00
    1    5   10     12.33      0.00
    2    5   10      7.87      0.00
    3    5   10     13.73      0.00
    4    5   10      6.14      0.00
    5    5   10      4.28      0.00
    0    6   10     14.58      0.00
    1    6   10    -10.83      0.00
    2    6   10      3.75      0.00
    3    6   10     -8.04      0.00
    4    6   10      0.40      0.00
    5    6   10     -1.76      0.00
    6    6   10     -6.79      0.00
    1    7   10      2.95      0.00
    2    7   10     -2.12      0.00
    3    7   10     -6.87      0.00
    4    7   10      7.07      0.00
    5    7   10     12.18      0.00
    6    7   10     -1.48      0.00
    7    7   10      4.21      0.00
    0    8   10      4.95      0.00
    1    8   10     -2.94      0.00
    2    8   10      0.64      0.00
    3    8   10      5.22      0.00
    4    8   10      2.91      0.00
    5    8   10     -1.08      0.00
    6    8   10      6.10      0.00
    7    8   10    -10.68      0.00
    8    8   10    -17.83      0.00
    1    9   10     -6.70      0.00
    2    9   10      9.84      0.00
    3    9   10     -0.59      0.00
    4    9   10      2.29      0.00
    5    9   10      3.19      0.00
    6    9   10     -7.71      0.00
    7    9   10     -3.67      0.00
    8    9   10    -12.26      0.00
    9    9   10     19.75      0.00
    0   10   10      4.71      0.00
    1   10   10      2.64      0.00
    2   10   10     -1.27      0.00
    3   10   10     15.39      0.00
    4   10   10      5.70      0.00
    5   10   10     -4.05      0.00
    6   10   10     -1.10      0.00
    7   10   10      5.27      0.00
    8   10   10     -2.90      0.00
    1   11   10      6.83      0.00
    2   11   10      1.71      0.00
    3   11   10     -6.29      0.00
    4   11   10      0.90      0.00
    5   11   10     -6.47      0.00
    6   11   10     10.79      0.00
    7   11   10     13.02      0.00
    9   11   10    -82.57      0.00
    0   12   10     15.27      0.00
    1   12   10      7.18      0.00
    2   12   10      1.54      0.00
    3   12   10     15.65      0.00
    4   12   10     11.93      0.00
    5   12   10     -3.54      0.00
    6   12   10      1.91      0.00
    7   12   10    -24.72      0.00
    8   12   10      2.14      0.00
    9   12   10    -20.46      0.00
    1   13   10     -0.12      0.00
    2   13   10     -5.50      0.00
    3   13   10     33.91      0.00
    4   13   10     -3.13      0.00
    5   13   10     -1.46      0.00
    6   13   10     -2.11      0.00
    7   13   10    -24.94      0.00
    8   13   10    -14.24      0.00
    9   13   10     18.49      0.00
    0   14   10    -16.42      0.00
    1   14   10     -1.92      0.00
    2   14   10     -1.49      0.00
    3   14   10     -9.68      0.00
    4   14   10      3.90      0.00
    5   14   10     -5.73      0.00
    6   14   10    -13.51      0.00
    7   14   10      7.46      0.00
    8   14   10      7.85      0.00
    1   15   10     -6.79      0.00
    2   15   10    -11.01      0.00
    3   15   10     -0.32      0.00
    4   15   10      8.18      0.00
    5   15   10      1.68      0.00
    6   15   10     13.11      0.00
    7   15   10      6.12      0.00
    8   15   10    -11.89      0.00
    0   16   10     57.56      0.00
    1   16   10     -3.91      0.00
    2   16   10    -14.29      0.00
    3   16   10     17.43      0.00
    4   16   10     10.06      0.00
    5   16   10    -25.20      0.00
    6   16   10    -20.13      0.00
    7   16   10      1.07      0.00
    1   17   10     10.68      0.00
    2   17   10    -21.85      0.00
    3   17   10     12.42      0.00
    4   17   10      4.28      0.00
    5   17   10      3.19      0.00
    6   17   10    -30.73      0.00
    7   17   10      5.01      0.00
    0   18   10    -20.74      0.00
    1   18   10     38.31      0.00
    2   18   10     80.87      0.00
    3   18   10    -12.61      0.00
    4   18   10     -5.89      0.00
    5   18   10      2.76      0.00
    6   18   10      5.56      0.00
    7   18   10     29.47      0.00
    1   19   10      1.64      0.00
    2   19   10      8.67      0.00
    3   19   10      2.36      0.00
    4   19   10     -0.80      0.00
    5   19   10     13.12      0.00
    1   20   10      6.68      0.00
    0    1   11     25.27      0.00
    1    2   11     48.70      0.00
    0    3   11    -30.83      0.00
    1    3   11      5.95      0.00
    2    3   11      5.10      0.00
    1    4   11     -1.66      0.00
    2    4   11     -0.56      0.00
    3    4   11      9.16      0.00
    0    5   11      1.21      0.00
    1    5   11     -1.72      0.00
    2    5   11     37.55      0.00
    3    5   11     12.56      0.00
    4    5   11    -12.32      0.00
    1    6   11      7.40      0.00
    2    6   11     -6.94      0.00
    3    6   11     -5.76      0.00
    4    6   11    -11.70      0.00
    5    6   11      0.27      0.00
    0    7   11     -8.69      0.00
    1    7   11     -3.90      0.00
    2    7   11     -9.71      0.00
    3    7   11     -7.34      0.00
    4    7   11      5.02      0.00
    5    7   11     -8.64      0.00
    6    7   11     -0.78      0.00
    1    8   11     -0.69      0.00
    2    8   11      2.66      0.00
    3    8   11      6.01      0.00
    4    8   11     14.13      0.00
    5    8   11     16.12      0.00
    6    8   11     -3.31      0.00
    7    8   11      5.02      0.00
    0    9   11      6.04      0.00
    1    9   11      4.81      0.00
    2    9   11     -0.01      0.00
    3    9   11      3.93      0.00
    4    9   11     -2.81      0.00
    5    9   11      2.24      0.00
    6    9   11     -3.43      0.00
    7    9   11     -1.41      0.00
    8    9   11      7.33      0.00
    1   10   11      1.09      0.00
    2   10   11     -9.34      0.00
    3   10   11     -4.63      0.00
    4   10   11     -7.25      0.00
    5   10   11     -7.51      0.00
    6   10   11     -9.84      0.00
    7   10   11     -5.26      0.00
    8   10   11    -21.09      0.00
    9   10   11     -0.62      0.00
    0   11   11      3.28      0.00
    1   11   11      9.11      0.00
    2   11   11     13.79      0.00
    3   11   11      8.51      0.00
    4   11   11     10.15      0.00
    5   11   11     -7.75      0.00
    6   11   11    -10.64      0.00
    7   11   11     -0.34      0.00
    9   11   11     -5.11      0.00
   10   11   11     -5.34      0.00
    1   12   11      9.25      0.00
    2   12   11    -11.63      0.00
    3   12   11    -17.49      0.00
    4   12   11     -5.27      0.00
    5   12   11      0.39      0.00
    6   12   11     -5.67      0.00
    7   12   11     -6.00      0.00
    8   12   11     13.76      0.00
    9   12   11     17.61      0.00
   10   12   11    -11.90      0.00
    0   13   11    -16.22      0.00
    1   13   11     -6.31      0.00
    2   13   11    -17.77      0.00
    3   13   11    -34.96      0.00
    4   13   11     12.67      0.00
    5   13   11     -3.02      0.00
    6   13   11     -4.29      0.00
    7   13   11     14.34      0.00
    8   13   11     -0.15      0.00
    9   13   11     40.57      0.00
   10   13   11     -8.01      0.00
    1   14   11      0.35      0.00
    2   14   11     -6.72      0.00
    3   14   11     11.18      0.00
    4   14   11      2.17      0.00
    5   14   11     -0.15      0.00
    6   14   11    -13.59      0.00
    7   14   11    -30.38      0.00
    8   14   11      8.26      0.00
    0   15   11     -5.91      0.00
    1   15   11    -13.43      0.00
    2   15   11      0.33      0.00
    3   15   11    -11.44      0.00
    4   15   11    -10.09      0.00
    5   15   11      1.81      0.00
    6   15   11      8.21      0.00
    7   15   11     -1.35      0.00
    8   15   11     -2.20      0.00
    1   16   11     -5.36      0.00
    2   16   11      9.40      0.00
    3   16   11      5.60      0.00
    4   16   11    -10.78      0.00
    5   16   11      0.86      0.00
    6   16   11     12.36      0.00
    7   16   11     -9.10      0.00
    8   16   11   -102.75      0.00
    0   17   11     36.06      0.00
    1   17   11     -2.23      0.00
    2   17   11     -4.69      0.00
    3   17   11      4.94      0.00
    4   17   11     -3.21      0.00
    5   17   11      8.61      0.00
    6   17   11    -45.75      0.00
    7   17   11     -6.35      0.00
    8   17   11     -6.47      0.00
    1   18   11    -14.28      0.00
    2   18   11    -15.92      0.00
    3   18   11    -25.49      0.00
    4   18   11     -7.62      0.00
    5   18   11    -25.71      0.00
    6   18   11     28.96      0.00
    7   18   11    -10.58      0.00
    0   19   11      5.15      0.00
    1   19   11     10.62      0.00
    2   19   11    -18.87      0.00
    3   19   11     -2.43      0.00
    4   19   11     22.32      0.00
    0    0   12     55.98      0.00
    1    1   12    -27.48      0.00
    0    2   12      3.14      0.00
    1    2   12      8.22      0.00
    2    2   12      7.65      0.00
    1    3   12     -4.74      0.00
    2    3   12      4.55      0.00
    3    3   12    -12.28      0.00
    0    4   12     -0.46      0.00
    1    4   12      4.04      0.00
    2    4   12     -1.96      0.00
    3    4   12     -0.69      0.00
    4    4   12      3.25      0.00
    1    5   12    -14.14      0.00
    2    5   12     10.67      0.00
    3    5   12      4.04      0.00
    4    5   12     -7.26      0.00
    5    5   12      7.14      0.00
    0    6   12     -2.12      0.00
    1    6   12      4.64      0.00
    2    6   12     -0.02      0.00
    3    6   12      2.42      0.00
    4    6   12     -2.78      0.00
    5    6   12      4.77      0.00
    6    6   12     -1.19      0.00
    1    7   12      1.61      0.00
    2    7   12     -8.55      0.00
    3    7   12     -5.02      0.00
    4    7   12      2.99      0.00
    5    7   12     -3.85      0.00
    6    7   12      3.46      0.00
    7    7   12     -0.49      0.00
    0    8   12     -2.15      0.00
    1    8   12     -1.83      0.00
    2    8   12      2.56      0.00
    3    8   12     10.81      0.00
    4    8   12      3.88      0.00
    5    8   12      3.81      0.00
    6    8   12     -3.96      0.00
    7    8   12      3.85      0.00
    8    8   12      0.37      0.00
    1    9   12      7.39      0.00
    2    9   12     -2.84      0.00
    3    9   12     -2.29      0.00
    4    9   12     12.72      0.00
    5    9   12     -2.73      0.00
    6    9   12      3.05      0.00
    7    9   12      7.19      0.00
    8    9   12     -1.21      0.00
    9    9   12     -1.12      0.00
    0   10   12      0.05      0.00
    1   10   12      7.99      0.00
    2   10   12      3.32      0.00
    3   10   12    -23.92      0.00
    4   10   12      3.39      0.00
    5   10   12     -3.03      0.00
    6   10   12     -7.66      0.00
    7   10   12      1.86      0.00
    8   10   12      7.68      0.00
    9   10   12    -10.78      0.00
   10   10   12     11.57      0.00
    1   11   12     -1.67      0.00
    2   11   12    -13.58      0.00
    3   11   12     -4.82      0.00
    4   11   12    -23.71      0.00
    5   11   12     -1.54      0.00
    6   11   12      6.73      0.00
    7   11   12     24.91      0.00
    8   11   12     64.07      0.00
    9   11   12     -8.60      0.00
   10   11   12     -4.65      0.00
    0   12   12    -15.38      0.00
    1   12   12      4.44      0.00
    2   12   12     10.34      0.00
    3   12   12     16.10      0.00
    4   12   12      3.00      0.00
    5   12   12    -26.25      0.00
    6   12   12     -4.11      0.00
    7   12   12    -41.59      0.00
    8   12   12     10.63      0.00
    9   12   12    -16.92      0.00
   10   12   12     17.08      0.00
    1   13   12      2.94      0.00
    2   13   12      3.89      0.00
    3   13   12     -8.67      0.00
    4   13   12      3.94      0.00
    5   13   12      2.68      0.00
    6   13   12      5.73      0.00
    7   13   12    -17.42      0.00
    8   13   12     -4.51      0.00
    9   13   12     -8.11      0.00
   10   13   12      8.41      0.00
    0   14   12     -1.82      0.00
    1   14   12    -16.34      0.00
    2   14   12      0.33      0.00
    3   14   12     -2.13      0.00
    4   14   12     -0.54      0.00
    5   14   12     -1.11      0.00
    6   14   12     15.95      0.00
    7   14   12    -13.08      0.00
    8   14   12      6.46      0.00
    1   15   12      5.52      0.00
    2   15   12      9.49      0.00
    3   15   12     -4.24      0.00
    4   15   12     -1.85      0.00
    5   15   12     16.06      0.00
    6   15   12     18.49      0.00
    7   15   12     -4.97      0.00
    8   15   12     17.04      0.00
    0   16   12      7.83      0.00
    1   16   12     -2.51      0.00
    2   16   12     17.79      0.00
    3   16   12      3.41      0.00
    4   16   12     -5.99      0.00
    5   16   12      6.03      0.00
    6   16   12    -13.62      0.00
    7   16   12     27.04      0.00
    8   16   12    -17.45      0.00
    1   17   12    -26.49      0.00
    2   17   12    -10.03      0.00
    3   17   12    -32.52      0.00
    4   17   12    -12.57      0.00
    5   17   12     30.76      0.00
    6   17   12      1.31      0.00
    7   17   12      6.28      0.00
    8   17   12     13.21      0.00
    0   18   12    -10.34      0.00
    1   18   12     -7.91      0.00
    2   18   12     17.51      0.00
    3   18   12    -12.28      0.00
    4   18   12    -13.00      0.00
    5   18   12     30.35      0.00
    6   18   12     21.75      0.00
    7   18   12     -9.47      0.00
    8   18   12    -10.26      0.00
    1   19   12     18.39      0.00
    2   19   12     19.73      0.00
    3   19   12      9.58      0.00
    4   19   12     11.65      0.00
    0    1   13    -20.03      0.00
    1    2   13    -11.84      0.00
    0    3   13    -12.01      0.00
    1    3   13     -8.64      0.00
    2    3   13     -6.43      0.00
    1    4   13      0.90      0.00
    2    4   13     10.59      0.00
    3    4   13     -0.98      0.00
    0    5   13     20.07      0.00
    1    5   13      2.87      0.00
    2    5   13      3.52      0.00
    3    5   13     13.49      0.00
    4    5   13      2.67      0.00
    1    6   13    -12.60      0.00
    2    6   13     -1.14      0.00
    3    6   13      2.22      0.00
    4    6   13    -11.10      0.00
    5    6   13     -5.74      0.00
    0    7   13     -2.46      0.00
    1    7   13     -3.67      0.00
    2    7   13     -0.37      0.00
    3    7   13     -8.81      0.00
    4    7   13      0.09      0.00
    5    7   13     -4.60      0.00
    6    7   13     -0.43      0.00
    1    8   13      1.33      0.00
    2    8   13     -3.17      0.00
    3    8   13      0.05      0.00
    4    8   13      3.08      0.00
    5    8   13     -0.32      0.00
    6    8   13      8.62      0.00
    7    8   13      4.43      0.00
    0    9   13    -12.29      0.00
    1    9   13     -6.54      0.00
    2    9   13    -14.73      0.00
    3    9   13     -0.97      0.00
    4    9   13    -10.32      0.00
    5    9   13     -3.88      0.00
    6    9   13    -14.18      0.00
    7    9   13     11.72      0.00
    8    9   13     -6.89      0.00
    1   10   13     -6.39      0.00
    2   10   13      0.37      0.00
    3   10   13     13.07      0.00
    4   10   13     -6.60      0.00
    5   10   13      6.66      0.00
    6   10   13     -2.48      0.00
    7   10   13      8.02      0.00
    8   10   13    -18.72      0.00
    9   10   13     -3.54      0.00
    0   11   13      2.14      0.00
    1   11   13      8.89      0.00
    2   11   13     -6.49      0.00
    3   11   13    -10.61      0.00
    4   11   13     -9.62      0.00
    5   11   13      8.79      0.00
    6   11   13     -0.48      0.00
    7   11   13     -1.83      0.00
    8   11   13    -18.76      0.00
    9   11   13     -2.32      0.00
   10   11   13    -22.30      0.00
    1   12   13    -11.64      0.00
    2   12   13      4.55      0.00
    3   12   13    -11.40      0.00
    4   12   13     41.30      0.00
    5   12   13     -7.38      0.00
    6   12   13     -7.20      0.00
    7   12   13     32.24      0.00
    8   12   13    -12.57      0.00
    9   12   13     -4.92      0.00
   10   12   13     16.72      0.00
    0   13   13     13.68      0.00
    1   13   13     10.90      0.00
    2   13   13     15.99      0.00
    3   13   13    -19.81      0.00
    4   13   13    -11.44      0.00
    5   13   13     25.06      0.00
    6   13   13      1.63      0.00
    7   13   13      6.66      0.00
    8   13   13     32.35      0.00
    9   13   13     -7.04      0.00
   10   13   13      2.13      0.00
    1   14   13     -2.73      0.00
    2   14   13     12.77      0.00
    3   14   13      4.31      0.00
    4   14   13     11.01      0.00
    5   14   13     -6.35      0.00
    6   14   13    -21.44      0.00
    7   14   13    -11.85      0.00
    8   14   13      1.08      0.00
    0   15   13     12.59      0.00
    1   15   13    -13.56      0.00
    2   15   13    -10.69      0.00
    3   15   13     22.95      0.00
    4   15   13      4.22      0.00
    5   15   13      8.03      0.00
    6   15   13      8.92      0.00
    7   15   13      3.27      0.00
    8   15   13     -7.88      0.00
    1   16   13      2.49      0.00
    2   16   13     -9.56      0.00
    3   16   13     12.17      0.00
    4   16   13    -18.73      0.00
    5   16   13     16.79      0.00
    6   16   13     -7.74      0.00
    7   16   13     58.30      0.00
    8   16   13    -38.24      0.00
    0   17   13      4.69      0.00
    1   17   13     14.54      0.00
    2   17   13     -3.39      0.00
    3   17   13    -10.30      0.00
    4   17   13     71.67      0.00
    5   17   13     -7.02      0.00
    6   17   13      1.08      0.00
    7   17   13    -10.43      0.00
    8   17   13     24.68      0.00
    1   18   13      7.46      0.00
    2   18   13     -2.86      0.00
    3   18   13     -4.99      0.00
    4   18   13      6.68      0.00
    5   18   13     11.44      0.00
    6   18   13     -1.60      0.00
    7   18   13     -8.49      0.00
    8   18   13     -5.35      0.00
    0   19   13     25.82      0.00
    1   19   13     -4.17      0.00
    2   19   13     -0.89      0.00
    3   19   13     12.43      0.00
    0    0   14    -22.46      0.00
    1    1   14      1.45      0.00
    0    2   14    -10.91      0.00
    1    2   14      1.78      0.00
    2    2   14    -23.00      0.00
    1    3   14    -16.09      0.00
    2    3   14     -8.89      0.00
    3    3   14     -2.90      0.00
    0    4   14     -2.41      0.00
    1    4   14      5.31      0.00
    2    4   14    -14.27      0.00
    3    4   14    -11.59      0.00
    4    4   14      1.10      0.00
    1    5   14      5.21      0.00
    2    5   14     -8.69      0.00
    3    5   14     -7.90      0.00
    4    5   14     -0.51      0.00
    5    5   14      4.84      0.00
    0    6   14    -10.93      0.00
    1    6   14      8.03      0.00
    2    6   14     -5.22      0.00
    3    6   14      0.14      0.00
    4    6   14     -5.45      0.00
    5    6   14      2.56      0.00
    6    6   14      2.03      0.00
    1    7   14      0.81      0.00
    2    7   14     -8.35      0.00
    3    7   14     -5.71      0.00
    4    7   14     -7.97      0.00
    5    7   14     -8.87      0.00
    6    7   14     -3.08      0.00
    7    7   14     -6.88      0.00
    0    8   14      3.39      0.00
    1    8   14      4.36      0.00
    2    8   14     -1.72      0.00
    3    8   14     -3.34      0.00
    4    8   14     11.08      0.00
    5    8   14     -1.75      0.00
    6    8   14     -4.67      0.00
    7    8   14      9.87      0.00
    1    9   14      4.06      0.00
    2    9   14      9.23      0.00
    3    9   14     -3.13      0.00
    4    9   14      7.68      0.00
    5    9   14     -1.00      0.00
    6    9   14      4.17      0.00
    7    9   14     -1.37      0.00
    8    9   14      1.67      0.00
    9    9   14      7.69      0.00
    0   10   14    -10.53      0.00
    1   10   14      2.39      0.00
    2   10   14     -5.75      0.00
    3   10   14     -5.55      0.00
    4   10   14     -0.65      0.00
    5   10   14     -5.59      0.00
    6   10   14     -0.68      0.00
    7   10   14     -0.08      0.00
    8   10   14     -0.18      0.00
    9   10   14     -8.67      0.00
   10   10   14     -9.23      0.00
    1   11   14      1.08      0.00
    2   11   14     -4.47      0.00
    3   11   14      5.94      0.00
    4   11   14     17.45      0.00
    5   11   14      1.45      0.00
    6   11   14     30.11      0.00
    7   11   14      2.80      0.00
    8   11   14      6.53      0.00
    9   11   14     10.40      0.00
   10   11   14     -9.57      0.00
    0   12   14     -8.16      0.00
    1   12   14     13.52      0.00
    2   12   14     -4.77      0.00
    3   12   14     26.58      0.00
    5   12   14    -12.56      0.00
    6   12   14     -1.32      0.00
    7   12   14    -18.20      0.00
    8   12   14     -1.56      0.00
    9   12   14     14.70      0.00
   10   12   14     -6.22      0.00
    1   13   14     10.82      0.00
    2   13   14     11.18      0.00
    3   13   14     -7.36      0.00
    4   13   14     11.17      0.00
    5   13   14      5.85      0.00
    6   13   14     -2.88      0.00
    7   13   14    -13.29      0.00
    8   13   14      2.39      0.00
    9   13   14    -14.72      0.00
   10   13   14     13.63      0.00
   11   13   14    -27.86      0.00
    0   14   14     28.65      0.00
    1   14   14     -7.35      0.00
    2   14   14      3.31      0.00
    3   14   14      2.46      0.00
    4   14   14      6.93      0.00
    5   14   14    -18.92      0.00
    6   14   14    -12.90      0.00
    7   14   14     21.31      0.00
    8   14   14      1.49      0.00
   11   14   14     -6.76      0.00
    1   15   14    -14.03      0.00
    2   15   14     -0.32      0.00
    3   15   14      9.22      0.00
    4   15   14     -2.30      0.00
    5   15   14    -17.89      0.00
    6   15   14      0.91      0.00
    7   15   14     -6.80      0.00
    8   15   14      8.86      0.00
    0   16   14      6.32      0.00
    1   16   14     11.66      0.00
    2   16   14      6.15      0.00
    3   16   14     -4.44      0.00
    4   16   14    -12.49      0.00
    5   16   14    -19.45      0.00
    6   16   14    -23.71      0.00
    7   16   14     13.78      0.00
    8   16   14     -6.52      0.00
    1   17   14    -12.03      0.00
    2   17   14     18.42      0.00
    3   17   14      2.41      0.00
    4   17   14      9.00      0.00
    5   17   14    -15.97      0.00
    6   17   14    -16.83      0.00
    7   17   14    -15.95      0.00
    8   17   14     -0.54      0.00
    0   18   14    -24.16      0.00
    1   18   14     13.24      0.00
    2   18   14      5.46      0.00
    3   18   14     -6.61      0.00
    4   18   14    -24.69      0.00
    5   18   14     26.73      0.00
    6   18   14    -10.13      0.00
    7   18   14      0.33      0.00
    0    1   15     -0.21      0.00
    1    2   15     -0.02      0.00
    0    3   15     -9.28      0.00
    1    3   15     -5.23      0.00
    2    3   15     -0.59      0.00
    1    4   15     -4.67      0.00
    2    4   15    -14.41      0.00
    3    4   15     -9.74      0.00
    0    5   15      5.11      0.00
    1    5   15      2.11      0.00
    2    5   15     -8.35      0.00
    3    5   15     -4.25      0.00
    4    5   15      8.47      0.00
    1    6   15    -11.79      0.00
    2    6   15     11.00      0.00
    3    6   15     -1.93      0.00
    4    6   15      1.75      0.00
    5    6   15     12.01      0.00
    0    7   15     14.89      0.00
    1    7   15      6.76      0.00
    2    7   15      9.19      0.00
    3    7   15     -2.14      0.00
    4    7   15     -5.50      0.00
    5    7   15     -0.80      0.00
    6    7   15     -4.77      0.00
    1    8   15      4.19      0.00
    2    8   15      3.21      0.00
    3    8   15      1.98      0.00
    4    8   15     -0.90      0.00
    5    8   15      5.43      0.00
    6    8   15     10.99      0.00
    0    9   15     -4.45      0.00
    1    9   15      2.97      0.00
    2    9   15     11.51      0.00
    3    9   15     -0.54      0.00
    4    9   15     -3.51      0.00
    5    9   15      0.76      0.00
    6    9   15      1.86      0.00
    7    9   15     -5.53      0.00
    8    9   15     -6.37      0.00
    1   10   15      9.32      0.00
    2   10   15      5.22      0.00
    3   10   15     16.91      0.00
    4   10   15     10.42      0.00
    5   10   15      7.27      0.00
    6   10   15    -15.95      0.00
    7   10   15      4.25      0.00
    8   10   15      5.09      0.00
    9   10   15      0.55      0.00
    0   11   15      1.22      0.00
    1   11   15      4.14      0.00
    2   11   15     11.81      0.00
    3   11   15    -20.65      0.00
    4   11   15    -14.73      0.00
    5   11   15    -13.04      0.00
    6   11   15    -14.01      0.00
    7   11   15      5.23      0.00
    8   11   15     16.26      0.00
    9   11   15      7.09      0.00
   10   11   15     10.17      0.00
    1   12   15    -14.49      0.00
    2   12   15    -10.12      0.00
    4   12   15     18.61      0.00
    5   12   15      9.40      0.00
    6   12   15     19.65      0.00
    7   12   15      7.88      0.00
    8   12   15      1.64      0.00
    9   12   15     -8.58      0.00
   10   12   15    -13.82      0.00
   11   12   15     -8.06      0.00
    0   13   15      6.67      0.00
    1   13   15    -16.32      0.00
    2   13   15      8.50      0.00
    3   13   15     -8.75      0.00
    4   13   15     -7.99      0.00
    5   13   15      8.14      0.00
    6   13   15      1.85      0.00
    7   13   15      9.85      0.00
    8   13   15    -11.31      0.00
    9   13   15     -9.42      0.00
   10   13   15     -5.16      0.00
   11   13   15      0.33      0.00
    1   14   15    -10.44      0.00
    2   14   15     11.25      0.00
    3   14   15     -7.28      0.00
    4   14   15    -35.00      0.00
    5   14   15      9.59      0.00
    6   14   15     -2.42      0.00
    7   14   15     22.23      0.00
    8   14   15    -14.75      0.00
    9   14   15    -11.83      0.00
   10   14   15     -3.90      0.00
   11   14   15    -13.60      0.00
    0   15   15      0.56      0.00
    1   15   15     -2.85      0.00
    2   15   15      3.08      0.00
    3   15   15     12.55      0.00
    4   15   15    -14.59      0.00
    5   15   15      9.66      0.00
    6   15   15     -5.26      0.00
    7   15   15    -10.11      0.00
    1   16   15      5.57      0.00
    2   16   15      1.18      0.00
    3   16   15    -17.75      0.00
    4   16   15      5.62      0.00
    5   16   15     -6.67      0.00
    6   16   15     12.98      0.00
    7   16   15     21.48      0.00
    0   17   15    -20.66      0.00
    1   17   15     -7.44      0.00
    2   17   15    -18.31      0.00
    3   17   15     -9.92      0.00
    4   17   15     -0.12      0.00
    5   17   15     14.64      0.00
    6   17   15    -14.42      0.00
    7   17   15     -9.22      0.00
    1   18   15      6.62      0.00
    2   18   15    -14.99      0.00
    3   18   15    -17.28      0.00
    4   18   15     -5.55      0.00
    5   18   15    -11.45      0.00
    6   18   15     25.76      0.00
    7   18   15     -8.16      0.00
    0    0   16    -20.81      0.00
    1    1   16     18.10      0.00
    0    2   16      6.15      0.00
    1    2   16     -2.04      0.00
    2    2   16     43.86      0.00
    1    3   16     29.92      0.00
    2    3   16     -6.10      0.00
    3    3   16      8.57      0.00
    0    4   16     15.33      0.00
    1    4   16    -18.16      0.00
    2    4   16    -10.20      0.00
    3    4   16      5.30      0.00
    4    4   16      2.94      0.00
    1    5   16      8.16      0.00
    2    5   16     10.06      0.00
    3    5   16     -1.65      0.00
    4    5   16      9.37      0.00
    5    5   16     -2.70      0.00
    0    6   16      1.46      0.00
    1    6   16      7.50      0.00
    2    6   16     -9.84      0.00
    3    6   16     -2.22      0.00
    4    6   16      3.95      0.00
    5    6   16    -17.33      0.00
    6    6   16     -3.80      0.00
    1    7   16      1.06      0.00
    2    7   16      4.10      0.00
    3    7   16     11.38      0.00
    4    7   16      3.04      0.00
    5    7   16     -8.28      0.00
    6    7   16      5.15      0.00
    0    8   16     -1.07      0.00
    1    8   16      6.69      0.00
    2    8   16      3.66      0.00
    3    8   16      0.07      0.00
    4    8   16     -0.69      0.00
    5    8   16      0.92      0.00
    7    8   16      2.73      0.00
    8    8   16     -9.92      0.00
    1    9   16     -0.84      0.00
    2    9   16      5.46      0.00
    3    9   16      1.99      0.00
    4    9   16      6.32      0.00
    6    9   16     -3.46      0.00
    7    9   16     -8.46      0.00
    8    9   16    -16.76      0.00
    9    9   16     -5.36      0.00
    0   10   16      8.62      0.00
    1   10   16    -12.68      0.00
    2   10   16     -8.05      0.00
    3   10   16    -13.07      0.00
    4   10   16     10.46      0.00
    5   10   16    -14.47      0.00
    6   10   16      7.78      0.00
    7   10   16     -5.37      0.00
    8   10   16    -12.02      0.00
    9   10   16      6.23      0.00
   10   10   16      6.67      0.00
    1   11   16     12.84      0.00
    2   11   16    -19.02      0.00
    3   11   16     10.40      0.00
    4   11   16     -8.71      0.00
    5   11   16    -14.25      0.00
    6   11   16      5.17      0.00
    7   11   16      5.19      0.00
    8   11   16    -10.53      0.00
    9   11   16      8.71      0.00
   10   11   16     -2.66      0.00
   11   11   16      7.89      0.00
    0   12   16    -28.27      0.00
    1   12   16     14.89      0.00
    2   12   16     -9.54      0.00
    3   12   16    -22.41      0.00
    4   12   16      1.40      0.00
    5   12   16     -6.92      0.00
    6   12   16      0.55      0.00
    7   12   16      5.22      0.00
    8   12   16     -6.40      0.00
    9   12   16      4.73      0.00
   10   12   16     -3.34      0.00
   11   12   16     13.15      0.00
    1   13   16     -6.70      0.00
    2   13   16      8.99      0.00
    3   13   16     -0.81      0.00
    4   13   16      8.15      0.00
    5   13   16     10.47      0.00
    6   13   16    -31.65      0.00
    7   13   16      4.52      0.00
    8   13   16      4.79      0.00
    9   13   16      3.44      0.00
   10   13   16     -2.67      0.00
   11   13   16    -20.19      0.00
    0   14   16      4.98      0.00
    1   14   16     -8.56      0.00
    2   14   16     -8.61      0.00
    3   14   16     -6.93      0.00
    4   14   16     -5.20      0.00
    5   14   16     22.11      0.00
    6   14   16      1.42      0.00
    7   14   16     -1.19      0.00
    8   14   16    -10.02      0.00
    9   14   16    -29.30      0.00
   10   14   16     -5.80      0.00
   11   14   16      5.89      0.00
    1   15   16    -16.20      0.00
    2   15   16     -5.25      0.00
    3   15   16      3.21      0.00
    4   15   16      3.99      0.00
    5   15   16     -3.39      0.00
    6   15   16     12.80      0.00
    0   16   16     16.71      0.00
    1   16   16      5.91      0.00
    2   16   16     -8.76      0.00
    3   16   16    -11.70      0.00
    4   16   16     -2.80      0.00
    5   16   16      0.58      0.00
    6   16   16     18.32      0.00
    1   17   16      5.98      0.00
    2   17   16    -14.56      0.00
    3   17   16     33.56      0.00
    4   17   16     16.19      0.00
    5   17   16      4.83      0.00
    6   17   16    -27.57      0.00
    0   18   16    -17.91      0.00
    1   18   16     -7.59      0.00
    2   18   16    -13.48      0.00
    3   18   16     12.66      0.00
    4   18   16     23.09      0.00
    5   18   16     -6.07      0.00
    6   18   16     10.80      0.00
    0    1   17     10.10      0.00
    1    2   17     -2.82      0.00
    0    3   17    -10.73      0.00
    1    3   17     -8.34      0.00
    2    3   17      8.41      0.00
    1    4   17     18.21      0.00
    2    4   17     -2.29      0.00
    3    4   17      8.03      0.00
    0    5   17     23.71      0.00
    1    5   17      2.15      0.00
    2    5   17     -9.11      0.00
    3    5   17     -1.17      0.00
    4    5   17      9.56      0.00
    1    6   17     -4.43      0.00
    2    6   17     10.07      0.00
    3    6   17     -8.58      0.00
    4    6   17     15.89      0.00
    5    6   17      1.01      0.00
    0    7   17     15.72      0.00
    1    7   17     -2.47      0.00
    2    7   17     -7.17      0.00
    3    7   17     -3.68      0.00
    4    7   17     10.79      0.00
    5    7   17      0.08      0.00
    1    8   17    -13.66      0.00
    2    8   17     -0.94      0.00
    3    8   17     -9.43      0.00
    4    8   17    -17.30      0.00
    6    8   17      3.92      0.00
    7    8   17      5.95      0.00
    0    9   17      5.01      0.00
    1    9   17     -7.27      0.00
    2    9   17     -5.41      0.00
    3    9   17      6.14      0.00
    4    9   17     -7.84      0.00
    5    9   17      3.65      0.00
    6    9   17     10.46      0.00
    7    9   17      5.63      0.00
    8    9   17     -0.13      0.00
    1   10   17     -4.65      0.00
    2   10   17      3.68      0.00
    3   10   17     -2.81      0.00
    4   10   17      6.71      0.00
    5   10   17    -10.82      0.00
    6   10   17    -10.12      0.00
    7   10   17      3.87      0.00
    8   10   17     -4.38      0.00
    9   10   17     -5.54      0.00
    0   11   17     17.89      0.00
    1   11   17     22.54      0.00
    2   11   17     -8.12      0.00
    3   11   17     -7.08      0.00
    4   11   17    -18.28      0.00
    5   11   17      3.23      0.00
    6   11   17      6.68      0.00
    7   11   17     11.54      0.00
    8   11   17     -0.98      0.00
    9   11   17    -12.98      0.00
   10   11   17      6.59      0.00
    1   12   17     -7.25      0.00
    2   12   17    -16.90      0.00
    3   12   17      8.68      0.00
    4   12   17     37.68      0.00
    5   12   17     14.16      0.00
    6   12   17      0.05      0.00
    7   12   17    -33.83      0.00
    8   12   17     -6.13      0.00
    9   12   17     -9.06      0.00
   10   12   17      5.46      0.00
   11   12   17      7.27      0.00
    0   13   17     18.18      0.00
    1   13   17      4.86      0.00
    2   13   17     23.45      0.00
    3   13   17     13.18      0.00
    4   13   17     -0.75      0.00
    5   13   17    -69.44      0.00
    6   13   17    -16.79      0.00
    7   13   17      7.85      0.00
    8   13   17     -3.83      0.00
    9   13   17      1.10      0.00
   10   13   17     -3.99      0.00
   11   13   17     -4.74      0.00
    1   14   17      4.54      0.00
    2   14   17     -3.44      0.00
    3   14   17     -3.43      0.00
    4   14   17    -13.47      0.00
    5   14   17      3.04      0.00
    6   14   17     13.56      0.00
    7   14   17     13.28      0.00
    8   14   17      8.71      0.00
    9   14   17      6.97      0.00
   10   14   17     -0.72      0.00
   11   14   17     -6.83      0.00
    0   15   17     -0.09      0.00
    1   15   17      7.21      0.00
    2   15   17    -10.45      0.00
    3   15   17      0.46      0.00
    4   15   17      1.19      0.00
    5   15   17     -3.47      0.00
    1   16   17     -3.74      0.00
    2   16   17     -2.16      0.00
    4   16   17     -8.45      0.00
    5   16   17     -5.77      0.00
    0   17   17    -15.65      0.00
    1   17   17    -16.27      0.00
    2   17   17     18.10      0.00
    3   17   17     -6.22      0.00
    4   17   17     -1.87      0.00
    5   17   17    -26.55      0.00
    1   18   17     -2.85      0.00
    2   18   17     16.88      0.00
    3   18   17     -2.76      0.00
    4   18   17     -2.36      0.00
    5   18   17    -18.02      0.00
    1    1   18     -4.54      0.00
    0    2   18    -10.99      0.00
    1    2   18     -4.29      0.00
    2    2   18     21.32      0.00
    1    3   18    -14.97      0.00
    2    3   18     -8.56      0.00
    3    3   18      3.41      0.00
    0    4   18     -2.75      0.00
    1    4   18      7.56      0.00
    2    4   18    -13.11      0.00
    3    4   18    -12.46      0.00
    4    4   18      6.40      0.00
    1    5   18     11.31      0.00
    2    5   18     -2.76      0.00
    3    5   18      8.15      0.00
    4    5   18     18.92      0.00
    5    5   18     20.00      0.00
    0    6   18    -16.19      0.00
    1    6   18    -14.55      0.00
    2    6   18     22.31      0.00
    3    6   18     -7.55      0.00
    4    6   18      1.10      0.00
    5    6   18    -27.48      0.00
    1    7   18      4.96      0.00
    2    7   18     -7.01      0.00
    3    7   18      0.59      0.00
    4    7   18      2.55      0.00
    6    7   18     16.48      0.00
    7    7   18     -1.05      0.00
    0    8   18      4.33      0.00
    1    8   18     10.79      0.00
    2    8   18      5.07      0.00
    3    8   18      7.85      0.00
    4    8   18      7.39      0.00
    5    8   18      8.87      0.00
    6    8   18     -3.92      0.00
    7    8   18    -10.92      0.00
    8    8   18      3.20      0.00
    1    9   18     -0.20      0.00
    2    9   18     16.83      0.00
    3    9   18     -6.62      0.00
    4    9   18     10.38      0.00
    5    9   18     -9.25      0.00
    6    9   18    -13.73      0.00
    7    9   18     -1.50      0.00
    8    9   18     -4.02      0.00
    9    9   18     -2.01      0.00
    0   10   18    -10.65      0.00
    1   10   18      3.69      0.00
    2   10   18     -0.46      0.00
    3   10   18    -24.92      0.00
    4   10   18     -5.73      0.00
    5   10   18      0.81      0.00
    6   10   18      3.91      0.00
    7   10   18      2.02      0.00
    8   10   18     -7.40      0.00
    9   10   18     19.22      0.00
   10   10   18     -0.72      0.00
    1   11   18    -14.03      0.00
    2   11   18     -0.07      0.00
    3   11   18     13.20      0.00
    4   11   18    -15.64      0.00
    5   11   18     11.43      0.00
    6   11   18     10.18      0.00
    7   11   18     -0.19      0.00
    8   11   18     -2.06      0.00
    9   11   18     10.20      0.00
   10   11   18    -16.02      0.00
   11   11   18      3.82      0.00
    0   12   18     -9.47      0.00
    1   12   18     -0.12      0.00
    2   12   18    -22.44      0.00
    3   12   18     23.57      0.00
    4   12   18     -5.36      0.00
    5   12   18     13.69      0.00
    6   12   18      3.84      0.00
    7   12   18     10.90      0.00
    8   12   18     -9.92      0.00
    9   12   18     -0.29      0.00
   10   12   18     -3.95      0.00
   11   12   18      4.05      0.00
   12   12   18     -9.85      0.00
    1   13   18     14.82      0.00
    2   13   18     -6.84      0.00
    3   13   18      4.46      0.00
    4   13   18     17.00      0.00
    5   13   18     -2.12      0.00
    6   13   18      3.35      0.00
    7   13   18      3.13      0.00
    8   13   18      7.78      0.00
    9   13   18     -0.85      0.00
   10   13   18     -8.40      0.00
   11   13   18     14.67      0.00
    0   14   18     22.00      0.00
    1   14   18     -1.18      0.00
    2   14   18      4.84      0.00
    3   14   18      1.25      0.00
    4   14   18      0.76      0.00
    5   14   18      3.59      0.00
    6   14   18      7.58      0.00
    7   14   18     -5.18      0.00
    8   14   18      8.54      0.00
    9   14   18     11.96      0.00
   10   14   18     -3.04      0.00
   11   14   18      0.40      0.00
    1   15   18      6.07      0.00
    2   15   18     -4.49      0.00
    3   15   18     10.68      0.00
    4   15   18    -11.04      0.00
    0   16   18     18.64      0.00
    1   16   18     49.29      0.00
    2   16   18     -0.27      0.00
    3   16   18     -5.91      0.00
    4   16   18     -9.24      0.00
    1   17   18     19.58      0.00
    2   17   18     -4.88      0.00
    3   17   18     -0.22      0.00
    4   17   18     12.57      0.00
    0   18   18    -31.23      0.00
    1   18   18    -14.17      0.00
    2   18   18      4.24      0.00
    3   18   18     -6.22      0.00
    4   18   18     11.29      0.00
    0    1   19      4.00      0.00
    1    2   19     -8.39      0.00
    0    3   19    -12.42      0.00
    1    3   19     11.05      0.00
    2    3   19    -10.72      0.00
    1    4   19     -3.32      0.00
    2    4   19      9.51      0.00
    3    4   19    -16.10      0.00
    0    5   19    -21.17      0.00
    1    5   19      3.13      0.00
    2    5   19    -12.79      0.00
    3    5   19     -4.90      0.00
    4    5   19     -3.20      0.00
    1    6   19     -1.94      0.00
    2    6   19     -4.84      0.00
    3    6   19     -8.47      0.00
    4    6   19     -0.04      0.00
    0    7   19     -7.24      0.00
    1    7   19    -10.69      0.00
    2    7   19     -3.57      0.00
    3    7   19     -7.85      0.00
    5    7   19      7.35      0.00
    6    7   19     16.89      0.00
    1    8   19     -1.43      0.00
    2    8   19     -2.34      0.00
    3    8   19      7.03      0.00
    4    8   19    -12.73      0.00
    5    8   19      3.64      0.00
    6    8   19     -2.87      0.00
    7    8   19      9.64      0.00
    0    9   19     -0.41      0.00
    1    9   19     -0.53      0.00
    2    9   19     -2.83      0.00
    3    9   19      8.56      0.00
    4    9   19     10.21      0.00
    5    9   19      5.85      0.00
    6    9   19      2.05      0.00
    7    9   19      2.79      0.00
    8    9   19    -18.53      0.00
    1   10   19      6.71      0.00
    2   10   19     -0.18      0.00
    3   10   19      5.93      0.00
    4   10   19     17.18      0.00
    5   10   19     -4.69      0.00
    6   10   19    -14.84      0.00
    7   10   19     -0.58      0.00
    8   10   19     -7.20      0.00
    9   10   19      0.63      0.00
    0   11   19     17.80      0.00
    1   11   19      3.13      0.00
    2   11   19     11.15      0.00
    3   11   19     -2.45      0.00
    4   11   19     -7.60      0.00
    5   11   19     -3.02      0.00
    6   11   19     12.32      0.00
    7   11   19     14.90      0.00
    8   11   19      3.81      0.00
    9   11   19     -1.52      0.00
   10   11   19     -3.66      0.00
    1   12   19     -6.18      0.00
    2   12   19     -8.63      0.00
    3   12   19    -10.15      0.00
    4   12   19      7.72      0.00
    5   12   19     -0.38      0.00
    6   12   19      6.79      0.00
    7   12   19      1.41      0.00
    8   12   19     -1.67      0.00
    9   12   19      1.92      0.00
   10   12   19     39.38      0.00
   11   12   19      2.07      0.00
    0   13   19    -44.39      0.00
    1   13   19     22.47      0.00
    2   13   19     15.24      0.00
    3   13   19    -20.21      0.00
    4   13   19      0.70      0.00
    5   13   19     -0.56      0.00
    6   13   19      3.64      0.00
    7   13   19      5.63      0.00
    8   13   19      8.19      0.00
    9   13   19     -7.54      0.00
   10   13   19     -4.31      0.00
   11   13   19      1.01      0.00
   12   13   19      4.47      0.00
    1   14   19     -5.78      0.00
    2   14   19     -6.15      0.00
    3   14   19      3.97      0.00
    4   14   19     19.00      0.00
    5   14   19      0.87      0.00
    6   14   19     23.23      0.00
    7   14   19      0.29      0.00
    8   14   19     -0.38      0.00
    9   14   19      1.36      0.00
   10   14   19    -11.42      0.00
   11   14   19    -18.46      0.00
    0   15   19     13.02      0.00
    1   15   19     -8.40      0.00
    2   15   19     11.05      0.00
    1   16   19     -8.08      0.00
    2   16   19      7.03      0.00
    3   16   19      3.39      0.00
    0   17   19     18.19      0.00
    1   17   19    -10.37      0.00
    2   17   19      5.65      0.00
    3   17   19     -6.64      0.00
    1   18   19      5.65      0.00
    2   18   19    -14.67      0.00
    3   18   19    -22.46      0.00
    1    1   20     -6.23      0.00
    0    2   20     -8.55      0.00
    1    2   20     -4.47      0.00
    2    2   20      3.31      0.00
    1    3   20    -10.86      0.00
    2    3   20    -15.14      0.00
    3    3   20     14.51      0.00
    0    4   20     15.92      0.00
    1    4   20     19.96      0.00
    2    4   20     -3.11      0.00
    3    4   20     -1.11      0.00
    4    4   20      9.98      0.00
    1    5   20      1.68      0.00
    2    5   20      4.77      0.00
    3    5   20      3.32      0.00
    4    5   20      4.50      0.00
    0    6   20     -0.73      0.00
    1    6   20      3.12      0.00
    2    6   20     -6.68      0.00
    3    6   20     -3.70      0.00
    5    6   20      4.29      0.00
    6    6   20      2.75      0.00
    1    7   20     -5.35      0.00
    2    7   20    -13.35      0.00
    3    7   20     -5.11      0.00
    4    7   20     10.44      0.00
    5    7   20     -0.81      0.00
    6    7   20     17.85      0.00
    0    8   20     -0.47      0.00
    1    8   20     -5.01      0.00
    2    8   20     10.03      0.00
    3    8   20    -15.58      0.00
    4    8   20      5.04      0.00
    5    8   20    -11.54      0.00
    6    8   20      0.17      0.00
    7    8   20      5.78      0.00
    8    8   20     -7.66      0.00
    1    9   20      1.92      0.00
    2    9   20    -21.32      0.00
    3    9   20     -5.11      0.00
    4    9   20      4.63      0.00
    5    9   20      2.33      0.00
    6    9   20      1.85      0.00
    7    9   20     -1.52      0.00
    8    9   20      6.01      0.00
    9    9   20     24.10      0.00
    0   10   20      3.81      0.00
    1   10   20     -1.77      0.00
    2   10   20     14.40      0.00
    3   10   20      5.23      0.00
    4   10   20     -6.52      0.00
    5   10   20     -2.97      0.00
    6   10   20     12.61      0.00
    7   10   20     -4.04      0.00
    8   10   20      1.78      0.00
    9   10   20      8.25      0.00
   10   10   20     25.08      0.00
    1   11   20     13.05      0.00
    2   11   20      2.52      0.00
    3   11   20    -10.87      0.00
    4   11   20      0.43      0.00
    5   11   20      5.41      0.00
    6   11   20     10.69      0.00
    7   11   20      3.95      0.00
    8   11   20     -2.27      0.00
    9   11   20      3.82      0.00
   10   11   20    -17.09      0.00
   11   11   20     -2.87      0.00
    0   12   20     13.65      0.00
    1   12   20      2.59      0.00
    2   12   20     -7.95      0.00
    3   12   20     10.39      0.00
    4   12   20     -2.33      0.00
    5   12   20     -5.10      0.00
    6   12   20     -8.86      0.00
    7   12   20     -0.28      0.00
    8   12   20      7.70      0.00
    9   12   20    -17.96      0.00
   10   12   20    -13.16      0.00
   11   12   20     -2.76      0.00
   12   12   20      8.28      0.00
    1   13   20     16.74      0.00
    2   13   20      2.59      0.00
    3   13   20      7.56      0.00
    4   13   20    -15.66      0.00
    5   13   20      3.68      0.00
    6   13   20    -17.62      0.00
    7   13   20      6.17      0.00
    8   13   20      5.41      0.00
    9   13   20      5.22      0.00
   10   13   20    -16.24      0.00
   11   13   20      3.58      0.00
    0   14   20      2.75      0.00
    1   14   20     -4.00      0.00
    2   14   20     -8.99      0.00
    3   14   20     14.93      0.00
    4   14   20     -4.78      0.00
    5   14   20     -7.98      0.00
    6   14   20      5.12      0.00
    7   14   20     -6.62      0.00
    8   14   20     -4.91      0.00
    9   14   20      1.25      0.00
   10   14   20      1.92      0.00
    1   15   20    -71.10      0.00
    8   15   20     -2.81      0.00
    9   15   20     11.13      0.00
   10   15   20     24.90      0.00
    0   16   20     28.88      0.00
    1   16   20    -13.18      0.00
    2   16   20    -28.48      0.00
    1   17   20      8.60      0.00
    2   17   20     11.21      0.00
    0    1   21     23.98      0.00
    1    2   21     -5.10      0.00
    0    3   21     -4.12      0.00
    1    3   21     37.65      0.00
    2    3   21      0.59      0.00
    1    4   21      2.32      0.00
    2    4   21      9.00      0.00
    3    4   21     12.66      0.00
    0    5   21     -0.58      0.00
    1    5   21      4.96      0.00
    2    5   21     16.36      0.00
    3    5   21      1.56      0.00
    1    6   21     13.90      0.00
    2    6   21    -15.60      0.00
    3    6   21    -12.68      0.00
    4    6   21      9.51      0.00
    5    6   21      3.00      0.00
    0    7   21    -14.53      0.00
    1    7   21     25.49      0.00
    2    7   21     -2.36      0.00
    3    7   21      4.21      0.00
    4    7   21      7.40      0.00
    5    7   21      6.08      0.00
    6    7   21     -6.58      0.00
    1    8   21     12.83      0.00
    2    8   21     18.15      0.00
    3    8   21      5.26      0.00
    4    8   21      7.90      0.00
    5    8   21     -6.14      0.00
    6    8   21     -1.77      0.00
    7    8   21      9.11      0.00
    0    9   21    -66.46      0.00
    1    9   21      8.45      0.00
    2    9   21     -3.51      0.00
    3    9   21      7.26      0.00
    4    9   21     -0.55      0.00
    5    9   21     -0.90      0.00
    6    9   21     -9.44      0.00
    7    9   21     -7.35      0.00
    8    9   21      2.59      0.00
    1   10   21     -4.90      0.00
    2   10   21     11.58      0.00
    3   10   21     -7.23      0.00
    4   10   21     17.06      0.00
    5   10   21      1.21      0.00
    6   10   21    -17.87      0.00
    7   10   21     -0.56      0.00
    8   10   21     -4.63      0.00
    9   10   21      6.27      0.00
    0   11   21     37.29      0.00
    1   11   21     -4.06      0.00
    2   11   21      6.55      0.00
    3   11   21     -9.80      0.00
    4   11   21      6.00      0.00
    5   11   21    -15.28      0.00
    6   11   21     -1.68      0.00
    7   11   21      2.34      0.00
    8   11   21     -4.93      0.00
    9   11   21     -0.82      0.00
   10   11   21     11.20      0.00
    1   12   21     -1.23      0.00
    2   12   21     -0.24      0.00
    3   12   21    -17.68      0.00
    4   12   21     -4.08      0.00
    5   12   21     -3.98      0.00
    6   12   21     -9.82      0.00
    7   12   21     -0.96      0.00
    8   12   21     -5.34      0.00
    9   12   21     15.87      0.00
   10   12   21      8.81      0.00
   11   12   21     -5.30      0.00
    0   13   21    -15.70      0.00
    1   13   21     14.68      0.00
    2   13   21      6.00      0.00
    3   13   21     -5.91      0.00
    4   13   21     -2.88      0.00
    5   13   21     -9.72      0.00
    6   13   21      6.51      0.00
    7   13   21      6.68      0.00
    8   13   21      1.72      0.00
    9   13   21     -8.97      0.00
   10   13   21      0.55      0.00
   11   13   21     -4.39      0.00
    1   14   21     15.04      0.00
    2   14   21    -17.82      0.00
    3   14   21      1.27      0.00
    4   14   21      2.44      0.00
    5   14   21      7.75      0.00
    6   14   21     13.13      0.00
    7   14   21    -20.92      0.00
    8   14   21     13.68      0.00
    9   14   21      6.48      0.00
   10   14   21      2.22      0.00
    0   15   21    -15.56      0.00
    1   15   21     47.76      0.00
    6   15   21     11.51      0.00
    7   15   21    -10.96      0.00
    8   15   21     12.75      0.00
    9   15   21     21.41      0.00
    1   16   21    -22.93      0.00
    0   17   21    -38.26      0.00
    1   17   21     16.52      0.00
    1    1   22      5.98      0.00
    0    2   22    -39.88      0.00
    1    2   22      8.47      0.00
    2    2   22      1.31      0.00
    1    3   22     -6.02      0.00
    2    3   22     -8.53      0.00
    3    3   22     13.60      0.00
    0    4   22     -0.45      0.00
    1    4   22     19.96      0.00
    2    4   22     10.43      0.00
    3    4   22      6.82      0.00
    4    4   22      6.67      0.00
    1    5   22      9.77      0.00
    2    5   22     -2.89      0.00
    3    5   22      3.56      0.00
    4    5   22     -2.41      0.00
    5    5   22     -7.05      0.00
    0    6   22     -1.53      0.00
    1    6   22    -24.72      0.00
    2    6   22      1.27      0.00
    3    6   22     -5.98      0.00
    4    6   22      9.41      0.00
    5    6   22      6.88      0.00
    6    6   22     13.05      0.00
    1    7   22     -1.60      0.00
    2    7   22      7.93      0.00
    3    7   22    -11.70      0.00
    4    7   22    -18.71      0.00
    5    7   22     -9.73      0.00
    6    7   22      5.53      0.00
    7    7   22      3.77      0.00
    0    8   22     -3.44      0.00
    1    8   22     -2.51      0.00
    2    8   22     10.79      0.00
    3    8   22    -13.85      0.00
    4    8   22      0.28      0.00
    5    8   22     -7.50      0.00
    6    8   22     31.48      0.00
    7    8   22     -0.73      0.00
    8    8   22      5.84      0.00
    1    9   22     -8.51      0.00
    2    9   22      3.81      0.00
    3    9   22     10.50      0.00
    4    9   22     -1.99      0.00
    5    9   22    -19.98      0.00
    6    9   22     10.02      0.00
    7    9   22    -12.53      0.00
    8    9   22      5.73      0.00
    9    9   22      7.96      0.00
    0   10   22     -3.05      0.00
    1   10   22     -4.94      0.00
    2   10   22      7.61      0.00
    3   10   22      8.63      0.00
    4   10   22     -9.24      0.00
    5   10   22      6.65      0.00
    6   10   22      2.45      0.00
    7   10   22     -9.60      0.00
    8   10   22     -7.31      0.00
    9   10   22      2.55      0.00
   10   10   22    -22.93      0.00
    1   11   22     -3.76      0.00
    2   11   22    -13.85      0.00
    3   11   22    -14.09      0.00
    4   11   22      3.88      0.00
    5   11   22      1.35      0.00
    6   11   22      9.53      0.00
    7   11   22    -11.21      0.00
    8   11   22     -3.21      0.00
    9   11   22    -38.48      0.00
   10   11   22     20.10      0.00
   11   11   22     12.98      0.00
    0   12   22    -26.80      0.00
    1   12   22    -24.23      0.00
    2   12   22      5.14      0.00
    3   12   22     -1.28      0.00
    4   12   22     -0.69      0.00
    5   12   22     -7.27      0.00
    6   12   22      7.47      0.00
    7   12   22     -0.49      0.00
    8   12   22      4.73      0.00
    9   12   22      9.77      0.00
   10   12   22     -7.41      0.00
   11   12   22      4.06      0.00
    1   13   22    -17.41      0.00
    2   13   22      8.64      0.00
    3   13   22      2.68      0.00
    4   13   22      3.97      0.00
    5   13   22    -14.01      0.00
    6   13   22     11.56      0.00
    7   13   22      2.21      0.00
    8   13   22      4.12      0.00
    9   13   22    -11.73      0.00
   10   13   22     -1.17      0.00
    1   14   22      6.02      0.00
    2   14   22    -20.20      0.00
    3   14   22     -4.16      0.00
    4   14   22     -9.15      0.00
    5   14   22     12.55      0.00
    6   14   22     -9.67      0.00
    7   14   22    -13.36      0.00
    8   14   22     -1.37      0.00
    9   14   22    -16.32      0.00
    4   15   22     -2.26      0.00
    5   15   22     -7.81      0.00
    6   15   22      8.12      0.00
    7   15   22      6.06      0.00
    8   15   22    -14.22      0.00
    0    1   23      1.99      0.00
    1    2   23      7.84      0.00
    0    3   23     12.14      0.00
    1    3   23      9.35      0.00
    2    3   23      0.38      0.00
    1    4   23     -2.93      0.00
    2    4   23      0.59      0.00
    3    4   23    -13.41      0.00
    0    5   23     14.88      0.00
    1    5   23     -5.28      0.00
    2    5   23     21.25      0.00
    3    5   23     -1.88      0.00
    4    5   23    -17.92      0.00
    1    6   23     14.52      0.00
    2    6   23    -15.29      0.00
    3    6   23      4.98      0.00
    4    6   23      6.60      0.00
    5    6   23     -0.09      0.00
    0    7   23      1.67      0.00
    1    7   23      5.29      0.00
    2    7   23    -14.55      0.00
    3    7   23      5.52      0.00
    4    7   23     17.13      0.00
    5    7   23      1.02      0.00
    6    7   23     -4.98      0.00
    1    8   23      7.42      0.00
    2    8   23     -5.10      0.00
    3    8   23      1.74      0.00
    4    8   23     -5.21      0.00
    5    8   23     12.73      0.00
    6    8   23    -11.59      0.00
    7    8   23     -6.95      0.00
    0    9   23     -2.16      0.00
    1    9   23     -6.42      0.00
    2    9   23     -5.33      0.00
    3    9   23     -0.60      0.00
    4    9   23      2.19      0.00
    5    9   23    -17.30      0.00
    6    9   23     -3.68      0.00
    7    9   23     -5.28      0.00
    8    9   23     12.82      0.00
    1   10   23     11.82      0.00
    2   10   23      0.48      0.00
    3   10   23     -2.59      0.00
    4   10   23     12.45      0.00
    5   10   23      3.47      0.00
    6   10   23     23.48      0.00
    7   10   23      2.66      0.00
    8   10   23    -11.76      0.00
    9   10   23      8.19      0.00
    0   11   23      8.15      0.00
    1   11   23    -20.26      0.00
    2   11   23     10.50      0.00
    3   11   23     -4.28      0.00
    4   11   23     11.43      0.00
    5   11   23     -4.42      0.00
    6   11   23      6.73      0.00
    7   11   23     20.18      0.00
    8   11   23    -27.37      0.00
    9   11   23     10.76      0.00
   10   11   23      4.34      0.00
    1   12   23    -11.87      0.00
    2   12   23    -31.70      0.00
    3   12   23     10.49      0.00
    4   12   23      8.40      0.00
    5   12   23      2.56      0.00
    6   12   23      0.69      0.00
    7   12   23      1.34      0.00
    8   12   23     -0.78      0.00
    9   12   23      1.86      0.00
   10   12   23      3.96      0.00
    2   13   23    -16.71      0.00
    3   13   23     -0.61      0.00
    4   13   23     32.76      0.00
    5   13   23      5.16      0.00
    6   13   23     -0.38      0.00
    7   13   23     -7.57      0.00
    8   13   23      4.94      0.00
    9   13   23     -2.39      0.00
    2   14   23      0.93      0.00
    3   14   23     -3.35      0.00
    4   14   23     15.21      0.00
    5   14   23      1.77      0.00
    6   14   23     17.31      0.00
    7   14   23    -16.58      0.00
    8   14   23      7.78      0.00
    3   15   23     19.08      0.00
    4   15   23     -2.86      0.00
    5   15   23     -7.55      0.00
    6   15   23      7.82      0.00
    7   15   23      9.41      0.00
    1    1   24     17.43      0.00
    0    2   24     12.90      0.00
    1    2   24     -8.98      0.00
    2    2   24    -11.57      0.00
    1    3   24     32.26      0.00
    2    3   24    -18.02      0.00
    3    3   24    -18.09      0.00
    0    4   24     -4.98      0.00
    1    4   24     -1.36      0.00
    2    4   24    -25.55      0.00
    3    4   24    -24.68      0.00
    4    4   24     15.96      0.00
    1    5   24    -65.93      0.00
    2    5   24     14.40      0.00
    3    5   24     16.17      0.00
    4    5   24     -2.55      0.00
    5    5   24      6.95      0.00
    0    6   24    -25.93      0.00
    1    6   24      9.30      0.00
    2    6   24    -22.87      0.00
    3    6   24      3.80      0.00
    4    6   24      4.60      0.00
    5    6   24      9.32      0.00
    6    6   24      8.48      0.00
    1    7   24      1.84      0.00
    2    7   24      3.41      0.00
    3    7   24      4.77      0.00
    4    7   24      4.65      0.00
    5    7   24     -8.27      0.00
    6    7   24     -2.29      0.00
    7    7   24    -39.49      0.00
    0    8   24     -2.39      0.00
    1    8   24     -6.41      0.00
    2    8   24     12.14      0.00
    3    8   24      6.13      0.00
    4    8   24      4.61      0.00
    5    8   24     -1.11      0.00
    6    8   24     14.53      0.00
    7    8   24      0.57      0.00
    8    8   24     -7.21      0.00
    1    9   24     -1.66      0.00
    2    9   24     18.47      0.00
    3    9   24    -16.24      0.00
    4    9   24     11.33      0.00
    5    9   24    -10.71      0.00
    6    9   24      7.26      0.00
    7    9   24     -3.88      0.00
    8    9   24     -6.60      0.00
    9    9   24     -9.68      0.00
    0   10   24     -6.96      0.00
    1   10   24     18.54      0.00
    2   10   24      7.59      0.00
    3   10   24     -4.39      0.00
    4   10   24     -8.98      0.00
    5   10   24      0.29      0.00
    6   10   24      2.18      0.00
    7   10   24     -8.48      0.00
    8   10   24      7.56      0.00
    9   10   24     -2.37      0.00
   10   10   24     -0.74      0.00
    1   11   24      2.95      0.00
    2   11   24      6.75      0.00
    3   11   24    -16.72      0.00
    4   11   24      7.68      0.00
    5   11   24     -0.65      0.00
    6   11   24     -0.60      0.00
    7   11   24    -43.25      0.00
    8   11   24      3.08      0.00
    9   11   24      5.59      0.00
   10   11   24     -5.32      0.00
    0   12   24    -13.72      0.00
    1   12   24     11.12      0.00
    2   12   24      3.88      0.00
    3   12   24      8.58      0.00
    4   12   24      8.17      0.00
    5   12   24    -32.40      0.00
    6   12   24      0.39      0.00
    7   12   24      0.58      0.00
    8   12   24      2.42      0.00
    9   12   24     -6.68      0.00
    1   13   24    -38.46      0.00
    2   13   24     56.34      0.00
    3   13   24      0.69      0.00
    4   13   24      4.35      0.00
    5   13   24     -1.16      0.00
    6   13   24     -3.51      0.00
    7   13   24     -1.47      0.00
    8   13   24     -6.72      0.00
    2   14   24     21.76      0.00
    3   14   24      4.58      0.00
    4   14   24    -13.02      0.00
    5   14   24     -7.30      0.00
    6   14   24      8.26      0.00
    7   14   24     -0.94      0.00
    3   15   24     -2.55      0.00
    4   15   24     10.04      0.00
    5   15   24     -0.44      0.00
    6   15   24      8.19      0.00
    1    2   25    -10.97      0.00
    1    3   25    -46.25      0.00
    2    3   25     -0.05      0.00
    1    4   25     12.39      0.00
    2    4   25     10.12      0.00
    3    4   25     -8.50      0.00
    0    5   25     77.60      0.00
    1    5   25    -10.33      0.00
    2    5   25      1.88      0.00
    3    5   25      2.26      0.00
    4    5   25      1.06      0.00
    1    6   25      7.98      0.00
    2    6   25     -5.29      0.00
    3    6   25      8.40      0.00
    4    6   25      8.02      0.00
    5    6   25      1.87      0.00
    0    7   25     -6.64      0.00
    1    7   25     25.21      0.00
    2    7   25      7.92      0.00
    3    7   25      1.29      0.00
    4    7   25    -13.21      0.00
    5    7   25      2.64      0.00
    6    7   25     -7.01      0.00
    1    8   25     -6.62      0.00
    2    8   25     14.41      0.00
    3    8   25      6.07      0.00
    4    8   25    -22.15      0.00
    5    8   25     -3.00      0.00
    6    8   25      2.30      0.00
    7    8   25     14.83      0.00
    0    9   25     20.96      0.00
    1    9   25    -26.68      0.00
    2    9   25     -9.99      0.00
    3    9   25     -8.47      0.00
    4    9   25     11.19      0.00
    5    9   25      0.72      0.00
    6    9   25     -4.42      0.00
    7    9   25      3.97      0.00
    8    9   25      5.98      0.00
    1   10   25      9.34      0.00
    2   10   25      3.14      0.00
    3   10   25     -0.75      0.00
    4   10   25     -3.66      0.00
    5   10   25     -3.13      0.00
    6   10   25      0.36      0.00
    7   10   25      8.84      0.00
    8   10   25     -1.46      0.00
    9   10   25     -3.65      0.00
    0   11   25    -12.14      0.00
    1   11   25     10.61      0.00
    2   11   25      7.57      0.00
    3   11   25     -3.04      0.00
    4   11   25     -3.75      0.00
    5   11   25     -0.75      0.00
    6   11   25     37.50      0.00
    7   11   25     -0.22      0.00
    8   11   25     13.57      0.00
    9   11   25     15.14      0.00
    1   12   25     18.53      0.00
    2   12   25    -16.31      0.00
    3   12   25     18.00      0.00
    4   12   25      5.95      0.00
    5   12   25     -8.69      0.00
    6   12   25    -14.68      0.00
    7   12   25     10.36      0.00
    8   12   25     -4.17      0.00
    0   13   25     18.62      0.00
    1   13   25     19.13      0.00
    2   13   25     -2.42      0.00
    3   13   25    -23.24      0.00
    4   13   25     -1.67      0.00
    5   13   25      3.81      0.00
    6   13   25     -5.28      0.00
    7   13   25      9.64      0.00
    2   14   25      0.61      0.00
    3   14   25    -16.14      0.00
    4   14   25     -9.76      0.00
    5   14   25     14.06      0.00
    6   14   25     11.41      0.00
    3   15   25      4.97      0.00
    4   15   25     10.75      0.00
    0    2   26     -7.12      0.00
    1    2   26      7.19      0.00
    2    2   26     13.42      0.00
    1    3   26     12.32      0.00
    2    3   26     -2.63      0.00
    3    3   26      9.72      0.00
    0    4   26    -13.91      0.00
    1    4   26     11.39      0.00
    2    4   26    -17.78      0.00
    3    4   26     -6.16      0.00
    4    4   26      0.35      0.00
    1    5   26     -4.02      0.00
    2    5   26     -3.61      0.00
    3    5   26      2.24      0.00
    4    5   26     14.53      0.00
    5    5   26      5.26      0.00
    0    6   26     15.26      0.00
    1    6   26      9.44      0.00
    2    6   26     13.45      0.00
    3    6   26    -12.26      0.00
    4    6   26      3.22      0.00
    5    6   26      1.70      0.00
    6    6   26     -7.02      0.00
    1    7   26      0.14      0.00
    2    7   26      6.47      0.00
    3    7   26     -1.74      0.00
    4    7   26    -25.42      0.00
    5    7   26     -7.55      0.00
    6    7   26      6.32      0.00
    7    7   26     25.92      0.00
    0    8   26     17.53      0.00
    1    8   26    -38.97      0.00
    2    8   26    -14.37      0.00
    3    8   26     10.18      0.00
    4    8   26     -2.82      0.00
    5    8   26      4.10      0.00
    6    8   26      2.35      0.00
    7    8   26      9.14      0.00
    8    8   26    -19.34      0.00
    1    9   26     -6.12      0.00
    2    9   26    -10.65      0.00
    3    9   26      6.89      0.00
    4    9   26      8.18      0.00
    5    9   26     -7.31      0.00
    6    9   26     -2.33      0.00
    7    9   26      4.34      0.00
    8    9   26     -5.18      0.00
    9    9   26    -10.26      0.00
    0   10   26     28.14      0.00
    1   10   26     20.86      0.00
    2   10   26     -6.61      0.00
    3   10   26    -23.19      0.00
    4   10   26      8.53      0.00
    5   10   26     -5.88      0.00
    6   10   26     14.17      0.00
    7   10   26     -2.51      0.00
    8   10   26     22.28      0.00
    9   10   26     -0.60      0.00
    1   11   26     -3.97      0.00
    2   11   26    -20.40      0.00
    3   11   26     -8.00      0.00
    4   11   26     47.24      0.00
    5   11   26     -8.84      0.00
    6   11   26      0.96      0.00
    7   11   26     -2.59      0.00
    8   11   26     -0.98      0.00
    0   12   26     61.24      0.00
    1   12   26    -12.31      0.00
    2   12   26      8.55      0.00
    3   12   26     -1.64      0.00
    4   12   26      3.64      0.00
    5   12   26      3.88      0.00
    6   12   26     -7.72      0.00
    7   12   26    -16.97      0.00
    1   13   26     -1.53      0.00
    2   13   26      3.10      0.00
    3   13   26    -16.75      0.00
    4   13   26    -15.24      0.00
    5   13   26     -1.18      0.00
    6   13   26      8.99      0.00
    3   14   26    -25.81      0.00
    4   14   26    -16.94      0.00
    1    2   27     13.13      0.00
    0    3   27     19.63      0.00
    1    3   27    -17.31      0.00
    2    3   27      7.48      0.00
    1    4   27    -14.04      0.00
    2    4   27    -13.27      0.00
    3    4   27      6.63      0.00
    0    5   27    -39.51      0.00
    1    5   27     -7.14      0.00
    2    5   27     -0.13      0.00
    3    5   27      3.38      0.00
    4    5   27     -2.68      0.00
    1    6   27     -5.82      0.00
    2    6   27     16.36      0.00
    3    6   27     -8.17      0.00
    4    6   27     14.74      0.00
    5    6   27      3.76      0.00
    0    7   27     71.03      0.00
    1    7   27    -26.27      0.00
    2    7   27    -21.37      0.00
    3    7   27      2.06      0.00
    4    7   27    -13.63      0.00
    5    7   27      0.24      0.00
    6    7   27     -0.96      0.00
    1    8   27    -16.04      0.00
    2    8   27     -1.02      0.00
    3    8   27      3.40      0.00
    4    8   27    -22.92      0.00
    5    8   27      1.19      0.00
    6    8   27      7.68      0.00
    7    8   27     -7.26      0.00
    0    9   27     -1.68      0.00
    1    9   27    -18.18      0.00
    2    9   27      5.09      0.00
    3    9   27      9.19      0.00
    4    9   27     14.58      0.00
    5    9   27    -10.29      0.00
    6    9   27      2.46      0.00
    7    9   27     17.73      0.00
    8    9   27     -1.13      0.00
    1   10   27    -14.00      0.00
    2   10   27     19.86      0.00
    3   10   27    -16.76      0.00
    4   10   27    -12.97      0.00
    5   10   27     -8.16      0.00
    6   10   27     -7.19      0.00
    7   10   27     -4.78      0.00
    8   10   27     -6.28      0.00
    0   11   27   -129.05      0.00
    1   11   27      3.07      0.00
    2   11   27      7.71      0.00
    3   11   27    -15.83      0.00
    4   11   27      8.77      0.00
    5   11   27      9.73      0.00
    6   11   27     -8.12      0.00
    7   11   27     22.45      0.00
    1   12   27    -16.60      0.00
    2   12   27      4.22      0.00
    3   12   27     13.51      0.00
    4   12   27      7.77      0.00
    5   12   27     -0.49      0.00
    6   12   27    -22.52      0.00
    0   13   27     -3.23      0.00
    1   13   27    -16.31      0.00
    2   13   27     -6.65      0.00
    3   13   27      8.60      0.00
    4   13   27    -20.33      0.00
    0    2   28     -0.43      0.00
    1    2   28     12.31      0.00
    2    2   28    -12.63      0.00
    1    3   28     -5.08      0.00
    2    3   28      6.98      0.00
    3    3   28     -3.96      0.00
    0    4   28     13.63      0.00
    1    4   28     12.57      0.00
    2    4   28      1.23      0.00
    3    4   28      9.48      0.00
    4    4   28     -1.39      0.00
    1    5   28      0.11      0.00
    2    5   28    -14.28      0.00
    3    5   28      0.39      0.00
    4    5   28     14.66      0.00
    5    5   28      3.96      0.00
    0    6   28    -17.83      0.00
    1    6   28      6.56      0.00
    2    6   28     -0.12      0.00
    3    6   28     -4.66      0.00
    4    6   28     -3.52      0.00
    5    6   28     30.34      0.00
    6    6   28     -2.65      0.00
    1    7   28     -5.55      0.00
    2    7   28     19.79      0.00
    3    7   28      6.70      0.00
    4    7   28    -15.74      0.00
    5    7   28      1.73      0.00
    6    7   28      9.73      0.00
    7    7   28     -1.11      0.00
    0    8   28     -2.00      0.00
    1    8   28     -4.78      0.00
    2    8   28      0.24      0.00
    3    8   28     18.39      0.00
    4    8   28      0.77      0.00
    5    8   28      8.09      0.00
    6    8   28    -13.32      0.00
    7    8   28     13.95      0.00
    8    8   28    -33.59      0.00
    1    9   28    -20.95      0.00
    2    9   28     24.40      0.00
    3    9   28    -21.11      0.00
    4    9   28      0.44      0.00
    5    9   28      6.42      0.00
    6    9   28     -7.73      0.00
    7    9   28     -5.53      0.00
    8    9   28      7.59      0.00
    0   10   28     58.89      0.00
    1   10   28     55.58      0.00
    2   10   28     20.23      0.00
    3   10   28    -13.34      0.00
    4   10   28     -7.46      0.00
    5   10   28    -10.53      0.00
    6   10   28     -1.11      0.00
    7   10   28     18.00      0.00
    1   11   28     14.64      0.00
    2   11   28     -0.17      0.00
    3   11   28     -2.55      0.00
    4   11   28     -5.24      0.00
    5   11   28    -11.38      0.00
    6   11   28     11.61      0.00
    0   12   28     -4.77      0.00
    1   12   28      8.03      0.00
    2   12   28     22.15      0.00
    3   12   28     -6.73      0.00
    4   12   28     14.92      0.00
    1   13   28    -19.70      0.00
    2   13   28     35.99      0.00
    1    2   29    -11.96      0.00
    0    3   29      9.95      0.00
    1    3   29     20.28      0.00
    2    3   29      6.70      0.00
    1    4   29     -6.77      0.00
    2    4   29    -19.10      0.00
    3    4   29    -11.52      0.00
    0    5   29    -27.05      0.00
    1    5   29     18.87      0.00
    2    5   29     20.09      0.00
    3    5   29     -9.42      0.00
    4    5   29     11.03      0.00
    1    6   29      8.08      0.00
    2    6   29     -8.16      0.00
    3    6   29    -14.20      0.00
    4    6   29     11.87      0.00
    5    6   29     -4.62      0.00
    0    7   29     -5.09      0.00
    1    7   29      7.99      0.00
    2    7   29     -4.25      0.00
    3    7   29      5.93      0.00
    4    7   29     20.73      0.00
    5    7   29     14.17      0.00
    6    7   29     41.59      0.00
    1    8   29     -6.85      0.00
    2    8   29     16.49      0.00
    3    8   29      9.04      0.00
    4    8   29     17.82      0.00
    5    8   29    -12.46      0.00
    6    8   29     -8.93      0.00
    7    8   29      2.61      0.00
    0    9   29     55.16      0.00
    1    9   29    -26.98      0.00
    2    9   29     41.79      0.00
    3    9   29     -0.74      0.00
    4    9   29     14.81      0.00
    5    9   29    -11.46      0.00
    6    9   29     -5.09      0.00
    7    9   29     -4.24      0.00
    1   10   29      0.96      0.00
    2   10   29      0.34      0.00
    3   10   29    -15.66      0.00
    4   10   29    -20.02      0.00
    5   10   29     13.61      0.00
    6   10   29    -10.67      0.00
    0   11   29     -7.49      0.00
    1   11   29    -21.39      0.00
    2   11   29    -24.51      0.00
    3   11   29    -11.64      0.00
    4   11   29     10.87      0.00
    1   12   29     -4.59      0.00
    2   12   29      8.46      0.00
    3   12   29     34.76      0.00
    1   13   29     -4.47      0.00
    1    3   30     11.61      0.00
    2    3   30     -0.62      0.00
    3    3   30    -23.39      0.00
    0    4   30      9.14      0.00
    1    4   30     -9.98      0.00
    2    4   30     14.51      0.00
    3    4   30    -31.06      0.00
    4    4   30    -13.50      0.00
    1    5   30    -17.04      0.00
    2    5   30      8.87      0.00
    3    5   30     20.74      0.00
    4    5   30      6.56      0.00
    5    5   30      3.21      0.00
    0    6   30     -4.26      0.00
    1    6   30     -4.20      0.00
    2    6   30     40.45      0.00
    3    6   30     -8.05      0.00
    4    6   30      7.27      0.00
    5    6   30      5.76      0.00
    6    6   30    -20.89      0.00
    1    7   30     23.87      0.00
    2    7   30     14.70      0.00
    3    7   30     -5.14      0.00
    4    7   30    -87.38      0.00
    5    7   30     -5.49      0.00
    6    7   30      1.32      0.00
    7    7   30    -12.15      0.00
    1    8   30   -151.83      0.00
    2    8   30     -9.94      0.00
    3    8   30     26.15      0.00
    4    8   30    -13.83      0.00
    5    8   30     -8.05      0.00
    6    8   30      2.16      0.00
    7    8   30     -2.11      0.00
    1    9   30    -43.92      0.00
    2    9   30    -17.82      0.00
    3    9   30     -0.45      0.00
    4    9   30      9.89      0.00
    5    9   30     -5.08      0.00
    6    9   30     -5.64      0.00
    0   10   30     37.71      0.00
    1   10   30      3.56      0.00
    2   10   30    -12.84      0.00
    3   10   30     28.12      0.00
    4   10   30     -1.94      0.00
    1   11   30      3.36      0.00
    2   11   30     18.62      0.00
    3   11   30    -31.52      0.00
    1   12   30     21.14      0.00
    0    3   31     -3.71      0.00
    1    3   31    -26.65      0.00
    2    3   31     -6.27      0.00
    1    4   31    -15.23      0.00
    2    4   31     -5.30      0.00
    3    4   31     -2.39      0.00
    0    5   31      5.16      0.00
    1    5   31     20.63      0.00
    2    5   31     12.92      0.00
    3    5   31     23.46      0.00
    4    5   31      7.70      0.00
    1    6   31     23.35      0.00
    2    6   31     17.39      0.00
    3    6   31    -99.59      0.00
    4    6   31     19.65      0.00
    5    6   31      1.39      0.00
    0    7   31     -6.94      0.00
    1    7   31     19.01      0.00
    2    7   31      2.73      0.00
    3    7   31      5.18      0.00
    4    7   31      6.72      0.00
    5    7   31      6.59      0.00
    6    7   31      5.91      0.00
    1    8   31    -21.61      0.00
    2    8   31     39.65      0.00
    3    8   31     17.69      0.00
    4    8   31    -11.54      0.00
    5    8   31     -9.37      0.00
    0    9   31      4.56      0.00
    1    9   31     15.64      0.00
    2    9   31      0.67      0.00
    3    9   31     10.02      0.00
    4    9   31      8.05      0.00
    1   10   31    -18.14      0.00
    2   10   31     -3.01      0.00
    3   10   31     22.17      0.00
    1   11   31     -4.12      0.00
    2   11   31     -5.14      0.00
    1    3   32      2.56      0.00
    2    3   32     -6.17      0.00
    0    4   32      3.36      0.00
    1    4   32     18.21      0.00
    2    4   32     16.17      0.00
    3    4   32   -115.70      0.00
    4    4   32     20.21      0.00
    1    5   32    -42.77      0.00
    2    5   32     15.31      0.00
    3    5   32    -13.86      0.00
    4    5   32    -10.66      0.00
    5    5   32     21.45      0.00
    0    6   32     19.51      0.00
    1    6   32    -13.65      0.00
    2    6   32      8.92      0.00
    3    6   32    -13.70      0.00
    4    6   32    -13.96      0.00
    5    6   32     19.64      0.00
    6    6   32     -5.25      0.00
    1    7   32      1.11      0.00
    2    7   32     -3.30      0.00
    3    7   32      5.79      0.00
    4    7   32     -8.73      0.00
    5    7   32    -20.07      0.00
    0    8   32    -14.95      0.00
    1    8   32    -15.69      0.00
    2    8   32     -0.60      0.00
    3    8   32      0.12      0.00
    4    8   32      9.06      0.00
    1    9   32      4.32      0.00
    2    9   32     13.99      0.00
    3    9   32     21.52      0.00
    1   10   32     19.78      0.00
    2   10   32     12.30      0.00
    1    4   33     11.14      0.00
    2    4   33     18.92      0.00
    3    4   33    -19.48      0.00
    0    5   33     13.28      0.00
    1    5   33     -7.39      0.00
    2    5   33     19.21      0.00
    3    5   33      6.10      0.00
    4    5   33     24.11      0.00
    1    6   33    -18.98      0.00
    2    6   33     21.03      0.00
    3    6   33      1.12      0.00
    4    6   33      0.87      0.00
    5    6   33      3.03      0.00
    0    7   33    -13.07      0.00
    1    7   33      1.24      0.00
    2    7   33      4.94      0.00
    3    7   33     -5.07      0.00
    4    7   33    -10.79      0.00
    1    8   33     -4.62      0.00
    2    8   33      3.20      0.00
    3    8   33     23.72      0.00
    1    9   33    -32.88      0.00
    0    4   34     21.04      0.00
    1    4   34    -14.71      0.00
    2    4   34     11.24      0.00
    3    4   34    -22.89      0.00
    4    4   34      2.17      0.00
    1    5   34     -4.34      0.00
    2    5   34     29.81      0.00
    3    5   34     10.91      0.00
    4    5   34    -12.50      0.00
    1    6   34     -3.55      0.00
    2    6   34      7.11      0.00
    3    6   34     -0.59      0.00
    1    7   34     -5.91      0.00
    2    7   34      1.30      0.00
    1    8   34      9.40      0.00
    1    4   35      2.19      0.00
    1    5   35      7.14      0.00
    2    5   35      9.28      0.00
    1    6   35      4.28      0.00
    2    6   35    -33.92      0.00
    1    7   35      6.64      0.00
    1    1    0   -137.77      0.00
    2    2    0    168.33      0.00
    3    3    0    129.92      0.00
    4    4    0      6.24      0.00
    4    5    0     42.75      0.00
    5    5    0     53.06      0.00
    5    6    0     -7.02      0.00
    6    6    0     37.53      0.00
    5    7    0    -22.26      0.00
    6    7    0     -9.80      0.00
    7    7    0     13.19      0.00
    6    8    0      4.05      0.00
    7    8    0    -14.04      0.00
    8    8    0    -79.73      0.00
    6    9    0      3.40      0.00
    7    9    0     15.01      0.00
    8    9    0    -18.03      0.00
    9    9    0     -0.05      0.00
    7   10    0     11.24      0.00
    8   10    0      1.47      0.00
    9   10    0      2.97      0.00
   10   10    0     17.11      0.00
    7   11    0    -54.87      0.00
    8   11    0    -37.68      0.00
    9   11    0     -1.67      0.00
   10   11    0     -3.35      0.00
   11   11    0      5.74      0.00
    7   12    0    -17.21      0.00
    8   12    0    -11.08      0.00
    9   12    0      7.92      0.00
   10   12    0      3.06      0.00
   11   12    0    -11.25      0.00
   12   12    0     51.76      0.00
    6   13    0    -26.16      0.00
    7   13    0     64.19      0.00
    8   13    0      4.74      0.00
    9   13    0     -7.02      0.00
   10   13    0     12.85      0.00
   11   13    0      4.64      0.00
   12   13    0     13.59      0.00
   13   13    0      7.79      0.00
    8   14    0      3.87      0.00
    9   14    0     19.87      0.00
   10   14    0      5.11      0.00
   11   14    0      1.22      0.00
   12   14    0      1.77      0.00
   13   14    0      0.08      0.00
   14   14    0     15.47      0.00
    8   15    0      3.51      0.00
    9   15    0     33.05      0.00
   10   15    0    -39.45      0.00
   11   15    0     -9.92      0.00
   12   15    0      6.40      0.00
   13   15    0    -16.28      0.00
   14   15    0      4.80      0.00
   15   15    0    -10.01      0.00
    8   16    0      2.47      0.00
    9   16    0     -3.50      0.00
   10   16    0     -5.05      0.00
   11   16    0     -5.77      0.00
   12   16    0     12.54      0.00
   13   16    0      8.04      0.00
   14   16    0     10.30      0.00
    8   17    0     -0.38      0.00
    9   17    0     -1.00      0.00
   10   17    0    -21.54      0.00
   11   17    0     -3.13      0.00
   12   17    0      1.41      0.00
   13   17    0      6.97      0.00
    8   18    0      3.75      0.00
    9   18    0     18.31      0.00
   10   18    0      6.66      0.00
   11   18    0     -2.43      0.00
    8   19    0      6.76      0.00
    9   19    0      9.79      0.00
   10   19    0     -0.30      0.00
    7   20    0     14.00      0.00
    8   20    0      1.53      0.00
    0    1    1   -297.38      0.00
    4    5    1    -40.92      0.00
    5    6    1    -23.45      0.00
    6    7    1     -3.74      0.00
    6    8    1     -9.55      0.00
    7    8    1    -11.46      0.00
    6    9    1      3.75      0.00
    7    9    1    -19.91      0.00
    8    9    1     24.45      0.00
    7   10    1      3.32      0.00
    8   10    1    -10.98      0.00
    9   10    1     10.78      0.00
    7   11    1     25.83      0.00
    8   11    1    -20.03      0.00
    9   11    1     -9.03      0.00
   10   11    1     -5.58      0.00
    7   12    1     40.23      0.00
    8   12    1      0.20      0.00
    9   12    1     -2.14      0.00
   10   12    1      1.45      0.00
   11   12    1    -15.18      0.00
    8   13    1    -11.87      0.00
    9   13    1     13.22      0.00
   10   13    1     -7.94      0.00
   11   13    1      6.45      0.00
   12   13    1     -0.79      0.00
    8   14    1    -26.71      0.00
    9   14    1    -31.37      0.00
   10   14    1     -8.07      0.00
   11   14    1     21.03      0.00
   12   14    1      5.38      0.00
   13   14    1    -14.10      0.00
    8   15    1     17.62      0.00
    9   15    1     15.97      0.00
   10   15    1    -13.43      0.00
   11   15    1    -13.72      0.00
   12   15    1      1.81      0.00
   13   15    1     -9.05      0.00
   14   15    1     14.27      0.00
    8   16    1    -17.81      0.00
    9   16    1      4.33      0.00
   10   16    1     -1.74      0.00
   11   16    1     -8.69      0.00
   12   16    1      7.27      0.00
   13   16    1    -13.34      0.00
   14   16    1     -0.45      0.00
    8   17    1      0.33      0.00
    9   17    1     31.16      0.00
   10   17    1     -5.29      0.00
   11   17    1     -0.96      0.00
   12   17    1     12.05      0.00
   13   17    1     -0.28      0.00
    8   18    1    -16.14      0.00
    9   18    1    -16.06      0.00
   10   18    1     -6.33      0.00
   11   18    1     -5.46      0.00
    8   19    1     17.97      0.00
    9   19    1      4.28      0.00
   10   19    1      2.90      0.00
    7   20    1     -8.12      0.00
    8   20    1      8.42      0.00
    0    0    2    277.10      0.00
    4    4    2   -103.53      0.00
    4    5    2     28.06      0.00
    5    5    2    -12.36      0.00
    5    6    2    -19.12      0.00
    6    6    2    -20.64      0.00
    6    7    2     11.20      0.00
    7    7    2    -12.67      0.00
    6    8    2     13.47      0.00
    7    8    2      5.84      0.00
    8    8    2    -13.97      0.00
    7    9    2     35.80      0.00
    8    9    2     -6.90      0.00
    9    9    2    -36.52      0.00
    7   10    2    -15.02      0.00
    8   10    2      2.32      0.00
    9   10    2     23.71      0.00
   10   10    2     -0.73      0.00
    7   11    2    -18.83      0.00
    8   11    2     -0.80      0.00
    9   11    2      6.45      0.00
   10   11    2      9.89      0.00
   11   11    2      2.27      0.00
    8   12    2    -14.05      0.00
    9   12    2     -9.58      0.00
   10   12    2     19.00      0.00
   11   12    2    -18.51      0.00
   12   12    2     14.60      0.00
    7   13    2     17.71      0.00
    8   13    2     -3.30      0.00
    9   13    2     -8.69      0.00
   10   13    2    -14.13      0.00
   11   13    2    -10.50      0.00
   12   13    2     12.41      0.00
   13   13    2    -12.29      0.00
    8   14    2     -1.59      0.00
    9   14    2     -8.71      0.00
   10   14    2     -6.40      0.00
   11   14    2      0.58      0.00
   12   14    2     -9.76      0.00
   13   14    2     18.32      0.00
   14   14    2     14.52      0.00
    8   15    2    -16.78      0.00
    9   15    2      1.90      0.00
   10   15    2     15.37      0.00
   11   15    2      4.60      0.00
   12   15    2      8.11      0.00
   13   15    2     -7.77      0.00
   14   15    2      1.64      0.00
   15   15    2    -10.77      0.00
    8   16    2     12.67      0.00
    9   16    2     31.84      0.00
   10   16    2     18.69      0.00
   11   16    2      3.18      0.00
   12   16    2     10.14      0.00
   13   16    2    -14.52      0.00
   14   16    2      2.66      0.00
    8   17    2     14.75      0.00
    9   17    2    -16.42      0.00
   10   17    2      2.23      0.00
   11   17    2     -1.59      0.00
   12   17    2    -12.48      0.00
   13   17    2     -3.08      0.00
    8   18    2     -5.17      0.00
    9   18    2     -8.72      0.00
   10   18    2     -4.65      0.00
   11   18    2     -1.56      0.00
    8   19    2    -29.05      0.00
    9   19    2      3.99      0.00
   10   19    2    -12.76      0.00
    7   20    2      0.45      0.00
    4    5    3     52.76      0.00
    6    7    3      0.03      0.00
    7    8    3     -3.86      0.00
    7    9    3      5.32      0.00
    8    9    3      0.79      0.00
    7   10    3      9.12      0.00
    8   10    3     -0.40      0.00
    9   10    3    -13.93      0.00
    8   11    3    -20.93      0.00
    9   11    3     10.52      0.00
   10   11    3     30.06      0.00
    8   12    3     -1.04      0.00
    9   12    3     20.70      0.00
   10   12    3    -18.25      0.00
   11   12    3    -10.32      0.00
    7   13    3    -28.70      0.00
    8   13    3      9.08      0.00
    9   13    3     43.09      0.00
   10   13    3    -10.58      0.00
   11   13    3     14.74      0.00
   12   13    3     -5.04      0.00
    8   14    3    -30.05      0.00
    9   14    3      2.99      0.00
   10   14    3    -12.51      0.00
   11   14    3      9.71      0.00
   12   14    3     10.55      0.00
   13   14    3     15.73      0.00
    9   15    3      6.88      0.00
   10   15    3      4.87      0.00
   11   15    3    -15.29      0.00
   12   15    3      7.94      0.00
   13   15    3     -7.40      0.00
   14   15    3      0.17      0.00
    9   16    3      6.86      0.00
   10   16    3      1.32      0.00
   11   16    3     -4.83      0.00
   12   16    3     13.50      0.00
   13   16    3    -14.33      0.00
   14   16    3      3.69      0.00
    9   17    3     12.12      0.00
   10   17    3     13.85      0.00
   11   17    3     -4.90      0.00
   12   17    3      7.21      0.00
   13   17    3      9.66      0.00
    9   18    3      1.35      0.00
   10   18    3    -15.07      0.00
   11   18    3      8.60      0.00
    8   19    3     28.09      0.00
    9   19    3      1.43      0.00
   10   19    3    -11.61      0.00
    7   20    3     -9.50      0.00
    6    6    4     49.42      0.00
    7    7    4     11.11      0.00
    7    8    4     -3.58      0.00
    8    8    4     -6.52      0.00
    7    9    4     -3.81      0.00
    8    9    4     -6.36      0.00
    9    9    4     14.17      0.00
    8   10    4      5.57      0.00
    9   10    4     -1.35      0.00
   10   10    4      3.12      0.00
    8   11    4     19.04      0.00
    9   11    4     -7.73      0.00
   10   11    4     -4.73      0.00
   11   11    4    -39.15      0.00
    8   12    4     13.95      0.00
    9   12    4     15.58      0.00
   10   12    4     -2.68      0.00
   11   12    4     -6.70      0.00
   12   12    4     16.55      0.00
    7   13    4     21.87      0.00
    8   13    4     32.94      0.00
    9   13    4     21.93      0.00
   10   13    4     -5.27      0.00
   11   13    4      7.94      0.00
   12   13    4     -0.16      0.00
   13   13    4     -6.03      0.00
    9   14    4     -1.78      0.00
   10   14    4      6.23      0.00
   11   14    4    -10.87      0.00
   12   14    4    -15.43      0.00
   13   14    4     -3.62      0.00
   14   14    4      3.79      0.00
    9   15    4    -21.36      0.00
   10   15    4      7.19      0.00
   11   15    4     -7.72      0.00
   12   15    4     -6.59      0.00
   13   15    4      0.14      0.00
   14   15    4     -4.46      0.00
   15   15    4      1.00      0.00
    9   16    4     -5.78      0.00
   10   16    4     -8.85      0.00
   11   16    4     -5.13      0.00
   12   16    4     11.43      0.00
   13   16    4     -8.41      0.00
   14   16    4      8.40      0.00
    8   17    4     -4.42      0.00
    9   17    4    -15.23      0.00
   10   17    4      9.91      0.00
   11   17    4      3.07      0.00
   12   17    4      6.35      0.00
   13   17    4      0.99      0.00
    8   18    4     14.65      0.00
    9   18    4      4.04      0.00
   10   18    4      6.94      0.00
   11   18    4     -0.03      0.00
    8   19    4     -8.32      0.00
    9   19    4     -9.91      0.00
    7   20    4      0.74      0.00
    8    9    5     -3.58      0.00
    8   10    5     20.93      0.00
    9   10    5     -9.87      0.00
    8   11    5     -7.92      0.00
    9   11    5     -7.98      0.00
   10   11    5     -6.34      0.00
    9   12    5     -9.83      0.00
   10   12    5      5.04      0.00
   11   12    5     15.84      0.00
    7   13    5      1.06      0.00
    8   13    5     16.16      0.00
    9   13    5     -1.59      0.00
   10   13    5     11.02      0.00
   11   13    5     -8.73      0.00
   12   13    5    -16.82      0.00
    8   14    5    -37.01      0.00
    9   14    5    -38.42      0.00
   10   14    5      9.86      0.00
   11   14    5     21.98      0.00
   12   14    5     -0.88      0.00
   13   14    5     -0.08      0.00
    8   15    5     11.77      0.00
    9   15    5     12.82      0.00
   10   15    5      8.55      0.00
   11   15    5    -10.12      0.00
   12   15    5     -1.55      0.00
   13   15    5      4.53      0.00
   14   15    5      5.92      0.00
    8   16    5     -2.26      0.00
    9   16    5     -4.50      0.00
   10   16    5     14.09      0.00
   11   16    5    -14.38      0.00
   12   16    5      5.97      0.00
   13   16    5     -9.52      0.00
   14   16    5     -3.18      0.00
    7   17    5     25.29      0.00
    8   17    5     10.84      0.00
    9   17    5    -18.18      0.00
   10   17    5    -15.34      0.00
   11   17    5      3.25      0.00
   12   17    5     -5.79      0.00
    7   18    5    -18.12      0.00
    8   18    5    -16.15      0.00
    9   18    5      8.31      0.00
   10   18    5     -9.07      0.00
   11   18    5      2.07      0.00
    7   19    5    -17.57      0.00
    8   19    5     -8.74      0.00
    9   19    5     15.76      0.00
    6   20    5    -25.24      0.00
    7   20    5    -10.42      0.00
    8    8    6     -6.72      0.00
    8    9    6     -5.45      0.00
    9    9    6     21.01      0.00
    9   10    6     -4.35      0.00
   10   10    6      1.12      0.00
    9   11    6     13.10      0.00
   10   11    6    -20.61      0.00
   11   11    6    -35.99      0.00
    8   12    6    -14.78      0.00
    9   12    6     34.97      0.00
   10   12    6    -12.54      0.00
   11   12    6     -5.05      0.00
   12   12    6     -3.07      0.00
    8   13    6      4.38      0.00
    9   13    6    -19.00      0.00
   10   13    6    -13.09      0.00
   11   13    6     11.20      0.00
   12   13    6     15.87      0.00
   13   13    6      5.67      0.00
    7   14    6    -27.02      0.00
    8   14    6    -28.37      0.00
    9   14    6     -8.51      0.00
   10   14    6     10.89      0.00
   11   14    6      4.24      0.00
   12   14    6      6.36      0.00
   13   14    6      1.68      0.00
   14   14    6    -13.91      0.00
    7   15    6    -20.80      0.00
    8   15    6      5.38      0.00
    9   15    6      9.26      0.00
   10   15    6      2.79      0.00
   11   15    6      0.03      0.00
   12   15    6      3.19      0.00
   13   15    6      4.01      0.00
   14   15    6    -12.97      0.00
   15   15    6    -17.11      0.00
    7   16    6      0.06      0.00
    8   16    6     40.82      0.00
    9   16    6    -12.01      0.00
   10   16    6      1.46      0.00
   11   16    6    -11.10      0.00
   12   16    6    -18.72      0.00
   13   16    6     -4.57      0.00
   14   16    6      1.47      0.00
    7   17    6    -23.74      0.00
    8   17    6      2.06      0.00
    9   17    6    -21.71      0.00
   10   17    6     -4.01      0.00
   11   17    6      7.22      0.00
   12   17    6     10.91      0.00
    7   18    6    -17.05      0.00
    8   18    6     47.76      0.00
    9   18    6      9.51      0.00
   10   18    6     -2.46      0.00
   11   18    6     -4.95      0.00
    7   19    6    -28.18      0.00
    8   19    6     -4.05      0.00
    9   19    6      7.96      0.00
    5   20    6    -18.91      0.00
    6   20    6     13.32      0.00
    7   20    6      7.61      0.00
    9   10    7     -3.04      0.00
    9   11    7     -1.53      0.00
   10   11    7      4.22      0.00
    9   12    7     -2.07      0.00
   10   12    7    -16.53      0.00
   11   12    7      0.55      0.00
    8   13    7     34.54      0.00
    9   13    7     -9.72      0.00
   10   13    7      3.67      0.00
   11   13    7     -0.08      0.00
   12   13    7    -22.99      0.00
    8   14    7    -14.53      0.00
    9   14    7     -9.13      0.00
   10   14    7     20.82      0.00
   11   14    7     -1.79      0.00
   12   14    7     -2.01      0.00
   13   14    7      5.54      0.00
    8   15    7     10.43      0.00
    9   15    7     -0.89      0.00
   10   15    7     13.00      0.00
   11   15    7     -5.18      0.00
   12   15    7     -1.15      0.00
   13   15    7      5.31      0.00
   14   15    7     -5.09      0.00
    8   16    7     18.25      0.00
    9   16    7     -8.31      0.00
   10   16    7      2.24      0.00
   11   16    7     12.61      0.00
   12   16    7      4.50      0.00
   13   16    7      5.01      0.00
    8   17    7     17.05      0.00
    9   17    7    -17.33      0.00
   10   17    7     -9.02      0.00
   11   17    7      8.87      0.00
   12   17    7      1.32      0.00
    7   18    7      3.99      0.00
    8   18    7     -6.00      0.00
    9   18    7      4.92      0.00
   10   18    7     -2.39      0.00
   11   18    7     -2.50      0.00
    7   19    7     19.55      0.00
    8   19    7      2.06      0.00
    9   19    7      8.68      0.00
    4   20    7      3.75      0.00
    5   20    7     -2.36      0.00
    6   20    7      8.20      0.00
    9    9    8      5.38      0.00
    9   10    8     -0.10      0.00
   10   10    8      0.95      0.00
    9   11    8     17.20      0.00
   10   11    8     10.92      0.00
   11   11    8    -23.04      0.00
    9   12    8     -8.19      0.00
   10   12    8     27.16      0.00
   11   12    8      5.85      0.00
   12   12    8    -17.19      0.00
    8   13    8    -34.61      0.00
    9   13    8      0.72      0.00
   10   13    8     14.40      0.00
   11   13    8     -3.87      0.00
   12   13    8    -11.94      0.00
   13   13    8     15.50      0.00
    8   14    8     25.48      0.00
    9   14    8     17.18      0.00
   10   14    8    -17.73      0.00
   11   14    8     11.01      0.00
   12   14    8      3.69      0.00
   13   14    8      1.76      0.00
   14   14    8      3.59      0.00
    8   15    8     23.23      0.00
    9   15    8    -21.90      0.00
   10   15    8     -0.51      0.00
   11   15    8     14.93      0.00
   12   15    8     -4.23      0.00
   13   15    8      6.64      0.00
   14   15    8     -2.63      0.00
    8   16    8      1.25      0.00
    9   16    8    -21.39      0.00
   10   16    8     -3.00      0.00
   11   16    8     -1.21      0.00
   12   16    8      0.32      0.00
   13   16    8     -8.15      0.00
    8   17    8    -29.95      0.00
    9   17    8     -5.03      0.00
   10   17    8     13.33      0.00
   11   17    8      1.53      0.00
   12   17    8      3.98      0.00
    8   18    8     10.63      0.00
    9   18    8     13.96      0.00
   10   18    8      2.68      0.00
    6   19    8      5.57      0.00
    7   19    8     19.28      0.00
    8   19    8    -24.24      0.00
    9   19    8    -12.05      0.00
    3   20    8      0.35      0.00
    4   20    8      0.20      0.00
    5   20    8      1.03      0.00
    6   20    8      9.37      0.00
    9   10    9     26.87      0.00
    9   11    9     17.40      0.00
   10   11    9     11.77      0.00
    8   12    9      4.04      0.00
   10   12    9     -6.19      0.00
   11   12    9     16.75      0.00
    8   13    9    -10.98      0.00
    9   13    9      4.39      0.00
   10   13    9      2.01      0.00
   11   13    9     13.45      0.00
   12   13    9      0.02      0.00
    8   14    9     30.35      0.00
    9   14    9     -2.93      0.00
   10   14    9    -27.75      0.00
   11   14    9     23.79      0.00
   12   14    9      2.55      0.00
   13   14    9     18.29      0.00
    8   15    9     -1.73      0.00
    9   15    9     19.34      0.00
   10   15    9    -19.91      0.00
   11   15    9    -12.27      0.00
   12   15    9     -5.79      0.00
   13   15    9      8.86      0.00
   14   15    9     -2.11      0.00
    8   16    9     22.47      0.00
    9   16    9     -0.01      0.00
   10   16    9    -17.52      0.00
   11   16    9     -5.18      0.00
   12   16    9      1.35      0.00
   13   16    9     -0.71      0.00
    8   17    9     10.56      0.00
    9   17    9     25.97      0.00
   10   17    9     23.73      0.00
   11   17    9     -7.19      0.00
   12   17    9     -8.50      0.00
    8   18    9     -8.14      0.00
    9   18    9      2.43      0.00
   10   18    9      6.24      0.00
    6   19    9    -19.69      0.00
    7   19    9    -11.52      0.00
    8   19    9     10.08      0.00
    3   20    9     14.36      0.00
    4   20    9    -18.28      0.00
    5   20    9     -6.91      0.00
    6   20    9     11.73      0.00
    9   10   10    -39.39      0.00
   10   10   10    -23.78      0.00
    8   11   10     27.61      0.00
   10   11   10     14.43      0.00
   11   11   10      6.63      0.00
   10   12   10     14.05      0.00
   11   12   10     12.63      0.00
   12   12   10     17.55      0.00
   10   13   10     12.64      0.00
   11   13   10     -3.86      0.00
   12   13   10    -11.22      0.00
   13   13   10     -4.51      0.00
    9   14   10    -13.39      0.00
   10   14   10      0.11      0.00
   11   14   10      0.15      0.00
   12   14   10    -15.22      0.00
   13   14   10     -0.33      0.00
   14   14   10     -6.70      0.00
    9   15   10    -31.00      0.00
   10   15   10    -14.08      0.00
   11   15   10     11.85      0.00
   12   15   10      7.21      0.00
   13   15   10    -16.79      0.00
   14   15   10      2.56      0.00
    8   16   10     43.22      0.00
    9   16   10      8.12      0.00
   10   16   10     12.01      0.00
   11   16   10     16.42      0.00
   12   16   10     -3.68      0.00
   13   16   10     -0.23      0.00
    8   17   10      8.18      0.00
    9   17   10     -0.53      0.00
   10   17   10    -12.46      0.00
   11   17   10    -10.50      0.00
    8   18   10     17.88      0.00
    9   18   10     -3.19      0.00
   10   18   10     -0.33      0.00
    6   19   10     -6.00      0.00
    7   19   10     -5.75      0.00
    8   19   10     14.15      0.00
    0   20   10    -36.97      0.00
    2   20   10      3.34      0.00
    3   20   10     -1.93      0.00
    4   20   10     -5.78      0.00
    5   20   10      8.14      0.00
    8   11   11      0.97      0.00
   11   12   11      0.25      0.00
   11   13   11    -18.00      0.00
   12   13   11    -26.11      0.00
    9   14   11     27.09      0.00
   10   14   11    -10.07      0.00
   11   14   11    -14.03      0.00
   12   14   11     -8.53      0.00
   13   14   11     -3.63      0.00
    9   15   11      6.31      0.00
   10   15   11    -10.30      0.00
   11   15   11     19.33      0.00
   12   15   11     -4.81      0.00
   13   15   11      0.66      0.00
   14   15   11     14.24      0.00
    9   16   11    -15.93      0.00
   10   16   11     -0.22      0.00
   11   16   11      6.07      0.00
   12   16   11     -6.44      0.00
    9   17   11     17.73      0.00
   10   17   11     14.79      0.00
   11   17   11      2.88      0.00
    8   18   11      0.85      0.00
    9   18   11    -17.59      0.00
   10   18   11    -10.72      0.00
    5   19   11    -11.27      0.00
    6   19   11     24.10      0.00
    7   19   11     -8.98      0.00
    1   20   11     -4.85      0.00
    2   20   11      8.10      0.00
    3   20   11     14.76      0.00
    4   20   11      2.02      0.00
   11   11   12     16.36      0.00
   11   12   12    -13.37      0.00
   12   12   12    -18.85      0.00
   11   13   12    -13.02      0.00
   12   13   12     -6.01      0.00
   13   13   12      3.55      0.00
    9   14   12      3.73      0.00
   10   14   12      9.44      0.00
   11   14   12    -18.95      0.00
   12   14   12      2.69      0.00
   13   14   12     -7.10      0.00
   14   14   12     18.77      0.00
    9   15   12    -16.89      0.00
   10   15   12    -13.29      0.00
   11   15   12    -11.46      0.00
   12   15   12     -2.03      0.00
   13   15   12      3.56      0.00
    9   16   12     30.42      0.00
   10   16   12      4.46      0.00
   11   16   12     23.04      0.00
   12   16   12      7.58      0.00
    9   17   12    -10.32      0.00
   10   17   12     -6.85      0.00
   11   17   12     12.90      0.00
    9   18   12      0.11      0.00
    5   19   12     -2.99      0.00
    6   19   12     -4.64      0.00
    7   19   12     14.40      0.00
    0   20   12      2.91      0.00
    1   20   12      5.03      0.00
    2   20   12     14.31      0.00
    3   20   12     -7.17      0.00
    4   20   12      3.53      0.00
   11   12   13     20.19      0.00
   11   13   13     13.47      0.00
   12   13   13     25.93      0.00
    9   14   13      0.91      0.00
   10   14   13    -22.03      0.00
   11   14   13     13.89      0.00
   12   14   13     16.26      0.00
   13   14   13      0.12      0.00
    9   15   13     49.23      0.00
   10   15   13      9.09      0.00
   11   15   13      2.29      0.00
   12   15   13     -6.31      0.00
   13   15   13     -2.13      0.00
    9   16   13     -9.71      0.00
   10   16   13    -24.45      0.00
   11   16   13    -12.85      0.00
   12   16   13    -10.39      0.00
    9   17   13      9.75      0.00
   10   17   13      8.80      0.00
    9   18   13      7.03      0.00
    4   19   13    -13.19      0.00
    5   19   13    -19.05      0.00
    6   19   13      9.68      0.00
    1   20   13      1.25      0.00
    2   20   13    -25.80      0.00
    3   20   13    -14.02      0.00
    8    8   14     10.01      0.00
   11   11   14     26.70      0.00
    4   12   14     20.10      0.00
   11   12   14    -12.67      0.00
   12   12   14     -3.51      0.00
   12   13   14     19.38      0.00
   13   13   14     -2.65      0.00
    9   14   14    -11.94      0.00
   10   14   14     32.33      0.00
   12   14   14     19.65      0.00
   13   14   14      7.30      0.00
   14   14   14    -11.21      0.00
    9   15   14     32.42      0.00
   10   15   14      0.93      0.00
   11   15   14     18.53      0.00
   12   15   14     -9.63      0.00
   13   15   14     -2.26      0.00
    9   16   14     -4.17      0.00
   10   16   14     -6.70      0.00
   11   16   14     11.65      0.00
   12   16   14      0.09      0.00
    9   17   14     14.73      0.00
   10   17   14     -9.63      0.00
    8   18   14     -4.33      0.00
    1   19   14    -13.66      0.00
    2   19   14     16.00      0.00
    3   19   14      9.16      0.00
    4   19   14      2.24      0.00
    5   19   14    -10.89      0.00
    6   19   14    -20.53      0.00
    0   20   14    -21.37      0.00
    7    8   15      7.71      0.00
    3   12   15     -2.09      0.00
   12   13   15      0.98      0.00
   12   14   15      5.18      0.00
   13   14   15     -6.42      0.00
    8   15   15     -5.07      0.00
    9   15   15     20.82      0.00
   10   15   15      0.13      0.00
   11   15   15     -6.64      0.00
   12   15   15    -18.34      0.00
    8   16   15      6.19      0.00
    9   16   15    -27.32      0.00
   10   16   15    -20.53      0.00
   11   16   15      0.86      0.00
    8   17   15      0.33      0.00
    9   17   15     17.95      0.00
   10   17   15     -1.72      0.00
    8   18   15     -4.33      0.00
    0   19   15      8.77      0.00
    1   19   15      2.04      0.00
    2   19   15     16.32      0.00
    3   19   15     14.08      0.00
    4   19   15      9.90      0.00
    5   19   15    -14.40      0.00
    7    7   16     16.95      0.00
    6    8   16      3.50      0.00
    5    9   16     -9.69      0.00
   12   12   16    -12.07      0.00
   12   13   16     14.86      0.00
   13   13   16      3.82      0.00
   12   14   16      8.79      0.00
   13   14   16      1.72      0.00
    7   15   16      2.00      0.00
    8   15   16    -16.16      0.00
    9   15   16     -9.85      0.00
   10   15   16     16.62      0.00
   11   15   16      5.73      0.00
   12   15   16    -12.63      0.00
    7   16   16      5.86      0.00
    8   16   16     -5.96      0.00
    9   16   16     -0.89      0.00
   10   16   16    -26.64      0.00
   11   16   16      3.53      0.00
    7   17   16      8.08      0.00
    8   17   16      2.54      0.00
    9   17   16     12.83      0.00
    7   18   16     15.72      0.00
    1   19   16     12.58      0.00
    2   19   16      5.75      0.00
    3   19   16    -13.18      0.00
    4   19   16     18.48      0.00
    6    7   17    -13.59      0.00
    5    8   17      3.34      0.00
   12   13   17      7.72      0.00
   12   14   17      8.90      0.00
   13   14   17      3.34      0.00
    6   15   17    -28.32      0.00
    7   15   17     -4.76      0.00
    8   15   17     -6.90      0.00
    9   15   17    -10.57      0.00
   10   15   17     25.01      0.00
   11   15   17      5.96      0.00
   12   15   17      5.02      0.00
    3   16   17     14.42      0.00
    6   16   17      1.74      0.00
    7   16   17      8.94      0.00
    8   16   17      5.92      0.00
    9   16   17     12.55      0.00
   10   16   17     -0.08      0.00
    6   17   17      1.29      0.00
    7   17   17     10.61      0.00
    8   17   17     -3.42      0.00
    6   18   17      2.02      0.00
    0   19   17      8.13      0.00
    1   19   17      5.90      0.00
    2   19   17      5.92      0.00
    0    0   18    -21.26      0.00
    6    6   18      4.67      0.00
    5    7   18      7.01      0.00
   12   13   18      3.09      0.00
   13   13   18    -18.89      0.00
   12   14   18      7.81      0.00
    5   15   18      7.90      0.00
    6   15   18     -4.19      0.00
    7   15   18     -0.10      0.00
    8   15   18     -1.11      0.00
    9   15   18     11.79      0.00
   10   15   18     17.18      0.00
   11   15   18     -4.47      0.00
    5   16   18     13.20      0.00
    6   16   18     -5.66      0.00
    7   16   18      3.81      0.00
    8   16   18     -0.19      0.00
    9   16   18     -2.96      0.00
   10   16   18    -11.53      0.00
    5   17   18    -12.29      0.00
    6   17   18      6.06      0.00
    7   17   18     -9.41      0.00
    8   17   18    -10.97      0.00
    5   18   18     -4.40      0.00
    5    6   19    -33.15      0.00
    4    7   19      0.68      0.00
   12   14   19     -4.71      0.00
    3   15   19     17.04      0.00
    4   15   19    -19.37      0.00
    5   15   19     -4.95      0.00
    6   15   19     17.06      0.00
    7   15   19     -9.83      0.00
    8   15   19    -13.48      0.00
    9   15   19    -22.38      0.00
   10   15   19     10.36      0.00
   11   15   19     -6.47      0.00
    4   16   19     20.16      0.00
    5   16   19     -1.04      0.00
    6   16   19     12.78      0.00
    7   16   19     16.00      0.00
    8   16   19      2.68      0.00
    9   16   19    -10.09      0.00
    4   17   19     11.12      0.00
    5   17   19    -14.55      0.00
    6   17   19      5.06      0.00
    7   17   19      2.98      0.00
    4   18   19     12.14      0.00
    0    0   20     31.23      0.00
    5    5   20    -17.50      0.00
    4    6   20      2.15      0.00
    7    7   20    -28.65      0.00
   12   13   20     -0.68      0.00
   11   14   20      7.51      0.00
    2   15   20    -33.72      0.00
    3   15   20     18.37      0.00
    4   15   20      2.24      0.00
    5   15   20     10.10      0.00
    6   15   20     -6.19      0.00
    7   15   20    -23.50      0.00
    3   16   20     28.33      0.00
    4   16   20     18.55      0.00
    5   16   20    -18.54      0.00
    6   16   20     -0.47      0.00
    7   16   20      1.58      0.00
    8   16   20      6.53      0.00
    3   17   20     -7.24      0.00
    4   17   20     -2.00      0.00
    5   17   20    -14.91      0.00
    6   17   20      2.67      0.00
    0   18   20     -3.08      0.00
    1   18   20      2.30      0.00
    2   18   20    -12.20      0.00
    3   18   20     -0.01      0.00
    4    5   21     -6.65      0.00
   12   13   21      8.79      0.00
   11   14   21     -6.87      0.00
    2   15   21     22.72      0.00
    3   15   21     -6.52      0.00
    4   15   21     -9.98      0.00
    5   15   21    -31.25      0.00
    2   16   21      2.62      0.00
    3   16   21    -17.47      0.00
    4   16   21      6.20      0.00
    5   16   21    -11.21      0.00
    6   16   21      3.86      0.00
    7   16   21     -4.95      0.00
    2   17   21     25.61      0.00
    3   17   21    -15.59      0.00
    4   17   21      1.66      0.00
    5   17   21      3.56      0.00
    0    0   22     66.42      0.00
   12   12   22      9.69      0.00
   11   13   22    -18.17      0.00
    0   14   22     64.35      0.00
   10   14   22      0.60      0.00
    1   15   22     -0.52      0.00
    2   15   22    -35.76      0.00
    3   15   22      3.49      0.00
    0   16   22     61.34      0.00
    1   16   22      7.00      0.00
    2   16   22     13.17      0.00
    3   16   22     -1.35      0.00
    4   16   22      4.55      0.00
    5   16   22      3.78      0.00
    6   16   22      4.40      0.00
    7   16   22      5.36      0.00
    1   17   22      7.03      0.00
    2   17   22      8.87      0.00
    3   17   22     -6.25      0.00
    4   17   22     -4.75      0.00
   11   12   23     -9.55      0.00
    0   13   23      9.53      0.00
    1   13   23    -13.23      0.00
   10   13   23     -3.32      0.00
   11   13   23      4.14      0.00
    1   14   23     13.37      0.00
    9   14   23     -3.60      0.00
    0   15   23     16.34      0.00
    1   15   23     19.45      0.00
    2   15   23     -1.68      0.00
    8   15   23     -7.38      0.00
    1   16   23     -3.24      0.00
    2   16   23    -23.61      0.00
    3   16   23      0.39      0.00
    4   16   23      7.75      0.00
    5   16   23     -6.86      0.00
    0   17   23     14.88      0.00
    1   17   23     -3.68      0.00
    0    0   24    -51.65      0.00
   11   11   24     -8.64      0.00
   10   12   24     28.46      0.00
   11   12   24    -16.55      0.00
    9   13   24      1.92      0.00
   10   13   24      3.87      0.00
    0   14   24     -9.43      0.00
    1   14   24     25.20      0.00
    8   14   24     17.48      0.00
    1   15   24    -17.58      0.00
    2   15   24    -20.14      0.00
    7   15   24      1.91      0.00
    0   16   24    -18.96      0.00
    1   16   24      0.92      0.00
    2   16   24      4.21      0.00
    3   16   24     -6.01      0.00
    4   16   24      6.29      0.00
    0    1   25    -47.11      0.00
    0    3   25    -14.45      0.00
   10   11   25      0.12      0.00
    9   12   25     18.08      0.00
   10   12   25      4.73      0.00
    8   13   25     -0.06      0.00
    9   13   25      9.69      0.00
    1   14   25     12.93      0.00
    7   14   25     -1.38      0.00
    0   15   25     -0.41      0.00
    1   15   25      1.45      0.00
    2   15   25     11.48      0.00
    5   15   25    -16.23      0.00
    1   16   25     -7.29      0.00
    0    0   26    -24.45      0.00
    1    1   26     10.81      0.00
   10   10   26      3.77      0.00
    9   11   26     10.64      0.00
   10   11   26    -23.14      0.00
   11   11   26    -26.00      0.00
    8   12   26     15.76      0.00
    9   12   26     -3.39      0.00
    7   13   26     -6.67      0.00
    8   13   26     -0.03      0.00
    0   14   26     15.71      0.00
    1   14   26    -26.24      0.00
    2   14   26     -0.78      0.00
    5   14   26     -3.65      0.00
    6   14   26     16.54      0.00
    1   15   26     -7.14      0.00
    2   15   26     -0.35      0.00
    3   15   26     -1.39      0.00
    4   15   26     21.18      0.00
    0    1   27     18.64      0.00
    9   10   27    -17.55      0.00
    8   11   27     -0.34      0.00
    9   11   27     -4.20      0.00
   10   11   27    -22.07      0.00
    7   12   27    -29.99      0.00
    8   12   27      5.44      0.00
    5   13   27     -1.07      0.00
    6   13   27     -7.69      0.00
    7   13   27      0.40      0.00
    1   14   27     -0.54      0.00
    2   14   27      1.48      0.00
    3   14   27     -4.25      0.00
    4   14   27      2.90      0.00
    5   14   27     17.40      0.00
    0    0   28     30.71      0.00
    1    1   28     -4.89      0.00
    9    9   28     -4.31      0.00
    8   10   28     -9.51      0.00
    9   10   28     10.99      0.00
   10   10   28     12.94      0.00
    7   11   28      9.84      0.00
    8   11   28     -5.81      0.00
    9   11   28      8.06      0.00
    5   12   28     -1.01      0.00
    6   12   28     -3.87      0.00
    7   12   28    -16.58      0.00
    3   13   28     16.01      0.00
    4   13   28     15.98      0.00
    5   13   28      0.06      0.00
    6   13   28     -1.20      0.00
    0   14   28      3.25      0.00
    1   14   28    -23.70      0.00
    2   14   28     11.72      0.00
    3   14   28      2.33      0.00
    0    1   29     -7.82      0.00
    8    9   29     -2.29      0.00
    7   10   29      3.62      0.00
    8   10   29     -5.07      0.00
    9   10   29      9.43      0.00
    5   11   29     15.20      0.00
    6   11   29      8.05      0.00
    7   11   29      6.01      0.00
    8   11   29      9.60      0.00
    4   12   29     14.96      0.00
    5   12   29     -4.47      0.00
    6   12   29     -4.66      0.00
    0   13   29     27.27      0.00
    2   13   29    -11.33      0.00
    3   13   29      1.70      0.00
    4   13   29    -20.07      0.00
    0    0   30     33.92      0.00
    1    1   30    -37.79      0.00
    0    2   30      1.62      0.00
    1    2   30     21.26      0.00
    2    2   30     15.24      0.00
    0    8   30      2.76      0.00
    8    8   30     22.27      0.00
    7    9   30     24.01      0.00
    8    9   30    -11.30      0.00
    9    9   30     20.51      0.00
    5   10   30     11.81      0.00
    6   10   30    -10.13      0.00
    7   10   30      9.28      0.00
    8   10   30     -6.43      0.00
    4   11   30    -17.93      0.00
    5   11   30      9.35      0.00
    6   11   30     12.14      0.00
    0   12   30     24.46      0.00
    2   12   30     -9.63      0.00
    3   12   30    -30.94      0.00
    4   12   30      0.95      0.00
    0    1   31     -8.80      0.00
    1    2   31     13.36      0.00
    6    8   31     13.23      0.00
    7    8   31    -12.44      0.00
    5    9   31      4.11      0.00
    6    9   31      3.75      0.00
    7    9   31     -2.14      0.00
    8    9   31    -11.77      0.00
    4   10   31      1.46      0.00
    5   10   31      0.10      0.00
    6   10   31     -3.66      0.00
    0   11   31     46.49      0.00
    3   11   31    -23.85      0.00
    4   11   31      3.16      0.00
    5   11   31     -9.62      0.00
    1   12   31     -1.65      0.00
    2   12   31    -14.93      0.00
    0    0   32     42.16      0.00
    1    1   32    -19.93      0.00
    0    2   32     30.79      0.00
    1    2   32      2.11      0.00
    2    2   32     -9.34      0.00
    3    3   32     -4.56      0.00
    6    7   32     32.68      0.00
    7    7   32     11.54      0.00
    5    8   32     16.07      0.00
    6    8   32    -12.10      0.00
    7    8   32     -3.35      0.00
    4    9   32    -20.73      0.00
    5    9   32      1.06      0.00
    6    9   32    -12.36      0.00
    0   10   32     -4.28      0.00
    3   10   32      8.59      0.00
    4   10   32    -12.44      0.00
    5   10   32      6.95      0.00
    1   11   32    -13.05      0.00
    2   11   32      3.03      0.00
    0    1   33     -9.98      0.00
    1    2   33      8.55      0.00
    0    3   33     16.99      0.00
    1    3   33     -0.33      0.00
    2    3   33     -9.79      0.00
    5    7   33     -9.05      0.00
    6    7   33     30.06      0.00
    4    8   33    -13.80      0.00
    5    8   33    -14.51      0.00
    6    8   33      8.39      0.00
    0    9   33     11.89      0.00
    2    9   33     -7.73      0.00
    3    9   33     27.62      0.00
    4    9   33    -23.61      0.00
    5    9   33    -11.88      0.00
    1   10   33     -6.88      0.00
    2   10   33     -8.03      0.00
    0    0   34     63.38      0.00
    1    1   34     -0.70      0.00
    0    2   34    -30.09      0.00
    1    2   34     15.12      0.00
    2    2   34     25.97      0.00
    1    3   34    -22.22      0.00
    2    3   34     44.35      0.00
    3    3   34    -24.31      0.00
    5    5   34     -8.34      0.00
    0    6   34     -2.94      0.00
    4    6   34      7.66      0.00
    5    6   34    -27.62      0.00
    6    6   34    -13.77      0.00
    3    7   34     -2.23      0.00
    4    7   34      7.75      0.00
    5    7   34      8.40      0.00
    0    8   34     -6.59      0.00
    2    8   34      9.49      0.00
    3    8   34     -0.28      0.00
    4    8   34      4.52      0.00
    1    9   34     13.81      0.00
    0    1   35     16.77      0.00
    1    2   35    -14.15      0.00
    0    3   35     -8.90      0.00
    1    3   35     25.58      0.00
    2    3   35     -8.32      0.00
    2    4   35     13.77      0.00
    3    4   35     16.17      0.00
    0    5   35     15.49      0.00
    3    5   35    -31.29      0.00
    4    5   35    -22.64      0.00
    3    6   35     12.39      0.00
    4    6   35     32.87      0.00
    5    6   35    -14.76      0.00
    0    7   35     17.54      0.00
    2    7   35    -11.15      0.00
    3    7   35    -12.87      0.00
    0    0    0      0.00      0.00
# SQUEEZE RESULTS (Version =  70515)
# Note: Data are Listed for all Voids in the P1 Unit Cell
# i.e. Centre of Gravity, Solvent Accessible Volume,
# Recovered number of Electrons in the Void and
# Details about the Squeezed Material
loop_
  _platon_squeeze_void_nr
  _platon_squeeze_void_average_x
  _platon_squeeze_void_average_y
  _platon_squeeze_void_average_z
  _platon_squeeze_void_volume
  _platon_squeeze_void_count_electrons
  _platon_squeeze_void_content
   1 -0.011  0.396 -0.003      8553      3462 ' '
# Missing Reflections Below sin(th)/lambda = 0.25
loop_
  _platon_missing_refln_index_h
  _platon_missing_refln_index_k
  _platon_missing_refln_index_l
  _platon_missing_refln_theta
    1    1    0     1.467
    2    2    0     2.935
    3    3    0     4.406
    4    4    0     5.879
    4    5    0     6.657
    5    5    0     7.356
    5    6    0     8.129
    6    6    0     8.838
    5    7    0     8.960
    6    7    0     9.609
    0    1    1     1.196
    4    5    1     6.684
    5    6    1     8.152
    6    7    1     9.628
    0    0    2     1.190
    4    4    2     5.999
    4    5    2     6.764
    5    5    2     7.452
    5    6    2     8.217
    6    6    2     8.919
    6    7    2     9.684
    4    5    3     6.895
    6    7    3     9.777
    6    6    4     9.157
_platon_squeeze_void_probe_radius                  1.20
_platon_squeeze_details
)
TITL g2yy_9xnewP 4/m n c    R = 0.33
CELL   19.0243   19.0243   33.1740     90.00     90.00     90.00
SPGR P4/mnc
# Solvent Accessible Volume =    8628.7
# Electrons Found in S.A.V. =    3407.8
# Note: Atoms in Void as Cxxx and Qxxx all others
C101 1.000 0.500 0.500 !       3.48 eA-3
Q102 0.138 0.078-0.002 !       2.61 eA-3
Q103 0.608 0.203 0.499 !       2.60 eA-3
Q104 0.110 0.078-0.004 !       2.58 eA-3
C105 0.263 0.048 0.328 !       2.54 eA-3
C106 0.292 0.393 0.359 !       2.51 eA-3
C107 0.502 0.541 0.319 !       2.50 eA-3
C108 0.203 0.359 0.001 !       2.49 eA-3
C109 0.610 0.310 0.399 !       2.42 eA-3
Q110 0.138 1.000 0.004 !       2.36 eA-3
C111 0.480 0.094 0.497 !       2.30 eA-3
C112 0.012 0.769 0.298 !       2.28 eA-3
C113 0.284 0.378 0.396 !       2.26 eA-3
C114 0.858 0.797 0.180 !       2.23 eA-3
C115 0.674 0.750 0.038 !       2.20 eA-3
Q116 0.211 0.125-0.002 !       2.19 eA-3
C117 1.000 0.999 0.312 !       2.19 eA-3
C118 1.000 1.006 0.172 !       2.18 eA-3
Q119 0.784 0.423 0.483 !       2.18 eA-3
C120 0.821 0.359 0.499 !       2.17 eA-3
C121 0.919 0.487 0.433 !       2.16 eA-3
C122 0.594 0.390 0.250 !       2.13 eA-3
C123 0.622 0.801 0.047 !       2.11 eA-3
C124 0.829 0.679 0.475 !       2.09 eA-3
C125 0.450 0.814 0.158 !       2.08 eA-3
Q126 0.215 0.047-0.001 !       2.08 eA-3
C127 0.298 0.996 0.310 !       2.07 eA-3
C128 0.278 0.766 0.461 !       2.06 eA-3
C129 0.201 0.422-0.001 !       2.04 eA-3
C130 0.157 0.919 0.232 !       2.02 eA-3
C131 0.783 0.577 0.369 !       2.02 eA-3
C132 0.923 0.578 0.047 !       2.01 eA-3
C133 0.732 0.363 0.096 !       2.00 eA-3
C134 0.138 0.453-0.002 !       1.98 eA-3
C135 0.875 0.780 0.089 !       1.97 eA-3
C136 0.781 0.263 0.057 !       1.97 eA-3
C137 0.831 0.484 0.002 !       1.97 eA-3
C138 0.939 0.267 0.451 !       1.97 eA-3
Q139 0.768 0.359 0.500 !       1.96 eA-3
C140 0.280 0.390 0.288 !       1.93 eA-3
C141 0.310 0.250 0.002 !       1.92 eA-3
C142 0.470 0.047-0.002 !       1.92 eA-3
Q143 0.498 0.555 0.417 !       1.91 eA-3
C144 0.939 0.530 0.483 !       1.90 eA-3
Q145 1.000 0.669 0.037 !       1.89 eA-3
C146 0.294 0.779 0.267 !       1.89 eA-3
C147 0.769 0.406 0.077 !       1.88 eA-3
C148 0.068 0.359 0.007 !       1.88 eA-3
C149 0.122 0.081 0.275 !       1.87 eA-3
Q150 0.198 0.910 0.054 !       1.86 eA-3
C151 0.110 0.306 0.069 !       1.85 eA-3
C152 0.672 0.984 0.331 !       1.85 eA-3
Q153 0.826 0.833 0.093 !       1.85 eA-3
C154 0.658 0.640 0.275 !       1.85 eA-3
C155 0.323 0.828 0.247 !       1.83 eA-3
Q156 0.908 0.372 0.064 !       1.83 eA-3
C157 0.638 0.016-0.002 !       1.83 eA-3
Q158 0.651 0.275 0.447 !       1.82 eA-3
C159 0.248 0.691 0.086 !       1.82 eA-3
C160 0.500 0.498 0.109 !       1.81 eA-3
C161 0.582 0.262 0.228 !       1.80 eA-3
C162 0.488 0.495 0.300 !       1.79 eA-3
C163 0.609 0.023 0.389 !       1.78 eA-3
C164 0.500 0.114 0.101 !       1.78 eA-3
C165 0.796 0.999 0.350 !       1.77 eA-3
C166 0.094 0.206 0.173 !       1.76 eA-3
C167 0.364 0.797 0.084 !       1.76 eA-3
C168 0.092 0.294 0.103 !       1.76 eA-3
C169 0.050 0.688 0.436 !       1.75 eA-3
C170 0.174 0.901 0.468 !       1.75 eA-3
C171 0.568 0.016 0.498 !       1.74 eA-3
C172 0.090 0.373 0.423 !       1.74 eA-3
C173 0.926 0.433 0.094 !       1.74 eA-3
C174 0.027 0.596 0.029 !       1.73 eA-3
C175 0.454 0.832 0.421 !       1.72 eA-3
C176 0.360 0.918 0.103 !       1.72 eA-3
C177 0.147 0.968 0.290 !       1.71 eA-3
C178 0.270 0.763 0.166 !       1.71 eA-3
C179 0.218 0.475 0.211 !       1.71 eA-3
C180 1.000 0.505 0.031 !       1.71 eA-3
C181 0.843 0.643 0.405 !       1.70 eA-3
C182 0.390 0.720 0.267 !       1.70 eA-3
C183 0.608 0.173 0.470 !       1.70 eA-3
C184 0.283 0.723 0.175 !       1.69 eA-3
C185 0.383 0.671 0.241 !       1.68 eA-3
C186 0.183 0.264 0.307 !       1.67 eA-3
C187 0.957 0.456 0.406 !       1.67 eA-3
Q188 0.688 0.234 0.497 !       1.66 eA-3
C189 0.463 0.328 0.212 !       1.66 eA-3
C190 0.644 0.032 0.431 !       1.65 eA-3
C191 0.430 0.859 0.117 !       1.64 eA-3
C192 0.118 0.359 0.502 !       1.64 eA-3
C193 1.000 1.006 0.234 !       1.63 eA-3
C194 0.599 0.526 0.250 !       1.63 eA-3
C195 0.099 0.963 0.750 !       1.63 eA-3
C196 0.354 0.047 0.006 !       1.63 eA-3
C197 0.065 0.190 0.264 !       1.62 eA-3
C198 0.747 0.422-0.001 !       1.62 eA-3
C199 0.324 0.281 0.157 !       1.62 eA-3
)
;
_shelx_shelxl_version_number     2014/7
_olex2_submission_special_instructions 'No special instructions were received'
loop_
_space_group_symop_operation_xyz
'x, y, z'
'-x, -y, z'
'-y, x, z'
'y, -x, z'
'-x+1/2, y+1/2, -z+1/2'
'x+1/2, -y+1/2, -z+1/2'
'y+1/2, x+1/2, -z+1/2'
'-y+1/2, -x+1/2, -z+1/2'
'-x, -y, -z'
'x, y, -z'
'y, -x, -z'
'-y, x, -z'
'x-1/2, -y-1/2, z-1/2'
'-x-1/2, y-1/2, z-1/2'
'-y-1/2, -x-1/2, z-1/2'
'y-1/2, x-1/2, z-1/2'
loop_
_atom_site_label
_atom_site_type_symbol
_atom_site_fract_x
_atom_site_fract_y
_atom_site_fract_z
_atom_site_U_iso_or_equiv
_atom_site_adp_type
_atom_site_occupancy
_atom_site_site_symmetry_order
_atom_site_calc_flag
_atom_site_refinement_flags_posn
_atom_site_refinement_flags_adp
_atom_site_refinement_flags_occupancy
_atom_site_disorder_assembly
_atom_site_disorder_group
Zr1 Zr 0.12385(17) 0.04496(19) 0.0000 0.0575(16) Uani 1 2 d S TU P . .
Zr2 Zr 0.0000 0.0000 0.07351(12) 0.0477(18) Uani 1 4 d S TU P . .
O5 O -0.0283(6) 0.0929(6) 0.1085(4) 0.106(4) Uiso 1 1 d . U . . .
O2 O 0.1736(7) 0.0604(6) -0.0603(4) 0.110(5) Uiso 1 1 d . U . . .
O4 O 0.0381(7) 0.0837(6) 0.0358(4) 0.122(5) Uiso 1 1 d . U . . .
O3 O 0.1670(11) 0.1510(10) 0.0000 0.153(8) Uiso 1 2 d S TU P . .
O1 O 0.2271(11) -0.0138(11) 0.0000 0.163(9) Uiso 1 2 d S TU P . .
C11 C -0.0263(11) 0.4161(7) 0.2226(5) 0.133(8) Uiso 1 1 d D U . . .
C3 C -0.0466(9) 0.1939(14) 0.1702(9) 0.222(11) Uiso 1 1 d D U . . .
H3 H -0.0306 0.1483 0.1745 0.266 Uiso 1 1 calc R . . . .
C12 C -0.0281(3) 0.4719(3) 0.2500 0.130(11) Uiso 1 2 d DS TU P . .
C1 C -0.0603(8) 0.1536(15) 0.1007(8) 0.169(9) Uiso 1 1 d D U . . .
C4 C -0.0498(11) 0.2392(16) 0.2033(8) 0.219(11) Uiso 1 1 d D U . . .
H4 H -0.0386 0.2275 0.2298 0.262 Uiso 1 1 calc R . . . .
C8 C -0.0780(8) 0.3645(11) 0.2200(6) 0.141(8) Uiso 1 1 d D U . . .
C13 C 0.0310(10) 0.4119(10) 0.1910(6) 0.179(10) Uiso 1 1 d D U . . .
H13A H 0.0641 0.4493 0.1952 0.268 Uiso 1 1 calc R . . . .
H13B H 0.0548 0.3675 0.1932 0.268 Uiso 1 1 calc R . . . .
H13C H 0.0106 0.4162 0.1647 0.268 Uiso 1 1 calc R . . . .
C2 C -0.0660(7) 0.2128(15) 0.1310(9) 0.228(10) Uiso 1 1 d D U . . .
C5 C -0.0725(11) 0.3051(13) 0.1899(8) 0.193(9) Uiso 1 1 d D U . . .
C7 C -0.0901(11) 0.2774(17) 0.1163(9) 0.247(12) Uiso 1 1 d D U . . .
H7 H -0.1012 0.2889 0.0898 0.297 Uiso 1 1 calc R . . . .
C9 C -0.1287(11) 0.3713(11) 0.2500 0.161(12) Uiso 1 2 d DS TU P . .
C6 C -0.0937(11) 0.3207(14) 0.1502(9) 0.225(11) Uiso 1 1 d D U . . .
H6 H -0.1124 0.3653 0.1461 0.270 Uiso 1 1 calc R . . . .
C10 C -0.1846(12) 0.3154(12) 0.2500 0.215(16) Uiso 1 2 d DS TU P . .
H10A H -0.1759 0.2829 0.2285 0.322 Uiso 0.5 1 calc R . . A -1
H10B H -0.1838 0.2908 0.2753 0.322 Uiso 0.5 1 calc R . . A -1
H10C H -0.2298 0.3368 0.2463 0.322 Uiso 0.5 1 calc R . . A -1
loop_
_atom_site_aniso_label
_atom_site_aniso_U_11
_atom_site_aniso_U_22
_atom_site_aniso_U_33
_atom_site_aniso_U_23
_atom_site_aniso_U_13
_atom_site_aniso_U_12
Zr1 0.056(3) 0.077(3) 0.040(3) 0.000 0.000 -0.002(3)
Zr2 0.057(3) 0.057(3) 0.030(3) 0.000 0.000 0.000
loop_
_atom_type_symbol
_atom_type_description
_atom_type_scat_dispersion_real
_atom_type_scat_dispersion_imag
_atom_type_scat_source
C C 0.0030 0.0010 'International Tables Vol C Tables 4.2.6.8 and 6.1.1.4'
H H 0.0000 0.0000 'International Tables Vol C Tables 4.2.6.8 and 6.1.1.4'
O O 0.0110 0.0060 'International Tables Vol C Tables 4.2.6.8 and 6.1.1.4'
Zr Zr -11.6050 0.5510 'International Tables Vol C Tables 4.2.6.8 and 6.1.1.4'
loop_
_geom_angle_atom_site_label_1
_geom_angle_atom_site_label_2
_geom_angle_atom_site_label_3
_geom_angle
_geom_angle_site_symmetry_1
_geom_angle_site_symmetry_3
Zr1 Zr1 Zr1 90.0 11 3
Zr2 Zr1 Zr1 59.55(3) . 11
Zr2 Zr1 Zr1 59.55(3) . 3
Zr2 Zr1 Zr1 59.55(3) 9 3
Zr2 Zr1 Zr1 59.55(3) 9 11
Zr2 Zr1 Zr2 88.42(12) 9 .
O2 Zr1 Zr1 107.4(3) . 11
O2 Zr1 Zr1 107.3(3) 10 11
O2 Zr1 Zr1 109.2(3) . 3
O2 Zr1 Zr1 109.2(3) 10 3
O2 Zr1 Zr2 72.1(3) 10 .
O2 Zr1 Zr2 72.1(3) . 9
O2 Zr1 Zr2 160.5(4) . .
O2 Zr1 Zr2 160.5(4) 10 9
O2 Zr1 O2 127.3(7) . 10
O2 Zr1 O1 72.3(4) . .
O2 Zr1 O1 72.3(4) 10 .
O4 Zr1 Zr1 34.1(3) 11 11
O4 Zr1 Zr1 33.6(3) 10 3
O4 Zr1 Zr1 89.4(3) . 11
O4 Zr1 Zr1 89.4(3) 4 3
O4 Zr1 Zr1 34.1(3) 4 11
O4 Zr1 Zr1 89.4(3) 10 11
O4 Zr1 Zr1 33.6(3) . 3
O4 Zr1 Zr1 89.4(3) 11 3
O4 Zr1 Zr2 35.3(3) 4 .
O4 Zr1 Zr2 88.0(3) 4 9
O4 Zr1 Zr2 88.0(3) 11 .
O4 Zr1 Zr2 35.3(3) 11 9
O4 Zr1 Zr2 35.6(3) . .
O4 Zr1 Zr2 35.6(3) 10 9
O4 Zr1 Zr2 87.6(3) 10 .
O4 Zr1 Zr2 87.6(3) . 9
O4 Zr1 O2 75.4(4) 11 .
O4 Zr1 O2 77.4(4) 10 .
O4 Zr1 O2 140.6(5) 10 10
O4 Zr1 O2 138.8(5) 11 10
O4 Zr1 O2 140.6(5) . .
O4 Zr1 O2 138.8(5) 4 .
O4 Zr1 O2 75.4(4) 4 10
O4 Zr1 O2 77.4(4) . 10
O4 Zr1 O4 70.9(6) 11 10
O4 Zr1 O4 107.0(6) 11 .
O4 Zr1 O4 107.0(6) 4 10
O4 Zr1 O4 67.1(7) 10 .
O4 Zr1 O4 70.9(6) 4 .
O4 Zr1 O4 68.1(7) 11 4
O4 Zr1 O3 88.2(6) . .
O4 Zr1 O3 88.2(6) 10 .
O4 Zr1 O3 145.8(3) 11 .
O4 Zr1 O3 145.8(3) 4 .
O4 Zr1 O1 86.8(5) 4 .
O4 Zr1 O1 146.1(3) . .
O4 Zr1 O1 86.8(5) 11 .
O4 Zr1 O1 146.1(3) 10 .
O3 Zr1 Zr1 87.1(6) . 3
O3 Zr1 Zr1 177.1(6) . 11
O3 Zr1 Zr2 118.7(3) . 9
O3 Zr1 Zr2 118.7(3) . .
O3 Zr1 O2 73.7(4) . 10
O3 Zr1 O2 73.7(4) . .
O3 Zr1 O1 97.5(7) . .
O1 Zr1 Zr1 85.4(6) . 11
O1 Zr1 Zr1 175.4(6) . 3
O1 Zr1 Zr2 117.7(3) . 9
O1 Zr1 Zr2 117.7(3) . .
Zr1 Zr2 Zr1 91.58(12) 11 3
Zr1 Zr2 Zr1 60.91(7) 9 11
Zr1 Zr2 Zr1 91.58(12) 9 .
Zr1 Zr2 Zr1 60.91(7) 11 .
Zr1 Zr2 Zr1 60.91(7) 9 3
Zr1 Zr2 Zr1 60.91(7) 3 .
O5 Zr2 Zr1 113.8(3) 3 11
O5 Zr2 Zr1 109.8(3) . .
O5 Zr2 Zr1 167.7(4) 2 3
O5 Zr2 Zr1 167.7(4) . 11
O5 Zr2 Zr1 109.8(3) 3 3
O5 Zr2 Zr1 113.8(3) 2 .
O5 Zr2 Zr1 109.8(3) 2 9
O5 Zr2 Zr1 76.4(3) 2 11
O5 Zr2 Zr1 113.8(3) 4 3
O5 Zr2 Zr1 76.4(3) 4 .
O5 Zr2 Zr1 109.8(3) 4 11
O5 Zr2 Zr1 167.7(4) 4 9
O5 Zr2 Zr1 76.4(3) . 3
O5 Zr2 Zr1 113.8(3) . 9
O5 Zr2 Zr1 76.4(3) 3 9
O5 Zr2 Zr1 167.7(4) 3 .
O5 Zr2 O5 73.6(3) . 4
O5 Zr2 O5 73.6(3) 4 2
O5 Zr2 O5 73.6(3) 3 2
O5 Zr2 O5 115.7(7) 4 3
O5 Zr2 O5 115.7(7) . 2
O5 Zr2 O5 73.6(3) . 3
O4 Zr2 Zr1 35.5(3) 4 11
O4 Zr2 Zr1 90.2(4) 2 .
O4 Zr2 Zr1 90.6(3) . 11
O4 Zr2 Zr1 35.5(3) . .
O4 Zr2 Zr1 34.7(3) 4 .
O4 Zr2 Zr1 90.2(4) 3 11
O4 Zr2 Zr1 90.2(4) . 9
O4 Zr2 Zr1 35.5(3) 2 9
O4 Zr2 Zr1 90.6(3) 4 9
O4 Zr2 Zr1 90.6(3) 3 .
O4 Zr2 Zr1 90.2(4) 4 3
O4 Zr2 Zr1 34.7(3) . 3
O4 Zr2 Zr1 90.6(3) 2 3
O4 Zr2 Zr1 34.7(3) 2 11
O4 Zr2 Zr1 34.7(3) 3 9
O4 Zr2 Zr1 35.5(3) 3 3
O4 Zr2 O5 78.0(4) 3 3
O4 Zr2 O5 78.0(4) 4 4
O4 Zr2 O5 145.7(5) 2 .
O4 Zr2 O5 145.7(5) . 2
O4 Zr2 O5 78.0(4) . .
O4 Zr2 O5 81.6(5) . 4
O4 Zr2 O5 81.6(5) 4 2
O4 Zr2 O5 145.7(5) 4 3
O4 Zr2 O5 139.9(4) 4 .
O4 Zr2 O5 139.9(4) 3 2
O4 Zr2 O5 139.9(4) . 3
O4 Zr2 O5 81.6(5) 2 3
O4 Zr2 O5 81.6(5) 3 .
O4 Zr2 O5 145.7(5) 3 4
O4 Zr2 O5 78.0(4) 2 2
O4 Zr2 O5 139.9(4) 2 4
O4 Zr2 O4 108.9(7) . 2
O4 Zr2 O4 108.9(7) 3 4
O4 Zr2 O4 70.2(3) . 3
O4 Zr2 O4 70.2(3) 2 4
O4 Zr2 O4 70.2(3) . 4
O4 Zr2 O4 70.2(3) 2 3
C1 O5 Zr2 135.4(15) . .
C1 O2 Zr1 138.3(15) 11 .
Zr1 O4 Zr1 112.3(6) 3 .
Zr1 O4 Zr2 108.9(5) . .
Zr1 O4 Zr2 110.0(6) 3 .
C12 C11 C13 120.5(13) . .
C8 C11 C12 123.9(17) . .
C8 C11 C13 115.4(12) . .
C4 C3 H3 117.9 . .
C2 C3 H3 117.9 . .
C2 C3 C4 124(3) . .
C11 C12 C11 117.3(17) . 7_455
C11 C12 C12 121.3(9) . 2_565
C11 C12 C12 121.3(9) 7_455 2_565
O5 C1 O2 115(2) . 12
O5 C1 C2 123(2) . .
O2 C1 C2 116(2) 12 .
C3 C4 H4 125.8 . .
C3 C4 C5 108(2) . .
C5 C4 H4 125.8 . .
C11 C8 C5 121.3(13) . .
C11 C8 C9 112(2) . .
C9 C8 C5 126.1(18) . .
C11 C13 H13A 109.5 . .
C11 C13 H13B 109.5 . .
C11 C13 H13C 109.5 . .
H13A C13 H13B 109.5 . .
H13A C13 H13C 109.5 . .
H13B C13 H13C 109.5 . .
C3 C2 C1 114(3) . .
C3 C2 C7 130(3) . .
C7 C2 C1 116(3) . .
C4 C5 C8 119(3) . .
C4 C5 C6 125(2) . .
C6 C5 C8 116(3) . .
C2 C7 H7 127.7 . .
C6 C7 C2 105(3) . .
C6 C7 H7 127.7 . .
C8 C9 C8 130(3) 7_455 .
C8 C9 C10 115.1(16) . .
C8 C9 C10 115.1(16) 7_455 .
C5 C6 H6 116.0 . .
C7 C6 C5 128(3) . .
C7 C6 H6 116.0 . .
C9 C10 H10A 109.5 . .
C9 C10 H10B 109.5 . .
C9 C10 H10C 109.5 . .
H10A C10 H10B 109.5 . .
H10A C10 H10C 109.5 . .
H10B C10 H10C 109.5 . .
loop_
_geom_bond_atom_site_label_1
_geom_bond_atom_site_label_2
_geom_bond_distance
_geom_bond_site_symmetry_2
Zr1 Zr1 3.545(5) 3
Zr1 Zr1 3.545(5) 11
Zr1 Zr2 3.497(4) 9
Zr1 Zr2 3.497(4) .
Zr1 O2 2.232(13) 10
Zr1 O2 2.232(13) .
Zr1 O4 2.120(12) 4
Zr1 O4 2.120(12) 11
Zr1 O4 2.148(12) 10
Zr1 O4 2.148(12) .
Zr1 O3 2.18(2) .
Zr1 O1 2.26(2) .
Zr2 Zr1 3.497(4) 9
Zr2 Zr1 3.497(4) 11
Zr2 Zr1 3.497(4) 3
Zr2 O5 2.182(13) 2
Zr2 O5 2.182(13) 4
Zr2 O5 2.182(13) 3
Zr2 O5 2.182(13) .
Zr2 O4 2.151(12) 3
Zr2 O4 2.151(12) 2
Zr2 O4 2.151(12) 4
Zr2 O4 2.151(12) .
O5 C1 1.33(3) .
O2 C1 1.39(3) 11
O4 Zr1 2.120(12) 3
C11 C12 1.400(8) .
C11 C8 1.391(8) .
C11 C13 1.514(7) .
C3 H3 0.9300 .
C3 C4 1.398(10) .
C3 C2 1.396(7) .
C12 C11 1.400(8) 7_455
C12 C12 1.510(19) 2_565
C1 O2 1.39(3) 12
C1 C2 1.515(10) .
C4 H4 0.9300 .
C4 C5 1.400(7) .
C8 C5 1.511(10) .
C8 C9 1.393(8) .
C13 H13A 0.9600 .
C13 H13B 0.9600 .
C13 H13C 0.9600 .
C2 C7 1.400(10) .
C5 C6 1.408(10) .
C7 H7 0.9300 .
C7 C6 1.398(10) .
C9 C8 1.393(8) 7_455
C9 C10 1.503(10) .
C6 H6 0.9300 .
C10 H10A 0.9600 .
C10 H10B 0.9600 .
C10 H10C 0.9600 .
loop_
_geom_torsion_atom_site_label_1
_geom_torsion_atom_site_label_2
_geom_torsion_atom_site_label_3
_geom_torsion_atom_site_label_4
_geom_torsion
_geom_torsion_site_symmetry_1
_geom_torsion_site_symmetry_4
Zr2 O5 C1 O2 -21(2) . 12
Zr2 O5 C1 C2 -173.3(7) . .
O5 C1 C2 C3 -11.4(12) . .
O5 C1 C2 C7 169.2(15) . .
O2 C1 C2 C3 -163.3(14) 12 .
O2 C1 C2 C7 17.3(13) 12 .
C11 C8 C5 C4 101(3) . .
C11 C8 C5 C6 -81(3) . .
C11 C8 C9 C8 2.4(13) . 7_455
C11 C8 C9 C10 -177.6(13) . .
C3 C4 C5 C8 -177.9(14) . .
C3 C4 C5 C6 5(3) . .
C3 C2 C7 C6 -2.3(18) . .
C12 C11 C8 C5 -179(2) . .
C12 C11 C8 C9 -5(3) . .
C1 C2 C7 C6 177.0(10) . .
C4 C3 C2 C1 -177.8(12) . .
C4 C3 C2 C7 1.5(18) . .
C4 C5 C6 C7 -7(4) . .
C8 C11 C12 C11 2.9(15) . 7_455
C8 C11 C12 C12 -177.1(15) . 2_565
C8 C5 C6 C7 175.7(17) . .
C13 C11 C12 C11 178(2) . 7_455
C13 C11 C12 C12 -2(2) . 2_565
C13 C11 C8 C5 5(3) . .
C13 C11 C8 C9 179.7(16) . .
C2 C3 C4 C5 -2(2) . .
C2 C7 C6 C5 5(3) . .
C5 C8 C9 C8 176(3) . 7_455
C5 C8 C9 C10 -4(3) . .
C9 C8 C5 C4 -72(3) . .
C9 C8 C5 C6 105(2) . .
