#------------------------------------------------------------------------------
#$Date: 2019-11-25 22:30:06 +0200 (Mon, 25 Nov 2019) $
#$Revision: 241967 $
#$URL: file:///home/coder/svn-repositories/cod/cif/4/13/18/4131847.cif $
#------------------------------------------------------------------------------
#
# This file is available in the Crystallography Open Database (COD),
# http://www.crystallography.net/
#
# All data on this site have been placed in the public domain by the
# contributors.
#
data_4131847
loop_
_publ_author_name
'Yan, Yong'
'O'Connor, Alice E'
'Kanthasamy, Gopikkaa'
'Atkinson, George'
'Allan, David R.'
'Blake, Alexander J.'
'Schr\"oder, Martin'
_publ_section_title
;
 Unusual and Tunable Negative Linear Compressibility in the Metal-Organic
 Framework MFM-133(M) (M = Zr, Hf).
;
_journal_issue                   11
_journal_name_full               'Journal of the American Chemical Society'
_journal_page_first              3952
_journal_page_last               3958
_journal_paper_doi               10.1021/jacs.7b11747
_journal_volume                  140
_journal_year                    2018
_chemical_formula_moiety         'C88 H72 Hf6 O32'
_chemical_formula_sum            'C88 H72 Hf6 O32'
_chemical_formula_weight         2708.36
_space_group_crystal_system      tetragonal
_space_group_IT_number           128
_space_group_name_Hall           '-P 4 2n'
_space_group_name_H-M_alt        'P 4/m n c'
_atom_sites_solution_hydrogens   geom
_audit_creation_date             2017-02-05
_audit_creation_method
;
Olex2 1.2
(compiled 2015.09.30 svn.r3233 for OlexSys, GUI svn.r5103)
;
_cell_angle_alpha                90
_cell_angle_beta                 90
_cell_angle_gamma                90
_cell_formula_units_Z            2
_cell_length_a                   18.243(2)
_cell_length_b                   18.243(2)
_cell_length_c                   33.845(6)
_cell_measurement_reflns_used    1800
_cell_measurement_temperature    293(2)
_cell_measurement_theta_max      22.3580
_cell_measurement_theta_min      1.9000
_cell_volume                     11264(3)
_computing_cell_refinement       'CrysAlisPro 1.171.38.41 (Rigaku OD, 2015)'
_computing_data_collection       'CrysAlisPro 1.171.38.41 (Rigaku OD, 2015)'
_computing_data_reduction        'CrysAlisPro 1.171.38.41 (Rigaku OD, 2015)'
_computing_molecular_graphics    'Olex2 (Dolomanov et al., 2009)'
_computing_publication_material  'Olex2 (Dolomanov et al., 2009)'
_computing_structure_refinement  'ShelXL (Sheldrick, 2015)'
_diffrn_ambient_temperature      293(2)
_diffrn_detector                 'CCD plate'
_diffrn_measured_fraction_theta_full 0.744
_diffrn_measured_fraction_theta_max 0.744
_diffrn_measurement_details
;
List of Runs (angles in degrees, time in seconds):

  # Type    Start    End  Width  t~exp~   \w     \q     \k     \f   Frames
--------------------------------------------------------------------------
  1  \w   -105.00 -74.00   0.20    0.20    --   20.00  70.00 155.77  155
  2  \w   -105.00 -74.00   0.20    0.20    --   20.00  70.00 -24.23  155
  3  \w   -104.80 -66.00   0.20    0.20    --  -20.00 -70.00-155.77  194
  4  \w   -106.00 -66.00   0.20    0.20    --  -20.00 -70.00  24.23  200
  5  \w   -150.00 -94.00   0.20    0.20    --  -20.00  70.00 -24.23  280
  6  \w   -150.00 -94.00   0.20    0.20    --  -20.00  70.00 155.77  280
  7  \w    -96.00 -30.00   0.20    0.20    --   20.00 -70.00  24.23  330
  8  \w    -96.00 -30.00   0.20    0.20    --   20.00 -70.00-155.77  330
;
_diffrn_measurement_device       'abstract diffractometer'
_diffrn_measurement_device_type
'dectris-CrysAlisPro-abstract goniometer imported dectris images'
_diffrn_measurement_method       '\w scans'
_diffrn_orient_matrix_type
'CrysAlisPro convention (1999,Acta A55,543-557)'
_diffrn_orient_matrix_UB_11      0.0349418000
_diffrn_orient_matrix_UB_12      0.0069717000
_diffrn_orient_matrix_UB_13      -0.0068166000
_diffrn_orient_matrix_UB_21      -0.0125586000
_diffrn_orient_matrix_UB_22      -0.0011540000
_diffrn_orient_matrix_UB_23      -0.0191798000
_diffrn_orient_matrix_UB_31      -0.0070453000
_diffrn_orient_matrix_UB_32      0.0370312000
_diffrn_orient_matrix_UB_33      0.0006812000
_diffrn_radiation_monochromator  synchrotron
_diffrn_radiation_probe          x-ray
_diffrn_radiation_wavelength     0.6889
_diffrn_reflns_av_R_equivalents  0.5434
_diffrn_reflns_av_unetI/netI     0.4100
_diffrn_reflns_Laue_measured_fraction_full 0.744
_diffrn_reflns_Laue_measured_fraction_max 0.744
_diffrn_reflns_limit_h_max       12
_diffrn_reflns_limit_h_min       -12
_diffrn_reflns_limit_k_max       19
_diffrn_reflns_limit_k_min       -19
_diffrn_reflns_limit_l_max       33
_diffrn_reflns_limit_l_min       -33
_diffrn_reflns_number            22945
_diffrn_reflns_point_group_measured_fraction_full 0.744
_diffrn_reflns_point_group_measured_fraction_max 0.744
_diffrn_reflns_theta_full        22.722
_diffrn_reflns_theta_max         22.722
_diffrn_reflns_theta_min         1.530
_diffrn_source                   synchrotron
_exptl_absorpt_coefficient_mu    2.534
_exptl_absorpt_correction_T_max  1.00000
_exptl_absorpt_correction_T_min  0.01767
_exptl_absorpt_correction_type   multi-scan
_exptl_absorpt_process_details
;
CrysAlisPro 1.171.38.41 (Rigaku Oxford Diffraction, 2015)
Empirical absorption correction using spherical harmonics,
 implemented in SCALE3 ABSPACK scaling algorithm.
;
_exptl_crystal_density_diffrn    0.799
_exptl_crystal_F_000             2568
_refine_diff_density_max         1.991
_refine_diff_density_min         -1.044
_refine_diff_density_rms         0.279
_refine_ls_extinction_coef       0.0007(3)
_refine_ls_extinction_expression Fc^*^=kFc[1+0.001xFc^2^\l^3^/sin(2\q)]^-1/4^
_refine_ls_extinction_method     'SHELXL-2014/7 (Sheldrick 2014'
_refine_ls_goodness_of_fit_ref   1.339
_refine_ls_hydrogen_treatment    constr
_refine_ls_matrix_type           full
_refine_ls_number_parameters     77
_refine_ls_number_reflns         3168
_refine_ls_number_restraints     73
_refine_ls_restrained_S_all      3.678
_refine_ls_R_factor_all          0.4143
_refine_ls_R_factor_gt           0.2035
_refine_ls_shift/su_max          0.709
_refine_ls_shift/su_mean         0.058
_refine_ls_structure_factor_coef Fsqd
_refine_ls_weighting_details
'w=1/[\s^2^(Fo^2^)+(0.2000P)^2^] where P=(Fo^2^+2Fc^2^)/3'
_refine_ls_weighting_scheme      calc
_refine_ls_wR_factor_gt          0.4340
_refine_ls_wR_factor_ref         0.5424
_reflns_Friedel_coverage         0.000
_reflns_number_gt                896
_reflns_number_total             3168
_reflns_threshold_expression     'I > 2\s(I)'
_cod_data_source_file            HfMOF_All.cif
_cod_data_source_block           HfMOF_49.4kbar
_cod_original_cell_volume        11263(3)
_cod_database_code               4131847
_chemical_oxdiff_formula         'C88 H72 Hf6 O32'
_shelx_space_group_comment
;
The symmetry employed for this shelxl refinement is uniquely defined
by the following loop, which should always be used as a source of
symmetry information in preference to the above space-group names.
They are only intended as comments.
;
_reflns_odcompleteness_completeness 53.97
_reflns_odcompleteness_iscentric 1
_reflns_odcompleteness_theta     25.50
_olex2_refinement_description
;
1. Fixed Uiso
 At 1.2 times of:
  All C(H) groups
 At 1.5 times of:
  All C(H,H,H) groups
2. Restrained distances
 O13-C12
 1.41 with sigma of 0.01
 C12-O1
 1.41 with sigma of 0.01
 C6-C12 = C9-C3
 1.41 with sigma of 0.02
 C6-C12 = C9-C3
 1.41 with sigma of 0.01
 C9-C3 = C6-C12
 1.41 with sigma of 0.01
 Hf1-O13 = Hf2-O1
 2.11 with sigma of 0.02
 O1-C12 = O13-C12
 1.41 with sigma of 0.02
 C9-C15 = C9-C10
 1.41 with sigma of 0.02
 C10-C11 = C16-C17
 1.45 with sigma of 0.005
 C4-C5 = C7-C8
 1.39 with sigma of 0.01
 C6-C12 \\sim C9-C3
 with sigma of 0.01
 C9-C3 \\sim C6-C12
 with sigma of 0.01
 C11-C10 \\sim C16-C15 \\sim C17-C15
 with sigma of 0.01
 C9-C17 \\sim C15-C17 \\sim C9-C11 \\sim C11-C9D
 with sigma of 0.005
 C3-C7 \\sim C8-C6 \\sim C7-C5 \\sim C6-C4 \\sim C5-C3 \\sim C4-C8
 with sigma of 0.01
3. Restrained planarity
 C12, C6, C5, C4, C3, C9, C8, C7
 with sigma of 0.01
 C9, C3, C8, C7, C6, C12, C5, C4
 with sigma of 0.01
 C9, C3, C8, C4
 with sigma of 0.01
 C17, C15, C16, C10, C9, C11
 with sigma of 0.01
4. Rigid bond restraints
 C6, Hf2, Hf1, C8, C3, C5, C4, C7, C9, C10, C11, C12, C15, C16, C17, O1, O4,
 O13, O19, O20
 with sigma for 1-2 distances of 0.01 and sigma for 1-3 distances of 0.01
5. Uiso/Uaniso restraints and constraints
C6 \\sim Hf2 \\sim Hf1 \\sim C8 \\sim C3 \\sim C5 \\sim C4 \\sim C7 \\sim C9
\\sim C10 \\sim C11 \\sim C12 \\sim C15 \\sim C16 \\sim C17 \\sim O1 \\sim O4
\\sim O13 \\sim O19 \\sim O20: within 1.7A with sigma of 0.04 and sigma for
terminal atoms of 0.08
6. Others
 Fixed Sof: C16(0.5) C15(0.5) C15D(0.00001) C9D(0.00001) C10(0.5) C11(0.5)
 H11A(0.5) H11B(0.5) H11C(0.5)
 Fixed Uiso: C15D(0.05) C9D(0.05)
7.a Aromatic/amide H refined with riding coordinates:
 C4(H4), C5(H5), C7(H7), C8(H8)
7.b Fitted hexagon refined as free rotating group:
 C9(C16,C15,C15D,C9D,C10)
7.c Idealised Me refined as rotating group:
 C11(H11A,H11B,H11C), C17(H,HA,HB)
;
_shelx_res_file
;
    gkme_45.3._.res created by SHELXL-2014/7

TITL GKME_45 in P4/mnc
REM P4/mnc (#128 in standard setting)
CELL 0.6889 18.242677 18.242677 33.845088 90 90 90
ZERR 2 0.002199 0.002199 0.005508 0 0 0
LATT 1
SYMM -X,-Y,+Z
SYMM -Y,+X,+Z
SYMM +Y,-X,+Z
SYMM 0.5-X,0.5+Y,0.5-Z
SYMM 0.5+X,0.5-Y,0.5-Z
SYMM 0.5+Y,0.5+X,0.5-Z
SYMM 0.5-Y,0.5-X,0.5-Z
SFAC C H Hf O
DISP C 0.003 0.001 10.848
DISP H -0 0 0.623
DISP Hf -0.293 6.108 23452.874
DISP O 0.011 0.006 30.192
UNIT 176 136 12 64
DFIX 1.41 0.01 O13 C12
DFIX 1.41 0.01 C12 O1
DFIX 1.41 C6 C12 C9 C3
DFIX 1.41 0.01 C6 C12 C9 C3
DFIX 1.41 0.01 C9 C3 C6 C12
DFIX 2.11 Hf1 O13 Hf2 O1
DFIX 1.41 O1 C12 O13 C12
DFIX 1.41 C9 C15 C9 C10
DFIX 1.45 0.005 C10 C11 C16 C17
DFIX 1.39 0.01 C4 C5 C7 C8
SADI 0.01 C6 C12 C9 C3
SADI 0.01 C9 C3 C6 C12
SADI 0.01 C11 C10 C16 C15 C17 C15
SADI 0.005 C9 C17 C15 C17 C9 C11 C11 C9D
SADI 0.01 C3 C7 C8 C6 C7 C5 C6 C4 C5 C3 C4 C8
FLAT 0.01 C12 C6 C5 C4 C3 C9 C8 C7
FLAT 0.01 C9 C3 C8 C7 C6 C12 C5 C4
FLAT 0.01 C9 C3 C8 C4
FLAT 0.01 C17 C15 C16 C10 C9 C11
DELU C6 Hf2 Hf1 C8 C3 C5 C4 C7 C9 C10 C11 C12 C15 C16 C17 O1 O4 O13 O19 O20
SIMU 0.04 0.08 1.7 C6 Hf2 Hf1 C8 C3 C5 C4 C7 C9 C10 C11 C12 C15 C16 C17 O1 =
 O4 O13 O19 O20

L.S. 6
PLAN  9
MPLA 6 C3 C4 C5 C6 C7 C8
MPLA 4 C9 C10 C15 C16
CONN 1 0 C17
FREE C17 C15D
FREE C17 C15
BIND C16 C17
CONN 0 C9D
CONN 0 C15D
BIND Hf1 Hf2
BOND
MORE -1
BOND $H
CONF
fmap 2
acta 52
OMIT -4 52
OMIT 1 2 6
OMIT 1 3 7
OMIT 0 7 17
OMIT 0 2 10
OMIT 2 2 10
OMIT 1 2 2
OMIT 4 7 2
OMIT 1 3 3
OMIT 3 4 12
REM <olex2.extras>
REM <HklSrc "%.\\GKME_45.3._.hkl">
REM </olex2.extras>

WGHT    0.200000
EXTI    0.000749
FVAR       0.22322
HF1   3   -0.054359    0.125308    0.000000    10.50000    0.13713    0.13828 =
         0.04012    0.00000    0.00000    0.00831
HF2   3    0.000000    0.000000    0.071608    10.25000    0.13579    0.13579 =
         0.03150    0.00000    0.00000    0.00000
O1    4   -0.038730    0.091052    0.104494    11.00000    0.08026
O4    4   -0.087996    0.029711    0.034873    11.00000    0.07298
O13   4   -0.067340    0.175038    0.057730    11.00000    0.12869
O19   4   -0.175618    0.153163    0.000000    10.50000    0.18218
O20   4    0.004902    0.226629    0.000000    10.50000    0.11030
C3    1   -0.085465    0.311085    0.190568    11.00000    0.11625
C4    1   -0.109460    0.332607    0.151228    11.00000    0.18108
SPEC 0.3
AFIX  43
H4    2   -0.126320    0.379761    0.146082    11.00000   -1.20000
AFIX   0
C5    1   -0.106155    0.279832    0.121668    11.00000    0.21111
AFIX  43
H5    2   -0.121293    0.292955    0.096400    11.00000   -1.20000
AFIX   0
C6    1   -0.082010    0.209921    0.127546    11.00000    0.19313
C7    1   -0.058092    0.188394    0.166907    11.00000    0.18156
AFIX  43
H7    2   -0.041311    0.141227    0.172093    11.00000   -1.20000
AFIX   0
C8    1   -0.061385    0.241276    0.196406    11.00000    0.14093
AFIX  43
H8    2   -0.046217    0.228188    0.221673    11.00000   -1.20000
AFIX  66
C9    1   -0.086555    0.360554    0.222717    11.00000    0.11808
PART -2
C16   1   -0.030871    0.412528    0.221693    10.50000    0.06432
PART 0
C15   1   -0.016676    0.455414    0.254766    10.50000    0.03812
C15D  1   -0.058166    0.446328    0.288862    10.00001   10.05000
C9D   1   -0.113851    0.394354    0.289887    10.00001   10.05000
PART -1
C10   1   -0.128046    0.351467    0.256814    10.50000    0.10861
AFIX   0
C11   1   -0.185669    0.297730    0.257876    10.50000    0.10799
AFIX 137
H11A  2   -0.218132    0.308280    0.279464    10.50000   -1.50000
H11B  2   -0.164798    0.249859    0.261368    10.50000   -1.50000
H11C  2   -0.212553    0.299173    0.233504    10.50000   -1.50000
AFIX   0
PART 0
C12   1   -0.078534    0.156031    0.097672    11.00000    0.15531
PART -2
C17   1    0.013293    0.427121    0.190924    11.00000    0.26238
PART 0
AFIX 137
H     2    0.018986    0.383783    0.175131    11.00000   -1.50000
HA    2    0.060353    0.442608    0.200487    11.00000   -1.50000
HB    2   -0.007899    0.465403    0.175167    11.00000   -1.50000
AFIX   0
HKLF 4

REM  GKME_45 in P4/mnc
REM R1 =  0.2035 for     896 Fo > 4sig(Fo)  and  0.4143 for all    3168 data
REM     77 parameters refined using     73 restraints

END

WGHT      0.2000      0.0000

REM Highest difference peak  1.991,  deepest hole -1.044,  1-sigma level  0.279
Q1    1   0.0000  0.0000  0.1829  10.25000  0.05    1.99
Q2    1  -0.2042  0.0912  0.0880  11.00000  0.05    1.51
Q3    1   0.0000  0.0000  0.3230  10.25000  0.05    1.31
Q4    1  -0.0825  0.1357  0.0000  10.50000  0.05    1.27
Q5    1   0.0643  0.1291  0.2511  11.00000  0.05    1.25
Q6    1  -0.0563  0.0726  0.0000  10.50000  0.05    1.25
Q7    1   0.0018  0.0311  0.0751  11.00000  0.05    1.21
Q8    1  -0.0044  0.2710  0.3040  11.00000  0.05    1.17
Q9    1  -0.1306  0.0444  0.0283  11.00000  0.05    1.13
;
_shelx_res_checksum              6536
_shelx_hkl_file
;
   0   0   4 12833.8 1418.23   8
   0   0  -4 14347.8 1417.78   3
   0   0   4 14930.7 1414.47   4
   0   0  -4 14017.5 1414.48   7
   0   0   4 15633.6 1424.17   5
   0   0  -5-13.1471 28.7319   3
   0   0  -5 16.0900 22.4490   7
   0   0   5-53.3761 52.3135   5
   0   0   5-2.81044 31.6977   8
   0   0   5 28.5434 19.9003   4
   0   0   6 1731.06 190.754   5
   0   0   6 1707.03 173.052   4
   0   0  -6 1483.56 171.553   7
   0   0  -6 1632.16 179.112   3
   0   0   6 1664.27 180.438   8
   0   0   7-18.8800 47.5266   8
   0   0  -7 12.6373 35.5260   7
   0   0  -7-29.8349 45.1681   3
   0   0   8 6110.35 579.346   8
   0   0  -8 5188.40 576.354   3
   0   0  -8 5628.25 569.870   7
   0   0   9-27.7085 64.2524   8
   0   0  -9 46.0456 48.6721   7
   0   0  -9-43.2710 58.9944   3
   0   0 -10 19080.7 1921.15   7
   0   0  10 19644.5 1928.92   8
   0   0 -11 44.8406 62.3534   7
   0   0  11-16.0732 84.7911   8
   0   0  12 22514.1 2211.41   8
   0   0 -12 21856.7 2202.85   7
   0   0 -13 72.6394 86.5619   7
   0   0  13 6.01185 100.269   8
   0   0 -14 11209.1 1135.57   7
   0   0  15 59.2733 171.154   8
   0   0  16 14868.8 1503.66   8
   0   0  17 42.6495 132.511   8
   0   0 -17-124.887 126.473   7
   0   0  18 7003.71 738.715   8
   0   0 -18 6945.67 731.882   7
   0   0 -19 6.86304 131.764   7
   0   0  19-30.7379 144.768   8
   0   0  20 2597.93 350.797   8
   0   0 -20 3103.60 348.672   7
   0   0  21-40.9991 162.002   8
   0   1   2 15.7668 26.2575   5
   0  -1  -2-7.72471 12.6026   3
   0   1  -2-10.6057 30.5735   6
   0  -1   2 2.62323 11.1569   4
   0  -1  -3 16955.8 1679.41   3
   0   1  -3 16726.8 1680.21   7
   0   1   3 15822.2 1685.09   5
   0  -1   3 17509.6 1679.59   4
   0   1   3 17379.4 1680.34   8
   1   0   4-7.77188 15.0620   8
   0   1   4-14.7844 51.1670   5
  -1   0  -4-4.72238 18.6202   7
   0   1  -4 2.16915 22.0885   7
   1   0   4-6.44225 36.9029   5
  -1   0  -4 23.2051 38.0671   2
  -1   0  -4 16.8916 43.0834   6
   0   1  -4 19.9245 54.5988   6
   0  -1   4-14.0183 19.1033   4
   1   0   4 5.18705 34.4092   1
   0  -1  -4-29.9856 25.7695   3
   0   1   4 8.79156 23.9113   8
  -1   0  -5 2673.00 236.213   7
   0  -1   5 2145.99 236.987   4
  -1   0  -5 2531.51 233.343   3
   1   0   5 2037.33 231.969   8
   1   0   5 2003.32 242.138   5
   0   1  -5 2098.77 238.585   7
   0  -1  -5 2376.73 239.987   3
   0   1   5 2260.17 254.954   5
   1   0   5 2383.35 233.425   4
  -1   0  -5 2095.15 243.262   6
   0   1   5 2190.16 239.678   8
   0   1  -6-20.2889 34.5168   7
   0   1  -6-36.5559 78.4831   6
  -1   0  -6 25.9916 29.7933   7
  -1   0  -6 5.48837 26.9614   3
   1   0   6 12.2054 25.9851   8
   0  -1  -6-9.60843 38.0086   3
   1   0   6-10.7811 24.1102   4
   0  -1   6 46.1765 31.7862   4
  -1   0  -6 74.6692 66.9543   6
   1   0   6-19.8032 63.6203   5
   0   1   6-5.28234 83.5710   5
   0   1   6 12.4622 37.2293   8
   0   1  -7 946.815 156.761   6
   1   0   7 1019.76 119.102   4
   1   0   7 1114.51 148.498   5
   1   0   7 1163.55 120.564   8
   0   1   7 1102.35 131.196   8
  -1   0  -7 1134.48 121.738   3
  -1   0  -7 1094.63 148.244   6
   0   1   7 1140.18 166.509   5
   0  -1  -7 1210.41 133.422   3
   0   1  -7 1135.34 128.960   7
   0  -1  -7 955.362 116.350   7
  -1   0  -7 1037.71 120.617   7
   0  -1   7 1021.73 124.411   4
   1   0   8-14.5633 95.8780   5
   0   1   8 32.1253 54.0058   8
   1   0   8-42.5785 38.6053   8
  -1   0  -8-16.5681 42.1221   3
   0   1  -8-32.0403 102.559   6
  -1   0  -8 2.55243 38.3584   7
   0  -1  -8 13.1498 57.9857   3
   0   1  -8 25.3990 44.0866   7
   0  -1  -8-8.56686 33.0797   7
  -1   0  -8 86.5238 97.0568   6
   0  -1   8 17.2323 40.8937   4
   0   1   8 6.90488 112.392   5
   1   0   8-7.25613 33.9067   4
   0   1   9 5175.87 546.104   5
   0   1  -9 4920.06 511.888   7
   0  -1   9 4613.35 509.080   4
   1   0   9 5160.78 505.853   8
  -1   0  -9 4890.37 507.796   3
   0  -1  -9 4718.20 503.430   7
   0  -1  -9 5092.82 518.245   3
   1   0   9 5023.63 529.224   5
   1   0   9 5061.20 504.562   4
   0   1   9 5005.05 515.225   8
  -1   0  -9 5364.13 506.625   7
   0   1  -9 4580.47 533.541   6
  -1   0  -9 4686.75 527.083   6
   0  -1 -10-2.95141 51.3288   7
  -1   0 -10-27.6690 65.5392   3
  -1   0 -10-3.21857 55.8793   7
   0  -1 -10-17.1012 80.9165   3
   0  -1  10 5.64127 83.3147   8
   1   0  10-31.9561 49.2869   4
   0   1 -10-48.1717 62.1732   7
   1   0  10-26.0078 55.2385   8
   1   0  10 45.1432 135.430   5
  -1   0 -10 49.2713 129.624   6
   0   1  10-50.5174 153.063   5
   0  -1  10 4.24036 53.0638   4
   0   1  10-48.8860 70.7329   8
   1   0  11 9618.41 1013.85   4
   1   0  11 10452.6 1015.44   8
   1   0  11 9673.87 1041.40   5
  -1   0 -11 11018.0 1016.40   7
   0  -1  11 11634.4 1033.60   8
   0  -1  11 9404.15 1018.85   4
   0   1  11 10097.8 1025.00   8
  -1   0 -11 9911.60 1039.91   6
  -1   0 -11 9727.55 1019.97   3
   0  -1 -11 10596.0 1014.08   7
   0   1 -11 9702.15 1020.51   7
   0  -1 -11 10132.7 1031.04   3
   0   1  11 8289.70 1048.14   5
  -1   0 -12 120.960 168.653   6
   0  -1  12-61.8848 99.6221   8
  -1   0 -12-31.4157 67.1596   7
   0   1  12-153.574 178.570   5
   1   0  12 49.2074 62.9636   4
   0  -1 -12 14.1776 107.917   3
   0  -1 -12-18.7332 66.9064   7
  -1   0 -12-37.3247 89.4864   3
   1   0  12-55.3480 166.588   5
   1   0  12-43.9880 71.6274   8
   1   0  13 10850.8 1047.10   8
   1   0  13 10377.7 1046.65   4
  -1   0 -13 10895.6 1046.99   7
   0  -1  13 9191.52 1054.52   8
   0  -1 -13 10858.0 1046.16   7
  -1   0 -13 9778.95 1074.68   6
  -1   0 -13 10171.4 1056.47   3
   1   0  13 9725.47 1074.52   5
   0   1  14-45.4384 105.283   8
   0  -1 -14-35.8366 90.1398   7
  -1   0 -14-4.65097 87.1516   7
   1   0  14 35.8366 191.442   5
   0   1 -14 11.7084 102.750   7
  -1   0 -14 83.6334 127.638   3
  -1   0 -14-79.0368 194.559   6
   1   0  14-40.8301 82.6328   4
   0  -1  14-51.4875 111.696   8
   0   1 -15 12153.0 1247.61   7
   0   1  15 11952.5 1255.16   8
  -1   0 -15 16188.0 1304.51   6
   0  -1 -15 12564.4 1240.33   7
   1   0  15 11167.2 1240.24   4
   1   0  16 121.973 107.307   8
   0   1  16-85.6537 131.677   8
   0  -1 -16 10.2608 115.252   7
   0   1 -16 19.7888 119.396   7
   0  -1 -16 9.78620 158.423   3
   0   1 -17 6913.85 700.787   7
   1   0  17 6130.68 690.972   8
  -1   0 -17 7112.90 693.977   7
   0   1  17 6549.19 704.308   8
   0  -1  17 6516.76 699.152   8
  -1   0 -18 18.2335 121.536   7
   0   1 -18 138.518 140.890   7
   0   1  18-23.4224 139.171   8
   1   0  18-63.6177 127.680   8
   0  -1  18-78.1219 135.622   8
   0   1  19 1381.16 267.442   8
   0   1 -19 2077.91 274.116   7
  -1   0 -19 2350.27 265.017   7
   0  -1  19 2069.53 270.317   8
   1   0  19 1977.14 263.197   8
   0   1 -20 7.85371 153.432   7
   0   1  20 41.7269 158.796   8
   1   0  20 93.5838 149.892   8
   0   1 -21 670.274 188.125   7
   0   1  21 738.875 199.649   8
   0   1  22-106.887 171.101   8
   1  -1   0 27043.3 2597.90   1
   1  -1   0 25749.7 2595.28   7
  -1   1  -2 22702.9 2434.47   6
  -1  -1  -2 20657.4 2437.34   2
   1   1   2 28168.3 2431.05   8
   1   1   3-3.26586 44.9771   5
  -1   1  -3 9.40152 45.7508   6
  -1  -1  -3 3.24837 49.3419   2
   1   1   3 4.71644 15.1513   8
  -1   1  -3-9.83185 22.2533   7
   1  -1   4 2523.00 234.488   4
  -1   1  -4 1931.10 244.212   6
  -1  -1  -4 2187.33 244.448   2
  -1   1  -4 2227.55 234.675   7
   1   1   4 2204.25 244.856   5
   1   1   4 2223.11 232.573   8
   1  -1   5-26.3450 26.9512   4
   1   1   5 3.89373 63.8503   5
  -1   1  -5-19.8711 64.9326   6
   1   1   5 6.09101 22.9044   8
  -1   1  -5-7.17535 28.0941   7
   1   1   6 665.396 106.242   1
   1  -1   6 889.809 106.775   4
   1   1   6 935.315 97.1643   4
  -1   1  -6 1003.38 108.506   7
   1   1   6 914.935 105.298   8
   1   1   6 768.819 130.781   5
  -1  -1  -6 1060.95 100.478   7
  -1  -1  -6 800.475 112.365   6
  -1   1  -6 739.474 131.243   6
  -1  -1  -6 893.935 105.617   3
   1  -1   7 30.1884 63.9555   5
  -1   1  -7 10.7388 35.0339   3
   1   1   7 13.6331 35.6746   8
   1   1   7 10.1167 90.0316   5
  -1   1  -7-2.94645 39.4200   7
   1  -1   7 1.54140 27.2766   8
  -1   1  -7-5.35614 92.6455   6
  -1  -1  -7 41.8228 42.9835   3
   1  -1   7 5.55643 34.5396   4
  -1  -1  -7 21.1538 29.8532   7
  -1   1   7 35.0822 60.6411   8
  -1  -1  -7-34.9179 71.3557   6
   1   1   7-2.80737 23.6504   4
   1  -1   8 624.133 88.7578   4
  -1   1   8 817.673 125.207   8
   1   1   8 759.575 90.5497   8
  -1   1  -8 783.050 93.5202   7
  -1  -1  -8 572.417 116.321   6
  -1  -1  -8 531.307 90.8497   3
  -1   1  -8 670.009 143.402   6
  -1   1  -8 649.999 88.3035   3
   1  -1   8 711.437 81.6808   8
   1   1   8 540.370 76.6998   4
   1  -1   8 632.378 108.540   5
   1   1   8 611.491 139.979   5
  -1  -1  -8 684.076 80.9662   7
  -1   1  -9 6.67259 136.812   6
  -1   1   9-14.2279 86.4361   8
  -1  -1  -9 20.9277 102.632   6
  -1  -1  -9-21.9466 58.0934   3
   1  -1   9 11.6332 42.8549   8
  -1   1  -9 3.45500 54.0158   3
   1  -1   9 7.77526 81.3620   5
   1   1   9 2.16801 35.2907   4
  -1  -1  -9-6.47897 40.1219   7
   1   1   9-116.697 128.047   5
   1  -1   9 10.4588 46.2489   4
   1   1   9 38.1699 51.8083   8
  -1   1  -9 14.4792 53.4489   7
  -1   1  10 2559.37 293.162   8
   1  -1  10 2325.89 256.647   8
  -1  -1 -10 2279.60 267.578   3
   1   1  10 2353.95 254.625   4
  -1   1 -10 2611.86 266.653   7
   1   1  10 2152.81 308.911   5
   1   1  10 2544.76 265.360   8
   1  -1  10 2193.36 262.202   4
  -1   1 -10 2431.87 267.166   3
  -1   1 -10 2576.55 311.257   6
  -1  -1 -10 2278.74 284.875   6
  -1  -1 -10 2666.70 256.364   7
   1   1  11 41.8402 53.4440   4
   1  -1  11-8.59528 62.1661   4
  -1   1 -11 4.38622 71.6610   7
  -1  -1 -11 8.36763 56.9922   7
  -1   1 -11-40.3199 171.753   6
   1   1  11-64.6752 173.298   5
   1  -1  11 9.42487 57.0282   8
  -1  -1 -11-97.5499 129.940   6
  -1  -1 -11 4.71608 76.4833   3
  -1   1 -11-9.66297 78.3547   3
   1   1  11 20.8359 70.5323   8
   1   1  12 7034.15 824.118   8
  -1   1 -12 8100.00 861.949   6
  -1  -1 -12 8795.75 818.937   7
  -1  -1 -12 7801.43 829.464   3
  -1  -1 -12 7683.77 837.064   6
   1  -1  12 8083.93 819.841   8
   1  -1  12 7713.42 825.243   4
   1   1  12 9448.19 824.177   4
   1   1  12 7533.76 862.070   5
  -1   1  13-105.347 139.697   8
  -1  -1 -13-3.48031 71.7745   7
   1   1  13 42.1886 77.4212   4
   1  -1  13-19.3887 72.4471   8
   1   1  14 8250.91 757.440   4
   1  -1  14 6998.20 745.395   8
   1   1  14 6727.55 751.736   8
  -1  -1 -14 7469.58 744.093   7
  -1   1  14 7287.89 782.114   8
  -1  -1 -15 29.3071 119.867   7
  -1  -1 -15 431.877 184.070   3
   1  -1  15-173.474 128.796   4
   1  -1  15-88.5945 119.868   8
  -1   1 -15 441.810 154.350   7
   1   1  15 34.3032 149.060   8
  -1   1  15 157.715 213.656   8
   1   1  16 4587.26 513.486   8
  -1   1  16 4805.06 542.859   8
   1   1  16 5413.25 590.910   5
  -1   1 -16 5265.43 518.658   7
   1  -1  16 4580.56 515.103   4
  -1  -1 -16 4484.99 526.460   3
  -1  -1 -16 4958.33 505.862   7
  -1   1 -16 4232.48 580.415   6
   1   1  17-6.49087 118.008   8
  -1  -1 -17-53.6863 150.414   3
  -1   1  17 9.61781 162.514   8
  -1   1 -17 19.6573 116.814   7
   1   1  17-86.8651 268.546   5
   1  -1  17 109.991 115.767   4
  -1   1  18 2171.56 338.060   8
  -1  -1 -18 2942.38 344.947   3
   1   1  18 2459.65 306.305   8
   1  -1  18 2488.27 299.998   8
  -1   1 -18 2595.59 312.830   7
   1   1  18 2427.90 410.903   5
   1   1  19-287.850 302.298   5
  -1  -1 -19-21.2421 185.796   3
   1   1  19-35.9309 145.448   8
  -1   1  19 79.3787 175.230   8
  -1   1 -19 86.8988 141.406   7
   1   1  20 357.458 155.355   8
  -1   1 -20 416.255 156.079   7
  -1  -1 -20 275.280 200.792   3
  -1   1  20 407.431 192.276   8
   1   1  21-225.277 167.692   8
  -1  -1 -21-207.683 215.074   3
  -1   1 -21 31.5303 157.518   7
   0   2   0 16384.6 1573.99   5
   0   2   0 16492.8 1567.18   8
   0  -2   0 16452.6 1567.59   4
   0   2   0 16545.4 1568.08   7
   0   2   0 13133.1 1573.22   6
   0  -2   0 14270.3 1573.91   2
   0  -2   1-42.1191 46.3755   2
   0   2  -1-1.74800 17.6273   7
   0   2   1-31.7188 37.5015   5
   0   2  -1 26.4286 44.4292   6
   0  -2   1 6.61144 16.5070   4
   0   2   1 1.52619 16.6009   8
   0   2  -1 8.84309 14.6221   8
   0   2  -2 6806.89 674.728   7
   0  -2  -2 7190.70 673.922   3
   0   2   2 6228.01 673.011   8
   0   2  -2 7043.37 686.368   6
   0   2   2 6477.09 681.418   5
   0  -2   2 6780.85 673.696   4
   0   2   3 3.94287 53.9014   5
   0  -2   3-16.4468 23.7416   4
   0   2  -3-68.9663 65.7403   6
   0  -2  -3-11.1848 25.5545   3
   0  -2   4 1871.32 207.694   4
  -2   0  -4 1900.37 204.359   7
   0   2  -4 2027.19 230.628   6
   2   0   4 1626.13 210.214   1
   0  -2  -4 2255.89 209.700   3
   0   2  -4 2026.79 209.747   7
   0   2   4 2058.99 225.724   5
   0   2   5-24.5977 33.7199   8
  -2   0  -5 30.9183 66.6293   2
   2   0   5 6.14007 19.9680   8
   0   2  -5-5.93056 88.1554   6
   0  -2  -5-3.03534 36.0176   3
   0  -2   5-6.11024 31.2504   4
  -2   0  -5-15.0428 66.5193   6
  -2   0  -5-7.42123 30.8454   7
   0   2  -5 12.8756 35.1574   7
   2   0   5-43.2042 46.2808   1
   0   2   5-15.7943 75.9748   5
   0   2  -6 1268.15 145.164   7
   2   0   6 1241.16 154.977   5
   0   2  -6 1432.01 181.235   6
   0   2   6 1094.32 143.399   8
  -2   0  -6 1304.79 139.648   7
   2   0   6 1149.92 148.985   1
   0  -2  -6 1392.48 145.468   3
   0  -2   6 1016.25 139.375   4
  -2   0  -6 1273.86 162.915   6
   0   2   6 1163.25 173.710   5
   2   0   6 1297.95 134.318   8
  -2   0  -6 1190.54 160.440   2
   0   2   7 27.2872 47.8345   8
   0  -2   7-18.6974 43.9082   4
   0   2  -7-21.7318 107.439   6
   2   0   7-38.1191 69.4046   1
   2   0   7-17.1330 31.1261   8
   0   2  -7-3.94218 46.1235   7
   2   0   7 51.6437 83.3264   5
  -2   0  -7 12.2872 89.8285   2
   0   2   7 20.2544 108.262   5
   0  -2  -7-15.9295 53.4154   3
  -2   0  -7-12.1034 45.8674   7
  -2   0  -7 49.2335 91.8770   6
  -2   0  -8 29.6250 93.7360   2
   2   0   8 83.8841 94.9109   5
   0   2   8 75.2611 122.106   5
   0   2  -8-25.7954 57.9355   7
   0  -2   8 77.7268 54.2418   4
  -2   0  -8 65.9579 53.0094   7
   0   2  -8-7.86287 123.472   6
   2   0   8-10.5728 88.1636   1
   0   2   8-4.34005 58.9538   8
  -2   0  -8 67.5399 103.917   6
   2   0   8 34.6368 35.4141   8
   0  -2  -8 67.8257 62.3808   3
  -2   0  -9-5.31210 46.0192   3
   0   2  -9 50.8125 139.114   6
   0  -2   9 8.83693 52.7924   4
   2   0   9-52.5870 96.6757   1
   0   2   9 61.7997 66.8084   8
   2   0   9-2.53733 40.6136   8
  -2   0  -9-67.7142 119.016   6
  -2   0  -9-10.4665 56.8963   7
   2   0   9 20.0477 110.257   5
   2   0   9-29.7441 47.0601   4
  -2   0  -9-77.9858 112.304   2
   0   2  -9-13.9667 62.4450   7
   0  -2  -9 15.2989 68.9557   3
   0   2   9-49.9566 147.729   5
  -2   0 -10 5717.88 531.225   7
   0   2 -10 5113.97 573.599   6
   0  -2 -10 4662.11 538.249   3
   2   0  10 5121.56 549.288   5
   2   0  10 4413.74 544.835   1
   2   0  10 5118.55 525.202   4
  -2   0 -10 4774.35 523.690   3
   2   0  10 5796.53 524.351   8
   0  -2 -10 5393.03 519.323   7
  -2   0 -10 4937.44 542.148   2
  -2   0 -10 4836.71 549.699   6
   0  -2  10 4725.52 531.343   4
   0  -2 -11 28.4167 55.5064   7
   2   0  11-38.3242 59.4255   8
  -2   0 -11 3.93794 68.4552   7
   2   0  11-24.9749 57.3315   4
  -2   0 -11-10.4437 64.7736   3
   2   0  11-178.340 159.450   5
  -2   0 -11 51.8970 158.814   6
   0   2 -12 3280.97 336.384   7
   2   0  12 3345.92 318.022   8
   0   2  12 2926.46 336.468   8
   2   0  12 3104.25 364.970   5
  -2   0 -12 3069.83 323.243   7
   2   0  12 2840.76 318.087   4
  -2   0 -12 3040.91 372.234   6
  -2   0 -12 2630.16 320.237   3
   0  -2 -12 2823.24 313.432   7
   0  -2 -13-66.6101 75.0397   7
   0   2 -13-18.2449 96.6020   7
   2   0  13 11.6523 70.7297   8
   0   2  13-264.772 229.921   5
  -2   0 -13-58.3475 83.7493   7
  -2   0 -13-103.263 195.730   6
   2   0  13 251.561 188.812   5
   0  -2 -13-91.7290 124.893   3
   0   2  13 146.821 107.684   8
   0  -2  13-110.072 87.6396   4
  -2   0 -13 40.4821 83.4583   3
   2   0  13 12.9441 70.7663   4
   2   0  14 3202.62 404.282   5
   0  -2 -14 3291.15 339.156   7
  -2   0 -14 2963.54 406.814   6
   2   0  14 3368.06 343.032   8
   0  -2 -14 2785.09 369.445   3
   0   2 -14 2953.81 355.477   7
  -2   0 -14 2970.30 347.372   3
   0   2  14 3367.25 362.236   8
   2   0  14 3216.83 344.070   4
   0   2  14 3210.81 442.432   5
   0   2  15-257.595 163.895   8
   0   2 -15-259.504 138.227   7
   0  -2 -15-195.320 107.371   7
   0  -2 -15-547.559 199.946   3
   0  -2 -16 1939.72 207.480   7
   0   2  16 1234.55 227.638   8
   0   2 -16 1678.81 226.627   7
   0  -2 -16 1553.20 258.747   3
   0   2  16 1401.39 345.134   5
   0   2  17 78.2638 137.997   8
  -2   0 -17-98.6236 120.188   7
   2   0  17 80.3384 113.333   4
   0   2 -17 7.51012 130.110   7
   2   0  17-16.4088 110.703   8
   0  -2 -17-95.0465 166.092   3
   0   2  17 27.6314 282.941   5
   0   2 -18 599.317 166.746   7
   2   0  18 179.050 263.375   5
  -2   0 -18 368.017 168.693   3
   0   2  18 367.818 158.848   8
   0  -2 -18 394.117 195.524   3
  -2   0 -18 332.994 141.291   7
   2   0  18 578.972 139.619   8
  -2   0 -18 674.182 293.971   6
   0   2  18 593.913 315.175   5
   2   0  18 333.939 136.603   4
   0   2 -19-81.9407 146.297   7
   0   2  19-25.5412 150.127   8
  -2   0 -19 19.6346 135.293   7
   2   0  19-95.7040 138.082   8
   0  -2 -19 201.291 194.862   3
  -2   0 -19-95.7055 287.326   6
   2   0  19 80.6239 268.780   5
   0   2 -20 25.3660 160.161   7
   0   2  20-53.0652 171.809   8
   0  -2 -20 37.0479 193.066   3
   0   2  21-18.1622 174.860   8
   0   2 -21 104.601 169.171   7
   0   2 -22 125.328 174.354   7
   0   2  22-103.400 174.627   8
   0   2  23-19.4333 187.545   8
   0   2 -23-27.6522 178.377   7
   0   2  24 219.351 201.990   8
  -1   2   0 608.466 73.1452   8
  -1   2   0 682.611 75.8682   7
   1  -2   0 615.128 73.7126   3
  -1   2   0 644.680 87.6526   5
  -1   2   0 695.728 87.8290   6
   1  -2   0 542.053 82.2783   1
  -1   2  -1 7102.09 744.476   6
   1   2   1 6929.68 736.176   8
   1  -2  -1 8132.49 739.262   3
  -1   2   1 7556.29 738.712   8
  -1   2   1 6630.05 734.496   7
  -1   2  -1 7751.02 738.270   7
   1  -2  -1 7625.77 739.861   1
  -1   2   1 7929.94 748.153   5
   1  -2   1 7326.31 745.409   1
   1   2   2 36.8793 60.2132   5
  -1   2   2 70.3595 33.0825   8
   1  -2  -2 14.2969 30.0963   3
   2  -1   2 27.3455 33.1014   1
  -1   2   2 68.6914 60.1580   5
  -1   2  -2-27.0744 57.2014   6
  -2   1  -3 2980.53 302.973   7
   1   2   3 2938.27 317.827   5
  -1   2   3 3102.53 322.732   5
  -1   2  -3 2269.21 313.007   6
   2  -1   3 2806.10 309.068   1
  -1   2   3 2770.39 307.245   8
   1  -2  -3 3364.95 308.757   3
   1  -2   3 2964.72 300.900   4
  -1   2  -4 75.2355 74.1871   6
  -1   2   4 177.435 81.6031   5
   2  -1   4 71.0215 55.6551   1
   2   1   4 72.3124 26.0828   8
   1  -2   4 88.4381 32.7590   4
  -2   1  -4 44.1007 34.7751   7
   1   2   4 33.1250 28.3967   8
  -1  -2  -4 105.282 77.1073   2
   1   2   4 4.79748 70.1248   5
  -1   2  -4 30.7433 31.2082   7
  -2  -1  -4 50.9303 78.8819   2
  -2   1  -4 61.7112 71.5929   6
   1  -2  -4 75.1107 45.4610   3
  -2   1  -5 236.594 52.1767   7
  -1  -2  -5 235.414 93.8251   2
   2   1   5 253.118 44.0078   8
   1  -2   5 227.488 49.3982   4
  -1   2  -5 307.742 97.0505   6
   2   1   5 200.959 87.5803   5
   2  -1   5 253.379 74.1931   1
   1  -2  -5 300.560 66.2980   3
   1   2   5 236.276 45.8215   8
  -1   2   5 197.693 61.5367   8
   1   2   5 264.777 86.0743   5
  -1   2   5 267.074 99.6831   5
  -2  -1  -5 254.976 104.483   2
  -1   2  -5 249.874 51.8640   7
  -2   1  -5 301.593 93.9115   6
   2  -1   6 161.659 60.2677   5
   1  -2  -6 154.512 63.9910   3
  -1  -2  -6 159.146 49.0776   3
  -1   2  -6 89.1658 103.223   6
  -1   2  -6 119.874 51.0776   7
   1  -2   6 206.406 47.6207   4
   2   1   6 169.354 93.0088   5
  -2   1  -6 120.544 48.0550   7
   2   1   6 197.561 41.4141   8
  -2  -1  -6 160.258 103.261   2
  -2   1  -6 135.845 101.447   6
   1   2   6 135.680 95.0620   5
  -1   2   6 143.673 63.9689   8
   1   2   6 168.166 45.8610   8
  -1   2   6 258.178 113.756   5
  -2   1  -6 172.211 59.0943   2
   2  -1   6 144.460 77.2068   1
  -2   1  -7 1078.78 149.668   2
  -1  -2  -7 1208.45 140.932   3
   1  -2  -7 1367.90 160.266   3
  -2  -1  -7 1340.17 157.622   6
   2   1   7 1246.37 135.514   8
  -1   2  -7 1183.23 141.736   7
  -2   1  -7 1272.30 178.501   6
  -2  -1  -7 1175.55 171.309   2
   2   1   7 1006.83 170.626   5
   1   2   7 1023.56 176.501   5
   2   1   7 1208.28 142.100   1
   2  -1   7 948.320 159.640   1
  -1   2   7 1307.33 159.500   8
   1  -2   7 1049.61 139.852   4
   2  -1   7 1080.77 143.472   5
   2  -1   7 1254.79 127.490   8
  -2   1  -7 1309.32 143.101   7
  -1   2   7 1067.63 192.542   5
  -1   2  -7 1431.54 189.214   6
   1   2   7 1218.80 139.949   8
  -2  -1  -7 1046.70 130.919   7
   1  -2   8-1.70145 33.8997   8
   2  -1   8 20.3868 49.4916   4
  -1   2  -8-27.9272 57.5731   7
  -1   2  -8-50.8625 130.512   6
   2   1   8-15.2854 66.6338   1
  -1  -2  -8 59.9658 56.6881   3
   2  -1   8-26.1527 94.1285   1
  -2   1  -8-54.4696 77.3334   2
   1   2   8 95.8200 124.418   5
  -1   2   8-48.8493 70.6686   8
   1  -2   8 34.4934 49.9886   4
   2  -1   8 91.4213 82.0565   5
  -1   2   8 125.405 135.194   5
   2   1   8-17.3122 112.828   5
   1   2   8 7.28635 48.0611   8
   2  -1   8-1.66809 30.1447   8
  -2  -1  -8-44.6202 96.2257   6
   2   1   8-32.1926 40.7195   8
  -2   1  -8 5.04995 34.9540   3
  -2  -1  -8-17.7224 40.9061   7
  -2  -1  -8-50.0576 121.612   2
  -2   1  -8 124.695 123.991   6
   1  -2  -8 38.2976 78.8279   3
  -2   1  -8 37.8618 53.9926   7
  -1   2  -9 70.2044 69.5491   7
  -2   1  -9 22.7390 41.8605   3
   1   2   9-37.5326 143.795   5
  -2  -1  -9 72.5375 56.0649   3
   2  -1   9 30.5253 96.5057   5
  -1  -2  -9 37.5604 62.1840   3
   1   2   9 80.6848 57.4134   8
  -2  -1  -9 88.4951 54.1711   7
   2   1   9 53.1232 41.7718   4
   2   1   9 12.4798 131.821   5
   2  -1   9 47.5883 52.7525   4
   1  -2  -9 139.830 97.1232   3
   2   1   9 57.1707 79.2281   1
  -1   2   9-47.5847 148.848   5
  -1  -2  -9 25.5935 66.8048   6
   1   2   9 40.6298 38.9285   4
  -2   1  -9-12.6928 131.548   6
  -1   2  -9-55.0681 152.884   6
  -1  -2  -9 34.7478 34.7226   7
   1  -2   9 28.9688 43.5662   8
   2   1   9 82.5781 50.2346   8
  -2  -1  -9 81.2502 104.296   6
  -2   1  -9-43.2310 90.9869   2
   2  -1   9 22.7324 36.7660   8
  -2   1  -9 36.0319 59.7970   7
   1  -2   9 42.2722 56.8599   4
  -2  -1  -9 17.6765 127.846   2
   2  -1  10 27.7927 62.6072   4
   2   1  10 61.4310 46.9946   4
   2   1  10-17.3552 59.0901   8
   1  -2  10 9.25182 61.9162   4
   1   2  10-23.3537 64.2597   4
  -2  -1 -10-6.31613 141.192   2
  -2  -1 -10 72.7002 62.2937   3
  -1  -2 -10-4.62155 70.2362   3
  -2   1 -10 2.52145 49.9756   3
   2  -1  10 61.6022 45.8931   8
  -2   1 -10 13.9745 155.272   6
   1   2  10 90.9670 164.774   5
  -2  -1 -10-27.4311 121.487   6
   2  -1  10-9.13474 118.304   5
  -1  -2 -10 3.57316 41.6397   7
  -2   1 -10-25.4944 70.2121   7
  -1   2 -10-119.058 175.793   6
  -2   1 -10 97.6560 103.679   2
  -2  -1 -10 28.5013 61.5603   7
   2   1  10 60.0589 94.7006   1
   1  -2  10 60.7051 51.7666   8
   2   1  10-103.072 151.789   5
  -2   1 -11 1518.29 267.997   6
  -2  -1 -11 1990.55 264.750   2
   2  -1  11 2021.69 199.303   8
  -1  -2 -11 1693.01 195.501   7
   2   1  11 1673.89 199.618   4
  -2   1 -11 1908.94 203.411   3
   2   1  11 1920.59 232.584   1
   1  -2  11 1760.79 201.130   8
  -1   2  11 1864.83 242.225   8
  -2  -1 -11 1980.79 208.850   7
   2  -1  11 2105.60 243.737   5
   2   1  11 1615.99 205.289   8
  -2  -1 -11 1695.17 245.454   6
   2  -1  11 1844.42 210.554   4
  -2  -1 -11 1705.25 208.843   3
  -2   1 -11 2099.09 216.981   7
   2   1  11 1709.72 269.473   5
   2   1  12-15.8133 55.8551   4
  -2  -1 -12 17.9283 79.8960   3
  -1   2  12 88.3722 201.992   5
  -2  -1 -12-292.949 166.799   6
   2  -1  12-84.4977 154.357   5
  -1   2 -12-27.5647 87.3881   7
   2  -1  12 4.66277 72.7528   4
  -1   2  12 39.7916 115.382   8
   2   1  12-12.4504 70.9583   8
   2   1  12 8.22784 182.640   5
   1   2  12-10.2018 84.0957   8
   1  -2  12 31.4503 66.1885   8
  -1  -2 -12 19.1377 53.8370   7
   1  -2 -12-52.8878 119.821   3
   2  -1  12-20.1850 57.8752   8
   2   1  12 61.2487 123.966   1
  -2  -1 -12 70.0929 72.2220   7
  -2   1 -12-3.71451 70.8402   3
   2   1  13 2453.03 320.784   1
   2  -1  13 2734.53 334.675   5
  -2  -1 -13 2308.39 295.462   3
  -1   2  13 2960.78 333.007   8
   1  -2 -13 2409.58 333.315   3
  -1   2 -13 2772.10 305.766   7
   1  -2  13 2715.83 305.213   4
  -2  -1 -13 2780.49 292.584   7
   2   1  13 2801.63 364.387   5
   1   2  13 2613.58 378.609   5
   2  -1  13 2653.14 286.793   8
   1   2  13 2800.53 302.725   8
   1  -2  13 2659.62 288.172   8
   2   1  13 2640.09 286.625   4
  -1  -2 -13 2578.53 282.182   7
  -2   1 -13 2880.57 297.396   3
  -2  -1 -13 2941.78 345.396   6
  -1   2 -13 2405.43 375.958   6
  -1  -2 -14-20.5087 117.088   3
   1  -2 -14-186.644 161.665   3
   2   1  14 4.03356 82.2363   4
   2  -1  14-232.157 188.982   5
   1   2  14-204.726 256.944   5
   2  -1  14-83.7915 83.4905   8
  -2   1 -14-10.8935 103.747   3
   1  -2  14 18.8310 103.496   4
  -1   2 -14-444.344 264.444   6
   1   2  14 58.8590 103.631   8
  -1   2 -14 175.909 112.342   7
  -1   2  14-52.7344 146.461   8
   1  -2  14 46.2728 81.4347   8
  -2  -1 -14-38.1319 88.4875   7
  -2   1 -14 92.2262 105.538   7
  -1  -2 -14 27.4950 72.5151   7
  -1   2  15 1586.88 225.519   8
   2  -1  15 1586.61 171.687   8
  -1   2 -15 482.971 310.539   6
  -1  -2 -15 1430.18 161.977   7
   1   2  15 1193.42 184.290   8
  -1   2 -15 1526.17 198.784   7
  -2   1 -15 1098.14 202.524   3
   2   1  15 1048.19 174.958   8
  -2  -1 -15 1255.67 177.821   7
  -1  -2 -15 1236.76 200.762   3
  -2   1 -15 427.414 307.844   6
  -2   1 -15 1215.22 185.516   7
   1  -2  15 1421.15 186.120   4
   1  -2  15 1369.61 170.352   8
   2   1  15 1240.42 168.314   4
   2  -1  15 206.865 255.699   5
   2  -1  15 1313.17 182.741   4
  -2  -1 -15-695.555 295.116   6
   1   2  15 501.193 329.700   5
  -2  -1 -16-46.6225 120.345   3
   2  -1  16 217.234 99.0931   8
   2   1  16 134.734 267.603   5
  -2   1 -16 63.4712 147.405   3
   1   2  16 26.4629 114.798   8
  -1  -2 -16 131.742 91.1806   7
   2  -1  16 55.8365 188.639   5
   1  -2  16 84.3940 113.337   4
   2  -1  16 309.707 123.401   4
   1  -2  16 179.064 104.138   8
   1   2  16 12.9848 285.294   5
  -1   2  16 225.697 158.203   8
  -1  -2 -16 32.4991 139.833   3
  -1   2 -16 101.881 274.381   6
  -2   1 -16 195.346 125.383   7
  -2  -1 -16 165.861 230.108   6
  -1   2 -16 211.251 131.302   7
   2   1  16 50.1943 109.069   8
  -2  -1 -16-4.88164 104.918   7
  -2   1 -16 55.9546 263.956   6
   2   1  16 86.7176 99.3523   4
   2  -1  17 625.685 142.124   4
   1   2  17 489.262 149.009   8
  -2   1 -17 478.041 146.251   7
  -2  -1 -17 447.327 152.762   3
  -1   2 -17 415.045 154.732   7
  -1   2 -17 550.519 307.623   6
   1  -2  17 575.874 124.469   8
   1  -2  17 615.076 140.911   4
   2   1  17 381.264 131.654   8
  -2   1 -17 622.042 191.196   3
  -2   1 -17 861.624 304.611   6
  -2  -1 -17 416.288 244.299   6
   2   1  17 707.262 128.285   4
  -1  -2 -17 343.622 179.503   3
   1   2  17 534.919 308.439   5
  -1   2  17 436.944 182.779   8
   2   1  17 179.389 286.434   5
  -1   2  18 207.555 178.609   8
   2  -1  18-133.605 124.562   4
  -2   1 -18 50.9761 296.862   6
  -1  -2 -18 115.200 170.076   3
  -2   1 -18 81.8479 138.880   7
   2   1  18-108.113 128.882   8
   2   1  18 430.609 307.003   5
  -1   2 -18-14.0381 306.634   6
   1   2  18 7.36761 134.733   8
   1   2  18 86.1721 318.493   5
   1  -2  18-39.0005 122.445   4
  -2  -1 -18-151.913 138.980   3
  -1   2 -18-53.8252 146.257   7
   1   2  19 15.2837 139.780   8
  -1   2 -19 120.465 153.609   7
  -2  -1 -19-253.193 164.967   3
   2  -1  19 125.280 135.477   4
   2   1  19 13.2871 309.249   5
  -2   1 -19 50.3302 138.631   7
   1   2  19 119.517 322.642   5
  -1   2  19-141.704 174.245   8
   2   1  19 55.3030 135.377   8
  -1  -2 -19-31.0937 187.885   3
  -2   1 -19 536.916 332.617   6
   1  -2  19 129.757 138.470   4
  -1   2  20 165.299 188.115   8
  -1   2 -20-66.8623 157.922   7
   2   1  20-123.243 147.645   8
   1   2  20-247.388 345.610   5
  -2   1 -20-168.490 333.792   6
   2   1  20 194.360 322.821   5
  -1  -2 -20-22.2965 192.227   3
   2  -1  20 16.5252 151.128   4
  -2  -1 -20 182.271 177.999   3
   1   2  20 184.763 151.376   8
  -2   1 -20 83.1851 154.734   7
   1   2  21 438.766 185.602   8
   1   2  21 1131.90 388.808   5
  -2   1 -21 508.088 179.618   7
  -1  -2 -21 620.754 241.015   3
   2   1  21 658.478 187.169   8
  -1   2  21 499.613 217.554   8
  -1   2 -21 537.559 191.232   7
  -2   1 -21 612.441 370.043   6
  -1   2 -22 178.938 173.777   7
   1   2  22 17.7202 168.948   8
  -1  -2 -22 126.215 211.399   3
  -1   2  22 158.536 195.326   8
   1   2  22 254.897 369.953   5
  -1   2  23-200.974 196.311   8
   1   2  23 74.4160 180.093   8
  -1   2  24-171.316 197.083   8
   2  -2   1 4.15999 45.0586   1
  -2   2  -1-3.01759 30.7191   7
  -2   2  -2 992.176 137.743   6
  -2   2  -3 71.1525 79.1897   6
  -2  -2  -3-31.0343 83.7489   2
   2  -2   4 134.458 77.0793   1
   2   2   4 112.686 39.0015   8
  -2   2  -4 93.5786 87.1577   6
  -2   2  -4 155.793 52.3489   7
  -2  -2  -4 173.693 111.070   2
  -2   2  -5-15.1301 44.8889   7
   2  -2   5-31.4997 83.8095   1
   2   2   5 21.9420 36.6825   8
  -2   2  -5-53.2724 101.036   6
   2   2   5-84.6727 108.534   5
  -2  -2  -5-61.2193 116.884   2
  -2   2  -6 5587.81 638.762   6
  -2  -2  -6 5955.67 644.073   2
   2  -2   6 5596.95 638.529   1
   2   2   6 6241.45 642.494   5
   2   2   6 6501.17 620.256   8
  -2   2  -6 6179.80 623.551   7
   2   2   7-20.2511 118.664   5
   2  -2   7 22.9252 49.4394   4
  -2   2  -7 4.13280 56.2103   7
   2   2   7 37.0039 44.9129   8
  -2  -2  -7 39.9333 123.656   2
  -2   2  -7-40.2959 121.919   6
   2   2   8 2185.86 232.514   8
  -2  -2  -8 2081.84 236.811   6
   2   2   8 2126.31 273.668   5
  -2   2  -8 2202.95 239.060   7
  -2  -2  -8 2146.42 278.228   2
   2  -2   8 2123.56 234.981   4
  -2   2  -8 1828.21 273.523   6
   2   2   9 15.0668 145.203   5
   2  -2   9-1.19922 26.4098   8
  -2   2  -9 48.3605 59.9687   2
  -2  -2  -9-7.24349 160.630   2
   2   2   9 19.0738 55.5646   8
  -2   2  -9-36.7844 38.5729   3
  -2  -2  -9 11.7543 93.2051   6
   2   2   9-16.9328 85.5765   1
  -2   2  -9 4.59515 67.2389   7
  -2   2  -9 37.9920 155.250   6
   2  -2   9 49.9755 59.3426   5
   2  -2   9 21.8380 60.9214   4
   2  -2  10 2150.95 215.575   8
  -2  -2 -10 2365.16 237.415   3
  -2  -2 -10 1867.60 243.500   6
   2  -2  10 2080.85 236.006   4
   2   2  10 1981.42 289.629   5
  -2  -2 -10 2159.26 221.504   7
   2   2  10 2103.26 217.915   4
  -2   2 -10 2376.75 226.885   3
  -2   2 -10 1849.84 290.064   6
  -2   2 -10 1764.27 227.605   2
   2  -2  10 1335.82 224.078   5
   2   2  10 2454.27 236.698   1
   2   2  11 4.24812 45.8726   4
   2  -2  11-21.9690 42.5335   8
  -2  -2 -11 95.1517 127.860   6
  -2  -2 -11 20.8502 58.1424   7
  -2   2 -11-3.75545 73.4273   3
   2   2  11 71.7816 87.6409   1
   2  -2  12 1417.41 150.312   8
   2   2  12 1180.93 149.076   4
  -2   2 -12 1232.56 176.482   7
  -2  -2 -12 1237.34 208.649   6
  -2  -2 -12 1500.18 160.350   7
   2   2  12 1365.13 170.860   8
   2   2  12 1236.54 180.295   1
  -2  -2 -13-19.9680 76.9668   7
   2   2  13-40.8257 87.9832   8
  -2  -2 -13 5.48620 94.1176   3
  -2   2 -13 5.77581 102.005   7
   2  -2  13-64.7909 63.7104   8
  -2  -2 -13 48.3668 159.503   6
   2   2  13 72.2324 121.050   1
  -2   2 -13-71.6603 229.488   6
   2  -2  13 5.80418 93.6047   4
   2   2  13 23.2416 56.8092   4
  -2   2 -14-996.776 365.023   6
   2   2  14-222.485 119.520   4
  -2   2 -14-128.375 150.265   7
  -2  -2 -14-83.5488 190.570   3
   2  -2  14 470.693 144.737   4
   2  -2  14 433.527 101.171   8
   2   2  14-308.458 161.946   8
   2   2  15 244.021 280.966   5
  -2   2 -15 310.090 275.599   6
   2   2  15-249.670 156.595   1
  -2  -2 -15-25.9638 116.768   3
  -2  -2 -15-245.600 188.171   6
   2  -2  15-13.7624 80.1485   8
   2   2  15-40.1417 104.092   8
   2  -2  15-74.2895 116.433   4
  -2   2 -15 141.926 116.228   7
  -2  -2 -15-4.05296 95.9309   7
   2   2  15 54.4738 86.3180   4
   2  -2  16 104.680 94.9262   8
   2  -2  16 282.498 129.102   4
  -2  -2 -16 205.657 193.920   6
  -2   2 -16 195.662 295.618   6
   2   2  16 222.776 122.334   8
  -2  -2 -16 21.1600 130.135   3
  -2   2 -16 258.646 130.078   7
  -2  -2 -16 122.295 104.322   7
   2   2  16 49.5075 283.243   5
  -2  -2 -17 161.002 142.831   3
   2   2  17-52.5106 299.390   5
   2  -2  17-46.2319 135.220   4
   2   2  17-45.8255 116.694   8
  -2   2 -17-103.958 297.747   6
  -2   2 -17-28.6654 131.232   7
  -2  -2 -18 83.3280 147.208   3
   2   2  18 249.824 331.114   5
  -2   2 -18 346.429 154.404   7
   2   2  18 103.842 131.251   8
   2  -2  18 188.792 142.049   4
  -2   2 -18-481.189 327.998   6
   2  -2  19-129.984 152.071   4
  -2   2 -19 101.817 335.747   6
  -2  -2 -19 45.1576 154.674   3
   2   2  19 117.156 135.641   8
   2   2  19 14.5973 333.219   5
  -2   2 -19-47.3785 145.651   7
   2   2  20 1788.99 403.272   5
   2   2  20 1053.30 205.874   8
   2  -2  20 1264.41 220.479   4
  -2  -2 -20 1113.93 247.855   3
  -2   2 -20 1197.50 220.679   7
  -2   2 -20 1387.51 401.383   6
  -2   2 -21-17.2613 176.696   7
   2   2  21-143.879 384.113   5
  -2  -2 -21-156.002 202.346   3
  -2   2 -21 31.8207 380.011   6
   2  -2  21-235.940 172.935   4
   2   2  21-65.5614 161.232   8
   2   2  22 1418.23 420.979   5
  -2   2 -22 1123.15 224.557   7
  -2   2 -22 776.604 402.987   6
   2   2  22 885.812 220.270   8
   2  -2  22 1056.93 219.482   4
   0   3   0-2.10512 25.9147   7
   0  -3   0-24.3645 25.4739   4
   0   3   0-26.2768 58.9211   5
   0   3   0 48.1409 63.4671   6
   0   3   0 18.8398 23.0425   8
   0  -3   0 8.31920 71.1185   2
   0   3  -1 1142.19 139.199   7
   0   3  -1 1279.97 154.500   5
   0  -3  -1 1171.00 162.927   2
   0   3  -1 1372.63 164.008   6
   0  -3   1 1332.93 163.753   2
   0   3   1 1250.80 135.721   7
   0   3   1 1231.11 156.783   5
   0   3  -1 1494.94 137.124   8
   0   3   1 1317.51 152.374   6
   0  -3  -1 1238.56 135.189   4
   0  -3   1 1251.75 139.347   4
   0   3   1 1203.64 137.553   8
   0   3   2-14.0253 23.8900   7
   0  -3  -2 16.9114 20.9236   4
   0  -3   2 10.9339 29.2504   4
   0   3  -2-73.3682 79.6087   6
   0   3   2 29.9929 52.2165   6
   0   3   2-36.3104 69.6762   5
   0   3  -2-5.60016 32.1827   7
   0  -3   2-3.78284 66.2859   2
   0   3  -2 29.5400 24.8786   8
   0   3   2 37.3191 30.3438   8
   0   3   3 98.8734 37.3454   8
   0   3   3 83.7409 26.8822   7
   0   3   3 76.2716 49.5937   6
   0   3  -3 50.4349 38.9346   7
   0   3  -3 170.143 93.2134   6
   0   3   3 126.815 78.3895   5
   0  -3  -3 84.1816 38.6178   3
   0  -3   3 89.7436 39.0012   4
   0  -3  -3 138.586 24.0101   4
   0  -3  -3 118.924 26.2005   7
   0  -3   4 6.86989 40.9057   4
   0   3   4-16.9835 83.0294   5
   0  -3  -4 9.66088 40.5354   3
   0   3  -4 45.6772 95.7023   6
   0   3   5 639.474 128.915   5
   0  -3   5 589.939 87.6070   4
   0   3  -5 501.781 133.640   6
   0  -3  -5 643.922 90.4708   3
   0  -3  -6-35.9715 51.3753   3
   0   3   6 62.2367 113.593   5
   0   3  -6 31.3123 119.158   6
   0  -3   6 4.15212 48.0535   4
   0   3   6 27.9296 48.3178   8
   0   3  -6-8.45911 50.8769   7
   0   3   7 4741.00 633.186   5
   0  -3  -7 5877.42 614.806   3
   0   3  -7 6572.81 617.854   7
   0   3  -7 5955.64 647.591   6
  -3   0  -7 6373.43 628.579   6
  -3   0  -7 6133.30 610.776   7
   0  -3   7 5402.46 613.507   4
   3   0   7 6363.64 623.108   1
   0   3   7 6191.57 615.289   8
  -3   0  -8-7.84875 58.4714   7
   3   0   8-5.15443 114.080   5
   0   3   8-50.3664 148.943   5
  -3   0  -8-54.0490 129.010   6
   0  -3  -8-44.1357 67.3705   3
   3   0   8-28.2264 86.2995   1
  -3   0  -8 54.0777 126.593   2
   0  -3   8 33.8000 60.5881   4
   0   3  -8-63.9816 152.575   6
   3   0   9 2440.25 297.016   1
   3   0   9 2535.39 271.011   8
   3   0   9 2378.18 299.936   5
  -3   0  -9 2583.88 279.429   7
  -3   0  -9 2716.45 319.399   6
  -3   0  -9 2872.78 320.307   2
  -3   0 -10-233.512 159.183   2
   0   3 -10 101.053 82.7115   7
   0   3  10 11.2212 84.8646   8
   3   0  10-74.3182 118.378   1
   3   0  10 3.28155 60.0971   8
  -3   0 -10 4.49162 76.1537   7
   3   0  10-28.8440 138.199   5
  -3   0 -10 112.423 163.995   6
   3   0  11 150.394 155.958   5
   3   0  11 35.0032 63.9860   8
  -3   0 -11-9.56459 83.9187   7
   0   3 -11 44.0325 202.516   6
  -3   0 -11-38.6926 158.965   2
   0  -3 -11-13.0942 99.5564   3
   3   0  11 184.322 130.898   1
   0   3 -11 83.3332 89.5720   7
  -3   0 -11 172.242 167.624   6
   0   3  11-21.4341 205.802   5
   0  -3 -11 55.0986 42.5410   7
   0   3  11 54.0240 92.0652   8
   0  -3  11 23.2434 78.2858   4
   0   3  12 38.3735 103.084   8
   3   0  12 165.274 171.131   5
  -3   0 -12 559.426 180.846   2
   0  -3 -12-2.13963 51.3885   7
   3   0  12 170.041 80.8349   8
   0   3 -12 1281.64 265.551   6
  -3   0 -12 521.805 118.783   7
   0  -3  12 573.770 113.311   4
   0   3  12-161.111 236.333   5
   3   0  12 423.442 155.797   1
   0   3 -12 708.948 127.484   7
   3   0  12 71.5318 76.6982   4
  -3   0 -12 507.706 219.288   6
  -3   0 -12 39.7608 69.9616   3
   0  -3 -12 57.3461 110.521   3
   3   0  13 694.612 106.669   8
   0  -3  13 547.475 119.541   4
  -3   0 -13 542.121 212.885   6
   0  -3 -13 601.897 89.6335   7
   0   3 -13 526.790 129.373   7
   0   3  13 761.926 261.684   5
   3   0  13 524.289 107.172   4
   0   3  13 604.040 136.452   8
   0   3 -13 477.475 249.253   6
   0  -3 -13 775.440 156.942   3
  -3   0 -13 481.746 107.704   3
   3   0  13 232.567 197.025   5
  -3   0 -13 601.631 198.633   2
   0  -3  14 759.232 157.787   4
   0  -3 -14 726.467 220.097   3
   0   3 -14 518.522 170.055   7
   0  -3 -14 663.338 130.953   7
   0   3  14 781.967 185.627   8
  -3   0 -15 122.022 100.904   3
   0   3  15-486.232 318.762   5
   0   3 -15 345.138 125.937   7
   0  -3  15 294.330 109.562   4
   0   3  15 52.8955 140.126   8
   0  -3 -15-191.335 167.620   3
   0  -3 -15-6.15512 92.0192   7
   3   0  15 301.037 229.005   5
   0   3  16 102.113 295.961   5
  -3   0 -16 12.5732 128.475   7
   0   3  16 23.7910 140.949   8
   3   0  16-10.3826 200.402   1
   0   3 -16-7.67667 132.805   7
   0  -3 -16 108.620 161.047   3
  -3   0 -17 205.302 134.255   7
   0   3 -17 72.5302 145.537   7
  -3   0 -17-61.3105 251.348   2
   0   3  17 124.472 143.644   8
   3   0  17 242.343 124.813   4
   3   0  17 15.6797 109.355   8
   0   3  17 594.160 331.554   5
  -3   0 -17-149.549 283.587   6
   3   0  17 87.4925 218.924   1
   0  -3 -17-63.6114 172.224   3
  -3   0 -18-89.7581 136.507   7
   3   0  18-67.3351 117.072   8
   0   3 -18 142.483 152.709   7
   3   0  18 98.6106 281.951   5
   3   0  18 34.5024 236.162   1
  -3   0 -18-328.913 298.882   6
   0   3  18-77.9156 153.012   8
   3   0  18-128.116 125.949   4
   0  -3 -18-102.110 199.829   3
   0   3  18-222.013 329.709   5
   0  -3 -19 1239.27 264.818   3
   0   3  19 1218.55 389.857   5
  -3   0 -19 1588.58 227.918   7
   0   3  19 1206.69 230.924   8
  -3   0 -19 884.837 353.633   6
   0   3 -19 1547.31 241.165   7
   0   3 -20 35.8415 157.584   7
   0   3  20 283.088 357.754   5
   0  -3 -20 89.1019 210.293   3
   0   3  20-278.407 171.012   8
   0   3  21 1229.77 239.713   8
   0   3  21 1283.38 415.988   5
   0  -3 -21 1083.18 286.655   3
   0   3 -21 1644.19 248.887   7
   0   3  22-178.693 189.444   8
   0   3 -22-142.323 178.133   7
   0  -3 -22 249.386 234.590   3
   0  -3 -23 555.010 249.580   3
   0   3 -23 762.455 214.208   7
   0   3  23 430.142 208.037   8
   0   3  24 467.254 221.493   8
   0   3 -24-139.602 194.848   7
   0   3  25 235.099 211.272   8
   1  -3   0 838.897 132.568   1
   1   3   0 1205.60 118.514   8
  -1   3   0 829.096 137.740   6
  -1  -3   0 1107.76 152.906   2
  -1   3   0 950.844 117.712   7
   1  -3   0 1083.58 116.010   3
  -1   3   0 824.449 128.474   5
  -1   3   0 1021.81 115.311   8
  -1   3  -1 1114.09 131.237   7
  -1   3   1 1076.13 128.850   7
   1  -3   1 1229.71 125.253   3
  -1   3   1 1225.21 130.627   8
   1  -3  -1 1142.90 128.983   3
   1  -3  -1 1156.92 142.970   1
  -1   3  -1 1045.47 153.614   6
  -1   3  -1 1086.75 123.187   8
  -1   3   1 1019.19 145.371   5
  -1  -3  -1 1340.71 173.537   2
   1   3   1 1254.11 130.810   8
  -1   3   1 1099.92 145.040   6
  -1   3  -1 1032.66 137.160   5
   1  -3  -2 170.809 48.1798   3
   1   3   2 272.659 92.4629   5
   1  -3  -2 148.829 54.2264   1
  -1   3  -2 182.444 31.6321   8
  -1   3  -2 167.652 54.3473   5
  -1   3   2 184.416 41.2578   7
   1  -3   2 188.559 43.5626   4
  -1   3  -2 147.312 44.9207   7
  -1   3  -2 244.295 86.7493   6
  -1  -3  -2 222.575 98.4855   2
  -1   3   2 210.197 47.0805   8
  -1   3   2 155.662 77.1513   5
  -1   3   2 256.874 72.4014   6
   1  -3   2 243.633 35.1998   3
   1   3   2 166.345 41.9499   8
  -1   3  -3 93.1491 44.0753   7
   1  -3   3 27.1395 35.6311   4
  -1   3   3 63.6841 43.1739   8
  -1   3  -3 19.5910 19.0044   8
  -1   3  -3 37.9960 89.4151   6
  -1   3   3 22.9081 80.1830   5
   1  -3  -3 91.6917 44.0138   3
   1  -3  -3 54.9663 39.2081   1
   1  -3   3 48.4214 22.6671   8
   1   3   3-82.1983 89.6502   5
  -1   3  -3 58.0478 45.5721   5
   1  -3   3 35.0493 22.9311   3
   3  -1   4 654.129 104.955   1
   1  -3  -4 709.708 97.8914   3
   1  -3   4 628.812 88.5969   4
  -1   3   4 715.662 133.453   5
   1   3   4 636.183 127.800   5
  -1   3   4 736.204 97.6463   8
  -1   3  -4 730.577 132.874   6
  -1   3   5 790.641 155.256   5
   1  -3  -5 1037.93 121.530   3
  -3   1  -5 883.337 110.748   7
   1   3   5 856.062 149.536   5
   1   3   5 713.095 104.627   8
   3  -1   5 911.203 126.511   1
  -1   3  -5 940.468 158.217   6
  -1  -3  -5 742.781 153.165   2
   1  -3   5 855.732 109.659   4
  -1   3  -6 2721.19 298.500   7
   1  -3   6 3302.00 300.667   4
  -3   1  -6 2936.77 328.174   6
  -3   1  -6 2763.02 301.475   7
   1   3   6 2699.11 295.712   8
  -1   3  -6 2661.14 333.863   6
   1  -3  -6 2753.03 306.416   3
   3  -1   6 2554.61 310.754   1
  -1  -3  -6 2368.25 327.027   2
  -1   3   6 2794.37 337.339   5
   1   3   6 2753.31 325.758   5
   1   3   7 1085.46 186.164   5
  -3  -1  -7 831.135 186.735   2
  -1   3  -7 892.002 190.701   6
   1   3   7 967.947 133.779   8
  -3   1  -7 1125.57 137.566   7
   1  -3  -7 1170.27 149.547   3
  -3   1  -7 1125.25 183.369   6
  -1   3   7 1053.52 145.539   8
   3   1   7 1028.59 124.797   8
  -1  -3  -7 1259.44 137.299   3
   1  -3   7 1053.34 136.269   4
  -1   3  -7 1049.44 137.994   7
  -1   3   7 830.342 191.239   5
   3  -1   7 939.070 160.130   1
  -1   3  -8 3646.76 487.970   6
  -1  -3  -8 4425.73 455.373   3
  -1   3   8 4174.38 497.819   5
   1   3   8 3808.24 485.102   5
  -3   1  -8 4886.03 458.595   7
   3  -1   8 4110.98 456.176   5
   3   1   8 4330.09 448.241   8
  -3  -1  -8 4219.48 490.810   2
  -3   1  -8 4131.96 483.556   6
   3  -1   8 4179.54 473.618   1
   3   1   8 4037.58 476.948   5
  -3  -1  -8 4218.41 467.066   6
   1  -3   8 4948.58 457.433   4
  -3   1  -9 175.985 81.0178   7
   3   1   9 345.424 147.358   5
  -3  -1  -9 197.303 174.632   2
  -3   1  -9 349.280 167.118   6
   3  -1   9 267.209 111.571   5
   3  -1   9 216.397 120.627   1
  -3  -1  -9 355.730 140.566   6
   3   1   9 338.484 102.252   1
  -1   3   9 290.194 104.177   8
   3   1   9 332.091 76.3146   8
   3   1  10 1076.07 159.958   1
  -3  -1 -10 1203.66 215.473   2
  -3  -1 -10 724.345 184.757   6
   3  -1  10 1072.66 167.894   5
  -1   3  10 1026.95 241.442   5
   1  -3 -10 1103.08 171.099   3
   3   1  10 868.919 204.749   5
   1   3  10 877.665 140.228   8
  -3   1 -10 1138.52 192.780   2
   3  -1  10 990.092 118.645   8
   3   1  10 1247.20 137.606   8
  -1   3  10 983.285 163.342   8
   3  -1  10 996.878 186.438   1
  -3   1 -10 849.255 207.322   6
  -3  -1 -10 911.069 132.294   7
  -3   1 -10 1147.99 151.565   7
  -1   3 -10 1096.26 151.326   7
  -1   3 -11 110.765 93.8596   7
   1  -3 -11 140.289 122.546   3
  -1   3  11 436.692 225.151   5
   3   1  11 184.254 110.541   1
  -3  -1 -11 205.577 80.0228   7
  -1   3 -11 72.2146 201.938   6
   1   3  11 342.081 213.149   5
  -3   1 -11 198.713 64.0312   3
  -3   1 -11 88.1186 179.374   6
   3  -1  11 185.158 79.8670   4
  -3  -1 -11 121.771 180.347   2
  -3  -1 -11 139.143 157.955   6
  -3   1 -11 184.822 154.750   2
   3  -1  11 220.905 63.1363   8
   3  -1  11 99.5317 137.034   5
   1  -3  11 146.123 69.2720   8
  -1  -3 -11 218.591 98.3421   3
   1  -3  11 262.140 93.0811   4
  -1   3  11 96.1087 110.301   8
   3   1  11 123.624 74.4969   8
   1   3  11 155.266 92.7308   8
   3   1  11 136.323 170.830   5
  -3   1 -12-138.477 157.121   2
   3   1  12 7.02954 65.1127   4
  -3  -1 -12 21.8471 84.4428   7
  -1  -3 -12-6.73552 40.6522   7
  -1   3  12 411.607 241.674   5
  -1   3 -12 31.0616 98.2827   7
  -3  -1 -12 4.26460 76.6027   3
  -1   3 -12-275.262 227.063   6
  -1  -3 -12 6.08712 97.2379   3
   1   3  12 10.7501 216.798   5
   1  -3 -12 80.4808 143.665   3
  -3   1 -12-35.7149 66.7212   3
   3  -1  12-15.1551 62.0774   8
   1   3  12 28.4076 93.1613   8
  -1   3  12 188.479 132.236   8
   1  -3  12 9.48296 68.8346   8
   3   1  12 25.6315 124.965   1
   3  -1  12-182.956 152.609   5
   1  -3  12 99.6214 97.9256   4
   3   1  12-81.1269 191.513   5
  -3  -1 -12 97.7031 164.359   6
  -1   3  13 116.223 127.961   8
   3   1  13 3.80687 66.0688   4
  -1   3 -13 211.108 114.669   7
  -3  -1 -13 123.679 185.096   6
  -1  -3 -13-24.1945 50.9938   7
  -3   1 -13-6.74616 73.8356   3
   1  -3  13 6.66797 100.860   4
   1   3  13-6.01438 101.277   8
  -1  -3 -13 26.4267 109.509   3
  -3   1 -13 52.9477 103.574   7
  -1   3 -13 269.554 242.523   6
  -3  -1 -13-93.8581 93.7335   7
   3  -1  13 55.6907 172.080   5
   1  -3  13-13.4549 76.2872   8
   1  -3 -13-153.617 148.293   3
   3  -1  13-168.958 196.298   1
  -1   3  13-131.392 243.746   5
  -3   1 -13 62.4494 160.944   2
   3   1  13-6.97317 138.073   1
   1   3  13 208.788 243.838   5
   3  -1  13 68.4291 68.8101   8
   3  -1  14 15232.1 588.828   8
   1   3  14 8939.90 729.087   5
  -1   3  14 6651.51 692.934   5
  -3  -1 -15 893.090 149.829   7
  -3  -1 -15 688.014 252.007   2
   1  -3  15 743.780 123.289   8
  -3   1 -15 483.147 203.966   2
   3  -1  15 419.844 235.328   1
   3   1  15 803.733 124.102   4
  -1  -3 -15 778.936 166.535   3
  -3   1 -15 696.970 128.956   3
  -1   3  15 848.959 305.365   5
   3  -1  15 1031.65 151.060   4
   1  -3 -15 501.468 192.556   3
  -3   1 -15 931.730 287.454   6
   1   3  15 538.355 302.354   5
   3   1  15 644.752 191.071   1
   1   3  15 529.809 150.914   8
  -1   3 -15 328.880 293.241   6
  -1   3  15 750.209 183.256   8
   1  -3  15 669.575 149.185   4
  -3  -1 -15 614.854 239.401   6
   3   1  15 597.753 127.118   8
  -3   1 -15 617.211 150.037   7
   3  -1  15 696.150 118.322   8
  -1   3 -15 758.927 166.136   7
   3  -1  15 424.490 223.479   5
  -3  -1 -16-19.1056 259.536   2
   1  -3 -16-195.987 186.959   3
  -3   1 -16-66.5549 106.905   3
  -3   1 -16 206.195 211.441   2
   3  -1  16 230.055 217.382   5
  -3   1 -16 55.6471 286.960   6
   3   1  16 82.7461 106.885   8
   1   3  16 128.568 125.743   8
   1  -3  16-46.9526 124.764   4
   3   1  16 400.581 271.659   5
  -1  -3 -16-126.731 145.893   3
  -1   3  16-305.531 297.613   5
  -3   1 -16-106.009 121.682   7
   3   1  16 44.3710 90.4126   4
  -1   3 -16-13.8277 291.642   6
  -1   3 -16 170.462 132.696   7
   3  -1  16-173.983 113.440   4
  -3  -1 -16 256.424 245.113   6
   3  -1  16 81.1034 225.949   1
   1   3  16 305.999 310.277   5
   3  -1  16-8.23784 90.5191   8
  -1   3  16 9.44271 156.510   8
  -3  -1 -16-53.5769 112.608   3
   3   1  17 652.076 310.794   5
  -1   3 -17 934.085 176.675   7
   1   3  17 1349.56 358.353   5
   3  -1  17 427.121 262.565   1
   1   3  17 464.933 167.373   8
  -1  -3 -17 1069.24 199.979   3
  -3   1 -17 1027.67 172.365   7
  -3   1 -17 399.237 311.084   6
   3   1  17 719.939 155.803   8
  -3  -1 -17 939.877 304.730   2
   3  -1  17 964.252 164.168   4
  -1   3  17 853.222 201.969   8
  -1   3 -17 651.560 339.753   6
   1  -3  17 749.648 166.159   4
   1  -3 -17 565.768 212.143   3
   1   3  18 883.125 362.726   5
   3   1  18 766.456 325.464   5
  -1  -3 -18 596.600 189.076   3
  -1   3 -18 948.962 183.359   7
  -1   3  18 547.814 200.225   8
  -3  -1 -18 1003.76 313.838   2
   3   1  18 665.963 152.494   8
  -3   1 -18 1034.31 175.656   7
  -1   3 -18 986.688 355.036   6
  -3   1 -18 558.507 331.045   6
   3  -1  18 562.379 264.422   1
   3  -1  18 761.617 167.770   4
   1  -3 -18 673.712 227.249   3
   1   3  18 699.585 178.088   8
   1  -3  18 755.878 164.982   4
  -3  -1 -18 464.012 161.843   3
   1   3  19 243.065 362.014   5
   3   1  19-274.244 334.313   5
  -1   3 -19 323.570 173.623   7
   3  -1  19 243.425 149.885   4
   1   3  19 148.063 152.345   8
   3  -1  19 414.924 285.447   1
  -1   3  19 282.194 197.062   8
  -3   1 -19 275.123 163.433   7
  -1  -3 -19-83.8069 187.196   3
   3   1  19 152.539 137.398   8
  -3  -1 -19 168.265 151.773   3
   1  -3  19 397.988 154.727   4
  -3  -1 -19 338.318 318.936   2
  -1   3 -19-300.307 345.089   6
  -3   1 -19 13.1350 328.122   6
   1  -3  20 1555.83 263.135   4
   3  -1  20 1526.66 372.737   1
   3  -1  20 2179.51 279.621   4
   1   3  20 2084.50 275.076   8
  -3   1 -20 1227.78 403.101   6
  -3   1 -20 2069.61 277.834   7
  -1   3 -20 1897.65 287.888   7
   1   3  20 1868.14 446.821   5
   3   1  20 2044.34 262.946   8
  -1   3  20 1653.48 290.063   8
  -1  -3 -20 1933.09 308.602   3
   1  -3  21-9.35051 157.431   4
  -1   3  21 32.5313 198.778   8
  -1   3 -21 9.39369 175.481   7
  -1  -3 -21 108.423 210.932   3
   1   3  21 417.316 395.912   5
   1   3  21 256.612 172.132   8
   1   3  22 1865.46 265.662   8
   1   3  22 1342.95 448.612   5
  -1   3  22 1360.39 276.001   8
  -1  -3 -22 1461.26 305.784   3
  -1   3 -22 1007.43 249.864   7
  -1   3 -23 198.801 202.380   7
  -1  -3 -23 40.7386 249.756   3
   1   3  23-72.5569 415.236   5
   1   3  23-125.259 180.008   8
  -1   3  23-33.4765 211.659   8
  -1   3  24 532.234 222.803   8
   1   3  24 550.087 418.376   5
   1   3  24 40.2035 204.157   8
  -1  -3 -24 383.503 263.312   3
  -1   3 -24-20.3673 207.312   7
  -1   3  25 68.8002 234.384   8
  -1   3  26 160.747 227.609   8
  -2   3   0 180.983 49.0863   8
   2  -3   0 118.661 51.8610   3
   2  -3   0 164.223 66.0164   1
  -2   3   0 178.237 104.294   5
  -2   3   0 140.136 81.7500   6
  -2   3   0 137.213 49.6878   7
   2  -3   1 251.085 53.4918   3
   2  -3  -1 203.355 59.9357   1
   2  -3  -1 92.2388 57.9897   3
  -2   3   1 388.317 111.532   5
   2  -3   1 106.382 73.8582   1
  -2   3   1 200.519 48.7267   7
  -2   3  -1 173.994 49.6400   7
  -2   3  -1 114.167 45.2155   8
  -2   3   1 205.037 55.0914   8
  -2   3  -1 192.501 89.0924   6
  -2   3   2 1273.11 182.299   8
   2  -3  -2 1631.85 188.481   3
  -2   3  -2 1670.24 179.896   7
  -2   3  -2 1669.21 205.403   6
  -2   3  -2 1643.46 171.312   8
   2  -3   2 1198.35 193.641   1
   2  -3  -3 443.691 87.8541   3
  -2   3   3 662.441 136.430   5
  -2   3  -3 424.626 57.6321   8
  -2   3  -3 466.387 117.485   6
  -3   2  -3 311.931 71.5607   7
  -2   3   3 381.225 81.7373   8
   3  -2   3 538.829 94.8527   1
   2   3   4 58.4899 43.9781   8
   2   3   4 62.6354 116.751   5
  -2   3  -4 153.397 114.716   6
  -3   2  -4 52.6271 50.0867   7
  -2   3   4 179.985 118.148   5
   2  -3  -4-24.5605 69.9426   3
  -3   2  -4 49.6961 102.541   6
   3  -2   4 18.7470 74.8367   1
  -2   3   4 33.4401 61.3341   8
  -2  -3  -4 168.455 139.452   2
  -2   3  -5 1420.67 220.068   6
  -2  -3  -5 1673.03 233.024   2
  -2   3   5 1694.20 193.932   8
  -3   2  -5 1583.49 183.775   7
  -2   3   5 1787.11 235.011   5
   2  -3  -5 1613.41 198.507   3
   3  -2   5 1328.82 199.542   1
  -3   2  -5 1495.82 214.284   6
   2   3   5 1443.16 222.422   5
   2  -3   5 1552.88 209.637   1
  -2   3  -5 1635.37 182.500   7
   2   3   5 1463.22 176.685   8
  -3  -2  -6 1092.74 198.574   2
   2  -3  -6 1251.22 163.598   3
  -2   3   6 1444.84 211.531   5
   2   3   6 1218.52 133.537   8
   2   3   6 1063.29 187.327   5
  -3   2  -6 1295.28 198.299   6
  -2   3  -6 783.859 185.687   6
  -2  -3  -6 1382.99 208.578   2
  -2   3  -6 929.145 138.149   7
   3  -2   6 1033.02 170.076   1
   3   2   6 982.105 129.801   8
  -3   2  -6 1022.39 141.531   7
   2  -3   6 1070.64 135.575   4
  -2   3  -7 7274.60 874.049   6
  -2   3   7 8466.51 895.309   5
   3  -2   7 7802.69 874.416   1
  -3   2  -7 8845.63 859.157   7
   2   3   7 8829.39 851.562   8
  -3   2  -7 8496.38 879.865   6
   3   2   7 7705.45 878.879   5
  -2  -3  -7 8633.19 882.319   2
   2  -3   7 8392.24 854.082   4
   3   2   7 8502.41 850.458   8
  -3  -2  -7 8976.44 891.608   2
   2  -3  -7 8095.06 871.403   3
   2   3   7 8672.54 882.926   5
   2   3   8-93.2616 158.721   5
   3   2   8 130.911 64.1521   8
  -3  -2  -8 328.223 197.906   2
   3  -2   8 279.808 73.9646   5
  -3   2  -8 244.857 176.779   6
   3   2   8 177.371 158.024   5
  -2   3   9 1745.14 256.182   8
   3  -2   9 1809.44 224.462   5
   3   2   9 2168.37 288.126   5
   2  -3  -9 2206.84 266.235   3
  -2   3  -9 2269.99 239.432   7
   2  -3 -10 1153.35 188.918   3
   2  -3  10 847.158 150.563   4
   2   3  10 955.193 144.679   8
  -3  -2 -10 1450.56 185.995   6
  -2   3 -10 1200.31 154.727   7
  -2  -3 -10 1306.46 243.379   2
  -3   2 -10 1107.20 119.583   3
  -2   3  10 1077.68 183.091   8
   3  -2  10 1076.91 147.945   5
   3   2  10 1352.30 228.527   5
  -2   3 -10 1031.68 236.477   6
  -2  -3 -10 928.219 135.035   6
  -2  -3 -11 262.874 97.2082   3
   2   3  11 232.068 45.0382   4
  -2   3  11 191.206 131.050   8
  -3   2 -11 325.220 59.0276   3
   2   3  11 457.050 94.7217   8
  -2  -3 -11 576.326 221.289   2
  -2  -3 -11 274.852 97.9585   6
  -3   2 -11 389.645 147.520   2
  -2   3 -11 575.074 118.095   7
  -3  -2 -11 313.371 147.139   6
   2  -3  11 324.232 101.111   4
   3  -2  11 294.800 176.325   1
  -2   3 -11 101.879 214.331   6
   2   3  11 747.543 223.237   5
   3  -2  11 438.943 117.546   5
  -3   2 -11 285.566 103.978   7
  -2  -3 -12 247.839 232.277   2
  -2   3 -12 257.129 111.534   7
  -2   3  12 193.079 146.276   8
   3  -2  12 259.946 56.7108   8
  -2  -3 -12 303.297 104.442   6
   2  -3  12 246.732 46.7410   8
  -3   2 -12 463.237 230.315   6
   2  -3  12 135.542 96.9539   4
  -3  -2 -12 548.722 235.541   2
   3  -2  12 332.184 99.2937   4
   3  -2  12 404.812 194.733   1
  -3   2 -12 348.957 164.047   2
  -3  -2 -12 109.169 151.709   6
  -3   2 -12 153.305 63.2711   3
  -3   2 -12 218.190 109.157   7
   2   3  12 201.267 48.6912   4
   3   2  12 196.988 89.5736   8
  -2   3 -12 315.654 240.553   6
   3   2  12 535.755 162.115   1
   2   3  12 370.154 234.958   5
   2   3  12 128.965 91.0715   8
  -2  -3 -12 303.479 105.462   3
   3  -2  12 275.999 133.700   5
   3  -2  13-17.4998 59.5107   8
  -2   3  13-20.1365 152.722   8
  -2  -3 -13-531.487 267.776   2
   2   3  13-18.3759 110.768   1
   3  -2  13-22.4255 220.702   1
   3  -2  13-249.530 156.946   5
   2  -3  13-205.509 119.399   4
   2   3  13-43.5614 60.8370   4
  -2  -3 -13-90.6726 123.501   3
  -3   2 -13-293.991 261.260   6
   3   2  13-289.147 251.993   5
   3   2  13-12.4060 63.2682   4
  -2  -3 -13-202.586 116.463   6
  -3  -2 -13-84.3058 106.678   3
  -2   3 -13 6.45838 111.677   7
   3  -2  13-89.7129 108.879   4
  -2   3 -13-410.062 282.751   6
  -3   2 -13-330.631 164.127   2
  -2  -3 -13 93.4415 52.4294   7
   3   2  13-192.883 143.121   1
   2   3  13-594.353 270.988   5
   2   3  13-73.4952 100.167   8
  -3  -2 -13 76.9086 76.8688   7
  -3   2 -13-94.1076 115.537   7
  -3  -2 -13-323.737 181.092   6
   2  -3  13-44.1450 49.7605   8
   3   2  13-56.7381 96.4055   8
  -3   2 -13-101.066 76.5924   3
  -3  -2 -13-626.688 251.991   2
  -2  -3 -14-231.273 82.3433   7
   2  -3  14-325.178 135.239   4
  -2   3 -14-859.639 321.223   6
  -3  -2 -14-353.730 131.653   3
  -3   2 -14-444.870 154.971   7
   2  -3  14-157.918 72.2254   8
  -2   3 -14-394.822 155.037   7
   3   2  14-315.910 146.885   8
  -2   3  14-232.770 195.958   8
  -3   2 -15 122.928 124.813   7
  -3  -2 -15 211.556 102.104   7
   3  -2  15 198.942 78.1613   8
   2   3  15 279.814 118.917   8
   3   2  15 245.704 106.824   8
  -2  -3 -15 293.076 131.158   3
  -3   2 -15 333.026 282.808   6
   2   3  15 252.532 301.175   5
   3   2  15 184.502 81.9786   4
  -3  -2 -15-234.527 218.199   6
   3  -2  15 47.3476 114.630   4
   3   2  15-463.348 282.782   5
   3  -2  15-76.7208 166.781   5
  -2   3 -15 193.493 126.167   7
   3   2  15 66.3035 146.747   1
  -3  -2 -15 114.982 121.965   3
  -2   3 -15 589.335 295.735   6
   2  -3  15 249.377 126.236   4
  -3  -2 -15 499.717 268.402   2
  -2   3 -16 1085.73 339.496   6
  -2  -3 -16 1179.12 200.846   3
   3   2  16 1267.17 182.595   8
   2   3  16 1738.94 359.006   5
  -3   2 -16 1369.78 200.134   7
   3   2  16 1572.29 337.707   5
  -3  -2 -16 1122.91 324.030   2
   2   3  16 1108.61 184.184   8
   3  -2  16 1346.76 196.117   4
  -3  -2 -16 1099.93 187.793   3
  -3   2 -16 880.575 335.996   6
   2  -3  16 1531.64 209.958   4
  -2   3 -16 903.822 195.625   7
  -3   2 -17 596.504 157.314   7
   3   2  17 335.355 130.546   8
  -2   3 -17-27.8773 311.271   6
   2  -3  17 170.679 149.980   4
  -2   3 -17 55.3111 139.045   7
   3   2  17 63.7829 321.053   5
   2   3  17 654.445 341.671   5
   2   3  17 182.303 135.710   8
  -3  -2 -17 354.841 311.616   2
  -2  -3 -17 226.339 152.108   3
  -3  -2 -17 413.650 143.110   3
   3  -2  17 286.956 138.079   4
  -3   2 -17 536.972 326.448   6
  -2   3 -18 124.083 150.582   7
   3   2  18 401.255 140.769   8
  -3   2 -18 319.552 148.848   7
  -3   2 -18 294.854 327.137   6
   3  -2  18 224.769 148.579   4
  -3  -2 -18 249.276 149.885   3
   2  -3  18 162.982 151.791   4
   3   2  18 449.430 339.681   5
  -2   3 -18 205.698 348.310   6
   2   3  18 213.372 139.804   8
  -2  -3 -18 226.577 160.290   3
  -3  -2 -18 324.142 335.166   2
   2   3  18 180.711 345.597   5
   3   2  19 2112.06 277.420   8
   2   3  19 2247.11 288.346   8
   3  -2  19 1899.62 291.390   4
  -2  -3 -19 2271.77 308.462   3
   2   3  19 2229.96 453.823   5
  -3  -2 -19 2253.72 297.849   3
  -2   3 -19 2211.99 296.714   7
  -3   2 -19 2422.27 443.096   6
   2  -3  19 2086.40 302.089   4
   3   2  19 2024.96 440.381   5
  -2   3 -19 1949.83 455.520   6
  -3   2 -19 2141.78 292.052   7
  -3  -2 -19 1713.02 423.942   2
  -3  -2 -20 254.479 188.972   3
   3   2  20 228.107 153.916   8
   2  -3  20 287.551 176.078   4
   2   3  20 526.737 169.177   8
   3   2  20-784.876 400.409   5
  -3  -2 -20 39.6210 377.277   2
  -2   3 -20 540.108 190.054   7
  -3   2 -20 144.609 168.194   7
  -2   3 -20-355.963 386.107   6
  -2  -3 -20 201.974 184.743   3
  -3   2 -20-461.318 385.077   6
   2   3  20 828.324 397.994   5
   3  -2  20 274.849 172.326   4
  -3   2 -21 2215.07 509.185   6
  -2  -3 -21 2463.30 372.892   3
  -2   3 -21 2251.17 513.848   6
   3  -2  21 3386.27 376.610   4
   2   3  21 3368.79 535.770   5
  -3  -2 -21 2610.18 362.582   3
   3   2  21 3539.85 368.183   8
   3   2  21 3021.17 518.305   5
  -2   3 -21 2779.18 362.169   7
  -3   2 -21 2486.65 362.750   7
   2  -3  21 2984.37 373.434   4
  -3  -2 -21 1300.85 490.111   2
   2   3  21 2790.61 355.345   8
  -3   2 -22 370.671 185.746   7
   2   3  22 107.716 400.580   5
   2   3  22 26.8096 168.358   8
  -3   2 -22 397.631 407.345   6
  -2   3 -22 17.6035 398.155   6
  -2  -3 -22-69.2284 216.044   3
   2  -3  22 74.8230 193.650   4
  -2   3 -22-19.3999 182.700   7
   2   3  23 1501.63 449.702   5
   2  -3  23 1062.00 244.949   4
  -2  -3 -23 1251.34 284.384   3
  -2   3 -23 419.742 443.834   6
  -2   3 -23 1255.59 246.059   7
   2   3  23 949.484 234.530   8
  -2   3 -24 134.622 206.739   7
  -3   3  -1-4.52576 48.2082   7
   3  -3   1 42.3176 68.4235   1
   3  -3   2-13.0602 79.6180   1
  -3   3  -2 28.0942 52.8084   7
  -3   3  -3-118.180 113.335   6
  -3   3  -4 2518.25 312.518   6
  -3   3  -5 94.8384 145.181   6
  -3  -3  -5-47.1978 154.811   2
  -3   3  -6 2207.53 297.802   6
   3  -3   8 10820.5 1151.38   1
  -3   3  -8 11270.2 1127.18   7
   3  -3   9 99.5682 84.6734   4
  -3  -3  -9 60.6829 216.384   2
   3   3   9 29.6666 71.4910   8
  -3   3  -9-67.2504 194.497   6
  -3   3  -9 65.1419 88.5285   7
   3  -3   9-92.4931 168.570   1
  -3   3 -10 416.755 111.456   7
   3  -3  10 281.773 181.839   1
  -3  -3 -10 247.400 124.697   6
   3   3  10 516.394 216.478   5
  -3   3 -10 735.172 218.561   6
   3   3  10 383.639 94.9193   8
  -3  -3 -10 386.120 221.823   2
   3  -3  10 264.959 103.273   4
   3   3  11 41.2280 219.057   5
  -3   3 -11 6.31536 103.311   7
   3  -3  11-24.1704 91.9747   4
   3  -3  11-68.3438 183.977   1
   3   3  11 266.236 93.8616   8
  -3  -3 -11-41.2463 242.997   2
  -3   3 -11 102.416 229.370   6
  -3  -3 -11 344.303 129.120   6
  -3  -3 -12 948.768 272.514   2
   3   3  12 246.878 236.150   5
  -3   3 -12 214.569 253.059   6
   3   3  12 303.430 97.6926   8
  -3   3 -12 393.507 120.338   7
   3  -3  12 420.419 115.847   4
  -3  -3 -12 410.530 145.428   6
   3  -3  12 297.854 217.794   1
  -3  -3 -13 8399.06 568.757   6
   3   3  13 8338.31 692.239   5
   3   3  14 1114.58 161.745   8
  -3   3 -14 909.353 176.748   7
   3   3  14 1113.84 308.505   5
   3  -3  14 989.512 172.320   4
  -3  -3 -14 507.000 297.378   2
  -3  -3 -14 990.765 167.390   3
  -3  -3 -14 1104.90 207.436   6
  -3   3 -14 562.282 302.056   6
  -3  -3 -15-259.358 296.274   2
  -3  -3 -15 52.8584 126.860   3
   3   3  15-12.4810 291.779   5
  -3   3 -15-441.708 305.153   6
   3   3  15 25.2377 107.345   8
   3  -3  15-52.7578 125.154   4
  -3   3 -15 22.2138 135.605   7
   3   3  16-79.0706 117.426   8
   3  -3  16 151.449 141.046   4
  -3  -3 -16 141.113 133.759   3
   3   3  16-170.902 307.731   5
  -3   3 -16 213.541 314.907   6
  -3   3 -16 185.303 143.504   7
  -3  -3 -16 367.872 320.681   2
  -3   3 -17 553.730 336.396   6
  -3  -3 -17 15.0538 148.289   3
   3   3  17-97.4682 340.036   5
   3   3  17-56.2293 131.680   8
   3  -3  17 179.169 153.713   4
  -3   3 -17-137.099 153.386   7
  -3  -3 -17-472.591 333.662   2
  -3  -3 -18 400.014 364.037   2
   3  -3  18 992.526 207.993   4
  -3   3 -18-28.7961 358.368   6
  -3  -3 -18 820.742 190.615   3
   3   3  18 979.395 371.499   5
   3   3  18 890.448 175.647   8
  -3   3 -18 983.685 197.543   7
  -3   3 -19 61.3059 175.730   7
  -3   3 -19 165.179 363.773   6
   3   3  19-139.630 381.739   5
  -3  -3 -19 215.386 171.611   3
  -3  -3 -19 250.231 362.456   2
   3  -3  19 106.782 164.762   4
   3   3  19-38.5785 144.759   8
  -3   3 -20 4586.53 618.424   6
  -3   3 -20 4075.79 486.267   7
  -3  -3 -20 5320.96 647.966   2
   3   3  20 5016.14 648.753   5
   3   3  20 4075.33 475.415   8
  -3  -3 -20 3349.41 481.718   3
   3  -3  20 4325.01 493.231   4
  -3   3 -21-231.643 409.438   6
   3   3  21-443.359 414.140   5
  -3   3 -21-18.9619 184.420   7
   3   3  21-127.848 169.232   8
  -3  -3 -21-79.2055 190.311   3
   3  -3  21 54.0244 192.237   4
  -3  -3 -21-589.418 414.503   2
   3  -3  22 2133.81 299.217   4
  -3   3 -22 1212.68 480.862   6
  -3   3 -22 2097.33 296.210   7
  -3  -3 -22 1698.73 303.846   3
   3   3  22 1844.96 494.533   5
   3   3  22 1518.10 269.465   8
  -3   3 -23 18.1819 447.022   6
   3  -3  23-143.314 224.882   4
  -3   3 -23-194.056 201.700   7
   3   3  23 9.49510 190.577   8
   0   4   0 42.1723 38.0055   7
   0   4   0 69.2724 86.0171   6
   0   4   0 14.8706 85.2600   5
   0  -4   0 142.442 111.037   2
   0   4   0 45.2026 33.4424   8
   0  -4   0 19.6534 34.3288   4
   0   4   1-74.7322 90.6534   5
   0  -4  -1 70.8497 113.950   2
   0   4   1 71.2967 85.5039   6
   0   4   1-2.49212 36.2150   7
   0   4  -1-4.72523 84.4871   5
   0  -4  -1 46.6944 34.7922   4
   0   4   1-8.20907 33.6847   8
   0   4  -1-6.24530 38.6872   7
   0   4  -1-94.6405 98.9085   6
   0  -4   1-18.9788 40.7790   4
   0  -4   1 28.6775 112.425   2
   0   4  -1-12.1763 32.0351   8
   0   4   2-5.76006 92.7153   5
   0  -4   2 67.0446 111.176   2
   0   4  -2 9.33433 81.5144   5
   0  -4  -2-10.6728 31.8040   4
   0   4   2-6.75006 35.3912   7
   0   4  -2-10.3635 41.2758   7
   0   4   2 15.3048 38.0475   8
   0   4  -2-2.53907 33.8738   8
   0   4   2-16.6334 80.4682   6
   0  -4  -2-24.9885 109.805   2
   0  -4   2-21.0366 42.3203   4
   0   4  -2-32.6801 107.948   6
   0   4   3-87.3311 105.580   5
   0  -4  -3 3.66473 27.9636   4
   0   4  -3-19.1537 46.2426   7
   0   4   3-14.3501 34.4096   7
   0   4   3-6.88730 43.6131   8
   0   4   3-42.3422 78.4073   6
   0  -4   3 3.87487 47.3986   4
   0   4  -3-14.2697 117.417   6
   0  -4  -3-7.22040 48.1646   3
   0   4   4 3489.74 431.086   5
   0   4   4 3810.42 409.184   6
   0  -4   4 4396.02 415.268   4
   0   4  -4 3763.50 443.019   6
   0   4   4 4120.13 411.418   8
   0   4  -4 3650.97 411.695   7
   0  -4  -4 3559.74 406.764   1
   0  -4  -4 3853.17 397.285   4
   0  -4  -4 4197.72 413.215   3
   0   4   4 4218.19 400.017   7
   0   4   5-16.0610 31.9604   7
   0   4   5 14.7897 117.445   5
   0  -4  -5 6.29364 24.8933   4
   0  -4   5 36.5739 60.6478   4
   0   4   5-58.7279 54.8700   8
   0  -4  -5 34.3768 51.6758   1
   0  -4  -5 33.8033 57.8919   3
   0   4   5 37.3997 65.8603   6
   0   4  -5 41.9984 131.319   6
   0   4  -5-13.6136 56.2211   7
   0   4   6 2463.34 326.271   5
   0  -4   6 2638.97 291.625   4
   0   4  -6 2324.38 333.797   6
   0  -4  -6 2856.95 293.679   3
   0   4   8 17119.3 1690.94   8
   0   4  -8 16617.6 1690.89   7
   0   4  -9 53.2511 83.7690   7
   0   4   9-110.309 187.873   5
   0  -4   9 41.6584 84.4614   4
  -4   0  -9-66.5220 168.411   6
   0   4  -9 131.484 198.295   6
   4   0   9-7.44070 111.580   1
   0  -4  -9-70.4564 91.7963   3
   0   4   9 45.7309 91.6671   8
   4   0  10 1051.53 201.958   5
  -4   0 -10 1249.63 162.466   7
   0   4  10 997.284 253.498   5
   0   4  10 1283.58 172.085   8
  -4   0 -10 1184.92 235.507   6
   0   4 -10 1110.91 169.455   7
   0  -4  10 1157.28 168.217   4
   4   0  10 1254.79 192.189   1
   0   4 -10 1178.93 261.445   6
   0  -4 -10 1112.97 173.822   3
  -4   0 -11-164.034 201.440   6
   4   0  11-182.286 159.768   5
   0  -4 -11-41.3627 104.720   3
   0   4 -11 73.1384 222.898   6
   0  -4  11-6.58207 87.8061   4
   0   4  11 428.283 234.000   5
   0   4  11 25.8176 98.0466   8
   0   4 -11-19.6766 101.100   7
  -4   0 -12 8.86488 212.756   2
   0   4  12 173.422 114.878   8
   4   0  12 160.405 174.653   5
  -4   0 -12 84.5841 211.474   6
   0  -4 -12 171.789 124.903   3
   0   4 -12 34.3726 108.028   7
   0   4  12-24.6341 243.914   5
   0  -4  12 117.256 97.0637   4
   0   4 -12-191.711 235.756   6
   4   0  12 199.211 70.9885   8
   0   4 -13-550.105 310.224   6
   0   4  13-146.356 149.535   8
   0  -4 -13-135.590 52.0147   7
   0  -4 -13-347.412 163.524   3
   0   4 -13-359.370 145.700   7
   0   4  13-775.619 339.677   5
   0  -4  13-136.147 123.201   4
   0  -4  14-67.3458 110.947   4
  -4   0 -14-180.519 119.456   7
   0   4 -14 251.939 275.832   6
   4   0  14-121.882 176.023   1
   0  -4 -14-61.0591 149.790   3
   0   4  14 15.3967 129.806   8
   0   4 -14-113.263 122.416   7
  -4   0 -14-99.6348 88.9805   3
   0   4  14 334.035 287.765   5
   4   0  14 89.7877 217.421   5
   0  -4  15-23.1766 113.301   4
   0   4 -15-165.147 134.456   7
   0  -4 -15 94.1081 152.615   3
   4   0  15-5.40606 100.997   4
  -4   0 -15 40.2955 129.957   7
   0   4  15 32.3088 135.535   8
   0   4  15 278.846 306.459   5
   4   0  15-106.324 238.158   5
   4   0  15 120.381 194.373   1
   0   4  16-372.259 322.828   5
  -4   0 -16 530.863 273.592   6
   0   4  16 109.875 149.329   8
   0  -4  16-7.97784 123.300   4
  -4   0 -16 161.267 139.937   7
   4   0  16 52.9598 212.625   1
   4   0  16 115.465 106.277   4
   0  -4 -16-160.550 171.620   3
   0   4 -16-73.5875 139.867   7
  -4   0 -17 59.0272 146.578   7
   4   0  17-109.742 114.735   8
   0  -4 -17-107.126 193.673   3
   0   4  17-32.4883 340.772   5
   4   0  17-111.853 111.776   4
   0   4 -17 84.8837 142.064   7
   4   0  17-113.200 228.917   1
   0   4  17-132.324 160.235   8
  -4   0 -17 10.4495 278.839   6
  -4   0 -18 2010.35 265.362   7
   4   0  18 1739.18 325.124   1
   0   4  18 1556.23 415.830   5
  -4   0 -18 1468.25 372.287   6
   4   0  18 1923.75 241.804   4
   0  -4 -18 1592.49 286.126   3
   0   4 -18 1600.74 262.502   7
   0   4  18 1561.35 267.116   8
   0  -4 -19-183.782 213.314   3
   0   4  19-140.909 378.777   5
   0   4 -19 9.06947 157.658   7
   0   4  19 76.2966 175.933   8
   0  -4 -20 4203.25 493.689   3
   0   4 -20 3574.83 437.729   7
   0   4  20 3504.53 599.471   5
   0   4  20 3511.70 446.716   8
   0  -4 -21 164.498 242.581   3
   0   4 -21-192.721 186.858   7
   0   4  21-110.613 186.429   8
   0   4  21 18.5210 395.394   5
   0   4  22 2401.75 518.969   5
   0   4 -22 2320.24 334.347   7
   0   4  22 2686.75 350.197   8
   0  -4 -22 2133.16 383.447   3
   0   4  23 439.917 426.053   5
   0  -4 -23 14.9681 248.025   3
   0   4  23 309.771 209.823   8
   0   4 -23 20.3941 181.717   7
   0   4  24 516.126 221.181   8
   0  -4 -24 418.623 276.162   3
   0  -4 -25-665.116 324.720   3
   0   4  25-33.3219 239.165   8
  -1  -4   0 5244.77 523.056   2
   1   4   0 5051.54 485.702   8
  -1   4   0 4951.24 486.285   7
  -1   4   0 4100.24 494.374   5
   1   4   0 5624.65 493.751   7
  -1   4   0 4654.95 481.757   8
   1  -4   0 4581.74 482.640   3
   1  -4   0 4454.50 482.276   4
  -1   4   0 4236.63 500.004   6
   1  -4   1 9.56342 40.7446   4
  -1   4   1 63.7885 95.9926   6
  -1  -4  -1-47.6411 131.414   2
   1   4   1 20.8132 104.537   5
  -1   4   1 15.5615 41.8733   8
   1   4   1 78.9794 41.4184   8
   1  -4  -1-20.4949 74.1852   1
   1  -4   1 19.8305 37.3975   3
   1   4  -1 63.3242 55.4183   7
   1   4   1 53.4876 50.2194   7
  -1   4  -1 54.7904 34.2438   8
  -1   4  -1 11.4956 98.9821   6
  -1   4  -1 16.4636 77.1796   5
  -1   4   1 131.303 93.9660   5
  -1   4   1 62.8687 46.7386   7
  -1   4  -1 17.3503 45.6381   7
   1  -4  -1-12.7200 43.6933   3
  -1   4   2 887.539 96.8827   7
  -1  -4  -2 715.529 163.810   2
   1   4   2 800.451 94.8791   8
  -1  -4   2 379.472 89.8940   4
  -1   4  -2 582.816 110.032   5
  -1   4  -2 584.090 136.363   6
   1   4  -2 697.762 106.161   7
   1  -4   2 671.502 94.0906   4
  -1   4   2 678.911 136.709   5
   1  -4   2 640.339 128.022   2
   1  -4  -2 746.881 113.782   1
  -1   4   2 776.831 97.4281   8
   1   4   2 965.235 98.0823   7
   1  -4  -2 734.637 98.9035   3
   1   4   2 829.848 148.090   5
  -1   4  -2 680.170 84.4455   8
  -1   4   2 825.611 131.002   6
   1  -4   2 914.810 89.5257   3
  -1   4  -2 442.815 94.5416   7
   1   4  -3 1307.91 138.845   7
   1  -4   3 878.657 124.647   4
  -1   4   3 932.422 162.615   5
   1  -4   3 1126.66 149.458   2
  -1   4   3 1033.64 127.534   8
  -1   4  -3 1073.98 170.423   6
  -1  -4   3 894.078 123.135   4
  -1   4  -3 831.945 124.359   7
  -1   4   3 1102.52 121.707   7
  -1   4  -3 1001.84 111.081   8
  -1  -4  -3 1137.17 182.608   2
   1  -4  -3 1042.45 129.287   3
   1   4   3 1071.33 117.955   7
  -1   4  -3 877.495 129.723   5
  -1   4   3 1017.93 144.837   6
   1   4   3 748.723 165.399   5
   1  -4  -3 1154.27 138.609   1
   1   4   3 1043.33 123.987   8
   1   4   4 258.492 46.8464   7
   1   4   4 227.188 57.7319   8
   1  -4  -4 296.689 70.0603   1
  -1   4  -4 291.574 70.5364   7
  -1   4   4 305.016 92.0139   6
   1   4  -4 284.862 75.4616   7
   1  -4   4 221.355 62.9801   4
  -1   4  -4 274.850 132.732   6
   1  -4  -4 238.530 71.2458   3
  -1  -4   4 268.961 65.4213   4
  -1   4   4 267.952 123.700   5
  -1   4   4 294.239 60.5637   7
  -1   4  -4 270.939 45.0960   8
  -1   4   4 391.438 72.3740   8
   1  -4   4 335.829 98.6374   2
  -1   4  -4 146.796 70.8056   5
   1   4   4 192.927 128.927   5
   1  -4   5 5732.25 583.319   4
   1   4   5 5291.27 607.914   5
   1  -4  -5 6134.06 588.971   3
  -1   4  -5 5106.28 607.168   6
  -1   4   5 5711.17 611.242   5
   1   4  -5 5870.98 589.695   7
  -1   4   5 5870.09 587.716   8
  -1   4  -5 5117.06 572.615   5
  -1   4   5 6226.45 583.522   6
   1  -4   6 1832.91 211.755   4
  -1   4  -6 1825.41 200.626   5
  -1   4  -6 1897.38 266.481   6
   1   4   6 1945.39 260.195   5
   1  -4  -6 1765.04 218.179   3
  -1   4   6 1905.24 267.032   5
   4  -1   7 2896.85 344.884   1
  -4   1  -7 3020.69 325.670   7
  -1   4  -8 48.0418 80.0486   7
  -1   4   8 154.216 93.2547   8
  -4   1  -8 23.6758 166.718   6
   1   4   8-19.3462 70.9709   8
   1  -4  -8 104.043 95.5157   3
  -1   4  -9 2260.10 378.234   6
   1   4   9 2491.57 371.283   5
   1  -4   9 3024.65 322.004   4
  -1   4   9 3109.94 328.787   8
  -4   1  -9 2645.81 364.961   6
   1  -4  -9 2278.23 325.974   3
  -1  -4  -9 3208.82 320.648   3
  -1   4   9 2465.38 381.981   5
   1   4   9 3160.00 318.938   8
  -1   4  -9 2718.54 318.368   7
  -1   4 -10 1376.54 267.831   6
  -1   4  10 1038.65 170.551   8
   1  -4 -10 1178.95 182.542   3
   1  -4  10 1030.02 157.838   4
  -1  -4 -10 1042.54 159.423   3
  -4  -1 -10 1109.62 236.918   2
   4  -1  10 1089.52 178.427   5
  -4  -1 -10 1237.17 216.094   6
   1   4  10 1558.16 258.103   5
  -1   4 -10 984.016 162.759   7
   4   1  10 957.621 211.555   5
  -1   4  10 1176.84 265.449   5
   1   4  10 1145.53 155.774   8
   4  -1  11 563.769 160.396   5
  -1  -4 -11 653.024 133.570   3
   1   4  11 534.293 120.307   8
   1   4  11 954.791 249.204   5
  -1   4 -11 700.013 132.623   7
   1  -4 -11 398.710 151.188   3
  -1   4 -11 618.463 250.343   6
  -4   1 -11 560.964 126.268   7
  -4  -1 -11 674.987 201.618   6
   4   1  11 769.578 201.830   5
  -1   4  11 645.202 248.989   5
   1  -4  11 583.978 126.818   4
  -1   4  11 488.461 138.351   8
   4  -1  11 410.026 175.533   1
   4   1  12 748.370 176.071   1
  -1   4 -12 278.573 251.550   6
   4  -1  12 384.900 172.958   5
   1   4  12 474.602 254.285   5
   4  -1  12 721.065 193.162   1
   1  -4  12 415.592 124.395   4
   4   1  12 577.457 203.856   5
   1   4  12 423.267 120.414   8
  -1   4  12 509.546 141.454   8
  -4   1 -12 490.628 124.757   7
  -1   4 -12 500.601 130.128   7
   1  -4 -12 276.906 146.229   3
  -4  -1 -12 854.823 219.352   6
  -1   4  12 211.409 248.893   5
  -1  -4 -12 303.606 129.181   3
  -1   4  13 2937.57 443.383   5
  -1   4 -13 1324.14 226.055   7
  -4   1 -13 976.604 248.356   7
   1  -4  13 1106.27 216.891   4
   1  -4 -13 971.387 262.141   3
   1   4  13 765.428 217.422   8
  -1   4  13 865.561 235.284   8
   4  -1  13 3416.68 368.664   1
  -1   4 -14 1276.90 342.217   6
   4  -1  14 1084.55 264.033   1
   4  -1  14 1375.58 167.532   8
  -1   4  14 1493.75 226.480   8
   1  -4 -14 952.495 237.098   3
  -4   1 -14 1156.74 309.698   6
   4   1  14 1645.08 193.381   8
   1   4  14 1331.54 200.467   8
  -4  -1 -14 1091.91 273.779   6
  -4   1 -14 1616.64 208.850   7
   1  -4  14 1589.40 215.660   4
  -1  -4 -14 1313.64 211.353   3
  -1   4 -14 1325.13 206.424   7
   1   4  14 1712.60 342.955   5
  -4   1 -14 1519.20 299.096   2
  -1   4  14 1658.32 347.285   5
  -4  -1 -14 1330.55 303.675   2
  -4   1 -14 1324.80 173.497   3
   4  -1  14 1482.26 193.358   4
   4   1  15 240.132 259.930   5
   4  -1  15-7.47263 220.940   5
  -1   4  15 101.902 157.511   8
   1  -4 -15 242.976 184.324   3
  -4  -1 -15 111.842 108.839   3
  -1   4  15 122.564 299.918   5
  -4   1 -15 364.068 266.847   6
   4  -1  15 114.172 83.5776   8
  -1   4 -15 424.625 308.579   6
   4   1  15 168.650 115.041   8
  -4   1 -15 310.922 142.172   7
  -1   4 -15 215.853 141.764   7
   1  -4  15 115.878 135.318   4
  -4   1 -15 187.917 91.3132   3
   1   4  15 14.3761 120.088   8
   1   4  15 127.108 303.438   5
  -4   1 -15 71.7953 261.113   2
   4  -1  15 220.820 227.729   1
  -4  -1 -15 173.993 272.714   2
  -1  -4 -15 130.611 138.980   3
   4  -1  15 165.576 111.340   4
  -1   4 -16 310.611 327.289   6
   4  -1  16 730.058 270.678   1
   1   4  16 1227.64 190.871   8
  -4   1 -16 861.099 311.097   6
  -1   4 -16 837.084 186.948   7
  -4   1 -16 999.622 196.383   7
  -1  -4 -16 1202.59 203.352   3
   1  -4  16 1137.49 194.285   4
   1   4  16 282.496 336.311   5
   4  -1  16 956.352 167.002   4
  -1   4  16 1197.49 366.242   5
  -4  -1 -16 991.133 171.821   3
  -1   4  16 1199.75 218.031   8
   4   1  16 985.105 168.273   8
   4   1  16 1622.95 310.866   5
   1  -4 -16 1128.05 242.094   3
  -4  -1 -16 743.979 302.119   2
  -4  -1 -17 276.762 132.416   3
  -1   4 -17 386.834 328.428   6
   4  -1  17 326.354 134.879   4
  -1  -4 -17 434.016 178.539   3
   1  -4 -17 124.596 206.104   3
   1   4  17 455.520 341.932   5
  -1   4  17 634.435 184.681   8
   4   1  17 265.330 129.422   8
   4  -1  17 500.824 252.527   1
  -4   1 -17 242.767 154.455   7
  -4  -1 -17 269.544 143.764   7
  -4   1 -17 176.939 307.163   6
  -4  -1 -17 216.328 296.155   2
   1  -4  17 125.825 147.448   4
   1   4  17 312.504 149.326   8
  -1   4 -17 288.499 156.540   7
  -1   4  17 803.792 348.399   5
   4   1  17 114.653 294.301   5
  -4   1 -18 1263.88 382.352   6
   1  -4 -18 1319.45 283.285   3
  -1   4 -18 1441.68 237.960   7
  -1  -4 -18 1337.18 255.337   3
  -1   4 -18 1062.80 389.775   6
  -4   1 -18 1723.27 239.428   7
   4   1  18 1728.84 373.368   5
   4  -1  18 1588.26 225.934   4
  -4  -1 -18 1383.08 216.158   3
  -4  -1 -18 1593.65 366.408   2
   1   4  18 1203.41 230.785   8
  -1   4  18 1181.70 391.827   5
  -1   4  18 1595.63 267.132   8
   1  -4  18 1390.65 239.220   4
   4  -1  18 1581.30 318.809   1
   1   4  18 1630.79 419.611   5
   4   1  18 1476.14 216.259   8
   1  -4 -19 2517.31 419.750   3
  -4   1 -19 2441.84 492.668   6
  -4   1 -19 3027.02 382.678   7
   4  -1  19 3178.15 368.550   4
   4   1  19 3511.31 366.832   8
  -1   4  19 4148.94 531.798   5
  -1   4 -19 3238.98 388.253   7
   4   1  19 2707.65 486.314   5
   1  -4  19 3082.81 383.417   4
   4  -1  19 2946.67 454.994   1
   1   4  19 3228.89 377.626   8
  -1  -4 -19 2564.07 390.877   3
  -1   4  19 2944.65 396.619   8
   1   4  19 3321.05 537.587   5
  -1   4 -19 2574.17 516.120   6
   1   4  20 2099.01 480.309   5
  -1   4  20 948.629 246.993   8
  -1   4 -20 1018.41 237.038   7
   1  -4 -20 1018.65 287.599   3
   1  -4  20 645.138 202.252   4
   1   4  20 878.424 218.341   8
  -1  -4 -20 842.504 251.216   3
  -4   1 -20 759.756 227.293   7
  -1   4 -20 1131.06 426.983   6
  -4   1 -20 2417.55 435.577   6
   1  -4  21 3274.59 402.925   4
   1  -4 -21 2482.86 447.008   3
   1   4  21 3519.87 406.341   8
  -1   4 -21 3255.94 415.394   7
  -1  -4 -21 3165.19 434.023   3
  -1   4  21 3079.78 418.451   8
   1   4  21 3834.41 581.420   5
   1   4  22 868.263 469.804   5
  -1   4 -22 319.911 209.966   7
  -1   4  22 229.540 221.933   8
   1   4  22 555.386 203.269   8
  -1  -4 -22 406.527 245.526   3
   1   4  23 970.703 485.001   5
  -1   4  23 1756.09 312.258   8
  -1   4 -23 1618.43 289.057   7
  -1  -4 -23 1458.86 327.834   3
   1   4  23 1928.00 290.914   8
  -1   4 -24 400.564 216.077   7
   1   4  24 121.786 473.047   5
   1   4  24 164.931 197.645   8
  -1  -4 -24 249.467 277.197   3
  -1   4  24 238.101 234.989   8
   1   4  25 524.058 249.799   8
  -1   4 -25 485.850 282.000   7
  -1  -4 -25 138.835 317.908   3
   1   4  26 206.230 482.302   5
   1   4  26 255.223 224.842   8
  -1   4  27-12.2551 238.996   8
  -1   4  28 321.287 240.271   8
  -2   4   0 911.969 117.988   7
  -2   4   0 884.026 112.587   8
   2  -4   0 797.569 140.706   1
   2  -4   0 875.357 116.207   3
  -2   4   0 791.826 153.437   6
  -2   4   0 733.266 145.681   5
  -2   4  -1 3126.29 347.569   6
   2  -4   1 3024.80 315.160   3
   2  -4  -1 3260.80 323.043   3
  -2   4  -1 3306.88 336.306   5
   2  -4  -1 2584.87 327.171   1
  -2   4  -1 3474.76 322.927   7
  -2   4   1 2643.78 316.228   7
  -2   4   1 2834.95 318.153   8
   2  -4   1 2949.98 338.512   1
  -2   4   1 2816.54 336.692   6
  -2   4   1 3368.43 347.686   5
  -2   4  -1 2877.17 310.587   8
  -2   4  -2 603.920 146.448   6
  -2   4   2 529.976 91.6720   7
   2  -4   2 464.727 129.607   1
  -2   4  -2 786.414 104.790   7
  -2   4  -2 603.432 79.2003   8
  -2   4  -2 598.119 117.070   5
  -2   4   2 717.535 147.084   5
  -2   4   2 649.007 98.1566   8
  -2  -4  -2 683.124 176.254   2
   2  -4  -2 476.043 100.784   3
   2   4   2 626.735 90.5935   8
  -2   4   2 378.852 126.495   6
   2  -4   2 657.945 88.4598   3
   2  -4  -2 528.724 106.779   1
  -2   4  -3 3397.80 365.958   5
   2  -4   3 2692.39 381.197   1
  -2   4   3 3184.59 391.749   5
   2  -4  -3 3337.34 368.405   3
  -2   4  -3 3272.89 360.980   7
  -2   4  -3 3247.37 390.330   6
  -2   4   3 3455.11 366.313   8
   2   4   3 3532.63 359.108   8
  -2   4  -3 3273.12 345.049   8
   2  -4   3 3846.27 351.366   3
   2   4   4 2242.42 295.506   5
  -2   4  -4 2087.35 225.309   8
  -2   4  -4 2499.73 251.135   5
  -2   4   4 2696.09 294.533   5
   2  -4  -4 2485.85 260.175   3
   2  -4   4 2155.31 230.794   3
  -2   4   4 2176.89 253.429   8
  -2   4  -4 2162.98 246.870   7
  -2   4  -4 1964.25 282.528   6
  -2   4   5 94.1793 145.598   5
  -2   4  -5 72.8897 24.3766   8
  -2   4  -5 270.180 158.348   6
   2  -4   5 61.4762 69.0935   2
   2  -4   5 51.1789 36.2019   3
   2  -4   5-4.68310 59.8150   4
   2  -4  -5 33.1632 83.9671   3
  -2   4  -5 151.336 77.1911   5
   2   4   5 45.6812 151.832   5
  -4   2  -6 4599.11 512.772   6
  -2   4   7 1051.21 171.781   8
  -2  -4  -7 1168.36 245.408   2
  -2   4  -7 977.512 155.999   7
   2   4   7 1323.44 150.557   8
  -4   2  -8 5444.59 536.365   7
   2   4   8 4643.45 572.774   5
  -2   4   8 4751.13 580.236   5
  -2   4  -8 4727.11 529.526   7
  -2  -4  -8 4590.12 576.550   2
   4  -2   8 4515.19 552.582   1
   2  -4  -8 5036.04 551.016   3
   2   4   8 5788.49 527.862   8
  -2   4  -8 4701.42 570.135   6
   2  -4   8 4955.01 528.746   4
  -2   4  -9 733.005 126.526   7
   4  -2   9 426.901 171.861   1
  -2   4  -9 793.979 239.654   6
  -2   4   9 325.961 226.749   5
   2   4   9 571.202 113.447   8
   2   4   9 655.474 219.789   5
  -2   4   9 710.531 154.268   8
  -2  -4  -9 535.309 226.896   2
   2  -4  -9 786.571 165.900   3
  -4   2  -9 782.642 132.081   7
   2  -4   9 610.047 122.366   4
   4  -2  10 1083.86 169.620   5
  -2  -4 -10 1011.02 168.737   3
  -2   4 -10 1496.01 277.408   6
   2  -4 -10 1046.31 211.544   3
   2  -4  10 1366.47 175.931   4
   2   4  10 1453.28 268.050   5
  -2   4  10 1390.59 200.138   8
  -4   2 -10 1410.65 268.344   6
  -2  -4 -10 1347.53 274.949   2
  -4   2 -10 1384.28 183.230   7
   2   4  10 1130.20 163.981   8
  -2   4 -10 1108.40 173.639   7
  -2   4  10 1209.29 275.503   5
   4  -2  10 1556.90 236.748   1
  -2  -4 -11 2837.99 318.835   3
   2  -4 -11 2877.67 354.769   3
   2  -4  11 2657.95 320.185   4
   4   2  11 2772.66 310.408   8
   2   4  11 2398.67 385.365   5
  -4   2 -11 2956.33 326.041   7
  -4   2 -11 3106.74 395.837   6
  -4  -2 -11 2848.77 407.577   2
  -2   4 -11 2687.87 320.829   7
  -2   4 -11 1994.30 389.379   6
   4  -2  11 2824.65 317.235   5
  -2   4  11 2609.99 403.164   5
  -2  -4 -11 3119.67 398.493   2
   4  -2  11 2900.96 365.010   1
  -2   4  11 2550.04 341.343   8
  -4  -2 -11 2895.80 344.904   6
   2   4  11 2917.59 313.241   8
   2  -4  12 20.8600 112.733   4
   4  -2  12 22.5052 195.051   1
  -2   4  12 56.3104 141.791   8
  -4   2 -12-127.878 280.241   6
   2   4  12-11.8652 96.5991   8
   4   2  12-210.739 229.954   5
   2  -4 -12-54.2192 161.670   3
  -2  -4 -12-575.674 286.148   2
  -4  -2 -12-310.190 193.638   6
  -4   2 -12 62.2875 121.428   7
   4   2  12-22.1639 96.8293   8
   4  -2  12 22.0455 144.928   5
   2   4  12-601.958 273.025   5
  -2   4 -12-88.3015 117.466   7
  -2   4 -12-120.893 266.025   6
  -2   4  12-109.547 247.897   5
  -4  -2 -12-960.994 301.438   2
  -2  -4 -12-25.0223 114.062   3
  -4   2 -13 1036.16 189.369   7
   2  -4 -13 812.263 231.538   3
  -2  -4 -13 595.704 178.324   3
   2  -4  13 1270.98 175.143   4
  -2   4  13-14.1813 359.058   5
  -4   2 -13 572.223 114.233   3
   4   2  13 1401.33 161.863   8
   4  -2  13-387.983 322.360   1
   4  -2  13 761.862 159.982   4
  -2   4 -13 906.483 172.518   7
  -4  -2 -13-1053.26 372.789   2
  -2   4 -13-1017.10 369.463   6
   2   4  13 892.450 160.194   8
  -2   4  13 800.529 201.427   8
   4   2  13-540.302 321.436   5
  -4   2 -14-33.5549 279.388   6
   2  -4 -14 202.922 184.004   3
  -4  -2 -14 134.461 201.008   6
   4   2  14 431.523 256.892   5
   4  -2  14 91.6862 173.472   5
   2   4  14 131.625 112.236   8
  -4  -2 -14 123.526 276.072   2
  -4   2 -14-133.099 140.590   7
  -2   4 -14 626.914 305.296   6
   4   2  14 209.915 115.173   8
   4  -2  14 183.559 117.306   4
  -2   4  14 83.0158 163.974   8
  -2  -4 -14 155.021 131.833   3
  -2  -4 -14 245.297 301.718   2
  -2   4 -14 44.9717 119.427   7
   2  -4  14 95.0187 122.649   4
   4  -2  14-24.7702 223.797   1
   2   4  14 325.794 292.383   5
  -4  -2 -15 1733.02 238.167   3
   2   4  15 2331.94 388.264   5
  -4  -2 -15 1786.15 369.744   2
  -2  -4 -15 1600.89 386.371   2
   4  -2  15 2179.45 338.341   1
   4   2  15 2052.64 246.445   8
   4   2  15 1764.90 351.292   5
  -2   4 -15 1808.50 253.835   7
   2  -4 -15 1077.05 287.250   3
   2   4  15 2157.42 248.075   8
  -2   4 -15 1905.49 390.246   6
  -2  -4 -15 2030.36 256.347   3
   4  -2  15 1781.67 243.221   4
  -2   4  15 2128.52 292.687   8
   2  -4  15 1774.94 254.515   4
  -4   2 -15 1757.57 260.414   7
  -4   2 -15 1844.19 367.458   6
  -4  -2 -15 1797.74 300.711   6
  -2   4 -16 8.23620 145.000   7
  -2  -4 -16 213.835 330.367   2
   2  -4  16-133.258 147.253   4
  -4  -2 -16 105.863 309.687   2
   4   2  16 234.270 120.555   8
   4   2  16-130.243 293.620   5
   2  -4 -16 204.204 190.134   3
   4  -2  16 257.030 253.087   1
  -2   4  16-67.9522 190.043   8
  -2  -4 -16 23.9547 146.013   3
  -2   4 -16-42.8000 306.147   6
  -4   2 -16-39.7638 146.485   7
  -4  -2 -16-87.9896 122.415   3
   4  -2  16-79.8404 128.787   4
  -4   2 -16 353.188 307.960   6
   2   4  16-14.3368 127.785   8
   2   4  16 187.938 329.393   5
   4   2  17 2513.98 412.035   5
   4  -2  17 2474.42 372.092   1
   2  -4  17 2368.67 302.017   4
  -2   4 -17 1879.03 433.884   6
  -2   4 -17 2196.19 290.429   7
   2   4  17 1959.26 275.054   8
  -4  -2 -17 2116.36 271.984   3
  -2   4  17 1933.61 330.737   8
  -4   2 -17 2087.39 414.925   6
   2   4  17 2052.45 432.776   5
  -2  -4 -17 2199.00 289.688   3
  -4  -2 -17 1578.41 398.700   2
   4   2  17 2057.71 269.474   8
  -4   2 -17 2152.90 286.896   7
   4  -2  17 1938.53 273.900   4
  -4  -2 -18 1321.30 399.822   2
   4  -2  18 2306.84 384.625   1
   4   2  18 2711.88 420.617   5
  -4  -2 -18 2090.09 274.178   3
  -2   4  18 1819.74 326.908   8
   4   2  18 2171.76 273.152   8
   2  -4  18 2107.81 291.128   4
  -4   2 -18 2491.83 292.311   7
  -2  -4 -18 1821.17 288.126   3
   2   4  18 1983.07 445.988   5
  -2   4 -18 2107.95 449.854   6
  -4   2 -18 1356.72 428.197   6
   2   4  18 1762.43 270.003   8
  -2   4 -18 1887.71 287.301   7
   4  -2  18 2072.89 280.450   4
   4   2  19 949.945 400.753   5
   4   2  19 1940.61 240.076   8
  -4  -2 -19 1412.28 405.917   2
   2   4  19 1333.93 442.324   5
  -4  -2 -19 1575.67 241.924   3
  -2   4 -19 1516.74 250.367   7
  -2   4  19 1874.97 306.564   8
   4  -2  19 1697.87 371.911   1
  -2  -4 -19 1394.11 268.132   3
   2   4  19 1158.78 236.758   8
  -4   2 -19 1713.23 256.368   7
  -2   4 -19 883.203 411.766   6
   4  -2  19 1509.70 250.991   4
   2  -4  19 1537.46 257.574   4
  -4   2 -19 1693.17 414.716   6
   4  -2  20 3426.90 499.146   1
  -2   4 -20 3083.50 379.594   7
  -2   4  20 3138.65 413.241   8
   4   2  20 2209.80 525.995   5
   2   4  20 2081.51 553.042   5
   4  -2  20 2588.43 368.031   4
  -4   2 -20 2400.28 517.105   6
  -4   2 -20 3398.35 388.856   7
   2   4  20 2925.50 372.590   8
  -4  -2 -20 2632.45 366.416   3
  -2   4 -20 2866.98 531.520   6
  -2  -4 -20 2568.93 387.007   3
   2  -4  20 3093.79 387.314   4
   4   2  20 3702.66 375.741   8
  -4  -2 -20 2448.27 528.315   2
  -4   2 -21 966.515 228.241   7
  -2   4 -21 443.407 418.668   6
   4  -2  21 626.809 206.590   4
   2  -4  21 481.879 211.094   4
  -2   4 -21 978.147 220.596   7
   2   4  21 1085.58 453.975   5
  -2  -4 -21 849.511 243.440   3
   4  -2  21 1267.45 367.128   1
   2   4  21 584.966 195.698   8
  -4   2 -21 746.441 410.671   6
   2  -4  22 2685.65 352.393   4
  -2   4 -22 2152.56 513.162   6
   2   4  22 2272.33 333.275   8
   2   4  22 2257.42 548.208   5
  -2  -4 -22 2345.76 366.946   3
  -2   4 -22 2481.05 350.889   7
   2   4  23 575.772 488.355   5
  -2   4 -23 773.856 238.286   7
   2  -4  23 438.783 215.568   4
  -2  -4 -23 177.451 252.600   3
   2   4  23 725.483 222.566   8
  -2   4 -23 765.180 456.091   6
  -2   4 -24 771.347 466.956   6
   2  -4  24 657.766 218.868   4
  -2  -4 -24 389.861 279.246   3
   2   4  24 927.354 496.478   5
  -2   4 -24 553.362 240.163   7
   2   4  24 245.871 209.059   8
   2  -4  25 481.574 242.460   4
   2   4  25 379.120 237.049   8
   2   4  25 338.621 576.713   5
  -2   4 -25 340.322 262.642   7
  -3   4   0 407.483 93.3427   8
   3  -4   0 707.375 124.794   1
  -3   4   0 542.214 99.2293   7
  -3   4  -1 111.900 130.603   6
  -3   4   1 139.477 68.9489   8
   3  -4   1 176.816 102.131   1
   3  -4  -1 147.720 91.2293   1
  -3   4  -1 108.154 70.6070   7
  -3   4  -1 67.8837 66.6418   8
  -3   4   2 1565.51 198.062   8
  -3   4  -2 1828.52 243.324   6
  -3   4  -2 1642.22 190.845   8
  -3   4  -3-129.384 152.132   6
  -3   4  -3 39.6024 59.5774   8
  -3   4  -4 1584.74 178.560   8
  -4   3  -5 3738.98 409.836   7
  -3   4  -5 3754.11 382.415   8
   4  -3   5 3567.82 429.158   1
  -3  -4  -5 4114.01 480.492   2
  -3  -4  -6-140.059 226.146   2
   3  -4   6-109.695 154.337   1
  -3   4  -6 17.9007 87.9060   7
   4  -3   6-72.3961 132.718   1
  -4   3  -6 12.4405 89.7618   7
   3   4   6 40.2567 71.5859   8
   3   4   7 4575.92 576.497   5
  -4   3  -7 4265.02 567.142   6
  -3   4  -7 4948.53 578.393   6
  -3   4  -7 5048.84 534.103   7
  -3  -4  -7 4855.98 598.803   2
  -4   3  -7 5193.43 535.979   7
   3   4   7 5170.92 526.590   8
   4  -3   7 5302.56 563.689   1
   3  -4   7 5042.91 570.412   1
   4  -3   8 1827.45 287.581   1
  -3   4  -8 2062.53 250.079   7
  -4   3  -8 2038.72 250.943   7
   3  -4   8 2013.68 298.865   1
   3  -4   8 2034.48 242.521   4
  -3   4  -8 1486.60 310.304   6
  -4   3  -8 1636.37 313.327   6
   3   4   8 1915.97 312.684   5
  -4  -3  -8 2271.40 326.537   2
   3   4   8 2155.27 238.084   8
  -3  -4  -8 2210.92 345.903   2
   4   3   9 2898.61 415.855   5
  -4  -3  -9 3099.77 435.102   2
  -4   3  -9 3115.53 427.035   6
   3   4   9 3065.61 428.622   5
   3  -4   9 3320.63 364.981   4
  -3  -4  -9 3635.96 445.317   2
  -3   4  -9 2703.96 419.930   6
   4   3   9 3280.18 356.380   8
   4  -3   9 3150.78 410.229   1
   3  -4   9 3166.41 424.004   1
  -4   3  -9 3406.62 369.511   7
   3   4   9 3336.19 360.172   8
  -3   4  -9 3458.13 368.845   7
   3   4  10 432.602 239.798   5
  -3   4 -10 312.245 114.555   7
  -4  -3 -10 405.110 272.581   2
  -3   4 -10 264.286 238.109   6
  -4   3 -10 581.121 254.780   6
   4  -3  10 422.738 196.577   1
  -4   3 -10 404.341 120.884   7
   3  -4  10 207.113 108.234   4
   3   4  10 341.476 97.0332   8
   3  -4  10 424.721 214.009   1
  -3  -4 -10 104.709 252.972   2
   4   3  10 94.9445 219.740   5
   4   3  10 208.406 96.7547   8
   4  -3  10 178.375 76.7296   5
   4  -3  11 153.222 82.5632   5
  -4   3 -11 285.451 268.670   6
   4   3  11 310.693 229.568   5
  -4   3 -11 293.755 123.297   7
  -3  -4 -11 82.4702 264.408   2
   4   3  11 206.820 104.957   8
  -4  -3 -11 581.059 286.535   2
  -3   4 -11 276.188 257.037   6
   3   4  11 228.879 104.580   8
  -3   4 -11 61.9107 114.708   7
   3   4  11 128.942 235.603   5
   3  -4  11 196.820 112.208   4
   4  -3  11 144.272 205.246   1
  -3  -4 -11 37.8445 93.5308   6
  -3   4 -12 6793.82 562.901   7
   3  -4  12 5241.84 552.240   4
   3   4  12 2206.84 515.688   8
  -4  -3 -12 8450.30 571.191   6
   4  -3  12 6429.27 640.764   1
   4   3  12 2310.53 514.200   8
   3   4  12 6542.08 647.113   5
   4  -3  12 6595.81 518.928   5
  -4   3 -12 4360.80 545.559   7
   4   3  12 5274.50 618.219   5
  -3  -4 -12 5310.37 515.927   6
  -3  -4 -12 10954.7 713.417   2
  -4   3 -12 9990.19 698.051   6
   4  -3  12 2956.93 527.999   4
   3   4  13 701.583 284.970   5
  -3  -4 -13 635.788 137.666   3
   3   4  13 349.473 121.666   8
   4  -3  13 630.299 139.678   4
   4   3  13 488.286 127.466   8
  -3  -4 -13 196.702 285.552   2
   3  -4  13 541.546 141.101   4
  -4  -3 -13 593.724 298.987   2
   4  -3  13 589.873 250.925   1
  -4  -3 -13 835.477 194.773   6
   4   3  13 634.317 265.233   5
  -4   3 -13 434.571 148.445   7
  -4   3 -13 216.306 282.586   6
  -3   4 -13 348.516 145.400   7
  -3   4 -13 533.907 303.423   6
   3   4  14 1452.48 353.875   5
  -3  -4 -14 1434.51 219.373   3
  -4   3 -14 1580.51 233.849   7
   4  -3  14 1547.32 223.533   4
  -4  -3 -14 2149.84 375.574   2
  -3   4 -14 1358.75 367.886   6
  -3  -4 -14 1992.47 373.504   2
  -3   4 -14 1598.97 224.996   7
   4   3  14 1548.66 218.103   8
   3   4  14 1521.74 212.725   8
   4   3  14 1622.23 332.999   5
   3  -4  14 1582.40 231.787   4
   4  -3  14 1864.57 332.475   1
  -4   3 -14 1166.30 345.962   6
   3   4  15 621.180 148.100   8
  -3   4 -15 545.336 338.723   6
  -3   4 -15 514.489 157.603   7
  -4   3 -15 773.439 172.017   7
   4  -3  15 687.314 155.806   4
   4   3  15 490.562 298.334   5
  -4  -3 -15 560.810 146.074   3
  -3  -4 -15 576.162 332.386   2
   4  -3  15 282.540 264.587   1
   3  -4  15 699.922 164.758   4
  -3  -4 -15 600.016 159.129   3
   3   4  15 491.717 322.204   5
  -4  -3 -15 243.493 328.741   2
   4   3  15 798.397 152.502   8
  -4   3 -15 1006.98 320.414   6
  -3   4 -16 690.682 340.668   6
   3  -4  16 271.624 149.299   4
  -3   4 -16 251.092 157.853   7
   3   4  16 328.062 329.362   5
   4   3  16 334.021 139.240   8
  -4  -3 -16 369.425 142.110   3
  -3  -4 -16-177.461 345.096   2
   4  -3  16 487.822 292.018   1
   4  -3  16 256.676 146.177   4
   3   4  16 308.285 137.348   8
  -4   3 -16 286.158 169.268   7
  -4  -3 -16 210.406 332.263   2
  -4   3 -16-199.067 332.719   6
  -3  -4 -16 129.940 141.145   3
   4   3  16-77.4588 305.857   5
  -4  -3 -17 87.2324 145.691   3
   4   3  17 665.374 343.689   5
   3   4  17-238.718 347.604   5
   3   4  17 37.2784 133.065   8
  -4  -3 -17-176.041 341.168   2
   4  -3  17 552.155 302.240   1
  -3  -4 -17 32.2503 152.866   3
   4   3  17-95.9652 131.550   8
  -3  -4 -17-282.746 366.979   2
   3  -4  17-102.572 161.946   4
  -4   3 -17 321.644 349.873   6
  -3   4 -17 426.865 175.176   7
   4  -3  17-151.790 149.303   4
  -4   3 -17 121.935 154.916   7
  -4  -3 -18 1328.78 404.214   2
  -3  -4 -18 600.791 409.296   2
   3   4  18 1311.26 210.516   8
   3   4  18 1022.35 407.692   5
   4  -3  18 1161.56 345.685   1
   4   3  18 1483.14 217.729   8
  -3   4 -18 1510.77 406.978   6
   4   3  18 1543.18 399.064   5
  -4   3 -18 1334.84 237.517   7
  -3  -4 -18 1254.87 223.648   3
   3  -4  18 1316.29 237.543   4
  -4   3 -18 1757.23 415.403   6
   4  -3  18 1013.42 214.062   4
  -3   4 -18 1232.30 236.456   7
  -4  -3 -18 1198.02 221.366   3
   3   4  19 2011.76 261.281   8
  -3  -4 -19 1594.61 268.097   3
  -4   3 -19 907.963 446.725   6
  -4  -3 -19 2114.28 271.469   3
   4   3  19 1842.83 259.281   8
  -3  -4 -19-76.0104 459.367   2
   4  -3  19 1808.79 280.217   4
  -4   3 -19 1645.46 275.218   7
  -4  -3 -19 970.560 448.323   2
  -3   4 -19 2491.67 473.021   6
   3   4  19 426.714 457.571   5
   4  -3  19 2179.78 410.396   1
   4   3  19 1309.37 446.808   5
   4  -3  20 270.205 186.213   4
   3   4  20 447.162 178.763   8
   3  -4  20 419.276 210.048   4
  -4   3 -20 507.985 206.083   7
  -3   4 -20 156.495 194.511   7
  -3  -4 -20 279.756 187.341   3
  -4  -3 -20 165.140 400.135   2
  -3  -4 -20 410.755 430.427   2
   4   3  20 127.763 401.723   5
  -4  -3 -20 148.204 181.987   3
  -3   4 -20 266.458 382.626   6
   4  -3  20-257.114 334.607   1
   4   3  20 321.381 165.016   8
   3   4  20-86.6306 420.931   5
  -4   3 -20 523.818 404.502   6
   3   4  21 2559.70 320.956   8
  -3   4 -21 2119.54 338.583   7
  -3   4 -21 2763.12 519.408   6
  -4  -3 -21 1840.11 315.925   3
   3  -4  21 2549.86 346.247   4
   4   3  21 2849.23 325.062   8
  -3  -4 -21 983.578 515.985   2
  -4  -3 -21 2416.73 541.140   2
  -4   3 -21 2054.21 507.744   6
   4   3  21 2530.38 511.752   5
   4  -3  21 2526.11 461.291   1
   4  -3  21 2303.59 341.531   4
   3   4  21 2082.25 525.928   5
  -3  -4 -21 2180.05 333.226   3
  -4   3 -21 2226.77 332.314   7
   3  -4  22 366.254 234.979   4
  -3  -4 -22 483.344 233.155   3
  -3   4 -22 343.775 432.560   6
   3   4  22 394.642 202.991   8
  -4   3 -22 319.706 206.755   7
   4   3  22 252.278 197.181   8
   3   4  22 358.816 469.174   5
  -3   4 -22 398.949 218.418   7
   4  -3  22 502.603 370.596   1
   4  -3  22 203.157 219.329   4
  -3  -4 -22 544.248 470.290   2
  -4   3 -22 34.1640 428.305   6
  -3   4 -23 1378.00 271.572   7
  -4   3 -23 143.060 449.310   6
  -3  -4 -23 1045.11 273.823   3
   3   4  23 1286.57 506.952   5
  -3   4 -23 1341.42 494.922   6
  -4   3 -23 1241.19 267.142   7
   3   4  23 1240.73 246.915   8
   3  -4  23 905.962 256.753   4
  -3  -4 -23 17.6397 494.166   2
  -3   4 -24-274.612 505.486   6
   3   4  24-329.562 542.628   5
   3   4  24 703.419 237.765   8
   3  -4  24 487.656 258.173   4
  -3   4 -24 302.228 243.779   7
  -3   4 -25-241.941 233.572   7
  -3   4 -25 183.648 498.626   6
  -4   4  -2 61.7738 88.3423   7
   4  -4   2-33.6480 124.513   1
   4  -4   3 26.6901 135.429   1
  -4   4  -3-25.3123 83.0155   7
  -4   4  -4 260.020 180.814   6
  -4   4  -5-96.6607 194.699   6
   4  -4   6 992.117 228.543   1
  -4   4  -6 1535.62 191.502   7
  -4   4  -6 814.813 256.398   6
   4  -4   7-143.442 175.922   1
  -4   4  -7 34.7014 103.168   7
  -4   4  -7-117.400 221.361   6
  -4  -4  -7 143.959 221.599   2
   4   4   8 2717.37 309.731   8
  -4   4  -8 2808.93 325.541   7
  -4   4  -8 2826.40 396.803   6
  -4  -4  -8 3054.48 411.160   2
   4  -4   8 2821.65 372.751   1
   4   4   8 2397.16 379.461   5
   4   4   9 83.2904 96.3308   8
   4   4   9 332.395 241.853   5
  -4   4  -9 94.4531 115.270   7
   4  -4   9-146.329 205.861   1
  -4  -4  -9 131.844 270.151   2
  -4   4  -9 196.332 254.978   6
  -4   4 -10 1185.23 189.853   7
   4  -4  10 937.328 253.605   1
  -4   4 -10 531.468 289.728   6
   4   4  10 1325.92 297.932   5
   4   4  10 1220.60 174.569   8
   4  -4  11 1223.50 234.592   4
   4   4  11 2065.01 379.540   5
  -4   4 -11 2332.32 263.370   7
  -4   4 -11 5340.00 464.148   6
  -4  -4 -11 4216.83 460.687   2
  -4   4 -12 703.329 314.332   6
   4   4  12 1210.99 177.895   8
  -4  -4 -12 739.049 343.213   2
   4   4  12 909.590 301.201   5
  -4   4 -12 1245.44 192.598   7
   4  -4  12 921.617 285.506   1
   4  -4  12 977.287 177.615   4
  -4  -4 -13-565.916 329.539   2
   4   4  13 13.7614 122.105   8
   4  -4  13 201.411 248.438   1
   4  -4  13-85.1610 133.927   4
  -4   4 -13 561.986 311.763   6
   4   4  13 89.1230 276.391   5
  -4   4 -13-105.722 137.895   7
  -4   4 -14 1490.22 381.044   6
  -4  -4 -14 2186.38 406.728   2
   4   4  14 1854.71 243.752   8
   4   4  14 1948.13 367.336   5
   4  -4  14 1626.54 356.165   1
  -4   4 -14 1675.49 259.786   7
   4  -4  14 1935.69 252.003   4
   4  -4  15-16.8462 135.335   4
  -4  -4 -15 42.7823 333.387   2
   4   4  15-175.408 308.015   5
  -4   4 -15 421.624 330.023   6
   4  -4  15-356.031 295.212   1
  -4   4 -15-102.533 148.522   7
   4   4  15 73.6838 127.251   8
   4   4  16 405.599 148.305   8
  -4  -4 -16 269.863 152.446   3
   4  -4  16 323.926 311.054   1
  -4  -4 -16 175.137 364.290   2
   4  -4  16 264.581 155.360   4
  -4   4 -16 485.278 166.536   7
   4   4  16 28.0212 324.208   5
  -4   4 -16 471.419 355.062   6
   4   4  17-278.458 352.585   5
   4   4  17 15.8496 141.487   8
  -4   4 -17 54.7166 163.560   7
   4  -4  17 201.797 323.279   1
  -4  -4 -17-31.7258 152.076   3
  -4   4 -17 30.6559 370.002   6
  -4  -4 -17-194.732 381.084   2
   4  -4  17-73.8452 165.050   4
  -4   4 -18 292.384 186.483   7
   4   4  18 320.504 162.651   8
  -4  -4 -18 477.991 412.291   2
   4  -4  18 271.009 176.572   4
  -4  -4 -18 306.441 174.775   3
   4  -4  18 227.120 335.669   1
  -4   4 -18-63.9412 391.358   6
   4   4  18 168.242 368.382   5
  -4   4 -19-1184.58 448.013   6
   4  -4  19-192.690 189.322   4
   4   4  19-559.095 429.547   5
  -4   4 -19-68.3084 203.076   7
  -4  -4 -19-122.126 178.592   3
   4  -4  19-889.941 390.567   1
   4   4  19-103.260 166.070   8
  -4  -4 -19-1367.49 481.945   2
   4   4  20 1066.07 211.716   8
  -4   4 -20 1248.56 450.012   6
  -4   4 -20 928.780 235.568   7
   4  -4  20 661.078 393.448   1
  -4  -4 -20 863.965 230.143   3
   4   4  20 1286.74 449.262   5
  -4  -4 -20 656.453 468.491   2
   4  -4  20 1087.30 235.768   4
  -4  -4 -21-175.031 192.537   3
   4  -4  21 91.2426 203.930   4
  -4   4 -21 277.676 429.340   6
  -4   4 -21 20.8863 201.290   7
   4   4  21 299.806 444.573   5
   4  -4  21-216.228 396.425   1
   4   4  21-28.0460 181.377   8
  -4  -4 -21 118.815 459.006   2
   4   4  22 1658.63 503.752   5
   4  -4  22 1219.91 274.758   4
  -4  -4 -22 808.241 508.107   2
  -4   4 -22 1177.41 269.387   7
  -4  -4 -22 1341.26 273.258   3
   4   4  22 1398.77 257.693   8
  -4   4 -22 2150.25 499.936   6
   4  -4  22 1330.04 449.032   1
   4   4  23-153.945 212.315   8
   4  -4  23-190.201 241.214   4
  -4   4 -23-465.937 471.461   6
   4   4  23-584.609 498.177   5
  -4   4 -23 133.941 222.508   7
   4  -4  23-276.948 427.770   1
  -4   4 -24 1175.93 326.782   7
   4  -4  24 865.169 323.616   4
   0   5   0-86.2427 119.980   5
   0  -5   0-7.26071 52.3908   4
   0   5   0-33.2090 117.662   6
   0   5   0 24.5544 49.7831   7
   0  -5   0-65.6415 150.755   2
   0   5   0-6.31668 43.9458   8
   0   5  -1 30.5590 43.8100   8
   0  -5  -1 67.3406 150.902   2
   0  -5  -1 49.1489 46.0681   4
   0  -5   1-7.94317 50.1564   4
   0   5   1 3.34763 45.1652   8
   0   5   1 58.7606 116.925   5
   0   5   1-36.5108 120.344   6
   0   5  -1-41.8324 53.4619   7
   0  -5   1 7.31660 147.915   2
   0   5  -1 70.3365 108.434   5
   0   5   1 31.8635 48.7273   7
   0   5  -1-7.23674 129.993   6
   0   5   2-3.68700 49.5893   8
   0  -5  -2 69.8756 151.021   2
   0   5  -2 40.0600 47.2069   8
   0  -5   2-34.7462 58.5723   4
   0   5   2 48.6920 117.329   5
   0   5  -2-39.0391 135.269   6
   0   5   2 43.9882 110.490   6
   0  -5   2-42.8739 147.869   2
   0   5   2 8.87844 48.2647   7
   0   5  -2 49.7550 62.8499   7
   0  -5  -2-14.7323 45.4190   4
   0   5  -2-11.4110 111.696   5
   0  -5  -3 109.569 66.7915   3
   0   5  -3-57.3174 119.998   5
   0   5   3-14.8520 113.163   6
   0  -5   3 23.4383 119.625   2
   0   5   3 29.7210 138.071   5
   0  -5   3 23.4439 58.7310   4
   0   5  -3-13.4344 61.5976   7
   0  -5  -3 49.4812 46.3906   4
   0   5   3 27.6950 48.2440   7
   0   5  -3 33.6276 145.682   6
   0   5   4 13.1314 102.421   6
   0   5   4 17.9025 47.2467   7
   0  -5   4-20.1913 70.4120   4
   0  -5  -4-27.4791 42.3654   4
   0   5  -4 45.1285 157.636   6
   0   5   5 1358.90 142.988   7
   0   5   5 1159.51 169.730   6
   0  -5  -5 1171.77 136.954   4
   0  -5  -5 1227.92 161.416   1
   0  -5  -6 40.5644 35.4511   4
   0   5   6 38.4517 95.3801   6
   0   5   6-52.0296 46.3647   7
   0  -5  -6 12.4411 72.1424   1
   0   5   6 127.382 80.1520   8
   0   5  -6-27.8823 79.1557   7
   0  -5   7 10199.8 884.911   4
   0   5   7 7051.19 859.688   6
   0  -5  -7 8306.28 857.698   1
   0   5  -7 10157.0 932.782   6
   0  -5  -7 8684.28 852.525   4
   0  -5  -7 10011.6 883.018   3
   0   5   7 8568.63 915.758   5
   0   5   8 20.7302 197.936   5
   0  -5  -8-36.0582 93.7689   3
   0  -5   8 38.6022 84.6364   4
   0   5  -8 45.9590 204.809   6
   0  -5   9 4886.23 520.273   4
   0  -5  -9 4927.42 517.901   3
   0   5  -9 4051.58 573.090   6
   0   5   9 4217.65 568.583   5
   0   5   9 5187.12 516.652   8
   0   5  -9 4757.98 516.631   7
   0  -5 -10-20.6086 109.013   3
   0   5  10-93.9480 221.595   5
   0  -5  10-77.9714 105.955   4
   0   5 -10-88.6663 240.314   6
   0   5 -10-68.7917 109.377   7
   0   5  10-26.5177 103.565   8
   0   5 -11 480.820 128.126   7
   0  -5  11 452.608 127.236   4
   0  -5 -11 374.618 134.206   3
   0   5  11 370.123 120.986   8
   0   5  11 615.015 257.482   5
   0   5 -11 384.977 248.784   6
   0   5 -12 4925.52 454.875   6
   0   5  12 1306.80 238.304   8
   5   0  12 5385.82 339.316   5
   0   5 -12 1806.95 248.015   7
   0  -5 -12 1007.19 241.259   3
   5   0  13 997.732 217.183   1
   5   0  13 674.464 207.704   5
   0   5 -13 782.880 161.650   7
   0   5  13 708.713 160.684   8
  -5   0 -13 673.874 282.569   6
   0   5 -13 823.536 302.473   6
   0  -5 -13 893.640 178.625   3
   0  -5  13 591.852 154.582   4
   0   5  13 969.654 313.444   5
  -5   0 -14 154.933 126.892   7
   5   0  14-20.2348 187.283   1
   0   5  14-73.9275 300.569   5
   0  -5 -14 54.1825 147.766   3
   0   5 -14 88.3672 134.650   7
   0  -5  14 164.896 119.602   4
  -5   0 -14 206.427 269.321   6
   0   5  14 250.053 140.502   8
   0   5 -14-14.9990 296.490   6
   0   5 -15 307.594 149.724   7
  -5   0 -15 348.456 149.111   7
  -5   0 -15-63.2995 273.681   6
   5   0  15 136.195 196.102   1
   0  -5  15-42.7242 133.474   4
   0  -5 -15 135.448 161.718   3
   0   5 -15 343.537 314.182   6
   0   5  15 543.614 332.614   5
   0   5  15 119.747 149.997   8
  -5   0 -16-171.137 285.016   6
   0  -5 -16-134.517 174.620   3
   5   0  16-24.0202 110.107   4
   0  -5  16 35.0400 129.466   4
   0   5  16-147.290 341.015   5
   0   5  16 80.2832 162.013   8
   0   5 -16-206.224 163.521   7
   5   0  16-164.408 215.734   1
  -5   0 -16-46.4588 137.498   7
   0  -5  17 215.605 136.079   4
   0   5  17 427.408 365.528   5
   5   0  17 217.170 118.479   4
   5   0  17 376.093 233.003   1
  -5   0 -17 88.5223 297.778   6
   0   5  17 371.376 165.326   8
   0   5 -17 70.7760 157.182   7
  -5   0 -17 203.453 159.912   7
   0  -5 -17 120.590 183.258   3
   0   5  18-160.435 370.991   5
   0  -5 -18 152.166 204.775   3
  -5   0 -18-261.602 308.413   6
   0   5 -18 36.4978 158.869   7
  -5   0 -18-50.8213 165.627   7
   0   5  18 123.530 170.440   8
   0   5  19 1805.17 502.556   5
   0  -5 -19 2021.90 345.042   3
   0   5  19 2196.50 318.772   8
   0   5 -19 2397.01 314.718   7
   0   5  20 152.839 188.065   8
   0  -5 -20 317.481 245.066   3
   0   5  20-96.1719 412.293   5
   0   5 -20 203.108 176.551   7
   0   5  21 2839.62 377.411   8
   0   5  21 2635.89 560.663   5
   0  -5 -21 2785.64 418.918   3
   0   5 -21 2819.25 368.465   7
   0  -5 -22 73.9019 258.978   3
   0   5  22-611.860 462.952   5
   0   5  22 97.5060 204.392   8
   0   5 -22 41.0173 188.886   7
   0   5  23 1386.67 490.261   5
   0   5  23 880.003 253.031   8
   0  -5 -23 990.768 312.661   3
   0  -5 -24-291.455 290.230   3
   0   5  24 399.665 468.025   5
   0   5  26-11.8070 229.071   8
   0   5  27-108.551 233.108   8
   0  -5 -27 280.277 295.484   3
   0   5  28 307.659 245.843   8
   1   5   0 115.474 53.9216   8
  -1  -5   0 121.727 54.2188   4
  -1   5   0 47.5894 57.8395   7
   1  -5   0 56.3795 52.9839   3
  -1   5   0 57.7874 112.725   5
   1   5   0 40.0635 140.754   5
   1   5   0-4.56960 63.8880   7
  -1  -5   0 158.166 175.384   2
  -1   5   0 81.0900 49.1486   8
  -1   5   0 25.9219 122.076   6
   1  -5   0 10.8726 52.3090   4
   1  -5   1 4590.31 532.643   2
  -1  -5  -1 5976.43 569.328   2
  -1   5  -1 4851.95 539.641   6
   1   5   1 5045.56 547.758   5
  -1  -5   1 5131.17 547.698   2
  -1  -5  -1 4802.60 507.882   4
   1  -5  -1 5225.84 510.175   4
  -1   5   1 4376.09 528.698   6
   1  -5   1 4902.67 511.311   4
   1   5  -1 5710.50 523.448   7
   1  -5  -1 4465.85 527.188   1
  -1   5   1 5069.88 511.932   7
  -1   5  -1 4359.76 510.531   7
  -1  -5   1 4265.98 509.448   4
   1  -5  -1 5503.06 513.653   3
   1  -5   1 5524.00 509.348   3
  -1   5   1 5087.92 509.879   8
   1   5   1 5770.42 513.911   8
  -1   5   1 4120.59 528.090   5
  -1   5  -1 4278.96 522.522   5
   1   5   1 5405.17 514.742   7
  -1   5  -1 4688.54 504.396   8
  -1   5  -2-17.7796 40.4239   8
  -1   5  -2-7.53382 136.751   6
   1  -5   2-95.7764 135.655   2
   1  -5   2-11.8158 50.0861   3
  -1   5   2 96.1583 57.6863   8
  -1   5  -2-42.3818 96.6677   5
  -1   5   2 68.2180 118.310   6
  -1   5   2-117.341 128.048   5
  -1  -5   2 9.01152 55.8277   4
   1   5   2 20.3596 51.6570   7
  -1  -5  -2 14.9739 41.8834   4
   1   5  -2-180.104 167.898   6
  -1   5   2 44.0832 58.7990   7
   1  -5  -2 50.5557 50.4789   4
   1  -5  -2-52.6753 103.848   1
  -1  -5  -2-93.0239 172.324   2
   1   5  -2 50.0161 80.0106   7
   1  -5  -2 12.6399 63.3215   3
   1   5   2-7.83400 55.0506   8
   1  -5   2 4.17120 54.7205   4
  -1   5  -2-21.6172 58.4626   7
   1   5   2-57.0381 135.777   5
   1  -5   3 707.888 106.530   4
   1  -5   3 766.449 163.816   2
  -1   5  -3 552.350 122.767   5
  -1   5   3 771.968 108.237   8
  -1  -5   3 728.605 108.632   4
   1  -5  -3 762.527 132.558   1
  -1   5   3 468.173 160.115   5
  -1   5  -3 722.607 88.9475   8
   1  -5  -3 651.201 107.918   3
  -1   5   3 496.585 143.238   6
  -1   5   3 784.511 102.525   7
  -1   5  -3 793.476 180.765   6
   1   5   3 477.748 165.766   5
   1   5   3 653.727 93.3814   7
  -1   5  -4 3135.55 312.044   8
   1  -5  -4 3053.67 334.641   1
   1   5   4 2873.60 311.787   7
  -1   5   4 3258.23 319.846   7
   1  -5   4 3276.04 346.898   2
  -1   5   4 3177.13 342.796   6
  -1   5  -4 2482.89 326.311   5
  -1   5   5 1278.37 183.455   6
   1   5   5 1317.74 158.618   8
   1   5  -5 1173.00 172.549   7
   1   5   5 1210.26 139.948   7
   1  -5  -5 1476.12 166.602   1
   1  -5   5 1100.24 164.055   2
  -1   5  -5 1055.64 162.007   7
  -1   5  -5 1095.78 165.160   5
  -1  -5  -5 1371.79 261.248   2
  -1   5   5 1650.56 158.757   7
   1  -5  -6 4184.66 433.840   3
  -1   5  -6 3674.47 480.790   6
  -1   5  -6 3687.86 419.411   5
  -1   5   6 4285.94 430.409   6
   1   5  -6 4387.95 439.715   7
  -1   5  -6 3842.90 427.919   7
   1   5   6 3988.42 404.781   7
  -1  -5   6 3465.66 426.298   4
   1  -5   6 4425.08 430.603   4
   1   5   6 4332.13 472.458   5
  -1   5   6 4378.89 434.185   8
  -1   5   6 3520.92 466.484   5
  -1  -5  -7 1120.90 161.005   3
  -1  -5   7 1063.55 157.351   4
  -1   5   7 1235.89 235.620   5
  -1   5  -7 918.410 158.326   5
   1   5   7 944.543 240.297   5
  -1   5  -7 1106.01 252.692   6
   1  -5   7 1109.97 164.425   4
   1   5  -7 1376.10 171.186   7
  -1   5   7 1246.33 167.671   8
   1  -5  -7 1495.26 178.632   3
  -1   5   7 1168.31 172.861   6
  -1  -5  -8 7705.36 679.421   3
   1   5   8 7218.04 673.678   8
  -1  -5   8 5741.26 671.419   4
  -1   5  -8 6227.98 725.604   6
   1  -5   8 6488.32 676.614   4
  -1  -5  -8 6496.41 727.031   2
  -1   5   8 6111.71 714.717   5
   1   5   8 5642.05 712.561   5
   1  -5  -8 5947.79 681.344   3
  -1  -5  -9 2140.41 234.795   3
   1  -5  -9 1863.91 242.599   3
  -1   5  -9 1718.30 229.767   7
   1  -5   9 1713.23 233.111   4
  -1   5   9 1747.77 313.691   5
  -1   5  -9 1378.51 315.074   6
   1   5   9 1657.96 311.956   5
   1   5   9 1929.57 226.304   8
  -1  -5 -10 1349.22 187.072   3
  -1   5 -10 1253.19 188.667   7
   1  -5  10 842.056 177.971   4
  -1   5  10 1463.54 195.217   8
   1   5  10 1257.16 178.312   8
   1  -5 -10 1411.99 202.981   3
  -5   1 -10 671.876 257.257   6
   5  -1  10 1744.61 232.263   1
  -1   5  10 1682.03 300.817   5
   1   5  10 1605.25 293.614   5
  -1   5 -10 1081.75 293.097   6
  -1  -5 -11 1830.38 232.542   3
   1   5  11 1153.34 321.794   5
  -1   5  11 1712.00 238.105   8
   1   5  11 1545.07 220.612   8
   1  -5 -11 1261.46 237.069   3
   1  -5  11 1785.04 236.086   4
  -1   5 -11 1853.60 231.297   7
  -1   5  11 1500.49 331.666   5
  -5   1 -11 1892.74 323.654   6
   5  -1  11 1921.79 267.234   1
  -1   5 -11 2230.36 347.665   6
  -5   1 -11 1842.84 229.544   7
  -1   5  12-333.254 342.468   5
   5  -1  12-384.101 198.892   5
  -1   5 -12 52.8908 336.697   6
   5  -1  12-614.698 231.187   1
   1  -5 -12 27.4166 170.840   3
  -5   1 -12 254.943 157.580   7
   1   5  12 12.9077 379.939   5
   1   5  12 779.349 178.021   8
  -1   5  12 41.2246 150.662   8
  -5   1 -12 919.764 347.241   6
   1  -5  12-126.074 150.188   4
  -1   5 -12-14.9161 146.127   7
  -1   5 -13 1372.06 351.789   6
  -1   5  13 2306.79 268.128   8
   1   5  13 1783.86 245.979   8
  -1   5  13 1836.47 379.979   5
   1   5  13 1750.14 367.758   5
  -1   5 -13 1838.45 253.736   7
   1  -5  13 1924.92 255.149   4
   1  -5 -13 1539.35 274.838   3
  -5   1 -13 2070.78 253.119   7
   5  -1  13 2098.22 297.089   1
   5  -1  13 1830.59 270.392   5
  -1  -5 -13 1811.00 253.609   3
  -5   1 -13 1438.21 351.655   6
   5  -1  14 905.602 241.879   1
  -5   1 -14 1676.14 332.869   6
   1   5  14 930.505 179.529   8
   1  -5  14 897.525 186.915   4
  -1   5 -14 752.589 329.445   6
   5   1  14 1146.83 264.223   5
  -5  -1 -14 903.024 307.939   2
  -1   5  14 1310.78 338.001   5
  -1  -5 -14 1050.60 195.848   3
  -1   5  14 1401.04 215.314   8
   1  -5 -14 741.144 219.031   3
  -1   5 -14 646.875 180.096   7
   1   5  14 973.971 325.417   5
  -5   1 -14 1061.41 193.919   7
   5  -1  14 1367.48 238.381   5
  -1   5  15 1456.43 225.485   8
   1  -5  15 894.545 196.577   4
  -5   1 -15 1109.76 327.906   6
   1  -5 -15 891.324 230.968   3
   5   1  15 1352.70 287.891   5
  -5   1 -15 1305.25 205.028   7
   5  -1  15 1354.83 270.331   1
  -1  -5 -15 1151.22 215.525   3
  -1   5 -15 787.109 197.257   7
  -5  -1 -15 1197.37 331.232   2
  -1   5  15 869.960 347.431   5
  -1   5 -15 1559.70 359.883   6
   1   5  15 938.851 190.731   8
   1   5  15 1304.45 367.539   5
   1   5  16 285.986 342.779   5
   5   1  16 82.2487 111.389   8
   5  -1  16 147.727 129.177   4
  -1   5 -16 110.448 320.903   6
   5  -1  16 259.897 240.779   1
  -5  -1 -16 77.2036 269.765   6
  -1  -5 -16 119.057 161.554   3
   5   1  16-188.835 213.027   1
  -1   5 -16-35.2899 156.853   7
   1  -5 -16 71.4258 198.071   3
   5   1  16-320.278 267.604   5
   1   5  16 32.6239 145.240   8
   1  -5  16-66.2795 148.993   4
  -5   1 -16 486.671 305.193   6
  -5   1 -16-33.7101 148.909   7
  -1   5  16 29.8013 171.886   8
  -1   5  16 33.7128 335.867   5
  -5  -1 -16 172.084 314.627   2
  -5  -1 -17 1474.06 378.858   2
  -5  -1 -17 1285.42 202.967   3
  -5   1 -17 1159.08 228.027   7
   1   5  17 1407.57 226.424   8
   1  -5 -17 1223.88 278.008   3
   5  -1  17 1375.74 209.029   4
  -1   5 -17 1490.12 392.880   6
  -1   5  17 1364.65 252.082   8
   5  -1  17 1705.51 317.880   1
  -1   5 -17 1431.78 242.866   7
   5   1  17 1444.60 206.060   8
   5   1  17 1506.08 340.421   5
  -5   1 -17 1417.13 361.393   6
   1   5  17 1820.49 419.766   5
   1  -5  17 1378.27 237.269   4
  -1  -5 -17 1329.04 241.759   3
  -1   5  17 1241.27 404.382   5
   1   5  18 704.472 192.734   8
   5  -1  18 436.758 283.979   1
  -1   5 -18 457.959 369.319   6
  -1   5 -18 790.870 209.443   7
  -1   5  18 761.071 393.147   5
  -1   5  18 654.482 211.599   8
   1  -5  18 983.541 210.492   4
   5  -1  18 990.177 177.687   4
  -5   1 -18 429.273 356.826   6
  -5   1 -18 820.867 206.399   7
   1  -5 -18 560.671 248.762   3
   5   1  18 774.345 161.911   8
   1   5  18 872.021 398.814   5
   5   1  18 445.588 327.093   5
  -1  -5 -18 761.486 218.241   3
   1  -5  19 1401.74 245.883   4
   1  -5 -19 1401.73 305.629   3
  -1   5 -19 1268.20 440.538   6
  -1   5 -19 1125.38 246.707   7
   1   5  19 949.844 229.182   8
   1   5  19 1091.11 477.660   5
  -1   5  19 1310.16 265.742   8
  -5   1 -19 1530.32 411.176   6
   5  -1  19 1500.48 219.110   4
  -5   1 -19 1523.22 252.287   7
   5  -1  19 981.690 337.596   1
  -1  -5 -19 1135.46 259.601   3
  -1   5  19 648.607 437.821   5
  -5   1 -20 3247.80 412.096   7
  -1  -5 -20 2805.15 421.808   3
   1   5  20 3464.31 403.975   8
  -1   5 -20 3692.82 565.335   6
   1  -5  20 3113.51 406.021   4
  -1   5 -20 3275.61 407.782   7
   1   5  20 2818.03 579.963   5
   1  -5 -20 3000.34 444.432   3
  -1   5  20 3757.91 430.500   8
  -1   5  20 2127.52 542.203   5
   1  -5 -21 656.288 284.263   3
  -1   5 -21 515.709 210.754   7
   1   5  21 764.223 207.992   8
  -1   5  21 518.438 232.965   8
   1  -5  21 461.879 197.689   4
  -1   5  21 965.710 430.536   5
  -1  -5 -21 414.626 240.852   3
   1   5  21 1282.56 479.432   5
   1  -5 -22 1534.14 355.878   3
  -1   5 -22 2345.32 316.287   7
   1  -5  22 1904.51 294.705   4
   1   5  22 1266.49 511.946   5
  -1  -5 -22 1570.59 342.392   3
  -1   5  22 2063.43 321.405   8
   1   5  22 1692.23 296.377   8
   1   5  23 525.916 491.687   5
  -1   5 -23 598.871 230.587   7
   1   5  23 272.308 210.011   8
  -1  -5 -23 537.263 281.187   3
  -1   5  23 735.996 242.590   8
   1  -5 -23 80.9273 281.804   3
  -1  -5 -24 105.198 278.019   3
   1   5  24 350.588 215.309   8
   1   5  24 390.465 512.724   5
  -1   5 -24 476.501 233.663   7
  -1  -5 -25 365.124 314.327   3
   1   5  25-996.857 542.307   5
  -1   5  26 38.0118 238.067   8
   1   5  27 46.7112 223.134   8
  -1   5 -27 263.025 234.704   7
  -1   5  27 179.252 245.002   8
  -1   5  28-167.815 245.741   8
  -1   5  29 142.812 256.162   8
   2  -5   0 7720.05 763.670   3
   2  -5   0 6723.43 781.149   1
  -2   5   0 7062.14 779.154   5
  -2   5   0 7372.77 759.099   8
  -2   5   0 7777.52 789.884   6
  -2   5   0 8037.05 767.658   7
  -2   5   1 905.294 185.240   5
   2  -5   1 1215.69 140.878   3
   2  -5  -1 1131.06 145.598   3
  -2   5   1 965.473 136.415   8
  -2   5   1 1188.66 198.974   6
   2  -5   1 1070.67 185.865   1
   2  -5  -1 1007.33 169.190   1
  -2   5  -1 1052.32 201.652   6
  -2   5  -1 1121.74 148.642   7
  -2   5  -1 1061.71 175.388   5
  -2   5  -1 999.936 131.590   8
  -2   5   1 1069.02 141.413   7
  -2   5   2 5426.03 577.439   5
   2  -5  -2 5295.08 562.992   1
   2  -5  -2 5297.44 550.716   3
  -2   5  -2 5241.03 536.289   8
  -2   5  -2 5516.30 585.311   6
  -2   5   2 5601.59 547.525   7
  -2   5   2 5403.51 569.113   6
   2  -5   2 5175.37 540.220   3
  -2   5   2 5302.42 548.273   8
  -2   5  -2 4715.19 553.718   5
   2  -5  -3 4940.32 512.717   3
  -2   5  -3 5100.96 492.513   8
  -2   5  -3 4324.93 509.072   5
   2  -5   3 5095.64 496.339   3
  -2   5   3 4418.32 502.962   7
   2  -5  -3 4979.33 517.936   1
  -2   5   3 4654.92 536.962   5
  -2   5   3 4614.04 524.284   6
   2   5   4 3244.59 301.349   8
  -2   5  -4 2734.41 303.728   7
   2  -5  -4 3220.52 311.109   1
  -2  -5  -4 2968.95 388.138   2
  -2   5   4 2773.60 326.738   6
   2  -5   4 2738.60 283.319   3
  -2   5  -4 2381.48 277.460   8
  -2   5  -4 2451.20 300.615   5
   2  -5   5 1633.91 158.207   3
   2   5   5 1049.25 254.047   5
  -2   5  -5 1347.56 252.160   6
   2  -5   5 1609.15 193.739   2
  -2   5   5 1325.88 186.036   8
   2  -5   5 1266.56 178.766   4
  -2   5  -5 1413.90 151.040   8
  -2   5  -5 1151.54 182.968   7
  -2   5  -5 1217.92 178.966   5
  -2   5  -6 4464.20 434.261   8
   2  -5   6 4525.02 436.476   3
   2  -5  -6 4653.45 476.064   3
  -2   5   6 4178.91 507.387   5
  -2   5  -6 3425.52 444.526   5
  -2   5  -6 3872.45 506.377   6
   2  -5   6 3907.86 446.547   2
   2  -5   6 4555.93 463.540   4
   2   5   6 4047.87 510.927   5
  -2   5   6 4823.49 471.854   8
  -2   5  -7 5119.56 613.313   5
  -2  -5  -7 7131.39 699.032   2
   2   5   7 6728.43 633.709   8
   2   5   7 6026.07 684.657   5
  -2   5  -7 5669.31 679.052   6
   2  -5  -7 6645.67 651.336   3
   2  -5   7 6070.06 608.216   3
   5  -2   7 6891.50 663.980   1
  -2   5   7 5263.61 680.357   5
   2  -5   7 7055.61 641.110   4
  -2   5   7 6379.04 645.842   8
  -2  -5  -8 2831.74 389.094   2
  -2   5  -8 2582.82 301.792   7
   2  -5   8 2623.48 305.125   4
   2   5   8 2656.25 293.855   8
  -5   2  -8 2562.81 307.550   7
  -2   5   8 2163.30 365.602   5
  -2   5   8 2543.74 314.355   8
  -5   2  -8 2579.77 350.385   6
   2  -5  -8 2914.25 324.009   3
   5  -2   8 3043.15 338.271   1
  -2   5  -8 2021.75 364.499   6
   2   5   8 2437.68 374.171   5
   2   5   9 2737.70 409.276   5
  -2   5  -9 2440.32 410.983   6
   2   5   9 3389.81 342.015   8
  -5   2  -9 3501.02 356.852   7
  -2   5   9 3353.68 420.026   5
   2  -5  -9 2315.74 364.237   3
  -2  -5  -9 3382.51 431.781   2
   2  -5   9 2901.80 347.185   4
   5  -2   9 3273.97 380.563   1
  -2   5  -9 2853.44 344.802   7
  -5   2  -9 3298.62 407.745   6
  -2   5  10 3997.20 490.949   5
  -2  -5 -10 3874.85 403.779   3
  -2   5 -10 3144.08 478.005   6
   2  -5 -10 4081.31 437.027   3
   5  -2  10 3493.08 439.147   1
  -5   2 -10 3324.50 406.047   7
  -5   2 -10 3852.62 473.668   6
  -2  -5 -10 4008.49 494.089   2
   2  -5  10 3798.05 407.258   4
  -2   5 -10 3650.30 407.131   7
   2   5  10 3200.99 394.548   8
   2   5  10 4145.74 476.484   5
  -2   5  11-62.9851 173.259   8
   2  -5 -11 10.3597 184.652   3
   5   2  11-454.826 258.441   5
   5  -2  11-441.838 253.873   1
  -5   2 -11-122.124 162.268   7
  -2  -5 -11-263.573 158.599   3
  -2   5  11-600.617 321.584   5
   2   5  11-223.932 140.654   8
  -5   2 -11-933.720 329.653   6
  -2   5 -11-134.979 154.283   7
   2  -5  11-95.6104 150.595   4
  -2  -5 -12 5629.00 547.956   3
   2  -5 -12 5890.36 582.610   3
   5   2  12 4483.26 575.747   5
  -2   5  12 4744.34 617.640   5
  -5   2 -12 5903.64 558.965   7
   2   5  12 4827.06 538.710   8
  -5   2 -12 4673.15 627.990   6
  -2   5  12 4803.02 564.810   8
   5  -2  12 5334.51 588.456   1
   2  -5  12 4678.16 546.112   4
  -2  -5 -12 4635.79 632.401   2
  -2   5 -12 4084.83 614.517   6
   2   5  12 4255.12 610.812   5
  -2   5 -12 5057.70 546.247   7
   5  -2  13 196.447 167.997   5
  -2   5 -13 659.329 309.439   6
   2   5  13 382.276 284.833   5
   2   5  13 383.365 128.180   8
   5  -2  13 782.366 235.883   1
  -2  -5 -13 313.505 136.829   3
  -2   5  13 534.984 305.406   5
  -5  -2 -13 495.318 224.198   6
  -2   5  13 433.390 170.831   8
  -5   2 -13 421.424 159.081   7
  -2  -5 -13 170.858 307.229   2
   2  -5  13 512.027 154.750   4
  -2   5 -13 404.872 149.932   7
   2  -5 -13 489.966 196.972   3
  -5   2 -13 722.315 308.726   6
   5   2  13 313.844 239.476   5
  -5  -2 -13 275.080 281.587   2
  -2   5 -14 2248.03 322.397   7
   5   2  14 2663.88 388.956   5
   2   5  14 3188.62 441.253   5
   2   5  14 2438.65 314.716   8
   5   2  14 2565.08 303.524   8
  -2   5  14 2379.14 427.458   5
  -5   2 -14 2821.45 332.436   7
   2  -5  14 2851.92 333.622   4
  -5   2 -14 2987.90 442.094   6
   5  -2  14 2246.20 375.934   1
  -2   5  14 2292.18 339.171   8
  -5  -2 -14 2086.31 428.586   2
   2  -5 -14 2962.48 372.663   3
  -5  -2 -14 2774.62 375.291   6
  -2  -5 -14 2961.14 447.923   2
  -2   5 -14 2271.74 429.861   6
  -2  -5 -14 2884.06 327.253   3
   2   5  15 258.367 135.721   8
  -5   2 -15 633.188 172.982   7
  -5   2 -15 589.328 321.097   6
  -2  -5 -15 863.419 354.206   2
  -2   5 -15 602.804 329.759   6
  -2   5 -15 630.066 169.090   7
   5   2  15 514.421 269.458   5
   5  -2  15 886.542 260.515   1
   2  -5 -15 556.113 228.111   3
   2   5  15 445.680 339.533   5
   5  -2  15 636.866 151.930   4
  -2   5  15 745.109 200.397   8
   2  -5  15 574.158 164.466   4
   5   2  15 514.760 145.845   8
  -2  -5 -15 451.589 160.205   3
  -5  -2 -15 257.766 312.235   2
  -5  -2 -15 148.654 247.782   6
  -2   5  15 114.071 317.063   5
  -5  -2 -16 2834.53 446.368   2
   5   2  16 1687.62 389.544   5
  -5   2 -16 2628.87 320.726   7
   5   2  16 2143.48 292.794   8
  -2  -5 -16 2512.26 452.960   2
  -2   5 -16 2568.88 317.483   7
   5  -2  16 2390.24 298.760   4
   2   5  16 3327.79 474.257   5
  -2   5  16 2409.63 448.360   5
  -2   5 -16 1898.74 434.308   6
   2  -5  16 2292.74 319.949   4
   5  -2  16 2889.62 397.901   1
  -5   2 -16 2304.66 431.160   6
   2   5  16 2469.73 305.323   8
   2  -5 -16 2129.79 355.050   3
  -2  -5 -16 2364.30 315.404   3
  -2   5  16 2016.60 336.134   8
   5  -2  17 130.413 267.689   1
   2   5  17 227.590 374.577   5
  -5   2 -17 72.4781 163.513   7
   5   2  17-21.5024 132.452   8
  -5  -2 -17 66.7923 131.312   3
  -2  -5 -17 44.9526 161.532   3
  -2   5  17 17.1328 331.119   5
  -5   2 -17-304.051 347.083   6
   2  -5 -17 84.2923 214.783   3
  -2   5 -17-540.781 369.178   6
   2   5  17 48.5067 144.822   8
  -2   5  17-105.498 193.982   8
   2  -5  17 61.1580 163.802   4
  -2  -5 -17 15.2668 371.622   2
   5  -2  17 69.4452 132.202   4
  -5  -2 -17 27.1321 349.806   2
  -2   5 -17 111.200 163.438   7
   5   2  17 312.662 303.870   5
   2   5  18 2549.71 338.266   8
   2   5  18 2139.43 492.904   5
  -2   5 -18 2168.77 483.622   6
   2  -5 -18 2649.32 398.473   3
  -2   5  18 2565.75 381.750   8
  -2   5 -18 2652.33 351.921   7
  -5  -2 -18 2821.45 488.479   2
  -5   2 -18 3075.31 359.149   7
   5   2  18 2948.74 332.155   8
   2  -5  18 3112.94 364.744   4
   5  -2  18 2750.55 336.951   4
   5   2  18 3048.98 456.582   5
  -5  -2 -18 2416.99 320.774   3
  -2  -5 -18 2885.02 512.500   2
  -2  -5 -18 2402.48 353.409   3
  -5   2 -18 2188.56 471.873   6
   5  -2  18 2254.77 429.116   1
  -5  -2 -19 3441.94 515.396   2
   2   5  19 2879.11 327.070   8
  -2  -5 -19 2084.61 342.996   3
  -2   5  19 1937.26 352.566   8
  -5  -2 -19 1619.44 290.884   3
   2   5  19 5350.20 600.287   5
  -5   2 -19 2858.98 486.791   6
   5  -2  19 1975.28 307.545   4
  -2   5 -19 2706.44 510.440   6
  -2   5 -19 1823.67 325.558   7
   5  -2  19 2476.29 437.017   1
   5   2  19 2124.82 300.094   8
  -2  -5 -19 5892.95 603.295   2
   2  -5  19 2052.71 329.136   4
   2  -5 -19 2179.52 387.179   3
   5   2  19 2526.50 464.382   5
  -5   2 -19 2019.85 330.207   7
   5  -2  20 2419.19 458.994   1
  -2  -5 -20 2294.28 373.557   3
  -2   5  20 3364.42 411.222   8
  -5   2 -20 2712.98 369.586   7
   2   5  20 2854.56 558.043   5
   2   5  20 2805.99 354.666   8
  -2   5 -20 2670.03 370.905   7
   2  -5  20 3347.34 384.407   4
   5  -2  20 2728.16 350.406   4
  -5   2 -20 1755.56 500.561   6
  -2  -5 -20 2307.00 554.153   2
  -2   5 -20 2164.70 528.769   6
   5  -2  21 2058.43 429.645   1
   2   5  21 2797.92 326.764   8
   2  -5  21 2555.53 356.227   4
  -2   5 -21 2235.11 337.332   7
   2   5  21 1979.24 537.221   5
  -5   2 -21 2308.34 337.983   7
   5  -2  21 2170.83 316.795   4
  -2  -5 -21 1347.42 542.451   2
  -5   2 -21 2506.63 500.277   6
  -2   5 -21 1462.16 499.271   6
  -2  -5 -21 1859.14 338.165   3
  -2   5  21 2337.18 373.732   8
   2   5  22 2038.41 306.181   8
  -2   5 -22 1475.09 297.185   7
  -2  -5 -22 2426.36 562.537   2
  -2  -5 -22 1859.47 331.888   3
   2  -5  22 1485.86 299.957   4
   2   5  22 2216.91 553.566   5
  -2   5 -22 1089.65 482.114   6
  -2   5  22 1543.17 327.817   8
  -2   5 -23 1129.03 477.123   6
   2   5  23 1188.73 238.740   8
   2  -5  23 700.037 250.680   4
   2   5  23 480.460 515.388   5
  -2   5 -23 981.710 261.716   7
  -2  -5 -23 647.344 538.428   2
  -2  -5 -23 443.767 285.547   3
   2  -5  24 920.018 256.487   4
  -2   5 -24-898.694 543.296   6
   2   5  24 152.077 588.054   5
  -2  -5 -24-1162.40 602.920   2
  -2  -5 -24 192.965 294.814   3
  -2   5 -24 550.657 257.282   7
   2   5  24 261.444 230.603   8
   2   5  25 919.634 538.271   5
   2  -5  25 145.703 233.554   4
  -2  -5 -25 175.129 286.240   3
  -3   5   0 1374.84 179.090   8
  -3   5   0 1785.54 245.881   5
   3  -5   0 1382.46 193.554   3
  -3   5   0 1295.53 237.046   6
  -3   5  -1 4139.74 437.100   8
  -3   5   1 4778.49 491.357   5
  -3   5   1 4221.19 444.542   8
   3  -5  -1 4568.24 456.074   3
  -3   5   1 3963.92 477.736   6
   3  -5   1 3671.39 443.795   3
   3  -5  -2-14.5295 100.307   3
  -3   5  -2 18.8846 62.1547   8
   3  -5   2-9.13638 136.107   1
  -3   5   2 9.90244 166.738   5
   3  -5  -2-43.3067 109.171   1
  -3   5  -2 52.7698 87.1551   7
   3  -5   2-63.2379 80.0475   3
  -3   5  -3 2289.07 257.327   8
   3  -5   3 2484.23 323.353   1
  -3   5  -3 2569.38 282.690   7
  -3   5  -4 346.640 70.0076   8
  -3   5   4 209.374 110.961   8
   3  -5   4 243.433 168.487   1
  -3   5  -4 175.728 205.009   6
  -3   5  -4 434.823 108.016   7
   3   5   5 1151.17 254.176   5
   3  -5  -5 948.971 183.600   3
   5  -3   5 1162.80 197.572   1
  -3   5  -5 996.679 246.159   6
  -3   5   5 1162.55 242.394   5
   3  -5   5 1088.48 219.869   1
  -3   5  -5 1099.57 165.748   7
  -3   5   5 833.639 160.360   8
  -3   5  -5 1000.18 119.054   8
  -3   5  -6 3064.08 317.290   8
   3  -5  -6 2908.73 373.690   3
  -3   5   6 3884.03 422.139   5
   3   5   6 2765.04 415.586   5
  -3   5   6 2854.30 360.947   8
  -3  -5  -6 4266.69 472.869   2
  -3   5  -6 3090.10 412.043   6
   3   5   6 3340.34 347.089   8
  -5   3  -6 3205.01 360.182   7
   5  -3   6 2994.76 379.419   1
   5  -3   7 2227.51 295.560   1
  -5   3  -7 2259.73 319.045   6
  -3   5  -7 1693.82 328.849   6
   3  -5  -7 2457.27 292.876   3
  -3   5   7 2364.34 340.898   5
  -3   5   7 1879.53 261.504   8
   3  -5   7 2382.25 258.337   4
  -3  -5  -7 3072.88 390.028   2
   3   5   7 2340.56 345.654   5
  -3   5  -7 1911.84 212.204   8
   3   5   7 2770.31 254.318   8
  -5   3  -7 2351.16 264.367   7
  -3   5   8 2903.31 407.821   8
  -3  -5  -8 4181.18 501.981   2
  -3   5   8 3511.56 470.714   5
   3   5   8 3666.68 398.896   8
   3  -5   8 3764.89 405.951   4
   3  -5  -8 3600.97 432.314   3
  -3   5  -8 4062.17 409.176   7
  -5   3  -8 3169.44 451.100   6
  -3   5  -8 3225.53 462.073   6
   3   5   8 3520.87 477.855   5
  -5   3  -8 4083.54 415.349   7
   3  -5   8 3549.44 462.023   1
   5  -3   8 3872.28 441.578   1
   3   5   9 3643.27 467.783   5
   3   5   9 3656.71 388.916   8
  -5   3  -9 3119.83 397.891   7
  -3   5  -9 3791.55 396.167   7
   3  -5  -9 3033.51 420.676   3
   3  -5   9 3727.45 396.148   4
   3  -5   9 3387.58 453.963   1
  -3   5   9 3572.49 404.778   8
  -5   3  -9 3299.30 462.069   6
   5  -3   9 3706.04 438.675   1
  -3  -5  -9 3546.98 489.485   2
  -3   5  -9 3077.84 461.735   6
  -3  -5 -10 197.863 326.339   2
  -3   5 -10-736.128 367.285   6
   3   5  10 583.715 120.477   8
  -5   3 -10 528.432 150.676   7
   3  -5  10 21.6751 153.632   4
  -5   3 -10-272.094 313.441   6
   5  -3  10 115.858 209.122   1
   3  -5 -10 374.516 187.926   3
  -3   5 -10 404.318 136.294   7
   5   3  10 63.1873 237.986   5
   3   5  10-64.2290 299.568   5
   3  -5  11 1733.57 279.327   4
   3   5  11 1869.74 389.961   5
  -3   5 -11 1717.47 276.352   7
   5   3  11 1884.15 348.582   5
   5  -3  11 1748.20 343.582   1
  -5   3 -11 999.581 399.550   6
  -5   3 -11 2717.75 293.315   7
   3   5  11 2921.44 270.835   8
   3  -5 -11 1710.64 316.172   3
  -3  -5 -11 1492.21 412.508   2
  -5   3 -12 140.476 153.455   7
   3   5  12 391.444 295.934   5
   3   5  12 87.3083 108.663   8
  -3  -5 -12 608.395 318.216   2
  -5  -3 -12 76.6704 288.694   2
   5   3  12 153.283 245.808   5
   5  -3  12 450.482 229.786   1
  -3   5  12 247.219 156.384   8
  -3   5 -12 402.283 148.547   7
  -5   3 -12-77.4048 314.012   6
   3  -5  12 198.325 141.316   4
  -3  -5 -13 3787.96 453.672   3
   3   5  13 3886.58 549.207   5
  -5  -3 -13 3572.25 544.550   2
  -3   5 -13 4164.51 458.350   7
   3   5  13 4366.61 451.440   8
  -5   3 -13 3957.18 463.045   7
   5   3  13 4388.39 448.148   8
   3  -5  13 3935.49 459.531   4
  -3   5 -13 3328.66 547.112   6
  -5   3 -13 4242.32 554.570   6
   5   3  13 3630.80 509.943   5
  -3  -5 -13 4978.33 567.054   2
   5  -3  13 4035.51 518.085   1
   5   3  14 1011.80 307.421   5
   3   5  14 918.004 347.950   5
  -3  -5 -14 1216.19 211.422   3
   5  -3  14 1194.49 307.428   1
   3  -5  14 1295.88 219.471   4
   5  -3  14 1384.33 215.101   4
   3   5  14 1358.47 203.267   8
  -5   3 -14 1584.38 231.846   7
  -3   5 -14 1419.24 223.867   7
  -3  -5 -14 1600.67 385.636   2
  -5  -3 -14 1663.87 372.987   2
   5   3  14 1436.10 201.753   8
  -3   5 -14 1058.02 370.691   6
  -5   3 -14 1092.98 364.212   6
   3   5  15 1285.22 202.867   8
   5  -3  15 1557.21 325.128   1
   5   3  15 1419.28 330.284   5
  -3  -5 -15 961.570 208.368   3
   3   5  15 2044.12 384.095   5
  -5   3 -15 1032.38 366.065   6
   5  -3  15 1112.33 208.402   4
  -3   5 -15 1327.12 222.913   7
   5   3  15 1260.59 202.480   8
  -3  -5 -15 1788.50 391.799   2
   3  -5  15 1456.13 223.894   4
  -3   5 -15 1652.22 394.149   6
  -5   3 -15 1184.04 224.035   7
  -5  -3 -15 984.572 377.508   2
   3   5  16 371.286 348.283   5
  -5   3 -16 631.194 359.206   6
   3   5  16 457.500 156.107   8
   5  -3  16 304.217 148.293   4
  -5   3 -16 364.190 175.845   7
  -3  -5 -16 299.173 375.014   2
  -5  -3 -16 983.242 373.737   2
  -3   5 -16-170.825 365.106   6
  -3  -5 -16 429.757 162.922   3
  -3   5 -16 333.564 166.265   7
   5  -3  16 365.395 290.981   1
   5   3  16 444.076 144.140   8
   3  -5  16 414.530 170.121   4
   5   3  16 358.756 306.785   5
  -3  -5 -17 2796.72 463.365   2
   5   3  17 2244.38 259.281   8
  -5  -3 -17 2041.58 447.043   2
   3   5  17 2006.14 262.864   8
   5   3  17 1838.54 384.777   5
   5  -3  17 1505.36 259.547   4
   3  -5  17 2037.45 284.091   4
  -5   3 -17 1480.95 269.516   7
   3   5  17 1556.55 434.721   5
  -3   5 -17 908.655 412.320   6
  -3   5 -17 1573.62 268.134   7
  -3  -5 -17 1506.67 266.302   3
   5  -3  17 2124.64 380.045   1
  -5   3 -17 1277.38 418.320   6
   3   5  18-33.2388 153.673   8
  -3  -5 -18 54.4401 186.831   3
   5  -3  18 8.84116 162.071   4
  -5   3 -18 318.835 186.617   7
  -3   5 -18-1070.07 436.840   6
   5  -3  18-178.841 321.999   1
   5   3  18 318.479 162.663   8
   3   5  18-200.118 407.320   5
  -3  -5 -18 64.1232 416.430   2
  -5  -3 -18-869.037 434.370   2
  -5  -3 -18 99.9203 150.843   3
   3  -5  18 331.792 198.970   4
   5   3  18-340.950 342.817   5
  -3   5 -18 320.980 189.098   7
  -5   3 -18-404.687 401.853   6
   5   3  19 2653.34 307.067   8
   3   5  19 1963.03 303.434   8
  -5  -3 -19 1833.63 483.739   2
  -3  -5 -19 1225.06 507.516   2
  -5  -3 -19 2216.57 300.248   3
   5   3  19 2098.77 446.429   5
   5  -3  19 2115.24 429.177   1
   3   5  19 2253.90 501.442   5
  -3   5 -19 1254.91 474.891   6
   5  -3  19 2252.48 305.551   4
  -5   3 -19 2675.19 330.844   7
  -3   5 -19 2190.05 320.420   7
   3  -5  19 2157.38 331.200   4
  -3  -5 -19 2175.86 320.066   3
  -5   3 -19 1691.81 481.075   6
   3   5  20 1939.74 497.260   5
   5  -3  20 1172.52 397.487   1
  -3   5 -20 1599.78 459.239   6
  -5  -3 -20 1503.37 252.460   3
  -5   3 -20 1481.80 464.761   6
  -3  -5 -20 1385.42 506.840   2
   5   3  20 1451.03 434.578   5
   5   3  20 2049.16 262.604   8
  -3  -5 -20 1127.81 264.092   3
   3  -5  20 1134.41 273.959   4
   5  -3  20 1516.28 263.290   4
  -5   3 -20 1725.64 280.129   7
   3   5  20 1249.94 248.893   8
  -5  -3 -20 1808.60 476.255   2
  -3   5 -20 1986.87 294.844   7
  -3  -5 -21 1255.08 503.487   2
   3  -5  21 1149.99 260.653   4
  -3  -5 -21 873.183 258.691   3
   5  -3  21 912.273 242.239   4
   5  -3  21 1661.07 407.084   1
   3   5  21 1093.61 226.197   8
  -3   5 -21 1531.40 475.619   6
  -5   3 -21 1285.63 263.313   7
  -5   3 -21 594.930 454.833   6
  -3   5 -21 1471.88 262.299   7
   3   5  21 1351.78 486.095   5
   5   3  21 873.141 435.596   5
   5   3  21 1412.46 245.364   8
  -5   3 -22 1315.99 486.843   6
  -3  -5 -22 802.766 261.241   3
   5  -3  22 875.341 412.326   1
  -3  -5 -22 877.075 524.037   2
   3  -5  22 726.810 250.203   4
  -5   3 -22 967.660 256.104   7
  -3   5 -22 811.477 468.244   6
   3   5  22 933.216 231.386   8
   3   5  22 1109.13 512.742   5
  -3   5 -22 916.742 251.725   7
   5  -3  22 1096.61 246.319   4
   3   5  23 1193.50 551.616   5
   3   5  23 1329.31 269.928   8
   3  -5  23 960.439 279.515   4
  -3   5 -23 1333.06 505.270   6
  -3   5 -23 1360.22 285.264   7
  -5   3 -23 1139.60 285.485   7
  -3  -5 -23 1178.99 326.315   3
   3  -5  24 292.936 295.202   4
   3   5  24 1151.18 344.667   8
   3   5  24 731.036 681.798   5
  -3   5 -24 81.0066 556.094   6
  -3  -5 -25 368.663 314.494   3
   3   5  25 647.400 576.281   5
  -3   5 -26-112.218 247.434   7
   4  -5   0 70.7050 136.682   1
  -4   5  -1 559.296 217.938   6
   4  -5   1 877.467 179.403   1
  -4   5  -1 601.755 131.728   7
   4  -5   2 837.025 191.868   1
  -4   5  -2 893.606 148.062   8
  -4   5  -2 750.432 228.160   6
  -4   5  -2 865.148 146.982   7
  -4   5  -3 73.7158 97.6021   8
  -4   5  -3 123.563 108.112   7
   4  -5   3-80.4635 160.459   1
  -4   5  -3 20.2554 202.104   6
  -4   5  -4 415.058 213.579   6
  -4   5  -4 492.931 113.262   8
   4  -5   4 232.480 173.835   1
  -4   5  -4 391.439 122.435   7
  -4   5  -5 294.538 225.330   6
  -4   5  -5 91.3755 87.4955   8
  -4   5  -5 57.0454 105.984   7
   4  -5   5-55.5054 176.100   1
  -5   4  -5 10.4010 209.114   6
   5  -4   6 511.216 184.489   1
  -5   4  -6 547.841 230.957   6
  -4   5  -6 645.385 100.307   8
  -5   4  -6 254.419 128.990   7
  -4   5  -6 578.845 241.595   6
  -5   4  -7 1423.72 292.679   6
   5  -4   7 1617.27 260.705   1
   4   5   7 1479.43 292.382   5
  -4   5  -7 1244.84 149.620   8
  -4  -5  -7 1947.77 337.539   2
  -5   4  -7 1395.40 207.470   7
  -4   5  -7 849.825 297.738   6
   4   5   8 427.197 255.971   5
  -5   4  -8 511.958 140.572   7
   5  -4   8 531.367 198.450   1
  -4   5  -8 24.4764 258.824   6
  -5   4  -8 362.601 244.798   6
  -4  -5  -8 403.281 298.033   2
   4   5   8 514.386 110.204   8
  -4   5  -8 410.810 130.985   7
  -4   5  -8 221.925 46.1369   8
   4  -5   8 282.658 210.279   1
  -5   4  -9 271.380 158.641   7
   4   5   9 527.357 122.755   8
  -5   4  -9-682.363 348.208   6
   5  -4   9-422.159 294.063   1
   4  -5   9-519.683 327.704   1
  -4   5  -9-481.339 374.207   6
  -4   5  -9 187.241 162.330   7
  -4  -5  -9-264.915 413.525   2
   4   5   9-119.316 319.651   5
   5   4  10 155.653 262.552   5
   4   5  10 818.143 147.853   8
   4  -5  10 404.109 296.786   1
   4   5  10 661.577 298.992   5
   4  -5  10 951.884 171.475   4
  -5   4 -10 310.482 315.142   6
   5  -4  10 755.976 259.535   1
  -4  -5 -10 298.615 366.337   2
  -4   5 -10 814.616 180.426   7
  -4   5 -10 196.328 334.059   6
  -5   4 -10 698.964 177.808   7
   5  -4  11 229.491 241.944   1
   5   4  11-489.711 280.162   5
   4   5  11 335.674 140.823   8
  -5   4 -11 329.438 162.848   7
   4   5  11 247.119 300.724   5
  -5   4 -11 187.785 311.276   6
   4  -5  11 947.101 186.626   4
  -4  -5 -11 483.052 351.577   2
  -5  -4 -11 356.996 305.624   2
  -4   5 -12 901.445 198.342   7
  -4  -5 -12 714.713 360.891   2
   5   4  12 1076.50 174.415   8
   4   5  12 963.744 332.729   5
   4  -5  12 1102.74 301.218   1
   4  -5  12 1087.82 191.189   4
   5   4  12 807.387 300.739   5
  -5   4 -12 1141.92 199.753   7
  -5  -4 -12 1175.12 349.328   2
  -5   4 -12 856.834 349.880   6
  -4   5 -12 579.575 334.709   6
   5  -4  12 623.435 275.586   1
   4   5  12 1236.65 185.618   8
   4  -5  13 2065.53 302.249   4
  -4  -5 -13 2236.86 446.437   2
   5   4  13 2602.78 402.442   5
  -4   5 -13 2278.19 308.923   7
   4  -5  13 2444.13 408.440   1
   5  -4  13 2783.28 397.376   1
  -5   4 -13 2017.04 305.378   7
   4   5  13 2428.37 423.404   5
  -5  -4 -13 2429.81 446.653   2
  -5   4 -13 2086.02 431.708   6
   5  -4  13 2209.96 304.219   4
  -4   5 -13 1803.55 429.734   6
   4   5  13 2586.40 295.814   8
   5   4  13 2889.25 298.077   8
   5  -4  14 611.899 166.880   4
   5   4  14 193.373 303.402   5
  -4  -5 -14 900.789 375.869   2
   4   5  14 644.249 158.092   8
   5  -4  14 367.237 282.021   1
  -4   5 -14 534.200 356.159   6
   5   4  14 464.267 144.337   8
  -4   5 -14 581.938 170.735   7
   4   5  14 521.222 326.737   5
  -5   4 -14 726.797 348.757   6
   4  -5  14 459.961 166.240   4
  -5   4 -14 505.397 179.764   7
   4  -5  14 147.510 292.991   1
  -5  -4 -14 1496.30 377.110   2
   5  -4  15 880.960 217.673   4
   5   4  15 1031.71 352.397   5
   4   5  15 1584.87 385.191   5
   4  -5  15 1060.20 229.068   4
   5   4  15 1685.10 221.330   8
   5  -4  15 1643.17 350.756   1
  -5  -4 -15 2048.08 435.805   2
  -4   5 -15 1599.65 240.307   7
  -5   4 -15 1484.37 401.507   6
  -4  -5 -15 1466.02 415.162   2
  -4   5 -15 1119.75 395.020   6
   4   5  15 1675.90 226.005   8
  -5   4 -15 1452.98 240.325   7
   4  -5  15 1259.46 356.769   1
   4   5  16 503.010 353.528   5
  -4   5 -16 478.313 178.150   7
   5  -4  16 314.690 163.864   4
  -5  -4 -16 1425.37 419.221   2
   5  -4  16 279.985 312.047   1
   4   5  16 475.072 166.371   8
  -5   4 -16 549.720 187.351   7
   5   4  16 325.053 320.043   5
   5   4  16 251.446 156.028   8
   4  -5  16 654.395 340.610   1
  -4  -5 -16 948.787 409.259   2
   4  -5  16 307.254 178.672   4
  -5   4 -16 482.730 373.899   6
  -4  -5 -16 299.527 170.687   3
  -4   5 -16 412.015 386.251   6
  -4  -5 -17 226.083 170.921   3
   4   5  17-252.739 369.066   5
   4  -5  17 80.1072 174.577   4
   5   4  17 265.807 329.515   5
   5  -4  17 203.887 318.448   1
   4  -5  17-18.3976 351.452   1
  -4  -5 -17-148.060 415.455   2
  -5   4 -17-46.6596 375.554   6
  -5   4 -17 272.701 180.918   7
  -4   5 -17-19.3708 181.189   7
   5  -4  17 185.939 174.427   4
   4   5  17 50.7220 153.960   8
   5   4  17-25.2489 156.635   8
  -5  -4 -17 244.083 402.023   2
  -4   5 -17 98.7291 389.915   6
  -4   5 -18-136.871 481.551   6
  -4  -5 -18 529.275 199.450   3
   5   4  18 550.142 190.365   8
  -5  -4 -18 439.255 176.987   3
   4   5  18 914.685 431.554   5
  -4  -5 -18 1214.64 492.718   2
   5  -4  18 347.192 194.735   4
   4  -5  18 383.184 403.571   1
   4   5  18 716.205 193.895   8
   5   4  18 756.722 384.513   5
   5  -4  18 648.479 387.491   1
  -5   4 -18 450.823 213.455   7
  -4   5 -18 328.254 205.050   7
  -5   4 -18-16.0517 443.352   6
  -5  -4 -18 483.421 444.631   2
   4  -5  18 198.290 208.350   4
  -5  -4 -19 138.121 181.716   3
   5  -4  19 370.428 188.114   4
   5   4  19 370.319 179.620   8
  -4   5 -19 82.2300 191.168   7
   4   5  19 262.106 177.950   8
   4  -5  19 153.214 196.906   4
  -4  -5 -19 207.951 451.730   2
  -4   5 -19 348.723 434.105   6
  -5   4 -19 334.989 420.991   6
   4  -5  19 639.245 402.154   1
   4   5  19-84.5490 410.623   5
  -5  -4 -19-256.700 446.119   2
   5   4  19 244.175 375.614   5
   5  -4  19 433.817 354.256   1
  -4  -5 -19 438.731 195.367   3
  -5   4 -19 134.067 198.453   7
  -5   4 -20 156.173 436.680   6
  -5  -4 -20 295.997 188.044   3
  -5   4 -20 202.459 216.252   7
  -5  -4 -20-17.5584 445.551   2
   4  -5  20 265.749 202.439   4
   4  -5  20 959.302 422.580   1
   5  -4  20 466.189 364.116   1
  -4  -5 -20 612.781 213.179   3
  -4   5 -20 1074.25 459.395   6
   4   5  20 579.147 438.180   5
   5   4  20 554.034 197.763   8
   5   4  20 623.057 409.121   5
  -4  -5 -20 410.070 493.121   2
   4   5  20 519.090 203.913   8
   5  -4  20 375.155 191.378   4
  -4   5 -20 307.992 208.011   7
  -5  -4 -21 724.516 206.278   3
   5   4  21 1017.13 230.470   8
   5   4  21 418.718 426.876   5
  -5  -4 -21-361.923 498.325   2
   5  -4  21 480.892 385.464   1
  -5   4 -21 428.490 242.228   7
   5  -4  21 633.250 217.186   4
  -4   5 -21 348.103 459.447   6
  -4   5 -21 625.042 232.127   7
  -5   4 -21 414.685 459.298   6
   4  -5  21 700.810 451.308   1
   4  -5  21 766.635 254.906   4
  -4   5 -22 509.205 236.508   7
   5  -4  22 1051.81 419.998   1
   5  -4  22 535.355 232.889   4
   4   5  22 934.730 505.633   5
  -4  -5 -22 417.855 232.102   3
   5   4  22 459.593 219.422   8
  -5   4 -22 623.455 244.731   7
   4   5  22 468.571 213.714   8
  -5  -4 -22 336.046 208.615   3
  -4  -5 -22 624.488 526.162   2
   5   4  22 633.806 446.465   5
   4  -5  22 847.824 458.536   1
   4  -5  22 179.452 234.957   4
  -5   4 -22 551.726 470.734   6
  -4   5 -22 808.722 476.592   6
   4   5  23-822.352 570.560   5
   4   5  23 31.8605 260.298   8
   4  -5  23-147.252 250.632   4
  -4  -5 -23-192.291 264.232   3
  -4  -5 -23-1698.84 625.854   2
  -4   5 -23 128.318 247.123   7
  -4   5 -23-1108.24 552.756   6
   5  -4  23 120.413 223.349   4
   5  -4  23-681.524 484.374   1
   4  -5  23-931.081 568.248   1
  -5   4 -23-58.4882 256.298   7
  -5   4 -24 96.6295 248.452   7
  -4  -5 -24 35.9125 281.293   3
   4   5  24-609.031 572.928   5
  -4  -5 -24-1028.12 620.889   2
   5  -4  24 42.6172 427.787   1
   5  -4  24 25.4142 238.953   4
   4   5  24-88.8024 311.389   8
  -5   4 -24-836.069 508.028   6
   4  -5  24 27.9649 246.765   4
  -4   5 -24-1063.92 517.689   6
  -4   5 -26-102.053 250.569   7
   5  -5   2 490.465 181.054   1
   5  -5   3-193.495 170.398   1
  -5   5  -3 116.264 232.206   6
  -5   5  -3 93.7057 120.116   7
   5  -5   4-33.3367 164.835   1
  -5   5  -4 15.9786 119.052   7
  -5   5  -4 206.917 233.510   6
  -5   5  -5-209.409 238.871   6
  -5   5  -6-71.4667 244.605   6
  -5   5  -7-826.958 335.829   6
  -5   5  -7-359.863 179.266   7
   5  -5   7-681.385 295.126   1
   5  -5   8-290.509 274.515   1
  -5   5  -8-950.606 362.623   6
   5   5   9 205.905 267.583   5
   5  -5   9 13.6476 231.412   1
  -5   5  -9 120.180 288.707   6
  -5   5  -9 181.311 143.793   7
   5  -5  10 300.324 257.390   1
  -5   5 -10 26.2021 147.790   7
  -5   5 -10 567.906 320.125   6
  -5  -5 -10-249.897 311.499   2
   5   5  10-93.6368 272.467   5
   5  -5  11 73.8538 261.678   1
  -5  -5 -11-15.3907 338.583   2
  -5   5 -11 14.3126 319.288   6
  -5   5 -11 70.9118 141.069   7
   5   5  11-205.345 296.565   5
   5  -5  12 1125.49 314.328   1
  -5  -5 -12 1061.55 388.123   2
  -5   5 -12 1519.48 385.296   6
   5   5  12 1239.68 343.664   5
  -5   5 -12 1466.68 234.676   7
   5  -5  12 1502.28 230.920   4
   5   5  12 1431.83 212.439   8
   5   5  13 226.326 310.274   5
   5  -5  13-254.566 285.822   1
  -5   5 -13-83.0898 158.711   7
   5   5  13-53.9288 125.496   8
  -5  -5 -13 422.906 377.552   2
   5  -5  13-53.5874 141.654   4
  -5   5 -13-212.421 339.170   6
  -5   5 -14 1072.92 424.881   6
  -5  -5 -14 2055.84 460.474   2
   5   5  14 1580.44 391.845   5
   5  -5  14 2304.52 388.975   1
  -5   5 -14 1927.14 286.135   7
   5  -5  14 1781.32 271.708   4
   5   5  14 2076.75 267.290   8
  -5  -5 -15 458.624 415.153   2
   5  -5  15-47.3176 150.881   4
  -5   5 -15 269.256 369.605   6
   5   5  15 83.2773 149.808   8
   5   5  15-306.261 329.775   5
  -5   5 -15-145.142 179.246   7
   5  -5  15 119.703 303.410   1
   5   5  16 1120.97 205.422   8
  -5  -5 -16 692.601 446.978   2
   5   5  16 742.237 364.111   5
  -5   5 -16 1160.95 237.971   7
   5  -5  16 830.265 214.766   4
   5  -5  16 1464.26 372.661   1
  -5   5 -16 392.241 409.326   6
   5   5  17 561.369 410.322   5
   5   5  17 151.736 205.153   8
   5  -5  17 2238.77 448.246   1
  -5   5 -17 2983.82 510.375   6
  -5   5 -17 1511.49 274.247   7
   5  -5  17 971.270 248.983   4
  -5  -5 -17 2930.58 528.286   2
  -5   5 -18-10.4943 206.048   7
  -5   5 -18-386.066 438.653   6
   5   5  18-202.877 366.177   5
   5   5  18-166.234 173.356   8
  -5  -5 -18 18.1608 459.605   2
   5  -5  18-41.9330 188.958   4
   5  -5  18-208.395 363.276   1
  -5  -5 -18 102.846 176.956   3
   5  -5  19 151.951 184.965   4
  -5  -5 -19-539.627 474.111   2
   5   5  19 9.52469 184.807   8
  -5   5 -19-43.1693 210.212   7
   5   5  19 226.520 407.572   5
   5  -5  19-39.1169 382.408   1
  -5  -5 -19 9.42748 182.207   3
  -5   5 -19 181.103 444.803   6
  -5   5 -20 460.927 473.957   6
   5  -5  20 727.396 409.409   1
   5   5  20 207.285 204.891   8
   5  -5  20 585.471 220.392   4
   5   5  20 485.710 412.418   5
  -5   5 -20 366.403 224.285   7
  -5  -5 -20 628.142 206.846   3
  -5  -5 -20 38.0913 491.995   2
  -5  -5 -21-50.0336 197.798   3
  -5   5 -21-458.272 477.701   6
   5   5  21 608.261 438.508   5
   5   5  21 102.463 195.827   8
  -5  -5 -21 78.3069 508.524   2
   5  -5  21-186.814 218.580   4
   5  -5  21-187.977 400.529   1
  -5   5 -21-297.193 228.149   7
   5   5  22 149.186 209.579   8
   5  -5  22 453.497 443.884   1
  -5  -5 -22 186.846 208.502   3
  -5  -5 -22-906.570 551.736   2
  -5   5 -22 23.5344 225.169   7
  -5   5 -22-484.850 497.174   6
   5  -5  22 12.2659 214.734   4
   5   5  22 741.500 468.781   5
   5   5  23-1939.35 583.945   5
  -5  -5 -23-325.302 246.050   3
   5   5  23 122.260 242.830   8
   5  -5  23-217.587 268.228   4
  -5  -5 -23-1681.81 660.270   2
  -5   5 -25-64.1188 239.953   7
   5  -5  25 526.462 494.082   1
   0   6   0 183.493 76.1615   7
   0  -6   0 120.894 70.3662   4
   0   6   0 146.763 148.908   5
   0   6   0 245.322 64.8395   8
   0   6   0 143.249 163.790   6
   0   6  -1-110.896 166.797   6
   0  -6   1-9.69359 71.7569   4
   0  -6  -1 49.7035 67.7010   4
   0   6   1-54.5555 65.7626   7
   0   6  -1-18.4670 55.3044   8
   0   6   1-146.849 161.766   5
   0  -6   1-161.509 199.974   2
   0   6   1-148.271 154.647   6
   0   6  -1 98.1686 144.787   5
   0   6   2 40.5047 64.5056   7
   0  -6  -2 76.2209 64.5934   4
   0  -6   2 183.523 207.593   2
   0   6   2-13.6933 146.179   6
   0   6  -2 29.1863 55.6403   8
   0   6  -2-197.325 146.979   5
   0   6   3 81.6473 138.443   6
   0  -6   3-187.376 169.318   2
   0   6  -3 47.0080 145.626   5
   0   6   3-21.0437 66.4355   7
   0   6   3-46.1362 67.3546   8
   0   6  -3 79.0416 60.7047   8
   0   6  -3 10.3669 79.8950   7
   0  -6  -3-58.1491 209.945   2
   0  -6  -3-3.46466 55.9776   4
   0  -6  -4 49.1513 90.9087   3
   0   6  -4-75.2331 150.650   5
   0   6   4 22.9942 138.808   6
   0   6  -4-30.8303 190.946   6
   0   6   4 54.3420 78.2342   8
   0  -6  -4 60.5452 208.366   2
   0  -6  -4-25.1473 57.3344   4
   0   6   4-3.31265 64.1982   7
   0   6  -4 149.754 86.6098   7
   0   6   4 364.859 183.099   5
   0  -6   4 64.8064 89.3697   4
   0  -6  -5 99.0312 112.119   1
   0   6  -5-86.8281 204.771   6
   0   6   5 127.137 84.1944   8
   0  -6   5 74.7675 90.5999   4
   0   6   5-3.07571 61.3626   7
   0   6   5-9.70660 181.369   5
   0   6  -5 29.3561 89.0515   7
   0  -6  -5 31.0800 53.9797   4
   0   6   5-77.7961 131.284   6
   0  -6  -5-5.69395 90.1376   3
   0   6   6 1401.02 204.148   6
   0  -6  -6 1357.87 163.284   4
   0   6   6 1554.86 167.805   7
   0  -6  -6 1432.82 194.939   3
   0   6  -6 1947.21 295.299   6
   0   6   6 1068.16 260.462   5
   0  -6  -6 1327.19 191.204   1
   0   6   6 1545.10 192.169   8
   0   6  -6 1586.98 194.733   7
   0  -6   6 1444.80 197.404   4
   0   6  -7-108.275 227.573   6
   0  -6  -7-6.33852 100.865   3
   0  -6   7 41.7458 100.640   4
   0   6  -7 6.56239 100.942   7
   0  -6  -7-7.40780 91.1196   1
   0   6   7 17.9274 58.4120   7
   0  -6  -7-8.78544 48.1756   4
   0   6   7-130.179 213.723   5
   0   6   7 48.7581 120.929   6
   0   6   7-89.7112 91.4242   8
   0   6   8 2427.74 319.220   5
   0  -6  -8 2252.24 241.796   3
   0   6   8 1635.14 218.746   6
   0  -6   8 1594.00 232.204   4
   0   6  -8 1568.05 325.359   6
   0  -6  -8 1780.72 190.719   4
   0   6   8 1785.65 229.946   8
   0   6  -8 1679.68 230.413   7
   0   6  -9-145.441 246.678   6
   0   6   9 23.5094 88.7344   6
   0  -6   9 30.5438 115.023   4
   0  -6  -9-15.5589 35.4212   4
   0   6   9 304.112 243.555   5
   0  -6  -9-218.720 118.206   3
   0  -6 -10 1544.39 222.919   3
   0   6  10 436.651 363.159   5
   0   6 -10 440.384 343.033   6
   0  -6  10 1412.67 213.193   4
   0   6  11-390.659 285.258   5
   0   6 -11-372.796 284.810   6
   0   6  11-203.204 138.040   8
   0  -6 -11-31.5826 132.237   3
   0  -6  11 107.515 130.517   4
   0   6 -11-154.951 128.866   7
   0   6  12 1270.90 332.006   5
   0   6 -12 1074.05 328.711   6
   0   6 -12 1281.12 192.295   7
  -6   0 -12 858.189 286.826   6
   0   6  12 881.344 180.417   8
   0  -6  12 1110.70 190.261   4
   0  -6 -12 835.927 187.677   3
   0   6  13-389.245 319.572   5
   0   6  13 73.9433 132.797   8
   0   6 -13 154.421 300.006   6
   0  -6  13-17.6940 136.976   4
  -6   0 -13 276.182 273.543   6
   0   6 -13 148.632 137.646   7
   0  -6 -13-44.3587 147.619   3
   0  -6 -14 537.088 186.995   3
   0   6 -14 790.543 173.728   7
   0   6  14 582.646 340.005   5
   0   6  14 813.743 177.113   8
   0   6 -14 897.355 341.747   6
  -6   0 -14 909.936 317.940   6
   0  -6  14 463.487 162.636   4
  -6   0 -15 226.014 306.494   6
   0   6  15 279.720 347.042   5
   0  -6  15 46.5587 139.042   4
   0  -6 -15-70.0733 168.281   3
   0   6 -15-264.597 326.629   6
   0   6 -15-17.4810 149.705   7
   0   6  15 80.2564 150.685   8
   0   6 -16 116.711 156.399   7
   0   6  16 326.323 367.135   5
   0   6  16 139.044 158.573   8
   0  -6 -16-63.8734 184.732   3
   0  -6  16 95.9512 148.876   4
  -6   0 -16 419.866 315.565   6
  -6   0 -17-281.218 338.960   6
   0   6  17-28.8630 167.266   8
   0  -6 -17-169.651 200.397   3
   0  -6  17-78.2609 150.210   4
   0   6 -17 92.1470 154.669   7
   6   0  17-75.9168 244.549   1
   0   6  17 359.853 392.622   5
  -6   0 -18-74.1423 337.764   6
   0  -6  18 219.530 161.796   4
   0   6 -18 444.323 179.917   7
   0   6  18 169.476 190.099   8
   0  -6 -18 71.4781 225.178   3
   0   6  19 123.765 185.273   8
   0  -6 -19-113.909 217.853   3
   0   6  19 370.560 426.879   5
   0   6 -19-19.5073 171.458   7
   0   6  20 545.283 455.461   5
   0   6 -20 1229.09 233.183   7
   0  -6 -20 761.494 272.443   3
   0   6  20 1011.68 236.427   8
   0   6 -21 10.2287 186.071   7
   0  -6 -21-70.7386 250.336   3
   0   6  21-20.8173 458.929   5
   0   6  21-164.673 199.982   8
   0   6  22 1457.03 272.370   8
   0  -6 -22 810.139 309.153   3
   0   6  22 1590.75 529.590   5
   0   6  24-309.151 246.810   8
   0   6  25 12.1651 239.069   8
   0   6  25-500.109 504.108   5
   0  -6 -25 243.162 318.530   3
   0  -6 -26 521.552 333.856   3
   0   6  26-99.3870 241.339   8
   0   6  26 275.262 505.275   5
   0  -6 -27 130.103 327.243   3
   0   6  27 184.481 509.874   5
   0   6  27-186.173 239.914   8
   0  -6 -28-18.9590 337.321   3
   0   6  28 416.897 269.663   8
   0   6  29-51.3530 248.479   8
   1  -6   0 2489.62 274.164   3
   1  -6   0 2447.25 272.380   4
  -1   6   0 2468.81 276.424   7
  -1   6   0 1854.82 302.783   5
  -1   6   0 2465.09 322.809   6
  -1  -6   0 2254.53 273.032   4
   1  -6   0 2112.44 328.778   2
   1   6   0 3003.67 285.179   7
   1   6   0 2480.74 360.676   6
  -1   6   0 2586.03 269.520   8
  -1  -6   1 357.751 87.6648   4
   1   6  -1 362.691 206.752   6
   1   6   1 281.922 208.198   6
   1  -6  -1 243.893 84.0603   3
  -1  -6  -1 149.516 70.5146   4
  -1   6   1 29.2410 155.735   6
  -1   6  -1 223.145 137.355   5
  -1   6   1 186.181 153.370   5
  -1   6   1 238.161 83.9138   7
  -1   6  -1 178.640 65.7608   8
   1  -6  -1 302.602 76.8064   4
   1  -6   1 507.075 193.622   2
   1  -6   1 302.777 81.9555   4
   1   6   1 222.950 84.9989   7
   1   6  -1 254.672 181.487   5
   1  -6   1 349.214 84.7710   3
  -1   6  -1-74.5170 166.924   6
   1  -6  -2 860.953 192.481   1
   1  -6  -2 1064.99 145.320   4
  -1   6   2 1327.05 157.566   7
  -1   6  -2 1176.57 140.406   8
  -1  -6  -2 1086.59 145.702   4
  -1   6  -2 976.806 190.227   5
   1   6   2 1418.46 155.607   8
   1  -6   2 1012.09 231.970   2
  -1   6   2 978.031 203.981   6
   1   6   2 1009.13 149.485   7
  -1  -6  -2 1484.73 281.051   2
   1  -6   2 1391.28 152.015   3
   1  -6   3 34.9794 175.514   2
   1   6   3 201.340 185.030   5
   1  -6  -3 57.3921 61.0035   4
  -1   6  -3 20.8070 80.8748   7
   1   6  -3 180.678 98.3551   7
  -1   6  -3 107.133 53.5290   8
  -1   6   3 68.6646 75.0749   8
  -1  -6  -3 98.2583 227.909   2
   1   6   3 107.816 69.5256   8
   1   6   3 163.283 65.8328   7
  -1   6   3 141.357 77.3551   7
  -1   6   3-12.7774 152.152   6
  -1  -6  -3 71.1745 58.9796   4
  -1   6  -3 21.5083 124.124   5
   1  -6  -3 78.9870 125.364   1
   1  -6   4 1377.17 229.776   2
  -1   6  -4 1220.87 194.404   5
   1  -6  -4 1382.04 162.195   4
   1   6   4 754.938 241.667   5
  -1  -6   4 1133.98 179.673   4
   1  -6  -4 1363.53 200.744   1
  -1   6   4 1281.27 242.767   5
  -1   6   4 1515.71 180.794   8
  -1   6   4 1319.40 216.013   6
   1   6   4 1459.77 173.325   8
  -1   6  -4 1373.41 180.287   7
   1   6   4 1330.20 159.189   7
   1   6  -4 1695.23 201.655   7
   1  -6  -4 1287.71 181.956   3
  -1   6  -4 1475.66 158.073   8
   1  -6   4 1370.15 180.467   4
  -1  -6  -4 1190.92 278.814   2
   1   6  -4 1347.72 268.219   6
  -1   6   4 1356.25 167.496   7
  -1   6  -4 985.262 254.410   6
  -1  -6  -5 898.327 266.452   2
  -1   6  -5 1143.13 139.745   8
   1   6   5 1369.27 162.292   8
  -1   6  -5 891.195 176.066   5
   1   6   5 1105.27 246.457   5
  -1   6   5 1366.12 168.469   8
  -1   6   5 1194.93 240.081   5
   1   6   5 1167.32 139.663   7
   1  -6  -5 1212.83 172.813   3
  -1   6  -5 1099.29 164.926   7
  -1   6   5 1138.03 150.132   7
  -1  -6   5 1317.43 167.678   4
   1  -6  -5 1062.98 174.664   1
  -1   6  -5 1082.66 247.931   6
   1   6  -5 1416.58 271.392   6
   1  -6  -5 1130.72 142.302   4
  -1   6   5 1028.57 196.243   6
   1  -6   5 1121.15 188.728   2
   1   6  -5 1292.86 182.981   7
   1  -6   5 1128.95 168.039   4
  -1   6   6 563.997 218.195   5
  -1  -6   6 596.782 126.743   4
   1  -6  -6 815.097 138.038   1
   1   6  -6 776.699 243.430   6
  -1   6  -6 393.561 137.312   5
  -1   6   6 837.226 165.988   6
  -1  -6  -6 433.454 252.126   2
  -1   6  -6 596.790 126.262   7
  -1   6   6 624.644 126.792   8
  -1   6  -6 323.920 233.555   6
   1   6   6 766.846 96.4164   7
  -1   6   6 749.867 115.797   7
   1   6   6 668.941 119.609   8
   1   6  -6 830.418 147.083   7
   1  -6   6 633.383 128.111   4
   1   6   6 719.525 223.537   5
   1  -6  -6 644.294 140.993   3
  -1   6   7 2437.67 363.222   5
   1  -6  -7 2144.45 298.923   3
  -1   6  -7 2058.61 371.370   6
  -1   6  -7 2456.46 289.238   5
   1   6   7 2472.84 367.536   5
  -1  -6   7 2603.16 295.369   4
  -1   6   7 2330.81 302.557   6
  -1  -6  -7 2385.60 294.097   3
   1   6   7 2344.85 285.762   8
   1   6  -7 2829.46 308.076   7
   1   6   7 2560.63 262.852   7
  -1   6  -7 2998.79 300.093   7
   1  -6   7 2440.51 294.988   4
  -1   6   7 2701.28 299.583   8
  -1   6   8 1568.44 210.285   8
   1   6   8 1661.65 300.565   5
  -1  -6  -8 1330.51 174.955   1
  -1   6  -8 1513.55 208.080   5
  -1   6  -8 1423.60 303.785   6
   1  -6  -8 1541.43 216.007   3
  -1  -6   8 1439.33 206.438   4
   1  -6   8 1676.48 212.327   4
   1   6   8 1362.76 160.563   7
  -1  -6  -8 1701.40 212.281   3
   1   6  -8 2131.95 226.826   7
  -1   6   8 1647.22 217.783   6
  -1   6   8 1869.54 299.254   5
  -1  -6  -9 2404.50 278.292   3
  -1  -6   9 1965.76 271.797   4
  -1   6   9 2623.91 365.266   5
  -1   6  -9 2368.08 373.222   6
  -1   6   9 2399.20 281.392   8
   1  -6  -9 1975.07 281.412   3
   1   6   9 2213.56 361.940   5
   1  -6   9 2074.93 274.015   4
  -1   6   9 2533.68 272.875   6
  -1  -6  -9 2059.79 386.488   2
   1  -6 -10 4066.92 455.462   3
  -1   6  10 6811.60 585.860   5
   1  -6  10 3164.25 442.738   4
   1   6  10 3505.91 441.646   8
  -1   6 -10 3198.01 434.020   7
  -1   6  10 3168.69 425.826   6
  -1   6 -10 4622.66 573.757   6
  -1  -6 -10 6335.20 477.146   3
  -1   6 -11-151.692 277.436   6
   1  -6 -11 35.7074 140.949   3
  -1  -6 -11 52.3117 123.865   3
   1   6  11 389.746 287.168   5
  -1   6  11-139.883 277.314   5
  -1   6  11-16.5690 129.259   8
   1   6  11-41.4670 112.701   8
  -1   6 -11-98.8889 128.085   7
   1  -6  11 99.8410 129.029   4
  -6   1 -11-117.706 241.964   6
  -1   6  12 1695.44 247.711   8
  -1   6 -12 1607.04 363.783   6
   1  -6 -12 1702.87 258.276   3
  -1   6  12 1498.57 374.124   5
   1   6  12 2064.76 368.845   5
  -1  -6 -12 1783.93 241.599   3
   1   6  12 1426.72 225.915   8
   1  -6  12 1824.78 248.142   4
  -1   6 -12 1589.57 236.450   7
  -6   1 -12 1867.87 349.953   6
  -1   6 -13 1185.36 202.872   7
   1  -6 -13 953.348 212.804   3
   1  -6  13 882.905 200.400   4
  -1   6 -13 1689.00 355.180   6
   6  -1  13 1368.45 256.177   1
  -1   6  13 1375.24 210.639   8
   6  -1  13 778.483 189.715   5
  -1  -6 -13 1100.08 198.450   3
   1   6  13 996.039 189.422   8
   1   6  13 1389.64 349.177   5
  -1   6  13 928.895 350.523   5
  -6  -1 -13 648.374 278.681   6
  -6   1 -13 1281.22 331.157   6
   6   1  13 500.851 223.879   5
  -1   6 -14 940.583 194.336   7
  -1   6 -14 884.612 350.959   6
  -6  -1 -14 300.850 291.540   6
  -1   6  14 1278.32 356.151   5
  -1  -6 -14 803.232 192.021   3
   1   6  14 1338.86 359.321   5
   1  -6 -14 652.746 206.384   3
  -1   6  14 1095.03 206.107   8
   1  -6  14 1147.96 203.187   4
   6  -1  14 1024.02 255.107   1
   6   1  14 417.598 234.126   5
  -6   1 -14 731.248 341.992   6
   1   6  14 876.332 179.877   8
   1  -6 -15 455.346 212.415   3
  -6   1 -15 630.476 181.652   7
  -1   6 -15 306.796 349.975   6
   6   1  15 328.398 239.547   5
  -1  -6 -15 354.960 178.903   3
   6  -1  15 517.375 242.613   1
   1   6  15 642.831 169.979   8
  -1   6  15 635.978 199.767   8
  -1   6  15 794.087 346.620   5
  -6  -1 -15 533.932 306.438   6
   1  -6  15 628.874 183.882   4
  -6   1 -15 898.919 351.045   6
  -1   6 -15 600.898 177.198   7
   1   6  15 209.361 358.395   5
   1  -6 -16 817.722 238.370   3
   6   1  16 774.221 270.232   5
  -6   1 -16 1329.61 366.890   6
  -1   6 -16 1104.32 384.557   6
  -1   6  16 869.362 210.896   8
   1   6  16 977.715 200.149   8
  -6  -1 -16 463.651 315.246   6
  -1   6  16 194.407 368.867   5
  -1   6 -16 902.572 202.412   7
   6  -1  16 524.377 263.754   1
  -1  -6 -16 777.940 208.661   3
   1  -6  16 908.069 205.366   4
  -6   1 -16 978.123 214.063   7
   1   6  16 1338.82 396.758   5
   1  -6  17-117.666 170.880   4
  -1   6 -17-86.3815 357.508   6
   6   1  17-497.137 281.390   5
   6  -1  17-237.891 242.022   1
  -1   6  17 109.963 370.937   5
  -6   1 -17 191.808 182.410   7
   1   6  17 123.509 393.987   5
   1  -6 -17-89.2119 217.174   3
  -1   6 -17-77.1043 168.607   7
  -1  -6 -17-50.8280 176.409   3
   1   6  17 8.96052 158.746   8
  -6   1 -17 309.010 360.398   6
  -1   6  17 279.674 198.131   8
   1  -6  18 626.324 209.141   4
   1  -6 -18 500.520 256.355   3
  -1   6 -18 1156.20 224.751   7
   6  -1  18 1162.86 305.346   1
  -1  -6 -18 1066.60 258.689   3
   1   6  18 424.142 467.017   5
  -1   6  18 1332.89 469.491   5
   6  -1  18 669.232 176.938   4
  -1   6  18 479.738 241.418   8
  -1   6 -18 997.470 449.837   6
  -6   1 -18 1049.01 223.353   7
  -6   1 -18 1059.67 399.847   6
   1   6  18 695.364 211.290   8
   1   6  19 383.061 436.718   5
  -1   6  19 333.673 412.318   5
  -1   6 -19 386.630 412.520   6
   6  -1  19 601.819 301.118   1
   1  -6 -19 256.581 258.687   3
  -1  -6 -19 491.493 230.143   3
   1  -6  19 633.305 197.895   4
  -6   1 -19 275.814 379.102   6
  -1   6  19 842.630 233.678   8
  -1   6 -19 730.666 210.621   7
   1   6  19 536.755 191.687   8
   6  -1  19 550.912 169.353   4
  -6   1 -19 638.100 213.809   7
   1  -6  20 1073.53 236.126   4
  -1   6  20 750.675 240.911   8
  -1   6  20 1193.37 456.284   5
   1   6  20 801.767 220.954   8
   1  -6 -20 765.067 293.412   3
  -1  -6 -20 836.936 256.401   3
  -1   6 -20 986.537 245.669   7
  -1   6 -20 1193.21 452.714   6
   1   6  20 1569.82 478.562   5
  -1  -6 -21 1366.33 294.785   3
  -1   6 -21 1002.45 258.772   7
   1  -6 -21 1222.53 332.550   3
   1   6  21 1213.72 516.326   5
  -1   6  21 1352.61 270.142   8
  -1   6 -21 1329.80 459.580   6
   1   6  21 1011.22 249.503   8
   1  -6  21 1243.60 253.513   4
  -1   6  21 1275.52 480.665   5
   1   6  22 526.455 213.603   8
   1   6  22 620.058 491.658   5
   1  -6 -22 720.529 301.293   3
   1  -6  22 420.513 207.923   4
  -1  -6 -22 325.648 269.671   3
  -1   6  22 482.677 477.266   5
  -1   6 -22 414.072 217.872   7
   1   6  23 640.011 505.011   5
   1  -6  23 304.597 212.379   4
  -1  -6 -23 558.772 285.632   3
  -1   6  24 51.8365 257.918   8
  -1   6  25-197.878 256.970   8
   1   6  25 149.207 230.114   8
  -1   6 -25-11.9561 233.206   7
   1  -6 -25 320.571 297.316   3
  -1   6  26 131.932 241.480   8
   1   6  26 977.802 569.280   5
  -1   6 -26 219.517 243.305   7
  -1  -6 -26 628.037 327.429   3
   1   6  26-11.5772 223.869   8
  -1   6 -27 271.970 245.086   7
  -1  -6 -27-481.707 340.244   3
   1   6  27-23.7834 236.927   8
  -1   6  27-53.3892 246.554   8
  -1   6 -28 112.457 246.759   7
   1   6  28 513.908 586.384   5
  -1   6  28 323.187 275.532   8
   1   6  28 134.360 253.376   8
  -1  -6 -28 747.075 351.940   3
  -1   6  29-54.2057 275.958   8
  -1   6  30 160.826 261.171   8
   2  -6   0 2778.50 318.591   3
  -2   6   0 2823.47 356.536   5
  -2   6   0 3015.04 314.388   8
  -2   6  -1 5311.37 606.101   5
  -2   6   1 5974.55 616.044   5
   2  -6  -1 5336.82 586.341   3
  -2   6  -1 5529.79 578.400   8
   2  -6   1 5952.68 584.828   3
  -2  -6  -1 6093.55 651.155   2
  -2   6   1 5731.21 620.092   6
   2  -6  -2 325.577 153.026   1
  -2   6  -2 567.954 118.153   7
   2   6   2 371.136 215.594   5
  -2  -6  -2 574.016 262.626   2
  -2   6   2 655.109 113.981   7
  -2   6  -2 342.540 149.418   5
   2   6   2 501.075 101.290   8
  -2   6  -2 545.197 88.9664   8
   2  -6   2 303.853 182.802   1
   2  -6   2 665.843 105.139   3
  -2   6   2 527.472 187.896   6
   2   6   3 702.725 257.789   5
  -2  -6  -3 2202.79 334.887   2
  -2   6  -3 1443.89 211.200   5
  -2   6   3 1292.54 184.372   8
  -2   6  -3 1317.74 262.873   6
   2  -6  -3 1012.97 202.607   1
  -2   6   3 1340.62 238.392   6
   2  -6   3 1494.89 184.572   4
  -2   6  -3 1274.83 187.156   7
   2   6   3 1527.17 178.648   8
   2  -6   3 1519.93 169.638   3
  -2   6  -3 1327.50 158.942   8
  -2   6   3 1452.90 176.159   7
  -2   6  -4 1031.65 204.729   5
   2   6   4 1525.28 287.843   5
   2  -6  -4 1490.44 203.067   3
  -2  -6  -4 1298.41 313.746   2
   2   6   4 1590.57 189.782   8
  -2   6   4 1584.58 262.405   5
  -2   6   4 1515.63 196.013   8
   2  -6   4 1481.92 173.661   3
  -2   6   4 1331.45 185.321   7
  -2   6  -4 1511.83 271.014   6
   2  -6   4 1254.99 187.262   4
   2  -6  -4 1518.07 214.089   1
  -2   6   4 1289.11 236.426   6
  -2   6  -4 1491.02 165.639   8
  -2   6  -4 1380.31 196.048   7
   2  -6   4 1563.67 238.937   2
   2   6   5 1369.61 292.631   5
  -2   6  -5 1400.24 165.786   8
   2  -6   5 1522.03 174.505   3
   2  -6  -5 1354.74 207.921   3
   2   6   5 1412.46 191.450   8
  -2  -6  -5 1653.70 324.960   2
  -2   6  -5 1327.55 205.905   5
   2  -6   5 1541.25 231.258   2
  -2   6   5 1559.40 241.423   6
   2  -6   5 1352.34 195.387   4
   2  -6  -5 1726.79 211.648   1
  -2   6  -5 1459.75 199.589   7
  -2   6   5 1600.31 274.626   5
  -2   6   5 1387.36 201.623   8
  -2   6  -5 1476.61 283.282   6
  -2   6  -6 2557.28 272.151   8
   2   6   6 2885.40 300.136   8
   2  -6  -6 2065.66 306.942   3
   2  -6   6 2656.69 303.715   4
  -2   6  -6 2161.23 296.593   5
   2   6   6 4121.17 305.037   7
  -2   6  -6 2621.79 304.813   7
   2  -6   6 2517.82 276.532   3
   2   6   6 2734.81 379.406   5
  -2   6   6 2434.98 368.368   5
  -2   6   6 2732.13 334.514   6
   2  -6   6 2488.71 305.794   2
  -2   6  -6 2236.91 375.977   6
  -2   6   6 2326.80 308.733   8
   2  -6   7 2861.24 407.537   4
   2  -6   7 3797.63 383.251   3
   2  -6  -7 3654.87 425.344   3
  -2   6  -7 3942.06 483.585   6
  -2   6   7 3401.70 416.867   8
  -2   6   7 3272.66 473.392   5
   2   6   7 2982.39 470.935   5
  -2   6  -7 3769.40 413.057   7
   2   6   7 4591.03 390.457   7
  -2   6   7 4459.18 442.892   6
  -2   6  -7 3282.46 396.751   5
  -2   6   8 2696.13 287.688   8
   2  -6  -8 1760.70 289.300   3
  -2   6   8 2112.42 358.547   5
   2   6   8 2039.18 357.492   5
   2  -6   8 2103.13 233.282   3
   2  -6   8 2387.14 278.538   4
   2   6   8 2349.34 233.325   7
  -2  -6  -8 2831.13 388.743   2
  -2   6  -8 1953.33 247.602   5
  -2   6  -8 3120.97 384.454   6
   2   6   9 3624.88 336.151   8
   2  -6   9 2829.18 294.332   3
  -2   6   9 2343.31 433.147   5
  -2   6  -9 2533.96 304.248   5
  -2   6  -9 2053.28 447.215   6
   2   6   9 2408.98 439.314   5
  -2   6   9 3315.56 353.875   8
  -2  -6  -9 2472.58 461.805   2
   2  -6  -9 3160.80 365.163   3
   2  -6   9 3150.13 351.179   4
  -2  -6 -10 199.524 156.319   3
   2   6  10 450.615 132.808   8
  -2   6  10 191.122 141.247   8
  -2   6 -10 185.486 161.503   7
   2  -6 -10 9.83488 195.857   3
   2  -6  10 116.895 164.763   4
  -2  -6 -11 7291.00 737.986   3
   2   6  11 6884.43 804.462   5
  -2   6  11 7142.72 807.760   5
  -2   6 -11 7096.17 737.518   7
   2  -6  11 7336.56 743.256   4
   2  -6 -11 7296.21 759.744   3
   6  -2  11 7160.54 771.905   1
  -2   6 -11 5984.88 798.623   6
  -2  -6 -11 5861.31 814.153   2
   2   6  11 6718.67 729.579   8
   2  -6  12 485.790 155.432   4
   2   6  12 273.377 306.434   5
  -2   6 -12 515.295 154.119   7
  -2   6  12 1027.31 321.165   5
  -2  -6 -12 751.919 339.645   2
   2   6  12 277.696 133.700   8
  -2   6  12 584.261 179.303   8
  -6   2 -12 771.126 313.954   6
  -2  -6 -12 341.738 152.270   3
  -2   6 -12 505.060 325.331   6
   6  -2  12 584.384 221.708   1
   2  -6 -12 145.112 190.380   3
  -6   2 -12 590.850 163.526   7
   6  -2  13 2283.22 347.853   1
  -2   6 -13 3058.13 437.370   6
   6   2  13 1340.08 326.949   5
  -2   6  13 2186.63 314.330   8
  -6   2 -13 1665.01 405.624   6
  -6   2 -13 2448.42 304.638   7
  -2  -6 -13 3201.49 446.654   2
  -2   6 -13 2090.14 292.999   7
   2   6  13 2013.20 418.045   5
  -2   6  13 2565.95 427.156   5
  -2  -6 -13 2065.93 295.030   3
   2  -6 -13 2080.66 333.405   3
   2   6  13 2319.12 288.270   8
   2  -6  13 2655.09 310.853   4
   2  -6  14 1190.19 217.284   4
   2  -6 -14 1111.01 259.224   3
   6   2  14 1040.98 277.896   5
  -2  -6 -14 979.611 217.254   3
   2   6  14 1777.00 392.167   5
   2   6  14 1370.00 209.922   8
  -2   6 -14 1499.22 377.941   6
   6  -2  14 1797.07 305.163   1
  -6   2 -14 1602.70 242.811   7
  -2   6  14 1489.09 249.923   8
  -2   6 -14 1286.02 225.752   7
  -6   2 -14 1229.96 378.388   6
  -2   6  14 1398.42 365.819   5
  -2  -6 -14 1536.64 393.425   2
  -2   6 -15 2039.88 449.683   6
   6   2  15 2049.68 359.037   5
   2   6  15 2479.09 297.716   8
   2  -6  15 2405.96 320.522   4
  -2   6  15 2628.34 454.215   5
  -6   2 -15 2113.99 314.312   7
   6  -2  15 2176.66 366.276   1
  -6   2 -15 2114.97 435.175   6
  -2  -6 -15 2969.40 464.335   2
   2   6  15 2307.71 452.265   5
  -2   6 -15 2122.72 312.333   7
   2  -6 -15 2094.26 360.196   3
  -2   6  15 2572.14 339.946   8
  -2  -6 -15 2316.86 303.967   3
  -6   2 -16 632.482 205.238   7
   2   6  16 596.918 172.074   8
  -2  -6 -16 337.931 390.964   2
  -2   6 -16 644.600 191.986   7
  -2  -6 -16 536.765 182.190   3
   2   6  16 368.490 369.074   5
  -2   6  16 825.845 228.115   8
  -2   6  16 337.156 360.497   5
   2  -6  16 886.781 199.509   4
   2  -6 -16 635.220 250.674   3
  -2   6 -16 376.711 362.218   6
  -6   2 -16 528.379 374.582   6
   6  -2  16 584.684 279.640   1
   6   2  16 513.948 275.515   5
   6  -2  17 2012.86 372.407   1
  -2   6  17 1988.30 319.774   8
  -2   6 -17 1962.86 448.899   6
   2  -6 -17 1956.32 341.506   3
   6  -2  17 1504.96 268.528   4
   2   6  17 2064.13 274.139   8
   2   6  17 2038.32 463.023   5
   2  -6  17 2470.34 314.857   4
  -6   2 -17 1646.02 434.993   6
  -2  -6 -17 1934.98 294.177   3
  -2   6  17 1718.56 441.040   5
   6   2  17 1501.53 356.457   5
  -2  -6 -17 2761.65 487.515   2
  -2   6 -17 1792.82 295.621   7
  -6   2 -17 2144.71 312.391   7
   6  -2  18 181.333 313.643   1
  -6   2 -18 886.618 411.342   6
  -6   2 -18 365.849 225.290   7
   2  -6 -18 617.417 306.161   3
  -2  -6 -18 831.019 250.844   3
   6   2  18 35.6088 325.977   5
   2   6  18 1485.95 236.335   8
  -2   6  18 134.303 227.979   8
   2  -6  18 335.453 225.649   4
  -2   6  18 2001.83 469.610   5
  -2   6 -18 875.965 447.833   6
   6  -2  18 158.343 172.825   4
  -6  -2 -18 837.866 403.395   2
  -2   6 -18 235.139 217.771   7
   6  -2  19 1079.41 380.645   1
  -2   6 -19 1996.29 501.737   6
  -2   6 -19 2171.69 321.921   7
   2   6  19 2338.41 297.895   8
  -2   6  19 1870.77 335.373   8
  -2   6  19 2348.82 489.508   5
   2  -6 -19 1675.06 358.816   3
  -6   2 -19 2178.06 470.816   6
  -6   2 -19 2320.46 320.820   7
   6  -2  19 1890.51 281.357   4
  -2  -6 -19 1770.04 312.778   3
   2  -6  19 2359.93 324.873   4
   2   6  19 1698.61 498.894   5
  -2  -6 -19 1549.45 514.446   2
   2   6  20 1075.94 479.014   5
  -2   6 -20 393.474 430.119   6
   6  -2  20 1313.10 352.360   1
  -2  -6 -20 500.944 234.665   3
  -2   6  20 861.404 265.197   8
   2  -6 -20 836.963 303.412   3
  -6   2 -20 1242.95 438.522   6
   2   6  20 858.188 210.568   8
  -2  -6 -20 1271.69 507.546   2
   2  -6  20 858.504 251.115   4
  -2   6 -20 832.857 239.468   7
   6  -2  20 915.474 201.631   4
  -6   2 -20 947.652 250.772   7
   2   6  21 2093.78 301.756   8
  -2  -6 -21 1826.41 328.650   3
  -2  -6 -21 1449.77 552.365   2
  -2   6 -21 1099.42 498.205   6
   2   6  21 1466.25 539.656   5
  -2   6 -21 1934.68 317.010   7
  -6   2 -21 2456.38 331.187   7
   2  -6  21 1983.91 327.214   4
   2  -6 -21 1940.93 364.515   3
  -6   2 -21 1079.32 462.998   6
   2   6  22 105.378 491.313   5
  -2  -6 -22 374.987 518.292   2
  -2  -6 -22 624.746 266.121   3
  -2   6 -22 477.591 462.422   6
  -2   6 -22 291.381 233.811   7
   2   6  22 281.509 210.871   8
   2  -6  22 606.867 235.472   4
   2  -6  23 663.576 248.952   4
  -2   6 -23 920.521 492.485   6
   2   6  23 348.930 548.501   5
  -2   6  23 153.480 272.365   8
  -2  -6 -23 715.936 274.149   3
  -2   6  24 213.122 261.026   8
   2   6  25 697.995 245.057   8
   2  -6  25 731.386 271.937   4
  -2  -6 -25 174.193 573.231   2
  -2   6 -25 616.259 260.166   7
  -2  -6 -26 329.182 293.280   3
   2   6  26 553.418 566.736   5
  -2  -6 -26 22.4463 605.991   2
  -2   6 -26 153.902 264.353   7
   2  -6  26-28.3867 231.572   4
   2   6  26 206.166 229.025   8
  -2  -6 -27 485.201 640.181   2
   2   6  27 509.614 252.529   8
  -2   6 -27 612.459 283.537   7
  -2  -6 -27 149.539 306.169   3
   2   6  27-74.0714 575.060   5
   2   6  28 196.344 248.873   8
  -2   6 -28 118.810 269.871   7
   3  -6   0 1943.23 252.471   3
  -3   6   0 2463.19 254.826   7
   3  -6   0 2296.71 296.210   1
  -3   6   0 2287.54 299.550   5
  -3   6   0 1702.33 237.388   8
  -3   6  -1 1517.37 247.567   5
   3  -6  -1 1452.12 206.736   3
   3  -6   1 1513.92 200.197   3
   3  -6   1 1452.91 243.637   1
  -3   6  -1 1557.49 185.252   8
  -3   6  -1 1597.92 202.039   7
   3  -6  -1 1565.20 234.054   1
  -3   6  -1 844.810 264.682   6
  -3   6  -2 3614.93 403.262   8
   3  -6   2 4061.91 418.531   3
  -3   6   2 3835.52 419.945   8
  -3   6  -2 4214.79 427.232   7
   3  -6   2 4043.44 460.170   1
  -3   6  -2 3083.25 467.058   6
  -3   6  -2 3989.25 448.623   5
   3  -6   3 249.444 179.706   1
  -3   6   3 299.537 111.156   8
   3  -6  -3 440.744 135.812   3
  -3   6  -3 245.871 115.473   7
  -3   6  -3 483.280 227.957   6
  -3   6  -3 420.660 170.727   5
   3  -6   3 408.011 104.448   3
  -3   6  -3 363.221 81.3371   8
  -3  -6  -3 439.485 247.046   2
  -3   6   3 474.666 202.629   5
   3  -6   4 911.765 229.986   1
  -3   6  -4 818.219 154.369   7
   3   6   4 1026.33 141.245   8
   3  -6  -4 807.360 178.793   3
  -3   6  -4 1114.18 260.515   6
  -3   6   4 567.683 223.774   5
   3  -6   4 769.182 135.777   3
  -3   6  -4 940.669 119.431   8
  -3   6  -4 1097.70 195.550   5
  -3  -6  -4 761.727 294.506   2
   3   6   4 823.400 249.345   5
  -3   6   4 977.965 248.766   6
  -3   6   4 763.723 151.863   8
   3   6   5 1478.64 177.782   8
   3  -6   5 1272.61 165.092   3
   3  -6  -5 1377.48 208.643   3
  -3   6   5 1205.51 190.585   8
  -3   6  -5 1390.33 192.925   7
  -3   6  -5 1508.63 227.200   5
  -3   6   5 1277.29 263.349   5
   3  -6   5 978.072 180.716   4
   3   6   5 1151.55 283.312   5
   3  -6   5 946.415 252.329   1
  -3   6  -5 1208.23 145.673   8
  -3   6  -5 908.385 275.178   6
  -3   6  -6 1567.55 210.570   7
   3  -6   6 1364.01 176.799   3
   3   6   6 1108.52 303.014   5
  -3   6  -6 1568.99 162.739   8
   3  -6   6 1440.50 201.967   4
   3  -6  -6 1081.96 228.038   3
  -3   6  -6 1818.04 309.955   6
  -3   6   6 1362.54 212.745   8
  -3   6   6 1427.71 290.655   5
   3  -6   6 1473.61 285.658   1
   3  -6   7 1536.75 287.130   1
  -3   6  -7 1485.73 304.840   6
  -3  -6  -7 1567.61 347.583   2
   3   6   7 1243.63 310.870   5
  -3   6   7 1341.18 286.265   5
   3  -6   7 1191.06 190.758   4
   3  -6   7 1370.51 180.765   2
  -3   6  -7 1112.28 134.068   8
  -3   6   7 1476.66 201.478   8
  -3   6  -7 1293.22 190.189   7
   3  -6  -7 1286.06 223.832   3
  -6   3  -8 1547.62 369.462   6
   3  -6  -8 3606.88 363.870   3
  -3  -6  -8 2907.03 467.166   2
  -3   6  -8 672.403 470.368   6
  -3   6  -8 2537.83 259.952   8
   3   6   8 3667.66 312.460   8
  -3   6   8 3253.08 333.506   8
  -3   6   8 2045.66 399.636   5
   3  -6   8 2988.28 326.750   4
   3   6   8 2448.11 429.972   5
   6  -3   8 2988.44 370.913   1
   3  -6   8 1887.67 269.647   2
  -6   3  -9-862.853 317.478   6
  -6   3  -9 537.114 165.747   7
  -3  -6  -9 251.275 401.891   2
  -3   6   9 475.206 163.563   8
   6  -3   9 222.568 232.422   1
   3   6   9 924.958 144.702   8
   3  -6  -9 617.441 208.038   3
  -3   6   9-1087.11 334.933   5
   3   6   9-433.121 369.059   5
   3  -6   9-115.282 217.406   4
  -3   6  10 5052.70 583.836   8
   3   6  10 6033.35 569.541   8
   3  -6 -10 5209.39 607.194   3
   3   6  10 5000.31 653.830   5
  -3   6  10 4954.85 639.322   5
  -3   6 -10 5276.84 573.788   7
   3  -6  10 4919.67 573.752   4
  -3  -6 -10 5500.22 675.778   2
  -6   3 -10 5447.80 582.493   7
   6  -3  10 5596.96 615.274   1
  -6   3 -10 4528.32 631.977   6
  -3   6 -10 5168.94 651.737   6
   6  -3  11 112.999 208.692   1
   3   6  11 204.615 303.625   5
   3   6  11 134.270 117.521   8
   3  -6  11 142.422 138.694   4
   3  -6 -11 123.330 193.817   3
  -3   6 -11 40.2955 133.682   7
  -3   6  11 345.369 279.120   5
  -6   3 -11-142.553 291.794   6
  -3  -6 -11-104.572 329.767   2
  -6   3 -11 99.8661 150.513   7
  -3   6 -11-142.728 316.339   6
   3   6  12 4283.94 552.988   5
  -3   6  12 4643.94 554.130   5
   6   3  12 3020.68 477.365   5
   3  -6 -12 2752.25 469.109   3
  -6   3 -12 3607.37 550.313   6
   3   6  12 4074.02 441.600   8
  -6   3 -12 4131.76 462.737   7
  -3   6 -12 4549.96 455.170   7
  -3  -6 -12 3523.23 559.089   2
   6  -3  12 4369.16 504.398   1
   3  -6  12 4156.43 453.352   4
  -3   6 -12 3338.35 545.893   6
   6  -3  13 1941.09 327.852   1
  -3   6 -13 2105.96 413.134   6
   3  -6 -13 1531.52 296.670   3
   6   3  13 964.888 300.709   5
   3   6  13 1664.86 400.265   5
  -3   6  13 1555.77 261.697   8
  -6   3 -13 2025.12 271.002   7
  -3  -6 -13 2164.35 426.399   2
  -3   6 -13 1616.62 250.175   7
  -3   6  13 1689.71 366.543   5
  -3  -6 -13 1435.67 244.041   3
   3   6  13 1764.61 238.110   8
   3  -6  13 1894.43 258.550   4
  -6   3 -13 962.040 388.784   6
  -6   3 -14 1867.64 301.459   7
  -3  -6 -14 2190.34 451.709   2
   3   6  14 2464.05 436.021   5
  -6   3 -14 1863.57 433.317   6
   3   6  14 2499.93 283.198   8
  -3   6  14 1787.16 313.464   8
   6  -3  14 2385.21 383.899   1
  -3   6 -14 2159.63 294.528   7
   3  -6  14 2280.59 301.686   4
  -3  -6 -14 2507.38 299.113   3
  -3   6 -14 2243.02 454.107   6
   3  -6 -14 1528.95 331.478   3
   6   3  14 1846.10 345.848   5
   3   6  15 1703.26 427.003   5
  -3   6  15 2058.17 290.881   8
  -3  -6 -15 1996.65 269.977   3
   6  -3  15 1174.57 334.301   1
  -3   6 -15 1672.70 273.142   7
   3  -6  15 1829.17 272.967   4
  -6   3 -15 1788.59 277.349   7
   6   3  15 1361.01 332.149   5
  -3   6 -15 1445.08 424.314   6
   3  -6 -15 1202.78 306.136   3
   3   6  15 1854.45 252.837   8
  -6   3 -15 1782.25 426.215   6
  -3  -6 -15 2615.06 462.303   2
  -3   6 -16 2001.53 449.984   6
  -3   6 -16 1397.57 274.863   7
   6   3  16 1630.64 350.533   5
   3   6  16 2108.96 259.015   8
  -3   6  16 1525.57 295.414   8
  -3  -6 -16 2086.70 460.315   2
   3   6  16 2138.07 450.845   5
   3  -6  16 2075.75 287.844   4
  -6   3 -16 1259.10 434.007   6
  -3  -6 -16 1776.37 267.705   3
   6  -3  16 2031.07 376.569   1
  -6   3 -16 1647.51 280.916   7
   3  -6 -16 1262.65 308.390   3
  -3   6 -17-818.578 453.165   6
  -3  -6 -17 84.1649 202.126   3
   6   3  17 397.426 301.368   5
  -6   3 -17-264.990 407.865   6
   6  -3  17 317.797 303.148   1
   3   6  17-671.221 457.655   5
   3   6  17 178.992 160.570   8
  -6   3 -17 103.853 197.702   7
  -3   6 -17 279.900 192.863   7
   6  -3  17 234.862 162.227   4
  -3  -6 -17-1416.00 466.775   2
   3  -6  17 11.0293 187.497   4
  -6  -3 -17 357.764 368.876   2
  -3   6 -18 2184.48 492.499   6
  -3   6 -18 2146.48 318.811   7
   6  -3  18 2065.50 420.553   1
   6   3  18 2120.92 405.360   5
   3   6  18 2651.88 314.527   8
   3   6  18 1900.65 504.688   5
   6  -3  18 1452.81 285.803   4
  -6   3 -18 2073.94 321.943   7
  -3  -6 -18 1316.29 510.602   2
  -3  -6 -18 2153.53 312.246   3
   3  -6  18 2824.34 338.719   4
  -6  -3 -18 1698.16 467.319   2
  -6   3 -18 2542.77 486.858   6
  -3   6 -19-233.678 428.555   6
   3   6  19 517.603 438.059   5
   3  -6  19 314.831 213.805   4
   6  -3  19 55.9024 165.439   4
  -3   6 -19 225.531 197.560   7
  -6  -3 -19-24.1706 157.928   3
   3   6  19 201.270 178.540   8
   6   3  19 139.244 160.541   8
  -6   3 -19 173.368 206.115   7
  -3  -6 -19 70.7199 196.330   3
  -3  -6 -19 377.104 454.905   2
   6  -3  19 102.711 343.750   1
  -6  -3 -19-80.0508 396.235   2
   6   3  19-66.5692 334.003   5
  -6   3 -19-319.228 420.383   6
  -3   6 -20 704.514 475.761   6
  -3  -6 -20 1521.28 292.764   3
   3  -6  20 1770.58 325.098   4
   6   3  20 1937.57 274.272   8
   3   6  20 2000.59 527.503   5
  -3  -6 -20 1312.53 525.669   2
   6   3  20 1188.58 410.026   5
  -3   6 -20 2055.55 309.615   7
   3   6  20 1963.85 283.302   8
   6  -3  20 1710.81 416.552   1
   6  -3  20 1395.48 265.114   4
  -6   3 -20 2020.55 311.613   7
  -6   3 -20 1672.58 492.952   6
  -3   6 -21-229.514 455.725   6
  -3  -6 -21 476.531 235.026   3
   6  -3  21 276.183 195.964   4
   3   6  21 672.170 498.910   5
  -3  -6 -21 533.157 515.870   2
   6  -3  21 199.789 365.063   1
  -6   3 -21 135.205 438.330   6
  -3   6 -21 665.224 237.911   7
  -6   3 -21 495.222 239.136   7
   3   6  21 370.514 204.772   8
   3  -6  21 538.631 242.318   4
   6  -3  22 1290.05 414.923   1
  -3   6 -22 1536.45 516.564   6
   3   6  22 937.297 252.145   8
  -6   3 -22 1522.86 288.245   7
  -3  -6 -22 1014.09 279.207   3
  -3  -6 -22 19.6197 556.414   2
   6  -3  22 898.584 235.534   4
  -6   3 -22 1412.22 497.950   6
   3   6  22 640.337 546.381   5
   3  -6  22 1346.30 291.822   4
   3   6  23 3913.43 705.767   5
  -3  -6 -23 541.759 316.226   3
  -3   6 -24 550.490 271.081   7
   3  -6  25 30.2097 253.139   4
  -3   6 -25 560.459 521.271   6
   3   6  25-33.6248 221.509   8
  -3  -6 -25 21.4711 589.922   2
  -3   6 -25 179.531 245.664   7
   3  -6  26 631.314 299.241   4
  -3   6 -26 235.895 271.763   7
   3   6  26 1048.27 596.818   5
  -3   6 -26 819.512 542.000   6
   3   6  26 512.529 260.932   8
  -3  -6 -26 663.273 613.471   2
  -3  -6 -26 279.174 300.640   3
   3   6  27 48.5307 234.855   8
   3  -6  27-31.4090 269.920   4
  -3   6 -27-297.013 539.376   6
  -3   6 -27 240.432 259.219   7
  -4   6   0 1125.16 189.271   7
  -4   6   0 1142.24 289.830   6
   4  -6   0 1812.24 241.205   1
  -4   6  -1 504.168 239.021   6
   4  -6   1 597.814 192.610   1
  -4   6  -1 720.300 139.977   7
  -4   6  -1 545.480 135.105   8
  -4   6   1 369.951 263.855   6
   4  -6  -1 537.502 170.330   1
  -4   6  -2 1191.27 181.024   7
   4  -6   2 921.656 231.822   1
  -4   6  -2 899.039 272.266   6
  -4   6  -2 1207.18 170.877   8
  -4   6   2 1107.17 179.050   8
  -4   6  -3 1098.16 175.953   7
  -4   6  -3 1163.11 272.334   6
  -4   6  -3 963.962 151.270   8
  -4   6   3 906.977 175.259   8
   4  -6   3 1123.94 230.900   1
  -4   6  -4 158.490 124.761   7
  -4   6   4 167.294 118.036   8
  -4   6  -4 143.083 87.3885   8
   4  -6   4 190.491 201.439   1
  -4   6  -4 242.023 242.253   6
  -4   6  -5 607.886 99.1239   8
  -4   6   5 440.047 135.999   8
  -4   6  -5 399.361 139.272   7
   4  -6   5 628.580 226.759   1
  -4   6  -5 262.177 253.936   6
   4  -6   6 116.217 225.193   1
  -4   6  -6 196.100 136.345   7
   4   6   6 423.286 256.846   5
  -4  -6  -6 220.175 287.040   2
  -4   6  -6-61.7281 284.308   6
  -4   6  -6 311.871 77.2736   8
  -6   4  -7 1985.75 268.293   7
   4   6   7 5329.73 446.459   5
  -4   6  -7 5584.01 473.602   6
   4   6   7 1627.06 226.443   8
  -6   4  -7 4171.30 417.117   6
  -4  -6  -7 3311.40 490.683   2
  -4  -6  -8-337.193 378.512   2
   6  -4   8 147.672 215.160   1
   4   6   8-113.331 295.654   5
   4   6   8 20.1832 113.532   8
   4  -6   8 257.349 128.033   4
  -6   4  -8 160.912 152.149   7
  -4   6  -8-132.247 290.216   6
  -6   4  -8 217.456 255.835   6
  -4   6  -9 1367.83 352.617   6
   6  -4   9 1443.39 290.149   1
   4   6   9 1689.33 220.643   8
   4  -6   9 1268.57 220.904   4
  -4  -6  -9 1824.01 421.943   2
  -6   4  -9 1312.76 239.043   7
   4   6   9 2334.61 380.040   5
  -4   6  -9 1942.04 242.609   7
  -6   4  -9 786.083 327.598   6
   4  -6   9 1450.37 323.588   1
  -4  -6 -10 82.5446 361.417   2
   4  -6  10-107.204 281.778   1
   6  -4  10 133.114 225.426   1
  -4   6 -10-14.1065 312.606   6
   4   6  10 491.364 307.512   5
   4   6  10 50.8965 115.510   8
   4  -6  10-49.8347 132.391   4
  -4   6 -10 42.7145 138.754   7
  -6   4 -10 792.179 322.290   6
  -6   4 -10 149.595 154.331   7
  -6   4 -11 3047.34 449.856   6
   6  -4  11 2623.56 392.078   1
   4  -6  11 2413.34 425.172   1
   4   6  11 2831.07 322.058   8
  -6   4 -11 2866.76 340.869   7
   4  -6  11 2160.79 319.474   4
  -4   6 -11 2641.52 331.756   7
  -4  -6 -11 3103.72 487.062   2
   4   6  11 2335.71 442.040   5
  -4   6 -11 2053.89 439.803   6
  -4  -6 -12 1780.77 435.753   2
   4   6  12 1775.13 395.131   5
   4   6  12 1881.85 233.499   8
   4  -6  12 1323.00 237.471   4
   6   4  12 1474.71 322.164   5
  -6   4 -12 1486.70 387.414   6
  -4   6 -12 1658.83 248.797   7
  -6   4 -12 1243.67 252.095   7
   4  -6  12 2305.33 383.474   1
  -4   6 -12 1787.40 403.739   6
   6  -4  12 1189.54 314.247   1
  -4  -6 -13 743.844 393.496   2
  -4   6 -13 656.128 195.862   7
   4  -6  13 1033.64 338.322   1
  -6   4 -13 459.993 189.183   7
   4  -6  13 770.416 189.482   4
   6  -4  13 629.861 280.593   1
   4   6  13 1040.20 179.949   8
  -4   6 -13 685.504 373.346   6
   6   4  13 565.842 285.399   5
  -6   4 -13 350.933 365.921   6
   4   6  13 643.760 351.310   5
  -4   6 -14 1731.32 441.875   6
  -4  -6 -14 3249.74 509.069   2
   4  -6  14 2970.03 446.773   1
  -4   6 -14 2456.64 312.989   7
   6  -4  14 2567.03 406.331   1
  -6   4 -14 2212.07 316.859   7
   4   6  14 2149.85 295.073   8
   4   6  14 1976.57 440.250   5
   4  -6  14 1881.28 300.307   4
   6   4  14 2042.55 378.165   5
  -6   4 -14 1977.74 457.046   6
  -6   4 -15 1012.52 420.370   6
   4   6  15 903.068 184.260   8
   4  -6  15 892.830 371.945   1
  -4  -6 -15 1298.72 431.320   2
   6  -4  15 334.636 293.143   1
  -4   6 -15 753.383 203.044   7
  -4   6 -15 830.890 400.558   6
   4  -6  15 801.037 203.053   4
   4   6  15 1199.99 391.226   5
  -6   4 -15 575.394 198.797   7
  -6  -4 -15 526.088 360.090   2
   6   4  15 648.844 308.380   5
  -4   6 -16 551.061 429.000   6
   6   4  16 217.313 320.271   5
   4   6  16 1010.95 396.059   5
   4   6  16 1398.08 213.818   8
  -4  -6 -16 915.990 440.099   2
  -4  -6 -16 1018.49 214.101   3
  -6  -4 -16 750.893 397.104   2
  -6   4 -16 442.889 413.451   6
   6  -4  16 521.664 192.383   4
  -6   4 -16 1053.48 228.993   7
   4  -6  16 1239.34 395.451   1
   4  -6  16 1061.17 220.053   4
  -4   6 -16 1069.26 225.816   7
   6  -4  16 1096.77 350.097   1
   4  -6  17 814.418 242.546   4
  -4  -6 -17 392.688 204.674   3
   6   4  17 512.355 177.127   8
   6   4  17 393.742 330.322   5
   4   6  17 102.263 435.639   5
   4  -6  17-669.539 466.099   1
  -4  -6 -17 35.9230 495.500   2
  -4   6 -17 561.852 224.487   7
   6  -4  17 616.120 204.451   4
  -6   4 -17 285.468 208.931   7
   4   6  17 978.744 203.178   8
  -6  -4 -17 113.874 421.304   2
   6  -4  17 410.435 351.123   1
  -6   4 -17-150.050 453.743   6
   6   4  18 111.183 161.208   8
  -4   6 -18-291.818 435.466   6
  -4  -6 -18-127.081 187.002   3
   4   6  18-943.784 428.941   5
   6   4  18-636.788 344.204   5
   4  -6  18 21.1902 404.689   1
   6  -4  18 105.539 347.886   1
  -6   4 -18-85.8696 204.219   7
  -4   6 -18 94.9005 191.473   7
  -4  -6 -18-183.497 467.206   2
   6  -4  18-139.297 180.950   4
   4  -6  18 90.2005 196.678   4
  -6   4 -18 202.301 420.411   6
   4   6  18-9.24612 167.667   8
  -6  -4 -18-184.713 410.781   2
   6   4  19 450.105 348.812   5
  -4  -6 -19 700.979 230.974   3
   6   4  19 923.565 212.463   8
   4   6  19 861.519 440.920   5
  -4   6 -19 370.671 453.723   6
  -6   4 -19 539.636 233.517   7
  -4   6 -19 653.098 232.870   7
  -6  -4 -19 605.898 455.388   2
   4   6  19 1124.66 217.962   8
   4  -6  19 1066.67 241.167   4
   6  -4  19 953.767 367.408   1
   6  -4  19 609.523 217.603   4
  -4  -6 -19 507.182 485.589   2
   4  -6  19 1485.68 460.059   1
  -6   4 -19 1348.19 464.868   6
  -6  -4 -20 483.724 471.963   2
   4  -6  20 160.807 223.448   4
   6   4  20 421.830 189.516   8
  -4   6 -20 188.632 451.407   6
   4  -6  20 976.508 484.681   1
   6   4  20 456.351 368.015   5
  -4  -6 -20 103.685 204.915   3
  -4  -6 -20 404.370 496.023   2
  -6  -4 -20-36.2936 179.044   3
   4   6  20 275.324 191.461   8
   4   6  20 480.307 456.569   5
  -6   4 -20-35.4889 448.640   6
   6  -4  20 187.758 191.982   4
  -6   4 -20 169.634 223.669   7
  -4   6 -20-213.422 219.658   7
   6  -4  20-150.778 375.848   1
  -4   6 -21 982.165 481.246   6
  -6  -4 -21 878.326 219.576   3
   6   4  21 1119.00 408.087   5
   4  -6  21 1416.87 537.411   1
  -4  -6 -21 376.198 236.910   3
  -4  -6 -21 39.5249 575.643   2
   6   4  21 959.401 218.518   8
   4  -6  21 1050.20 263.388   4
  -6   4 -21 1034.85 268.063   7
  -4   6 -21 869.017 246.247   7
   4   6  21 921.305 237.106   8
   6  -4  21 504.625 227.452   4
   4   6  21 114.554 496.614   5
  -6   4 -21 828.395 485.827   6
   6  -4  21 948.690 399.977   1
  -6   4 -22-83.7796 237.956   7
   6  -4  22 342.975 207.091   4
  -6   4 -22-664.163 529.741   6
   4   6  22-874.198 569.065   5
   4   6  22 201.235 219.522   8
  -4   6 -22-157.922 484.484   6
   4  -6  22 285.303 236.992   4
   6  -4  22 676.185 411.129   1
  -4  -6 -22-223.863 235.911   3
  -4  -6 -22-223.370 599.365   2
  -4  -6 -23 210.616 243.311   3
   4   6  23 451.051 562.193   5
   6  -4  23-57.1928 218.519   4
  -6   4 -23-147.965 261.558   7
  -6   4 -23-844.012 558.489   6
   6  -4  23-551.485 458.804   1
  -6   4 -24-220.677 522.976   6
   4  -6  24 774.882 580.201   1
  -4   6 -24-176.796 255.971   7
  -4  -6 -25 297.800 269.711   3
  -4   6 -25 343.689 524.896   6
  -4  -6 -25-242.990 609.875   2
   4  -6  25 455.999 607.059   1
  -4   6 -25 310.960 261.555   7
   4   6  25 367.767 247.658   8
   4  -6  25 198.883 267.390   4
   4   6  26 484.352 595.661   5
   4  -6  26-142.609 279.598   4
  -4   6 -26 443.576 545.269   6
   4  -6  26 806.281 659.040   1
   4   6  26 297.265 250.620   8
  -4   6 -26-106.144 262.600   7
  -4   6 -27 108.457 285.463   7
   4  -6  27 272.547 714.352   1
   4  -6  27 64.9455 300.401   4
   5  -6   1 391.074 197.784   1
  -5   6  -1 296.958 297.770   6
   5  -6   2 34.3459 189.837   1
  -5   6  -2 8.27543 131.544   7
   5  -6   3-412.241 255.432   1
  -5   6  -3 242.981 145.420   7
   5  -6   4 1719.32 316.370   1
  -5   6  -4 416.248 183.320   7
  -5   6  -4 212.374 204.311   8
  -5   6  -4 2533.68 386.402   6
  -5   6  -5-358.894 196.981   8
   5  -6   5-709.360 285.809   1
  -5   6  -5-130.415 159.275   7
  -5   6  -6 17.5038 138.765   7
  -5   6  -6-13.1190 276.410   6
  -5   6  -6-38.4651 141.494   8
  -6   5  -6-164.715 259.506   6
   5  -6   6-66.1321 223.498   1
   6  -5   7 91.2832 217.376   1
  -6   5  -7 64.6204 275.040   6
  -5   6  -7-108.231 291.890   6
  -6   5  -7 261.336 153.143   7
  -6   5  -8 186.187 288.271   6
   6  -5   8 270.643 229.643   1
  -5   6  -8 293.773 310.075   6
  -6   5  -8-37.8854 157.029   7
   5   6   9-14.0639 279.532   5
  -6   5  -9 248.929 306.090   6
   6  -5   9-166.985 244.617   1
  -6   5  -9-19.1688 157.486   7
  -5   6  -9 9.05572 152.266   7
  -5   6  -9-361.438 325.373   6
   5  -6   9-89.4475 256.614   1
   6  -5  10 666.065 256.251   1
   5  -6  10 497.755 282.719   1
   5   6  10 58.6451 298.949   5
  -5   6 -10 183.353 160.205   7
  -5  -6 -10 293.957 349.560   2
  -6   5 -10 216.428 321.351   6
  -5   6 -10-14.9399 335.605   6
  -6   5 -10 244.525 167.604   7
   5   6  11 464.224 144.103   8
   5   6  11 452.800 318.608   5
   6  -5  11 846.537 278.327   1
   5  -6  11 353.063 302.918   1
  -5   6 -11 625.912 192.598   7
  -6   5 -11 245.548 177.968   7
   5  -6  11 789.658 178.946   4
  -5   6 -11-213.230 345.574   6
  -6   5 -11 630.934 352.717   6
  -5  -6 -11 1000.78 380.733   2
   5   6  12 46.1267 327.022   5
  -5  -6 -12 590.967 386.803   2
  -5   6 -12 76.0476 164.914   7
  -5   6 -12 471.163 372.915   6
   5  -6  12 250.864 295.625   1
  -6   5 -12 200.240 174.767   7
   5  -6  12 65.1677 150.954   4
  -6   5 -12-140.338 363.120   6
   6   5  12 501.551 292.096   5
   6  -5  12-233.396 280.618   1
   5   6  12 125.819 131.884   8
   5   6  13 1214.14 200.777   8
   5  -6  13 1150.89 219.587   4
   5  -6  13 793.575 331.139   1
  -5   6 -13 1164.88 232.753   7
   5   6  13 1296.47 381.092   5
  -6   5 -13 1328.29 236.938   7
   6  -5  13 1024.79 326.940   1
  -5   6 -13 936.056 410.791   6
  -6   5 -13 1111.36 414.337   6
  -5  -6 -13 1245.65 436.132   2
   6   5  13 202.106 312.147   5
  -5  -6 -14 364.241 420.936   2
  -6   5 -14 92.3374 182.691   7
   6   5  14-164.263 310.340   5
   6  -5  14-100.065 307.400   1
   5  -6  14 266.984 309.582   1
   5   6  14 229.693 151.625   8
  -5   6 -14-98.8956 392.668   6
   5  -6  14 98.9734 171.864   4
  -5   6 -14 69.4749 175.663   7
   5   6  14 174.277 354.660   5
  -6   5 -14 348.187 393.289   6
  -5   6 -15 1456.90 275.008   7
  -5  -6 -15 2407.71 497.695   2
   5   6  15 1557.97 424.321   5
   5  -6  15 1630.10 398.590   1
   6  -5  15 1511.93 266.635   4
  -6  -5 -15 2063.08 454.221   2
   6   5  15 1417.33 371.668   5
  -6   5 -15 1446.64 466.408   6
  -6   5 -15 1591.22 278.788   7
   5   6  15 1612.47 252.242   8
   5  -6  15 1675.60 270.489   4
   6  -5  15 1817.48 394.287   1
  -5   6 -15 1090.77 469.112   6
   5  -6  16-63.4238 219.259   4
  -5  -6 -16-226.158 481.276   2
   6   5  16-718.302 363.694   5
  -6   5 -16-84.7053 221.363   7
   6  -5  16-53.6114 359.971   1
   6  -5  16-165.450 195.626   4
  -5   6 -16 678.806 247.407   7
   5   6  16 172.939 171.729   8
  -6   5 -16-1443.04 505.603   6
   5  -6  16-248.587 432.403   1
  -6  -5 -16 446.152 440.496   2
   5   6  16-260.042 396.586   5
  -5  -6 -17 154.318 463.505   2
   5   6  17 413.590 178.250   8
   6   5  17 229.624 346.906   5
   6   5  17 280.874 167.930   8
   6  -5  17 458.976 345.780   1
   5  -6  17 338.926 206.247   4
  -6   5 -17 465.345 218.552   7
   6  -5  17 263.389 198.369   4
   5  -6  17 79.0142 352.897   1
  -5   6 -17 535.773 216.184   7
   5   6  17-313.189 384.492   5
  -6  -5 -17-300.874 420.739   2
  -6   5 -17 440.965 432.886   6
  -5   6 -17-35.7331 438.809   6
  -6  -5 -18-820.030 455.164   2
  -6   5 -18 121.773 209.514   7
   6  -5  18-377.155 373.444   1
  -6   5 -18-271.801 445.808   6
  -5  -6 -18-393.666 501.551   2
   5   6  18 106.711 180.343   8
   5   6  18-201.644 401.572   5
   6  -5  18 258.392 190.548   4
   5  -6  18-146.803 208.101   4
  -5   6 -18 154.065 213.052   7
   6   5  18 238.727 174.996   8
  -5  -6 -18 187.353 198.610   3
   6   5  18 351.286 348.908   5
  -5   6 -18 279.114 466.589   6
   5  -6  18-326.783 405.960   1
  -5   6 -19-268.755 477.321   6
  -5  -6 -19 422.378 510.273   2
  -5  -6 -19 93.8722 196.296   3
   6   5  19 15.0019 361.099   5
   5   6  19 293.338 428.396   5
   6   5  19 19.1505 179.267   8
   5   6  19 289.342 194.923   8
  -6   5 -19 123.970 222.057   7
  -6   5 -19-558.075 487.829   6
   6  -5  19 44.0830 202.738   4
   5  -6  19-84.5204 405.293   1
  -5   6 -19 294.043 230.011   7
   5  -6  19 81.7187 208.740   4
   6  -5  19 271.165 390.787   1
  -6  -5 -19 640.342 477.462   2
  -6  -5 -20 678.386 505.024   2
   6  -5  20 248.676 216.171   4
  -6   5 -20 277.249 233.192   7
  -6  -5 -20 519.957 205.749   3
   5   6  20-35.3620 429.974   5
   5  -6  20 363.694 226.857   4
   6   5  20 681.126 396.424   5
   6   5  20 498.548 198.192   8
  -6   5 -20 93.9016 466.298   6
   6  -5  20 178.997 381.976   1
   5   6  20 298.889 198.794   8
  -5   6 -20 69.9423 227.527   7
   5  -6  20-240.765 421.818   1
  -5  -6 -20 123.197 532.968   2
  -5  -6 -20 230.628 211.222   3
  -5   6 -20 257.686 478.604   6
  -6   5 -21-253.240 496.842   6
  -5  -6 -21 673.394 549.059   2
  -6  -5 -21 99.7597 511.160   2
  -5   6 -21 621.458 503.942   6
   6  -5  21 351.175 421.741   1
  -6  -5 -21 110.340 199.214   3
   6  -5  21 34.7775 210.754   4
   6   5  21 274.078 408.776   5
   5   6  21-363.109 456.772   5
   5   6  21 309.115 217.344   8
   6   5  21-20.7672 201.540   8
  -5  -6 -21 181.898 218.172   3
  -6   5 -21-130.393 236.465   7
   5  -6  21 275.589 227.687   4
  -6   5 -22-901.965 606.721   6
   5   6  22 468.639 563.271   5
  -6  -5 -22 143.389 230.591   3
  -5  -6 -22 341.718 256.379   3
   6   5  22 226.825 231.192   8
   6  -5  22 333.554 261.070   4
   6   5  22 100.642 461.761   5
  -5   6 -23-316.586 265.738   7
   5  -6  23 73.4498 481.077   1
  -5   6 -24 633.019 528.226   6
   5  -6  24-865.875 511.737   1
   6  -5  24-67.1939 447.885   1
  -6   5 -24 154.205 259.781   7
   5  -6  24-99.3314 234.365   4
  -5   6 -24 65.0272 261.969   7
   5   6  24 23.8439 231.902   8
  -5  -6 -24 570.082 623.217   2
  -6   5 -25 319.825 536.254   6
   5  -6  25 79.5576 554.166   1
   6  -5  25 897.453 477.202   1
   5  -6  25 14.7890 261.624   4
   5   6  25 49.9593 242.927   8
  -6   5 -25 541.695 280.072   7
  -5   6 -25 66.7199 261.423   7
   5   6  25 879.163 541.720   5
  -5   6 -25 388.494 522.728   6
   6  -5  25 118.901 244.255   4
   5  -6  26-138.084 529.513   1
  -5   6 -26 531.914 560.435   6
  -5   6 -26 246.173 277.494   7
   5  -6  26-199.293 273.297   4
  -5   6 -27 251.320 280.312   7
  -5   6 -27 638.303 559.429   6
  -6   6  -3-61.4936 323.228   6
  -6   6  -4-316.826 312.010   6
   6  -6   4 273.664 212.958   1
  -6   6  -4 28.1847 154.128   7
   6  -6   5-185.602 224.739   1
  -6   6  -5-168.262 306.536   6
  -6   6  -5-95.4615 161.517   7
  -6   6  -6 265.111 304.562   6
  -6   6  -6 252.780 164.506   7
  -6   6  -7-382.681 311.552   6
  -6   6  -8 59.5094 166.303   7
   6  -6   8 248.949 252.309   1
  -6   6  -8 597.184 325.448   6
  -6   6  -9-9.93776 169.144   7
  -6   6  -9 105.263 324.102   6
   6  -6   9-270.690 263.544   1
  -6   6 -10-60.6278 166.704   7
  -6   6 -10-337.835 353.544   6
   6  -6  10 94.0239 269.341   1
  -6   6 -11-141.829 173.250   7
   6  -6  11 177.176 285.714   1
   6  -6  12 150.882 302.547   1
  -6   6 -12 328.572 383.118   6
   6   6  12 435.983 313.559   5
  -6   6 -12 298.698 187.590   7
  -6   6 -13-16.9545 400.939   6
   6  -6  13 172.280 315.943   1
   6   6  13-267.803 329.602   5
  -6   6 -13 145.322 183.601   7
   6  -6  13-72.0024 161.133   4
   6   6  14-45.3973 364.448   5
  -6  -6 -14-104.364 409.072   2
   6  -6  14 419.571 205.283   4
  -6   6 -14 327.593 214.822   7
  -6   6 -14-139.702 462.254   6
   6  -6  14 71.8106 359.266   1
   6   6  15-704.997 374.230   5
  -6   6 -15-931.549 500.675   6
  -6   6 -15-430.748 230.592   7
   6  -6  15-407.991 226.231   4
  -6  -6 -15-396.191 437.569   2
   6  -6  15-774.643 398.921   1
   6  -6  16 322.070 359.176   1
   6  -6  16 407.279 208.675   4
   6   6  16 596.445 186.751   8
   6   6  16 884.372 381.027   5
  -6   6 -16 472.458 222.298   7
  -6   6 -16 1022.08 455.582   6
  -6  -6 -16 1044.49 460.651   2
  -6   6 -17-145.009 213.018   7
   6  -6  17-38.9228 370.646   1
   6   6  17-109.924 368.424   5
  -6   6 -17 658.458 466.904   6
   6   6  17 46.4848 173.454   8
   6  -6  17 45.1308 195.795   4
  -6  -6 -17-671.582 465.121   2
  -6   6 -18-34.2063 220.712   7
   6   6  18 106.558 178.359   8
   6   6  18 587.456 373.042   5
   6  -6  18 115.664 199.804   4
   6  -6  18 161.730 385.228   1
  -6  -6 -18 217.715 472.693   2
  -6   6 -18 342.505 471.280   6
  -6  -6 -19 121.977 494.476   2
   6   6  19 289.906 380.274   5
   6  -6  19-94.9318 206.713   4
   6   6  19 80.5462 186.919   8
  -6   6 -19 685.029 489.253   6
  -6  -6 -20 334.068 225.335   3
   6  -6  20 230.935 225.443   4
   6   6  20 493.120 410.739   5
   6   6  20 219.563 195.771   8
  -6  -6 -20 125.282 522.161   2
  -6  -6 -21 407.718 264.068   3
   6   6  21 2536.17 508.873   5
   6  -6  22 45.2073 428.742   1
  -6   6 -22-12.5511 252.508   7
  -6   6 -23 716.748 553.482   6
  -6   6 -23 270.250 249.554   7
   6   6  23 35.1195 227.639   8
   6  -6  23 395.628 452.789   1
   6  -6  23-144.722 251.109   4
   6  -6  24 743.081 491.593   1
   6   6  24 134.201 230.715   8
  -6   6 -24 328.579 560.738   6
  -6   6 -24 105.597 265.451   7
   6  -6  24-95.5995 240.665   4
  -6   6 -25 465.066 562.990   6
  -6   6 -25-378.900 287.623   7
   6  -6  25 469.429 507.180   1
   6  -6  25 239.225 259.966   4
  -6   6 -26 202.931 635.040   6
   6  -6  26 1553.32 603.847   1
  -6   6 -26 221.928 289.669   7
   6  -6  26 655.512 309.180   4
   0  -7   0-140.280 255.191   2
   0   7   0-17.9569 71.2055   8
   0   7   1 498.770 193.577   6
   0  -7  -1 156.891 86.1877   4
   0  -7  -1 10.8398 248.820   2
   0   7   1 239.425 187.924   5
   0   7  -1 341.968 98.0916   7
   0   7   1 229.115 86.4350   8
   0  -7  -2 33.0235 246.795   2
   0   7   2-24.6077 179.762   6
   0   7   2-103.325 80.9273   8
   0   7  -2 27.8421 88.7037   7
   0  -7  -2-37.8480 78.2433   4
   0   7   2-39.9245 78.2022   7
   0   7   2 148.470 191.186   5
   0   7  -2-103.253 173.534   5
   0   7  -2-20.8464 205.130   6
   0  -7   2-72.9993 95.5724   4
   0   7  -3 943.907 244.679   6
   0  -7  -3 763.451 138.543   3
   0   7   3 545.973 113.933   7
   0   7  -3 604.028 132.834   7
   0   7   3 459.448 213.153   5
   0  -7  -3 964.109 279.902   2
   0   7  -3 795.156 196.514   5
   0   7   3 820.160 121.377   8
   0  -7  -3 647.426 115.031   4
   0  -7   3 667.724 133.164   4
   0   7   3 735.444 196.167   6
   0   7  -4 11.5290 223.384   6
   0   7   4-5.55720 86.7067   8
   0  -7  -4 18.9289 102.133   3
   0   7  -4-163.952 180.379   5
   0   7   4 164.468 204.794   5
   0  -7  -4 58.3119 253.428   2
   0   7   4 28.6042 78.9699   7
   0   7  -4-43.7355 93.2824   7
   0  -7  -4-40.5197 69.2789   4
   0  -7   4 27.0264 102.414   4
   0   7   4 57.1514 172.880   6
   0  -7  -5 18.9878 142.886   1
   0   7   5 310.481 175.827   6
   0   7  -5 84.7585 244.853   6
   0   7  -5 310.698 114.825   7
   0   7  -5 193.302 194.441   5
   0   7   5 162.838 216.501   5
   0  -7   5 42.9487 105.334   4
   0   7   5 179.833 96.9821   8
   0  -7  -5 247.709 116.344   3
   0  -7  -5 120.842 262.398   2
   0   7   5 165.615 84.1624   7
   0  -7  -5 223.819 75.7597   4
   0  -7   6 74.8970 114.061   4
   0   7   6-92.3943 94.4171   8
   0   7  -6 202.539 243.373   6
   0  -7  -6-20.3959 113.140   3
   0   7   6-11.4058 223.598   5
   0   7  -6-34.8296 109.394   7
   0   7   6-53.3683 77.3931   7
   0   7   6 60.7459 164.637   6
   0  -7  -6-163.246 270.914   2
   0  -7  -6-92.0311 73.6905   4
   0  -7  -6 50.9131 130.508   1
   0   7  -6 34.8337 208.114   5
   0   7  -7 482.093 132.419   7
   0  -7  -7 254.368 78.6482   4
   0  -7  -7-213.535 169.103   3
   0   7   7 11.1068 170.262   6
   0   7  -7 106.004 284.024   6
   0   7   7 136.302 79.1376   7
   0  -7  -7-153.840 148.575   1
   0  -7   7 304.778 125.729   4
   0   7   7 157.105 113.579   8
   0  -7  -8 378.796 228.948   3
   0   7  -8 742.326 189.639   7
   0   7   9 553.642 292.365   5
   0  -7  -9 924.238 170.704   3
   0  -7   9 628.226 167.860   4
   0   7   9 849.724 155.973   8
   0   7  -9 545.229 299.532   6
   0  -7  -9 655.132 97.6257   4
   0   7  -9 668.738 156.947   7
   0  -7 -10-154.526 140.847   3
   0   7  10-208.592 288.506   5
   0   7 -10-14.8541 282.985   6
   0  -7  10 35.1421 139.168   4
   0   7 -11 46.1963 310.181   6
   0  -7 -11 289.968 151.518   3
   0  -7  11 319.210 152.135   4
   0   7  11 145.028 300.251   5
   0  -7  12 37.5569 146.302   4
   0   7 -12 79.7156 307.346   6
   0  -7 -12 26.8592 149.284   3
   0   7  12-182.384 314.199   5
   0   7 -12 86.1399 137.971   7
   0   7  12 108.580 141.467   8
   0   7  13 896.623 375.322   5
   0   7  13 1580.20 221.919   8
   0   7 -13 1281.42 370.522   6
   0  -7  13 910.996 216.885   4
   0   7 -13 1279.94 216.471   7
   0  -7 -13 1034.52 226.173   3
   0  -7  14-9.92721 162.044   4
   0   7 -14-169.722 328.500   6
   0   7  14-166.851 348.874   5
   0  -7 -14-188.201 176.711   3
   0   7  14-243.447 151.467   8
   0   7 -14 153.497 147.686   7
  -7   0 -14 108.312 300.650   6
   0  -7  15 770.916 198.014   4
   0   7  15 1150.52 209.167   8
   0   7 -15 1290.68 387.282   6
   0   7  15 1186.50 403.609   5
   0  -7 -15 845.956 215.717   3
   0   7 -15 866.946 201.262   7
  -7   0 -15 265.580 338.558   6
   0   7  16 108.784 382.594   5
   0  -7 -16-99.1729 198.609   3
   0   7  16-261.718 171.359   8
   0   7 -16-143.897 371.143   6
   0  -7  16-145.980 167.971   4
   0   7 -16 18.9454 158.047   7
  -7   0 -16-327.075 352.352   6
   0  -7  17 731.739 235.487   4
   0  -7 -17 1385.58 291.027   3
   0   7  17 1334.46 263.664   8
   0   7 -17 1197.99 244.818   7
   0  -7  18 259.091 177.403   4
   0  -7 -18 12.2964 209.238   3
   0   7 -18-98.5003 179.126   7
   0   7  18 98.1196 428.666   5
   0   7  18 10.3722 180.639   8
   0   7  19 426.307 459.579   5
   0   7  19 621.153 220.393   8
   0   7 -19 411.620 193.446   7
   0  -7 -19 1053.16 264.878   3
   0   7  20-105.430 460.104   5
   0  -7 -20-381.273 251.175   3
   0   7  20 309.159 204.256   8
   0   7 -20-81.8725 186.049   7
   0   7  21 935.348 507.432   5
   0  -7 -21 515.203 276.061   3
   0   7  22-46.7256 222.220   8
   0  -7 -23 367.380 336.520   3
   0   7  23-119.848 246.016   8
   0   7  23-322.336 559.028   5
   0  -7 -24 16.7786 292.056   3
   0   7  24-294.595 240.818   8
   0   7  24-23.5309 514.744   5
   0   7  25-601.221 542.241   5
   0   7  25 100.397 237.400   8
   0  -7 -25 88.0495 322.012   3
   0   7  26 48.5111 542.272   5
   0  -7 -26-183.501 331.306   3
   0   7  26-115.215 247.351   8
   0  -7 -27 267.540 339.732   3
   0   7  27 956.941 579.114   5
   0   7  27 65.1906 251.544   8
   0  -7 -28 277.137 344.778   3
   0   7  28-665.015 528.075   5
   0   7  28-182.198 253.685   8
   0  -7 -29-364.156 358.754   3
   0   7  29-66.0054 257.941   8
   0  -7 -30 102.544 347.734   3
   0   7  30-120.328 257.739   8
   0   7  31-13.5207 286.420   8
   1   7   0 1078.52 253.651   5
   1   7   0 1236.06 154.745   8
  -1   7   0 1038.28 163.536   7
  -1  -7   0 1033.45 313.055   2
   1  -7  -1 269.415 235.476   2
   1   7   1 431.095 237.214   6
  -1  -7  -1 243.836 278.710   2
   1  -7   1 315.748 95.6810   3
   1   7   1 41.1753 206.340   5
   1  -7   1 218.375 94.6579   4
   1   7  -1 445.582 91.1354   8
  -1  -7   1 327.980 250.119   2
  -1   7  -1 346.707 105.504   7
  -1   7   1 228.431 90.8435   8
   1   7   1 485.582 96.7663   8
   1   7  -1 376.533 116.008   7
  -1  -7  -1 250.075 92.0850   4
  -1   7  -1 434.418 224.500   6
   1   7   2 629.540 104.119   7
  -1  -7   2 407.886 112.368   4
  -1  -7  -2 468.515 98.4294   4
  -1   7  -2 295.514 110.120   7
   1  -7  -2 557.160 117.342   3
   1   7  -2 434.642 238.330   6
   1   7   2 365.951 252.473   6
  -1   7  -2 601.485 174.265   5
  -1   7   2 227.191 194.786   5
  -1   7   2 424.114 194.755   6
   1   7   2 399.676 97.1346   8
  -1   7   2 434.118 98.6231   8
  -1   7  -2 299.186 83.1839   8
  -1  -7  -2 600.497 281.660   2
   1  -7   2 364.301 107.294   4
   1  -7  -2 322.021 94.0533   4
  -1   7  -2 486.451 230.634   6
   1   7  -2 774.281 141.216   7
   1  -7   2 407.043 104.054   3
   1   7   2 597.596 219.775   5
  -1  -7   3 663.731 131.237   4
  -1  -7  -3 589.827 111.781   4
   1   7  -3 636.478 251.678   6
   1  -7   3 628.073 115.486   3
  -1   7   3 258.365 191.370   6
  -1   7  -3 581.446 175.516   5
   1  -7   3 1164.48 260.767   2
   1  -7  -3 696.992 140.106   3
   1  -7  -3 718.101 184.581   1
  -1   7  -3 714.183 107.789   8
  -1   7   3 675.119 124.759   8
   1  -7  -3 827.168 115.991   4
   1   7   3 554.244 112.039   7
   1   7   3 808.609 237.557   5
  -1   7   3 898.672 131.120   7
  -1  -7  -3 559.686 284.556   2
   1   7   3 905.420 125.962   8
  -1   7   3 510.844 218.581   5
  -1   7  -3 470.237 124.368   7
   1  -7   3 918.585 139.208   4
   1   7  -3 881.008 156.204   7
  -1   7  -3 506.118 237.832   6
  -1   7  -4-92.0249 237.813   6
  -1   7   4-92.0281 212.373   5
  -1   7  -4 119.582 65.0475   8
  -1  -7   4 62.1793 95.5106   4
   1  -7   4-8.08609 209.462   2
   1   7  -4 601.788 253.525   6
   1  -7  -4 6.39470 103.426   3
  -1  -7  -4 177.867 269.175   2
   1   7   4 89.0059 84.0938   8
  -1   7  -4 36.7126 146.907   5
   1  -7  -4 14.6061 141.398   1
  -1  -7  -4-8.05820 69.1653   4
  -1   7  -4 60.9603 98.4209   7
   1   7   4 75.6697 76.2656   7
  -1   7   4 7.19118 174.813   6
   1   7  -4 134.657 120.919   7
  -1   7   4 69.2106 86.2104   7
   1   7   4-89.0668 216.890   5
  -1   7   4 11.5749 91.1445   8
   1  -7   4 32.1329 97.5266   4
   1  -7  -4-28.4553 73.2801   4
  -1  -7   5 322.933 116.026   4
   1   7  -5 323.079 247.915   6
  -1   7   5 174.195 221.827   5
   1  -7  -5 461.738 90.1584   4
   1   7   5 207.035 224.079   5
   1  -7  -5 371.259 128.464   3
  -1  -7  -5 423.459 288.720   2
  -1   7  -5 344.759 81.6883   8
  -1   7  -5 489.398 123.788   7
   1   7   5 501.760 111.248   8
  -1   7   5 416.045 114.851   8
  -1   7  -5 190.983 242.836   6
  -1   7   5 390.407 102.494   7
  -1   7  -5 470.989 158.915   5
   1   7   5 348.698 86.3943   7
   1  -7   5 464.230 123.119   4
   1   7  -5 629.378 146.146   7
  -1   7   5 253.450 177.855   6
   1  -7  -5 504.783 158.836   1
   1  -7   5 296.836 181.569   2
  -1  -7   6 349.073 126.558   4
  -1   7  -6 484.471 128.483   7
   1  -7  -6 489.350 97.5460   4
   1   7  -6 554.623 273.873   6
   1   7  -6 563.998 158.077   7
  -1   7  -6 448.293 160.360   5
  -1  -7  -6 485.099 292.964   2
   1  -7  -6 562.915 138.642   3
  -1   7   6 435.171 243.544   5
  -1   7   6 530.597 106.579   7
  -1   7   6 533.948 187.727   6
   1   7   6 505.556 95.5314   7
  -1   7   6 734.023 135.972   8
   1  -7   6 460.258 131.550   4
  -1   7  -6 560.043 265.199   6
   1  -7  -6 520.972 146.309   1
   1   7   6 119.152 242.889   5
   1   7   6 734.612 125.672   8
  -1  -7   7 314.161 129.503   4
  -1  -7  -7-427.691 190.473   3
   1  -7  -7 73.4888 86.0589   4
   1  -7  -7 30.0916 162.827   3
  -1   7   7-967.826 354.862   5
  -1   7   7 262.112 108.766   7
   1   7   7-143.389 140.331   8
   1  -7  -7-249.580 161.418   1
   1   7   7-8.71392 100.200   7
  -1   7  -7 110.629 142.460   7
   1   7  -7 479.581 160.866   7
  -1   7   7 14.0352 149.981   8
   1  -7   7 258.536 145.630   4
  -1   7  -7-92.3693 174.694   5
   1   7   8 1356.75 187.928   8
  -1   7  -8-496.133 398.573   6
   1   7   8 738.121 128.048   7
  -1  -7  -8 486.039 213.703   3
  -1   7  -8 274.271 205.371   5
   1  -7  -8 523.996 182.623   3
   1  -7  -8 970.063 124.982   4
  -1   7   8-51.3577 351.311   5
  -1  -7  -8-466.123 475.846   2
  -1  -7   8 922.233 177.485   4
  -1  -7  -8-243.660 197.517   1
  -1   7  -8 1213.36 181.680   7
   1  -7   8 1165.55 185.983   4
   1   7  -8 1199.69 206.390   7
  -1   7   8 794.158 252.606   6
  -1   7   8 1226.62 190.477   8
   1  -7  -9 1661.83 244.751   3
   1   7  -9 1746.79 245.224   7
  -1   7  -9 1749.02 357.959   6
  -1   7   9 1748.99 241.496   6
  -1   7  -9 1668.19 240.019   5
  -1  -7  -9 1432.27 233.428   3
  -1   7   9 1813.33 343.030   5
   1   7   9 1378.74 344.547   5
   1  -7  -9 1591.82 185.944   4
   1  -7   9 1616.70 240.066   4
  -1  -7   9 1415.32 228.609   4
  -1   7  -9 1537.73 228.447   7
  -1   7   9 1977.11 240.259   8
  -1   7 -10 57.7377 301.781   6
  -1   7  10-85.1171 284.747   5
   1  -7 -10 17.7507 146.385   3
  -1   7  10-24.6546 134.087   8
   1   7  10 154.727 289.106   5
  -1  -7  10 33.2166 122.966   4
   1   7 -10-8.87500 143.187   7
   1  -7  10-105.669 141.536   4
  -1  -7 -10-206.079 140.699   3
   1   7  11 948.970 178.939   8
   1  -7 -11 948.369 204.000   3
  -1   7 -11 613.275 327.558   6
  -1  -7 -11 873.590 191.356   3
   1  -7  11 1225.70 206.128   4
   1   7  11 1038.27 334.562   5
  -1   7  11 875.357 327.100   5
  -1  -7 -11 706.251 367.002   2
  -1   7 -12 655.272 172.484   7
  -1   7 -12 434.557 319.799   6
  -1  -7 -12 880.512 189.500   3
   1  -7 -12 615.755 193.463   3
   1   7  12 1034.02 345.519   5
  -1   7  12 1355.86 351.775   5
  -1  -7 -12 684.427 370.797   2
   1   7  12 660.153 162.120   8
   1  -7  12 460.524 180.618   4
  -1   7 -13 1203.75 362.866   6
  -7   1 -13 361.048 308.888   6
  -1   7  13 813.228 360.807   5
   1   7  13 683.054 172.528   8
   1  -7 -13 704.266 207.493   3
  -1  -7 -13 640.371 188.008   3
  -1   7  13 674.936 185.340   8
   1   7  13 728.670 357.611   5
  -1  -7 -13 950.465 391.045   2
   1  -7  13 814.868 193.745   4
  -1   7 -13 503.133 172.566   7
  -1   7  14 1499.32 410.505   5
  -1   7 -14 1763.11 414.729   6
   1   7  14 1665.10 241.698   8
  -1  -7 -14 1706.49 260.789   3
   1  -7  14 1636.13 261.683   4
  -1   7  14 1505.31 261.100   8
   1  -7 -14 1100.18 266.887   3
   1   7  14 2321.58 441.318   5
  -1   7 -14 1645.26 249.825   7
  -7   1 -14 1022.13 380.865   6
  -1   7 -15-137.345 362.397   6
  -1  -7 -15 9.68815 178.359   3
   7   1  15-7.91461 195.799   5
  -1   7  15-159.411 373.817   5
   1   7  15 85.8556 369.939   5
   1  -7 -15 465.921 211.428   3
  -1   7  15 494.543 188.304   8
  -7   1 -15 97.7233 352.514   6
   1  -7  15 454.988 186.740   4
  -1   7 -15 368.520 174.323   7
  -7  -1 -15 543.497 299.440   6
   1   7  15 389.282 166.303   8
   1  -7 -16 234.019 219.378   3
  -1   7 -16 618.077 383.109   6
   7   1  16 691.872 232.599   5
  -1   7  16 887.520 403.998   5
  -1  -7 -16 355.182 199.311   3
   1   7  16 1132.70 401.062   5
  -1   7  16 717.149 221.434   8
   1   7  16 456.899 182.575   8
  -7   1 -16 875.133 383.210   6
   1  -7  16 904.108 215.999   4
  -1   7 -16 829.095 204.055   7
  -7  -1 -16 622.379 336.330   6
  -1   7  17 3546.74 546.527   5
  -1   7 -17 127.396 483.397   6
   1   7  17 4602.97 606.917   5
   1   7  17 3310.63 313.580   8
  -1   7 -17 834.726 265.824   7
  -1  -7 -17 1468.24 305.091   3
  -1   7  17 1088.08 280.021   8
   1  -7 -17 1410.98 331.483   3
  -7   1 -17 945.149 432.095   6
   1  -7  17 657.426 269.122   4
  -1  -7 -18-11.1901 210.808   3
   1   7  18 58.1445 431.506   5
  -1   7  18 278.855 419.174   5
  -1   7 -18-298.825 412.930   6
  -1   7  18 45.9987 209.355   8
  -1   7 -18 62.1179 189.865   7
   1  -7 -18-368.771 241.959   3
   1   7  18 29.1866 172.887   8
   7  -1  18 235.362 281.661   1
  -7   1 -18 222.378 385.611   6
   1  -7  18 35.4517 187.683   4
  -1  -7 -19 601.434 229.175   3
  -1   7  19 102.579 435.726   5
   1  -7 -19 390.096 269.486   3
   1   7  19 822.162 212.518   8
  -1   7 -19 230.689 418.235   6
   1   7  19 240.542 469.294   5
  -1   7 -19 584.524 212.532   7
  -7   1 -19 44.7214 395.559   6
  -1   7  19 439.906 224.601   8
   1  -7  19 266.960 208.639   4
  -1   7 -20 316.524 216.949   7
   1  -7  20 482.048 222.539   4
   1   7  20 250.010 475.333   5
  -1  -7 -20 447.811 247.647   3
   1  -7 -20 440.311 275.320   3
  -1   7  20 529.661 452.834   5
   1   7  20 588.569 209.987   8
  -1   7 -20 137.856 427.931   6
  -1  -7 -21 262.614 245.642   3
   1   7  21 150.613 501.683   5
   1  -7  21 506.275 233.393   4
  -1   7 -21 1134.18 480.454   6
  -1   7  22 332.641 238.583   8
  -1   7 -23-58.6201 242.889   7
  -1   7  23-104.904 260.610   8
   1  -7  23 272.614 228.177   4
   1   7  23 112.229 220.547   8
  -1   7  23-742.159 537.383   5
   1  -7 -23-330.658 340.259   3
   1  -7 -24-125.999 315.001   3
  -1   7  24-319.440 511.071   5
  -1   7 -24 95.7587 228.758   7
   1   7  24 311.012 217.487   8
   1   7  24-496.009 548.275   5
  -1  -7 -24-122.509 284.226   3
  -1   7  24 321.672 256.106   8
  -1   7  25-163.975 268.036   8
  -1  -7 -25-16.1814 295.190   3
   1  -7 -25 204.790 315.258   3
   1   7  25 973.574 572.635   5
   1   7  25 82.6749 229.658   8
  -1   7  25 850.325 506.689   5
  -1   7 -25 85.6190 230.957   7
   1   7  26 621.666 579.239   5
  -1   7  26 97.2219 263.444   8
  -1  -7 -26-137.060 313.279   3
  -1   7 -26 24.8685 242.178   7
   1   7  26 108.911 235.084   8
   1  -7 -26-475.627 327.990   3
  -1  -7 -27 360.445 323.853   3
   1   7  27-253.498 568.896   5
   1   7  27 49.5584 245.805   8
  -1   7 -27-151.365 243.311   7
  -1   7  27 249.642 268.541   8
   1  -7 -27 250.990 331.885   3
   1   7  28 298.835 248.259   8
   1   7  28-284.121 590.797   5
  -1  -7 -28 94.6311 348.729   3
  -1   7  28-56.0424 266.286   8
  -1  -7 -29-158.584 357.671   3
  -1  -7 -29 552.967 765.695   2
   1   7  29 12.7315 246.684   8
  -1   7  29-56.4356 270.149   8
   1   7  29 285.877 588.228   5
   1   7  30-377.192 261.233   8
  -1   7  30-99.1752 263.960   8
  -1   7  31-97.3162 297.529   8
   2  -7   0 1237.30 255.498   1
   2  -7   0 1426.69 199.013   4
  -2   7   0 1971.18 215.395   7
  -2   7   0 1186.35 284.456   6
   2  -7   1 2917.05 336.303   3
  -2   7  -1 2378.03 370.247   5
   2   7   1 1717.39 408.738   5
   2  -7   1 3170.68 341.485   4
   2   7   1 3288.24 335.558   8
  -2   7   1 3119.97 334.961   8
  -2   7   1 3259.75 344.455   7
  -2   7  -1 3201.19 345.577   7
  -2  -7  -1 2484.23 443.741   2
   2  -7  -1 2923.94 380.792   1
   2  -7   1 3119.30 391.472   1
  -2   7  -1 2604.32 399.718   6
   2   7   2 601.556 113.660   8
  -2   7  -2 493.928 122.939   7
  -2  -7  -2 443.786 308.165   2
  -2   7   2 412.249 211.201   5
  -2   7  -2 498.850 99.6736   8
   2  -7   2 474.040 114.399   3
  -2   7  -2 835.525 191.706   5
   2  -7  -2 478.356 135.274   3
  -2   7  -2 783.689 243.424   6
   2   7   2 204.881 237.173   5
   2  -7   2 402.860 121.814   4
  -2   7   2 632.451 125.413   8
   2   7   3 293.694 97.5985   8
  -2  -7  -3 73.7619 302.947   2
  -2   7   3 214.203 205.162   5
  -2   7  -3 122.809 111.244   7
   2   7   3 220.973 235.977   5
   2  -7  -3 6.71548 112.972   3
   2  -7   3 334.379 219.346   2
   2  -7   3 106.709 89.5326   3
  -2   7  -3 290.564 168.947   5
  -2   7   3 270.042 109.586   8
  -2   7  -3 107.658 72.6016   8
   2   7   3 442.159 197.087   7
   2  -7   3 165.667 102.597   4
  -2   7  -3 296.931 236.844   6
   2   7   4 971.616 139.642   8
  -2   7   4 1021.63 148.704   8
  -2  -7  -4 801.556 336.991   2
   2   7   4 588.975 260.780   5
  -2   7  -4 569.302 145.153   7
   2  -7   4 639.769 146.432   4
   2  -7   4 744.143 128.134   3
  -2   7  -4 756.370 112.346   8
   2  -7   4 716.251 232.761   2
  -2   7  -4 808.495 183.895   5
  -2   7  -4 867.201 275.602   6
  -2   7   4 469.403 218.155   6
  -2   7   4 303.304 234.613   5
   2   7   4 1337.87 187.015   7
   2  -7  -4 1095.05 164.232   3
  -2   7  -5 83.6198 250.606   6
   2  -7   5 20.8912 98.9442   4
   2   7   5 69.5080 106.765   7
   2  -7  -5 102.578 146.952   1
   2   7   5-384.819 267.295   5
  -2  -7  -5-117.744 304.952   2
   2  -7   5 170.188 209.693   2
  -2   7  -5 81.4705 112.032   7
   2   7   5 48.5146 93.5967   8
   2  -7  -5 38.0839 122.231   3
  -2   7  -5 22.6452 147.119   5
  -2   7   5 34.2513 219.533   5
  -2   7  -5 38.6146 57.1555   8
  -2   7   5 61.9618 106.661   8
  -2   7   5 86.3735 96.2004   7
  -2   7   5 463.686 201.504   6
   2  -7   5 3.78527 78.7466   3
   2  -7   6-128.161 233.755   2
  -2   7   6 140.581 223.788   6
   2   7   6 92.0753 330.085   5
  -2  -7  -6 438.396 354.765   2
   2  -7   6 644.609 124.887   3
   2  -7  -6 686.298 174.820   1
  -2   7  -6 596.540 182.611   5
   2   7   6 957.435 147.123   8
  -2   7  -6 931.153 112.592   8
  -2   7   6 874.535 162.561   8
  -2   7   6 169.102 284.457   5
   2   7   6 1329.83 141.267   7
   2  -7  -6 842.745 183.286   3
   2  -7   6 399.492 184.597   4
  -2   7  -6-468.301 372.040   6
  -2   7  -6 1013.50 164.904   7
  -2   7   7 5558.52 570.681   5
   2   7   7 4231.88 571.944   5
  -2   7   7 2639.03 438.219   8
   2   7   7 2973.15 428.001   8
   2  -7  -7 1677.91 435.880   3
   2   7   7 2858.90 408.536   7
   2  -7   7 2252.32 443.486   4
  -2   7   7 6945.12 509.277   6
   2  -7   7 7629.24 451.446   2
  -2   7  -7 6043.38 477.549   7
   2  -7  -8 2257.46 302.087   3
   2   7   8 2002.73 389.817   5
  -2   7  -8 1881.71 270.992   5
  -2   7   8 2536.19 323.148   6
  -2   7  -8 1866.37 277.518   7
   2  -7   8 2263.13 288.684   4
   2  -7   8 2433.85 246.152   3
  -2   7   8 2341.76 379.339   5
  -2   7   8 2243.67 289.259   8
  -2   7  -8 2439.09 408.093   6
  -2   7  -9-14.3595 309.756   6
  -2   7  -9-7.73466 129.409   7
  -2   7   9 266.041 272.365   5
   2  -7  -9 223.071 157.609   3
   2  -7   9 256.485 139.531   4
  -2   7   9 42.8568 139.184   8
  -2   7   9 373.100 209.138   6
   2   7   9 157.074 288.655   5
  -2   7  10 3513.48 413.181   8
  -2  -7 -10 3975.26 411.291   3
  -2   7  10 3560.91 503.659   5
   2   7  10 3345.71 397.413   8
   2   7  10 3303.05 506.995   5
   2  -7  10 3327.72 405.537   4
  -2   7 -10 3510.31 512.180   6
   2  -7 -10 3239.46 420.270   3
  -2  -7 -10 3855.41 542.876   2
   2  -7  11 548.017 165.410   4
  -2  -7 -11 543.268 166.368   3
   2   7  11 652.732 153.010   8
  -2  -7 -11 812.506 360.378   2
  -2   7  11-61.4552 305.786   5
   2  -7 -11 463.955 194.007   3
   2   7  11 514.853 325.819   5
  -2   7  11 630.013 184.438   8
  -2   7 -11 415.838 161.891   7
  -2   7 -11 774.033 340.383   6
  -2   7 -12 1727.31 385.994   6
  -2  -7 -12 1466.56 230.837   3
   2   7  12 1444.14 379.891   5
   2   7  12 1344.70 207.447   8
  -2   7 -12 1355.89 227.830   7
  -2  -7 -12 1420.25 396.070   2
   2  -7 -12 942.339 253.488   3
   2  -7  12 1327.90 229.230   4
  -2   7  12 1769.31 369.472   5
  -7   2 -12 825.697 337.858   6
  -2  -7 -13 2065.46 280.881   3
  -2   7 -13 2051.92 433.264   6
   2   7  13 1635.94 423.807   5
  -2  -7 -13 1647.63 446.358   2
   2   7  13 1912.26 259.814   8
  -2   7 -13 1955.04 276.634   7
   2  -7  13 1976.62 281.987   4
   2  -7 -13 1559.05 305.332   3
  -2   7  13 2369.22 417.145   5
  -7   2 -13 1947.81 403.572   6
  -2   7  14 731.366 373.618   5
  -2   7 -14 893.646 216.253   7
   2   7  14 1247.96 200.112   8
  -2   7 -14 1760.37 405.150   6
  -2  -7 -14 1010.60 423.294   2
   2  -7  14 842.937 212.415   4
   2   7  14 1353.06 407.956   5
  -2  -7 -14 1139.19 215.439   3
  -2   7  14 1025.34 229.679   8
  -7   2 -14 825.843 379.903   6
   2  -7 -14 1130.27 258.965   3
  -2  -7 -15 2028.60 486.263   2
  -2  -7 -15 2116.38 307.007   3
   2   7  15 2465.14 487.085   5
   2   7  15 2680.61 304.447   8
  -2   7  15 2345.61 328.212   8
  -2   7 -15 2491.55 311.899   7
   2  -7  15 2150.90 318.534   4
   2  -7 -15 1844.33 345.825   3
  -2   7  15 2533.84 463.080   5
  -7   2 -15 2370.05 472.892   6
   7   2  15 1267.45 321.735   5
   7  -2  15 2189.11 375.169   1
  -2   7 -15 1947.45 456.862   6
   7  -2  16 628.493 292.929   1
  -2  -7 -16 841.391 222.606   3
  -7   2 -16 820.847 405.203   6
  -2   7 -16 157.189 421.844   6
   2  -7 -16 701.511 277.704   3
   2   7  16 1200.16 205.745   8
  -2   7  16 866.695 248.012   8
  -2   7 -16 860.824 216.645   7
  -2   7  16 429.629 404.954   5
  -2  -7 -16 1525.71 460.570   2
   2   7  16 89.1516 453.863   5
   2  -7  16 1109.91 246.636   4
   7   2  16 600.652 255.501   5
   7  -2  17 721.093 309.111   1
  -2   7 -17 93.3035 197.205   7
  -2   7  17-328.014 439.641   5
  -2  -7 -17-304.834 256.172   3
  -7   2 -17 295.779 198.283   7
   2   7  17-396.756 229.079   8
  -2   7  17 335.955 232.504   8
  -2   7 -17-450.163 447.959   6
   7   2  17 9.92325 250.945   5
   2  -7  17 403.500 211.897   4
  -7   2 -17-220.214 417.052   6
   2  -7 -17 44.1745 267.298   3
  -2   7 -18 870.153 433.989   6
   2   7  18 899.047 214.779   8
  -2  -7 -18 941.626 246.246   3
  -2  -7 -18 484.075 469.957   2
   2  -7  18 756.189 243.071   4
  -2   7  18 1260.75 443.492   5
  -7   2 -18 1038.24 251.392   7
   2  -7 -18 1367.47 312.119   3
   7  -2  18 1097.76 337.897   1
   2   7  18 1679.75 486.050   5
  -2   7 -18 1072.34 242.145   7
  -2   7  18 1293.66 274.962   8
  -7   2 -18 1396.67 441.708   6
   7  -2  19 64.8934 172.497   4
  -2   7 -19 267.260 442.779   6
   7  -2  19 80.3006 327.899   1
   2  -7 -19 561.762 288.459   3
   2   7  19 238.539 477.112   5
   2   7  19 146.037 181.128   8
   2  -7  19 12.7928 213.765   4
  -2   7  19 180.248 232.510   8
  -2  -7 -19 11.0566 207.370   3
  -2   7 -19 99.7036 200.724   7
  -2  -7 -19 134.448 484.651   2
  -7   2 -19-58.1979 214.608   7
  -2   7  19-605.985 433.105   5
  -7   2 -19 550.562 432.114   6
  -2   7  20 576.079 453.866   5
  -2   7 -20 1020.15 484.997   6
   2  -7  20 2251.30 306.905   4
   7  -2  20 1291.43 364.847   1
  -7   2 -20 684.837 446.749   6
  -2  -7 -20 809.923 266.864   3
  -2  -7 -20 794.463 521.990   2
   2   7  20 911.491 232.530   8
  -7   2 -20 588.951 266.439   7
   7  -2  20 838.090 211.471   4
   2  -7 -20 1196.04 331.139   3
   2   7  20 1153.01 518.122   5
  -2  -7 -21 194.480 244.843   3
  -2   7  21 285.899 251.481   8
   2   7  21 594.567 508.106   5
  -2   7  22 69.9803 270.020   8
  -2   7 -22 508.314 237.630   7
   2  -7 -22 934.207 317.444   3
   2  -7  23-42.9103 243.192   4
  -2   7 -23-211.296 486.980   6
   2  -7 -23-89.7712 307.194   3
   2   7  23 65.3968 209.579   8
  -2   7 -23-74.5373 237.519   7
  -2   7  23-172.164 266.785   8
   2  -7  24 217.781 247.245   4
  -2   7 -24 432.126 507.644   6
   2   7  24 425.874 216.890   8
  -2   7  24 102.618 271.780   8
  -2  -7 -24 285.231 261.068   3
  -2  -7 -24 270.989 594.339   2
  -2   7 -24 152.879 239.905   7
   2   7  24 887.097 598.544   5
   2   7  25 960.532 584.547   5
  -2   7 -25-754.461 512.740   6
  -2  -7 -25-120.762 276.130   3
  -2  -7 -25 722.338 640.610   2
   2  -7  25 59.2299 242.476   4
   2   7  25 230.570 225.532   8
  -2   7 -25 208.241 258.775   7
  -2   7  25-149.235 268.569   8
   2  -7  26 179.090 252.248   4
  -2  -7 -26 600.610 636.449   2
   2   7  26 308.345 237.001   8
  -2  -7 -26-95.0255 299.161   3
   2   7  26 471.509 581.595   5
  -2   7 -26 92.8412 248.057   7
  -2   7  26 491.616 281.885   8
   2   7  27 915.188 265.904   8
   2   7  27 2217.38 657.708   5
  -2  -7 -27 266.857 332.425   3
  -2   7 -27 215.607 271.834   7
  -2  -7 -27-1456.61 696.607   2
   2  -7  27 330.749 263.840   4
  -2   7 -28 163.778 273.240   7
   2   7  28 182.554 595.215   5
  -2  -7 -28 52.9028 322.818   3
  -2  -7 -28 659.980 682.693   2
   2   7  28 351.840 247.403   8
   2   7  29 494.964 267.642   8
  -2   7 -29 27.5377 273.693   7
   2   7  29 401.508 622.441   5
  -3   7   0 5804.91 587.063   7
  -3   7   0 4406.41 630.081   6
   3  -7   0 5786.04 622.695   1
  -3   7   1 434.465 124.912   7
  -3   7   1 308.288 201.001   5
  -3   7   1 5.75685 118.615   8
   3  -7   1 385.748 127.391   3
   3  -7  -1 763.140 143.059   3
   3  -7  -1 405.260 184.944   1
   3  -7   1 473.724 207.018   1
  -3   7  -1 723.335 143.692   7
  -3   7   1 712.887 243.538   6
  -3   7  -1 990.223 268.462   6
   3  -7  -2 1984.28 269.831   3
   3  -7   2 1955.76 319.065   1
  -3   7  -2 2557.50 267.583   7
   3  -7   2 2162.58 256.729   3
  -3   7   2 1464.24 312.641   5
  -3   7   2 2067.05 254.259   8
  -3   7   2 1991.47 257.077   7
  -3   7  -2 1922.99 295.080   5
  -3   7  -2 1903.01 235.580   8
   3  -7  -2 2213.87 299.803   1
  -3   7   2 1884.81 337.216   6
  -3   7  -2 2317.49 351.855   6
   3   7   3 834.448 273.602   5
   3  -7  -3 1128.13 208.718   1
  -3   7   3 668.741 154.502   7
  -3   7   3 857.248 252.962   5
   3  -7   3 897.521 162.033   4
  -3  -7  -3 612.376 307.890   2
  -3   7  -3 1202.14 212.498   5
   3  -7  -3 635.204 175.927   3
   3  -7   3 1035.36 155.941   3
  -3   7  -3 1387.29 289.226   6
  -3   7  -3 999.583 169.061   7
  -3   7  -3 885.499 131.045   8
   3  -7   3 887.110 247.795   1
  -3   7   3 1053.28 163.795   8
   3   7   4-794.836 298.501   5
  -3   7  -4-85.2305 174.185   5
  -3   7  -4-6.88787 74.4540   8
   3  -7   4-140.453 244.276   1
   3  -7  -4 208.003 160.044   1
   3  -7   4-247.022 145.749   4
   3   7   4 91.5329 94.5590   8
  -3  -7  -4-313.802 311.918   2
  -3   7   4-136.750 124.316   8
   3  -7   4-173.811 108.327   3
   3  -7  -4 8.64198 145.465   3
  -3   7  -4-7.45420 124.227   7
  -3   7   4-258.234 244.674   5
  -3   7  -4-540.135 297.751   6
  -3  -7  -5-1284.80 466.409   2
  -3   7   5 357.910 164.303   8
   3  -7   5-825.056 400.911   1
   3  -7  -5 137.374 180.609   3
   3   7   5 467.677 327.930   5
   3   7   5 383.655 119.399   8
   3  -7   5 151.064 145.601   3
  -3   7  -5-82.0967 100.267   8
   3  -7   5 496.774 178.881   4
  -3   7  -5-1231.14 392.594   6
   3  -7   6-416.237 145.118   3
  -3   7  -6-271.390 95.8484   8
  -3   7  -6-407.874 247.811   5
   3   7   6-112.637 118.425   8
  -3   7  -6-359.591 189.588   7
  -3  -7  -6-677.919 414.892   2
  -3   7   7 1175.43 305.738   5
   3  -7   7 1188.14 158.512   3
  -3   7  -7 1001.98 209.231   5
  -3   7  -7 1178.70 136.375   8
   3   7   7 1310.32 339.084   5
   3  -7   7 1293.37 221.066   2
   3  -7   7 1156.83 301.674   1
   3  -7   7 1220.13 193.412   4
  -3   7   7 1058.40 199.980   8
  -3   7   7 1721.38 357.936   6
  -3   7  -7 1134.02 195.232   7
   3  -7  -7 791.864 213.516   3
  -3   7  -7 959.156 317.406   6
   3  -7   8-244.130 272.164   1
   3   7   8 641.690 318.683   5
   3  -7   8 171.716 134.450   4
  -3   7   8 295.443 262.289   5
  -3   7   8 43.8710 141.584   8
   3  -7  -8 238.664 172.584   3
  -3   7  -8-39.7504 132.385   7
  -3   7  -8 192.024 299.454   6
  -3   7   9 3508.25 446.955   8
   3  -7  -9 3745.06 472.396   3
  -3   7   9 4081.00 525.703   5
   3   7   9 3637.36 545.555   5
  -3  -7  -9 4333.29 591.303   2
   3   7   9 4158.42 433.246   8
   3  -7   9 3893.12 446.100   4
  -3   7  -9 3661.69 536.966   6
  -3   7 -10-150.369 332.462   6
   3   7  10 687.821 333.283   5
  -3   7  10 366.804 295.350   5
  -3  -7 -10-16.5400 378.922   2
   3   7  10 126.535 126.220   8
   3  -7  10 186.012 149.126   4
  -3   7  10 96.2876 155.413   8
   3  -7 -10 493.414 202.491   3
  -7   3 -10-471.235 262.993   6
  -3   7 -11 1633.29 393.755   6
  -7   3 -11 1140.50 356.257   6
   3  -7  11 1609.99 248.221   4
  -3  -7 -11 1663.43 438.537   2
   3   7  11 1766.37 231.245   8
  -3   7  11 1410.72 254.094   8
   3  -7 -11 1476.33 283.841   3
  -3   7 -11 1480.09 239.573   7
  -3   7  11 1412.82 359.037   5
   3   7  11 1402.67 387.166   5
  -3   7 -12 1507.43 425.806   6
   7  -3  12 1912.75 342.032   1
  -3   7  12 1875.99 405.374   5
  -7   3 -12 1882.22 402.790   6
   3   7  12 1772.75 421.368   5
  -3  -7 -12 2249.58 471.484   2
   3   7  12 2349.99 277.629   8
  -3   7  12 1641.70 292.393   8
  -3   7 -12 2161.57 286.738   7
   3  -7  12 2438.11 302.632   4
   3  -7 -12 1979.58 333.544   3
   3  -7  13 1087.79 221.477   4
  -3  -7 -13 876.031 213.817   3
   3   7  13 967.744 394.167   5
  -3  -7 -13 730.949 420.409   2
  -3   7  13 1264.09 362.129   5
  -7   3 -13 435.159 206.459   7
  -3   7 -13 1084.53 402.365   6
   3  -7 -13 774.654 264.786   3
  -3   7 -13 1052.16 216.592   7
   7  -3  13 1195.86 288.172   1
  -7   3 -13 487.395 369.417   6
   3   7  13 1314.00 199.019   8
  -3  -7 -14 4449.73 574.621   2
  -3   7 -14 3316.39 545.777   6
   3   7  14 3309.93 385.734   8
  -3  -7 -14 3509.91 405.029   3
   3  -7 -14 3020.14 446.786   3
   3   7  14 3706.28 542.048   5
  -7   3 -14 2753.33 405.706   7
  -3   7  14 2743.19 516.101   5
  -3   7 -14 3197.41 398.951   7
   3  -7  14 3480.42 411.256   4
  -7   3 -14 2514.04 527.288   6
   7  -3  14 2924.48 453.973   1
   3  -7 -15 596.013 267.542   3
  -3   7 -15 591.775 413.419   6
   7  -3  15 833.961 309.363   1
  -3  -7 -15 719.887 433.578   2
  -3  -7 -15 975.442 217.648   3
   3   7  15 931.437 415.113   5
  -3   7  15 574.369 225.284   8
   7   3  15 680.501 262.248   5
  -3   7 -15 1027.09 219.979   7
  -7   3 -15 839.238 226.507   7
   3  -7  15 838.033 219.730   4
  -7   3 -15 643.976 407.602   6
  -3   7  15 177.893 351.870   5
   3   7  15 912.055 191.046   8
   3   7  16 1277.26 306.079   8
   7  -3  16 2419.08 428.160   1
  -3  -7 -16 1701.70 608.350   2
  -3   7  16 2087.16 337.083   8
  -3   7  16 2293.79 493.403   5
  -3   7 -16 2258.75 341.402   7
   3  -7  16 3575.11 375.176   4
  -7   3 -16 1386.04 322.490   7
  -7   3 -16 2777.12 522.256   6
   7   3  16 973.744 355.204   5
   3  -7 -16 1824.91 377.111   3
  -3   7 -16 6315.85 629.183   6
   3   7  16 5060.00 611.960   5
  -3   7 -17 726.985 459.597   6
  -7   3 -17 1069.73 255.589   7
   3   7  17 1065.81 221.857   8
   7   3  17 804.530 295.820   5
   7  -3  17 1686.87 354.711   1
   3   7  17 1106.86 446.831   5
  -3  -7 -17 2424.95 503.507   2
  -3  -7 -17 751.123 234.791   3
  -7   3 -17 840.869 451.674   6
  -3   7  17 1225.65 266.640   8
  -3   7 -17 941.977 246.878   7
   3  -7  17 1212.74 258.272   4
   3  -7 -17 1001.48 302.568   3
   3   7  18 397.425 447.466   5
   7   3  18 11.3485 279.690   5
  -3  -7 -18 10.4320 197.255   3
  -3   7 -18 218.943 201.183   7
  -3   7  18 526.655 245.883   8
  -7   3 -18 221.473 429.469   6
   7  -3  18 164.797 182.968   4
   3   7  18 149.713 174.655   8
   3  -7  18 286.429 207.109   4
  -7   3 -18-105.114 224.866   7
  -3  -7 -18 37.6116 471.815   2
  -3   7 -18 593.896 444.170   6
   3  -7 -18 260.285 269.689   3
   7  -3  18 83.5886 318.841   1
  -7   3 -19 1911.58 476.403   6
  -3   7 -19 1029.24 473.098   6
  -3  -7 -19 1249.36 255.227   3
   3   7  19 548.068 482.559   5
  -7   3 -19 839.616 271.661   7
   3   7  19 942.319 228.706   8
  -3  -7 -19 636.070 507.658   2
   7  -3  19 1238.85 363.619   1
  -3   7 -19 1369.37 260.939   7
   3  -7  19 1060.85 271.761   4
   7  -3  19 898.330 225.839   4
   7   3  19 610.294 321.658   5
   3  -7  20 147.977 242.782   4
  -3   7 -20-78.1272 459.891   6
   7  -3  20 159.343 331.731   1
  -3  -7 -20 178.564 214.605   3
   3   7  20 362.924 495.627   5
  -3  -7 -20-336.196 509.185   2
   7  -3  20 60.1224 184.636   4
  -7   3 -20-86.3268 222.912   7
  -7   3 -20-486.563 464.898   6
   3   7  20 69.1753 191.795   8
  -7   3 -21 603.922 254.998   7
   7  -3  21 180.823 191.412   4
  -3  -7 -21 417.817 235.112   3
   7  -3  21 637.508 386.843   1
  -7   3 -21 629.293 473.575   6
   3   7  21 41.3523 552.889   5
  -3   7 -22 744.312 286.964   7
  -7   3 -22 428.165 315.861   7
  -3   7 -23-42.3037 484.357   6
  -3   7 -23 433.614 263.520   7
   3   7  23 249.945 224.649   8
   3  -7  23 464.738 277.586   4
  -3   7 -24-43.2591 503.865   6
   3  -7  24-92.1766 273.902   4
  -3   7 -24 13.0836 250.245   7
  -3  -7 -24 1081.14 615.148   2
   3   7  24 388.337 583.359   5
   3   7  24-44.7944 230.743   8
  -3  -7 -24 159.868 259.866   3
  -3   7 -25 244.106 506.816   6
   3   7  25 164.586 573.828   5
   3   7  25 646.900 262.274   8
   3  -7  25 141.985 274.632   4
  -3  -7 -25 448.990 281.350   3
  -3   7 -25 187.540 278.114   7
  -3  -7 -25 362.978 607.056   2
  -3   7 -26 68.3984 270.317   7
   3  -7  26 384.907 277.733   4
  -3   7 -26 249.547 542.479   6
   3   7  26 823.770 600.710   5
   3   7  26 345.953 244.923   8
  -3  -7 -26-373.180 640.280   2
  -3  -7 -26-14.8258 287.651   3
   3   7  27 431.755 266.761   8
  -3   7 -27 125.360 287.776   7
  -3   7 -27-46.5734 548.718   6
  -3  -7 -27 219.453 325.871   3
  -3  -7 -27-527.182 673.032   2
   3   7  27 426.631 626.180   5
   3  -7  27 244.884 294.521   4
   3  -7  28 663.831 316.461   4
  -3  -7 -28 345.586 332.416   3
  -3   7 -28 833.342 579.117   6
   3   7  28 1227.08 304.644   8
  -3   7 -28 933.180 309.574   7
   3   7  28 930.028 638.233   5
  -3   7 -29-300.074 285.516   7
   4  -7   0-767.194 292.800   1
  -4   7   0-1147.83 371.218   6
   4  -7   1 1929.77 383.780   1
   4  -7  -1 2648.60 379.578   1
  -4   7   1 2908.37 322.827   8
  -4   7   1 2306.62 332.107   7
  -4   7  -1 2200.74 319.154   7
   4  -7  -1 2250.17 333.611   3
  -4   7   1 2820.85 491.863   6
   4  -7  -2 2303.45 301.549   3
  -4   7   2 1844.06 277.406   8
  -4   7  -2 1540.52 265.748   7
  -4   7  -3 1714.02 423.593   6
  -4   7  -3 1739.92 220.967   8
   4  -7   3 1460.27 371.491   1
  -4   7   3 1982.48 259.654   8
   4  -7  -3 1281.78 286.372   3
  -4   7   3 1581.41 452.822   6
  -4   7  -3 1485.19 249.684   7
   4  -7   4-506.086 318.980   1
  -4   7  -4-60.9750 102.525   8
  -4   7   4-122.896 149.951   8
   4  -7  -4-465.628 202.989   3
  -4   7  -4 16.2235 156.490   7
   4  -7  -5-10.8308 163.495   3
   4  -7   5-13.5852 233.839   1
  -4   7   5 75.9655 130.933   8
  -4   7  -5 49.6043 133.356   7
  -4   7  -5-104.631 290.625   6
  -4   7  -5 31.5022 77.9100   8
  -4   7  -6 189.081 298.451   6
   4  -7   6 426.524 257.315   1
  -4   7  -6 321.581 83.7601   8
  -4   7  -6 235.024 147.206   7
   4  -7  -6 11.3105 167.523   3
  -4   7   6 424.236 161.499   8
   4  -7  -7-318.154 191.594   3
   4   7   7-792.360 312.613   5
   4  -7   7-132.613 242.160   1
  -4   7  -7-13.9595 299.011   6
   4  -7   7 8.22800 130.131   4
  -4   7   7-17.7205 137.052   8
  -4   7  -7 94.1639 149.696   7
  -4  -7  -8 829.358 395.365   2
   4  -7   8 600.698 285.655   1
   4   7   8 780.170 336.604   5
  -4   7   8 1087.18 188.558   8
   4  -7   8 880.123 185.806   4
   4   7   8 1060.39 168.104   8
  -4   7  -8 601.187 178.913   7
   4  -7  -8 673.589 223.202   3
  -4   7  -8 763.195 342.383   6
  -4  -7  -9-393.565 395.919   2
   4   7   9 15.8046 318.731   5
   4  -7   9 104.954 148.028   4
  -4   7  -9 455.718 327.934   6
   4   7   9 52.5066 117.033   8
  -4   7   9-9.26755 149.451   8
   4  -7  -9-165.061 189.567   3
  -7   4  -9-356.403 282.268   6
   4   7  10 1136.04 380.418   5
   4  -7  10 941.696 206.731   4
  -4  -7 -10 1505.69 448.937   2
   7  -4  10 1251.27 285.593   1
  -4   7 -10 965.293 366.150   6
  -4   7  10 930.164 200.351   8
   4   7  10 1290.48 196.942   8
   4  -7 -10 918.954 248.918   3
  -7   4 -10 953.947 336.546   6
  -7   4 -11 853.166 217.591   7
  -4  -7 -11 825.256 426.775   2
   4   7  11 663.373 374.388   5
   4  -7  11 881.514 198.555   4
   4  -7  11 934.380 343.411   1
   4   7  11 1155.44 182.826   8
  -4   7  11 632.966 188.898   8
   7  -4  11 847.602 268.768   1
  -7   4 -11 1048.28 352.158   6
  -4   7 -11 946.787 199.182   7
  -4   7 -11 987.432 378.585   6
   4  -7  12 452.414 330.566   1
   7  -4  12 515.724 274.311   1
  -4  -7 -12 295.282 414.966   2
   4   7  12-67.6278 367.746   5
   4   7  12 595.201 163.600   8
  -7   4 -12 29.9311 350.885   6
  -4   7 -12 178.948 173.692   7
   4  -7  12 457.442 164.689   4
  -4   7 -12 374.168 366.917   6
  -7   4 -12 308.189 194.457   7
  -4  -7 -13 3673.03 594.468   2
   4   7  13 2613.85 536.158   5
  -7   4 -13 2818.83 544.551   6
   4  -7  13 4114.27 549.212   1
  -7   4 -13 2908.94 421.047   7
   4  -7  13 3422.04 417.707   4
  -4   7 -13 2820.63 544.049   6
   7  -4  13 3280.32 488.593   1
   4   7  13 3829.23 406.792   8
  -4   7 -13 3528.54 415.982   7
  -4   7 -14 520.703 404.401   6
   7  -4  14-94.0585 272.712   1
   4   7  14 243.751 157.078   8
   4   7  14 17.4268 374.453   5
  -4  -7 -14 93.6733 442.680   2
  -4   7 -14 129.173 175.160   7
   4  -7  14 58.5662 345.836   1
  -7   4 -14 308.059 194.340   7
  -7   4 -14-492.953 394.445   6
   4  -7  14 397.125 183.828   4
  -4  -7 -15 1644.23 260.446   3
  -7   4 -15 1639.88 267.695   7
  -4   7 -15 548.930 278.017   7
   7   4  15 709.063 295.409   5
   4   7  15 636.135 447.636   5
   7  -4  15 1514.08 361.961   1
   4   7  15 1975.25 244.011   8
   4  -7  15 663.188 267.394   4
  -7   4 -15 1071.83 462.095   6
  -4  -7 -15 681.237 519.614   2
  -4   7 -16 201.633 461.192   6
  -4  -7 -16 719.677 216.113   3
  -7   4 -16 481.707 221.046   7
   4  -7  16-681.159 493.865   1
   7   4  16 758.756 293.274   5
   4   7  16 305.617 423.505   5
  -4   7 -16-20.9451 223.224   7
   4   7  16 433.249 180.190   8
  -4  -7 -16-787.036 516.039   2
  -7   4 -16-104.798 428.931   6
   4  -7  16 439.468 215.835   4
   7  -4  16 552.040 322.944   1
   4  -7  17 688.177 234.847   4
  -4  -7 -17 602.939 224.756   3
   7   4  17 214.791 291.880   5
  -4  -7 -17 19.5156 487.953   2
   4   7  17 864.115 440.873   5
   7  -4  17 567.081 339.972   1
  -7   4 -17 1010.00 240.237   7
   4   7  17 804.247 207.138   8
  -4   7 -17 721.453 467.884   6
  -4   7 -17 820.413 226.664   7
  -7   4 -17 606.396 459.218   6
   4  -7  17 1223.09 452.954   1
  -4   7 -18 77.9182 211.623   7
  -4  -7 -18 10.6834 203.495   3
   7   4  18 492.054 308.392   5
   4  -7  18 465.808 457.731   1
   4   7  18 263.538 184.666   8
  -7   4 -18 261.053 221.728   7
   4   7  18-224.845 441.407   5
   7  -4  18 208.750 195.792   4
  -4   7 -18 76.9728 465.900   6
   7  -4  18 517.234 343.247   1
   4  -7  18 521.902 226.737   4
  -7   4 -18 798.020 457.829   6
  -4  -7 -18-19.8775 486.407   2
   7  -4  19-73.2272 357.657   1
   4   7  19 936.076 474.067   5
   7  -4  19 229.503 213.122   4
   7   4  19 38.2506 317.739   5
  -4  -7 -19 826.561 243.840   3
  -4  -7 -19 1196.30 539.908   2
   4  -7  19 432.203 240.557   4
   4   7  19 1072.71 230.429   8
  -4   7 -19-196.296 483.116   6
  -7   4 -19 121.439 237.907   7
  -7   4 -19 18.3661 461.332   6
   7  -4  20-75.1234 376.115   1
   7   4  20 331.654 344.674   5
  -4  -7 -20 501.934 223.129   3
   4   7  20-19.5582 491.158   5
  -7   4 -20 236.361 239.170   7
   7  -4  20 207.749 201.848   4
  -7   4 -20 628.595 505.709   6
  -4   7 -21-12.1904 228.898   7
   7  -4  21-77.0377 205.251   4
  -7   4 -21 138.241 237.594   7
   7  -4  21-558.463 397.703   1
   4  -7  21 490.280 516.730   1
   4  -7  22-1416.00 645.289   1
  -4   7 -22 579.897 511.142   6
  -7   4 -22 64.5485 252.755   7
   7  -4  22-160.169 415.266   1
   4   7  22 98.2518 236.518   8
  -4   7 -22-138.005 253.039   7
   7  -4  22-11.1224 221.895   4
   4  -7  22 359.497 259.097   4
  -7   4 -22-1696.67 547.245   6
  -7   4 -23 896.405 534.793   6
   4   7  23-157.586 228.824   8
  -4  -7 -23-61.0946 268.419   3
  -4   7 -23 381.809 497.292   6
  -4  -7 -23 801.220 800.786   2
   7  -4  23 135.511 204.581   4
  -4   7 -23-12.8969 251.037   7
   4  -7  23 430.828 622.166   1
   4   7  23 1142.56 707.666   5
   4  -7  23 104.413 256.473   4
  -4   7 -24 239.077 518.977   6
   4  -7  24-164.523 649.497   1
   4   7  24-834.014 579.539   5
  -4  -7 -24-1438.43 664.391   2
   4  -7  24-123.081 261.457   4
  -4   7 -24 145.601 249.781   7
  -4  -7 -24-534.024 263.566   3
   4   7  24-222.506 256.616   8
   4   7  25 90.7254 567.090   5
  -4  -7 -25 820.058 651.286   2
  -4   7 -25 289.100 530.225   6
   4  -7  25 191.655 277.974   4
  -4   7 -25 67.8222 272.876   7
   4  -7  25-529.976 706.151   1
   4   7  25 375.514 246.028   8
  -4  -7 -25 477.645 276.158   3
   4  -7  26-181.090 296.719   4
  -4   7 -26-958.971 593.947   6
   4   7  26-187.071 595.403   5
  -4  -7 -26-1322.85 672.279   2
  -4  -7 -26 194.847 290.421   3
   4  -7  26-190.457 799.011   1
  -4   7 -26-55.4831 280.869   7
   4   7  26 125.549 264.935   8
  -4  -7 -27 687.992 300.445   3
  -4   7 -27 1002.98 580.428   6
   4   7  27 1037.30 594.700   5
  -4   7 -27 778.193 312.803   7
   4   7  27 939.509 285.707   8
   4  -7  27 82.4725 799.652   1
   4  -7  27 706.009 336.511   4
   4  -7  28 429.582 319.388   4
   4  -7  28 624.199 882.858   1
  -4   7 -28-95.6621 587.944   6
  -4   7 -28-158.376 284.201   7
  -5   7   0 1960.43 436.471   6
  -5   7   0 1863.79 276.303   8
   5  -7   0 2137.74 324.666   1
   5  -7   1-48.4441 204.694   1
  -5   7  -1 120.535 150.693   8
  -5   7  -1-279.100 147.187   7
  -5   7   1-168.434 155.870   8
  -5   7  -1-14.5499 319.050   6
  -5   7   2 184.441 157.193   8
  -5   7  -2 449.585 151.361   7
   5  -7   2 223.308 221.595   1
  -5   7   2 96.6557 536.209   6
  -5   7  -2 444.969 315.044   6
   5  -7   3-102.405 225.924   1
  -5   7  -3-53.5304 145.829   7
  -5   7  -3-287.881 294.651   6
  -5   7  -4 332.130 162.348   7
   5  -7   4 132.620 230.340   1
  -5   7  -4 163.319 124.744   8
  -5   7  -4 179.065 310.683   6
  -5   7  -5 5.19949 111.866   8
   5  -7   5 580.354 251.792   1
  -5   7  -5 167.846 300.343   6
  -5   7  -5 100.721 151.885   7
   5  -7   6 475.366 260.506   1
  -5   7  -6 98.8154 307.245   6
  -5   7  -6-18.3905 153.563   7
  -5   7  -7 120.408 155.979   7
  -5   7  -7 116.060 314.417   6
   5  -7   7 15.0564 261.868   1
  -5   7  -8 477.819 340.562   6
  -7   5  -8-449.121 300.331   6
   7  -5   8 169.964 235.630   1
   7  -5   9 335.387 247.922   1
   5   7   9 575.313 316.992   5
  -7   5  -9 224.622 311.309   6
  -5   7  -9 123.159 339.107   6
  -5  -7  -9 498.176 379.292   2
  -7   5  -9 189.042 167.466   7
   7  -5  10 477.141 262.877   1
   5   7  10-269.096 325.240   5
   5  -7  10 417.757 300.027   1
   5  -7  10 225.797 152.947   4
  -5   7 -10-96.6480 169.121   7
  -7   5 -10 96.1919 179.903   7
  -5   7 -10 142.937 361.799   6
  -7   5 -10 582.296 335.710   6
  -5  -7 -10-17.8982 367.674   2
   7  -5  11-200.138 262.076   1
   5   7  11-65.4514 346.761   5
  -5  -7 -11-92.5862 395.785   2
   5  -7  11 330.898 321.844   1
   5  -7  11 9.66312 159.031   4
  -5   7 -11-375.990 381.603   6
  -5   7 -11 39.2518 167.497   7
   5   7  11 318.406 144.173   8
  -7   5 -11 243.482 350.758   6
  -7   5 -11 163.170 186.240   7
  -5  -7 -12 1311.62 446.752   2
   5   7  12 1065.97 189.760   8
  -7   5 -12 923.072 238.738   7
   5   7  12 855.736 385.402   5
   7  -5  12 1010.03 311.299   1
   5  -7  12 717.699 210.154   4
   5  -7  12 844.552 359.038   1
  -5   7 -12 560.010 214.631   7
  -7   5 -12 812.699 396.553   6
  -5   7 -12 665.960 388.530   6
  -5  -7 -13 19.3524 438.980   2
  -7   5 -13 167.685 194.267   7
   5   7  13-153.864 380.387   5
   7  -5  13 261.676 282.144   1
   5  -7  13 10.2966 176.939   4
  -5   7 -13-647.276 415.079   6
   5   7  13 199.277 146.261   8
   5  -7  13 389.435 349.987   1
  -7   5 -13 166.264 392.628   6
  -5   7 -13 92.0745 175.808   7
  -5   7 -14 41.8236 283.324   7
  -5  -7 -14-613.202 521.635   2
   5   7  14 451.325 418.984   5
   7  -5  14 553.561 321.785   1
   5  -7  14-10.6351 236.635   4
   5   7  14 1488.41 207.135   8
  -7   5 -14 1088.32 478.866   6
  -5   7 -14-935.235 553.035   6
   5  -7  14-444.077 487.686   1
  -7   5 -14 664.771 233.792   7
   5  -7  15-198.076 214.785   4
   7   5  15-459.405 297.920   5
   5   7  15 246.051 405.995   5
   7  -5  15-139.126 319.794   1
   5   7  15-139.040 170.627   8
  -5  -7 -15-241.034 494.285   2
  -7   5 -15 68.7940 212.185   7
  -5   7 -15-642.025 260.226   7
  -5   7 -15-766.663 470.897   6
  -7   5 -15 285.470 435.274   6
   5  -7  15-598.294 432.664   1
  -5  -7 -16 836.575 506.579   2
   5   7  16 868.691 422.467   5
  -7   5 -16 525.292 229.729   7
  -5   7 -16 833.220 236.670   7
   7   5  16 530.956 315.848   5
   7  -5  16 677.483 350.196   1
   5  -7  16 648.411 220.509   4
  -7   5 -16 623.733 449.710   6
   5  -7  16 989.576 431.554   1
   5   7  16 994.188 207.596   8
  -5   7 -16 723.413 448.991   6
   5  -7  17 384.020 413.509   1
  -5  -7 -17-104.231 505.420   2
   5   7  17 214.723 413.553   5
   5   7  17-88.6561 184.854   8
  -5   7 -17 231.991 458.495   6
   7  -5  17-347.132 341.014   1
   7  -5  17 104.839 210.767   4
  -7   5 -17 222.549 226.017   7
  -5   7 -17 439.819 222.153   7
   5  -7  17 58.6729 206.530   4
  -7   5 -17 450.950 449.864   6
   7   5  17-26.3059 315.807   5
   7  -5  18-81.8941 204.678   4
  -5  -7 -18 21.2188 512.208   2
  -5  -7 -18 348.666 235.810   3
  -7   5 -18 11.9470 217.519   7
   7   5  18-375.398 329.298   5
   5   7  18 308.206 436.172   5
   5   7  18 20.2903 196.851   8
  -5   7 -18-378.985 489.906   6
   7  -5  18 208.786 374.419   1
   5  -7  18 133.219 204.998   4
  -7   5 -18-459.360 487.672   6
  -5  -7 -19 519.871 228.728   3
   7   5  19 96.0130 339.968   5
   5   7  19 369.587 448.965   5
  -5  -7 -19-692.216 571.746   2
   7  -5  19 94.0103 208.462   4
  -7   5 -19-73.1594 227.397   7
   7  -5  19 427.628 396.070   1
  -7   5 -19 135.453 483.160   6
  -5  -7 -20-23.0100 220.916   3
   7   5  20-42.1633 347.438   5
  -5   7 -20 48.8660 245.217   7
   5   7  20 676.006 474.113   5
   7  -5  20 82.8954 222.821   4
  -7   5 -20-356.373 509.748   6
  -5   7 -21-163.171 283.857   7
  -7  -5 -21-249.664 226.801   3
  -7  -5 -21 561.995 533.333   2
   7   5  21 130.419 402.240   5
   5  -7  21 250.302 587.774   1
   5  -7  21 148.434 290.215   4
  -5   7 -22 90.2474 254.383   7
  -5  -7 -22 552.495 605.259   2
   5  -7  22 470.027 526.645   1
   5   7  22-34.1799 223.971   8
  -7   5 -22 90.1563 249.944   7
  -5   7 -22 661.942 560.623   6
   5  -7  22-153.711 257.445   4
  -5  -7 -23-212.189 627.735   2
   5   7  23 11.7722 228.822   8
  -5  -7 -23 290.025 239.399   3
   5  -7  23-846.285 570.746   1
   5   7  23 759.547 529.632   5
  -7   5 -23-13.2035 256.612   7
  -5   7 -23-357.396 256.928   7
   7  -5  23-64.0185 408.670   1
   5  -7  23-174.323 257.867   4
  -5   7 -23-955.736 552.652   6
  -5  -7 -24 169.169 624.500   2
   5   7  24 109.632 232.326   8
  -5  -7 -24 124.052 246.864   3
   7  -5  24 74.5842 226.324   4
   5   7  24-20.6515 519.805   5
   5  -7  24 228.755 546.787   1
  -7   5 -24-311.782 265.393   7
  -5   7 -24-176.312 540.419   6
  -7   5 -24-172.149 544.964   6
  -5   7 -24-108.587 261.296   7
   7  -5  24 685.424 454.931   1
   5  -7  24 105.690 264.981   4
  -5   7 -25-247.607 551.584   6
  -5  -7 -25-1537.26 682.123   2
   5   7  25-402.278 532.172   5
   5  -7  25 540.096 603.734   1
  -5  -7 -25-51.2075 243.009   3
   5   7  25 63.1695 252.813   8
  -7   5 -25 83.5635 280.355   7
  -5   7 -25-139.045 284.586   7
   5  -7  25-217.866 271.519   4
  -5   7 -26 688.479 577.768   6
   5   7  26 26.2747 257.163   8
  -5  -7 -26 585.279 734.534   2
   5  -7  26-94.6646 644.092   1
  -5  -7 -26 278.817 280.308   3
   5   7  26-66.0527 597.526   5
   5  -7  26-48.1227 299.523   4
  -5   7 -26 156.512 290.302   7
  -5   7 -27-281.802 570.721   6
   5  -7  27-199.354 658.745   1
   5  -7  27-132.810 298.764   4
  -5   7 -27 14.5301 280.930   7
   5  -7  28 576.647 322.678   4
  -5   7 -28 192.591 589.133   6
   5  -7  28 1389.92 739.377   1
  -5   7 -28 844.035 326.282   7
  -6   7  -1 486.993 468.252   6
   6  -7   2 147.686 224.988   1
  -6   7  -2-179.853 400.076   6
   6  -7   3 218.646 233.311   1
  -6   7  -3 58.9322 154.565   7
  -6   7  -3-344.355 355.633   6
  -6   7  -4 19.9157 167.774   7
   6  -7   4 167.629 242.866   1
  -6   7  -4 15.5605 335.374   6
   6  -7   5 526.162 267.457   1
  -6   7  -5 642.919 188.118   7
  -6   7  -5 350.933 338.604   6
   6  -7   6-14.6787 248.469   1
  -6   7  -6-30.6313 172.565   7
  -7   6  -6 392.635 332.235   6
  -6   7  -6 90.3675 331.018   6
   6  -7   7 759.616 286.188   1
  -6   7  -7 1202.31 218.426   7
  -6   7  -7 595.205 355.090   6
  -7   6  -8-329.833 333.309   6
  -7   6  -8 205.725 181.703   7
   7  -6   8 242.191 258.168   1
  -6   7  -8 15.5843 342.317   6
  -7   6  -9 32.9491 177.700   7
  -7   6  -9 214.721 342.783   6
  -6   7  -9 816.021 380.279   6
   7  -6   9 342.588 276.238   1
  -6   7 -10 260.677 184.097   7
   7  -6  10-143.235 267.618   1
  -7   6 -10 210.194 185.481   7
  -6   7 -10-16.4604 373.679   6
   6  -7  10 118.064 291.766   1
  -7   6 -10 602.093 376.073   6
  -6   7 -11 16.9651 392.693   6
  -7   6 -11 89.7927 189.666   7
  -6   7 -11-95.2170 176.933   7
   6  -7  11 17.3277 310.779   1
  -7   6 -11 49.2707 379.464   6
   7  -6  11 246.853 292.459   1
   6  -7  12 89.0217 319.969   1
   6   7  12-315.740 340.365   5
   7  -6  12-454.870 292.055   1
   6  -7  12 157.108 181.756   4
  -7   6 -12-56.4037 192.832   7
  -6   7 -12-933.024 421.384   6
  -7   6 -12-201.855 398.965   6
  -6   7 -12-85.1295 183.145   7
   7  -6  13 1587.31 403.342   1
   6   7  13 893.139 411.092   5
  -7   6 -13 492.156 264.840   7
   6  -7  13 1855.25 445.173   1
  -7   6 -13 279.270 480.094   6
  -6   7 -13 1892.37 299.883   7
  -6  -7 -13 2533.21 510.729   2
   6  -7  13 772.821 266.242   4
  -6   7 -13 1300.36 522.529   6
   6  -7  14-419.389 362.664   1
  -6   7 -14-154.025 201.053   7
   6   7  14-314.842 369.745   5
   7  -6  14 35.7251 314.572   1
  -7   6 -14-216.676 427.820   6
  -7   6 -14-104.574 201.800   7
   6  -7  14 55.1938 193.898   4
  -6  -7 -14 529.274 431.175   2
  -6   7 -14-183.110 444.304   6
   6  -7  15 293.828 372.033   1
  -7   6 -15 232.437 218.198   7
   6   7  15 672.146 400.710   5
  -7   6 -15 447.267 461.096   6
   7  -6  15 500.804 362.268   1
  -6   7 -15 367.591 218.077   7
   6  -7  15 159.130 204.410   4
   7  -6  15 142.719 220.410   4
  -6  -7 -15 431.089 441.368   2
  -6   7 -15 37.4201 455.466   6
   6   7  16 271.878 389.345   5
   6   7  16-102.888 164.142   8
  -7   6 -16 82.7031 220.725   7
   7  -6  16-48.0885 207.599   4
   6  -7  16 35.0849 203.269   4
  -6   7 -16 136.314 213.110   7
   7  -6  16-113.945 340.076   1
   7   6  16-28.6506 324.856   5
  -7   6 -16-364.528 465.059   6
  -6   7 -16-503.026 479.773   6
  -6  -7 -16 382.909 484.838   2
   6  -7  16 203.578 391.871   1
   7   6  17 43.4366 339.021   5
   6   7  17-205.680 404.002   5
   6   7  17 97.4099 180.690   8
   7  -6  17-19.4387 381.023   1
   7  -6  17 439.485 232.033   4
   6  -7  17 144.287 218.117   4
  -7   6 -17 637.126 247.790   7
  -7   6 -17-98.2641 491.968   6
  -6   7 -17 529.892 474.523   6
  -6  -7 -17-703.116 494.931   2
   7  -6  18-74.1900 213.875   4
  -7   6 -18 359.568 502.796   6
   6   7  18 551.644 417.872   5
   7   6  18-351.529 353.567   5
  -6  -7 -18 212.896 497.701   2
  -6  -7 -19 229.647 251.441   3
   7   6  19-163.240 367.253   5
   6   7  19 364.589 423.900   5
   6  -7  19 487.712 436.246   1
  -6   7 -19 278.206 228.076   7
  -6   7 -20-255.380 612.678   6
   7  -6  20 1645.89 498.047   1
   7   6  20 676.611 422.989   5
   6  -7  20 1598.45 556.329   1
  -7   6 -20 125.628 276.258   7
   6  -7  20 522.093 308.554   4
  -6   7 -20 198.110 262.297   7
   6  -7  21 187.386 242.232   4
  -6  -7 -21 458.364 589.380   2
  -6   7 -21 1137.66 579.646   6
  -7   6 -21 782.717 265.350   7
   6  -7  21 713.631 489.469   1
   6   7  21 661.949 227.831   8
   7  -6  21-345.480 436.580   1
  -6   7 -21 912.874 279.435   7
   7  -6  21 244.887 248.513   4
  -7   6 -21 1251.33 560.108   6
  -7   6 -22-175.201 549.974   6
  -6   7 -22-562.378 573.606   6
   6  -7  22-638.263 489.717   1
  -6  -7 -22 206.560 241.544   3
   6   7  22-545.608 456.028   5
   7  -6  22 132.621 432.194   1
   6   7  22 69.6900 220.082   8
   7  -6  22-196.573 237.229   4
   6  -7  22-178.119 249.499   4
  -6   7 -22-90.8910 245.008   7
  -6  -7 -22-638.581 609.395   2
  -7   6 -22 327.947 254.230   7
  -7   6 -23 40.2661 263.290   7
   6  -7  23-183.287 258.690   4
   6   7  23 18.5288 454.102   5
  -6  -7 -23 231.628 241.122   3
  -6   7 -23 226.173 258.664   7
   7  -6  23 584.353 254.172   4
   7  -6  23 181.029 456.850   1
  -6   7 -23 475.327 581.851   6
   6  -7  23-126.866 475.833   1
   6   7  23 397.299 235.756   8
  -6  -7 -23-194.194 643.041   2
  -7   6 -23 1097.93 584.459   6
  -6  -7 -24 173.013 240.075   3
  -7   6 -24-158.137 578.745   6
  -6   7 -24 531.208 280.515   7
  -6   7 -24-641.876 610.862   6
   6  -7  24-104.982 503.355   1
   6   7  24-94.9540 466.207   5
  -7   6 -24 13.7409 265.831   7
  -6  -7 -24 747.554 644.970   2
   7  -6  24 26.9383 255.431   4
   6  -7  24 29.1884 265.974   4
   7  -6  24 509.708 483.407   1
  -7   6 -25 1620.58 664.883   6
  -6   7 -25 2127.27 688.415   6
  -6  -7 -25 2790.29 742.031   2
  -6  -7 -25 238.600 261.808   3
   6   7  25 720.898 528.075   5
   6  -7  25 1005.37 591.573   1
  -7   6 -25 914.868 318.561   7
  -6   7 -25 501.944 317.478   7
   7  -6  25 259.336 269.956   4
   7  -6  25 1257.49 528.922   1
   6  -7  25 572.602 300.092   4
   6   7  25 285.765 261.041   8
  -6   7 -26-420.889 584.942   6
  -7   6 -26 86.5304 284.219   7
   6  -7  26 422.519 559.164   1
  -6   7 -26 228.112 279.912   7
   7  -6  26-70.0501 249.457   4
   7  -6  26-145.830 480.096   1
   6  -7  26 139.055 282.206   4
  -7   6 -26 348.767 602.188   6
   6  -7  27 204.532 584.477   1
  -6   7 -27 47.4975 580.638   6
  -6   7 -27 218.543 303.935   7
   6  -7  27 111.384 284.047   4
  -6   7 -28-237.923 299.720   7
  -7   7  -5-104.149 376.861   6
   7  -7   5 151.059 267.263   1
   7  -7   6 2051.78 348.274   1
  -7   7  -6 1180.87 250.445   7
  -7   7  -6 1327.91 414.173   6
   7  -7   7-203.649 279.242   1
  -7   7  -7 11.1630 189.905   7
  -7   7  -7 210.267 365.044   6
  -7   7  -8 1621.09 433.412   6
  -7   7  -9-346.035 379.440   6
   7  -7  10 491.417 311.950   1
  -7   7 -10 873.661 229.672   7
  -7   7 -11 853.129 284.727   7
   7  -7  11 1839.57 414.814   1
  -7   7 -11 2499.90 510.792   6
   7  -7  12 107.558 314.992   1
  -7   7 -12 326.876 216.847   7
  -7   7 -12-375.770 429.689   6
  -7   7 -13 198.007 216.436   7
   7  -7  13-55.0402 341.740   1
  -7   7 -13 437.708 441.308   6
  -7   7 -14 35.4226 208.848   7
   7  -7  14 95.2797 216.182   4
   7  -7  14-133.301 347.703   1
  -7   7 -14-320.030 461.607   6
   7  -7  15 145.897 208.898   4
  -7   7 -15-19.4153 462.080   6
   7   7  16 94.0642 349.503   5
   7   7  17-126.603 363.494   5
  -7   7 -18 86.9745 232.782   7
   7  -7  18 254.078 418.367   1
   7  -7  19 65.0466 490.757   1
   7  -7  19-159.402 257.052   4
  -7   7 -19 291.176 251.611   7
  -7  -7 -20 2013.06 539.565   2
  -7   7 -20 1007.12 566.771   6
  -7   7 -20 1174.99 293.072   7
   7  -7  20 528.152 277.301   4
   7  -7  20 1065.97 454.233   1
   7   7  21-228.078 398.024   5
   7  -7  21 124.394 245.901   4
  -7  -7 -21-415.182 270.033   3
  -7   7 -21-156.637 258.404   7
   7  -7  21 546.055 457.342   1
  -7  -7 -21-346.680 520.966   2
  -7   7 -21-408.225 577.089   6
  -7  -7 -22 883.539 279.529   3
   7   7  22 528.159 416.000   5
  -7   7 -22 639.894 274.772   7
   7  -7  22 168.498 252.938   4
  -7  -7 -22 492.154 572.917   2
  -7   7 -22 800.830 608.161   6
   7  -7  22 489.780 482.849   1
  -7  -7 -23-201.990 261.794   3
  -7   7 -23 68.1136 269.978   7
   7   7  23-573.016 443.240   5
  -7  -7 -23-370.865 562.910   2
   7  -7  23-156.872 267.423   4
   7  -7  23-97.0726 472.189   1
  -7   7 -23 820.184 599.867   6
  -7  -7 -24 449.679 268.617   3
   7   7  24 429.830 443.610   5
   7   7  24 547.958 253.580   8
   7  -7  24-398.450 518.718   1
  -7   7 -24 529.083 299.753   7
   7  -7  24 217.983 278.289   4
  -7   7 -25-14.2296 272.990   7
  -7   7 -25 24.0503 622.005   6
   7  -7  25-205.989 263.251   4
   7  -7  25-25.5721 499.427   1
  -7   7 -26-48.5400 617.538   6
  -7   7 -26-247.306 288.972   7
   7  -7  26 394.030 544.320   1
   7  -7  26-120.596 271.406   4
  -7   7 -27-292.677 632.551   6
   7  -7  27 26.9987 552.923   1
  -7   7 -27 14.8618 279.203   7
   7  -7  27 46.2005 277.870   4
   0   8   0-426.993 152.871   7
   0  -8   0-442.889 168.414   4
   0  -8  -2-391.169 195.586   3
   0   8  -2 67.6373 111.140   8
   0   8  -2-374.624 157.731   7
   0  -8   2 34.9195 147.301   4
   0   8  -3 624.053 240.831   8
   0   8  -3 1411.42 280.195   7
   0  -8   3 1653.61 416.958   2
   0   8  -4-98.4977 145.085   7
   0   8  -4-1242.25 377.260   6
   0   8  -5-480.084 290.739   6
   0  -8  -5-155.263 144.566   3
   0   8   5-311.956 259.831   5
   0   8   5-223.389 118.818   8
   0   8   5-177.420 112.012   7
   0  -8   5-313.500 132.278   4
   0  -8  -5-126.529 101.368   4
   0   8  -5-140.755 134.475   7
   0   8   6 530.982 214.454   6
   0   8  -6 305.936 293.383   6
   0   8  -6 730.284 251.309   5
   0   8   6 977.699 283.671   5
   0  -8  -6 602.576 188.133   1
   0   8  -6 598.467 157.247   7
   0   8   6 580.446 137.742   8
   0  -8  -6 612.751 160.116   3
   0   8   6 796.443 133.631   7
   0  -8  -6 155.535 327.719   2
   0  -8  -6 816.846 125.024   4
   0  -8   6 827.780 169.053   4
   0   8   7-96.7059 91.6703   7
   0   8  -7 115.453 288.594   6
   0   8   7-85.4298 118.235   8
   0  -8  -7 47.7696 138.627   3
   0   8  -7 114.578 260.155   5
   0  -8  -7-171.164 152.918   1
   0   8   7-78.4847 283.082   5
   0   8  -7 40.3311 133.243   7
   0  -8  -7 8.04819 84.1614   4
   0  -8  -7-394.232 329.544   2
   0   8   7-49.8814 195.150   6
   0  -8   7 130.954 140.810   4
   0   8  -8 184.455 146.295   7
   0   8  -8 388.833 308.860   6
   0   8   8 177.825 291.940   5
   0   8  -8 804.653 338.940   5
   0  -8  -8 197.878 144.175   3
   0   8   8 221.567 130.310   8
   0  -8  -8 680.666 363.649   2
   0  -8   8 361.622 154.299   4
   0   8  -9 354.950 304.038   6
   0  -8  -9-136.882 147.489   3
   0   8   9 185.460 303.524   5
   0   8   9-77.9823 129.943   8
   0   8  -9 156.097 151.702   7
   0  -8   9 18.6799 150.620   4
   0  -8  10-67.7832 145.148   4
   0   8  10 40.4341 130.943   8
   0   8 -10 223.284 318.260   6
   0  -8 -10-133.321 154.975   3
   0   8  10-299.585 311.503   5
   0   8 -10-223.218 150.592   7
   0  -8  11 9.95977 155.729   4
   0  -8 -11-110.957 162.026   3
   0   8 -11 658.470 335.170   6
   0   8  11 93.8240 319.883   5
   0   8  11-125.737 145.953   8
   0   8 -11-9.15541 157.857   7
   0   8  12 827.496 365.061   5
   0   8 -12 101.473 339.708   6
   0  -8  12 551.900 189.800   4
   0  -8 -12 731.826 198.385   3
   0  -8  13-231.412 184.046   4
   0   8 -13-574.828 381.558   6
   0  -8 -13 10.0483 176.432   3
   0   8  13-102.109 370.507   5
   0  -8  14 1042.34 231.529   4
   0   8 -14 1290.51 407.398   6
   0  -8 -14 1269.12 251.443   3
   0   8  14 1046.39 412.887   5
   0   8  14 1289.78 229.719   8
   0   8 -14 1162.47 228.419   7
   0  -8  15-284.825 189.091   4
   0   8 -15-844.096 421.140   6
   0  -8 -15-625.623 245.258   3
   0   8  15-304.029 204.717   8
   0   8 -15 9.83129 178.881   7
   0   8 -16 298.983 176.822   7
   0   8 -16-358.176 402.060   6
   0  -8 -16-23.0075 225.703   3
   0   8  16 10.1328 202.856   8
   0   8  16-418.890 455.847   5
   0  -8  16 325.821 185.482   4
  -8   0 -16-201.359 344.985   6
   0   8  17 62.7685 187.077   8
   0   8  17-19.8002 433.384   5
   0  -8  17 11.4040 169.168   4
   0  -8 -17-144.781 218.369   3
   0   8 -17 20.1944 177.223   7
  -8   0 -17-553.704 374.600   6
   0   8 -18 143.171 186.940   7
   0   8  18 43.1651 197.788   8
   0  -8 -18 342.157 235.808   3
   0  -8  18 104.254 183.759   4
   0   8  18 20.4661 449.520   5
   0   8  19 892.149 490.172   5
   0  -8 -19 212.947 255.108   3
   0   8  20 57.2343 207.235   8
   0   8  21 339.578 492.016   5
   0  -8 -21-14.5903 262.602   3
   0   8  21-200.064 223.685   8
   0   8  22-628.105 559.024   5
   0  -8 -22-290.056 302.215   3
   0   8  22-253.713 243.107   8
   0   8  23 524.114 540.766   5
   0   8  23 49.5406 223.491   8
   0  -8 -23-128.355 292.968   3
   0   8  24 440.288 546.255   5
   0   8  24-291.623 248.045   8
   0  -8 -24 118.400 302.546   3
   0   8  25-220.163 253.992   8
   0   8  25 299.210 552.996   5
   0  -8 -25 53.1437 327.324   3
   0   8  26-203.385 576.062   5
   0   8  26 1083.24 302.921   8
   0  -8 -26 241.201 353.156   3
   0   8  27 460.911 567.310   5
   0   8  27-107.575 253.757   8
   0  -8 -27-173.732 344.156   3
   0   8  28 646.710 567.825   5
   0   8  28 409.639 268.670   8
   0  -8 -28-221.055 366.056   3
   0   8  29 108.653 268.929   8
   0   8  29-544.866 580.656   5
   0  -8 -29-455.336 368.616   3
   0   8  30 164.805 283.073   8
   0  -8 -30 446.942 383.134   3
   0  -8 -31-432.202 395.154   3
   0   8  31 249.497 277.175   8
   0   8  32-111.713 277.741   8
   1   8   1 414.144 128.836   8
   1   8  -1 510.712 334.374   5
   1   8   1-11.4786 332.777   5
  -1   8  -1-199.668 151.288   8
  -1   8   1-686.467 331.007   5
   1   8   1 65.0617 139.746   7
  -1   8   1-359.971 143.076   8
   1   8  -1 14.2995 157.259   7
  -1  -8   1 402.042 143.379   4
   1   8  -1 391.849 118.609   8
   1   8  -2-1124.70 407.048   6
   1   8   2 564.747 161.226   8
  -1   8  -2 362.098 171.600   8
  -1   8  -2 242.596 231.252   7
  -1  -8   2 1196.40 197.156   4
  -1   8   2-453.461 231.009   7
   1   8  -2 585.033 215.360   7
  -1  -8  -3 1038.23 268.202   4
   1   8  -3 1660.83 426.178   5
   1   8   3 2088.40 446.717   5
   1   8   3 2393.24 290.838   8
   1  -8   3 352.127 289.998   4
   1   8  -3 2441.11 322.902   7
  -1  -8   3 526.224 284.085   4
  -1  -8  -4-334.262 115.455   4
  -1   8  -4-435.019 164.469   7
  -1  -8   4-395.315 144.693   4
   1   8  -4-258.317 175.093   7
  -1   8  -5 539.312 290.247   6
  -1  -8   5-72.1281 118.603   4
  -1  -8  -5-438.885 338.313   2
  -1   8  -5 48.2284 175.149   5
   1   8   5-88.6738 93.2713   7
   1   8   5 445.218 267.110   5
   1   8  -5 93.5844 150.921   7
   1  -8  -5 105.637 129.873   3
   1   8   5-148.217 107.763   8
  -1   8   5 83.5611 255.071   5
   1   8  -5 495.048 293.637   6
  -1   8   5 95.5582 100.699   7
  -1   8   5 54.1019 115.630   8
   1  -8  -5 9.25143 86.5459   4
  -1   8  -5 28.1275 111.468   7
   1  -8   5-23.2326 123.236   4
  -1   8  -5 42.2977 75.7626   8
  -1   8   5-255.430 215.860   6
  -1   8  -6 68.2604 280.610   6
   1   8  -6 239.193 295.675   6
  -1   8  -6 196.823 174.137   5
   1   8   6 118.155 265.759   5
   1  -8  -6 118.392 135.713   3
  -1   8   6-288.576 268.139   5
  -1   8   6-165.766 208.265   6
   1  -8  -6 161.157 91.4937   4
  -1  -8  -6 88.8172 328.628   2
   1   8   6 135.999 92.2112   7
  -1   8   6-49.4610 115.120   8
  -1  -8   6 33.0429 127.945   4
   1   8   6 113.283 111.733   8
   1  -8  -6 138.568 162.126   1
  -1   8   6-88.5457 97.4414   7
  -1   8  -6 65.7557 128.515   7
   1   8  -6-29.0967 157.073   7
   1  -8   6-57.0438 130.269   4
   1   8   7 540.689 139.358   8
  -1   8   7 531.373 212.718   6
  -1  -8  -7 474.827 157.529   3
   1   8  -7 399.196 318.911   6
  -1   8  -7 538.445 186.842   5
  -1   8  -7 440.533 142.324   7
   1   8   7 748.210 307.138   5
   1  -8  -7 567.805 163.317   1
  -1  -8   7 526.591 152.766   4
   1  -8  -7 536.730 163.505   3
  -1   8   7 222.747 275.593   5
  -1   8   7 623.750 149.564   8
   1  -8  -7 445.934 105.023   4
  -1   8   7 500.225 117.562   7
  -1   8  -7 747.451 311.927   6
   1   8  -7 635.406 188.830   7
   1  -8   7 562.154 154.992   4
  -1  -8  -7 510.035 352.199   2
   1   8   8 371.629 134.075   8
  -1   8  -8 730.065 318.286   6
  -1  -8  -8 469.099 163.629   3
   1   8   8 141.703 289.302   5
  -1   8   8 178.710 286.629   5
   1  -8  -8 329.801 142.341   1
  -1   8   8 258.870 142.056   8
  -1  -8  -8 908.268 374.560   2
   1   8  -8 462.484 182.929   7
   1  -8  -8 302.992 97.4181   4
  -1  -8   8 296.135 144.656   4
  -1   8  -8 464.471 147.753   7
   1  -8  -8 155.668 155.418   3
   1  -8   8 161.064 152.832   4
   1  -8  -9-226.303 161.111   3
  -1  -8   9 115.855 144.797   4
  -1   8  -9 226.482 313.159   6
   1   8   9-37.5775 127.637   8
  -1  -8  -9-111.018 149.154   3
   1   8   9 44.1692 298.701   5
  -1   8   9-130.461 296.521   5
  -1  -8  -9-15.7515 361.921   2
  -1   8  -9 24.5268 137.666   7
   1   8  -9-90.8600 168.226   7
   1  -8   9 307.689 158.884   4
  -1   8   9-65.4578 129.702   8
  -1  -8  10 91.2587 147.143   4
  -1   8 -10 343.918 324.838   6
   1  -8  10 126.459 161.716   4
  -1  -8 -10 35.1523 156.666   3
   1   8  10 167.884 325.304   5
   1   8  10 209.269 132.218   8
  -1   8 -10 50.8762 144.786   7
  -1   8  10 113.132 146.560   8
   1   8 -10 201.447 165.926   7
  -1   8  10 453.574 318.071   5
   1  -8 -10 56.9595 163.868   3
  -1   8 -11 112.912 329.995   6
   1   8  11-110.644 339.592   5
  -1  -8 -11 54.4843 162.972   3
  -1  -8  11 139.480 146.904   4
  -1   8  11-94.9430 326.377   5
   1  -8 -11 139.464 175.058   3
  -1   8  11 326.182 163.844   8
   1   8 -11 440.267 176.664   7
   1  -8  11 90.9026 167.646   4
  -1   8 -12 599.935 364.061   6
  -1  -8 -12-102.913 168.978   3
   1   8  12 32.7451 350.287   5
   1  -8  12 147.941 175.422   4
  -1   8  12 345.582 345.240   5
   1  -8 -12 407.994 193.774   3
  -1   8  12 273.302 173.735   8
  -1  -8 -12 17.0838 404.384   2
  -1   8 -13 1201.33 402.403   6
  -1   8  13 808.078 397.298   5
  -1  -8 -13 1034.09 235.879   3
   1   8  13 1308.15 417.364   5
  -1   8 -13 1226.80 226.060   7
   1   8  13 1264.89 214.637   8
   1  -8 -13 900.871 244.726   3
   1  -8  13 1365.86 239.112   4
  -1  -8 -13 1971.80 468.711   2
  -1   8 -14 637.615 385.285   6
  -1  -8 -14 345.197 446.589   2
  -1  -8 -14 290.082 181.314   3
  -1   8  14 91.4959 182.899   8
   1   8  14-212.577 385.355   5
   1   8  14-90.7734 156.770   8
  -1   8  14-428.424 373.599   5
   1  -8  14-101.469 175.220   4
  -1   8 -14 67.5228 178.709   7
   1  -8 -14-92.3936 206.200   3
  -1   8 -15 327.731 430.831   6
   1   8  15 84.1570 230.988   8
   1  -8 -15 982.669 265.232   3
  -1   8  15 1254.57 254.023   8
  -1   8  15 483.849 444.652   5
  -1   8 -15 714.253 221.006   7
  -8   1 -15 687.804 383.326   6
   1  -8  15 1401.21 262.790   4
  -1   8 -16 242.454 390.029   6
  -1  -8 -16-150.920 203.919   3
   1   8  16-871.195 465.650   5
   1   8  16-548.783 219.005   8
   1  -8 -16 75.8363 217.804   3
   1  -8  16 119.899 197.599   4
  -1   8  16 462.195 416.016   5
  -1   8  16-11.0831 201.457   8
  -1   8 -16 50.9360 186.857   7
  -8   1 -16-382.838 386.719   6
   1  -8  17 185.285 216.731   4
  -1   8 -17 344.617 416.805   6
  -1   8  17 460.413 428.975   5
  -1   8 -17 219.390 193.153   7
  -1  -8 -17 664.203 506.490   2
   1   8  17-612.057 448.894   5
  -1  -8 -17 314.055 216.839   3
  -1   8  17-149.125 207.036   8
   1  -8 -17 159.479 233.826   3
   1   8  17 227.895 189.957   8
  -8   1 -17 334.639 400.822   6
  -1   8 -18-861.025 437.833   6
  -1  -8 -18-58.5526 215.727   3
  -1   8 -18 74.9188 198.300   7
  -1   8  18-103.356 441.234   5
   1   8  18 1059.24 489.656   5
   1   8  18 91.7307 178.905   8
   1  -8 -18 180.666 239.224   3
  -1  -8 -18 187.787 514.132   2
   1  -8  18-138.815 211.422   4
  -8   1 -18 392.739 409.515   6
  -1   8 -19 240.759 445.752   6
  -1  -8 -19-195.999 230.159   3
   1   8  19-864.952 503.965   5
   1  -8  19-348.997 234.467   4
  -1   8  20 261.263 243.227   8
  -1   8 -20 111.958 203.641   7
   1  -8  21 241.670 228.782   4
   1  -8 -21-128.815 278.048   3
  -1   8 -21 713.021 459.938   6
  -1   8  21-203.614 500.200   5
  -1   8  21-102.448 246.180   8
   1   8  21-154.736 206.196   8
  -1   8 -21-80.0541 217.217   7
  -1  -8 -21 817.915 600.768   2
  -1  -8 -22-183.960 286.419   3
   1  -8  22-230.755 239.076   4
   1   8  22-283.438 219.599   8
  -1   8  22-52.6421 253.837   8
  -1   8 -22-23.3395 229.754   7
   1   8  22-439.070 565.788   5
   1  -8 -22-151.835 318.315   3
  -1   8  22-1364.02 557.193   5
   1  -8  23 82.3445 228.340   4
   1   8  23 379.484 550.506   5
  -1   8 -23 23.7888 221.027   7
   1   8  23-92.9671 215.334   8
  -1   8  23 53.9859 238.030   8
  -1  -8 -23 783.533 658.863   2
   1  -8 -23 316.408 315.301   3
  -1   8  23-189.096 507.784   5
  -1  -8 -23-29.7829 258.880   3
   1   8  24 249.937 223.687   8
  -1   8  24-151.948 257.785   8
  -1   8  24 501.259 520.877   5
   1  -8 -24-73.3848 317.389   3
   1   8  24-538.029 571.244   5
  -1  -8 -24 217.481 279.946   3
  -1   8 -24 121.452 224.115   7
  -1  -8 -24-657.181 670.804   2
  -1   8  25-169.180 273.221   8
   1   8  25 701.612 582.132   5
  -1   8  25 193.591 514.877   5
  -1  -8 -25 292.945 314.149   3
   1  -8 -25 284.483 329.150   3
   1   8  25 36.5376 235.121   8
  -1   8 -25-12.3534 233.103   7
  -1  -8 -25-819.955 706.811   2
   1   8  26-920.918 619.732   5
   1  -8 -26-175.582 351.242   3
  -1  -8 -26 397.583 761.919   2
   1   8  26-12.4495 241.646   8
  -1   8  26 272.624 296.929   8
  -1   8  26-438.415 558.781   5
  -1  -8 -26-102.773 324.771   3
  -1   8 -26-464.041 257.846   7
  -1   8  27 597.180 297.744   8
   1   8  27 788.298 282.719   8
   1  -8 -27 802.614 386.417   3
  -1  -8 -27 434.056 333.685   3
  -1  -8 -27 618.802 756.253   2
   1   8  27 1623.98 617.918   5
  -1  -8 -28 18.9666 345.308   3
   1   8  28 26.6318 596.433   5
   1   8  28-103.764 255.237   8
  -1   8  28-202.170 287.373   8
   1  -8 -28 285.471 339.792   3
  -1  -8 -28-30.5240 786.458   2
   1   8  29-13.2169 257.847   8
  -1  -8 -29 157.577 807.333   2
  -1   8  29 524.307 284.775   8
  -1  -8 -29-159.037 365.403   3
   1   8  29 189.547 603.043   5
   1   8  30 94.2000 265.188   8
  -1   8  30-439.294 309.862   8
  -1  -8 -30-20.7860 366.794   3
  -1  -8 -30 616.798 835.302   2
   1   8  30-951.865 660.489   5
  -1   8  31-44.0207 281.792   8
   1   8  31-215.393 263.693   8
  -1  -8 -31 193.668 395.527   3
  -1  -8 -31-1099.63 911.430   2
   1   8  31-876.869 632.727   5
   2   8   0 951.629 1431.81   5
  -2   8   0 14032.3 1442.06   7
   2   8   0 11670.7 1516.87   7
   2   8   1 370.521 327.623   7
   2   8  -1-106.789 442.717   7
  -2  -8  -2-1094.63 463.237   2
   2  -8   2-636.756 389.309   1
   2   8   2 1440.78 144.929   8
   2  -8   2 83.2286 178.618   4
   2  -8  -2-10.2214 297.852   1
   2  -8  -2 239.926 183.126   3
   2  -8  -2 260.068 166.900   4
  -2   8   2 353.643 158.690   8
  -2   8   2-193.040 195.899   7
  -2   8  -2 6.99984 190.690   7
   2   8   3-885.985 300.821   5
   2  -8   3 149.382 108.718   3
   2  -8   3-447.604 143.505   4
  -2   8   3-376.271 138.347   7
   2  -8  -3 7.44572 137.850   3
   2   8   3-214.669 112.884   8
  -2   8   3-810.128 262.739   6
  -2   8  -4 1017.00 307.133   6
  -2  -8  -4 931.513 376.615   2
   2  -8  -4 463.226 156.307   3
   2   8   4 533.832 290.374   5
   2  -8   4 306.102 123.202   3
  -2   8   4 542.489 256.689   5
  -2   8  -4 110.124 193.123   5
   2   8   4 476.003 123.551   8
  -2   8   4 367.163 128.419   8
   2  -8  -4 543.452 196.392   1
   2  -8   4 742.414 149.405   4
  -2   8   4 633.119 131.168   7
  -2   8  -4 421.418 145.942   7
   2   8   4 773.011 156.722   7
  -2   8  -4 391.180 94.3209   8
  -2   8   5 409.605 259.852   5
  -2  -8  -5 16.5642 360.262   2
   2   8   5-195.939 292.443   5
   2  -8   5-59.2591 248.321   2
   2  -8   5 306.250 111.988   3
  -2   8  -5-6.83302 183.028   5
   2  -8   5 140.805 125.981   4
  -2   8  -5 273.822 82.4057   8
  -2   8   5 225.157 133.898   8
   2   8   5 361.198 119.294   8
  -2   8  -5 185.660 132.623   7
   2   8   5 215.311 112.592   7
  -2   8  -5 26.8861 286.877   6
   2  -8  -5 248.343 147.198   3
  -2   8   6 12.9752 254.737   5
  -2   8  -6 14.0744 299.835   6
   2  -8   6 179.770 210.293   2
   2   8   6 215.249 292.233   5
  -2  -8  -6 313.024 360.648   2
   2  -8   6 8.81687 99.9828   3
  -2   8  -6 158.256 175.371   5
  -2   8  -6 43.8824 71.5563   8
   2   8   6 6.90541 109.004   8
  -2   8  -6-7.62040 130.444   7
  -2   8   6 160.344 131.136   8
   2  -8  -6 26.1777 142.958   3
  -2   8   6 180.427 237.192   6
   2  -8   6 32.5218 128.280   4
   2   8   6 140.336 95.6090   7
   2   8   7 486.098 320.885   5
   2  -8   7 357.239 108.220   3
  -2   8  -7 227.198 140.830   7
  -2  -8  -7 394.952 372.654   2
   2   8   7 242.292 127.174   8
   2  -8  -7 211.390 159.817   3
  -2   8   7 325.215 146.126   8
   2  -8   7 246.031 150.347   4
  -2   8  -7 304.485 324.247   6
   2  -8   7 467.819 152.424   2
  -2   8   7 212.982 232.388   6
  -2   8   7 762.903 291.758   5
  -2   8  -8 242.608 330.892   6
   2   8   8 181.121 319.070   5
  -2  -8  -8-329.917 372.324   2
   2  -8  -8-29.0514 156.527   3
  -2   8   8-483.248 294.826   5
  -2   8   8-76.6415 140.216   8
   2   8   8-139.051 123.319   8
  -2   8  -8 40.4083 130.656   7
   2  -8   8-149.658 145.210   4
  -2   8   8 562.141 230.740   6
  -2   8  -9-108.565 324.932   6
   2   8   9 272.686 134.564   8
  -2   8   9 471.848 163.046   8
  -2   8  -9 383.719 151.898   7
   2  -8   9 376.514 163.230   4
   2  -8  -9 275.126 175.236   3
   2   8   9 232.285 317.872   5
  -2   8   9 789.165 321.340   5
  -2   8 -10 845.543 358.883   6
   2   8  10 383.431 345.586   5
  -2  -8 -10 147.732 155.412   3
   2  -8 -10 203.886 175.555   3
  -2   8  10 280.452 313.735   5
  -2   8 -10 370.671 157.609   7
   2  -8  10 19.2813 157.540   4
  -2   8  10 418.112 164.518   8
  -2  -8 -11 460.243 389.731   2
  -2   8 -11 799.512 373.836   6
  -2  -8 -11 282.738 173.783   3
   2  -8 -11 179.035 194.873   3
   2   8  11-230.180 356.866   5
  -2   8  11 356.069 333.379   5
  -2   8  11 319.502 168.366   8
   2  -8  11 281.290 172.542   4
  -2   8 -12 972.362 421.356   6
  -2  -8 -12 1813.41 276.967   3
  -2   8  12 1959.45 425.611   5
   2   8  12 1869.83 444.023   5
  -2  -8 -12 1213.10 470.398   2
   2  -8 -12 1612.91 299.168   3
  -2   8  12 1832.12 281.412   8
   2  -8  12 1955.69 289.748   4
   2   8  12 2083.10 262.108   8
  -2   8 -13 806.442 395.423   6
  -2  -8 -13 185.460 179.454   3
   2   8  13-192.360 382.837   5
  -2  -8 -13-71.2278 427.749   2
   2   8  13 51.1984 151.623   8
  -2   8  13 367.957 350.042   5
   2  -8 -13 12.3792 206.800   3
  -2   8 -13 76.1591 167.794   7
   2  -8  13-32.8023 176.186   4
  -2  -8 -14 1975.68 302.734   3
   2   8  14 2390.57 481.057   5
  -8   2 -14 1475.91 422.005   6
  -2   8  14 1895.56 452.787   5
  -2   8 -14 2253.85 302.273   7
   2  -8  14 2217.44 322.699   4
   2   8  14 1918.30 286.066   8
  -2  -8 -14 1473.17 499.577   2
   2  -8 -14 1992.26 337.620   3
  -2   8 -14 1989.77 467.796   6
  -2   8 -15 376.220 321.472   7
  -2   8 -15 796.651 566.803   6
   2  -8 -15 1249.01 356.218   3
  -2   8  15 630.358 313.822   8
  -8   2 -15 1490.40 473.362   6
   2  -8  15 249.648 333.905   4
  -2   8  15 2239.40 514.463   5
  -2   8 -16 1039.43 450.203   6
  -2  -8 -16 1521.84 279.883   3
   2   8  16 2265.90 505.932   5
  -2   8  16 1900.80 303.045   8
  -2   8  16 623.895 433.182   5
   2   8  16 1655.89 261.492   8
  -2  -8 -16 1831.05 528.693   2
   2  -8 -16 1614.30 329.699   3
  -2   8 -16 1459.35 276.681   7
  -8   2 -16 765.386 444.145   6
   2  -8  16 1931.74 305.976   4
  -2   8 -17-190.659 427.410   6
  -2   8  17 12.3062 222.069   8
  -2  -8 -17 119.862 203.313   3
   2   8  17 611.276 465.090   5
   2   8  17 106.186 177.831   8
  -2   8  17-322.356 417.878   5
  -2  -8 -17 19.6077 481.586   2
   2  -8 -17 104.616 245.965   3
  -2   8 -17-97.4631 200.920   7
   2  -8  17-12.8319 222.332   4
  -8   2 -17-16.4807 426.198   6
   2   8  18 79.2352 185.408   8
  -2   8 -18-234.339 436.104   6
  -2   8  18-310.129 437.070   5
  -2  -8 -18 292.881 215.786   3
   2   8  18 222.280 456.541   5
   2  -8  18-158.688 205.183   4
  -2  -8 -18 221.629 500.073   2
   2  -8 -18 109.481 269.265   3
  -8   2 -18 391.679 431.645   6
   2   8  19 312.320 486.594   5
  -2  -8 -19 128.415 219.020   3
  -8   2 -19 223.509 459.290   6
  -2   8 -20 153.575 223.777   7
  -2   8  20-160.514 239.901   8
  -8   2 -20 120.967 462.611   6
  -2   8  21-1166.06 518.106   5
  -2  -8 -21-1165.71 647.046   2
  -2   8 -21-188.534 480.146   6
  -2   8  21-124.104 275.784   8
  -2  -8 -21-12.6400 244.825   3
  -2   8 -21-121.285 241.355   7
   2  -8  21 86.5326 260.170   4
   2   8  21-480.835 237.475   8
   2  -8 -21-368.899 334.976   3
   2  -8  22-176.428 252.431   4
   2  -8 -22-54.2831 304.331   3
   2   8  22-10.9536 209.157   8
  -2   8 -22 42.7146 480.275   6
  -2   8  22-113.519 255.092   8
  -2  -8 -22-118.925 250.179   3
   2   8  22-297.063 555.846   5
  -2   8 -22-149.273 236.183   7
  -2   8  22 334.422 476.499   5
  -2  -8 -22-839.085 603.439   2
  -2  -8 -23 345.941 268.481   3
   2  -8  23 195.223 252.442   4
  -2  -8 -23-1286.65 613.304   2
   2   8  23 145.960 218.696   8
   2   8  23 117.156 560.365   5
  -2   8  23-160.222 267.910   8
  -2   8  23-270.551 487.907   5
  -2   8 -23-12.7570 245.257   7
   2  -8 -23-74.5944 314.562   3
  -2   8 -23-21.8428 492.506   6
  -2   8 -24-467.120 504.493   6
  -2  -8 -24 699.864 644.773   2
  -2  -8 -24 334.200 270.826   3
   2   8  24 126.613 222.302   8
  -2   8  24-343.087 286.878   8
   2  -8 -24 342.420 321.527   3
  -2   8 -24 208.661 256.738   7
   2   8  24 817.083 586.934   5
   2  -8  24-167.292 249.054   4
  -2   8 -25 432.280 491.835   6
   2   8  25 212.353 235.331   8
  -2   8 -25-186.269 269.928   7
  -2   8  25 76.1444 288.859   8
   2  -8  25 15.4838 262.064   4
  -2  -8 -25-99.6045 639.683   2
   2   8  25-99.0607 569.553   5
   2  -8 -25-135.035 325.379   3
  -2  -8 -25-106.890 292.380   3
   2   8  26 1445.54 658.471   5
  -2   8  26 488.703 312.245   8
   2  -8  26 327.101 282.767   4
  -2  -8 -26 446.228 326.587   3
  -2   8 -26 826.137 302.115   7
   2   8  26 688.923 268.578   8
   2  -8  27-219.373 270.650   4
   2   8  27 103.907 586.508   5
   2   8  27-445.902 260.043   8
  -2   8  27 46.4550 305.907   8
  -2  -8 -27 50.4034 309.009   3
  -2  -8 -27-105.823 693.278   2
  -2   8 -27-151.298 269.090   7
   2   8  28 444.236 247.795   8
   2   8  28 373.551 628.645   5
  -2  -8 -28 722.338 345.813   3
  -2  -8 -28 217.868 727.398   2
  -2   8 -28 55.7362 267.696   7
   2   8  29 65.0497 263.525   8
   2   8  29-571.440 638.495   5
  -2  -8 -29 951.613 742.651   2
  -2   8 -29 281.176 279.602   7
  -2  -8 -29-92.8030 348.848   3
   2   8  30-306.753 285.291   8
   2   8  30 417.518 697.174   5
  -2   8 -30-127.383 300.700   7
  -2  -8 -30-58.7943 385.810   3
  -3   8   0-14.8776 127.303   7
  -3   8   0 234.949 224.120   5
   3  -8   0 200.417 142.425   3
   3  -8   0 127.730 211.410   1
  -3   8   0 192.788 111.484   8
  -3   8   0-140.112 275.639   6
   3  -8   1 4383.26 532.989   3
   3  -8  -1 4279.26 535.188   3
  -3   8  -1 4745.63 518.952   8
  -3   8   1 5209.12 528.928   8
  -3   8  -1 4072.43 565.934   5
   3  -8   1 5648.49 537.250   4
  -3   8   1 5587.03 539.261   7
  -3   8  -1 5339.51 544.587   7
  -3   8   1 4325.81 594.276   6
  -3   8  -1 3989.10 598.144   6
   3  -8  -1 5167.65 583.325   1
   3  -8   1 5258.93 584.611   1
  -3   8   2 21.2889 118.537   7
   3   8   2-146.848 267.640   5
   3  -8   2 89.7960 239.024   1
  -3   8   2 113.613 234.608   5
  -3   8   2 39.3662 112.077   8
   3  -8  -2-363.849 152.375   3
   3  -8  -2 580.288 208.169   1
   3  -8   2 7.34483 117.186   4
  -3   8  -2 320.139 139.041   7
  -3   8   2 109.515 266.603   6
  -3   8  -2-148.443 277.069   6
   3  -8   3 1644.10 333.663   1
   3  -8   3 1546.35 247.073   3
   3  -8  -3 1996.43 271.816   3
   3   8   3 1387.80 351.799   5
   3  -8  -3 1949.05 293.929   1
  -3   8   3 2227.48 262.863   7
  -3   8   3 1552.67 342.332   5
  -3   8   3 2225.25 259.931   8
  -3   8  -3 2239.52 374.825   6
  -3  -8  -3 1349.29 398.655   2
   3  -8   3 2031.43 259.330   4
  -3   8  -3 2270.52 266.392   7
  -3   8   3 1606.98 353.632   6
   3  -8   4 297.332 258.551   1
  -3   8  -4-152.397 201.145   5
   3  -8   4 65.7570 116.198   3
   3  -8  -4 9.64559 179.233   1
   3   8   4 258.738 287.113   5
  -3  -8  -4-120.432 346.988   2
   3   8   4 13.1447 102.829   8
  -3   8  -4 16.1619 141.192   7
  -3   8   4 97.5795 128.826   8
  -3   8   4 96.1529 126.747   7
   3  -8  -4 9.18591 148.189   3
   3  -8   4-86.2685 125.821   4
  -3   8   4-174.692 256.469   5
  -3   8  -4 88.1798 87.3718   8
  -3   8   4-105.245 255.358   6
  -3   8  -4 461.137 296.810   6
  -3  -8  -5 249.984 375.635   2
   3   8   5 519.599 303.312   5
   3  -8   5 29.7341 271.040   1
   3  -8  -5 305.754 189.633   1
  -3   8   5-104.595 263.431   5
  -3   8  -5 188.825 80.2141   8
  -3   8   5 95.6526 140.844   8
   3  -8   5 338.544 254.576   2
   3  -8  -5 76.9883 159.023   3
  -3   8  -5 177.776 191.533   5
  -3   8   5 72.3974 268.036   6
  -3   8  -5 229.416 300.204   6
  -3   8  -5 300.160 152.453   7
   3  -8   5 64.9213 130.923   4
   3  -8   5 200.630 115.041   3
   3   8   5-6.89200 103.455   8
  -3  -8  -6 18.2178 396.708   2
  -3   8   6-150.465 274.875   5
  -3   8  -6 295.658 315.926   6
   3   8   6 489.429 313.607   5
   3  -8   6-94.0787 115.938   3
  -3   8   6 33.4764 142.398   8
   3  -8  -6 20.2535 161.169   3
   3  -8   6 50.3958 131.343   4
  -3   8  -6 114.781 139.969   7
   3  -8   6 96.8114 238.504   2
   3  -8   6-92.8774 282.237   1
   3   8   6 7.15313 113.420   8
   3  -8  -7-53.2403 167.802   3
  -3  -8  -7-18.3819 408.849   2
   3   8   7 7.39390 115.834   8
   3   8   7-251.721 326.305   5
  -3   8   7 157.548 148.650   8
  -3   8   7 285.792 285.047   5
   3  -8   7-226.625 296.432   1
   3  -8   7 43.5584 138.633   4
  -3   8  -7-208.831 146.829   7
  -3   8  -7 117.382 321.805   6
   3   8   8 516.284 145.516   8
  -3   8   8-118.575 291.488   5
  -3   8   8 552.668 170.447   8
   3  -8  -8 648.809 209.301   3
   3  -8   8 514.718 168.025   4
  -3   8  -8 281.513 158.236   7
   3   8   8 419.921 342.963   5
   3  -8   8 168.399 293.947   1
  -3   8  -8 270.515 331.394   6
  -3   8   9 507.440 169.644   8
  -3   8  -9 110.508 346.676   6
  -3   8   9 385.913 307.678   5
   3  -8   9 74.7407 154.694   4
  -3   8  -9 323.103 152.602   7
   3  -8  -9 153.241 194.697   3
   3   8   9-347.882 359.625   5
   3  -8  10 369.051 169.800   4
  -3  -8 -10 586.637 424.511   2
  -3   8 -10-623.879 375.334   6
   3  -8 -10-111.207 213.730   3
  -3   8  10-208.655 311.236   5
   3   8  10 33.9263 355.621   5
  -3   8 -10 98.5511 158.704   7
  -3   8  10 278.047 169.666   8
   3   8  11 1505.35 431.275   5
  -3  -8 -11 1822.50 481.243   2
   3   8  11 2296.93 266.900   8
  -3   8  11 1542.67 283.055   8
   3  -8  11 1679.93 280.551   4
  -3   8  11 1708.77 402.338   5
   3  -8 -11 1823.74 323.442   3
  -3   8 -11 2403.09 454.564   6
  -3   8 -12 1012.88 412.586   6
  -3   8  12 171.865 333.414   5
   3   8  12 917.665 392.471   5
  -3  -8 -12-111.220 428.596   2
  -3   8  12 212.828 186.294   8
   3   8  12-8.51054 146.450   8
   3  -8 -12 94.8685 217.124   3
   3  -8  12 177.885 179.671   4
  -3   8  13 2860.50 534.096   5
  -3   8 -13 2840.65 561.227   6
  -3  -8 -13 3723.74 426.061   3
   3  -8 -13 2940.15 454.846   3
   3   8  13 3301.38 562.251   5
  -8   3 -13 2156.50 503.921   6
   3   8  13 3793.55 409.946   8
  -3   8  13 2861.33 422.547   8
  -3  -8 -13 3612.51 603.080   2
  -3   8 -13 3611.01 420.222   7
   3  -8  13 3853.42 429.358   4
  -3   8 -14-161.513 221.123   7
   3   8  14-414.205 194.370   8
  -3  -8 -14-465.177 236.418   3
  -3   8  14-799.721 410.032   5
   3  -8 -14 14.7130 265.856   3
   3  -8  14-578.065 249.784   4
  -8   3 -14-677.949 399.999   6
  -3   8 -15 1422.32 521.188   6
   3  -8 -15 2118.44 394.061   3
   3   8  15 966.662 527.475   5
  -3   8 -15 2594.02 354.631   7
  -3   8  15 2225.17 492.785   5
   3  -8  15 2993.01 370.067   4
   3   8  15 2517.63 332.690   8
  -3  -8 -15 2989.41 359.084   3
  -3  -8 -15 19.2110 616.994   2
  -8   3 -15 1645.58 484.535   6
  -3   8  16 60.8339 214.004   8
  -3  -8 -16 43.2699 208.110   3
   3   8  16-19.3538 434.349   5
  -3   8  16-364.455 392.921   5
   3   8  16 188.881 168.536   8
  -3   8 -16-56.6438 432.701   6
   3  -8 -16 111.255 264.958   3
  -3   8 -16 86.0269 207.969   7
  -3  -8 -16 253.937 470.401   2
   3  -8  16 12.3053 211.246   4
  -8   3 -16 443.003 425.280   6
  -3   8 -17 1065.55 257.584   7
  -3   8 -17 980.629 474.010   6
  -3  -8 -17 1393.36 266.195   3
   3   8  17 1421.81 509.055   5
  -3  -8 -17 835.761 516.902   2
   8  -3  17 1309.77 356.488   1
   3   8  17 1489.38 239.394   8
  -3   8  17 1115.71 435.496   5
   3  -8  17 995.886 267.216   4
  -8   3 -17 369.467 467.020   6
   3  -8 -17 869.260 315.425   3
  -3   8 -18 19.6459 455.561   6
   8   3  18-140.011 248.985   5
  -3  -8 -18 11.2859 214.359   3
   3   8  18-423.516 477.333   5
  -8   3 -18 773.028 465.568   6
   3  -8  18 79.9134 216.794   4
   8  -3  18-189.132 322.118   1
   8  -3  19 373.468 343.012   1
  -3   8  19 53.3160 235.723   8
  -8   3 -19 115.823 253.209   7
  -8   3 -19 18.4401 480.835   6
   8  -3  20 310.069 346.212   1
  -3   8  20 247.988 258.802   8
   8  -3  20 139.311 212.380   4
   3   8  20 135.602 204.627   8
  -8   3 -20 65.9865 252.364   7
  -3   8 -20-121.672 226.418   7
  -8   3 -20 855.757 502.580   6
   3  -8 -20 141.700 279.980   3
   8  -3  21 916.955 447.984   1
   8  -3  21 255.467 235.062   4
  -3   8 -21 2039.64 592.827   6
  -3  -8 -21 637.607 300.998   3
   3   8  21 1495.53 699.158   5
  -3   8 -21 488.451 276.603   7
   3  -8  21 326.415 298.554   4
  -3   8  21 298.798 295.865   8
  -8   3 -21 1016.45 323.266   7
   3   8  21 801.707 262.651   8
  -8   3 -21 766.280 556.308   6
  -3   8 -22 43.0757 497.158   6
  -3  -8 -22-165.061 246.015   3
   3   8  22-648.707 578.881   5
  -3   8 -22 218.901 245.894   7
  -3  -8 -22 178.969 601.725   2
   3   8  22 87.6549 211.189   8
   3  -8  22-106.707 249.497   4
  -3  -8 -23-1032.60 653.763   2
  -3   8 -23 439.868 518.400   6
   3   8  23 146.079 226.081   8
  -3   8 -23-224.645 264.811   7
   3   8  23 183.761 548.510   5
  -3  -8 -23 263.447 265.890   3
   3  -8  23 408.387 281.504   4
   3   8  24-776.013 588.219   5
  -3   8 -24-313.612 506.535   6
  -3  -8 -24 753.770 624.955   2
  -3  -8 -24-41.1904 257.585   3
   3   8  24 334.338 239.930   8
  -3   8 -24-40.6230 270.773   7
   3  -8  24-208.538 265.882   4
   3  -8  25 673.023 301.754   4
  -3   8 -25 594.851 527.846   6
   3   8  25 568.169 253.902   8
   3   8  25 841.989 594.200   5
  -3  -8 -25 459.597 651.499   2
  -3   8 -25 193.844 278.274   7
  -3  -8 -25 416.240 282.879   3
   3  -8  26 334.561 289.835   4
  -3   8 -26-1024.56 578.145   6
  -3  -8 -26 165.475 308.191   3
   3   8  26 231.058 251.365   8
  -3   8 -26-70.6362 279.191   7
   3   8  26 222.913 629.386   5
   3  -8  27 844.573 311.517   4
  -3   8 -27 316.265 297.024   7
   3   8  27 900.265 281.396   8
  -3  -8 -27 94.7659 308.137   3
   3   8  27 863.098 631.195   5
  -3   8 -27 71.3838 561.699   6
  -3  -8 -27 152.978 673.789   2
   3  -8  28-68.5477 293.151   4
  -3  -8 -28-156.920 681.305   2
  -3   8 -28-217.958 556.010   6
   3   8  28 754.059 611.733   5
  -3  -8 -28 49.9058 304.777   3
   3   8  28 12.8745 255.411   8
  -3   8 -28 379.334 291.186   7
   3  -8  29 686.657 315.299   4
  -3  -8 -29 364.830 333.895   3
   3   8  29 729.742 285.875   8
  -3  -8 -29 1179.56 724.533   2
   3   8  29 53.5814 633.062   5
  -3   8 -29 353.571 296.266   7
   3  -8  30 343.518 309.036   4
  -3   8 -30 356.584 303.751   7
   4  -8   0 3813.73 476.174   3
  -4   8   0 3630.56 514.639   5
  -4   8   0 4035.43 457.853   8
  -4   8   0 5025.75 479.891   7
   4  -8   0 4494.25 518.160   1
  -4   8   0 3532.39 549.209   6
  -4   8  -1-33.6940 139.126   7
   4  -8  -1 220.276 212.924   1
  -4   8   1 163.439 134.609   8
  -4   8  -1 53.4125 230.692   5
   4  -8   1-262.136 239.651   1
  -4   8  -1-48.0603 110.019   8
  -4   8   1 116.626 245.439   5
  -4   8   1 227.930 141.264   7
   4  -8  -1-9.57651 166.992   3
   4  -8   1-233.920 152.766   3
  -4   8  -1 562.320 306.808   6
  -4   8   1-590.159 306.822   6
   4  -8  -2 3519.53 411.034   3
  -4   8  -2 3076.35 367.298   8
  -4   8   2 3371.37 388.016   8
  -4   8  -2 2581.44 476.343   6
  -4   8   2 2686.14 446.683   5
  -4   8   2 3214.36 387.130   7
  -4   8  -2 3775.13 398.259   7
   4  -8  -2 3867.80 440.070   1
   4  -8   2 3842.70 455.887   1
  -4   8   2 2482.35 480.955   6
   4  -8   3 450.436 251.923   1
   4  -8  -3-120.513 198.466   1
  -4   8   3-40.3720 134.595   8
   4  -8  -3 10.4854 169.003   3
  -4   8   3-177.057 251.499   5
  -4   8  -3 319.039 150.612   7
  -4   8   3 186.309 316.196   6
  -4   8  -3 188.886 301.691   6
   4  -8   4 371.388 258.918   1
  -4   8  -4 601.910 163.726   7
   4  -8  -4 306.580 182.587   3
  -4   8   4 407.236 265.473   5
  -4   8   4 295.772 149.916   8
   4  -8   4 531.818 149.193   3
  -4   8   4 199.476 347.130   6
  -4   8  -4 610.188 323.217   6
   4  -8   5 194.291 270.921   1
  -4   8   5-13.6248 256.363   5
  -4   8  -5-285.693 320.565   6
  -4   8   5 97.7029 148.342   8
   4  -8   5-8.43856 141.681   4
  -4   8  -5 61.8672 149.664   7
   4  -8  -5 194.175 196.324   3
  -4   8   5-126.609 381.733   6
   4   8   6 373.425 301.272   5
  -4   8   6 54.9705 149.204   8
   4  -8   6 8.65707 143.569   4
  -4   8   6 395.137 274.185   5
   4  -8   6 185.869 270.127   1
  -4   8  -6-17.9787 151.440   7
   4  -8  -6-202.282 185.342   3
  -4   8   6-18.8415 452.925   6
  -4  -8  -6 178.236 365.052   2
  -4   8  -6 349.242 324.650   6
  -4   8  -7-109.465 153.608   7
   4   8   7-15.6848 312.879   5
  -4   8   7 29.1827 272.985   5
   4   8   7 29.3030 116.585   8
  -4   8   7-131.685 158.390   8
   4  -8   7 8.92499 142.851   4
   4  -8  -7-160.937 204.468   3
  -4   8   7 231.468 640.308   6
   4  -8   7 420.940 289.925   1
  -4   8  -7 209.870 332.435   6
   4  -8   8 201.351 301.407   1
   4   8   8-294.161 335.092   5
  -4   8   8 48.1351 155.579   8
  -4   8  -8 46.1148 341.233   6
  -4   8   8-90.1740 279.219   5
   4  -8   8-9.22275 154.528   4
  -4   8  -8 111.500 155.952   7
   4  -8  -8 25.7222 206.259   3
   4   8   9 67.6917 340.875   5
  -4  -8  -9-370.773 449.624   2
  -4   8  -9-454.825 368.283   6
   4  -8   9-333.152 336.632   1
  -4   8   9-29.5076 158.918   8
  -4   8   9-108.417 289.760   5
   4  -8   9 209.694 161.325   4
  -4   8  -9 103.991 169.552   7
   4  -8  -9 13.4126 202.438   3
  -4  -8 -10 1069.78 463.801   2
   4   8  10 463.331 162.067   8
   4   8  10 609.747 368.707   5
   4  -8  10 877.018 206.200   4
  -4   8  10 612.651 186.993   8
  -4   8  10 382.379 329.447   5
  -4   8 -10 456.332 383.290   6
   4  -8 -10 388.733 232.786   3
  -4   8  11 71.8062 175.828   8
  -4  -8 -11-139.598 457.852   2
   4   8  11 285.809 388.641   5
   4  -8 -11 186.430 223.869   3
   4   8  11 128.075 145.430   8
  -4   8  11-49.0700 317.006   5
   4  -8  11-10.1923 171.180   4
  -4   8 -11-67.6740 377.480   6
  -4  -8 -12 2278.37 515.308   2
   4  -8  12 1988.76 445.461   1
   4   8  12 2134.46 469.371   5
  -4   8 -12 1832.46 291.014   7
   4   8  12 2312.75 285.052   8
  -4   8  12 1604.57 286.828   8
   4  -8  12 2208.17 299.549   4
   4  -8 -12 1566.52 331.205   3
  -8   4 -12 1466.25 415.004   6
  -4   8 -12 1622.18 461.033   6
  -4  -8 -13-1137.06 507.976   2
   4   8  13-741.100 458.948   5
   4   8  13-126.069 169.675   8
  -4   8  13-118.120 195.444   8
  -4   8 -13-336.871 241.756   7
   4  -8 -13-243.001 268.177   3
  -8   4 -13-1101.77 406.461   6
  -4  -8 -14 1327.37 577.831   2
   4   8  14 850.256 498.351   5
  -4   8 -14 1333.49 320.493   7
   4   8  14 3059.45 300.363   8
  -4   8  14 2202.62 305.935   8
   4  -8  14-615.910 635.163   1
   4  -8  14 1053.46 363.291   4
   8  -4  14 2573.40 400.822   1
   4  -8 -14 2272.15 367.501   3
  -8   4 -14 984.936 463.448   6
   4  -8  15-22.2175 420.379   1
  -4  -8 -15 23.3791 207.947   3
  -4  -8 -15-1258.42 518.535   2
   4   8  15 497.556 435.717   5
  -8   4 -15-362.632 441.068   6
   4   8  15-104.261 177.333   8
   4  -8  15-175.676 208.982   4
  -4   8 -15-182.034 199.434   7
  -4   8 -15 285.870 456.262   6
   8  -4  15 201.060 308.309   1
  -4   8 -16 1242.65 513.073   6
   8  -4  16 1366.69 378.996   1
  -4  -8 -16 1606.66 297.432   3
  -4  -8 -16 2333.33 566.473   2
   4   8  16 1631.60 492.332   5
   4   8  16 1794.83 268.537   8
  -8   4 -16 1138.52 307.583   7
   4  -8  16 1390.71 491.459   1
  -4   8 -16 1751.47 297.063   7
   4  -8  16 1946.68 308.729   4
  -8   4 -16 935.457 471.432   6
  -4   8 -17-99.8628 471.069   6
   8  -4  17-407.330 332.250   1
  -4  -8 -17-58.4299 223.758   3
  -4  -8 -17-380.254 530.900   2
   4   8  17 435.587 463.691   5
   4   8  17 159.869 186.933   8
   4  -8  17 12.5501 227.127   4
  -8   4 -17 50.4439 228.908   7
  -8   4 -17 18.5760 465.026   6
   8  -4  18 199.494 341.444   1
   8   4  18 164.237 262.746   5
  -4  -8 -18 387.501 243.295   3
   4   8  18 140.602 465.801   5
  -8   4 -18 398.625 247.224   7
  -8   4 -18 171.052 472.552   6
   4  -8  19-160.833 524.212   1
   8  -4  19 112.344 352.914   1
   8  -4  19 194.490 225.280   4
   8   4  19 33.8816 275.359   5
  -4   8 -19 216.424 229.576   7
  -8   4 -19 91.8903 239.602   7
  -8   4 -19-174.046 496.544   6
  -4   8 -20-815.970 568.288   6
   8  -4  20-325.911 423.495   1
  -4  -8 -20-1756.91 635.158   2
   8  -4  20-261.973 255.892   4
   4   8  20-226.538 225.226   8
  -8   4 -20 13.4165 269.391   7
   4  -8  20-1418.05 681.970   1
  -4   8 -20-445.682 258.367   7
   4  -8  20-282.930 268.233   4
  -8   4 -20-97.9420 536.749   6
   4   8  21 22.1114 217.623   8
   8  -4  21-218.412 225.183   4
  -4  -8 -21-147.708 246.817   3
  -4  -8 -21-476.466 644.007   2
  -4   8 -21 213.037 498.069   6
  -8   4 -21-98.7500 513.371   6
   4   8  21 21.0790 533.451   5
   4  -8  21-180.894 591.750   1
  -4   8 -21 216.519 241.990   7
   4  -8  21-161.947 246.690   4
  -4   8 -22-304.481 506.151   6
  -4   8 -22 484.517 260.251   7
  -4  -8 -22-566.093 259.724   3
  -4  -8 -22-92.6879 619.463   2
   4   8  22-172.942 562.691   5
   4  -8  22 773.440 642.845   1
   4   8  22 90.7085 220.550   8
   4  -8  22 106.363 279.868   4
  -4   8 -23 1129.71 535.599   6
  -4  -8 -23-307.977 628.108   2
  -4  -8 -23-116.206 243.910   3
   4   8  23-658.786 571.177   5
   4   8  23 186.231 234.451   8
   4  -8  23 34.6540 686.150   1
  -8   4 -23-86.1389 266.327   7
   4  -8  23-156.910 286.499   4
  -4   8 -23 13.4440 251.868   7
   4   8  24 370.818 243.017   8
  -4   8 -24 520.246 531.432   6
  -4  -8 -24-436.365 636.239   2
   4  -8  24-712.884 761.402   1
  -4  -8 -24 53.2198 256.364   3
  -4   8 -24 317.157 266.705   7
   4   8  24-1056.36 579.775   5
   4  -8  24 406.749 302.325   4
  -4   8 -25-323.672 557.074   6
   4   8  25-440.286 594.341   5
   4  -8  25-81.8510 844.246   1
  -4  -8 -25-198.601 675.244   2
  -4  -8 -25 55.0049 277.797   3
   4   8  25-332.285 260.997   8
  -4   8 -25 28.2221 278.110   7
   4  -8  25-516.353 311.031   4
  -4  -8 -26 71.4698 280.783   3
   4   8  26 481.806 256.215   8
  -4   8 -26 895.334 575.083   6
  -4  -8 -26-25.4228 685.265   2
   4   8  26-379.251 574.247   5
   4  -8  26-135.062 900.666   1
  -4   8 -26 216.235 299.878   7
   4  -8  26 410.525 318.025   4
   4   8  27 557.780 584.008   5
  -4   8 -27 934.658 582.938   6
   4  -8  27 549.976 1007.14   1
  -4  -8 -27 937.717 686.821   2
   4   8  27-196.303 253.764   8
  -4  -8 -27-14.9106 284.147   3
  -4   8 -27 132.217 288.501   7
   4  -8  27 139.097 316.691   4
   4  -8  28 442.658 342.394   4
   4   8  28 852.584 296.394   8
   4   8  28 2349.90 647.535   5
  -4   8 -28 586.725 589.968   6
  -4  -8 -28 133.413 713.868   2
  -4  -8 -28 655.042 326.336   3
  -4   8 -28 851.263 325.529   7
   4  -8  28 785.450 1180.47   1
  -4   8 -29-30.2744 318.225   7
  -4   8 -29-671.441 625.456   6
   4  -8  29-190.185 1289.20   1
   4  -8  29 287.074 316.876   4
  -4   8 -30 200.050 310.963   7
   5  -8   0 242.018 230.188   1
  -5   8   0-267.269 156.742   8
  -5   8   0 182.848 148.280   7
  -5   8   0 284.155 366.072   6
  -5   8  -1 1771.12 243.234   8
  -5   8   1 1484.46 256.019   8
  -5   8  -1 1367.64 236.061   7
  -5   8   1 1146.97 444.766   6
  -5   8  -1 1255.79 401.491   6
   5  -8   1 1743.77 309.860   1
   5  -8  -1 1729.42 298.926   1
  -5   8  -2-46.7618 153.742   7
   5  -8   2 40.1850 225.624   1
  -5   8  -2 180.489 142.356   8
  -5   8   2 47.0669 158.341   8
  -5   8   2-196.436 460.078   6
  -5   8  -2 208.079 335.813   6
  -5   8   3 190.853 175.043   8
  -5   8  -3 362.904 168.164   7
   5  -8   3 484.747 247.949   1
  -5   8  -3 247.339 134.787   8
  -5   8   3 806.788 568.230   6
  -5   8  -3 370.445 338.637   6
  -5   8   4 143.620 162.654   8
  -5   8  -4-28.7544 161.441   7
   5  -8   4-28.8243 250.530   1
  -5   8   4-73.3426 858.828   6
  -5   8  -4 103.182 335.559   6
  -5   8  -5-144.187 167.368   7
  -5   8   5 95.4338 156.223   8
   5  -8   5 15.0113 267.183   1
  -5   8  -5-104.844 336.745   6
  -5   8  -6 57.9914 165.134   7
  -5   8   6 208.646 158.762   8
   5  -8   6 139.159 287.087   1
  -5   8  -6-30.5730 347.848   6
  -5   8  -7 156.655 363.119   6
  -5   8  -7 343.038 181.591   7
   5  -8   7 258.721 292.789   1
   5  -8   8-33.7334 304.858   1
  -5   8  -8-270.253 347.298   6
  -5   8  -8 207.415 176.991   7
   5  -8   8 47.3296 159.249   4
   5   8   9 48.2990 328.960   5
   5  -8   9 139.235 311.681   1
  -5   8  -9 50.0882 169.864   7
   5  -8   9-272.010 169.966   4
  -5  -8  -9 18.6844 392.351   2
  -5   8  -9 638.169 381.861   6
   5  -8  10 40.0612 176.884   4
  -5  -8 -10-349.294 410.183   2
  -5   8 -10 185.069 382.260   6
   5   8  10 84.3176 347.773   5
   5   8  11 280.071 383.731   5
   5   8  11 537.157 159.449   8
  -5   8 -11 395.994 402.401   6
   5  -8  11 341.447 179.516   4
  -8   5 -11 423.445 353.995   6
  -5  -8 -11 20.0466 421.518   2
  -5  -8 -12-20.5611 504.340   2
   5   8  12-324.293 422.507   5
   5  -8  12-1314.27 518.613   1
  -5   8 -12-452.734 266.345   7
   8  -5  12-675.835 330.279   1
   5  -8  12 213.742 209.887   4
   5   8  12 280.449 183.059   8
  -8   5 -12-333.816 417.529   6
   8  -5  13 1510.30 356.982   1
  -8   5 -13 688.491 246.781   7
   5  -8  13 551.901 234.306   4
   5   8  13 1019.59 197.811   8
   5   8  13 1566.80 453.350   5
  -5   8 -13 53.6851 252.481   7
   5  -8  13-1126.95 486.179   1
  -8   5 -13 853.947 424.682   6
  -5  -8 -13 20.9169 504.622   2
  -5  -8 -14 339.766 499.089   2
   8  -5  14-329.209 321.884   1
   5   8  14 150.021 428.075   5
   5  -8  14 291.043 404.370   1
   5   8  14-18.8175 161.937   8
  -8   5 -14 12.2587 206.058   7
  -5   8 -14 131.580 205.995   7
   5  -8  14 91.3597 198.810   4
  -8   5 -14-298.821 417.850   6
  -5   8 -14-752.830 456.213   6
   5  -8  15 687.816 428.401   1
  -5  -8 -15 1950.12 558.669   2
   8  -5  15 566.536 352.245   1
   5   8  15 591.298 460.946   5
  -8   5 -15 1007.56 269.365   7
  -5   8 -15 841.229 249.957   7
   5  -8  15 1227.19 262.984   4
   5   8  15 1388.88 224.052   8
  -8   5 -15 416.838 459.109   6
  -5   8 -15 459.577 474.907   6
  -5   8 -16-79.9106 481.479   6
  -5  -8 -16-197.834 529.320   2
   8  -5  16-328.388 356.763   1
   5   8  16-110.079 178.516   8
  -8   5 -16 164.234 236.123   7
   5   8  16 730.590 461.414   5
  -8   5 -16 75.3342 471.155   6
   5  -8  16-243.319 208.817   4
  -5  -8 -17 562.939 255.986   3
   8  -5  17 391.610 362.251   1
   5   8  17-309.807 462.150   5
  -8   5 -17 544.008 499.722   6
  -8   5 -17 346.601 236.576   7
  -5   8 -18-84.7964 223.342   7
   8  -5  18-249.476 258.396   4
   5  -8  18 458.698 466.656   1
  -8   5 -18-179.442 499.218   6
  -5  -8 -19-439.914 576.077   2
   8   5  19-490.240 323.882   5
   5  -8  19-527.516 514.460   1
   5   8  19 97.7808 208.715   8
  -5   8 -19-211.408 265.204   7
   5  -8  19-227.269 240.717   4
  -5  -8 -20-1060.79 649.185   2
  -5  -8 -20-177.875 265.569   3
   8   5  20-1029.44 353.108   5
   5   8  20-620.588 502.391   5
   5   8  20-311.245 236.710   8
  -5   8 -20-319.200 254.615   7
   5  -8  20-1414.91 579.909   1
   5  -8  20-387.267 294.857   4
  -5   8 -21 576.222 529.672   6
  -5  -8 -21 95.8639 595.354   2
  -5  -8 -21 25.4717 245.394   3
   5   8  21 81.1047 490.384   5
   8  -5  21 143.814 386.118   1
   5  -8  21-14.3929 250.395   4
   5   8  21 159.837 227.997   8
  -5   8 -21 91.7654 258.819   7
  -8   5 -21-13.7301 262.066   7
   5  -8  21 986.316 540.550   1
  -5   8 -22-716.272 566.428   6
   5   8  22-82.1489 218.330   8
  -5  -8 -22 366.747 609.677   2
  -8   5 -22-70.1492 250.476   7
  -5  -8 -22 167.194 245.605   3
   5   8  22 328.283 512.029   5
   8  -5  22 419.700 410.818   1
  -5   8 -22-26.9128 260.734   7
   5  -8  22 28.7466 574.133   1
   8  -5  22-77.9580 235.497   4
   5  -8  22-164.321 273.159   4
  -8   5 -22-63.6362 552.931   6
   8  -5  23 12.8874 237.032   4
  -5   8 -23 973.959 565.246   6
   5   8  23 108.654 240.530   8
  -5  -8 -23 249.692 631.377   2
   5  -8  23 272.267 598.990   1
  -8   5 -23 14.2275 272.425   7
  -5  -8 -23-117.025 257.461   3
   5   8  23-561.857 527.401   5
   8  -5  23 171.395 416.198   1
  -8   5 -23-107.938 548.782   6
  -5   8 -23-138.020 268.818   7
   5  -8  23 77.0044 265.949   4
  -5  -8 -24-357.350 644.971   2
  -5  -8 -24 52.8493 255.088   3
   5   8  24 639.102 526.225   5
   8  -5  24 809.523 453.317   1
   5   8  24-62.1629 242.238   8
  -5   8 -24-226.309 279.092   7
  -8   5 -24-129.641 557.970   6
   8  -5  24-128.268 230.493   4
  -5   8 -24-69.0083 559.478   6
  -8   5 -24-174.981 288.798   7
   5  -8  24-575.228 635.151   1
   5  -8  24-207.274 278.102   4
  -5   8 -25-749.375 608.270   6
  -5  -8 -25-469.950 717.302   2
   5   8  25 38.4739 256.232   8
  -5  -8 -25-80.9519 281.188   3
   5   8  25-64.8932 553.662   5
   5  -8  25-1185.27 718.975   1
   5  -8  25 98.4899 312.703   4
  -5   8 -25 72.3758 286.695   7
   5   8  26-198.843 269.259   8
  -5   8 -26-71.5379 560.445   6
  -5  -8 -26-133.649 673.304   2
   5   8  26 88.5877 551.381   5
   5  -8  26 396.493 706.533   1
  -5  -8 -26 249.126 268.517   3
  -5   8 -26 133.132 293.257   7
   5  -8  26-201.616 306.771   4
  -5   8 -27 751.437 586.980   6
  -5  -8 -27 385.047 297.177   3
  -5  -8 -27 738.833 690.559   2
   5   8  27 320.092 560.637   5
   5   8  27 741.356 289.420   8
  -5   8 -27-15.0869 302.648   7
   5  -8  27 654.686 771.693   1
   5  -8  27-86.5240 302.959   4
  -5   8 -28-123.680 595.632   6
   5  -8  28-1032.54 839.932   1
  -5   8 -28 445.340 309.770   7
   5  -8  28-439.813 324.569   4
  -5   8 -29 2542.99 731.258   6
   5  -8  29 2533.92 1098.59   1
  -5   8 -29 779.603 362.942   7
   5  -8  29 1093.54 386.325   4
  -6   8   0-24.8395 565.429   6
  -6   8  -1-158.202 237.541   8
  -6   8  -1-82.7766 470.186   6
   6  -8   1 112.488 246.388   1
   6  -8   2-28.5354 251.803   1
  -6   8  -2 102.827 245.513   8
  -6   8  -2-440.255 181.101   7
  -6   8  -2-295.703 418.124   6
   6  -8   3 43.6347 257.338   1
  -6   8  -3 298.170 241.176   8
  -6   8  -3 207.434 178.597   7
  -6   8  -3 467.970 408.987   6
   6  -8   4 162.498 257.948   1
  -6   8  -4 501.696 181.286   7
  -6   8  -4 99.2260 377.398   6
  -6   8  -5 169.764 189.998   7
   6  -8   5 426.197 272.334   1
  -6   8  -5 146.882 366.954   6
  -6   8  -6 799.875 382.147   6
   6  -8   6 550.657 297.446   1
  -6   8  -6 575.760 209.469   7
  -6   8  -7 127.689 178.138   7
  -6   8  -7 280.427 372.897   6
   6  -8   7 80.5913 292.015   1
   6  -8   8 184.448 323.534   1
  -6   8  -8 635.757 205.026   7
  -6   8  -8 419.274 392.693   6
  -6   8  -9 744.892 405.233   6
  -6   8  -9-86.0710 185.218   7
   6  -8   9-209.229 328.489   1
  -8   6  -9-248.345 347.967   6
   6  -8  10 165.128 192.116   4
  -8   6 -10-458.192 406.534   6
  -6   8 -10-659.880 454.006   6
   8  -6  10-116.567 313.780   1
  -8   6 -11-108.943 211.725   7
   8  -6  11-324.762 332.246   1
  -6   8 -11-1089.12 485.539   6
  -8   6 -11-799.516 427.917   6
   6  -8  11 10.6614 206.087   4
  -6   8 -11 185.922 220.858   7
   6  -8  11 93.3542 396.974   1
   8  -6  12 139.279 308.434   1
   6  -8  12-95.9449 355.986   1
  -8   6 -12 97.9798 212.204   7
   6  -8  12 109.460 184.970   4
  -6   8 -12-11.0939 204.063   7
  -8   6 -12-288.546 389.283   6
  -6   8 -12-127.048 426.579   6
   6  -8  13-157.816 372.191   1
   6   8  13 575.489 395.996   5
  -8   6 -13 123.878 227.770   7
   6  -8  13 146.689 198.447   4
  -6   8 -13 313.582 209.644   7
   8  -6  13 733.803 358.476   1
  -8   6 -13-141.478 421.980   6
  -6  -8 -13 39.3708 430.467   2
  -6   8 -13 186.557 452.675   6
   8  -6  14 219.122 330.525   1
   6   8  14 71.4612 392.668   5
  -6   8 -14 91.1035 216.101   7
   6  -8  14-104.778 197.818   4
  -6   8 -14 19.0776 451.191   6
  -8   6 -14 263.363 230.080   7
  -8   6 -14-165.813 444.773   6
  -6  -8 -14 101.811 453.830   2
   6   8  15-18.1842 416.390   5
   8  -6  15 279.521 348.240   1
   6  -8  15 396.596 229.289   4
  -8   6 -15 861.113 473.437   6
  -6  -8 -15 1095.21 508.292   2
  -6   8 -15-395.113 475.263   6
  -8   6 -15 113.509 221.267   7
   6   8  16-239.205 426.692   5
  -8   6 -16 254.498 493.136   6
  -6   8 -17-72.2423 220.496   7
   6  -8  17 178.727 424.914   1
  -6  -8 -18 477.800 546.169   2
   6   8  18 492.926 205.030   8
   8  -6  18 40.0457 379.544   1
   6  -8  18-69.0598 437.466   1
   6  -8  18 79.0188 230.458   4
  -8   6 -18 250.091 243.906   7
  -6   8 -18-196.837 254.689   7
  -6   8 -18-453.787 554.883   6
  -8   6 -19-119.303 249.284   7
  -6  -8 -19-1628.71 642.194   2
  -6  -8 -19-245.445 277.237   3
   6  -8  19-407.791 510.982   1
   8   6  19-79.8834 349.957   5
   6   8  19-711.586 471.282   5
  -6   8 -19-1446.56 597.188   6
   8  -6  19-286.006 411.777   1
   8  -6  19 155.150 255.748   4
   6   8  19-10.8444 206.968   8
  -6   8 -19-289.367 267.713   7
   6  -8  19-432.870 270.688   4
  -8   6 -19-679.864 562.680   6
  -6   8 -20 157.938 538.395   6
  -6  -8 -20-47.5960 588.773   2
  -8   6 -20 377.640 264.562   7
  -6  -8 -20 831.517 299.775   3
   6   8  20 734.433 459.471   5
   8  -6  20 379.381 394.817   1
  -6   8 -20 540.650 264.397   7
   8  -6  20 84.5493 253.406   4
   6  -8  20 545.134 486.219   1
   6  -8  20 291.677 256.203   4
   6   8  20 414.461 227.764   8
  -8   6 -20 947.745 560.155   6
  -6   8 -21 208.904 572.918   6
   8  -6  21-473.074 429.556   1
  -6  -8 -21 164.531 261.973   3
   6   8  21 228.526 456.297   5
  -6  -8 -21 146.030 601.204   2
   6   8  21 11.5399 211.502   8
  -8   6 -21-22.0651 551.143   6
   6  -8  21 461.461 504.509   1
  -8   6 -21 618.142 276.828   7
   8  -6  21 14.0622 245.754   4
  -6   8 -21 52.7075 248.387   7
   6  -8  21-128.764 247.615   4
  -6   8 -22 634.643 592.849   6
  -6  -8 -22 715.030 285.203   3
   8   6  22 306.238 339.322   5
   6   8  22 460.618 448.081   5
  -6   8 -22 377.665 268.762   7
   6  -8  22 263.560 272.913   4
   6  -8  22 690.739 506.864   1
   6   8  22 190.580 226.102   8
  -8   6 -22 308.222 271.719   7
   8  -6  22 14.0338 250.819   4
  -6  -8 -22 375.765 619.479   2
   8  -6  22-175.486 420.535   1
  -8   6 -22 443.196 572.581   6
  -6   8 -23-236.513 568.998   6
   6  -8  23 275.829 542.043   1
  -6  -8 -23-76.9166 653.246   2
  -6  -8 -23-308.143 265.274   3
  -8   6 -23-100.127 265.728   7
   8  -6  23 134.274 448.596   1
   6   8  23 307.526 236.476   8
  -6   8 -23 248.610 269.697   7
   8  -6  23-56.0406 246.644   4
   6   8  23-600.600 487.647   5
   6  -8  23-30.3123 279.961   4
  -8   6 -23-180.930 576.667   6
  -8   6 -24 1255.97 650.764   6
  -6   8 -24 1452.47 663.246   6
  -6  -8 -24 709.072 706.924   2
   6   8  24 190.660 255.462   8
   8  -6  24-97.7689 259.686   4
  -6  -8 -24 241.772 276.744   3
   6   8  24 628.929 509.668   5
   6  -8  24 1205.01 648.640   1
   8  -6  24 525.193 468.101   1
  -8   6 -24 511.599 308.607   7
  -6   8 -24 508.647 298.463   7
   6  -8  24 497.804 320.485   4
  -8   6 -25-568.526 616.595   6
  -6  -8 -25 134.509 683.354   2
  -8   6 -25 134.561 287.422   7
  -6  -8 -25 202.349 255.181   3
   6   8  25-438.753 511.184   5
  -6   8 -25-265.086 604.687   6
   8  -6  25 582.426 450.812   1
   6  -8  25-89.6981 594.955   1
  -6   8 -25-231.119 278.423   7
   8  -6  25-69.9731 259.246   4
   6  -8  25-96.1183 286.435   4
   6   8  25 170.999 242.975   8
  -6   8 -26 340.420 616.805   6
  -6  -8 -26 827.077 727.439   2
  -6  -8 -26 231.784 265.384   3
   6   8  26 450.086 511.840   5
   6   8  26 259.088 253.867   8
   6  -8  26 406.019 648.582   1
  -8   6 -26 107.171 287.390   7
  -6   8 -26-309.937 292.023   7
   6  -8  26-148.379 297.630   4
  -6   8 -27-419.565 616.877   6
   6  -8  27 32.6758 657.390   1
   6  -8  27-302.534 314.011   4
  -6   8 -27 331.208 307.251   7
  -6   8 -28-450.163 697.596   6
   6  -8  28-1335.82 767.061   1
  -6   8 -28-275.963 339.949   7
   6  -8  28-188.496 330.691   4
  -6   8 -29-813.287 644.160   6
   6  -8  29-683.336 739.153   1
  -6   8 -29 498.799 334.910   7
   6  -8  29-297.940 320.072   4
  -7   8  -3 1520.94 575.109   6
  -7   8  -4-120.826 474.979   6
   7  -8   4-15.6623 267.369   1
   7  -8   5 1069.13 361.636   1
  -7   8  -5 1620.57 273.096   7
  -7   8  -5 501.847 473.180   6
  -7   8  -6-172.879 198.138   7
   7  -8   6 228.265 311.839   1
  -7   8  -6-71.5266 409.770   6
   7  -8   7 1160.37 372.806   1
  -7   8  -7 1549.16 278.892   7
  -7   8  -7 1056.64 451.618   6
  -7   8  -8 1143.67 458.505   6
   7  -8   8 17.0707 351.504   1
  -7   8  -8-105.159 219.081   7
  -8   7  -8 1162.46 440.346   6
   8  -7   9 1317.95 355.729   1
  -8   7  -9 699.101 442.217   6
  -7   8  -9 88.8748 451.935   6
   8  -7  10-228.010 319.006   1
  -8   7 -10 283.821 214.392   7
  -8   7 -10 17.2886 398.112   6
  -7   8 -10 89.2671 406.535   6
   7  -8  11 718.373 359.874   1
   8  -7  11 499.517 328.518   1
  -8   7 -11 236.544 242.186   7
  -7   8 -11 573.421 232.456   7
  -8   7 -11 17.4509 403.248   6
  -7   8 -11 985.687 452.128   6
   8  -7  12 238.124 332.579   1
   7  -8  12 344.091 359.217   1
  -7   8 -12-130.888 219.309   7
  -8   7 -12 238.845 227.979   7
  -8   7 -12-269.499 435.219   6
  -7   8 -12 206.094 446.606   6
   7  -8  13 11.8533 197.190   4
  -8   7 -13-538.533 454.621   6
  -7   8 -13 289.150 469.988   6
  -7   8 -15-61.0262 230.302   7
   7  -8  15-20.7783 398.412   1
   8  -7  16 220.101 377.843   1
  -8   7 -16 77.5623 231.050   7
  -7   8 -16 99.1353 228.871   7
   7  -8  16 766.159 412.707   1
   7  -8  16 129.156 230.494   4
  -7   8 -16 226.738 500.763   6
  -7   8 -17 440.034 561.123   6
   8  -7  17 185.739 435.513   1
   7  -8  17-637.757 261.834   4
   8  -7  17-198.925 265.480   4
  -8   7 -17-170.291 265.522   7
  -7   8 -17 75.5919 253.269   7
   7  -8  17 305.188 462.014   1
  -8   7 -17 251.255 542.037   6
   7   8  18 138.557 416.679   5
   8  -7  18-189.435 419.872   1
   7  -8  18 259.248 231.737   4
  -7   8 -18-38.1076 241.934   7
   8  -7  18 14.4215 257.080   4
  -8   7 -18-345.499 263.124   7
  -8   7 -18-258.181 529.710   6
   7  -8  18 491.526 431.209   1
  -7   8 -18-715.064 557.061   6
   7   8  19 1039.92 424.842   5
   7  -8  19 650.649 482.256   1
   8  -7  19 321.707 266.235   4
  -8   7 -19 944.689 278.109   7
  -7   8 -19 970.550 280.719   7
   8  -7  19-107.363 417.042   1
   7  -8  19 349.916 263.602   4
  -7  -8 -19 1126.47 526.278   2
  -8   7 -19 372.947 543.358   6
  -7   8 -19 1252.35 571.996   6
  -7  -8 -20-626.111 531.576   2
   8   7  20 160.520 348.415   5
   7   8  20-104.046 418.264   5
   8  -7  20-251.248 266.301   4
   8  -7  20 219.043 432.103   1
  -8   7 -20-41.1475 267.170   7
  -7   8 -20 118.759 250.326   7
   7  -8  20 114.896 246.001   4
   7  -8  20-405.258 458.291   1
  -8   7 -20-466.117 565.118   6
  -7   8 -20 139.458 582.324   6
  -7   8 -21 1669.89 623.686   6
   8  -7  21 581.487 301.400   4
  -7  -8 -21 969.278 318.978   3
   8   7  21 981.907 384.837   5
   7   8  21 1134.05 440.735   5
  -7  -8 -21 1590.41 577.859   2
   7  -8  21 807.853 498.470   1
  -7   8 -21 982.796 298.720   7
   8  -7  21 581.096 458.729   1
  -8   7 -21 1360.81 312.796   7
   7  -8  21 351.819 291.796   4
  -8   7 -21 1849.25 603.694   6
   8  -7  22 91.2229 444.212   1
   8  -7  22-90.0658 261.812   4
  -7  -8 -22 251.514 294.817   3
   8   7  22-413.358 372.768   5
   7   8  22 525.705 435.624   5
  -8   7 -22 363.971 277.239   7
  -7   8 -22-384.814 269.111   7
   7  -8  22 343.745 266.469   4
  -7   8 -22-169.051 606.003   6
  -7  -8 -22 498.507 576.880   2
  -8   7 -22-421.226 603.407   6
   7  -8  22 176.122 478.566   1
  -8   7 -23 1280.16 647.833   6
   7  -8  23 1967.41 606.126   1
   7   8  23 1105.20 275.280   8
   8   7  23 1510.79 414.975   5
  -8  -7 -23 1031.20 318.468   3
  -7  -8 -23 924.621 319.676   3
  -8   7 -23 656.430 325.533   7
   7   8  23 442.974 452.940   5
   8  -7  23 967.868 506.323   1
  -7   8 -23 729.833 325.107   7
   8  -7  23 483.854 310.142   4
   7  -8  23 718.142 324.205   4
  -7  -8 -23 2111.12 648.253   2
  -8   7 -24-679.645 625.019   6
  -7   8 -24 824.985 625.915   6
   7   8  24-85.4094 234.789   8
  -7  -8 -24-125.137 270.306   3
   7   8  24-339.708 444.905   5
  -7  -8 -24-353.566 604.574   2
   8  -7  24 433.898 467.787   1
   7  -8  24-434.229 289.509   4
  -7   8 -24 272.245 288.112   7
   8  -7  24-196.993 284.476   4
  -8   7 -24-189.223 284.777   7
   7  -8  24 79.9667 520.597   1
  -8   7 -25 470.377 623.770   6
   7  -8  25 27.4942 569.779   1
  -7   8 -25-25.0683 631.618   6
  -7  -8 -25-123.046 270.412   3
   7   8  25-18.0818 446.843   5
   7   8  25 291.406 250.966   8
  -7   8 -25 277.983 291.845   7
  -8   7 -25 29.7141 293.423   7
   8  -7  25 517.000 477.232   1
   8  -7  25 121.420 262.912   4
   7  -8  25 190.927 290.013   4
  -7  -8 -25 337.686 633.994   2
   7  -8  26 539.227 564.731   1
  -8   7 -26-100.971 639.759   6
  -7   8 -26 276.613 639.743   6
   8  -7  26 654.011 515.155   1
  -7   8 -26 44.7806 308.541   7
  -8   7 -26-136.532 295.850   7
   8  -7  26-167.739 292.764   4
   7  -8  26-194.148 285.728   4
   7  -8  27 234.650 613.856   1
  -8   7 -27-25.1924 674.859   6
  -8   7 -27-216.847 319.795   7
  -7   8 -27 137.026 313.624   7
   7  -8  27 395.984 309.543   4
  -7   8 -28-15.5136 327.585   7
   7  -8  28-588.378 364.107   4
  -7   8 -29 15.7879 318.014   7
  -8   8  -7 58.1849 453.822   6
   8  -8   7 17.3670 304.786   1
   8  -8   8 2162.49 419.232   1
  -8   8  -8 2216.91 334.299   7
  -8   8  -9-55.2829 452.990   6
  -8   8 -10 1202.69 472.453   6
   8  -8  13-412.701 375.794   1
  -8   8 -13 155.196 237.527   7
   8  -8  14-220.444 374.104   1
  -8   8 -14 182.818 232.424   7
  -8   8 -14 499.395 484.793   6
  -8   8 -15 26.1596 233.465   7
   8  -8  15-413.338 405.799   1
   8  -8  15-177.079 231.254   4
  -8   8 -15-20.5931 508.782   6
  -8   8 -16-587.384 546.445   6
   8  -8  16-463.795 444.159   1
  -8   8 -16 277.917 259.102   7
   8  -8  16-55.8964 254.424   4
  -8   8 -17 80.4336 250.331   7
   8  -8  17 57.4295 254.576   4
   8  -8  17 215.091 403.667   1
  -8   8 -17 302.237 505.702   6
   8  -8  18 14.7403 254.022   4
   8  -8  18-526.813 432.829   1
  -8   8 -18 441.658 535.145   6
  -8   8 -18 870.271 272.456   7
   8  -8  19 246.487 433.178   1
  -8   8 -19-231.002 259.370   7
   8  -8  19-256.382 269.464   4
  -8   8 -19 718.170 567.598   6
   8   8  20 1627.47 425.364   5
   8  -8  20 696.028 461.606   1
  -8   8 -20 1077.26 313.154   7
   8  -8  20 492.552 293.982   4
  -8   8 -20 1390.94 616.306   6
   8   8  21 157.724 379.136   5
  -8   8 -21 112.364 273.566   7
   8  -8  21-23.7014 477.991   1
  -8   8 -21-644.837 601.597   6
   8  -8  21 31.3801 282.685   4
  -8   8 -22-74.2935 662.918   6
   8   8  22 1166.42 427.327   5
  -8   8 -22 972.130 323.531   7
   8  -8  22 1671.22 555.899   1
   8  -8  22 1210.83 334.091   4
  -8   8 -23-799.778 645.839   6
   8   8  23 506.344 384.192   5
  -8  -8 -23 187.401 307.280   3
   8  -8  23-371.515 481.764   1
  -8   8 -23-218.368 281.704   7
   8  -8  23 64.3946 293.079   4
  -8   8 -24 102.315 670.526   6
  -8  -8 -24 384.645 303.211   3
   8   8  24 559.839 402.689   5
   8  -8  24 633.478 513.408   1
  -8   8 -24-133.531 298.006   7
   8  -8  24 227.348 290.006   4
   8  -8  25-181.610 500.950   1
  -8   8 -25-784.121 686.850   6
  -8   8 -25-317.509 296.746   7
   8  -8  25 131.233 285.055   4
   8  -8  26-246.719 298.030   4
   8  -8  26-637.895 563.231   1
  -8   8 -26-184.878 301.197   7
   8  -8  27-383.022 340.898   4
  -8   8 -27-1547.88 739.501   6
  -8   8 -27-455.417 332.692   7
   8  -8  27-926.512 626.903   1
  -8   8 -28 1074.79 683.393   6
  -8   8 -28 191.953 318.058   7
   8  -8  28 139.757 561.743   1
   8  -8  28-167.081 318.786   4
   0  -9   0-43.9669 353.822   2
   0   9   0 217.386 241.350   5
   0   9   0-82.2764 101.495   8
   0   9   0 32.0558 111.595   7
   0   9   0-228.423 270.093   6
   0  -9   0-168.769 125.182   4
   0  -9   1 934.662 381.982   2
   0   9   1 460.713 273.673   6
   0   9  -1 350.876 280.999   6
   0   9  -1 243.645 249.375   5
   0   9   1 504.048 265.090   5
   0  -9  -1 132.451 365.116   2
   0  -9   1 474.714 144.621   4
   0   9   1 206.757 114.214   8
   0   9   1 136.161 117.855   7
   0   9  -1 471.145 113.201   8
   0   9  -1 427.564 131.321   7
   0  -9  -1 118.174 127.022   4
   0   9   2 219.825 255.574   6
   0   9  -2 378.142 292.877   6
   0  -9  -2-298.538 137.925   3
   0   9  -2 103.513 241.781   5
   0   9   2 174.543 255.729   5
   0  -9   2 269.944 341.297   2
   0  -9  -2 221.388 355.977   2
   0   9   2 42.0659 112.914   7
   0   9  -2 21.7173 98.1299   8
   0   9   2 81.9256 111.832   8
   0   9  -2 105.141 125.536   7
   0  -9  -2-26.5340 123.944   4
   0  -9   2-31.9025 131.738   4
   0   9   3 125.988 249.577   6
   0   9  -3-13.5484 282.276   6
   0   9  -3 142.189 248.838   5
   0   9   3 458.919 273.084   5
   0  -9   3 223.902 294.081   2
   0  -9  -3-118.550 139.573   3
   0  -9  -3 138.889 114.931   4
   0   9   3-52.0518 109.934   8
   0  -9   3-116.121 130.962   4
   0   9   3 35.1250 117.634   7
   0   9  -3-25.4371 93.1620   8
   0   9  -3-36.9116 137.143   7
   0  -9  -3-208.776 358.762   2
   0   9  -4-140.561 301.978   6
   0  -9  -4 8.08253 138.030   3
   0   9  -4 131.292 238.243   5
   0   9   4 113.458 266.213   5
   0  -9   4-216.812 231.564   2
   0  -9  -4-346.994 359.281   2
   0   9   4 148.690 122.211   8
   0   9   4-34.2666 117.045   7
   0   9  -4 178.521 136.499   7
   0  -9   4 43.0556 139.717   4
   0   9  -5 642.739 316.239   6
   0  -9  -5 432.035 160.102   3
   0   9   5 144.451 277.311   5
   0   9  -5 326.280 266.385   5
   0  -9  -5 371.190 376.949   2
   0   9   5 612.610 136.716   8
   0   9  -5 309.519 152.966   7
   0  -9   5 214.201 150.481   4
   0   9   6 124.412 127.633   8
   0   9  -6 166.220 311.632   6
   0  -9  -6-162.797 153.687   3
   0   9   6-477.885 301.889   5
   0  -9  -6 79.1182 365.599   2
   0   9  -6 94.7391 150.921   7
   0  -9  -6-107.209 103.075   4
   0  -9   6 37.1663 150.700   4
   0   9  -7 1217.80 352.406   6
   0   9   7 993.195 174.921   8
   0  -9  -7 806.430 200.117   3
   0   9   7 666.676 325.827   5
   0   9  -7 744.679 189.694   7
   0  -9  -7 908.477 412.034   2
   0  -9   7 892.399 204.679   4
   0   9  -8 144.602 320.130   6
   0  -9   8 148.396 164.028   4
   0  -9  -8-100.410 162.013   3
   0   9   8-384.025 323.965   5
   0   9   8 55.6203 131.061   8
   0  -9  -8 66.8446 379.703   2
   0   9  -8 158.096 159.851   7
   0  -9   9 1064.83 212.446   4
   0   9  -9 496.735 342.197   6
   0  -9  -9 696.840 192.483   3
   0   9   9 138.088 335.813   5
   0   9   9 792.326 177.138   8
   0   9  -9 642.580 189.485   7
   0  -9  -9 378.856 425.836   2
   0  -9  10 31.5488 168.754   4
   0   9 -10-51.1388 344.658   6
   0  -9 -10-19.4436 169.644   3
   0   9  10 320.977 346.636   5
   0   9  10 34.4411 151.000   8
   0  -9 -10 35.5823 419.668   2
   0   9 -10 206.635 174.976   7
   0  -9  11 32.3406 175.815   4
   0   9  11 88.8764 151.470   8
   0   9 -11-245.399 363.974   6
   0  -9 -11 30.1521 180.549   3
   0   9  11-33.3854 344.649   5
   0  -9 -11 36.7857 420.657   2
   0   9 -11 10.0482 172.964   7
   0  -9  12 321.491 185.050   4
   0   9 -12-394.758 370.038   6
   0  -9 -12-166.394 184.232   3
   0   9  12 51.7727 367.563   5
   0   9 -12-51.0898 179.599   7
   0   9  12 9.33739 158.036   8
   0  -9  13 181.109 188.631   4
   0   9 -13-184.162 392.672   6
   0  -9 -13-97.0219 231.589   3
   0  -9  14-242.245 184.269   4
   0   9 -14-339.932 410.583   6
   0  -9 -14-614.772 245.592   3
   0  -9 -15 267.274 221.591   3
   0  -9  15 366.700 204.792   4
   0   9 -15 289.018 405.312   6
   0   9  15 484.097 445.569   5
   0   9  15 399.544 201.519   8
   0   9 -15 411.471 195.455   7
   0  -9  16 60.0306 187.744   4
   0   9 -16-512.938 420.660   6
   0   9  16-200.882 438.797   5
   0  -9 -16-12.0965 221.228   3
   0   9  18-145.477 208.007   8
   0   9 -18-10.7461 183.863   7
   0  -9 -19 343.309 252.059   3
   0   9  19 759.641 233.611   8
   0   9  19 1148.68 514.219   5
   0   9 -19 324.238 204.995   7
   0   9  20-96.4367 234.061   8
   0  -9 -20-488.392 296.695   3
   0   9  20-1004.55 553.931   5
   0  -9 -21 521.236 285.381   3
   0   9  21 749.772 525.479   5
   0   9  21 327.894 237.724   8
   0   9  22-87.1825 240.647   8
   0   9  22 384.523 543.036   5
   0  -9 -22-265.036 272.964   3
   0   9  23 568.575 551.182   5
   0   9  23 293.483 247.509   8
   0  -9 -23-97.4231 294.787   3
   0   9  24 13.0541 252.456   8
   0   9  24-201.749 560.987   5
   0  -9 -24 322.829 320.670   3
   0  -9 -25-71.3309 324.258   3
   0   9  25 25.8048 597.597   5
   0   9  25-306.633 266.958   8
   0  -9 -26-130.289 343.668   3
   0   9  26 149.565 264.934   8
   0   9  27-290.475 278.037   8
   0   9  27-133.210 595.259   5
   0  -9 -27-97.1355 356.868   3
   0   9  28-112.383 269.626   8
   0   9  28 428.093 617.162   5
   0  -9 -28-322.512 370.403   3
   0  -9 -29 104.641 360.100   3
   0   9  29-215.800 602.042   5
   0   9  29-341.705 288.090   8
   0   9  30 100.766 290.641   8
   0   9  30-783.107 627.226   5
   0  -9 -30-666.915 399.844   3
   0   9  31 171.157 291.438   8
   0  -9 -31 530.550 408.740   3
   0   9  32 172.189 288.398   8
   0  -9 -32 157.024 396.450   3
   0  -9 -32-150.404 1273.61   2
   0   9  33 331.407 277.830   8
   0  -9 -33-519.681 1359.82   2
  -1   9   0 663.691 309.570   6
  -1  -9   0 995.500 392.108   2
  -1  -9   0 397.371 152.639   4
   1   9   0 385.262 314.808   6
  -1   9   0 783.894 145.904   8
   1   9   0 466.509 299.342   5
   1  -9   0 1048.44 175.085   3
   1  -9   0 813.633 367.353   2
  -1   9   0 709.179 261.575   5
  -1   9   0 954.532 170.845   7
   1   9   0 966.136 146.662   8
   1  -9   0 754.481 161.819   4
   1   9   0 876.302 171.459   7
  -1   9   1-384.447 281.663   6
  -1   9  -1-401.759 295.241   6
  -1  -9   1 84.5466 122.861   4
  -1  -9  -1 77.0420 114.684   4
   1  -9  -1 180.253 120.598   4
  -1  -9  -1-311.333 378.916   2
   1   9  -1 389.527 308.344   6
   1   9   1-241.810 289.696   6
   1  -9   1 199.905 136.910   3
   1   9  -1 226.856 280.487   5
   1   9   1 317.751 283.974   5
   1  -9  -1 418.186 149.534   3
  -1   9  -1 82.2666 102.828   8
  -1   9  -1 362.931 235.717   5
  -1   9   1 453.016 248.338   5
   1   9  -1 211.295 103.794   8
   1  -9   1 374.924 347.397   2
  -1   9   1 5.91685 109.036   8
   1  -9  -1 147.762 342.106   2
   1   9   1 107.495 127.556   7
   1   9   1 226.598 114.505   8
  -1   9   1 227.928 127.798   7
  -1   9  -1 208.390 128.923   7
   1  -9   1 227.919 137.117   4
   1   9  -1 239.628 145.851   7
  -1  -9   1 255.117 330.825   2
  -1   9   2 167.396 264.063   6
  -1   9  -2 534.787 308.103   6
  -1  -9   2 295.723 136.237   4
  -1  -9  -2 224.944 121.945   4
   1   9  -2 278.623 297.909   6
   1  -9   2 321.978 131.276   3
  -1  -9  -2 646.636 407.774   2
   1  -9  -2 161.853 238.533   1
   1   9  -2 102.530 293.603   5
   1   9   2-90.4390 285.581   5
   1  -9  -2 323.358 148.547   3
   1  -9   2 101.919 328.685   2
  -1   9  -2-130.718 224.868   5
  -1   9   2 90.2283 250.013   5
   1   9   2 220.446 113.044   8
  -1   9  -2 57.6416 96.2011   8
  -1   9   2 268.039 115.772   8
   1  -9  -2 255.038 120.329   4
   1  -9  -2 96.1771 357.484   2
   1  -9   2 168.937 129.698   4
  -1   9  -2 263.020 131.326   7
  -1   9   2 342.837 139.294   7
   1   9   2 140.468 114.149   7
   1   9  -2 363.171 159.528   7
  -1  -9   2-168.787 283.895   2
  -1   9   3-415.977 261.539   6
  -1   9  -3 565.449 308.192   6
  -1  -9   3 24.8428 126.318   4
   1  -9  -3 206.815 234.569   1
   1   9  -3-448.598 302.648   6
   1  -9   3-92.7745 117.794   3
   1  -9   3 110.592 313.791   2
   1   9  -3 319.096 306.059   5
   1   9   3-92.3845 280.793   5
  -1  -9  -3 281.939 387.709   2
  -1   9  -3 168.427 224.837   5
   1  -9  -3-101.451 142.073   3
  -1   9   3 35.3769 260.462   5
  -1   9  -3-85.1828 92.4261   8
   1   9   3-60.3284 113.258   8
  -1   9   3 164.434 118.143   8
   1   9  -3 93.4900 156.331   7
  -1   9   3-51.7708 128.772   7
   1  -9  -3-14.1429 350.160   2
  -1   9  -3 116.776 131.294   7
   1  -9  -3 6.08196 110.887   4
   1   9   3 67.9185 107.065   7
   1  -9   3-24.0404 139.283   4
  -1   9   4-70.1034 251.103   6
  -1  -9   4-42.7700 133.207   4
  -1   9  -4-237.155 300.945   6
   1  -9   4 11.1527 293.427   2
   1  -9  -4 58.2768 106.889   4
   1  -9   4 59.0456 121.359   3
   1   9  -4-91.6757 295.282   6
   1   9  -4 184.398 324.709   5
   1   9   4 242.972 290.279   5
   1  -9  -4-496.496 367.272   2
  -1   9  -4 321.438 218.431   5
   1  -9  -4 16.2093 140.650   3
  -1  -9  -4-182.323 384.001   2
  -1   9   4 271.676 273.034   5
  -1   9   4 41.5839 116.310   8
  -1   9  -4-128.225 91.7950   8
  -1   9   4-50.0839 127.626   7
  -1   9  -4 75.0936 134.485   7
   1   9  -4-140.013 164.588   7
   1  -9   4-125.989 139.722   4
   1  -9  -4-131.311 212.811   1
   1   9   4-13.8361 117.102   8
  -1  -9   5 123.365 135.420   4
  -1   9  -5 173.249 313.837   6
   1   9  -5-375.191 322.809   6
   1   9  -5-299.659 369.398   5
  -1  -9  -5 730.049 391.338   2
   1   9   5-152.409 290.759   5
   1  -9  -5 185.106 149.961   3
   1  -9  -5 357.705 207.107   1
  -1   9   5 259.760 282.714   5
  -1   9   5 316.291 129.969   8
   1   9   5 85.2193 120.092   8
  -1   9   5 110.921 117.470   7
  -1   9  -5 125.674 83.9421   8
  -1   9  -5 170.703 135.648   7
   1  -9  -5 196.834 364.632   2
   1   9  -5 508.520 192.718   7
   1  -9   5 227.438 144.117   4
   1  -9   5-36.3254 239.828   2
  -1  -9   6 488.970 157.124   4
  -1   9  -6 684.109 332.167   6
  -1  -9  -6 248.576 169.300   3
   1   9  -6 96.0269 316.492   6
   1   9  -6 393.267 444.337   5
   1   9   6 300.829 309.669   5
   1  -9  -6 585.611 178.543   3
  -1   9   6 122.223 290.519   5
   1   9   6 389.380 139.909   8
  -1   9   6 493.634 150.464   8
  -1  -9  -6 316.478 391.611   2
  -1   9  -6 352.368 145.563   7
   1   9  -6 695.441 207.898   7
   1  -9   6 696.288 163.158   4
  -1  -9   7 64.9736 136.748   4
  -1   9  -7-614.223 334.374   6
  -1  -9  -7 91.0959 158.336   3
  -1   9   7 70.9572 135.924   8
   1   9   7 133.133 308.198   5
   1  -9  -7-9.07860 161.082   3
  -1   9   7 141.125 290.365   5
   1   9   7-37.8647 126.635   8
  -1   9  -7-41.4690 139.173   7
  -1  -9  -7 252.912 387.051   2
   1   9  -7-56.7326 187.062   7
   1  -9   7-152.342 154.411   4
   1   9   8 606.585 162.130   8
  -1  -9   8 455.773 173.020   4
  -1   9  -8 730.203 350.199   6
  -1   9  -8 815.726 175.691   7
  -1  -9  -8 527.745 191.291   3
   1   9  -8 921.614 222.408   7
   1   9   8 491.433 330.862   5
   1  -9  -8 396.444 186.214   3
  -1   9   8 456.879 325.860   5
  -1   9   8 475.466 163.099   8
  -1  -9  -8 136.619 384.286   2
   1  -9   8 790.738 191.674   4
  -1  -9   9-38.7683 152.472   4
  -1   9  -9 196.236 342.640   6
  -1  -9  -9-85.1424 172.008   3
   1  -9   9 10.2763 175.734   4
   1  -9  -9-127.521 172.452   3
   1   9   9 127.251 325.396   5
  -1   9   9-433.222 330.974   5
  -1  -9  -9 139.989 420.282   2
   1   9   9 24.1881 136.973   8
  -1   9   9 103.874 145.797   8
  -1   9  -9 284.226 161.022   7
   1   9  -9 173.562 192.498   7
   1   9  10-240.206 146.065   8
  -1   9 -10 134.640 347.879   6
  -1   9  10 62.8562 153.798   8
  -1  -9 -10 19.4035 172.685   3
   1  -9 -10 183.874 186.257   3
   1   9  10 279.455 352.007   5
  -1  -9 -10-71.3485 420.708   2
  -1  -9  10-9.90486 153.623   4
  -1   9  10-112.975 335.504   5
  -1   9 -10-128.063 168.983   7
   1   9 -10-80.6634 192.364   7
   1  -9  10 63.8270 174.441   4
  -1   9 -11 329.519 356.444   6
  -1  -9 -11-59.8965 177.991   3
   1  -9  11 255.275 193.576   4
   1   9  11-254.622 364.280   5
   1  -9 -11-63.8642 190.068   3
   1   9  11 34.7139 142.358   8
  -1   9  11 201.030 352.575   5
  -1   9  11-28.4369 168.494   8
  -1  -9 -11 18.2569 422.216   2
  -1   9 -11-9.43033 165.279   7
   1   9 -11 205.226 193.669   7
  -1   9 -12 463.119 392.953   6
  -1  -9 -12 225.183 198.446   3
   1   9  12 157.782 389.886   5
   1  -9  12 148.867 189.388   4
  -1   9  12 226.898 376.088   5
   1  -9 -12 310.829 215.429   3
  -1   9  12 382.993 180.411   8
  -1   9 -12 417.253 185.905   7
  -1   9  13-172.840 204.340   8
   1  -9 -13-185.292 224.764   3
  -1   9 -13-531.756 432.292   6
   1  -9  13-176.876 220.627   4
  -1   9 -14 714.361 418.618   6
  -1  -9 -14 21.6465 228.180   3
   1   9  14-584.458 496.441   5
   1   9  14-38.3906 216.943   8
  -1   9  14 187.978 417.767   5
   1  -9 -14 290.295 218.212   3
   1  -9  14 719.487 219.653   4
  -1   9 -15 345.679 417.767   6
  -1  -9 -15 178.506 210.206   3
   1   9  15 310.129 434.946   5
  -1   9  15 408.144 421.479   5
   1   9  15 9.85678 176.546   8
   1  -9 -15 189.389 235.578   3
  -1  -9 -15-853.698 520.620   2
  -1   9 -15-41.7848 189.648   7
   1  -9  15-137.578 207.334   4
   1  -9  16 12.8739 221.656   4
  -1   9 -16-275.203 422.310   6
  -1  -9 -16 322.546 218.876   3
   1   9  16 981.392 474.493   5
   1  -9 -16-237.633 235.762   3
  -1   9  16-221.971 438.086   5
  -1  -9 -16 62.8556 510.854   2
  -1   9  18 179.526 218.778   8
   1   9  18 95.9584 195.674   8
  -1   9 -18 465.586 229.196   7
  -9   1 -18-221.361 419.383   6
   1  -9  19 13.6819 220.809   4
  -1   9 -19-20.9276 440.015   6
  -1  -9 -19 89.8198 233.069   3
  -1   9  19-132.932 479.024   5
   1   9  19 218.704 213.430   8
   1  -9 -19 148.864 262.625   3
   1   9  19-331.228 493.153   5
  -1   9  19 49.3439 227.379   8
  -1   9 -19 214.327 207.052   7
  -1  -9 -19-416.454 583.750   2
   1  -9  20 346.731 257.331   4
  -1   9 -20 1468.44 518.732   6
   1   9  20 1767.27 613.848   5
  -1   9  20 1074.36 551.631   5
  -1   9  20 304.870 262.145   8
   1  -9 -20 311.225 306.339   3
   1   9  20 1174.16 262.126   8
  -1   9 -20 401.519 245.778   7
  -1  -9 -20 414.185 285.952   3
  -1   9 -21-128.599 222.051   7
   1  -9  21 141.446 240.214   4
  -1   9 -21-564.785 472.039   6
  -1  -9 -21 24.8855 634.528   2
  -1   9  21 13.0666 241.018   8
   1  -9 -21 163.218 283.231   3
  -1  -9 -21-13.9274 252.051   3
   1   9  21-373.775 537.258   5
   1   9  21 11.6829 217.037   8
  -1   9  21 772.011 522.383   5
   1  -9  22 399.523 245.381   4
  -1   9 -22 249.385 231.474   7
  -1   9  22-80.5325 243.204   8
  -1  -9 -22 25.8532 638.947   2
  -1   9  22 168.078 514.090   5
  -1  -9 -22 377.845 272.793   3
   1  -9 -22 119.174 296.749   3
   1   9  22-71.8301 540.838   5
   1   9  22 382.791 240.823   8
   1  -9  23-201.635 240.940   4
  -1   9  23-468.133 263.028   8
   1   9  23-123.219 583.329   5
   1   9  23 61.2108 229.783   8
  -1  -9 -23-228.113 283.006   3
  -1  -9 -23 107.530 684.455   2
   1  -9 -23 106.652 309.036   3
  -1   9  23 318.011 524.423   5
  -1   9 -23 204.924 235.491   7
   1   9  24 654.823 588.779   5
   1   9  24-300.417 250.007   8
  -1   9  24 74.8427 548.262   5
  -1  -9 -24 15.7732 285.461   3
  -1   9  24-140.945 262.585   8
   1  -9 -24 147.687 319.835   3
  -1  -9 -24-1147.00 752.983   2
  -1   9 -24 513.533 253.314   7
   1   9  25-591.901 630.521   5
  -1  -9 -25-1223.43 779.258   2
  -1   9  25 100.545 543.957   5
  -1   9  25-216.044 284.825   8
  -1  -9 -25 198.374 313.989   3
   1  -9 -25-114.728 351.683   3
   1   9  25 326.915 253.575   8
  -1   9 -25-61.9546 241.645   7
   1   9  26-210.973 597.148   5
   1   9  26 51.3258 245.983   8
  -1   9  26 102.769 290.129   8
  -1   9  26 1144.28 575.261   5
  -1  -9 -26-86.1974 315.717   3
  -1  -9 -26 485.395 771.403   2
   1  -9 -26 654.294 369.788   3
   1   9  27-750.928 598.281   5
   1   9  27-39.2436 257.104   8
  -1  -9 -27 288.961 326.872   3
  -1   9  27 44.7615 288.002   8
  -1   9  27 485.517 576.736   5
  -1  -9 -27-758.130 840.430   2
   1  -9 -27-407.360 360.290   3
  -1  -9 -28-1182.69 869.283   2
  -1  -9 -28 18.9847 331.259   3
   1   9  28 386.249 271.762   8
   1   9  28-54.7056 612.090   5
  -1   9  28 75.6448 289.933   8
   1  -9 -28 125.561 363.341   3
  -1  -9 -29 580.070 905.060   2
   1   9  29-216.678 264.421   8
   1   9  29-332.237 660.392   5
  -1  -9 -29-238.620 386.707   3
  -1   9  29-285.247 306.462   8
   1  -9 -29-510.316 391.416   3
   1   9  30-13.7547 259.058   8
   1   9  30-308.691 619.784   5
  -1  -9 -30-476.233 396.826   3
  -1   9  30-302.446 294.592   8
  -1   9  31 455.371 298.531   8
   1   9  31 27.9014 273.216   8
   1   9  31 56.1861 621.162   5
  -1  -9 -31 548.168 969.326   2
  -1  -9 -31 604.755 409.006   3
  -1  -9 -32 423.339 409.241   3
  -1  -9 -32-863.683 987.271   2
   1   9  32-28.2685 286.125   8
   1   9  32 28.1628 633.798   5
  -1   9  32-288.430 314.544   8
  -2   9   0 213.237 141.709   7
   2   9   0 29.0169 306.535   5
   2  -9   0 115.871 133.846   3
  -2   9   0 105.462 243.689   5
   2  -9   0 240.102 130.760   4
  -2   9   0-5.72264 104.309   8
   2  -9   0 167.980 247.331   1
   2   9   0 371.308 291.498   7
   2  -9   0-74.4150 336.694   2
  -2   9   0-160.181 290.314   6
   2  -9   1 2069.02 254.230   3
   2  -9  -1 1795.93 255.511   3
   2   9  -1 975.583 386.686   5
   2   9   1 1442.08 376.655   5
   2  -9   1 1677.90 343.036   1
  -2   9  -1 1904.49 330.504   5
  -2   9  -1 1766.57 227.996   8
  -2   9   1 1740.13 338.648   5
   2   9   1 1842.65 235.288   8
   2  -9  -1 1760.44 329.519   1
  -2   9   1 2063.98 259.226   7
   2  -9  -1 1775.35 249.807   4
  -2   9  -1 1962.31 254.022   7
   2  -9   1 1677.70 248.516   4
  -2   9   1 1732.74 235.359   8
  -2   9   1 1866.74 368.943   6
   2  -9   1 1054.76 386.067   2
  -2  -9  -1 1097.26 417.342   2
  -2   9  -1 1283.08 361.330   6
  -2  -9  -2 1008.90 396.944   2
  -2   9   2 424.549 127.884   8
   2   9   2 401.888 120.184   8
  -2   9  -2 311.681 110.519   8
   2   9  -2-229.640 328.659   5
   2   9   2 622.158 315.001   5
  -2   9   2 272.953 273.417   6
   2  -9   2 330.200 135.135   3
  -2   9  -2 57.3561 231.279   5
   2  -9  -2 269.548 151.330   3
  -2   9   2 116.990 263.484   5
   2  -9  -2 202.709 124.539   4
  -2   9   2 346.368 145.755   7
  -2   9  -2 192.096 143.049   7
   2  -9   2 195.487 139.608   4
   2  -9  -2 312.238 239.841   1
   2   9   2 166.504 189.833   7
   2   9  -2 303.365 420.716   7
   2  -9   2 140.024 325.077   2
  -2   9  -2 13.4287 304.066   6
   2  -9   2 172.078 274.526   1
  -2   9  -3 248.964 317.286   6
   2  -9  -3 223.571 156.551   3
  -2  -9  -3 217.539 405.179   2
  -2   9  -3 478.256 111.753   8
   2  -9   3 394.969 314.887   2
   2  -9  -3 262.033 222.934   1
   2   9   3 14.6271 309.236   5
   2  -9   3 472.211 140.657   3
   2   9   3 515.500 132.746   8
  -2   9  -3 533.893 239.073   5
  -2   9   3 245.310 271.195   5
  -2   9  -3 412.677 145.335   7
  -2   9   3 486.332 138.273   8
  -2   9   3 553.329 152.464   7
   2  -9   3 357.534 148.738   4
   2  -9  -3 508.298 137.774   4
   2   9   3 785.351 187.546   7
  -2   9   3 227.085 274.222   6
   2  -9   4 437.404 150.483   4
  -2  -9  -4 1071.09 423.957   2
   2   9   4 441.535 132.292   8
   2  -9  -4 216.508 158.521   3
   2   9   4-237.808 322.444   5
   2  -9   4 218.888 314.073   2
  -2   9   4 523.851 140.583   7
  -2   9   4 670.764 147.756   8
  -2   9  -4 911.195 344.392   6
  -2   9  -4 332.955 109.372   8
  -2   9  -4 498.434 155.119   7
   2  -9  -4 552.246 141.599   4
   2  -9  -4 599.020 221.118   1
  -2   9   4 1168.89 303.382   5
  -2   9   4 10.4614 265.534   6
   2   9   5 109.771 128.880   8
   2  -9  -5 24.1861 118.726   4
  -2  -9  -5-463.026 414.391   2
  -2   9   5-228.647 135.903   8
  -2   9   5-212.321 268.457   6
   2   9   5 106.180 319.237   5
   2  -9  -5 162.983 164.879   3
  -2   9  -5 72.6913 140.655   7
  -2   9  -5 208.361 331.695   6
   2  -9   5-139.891 152.007   4
  -2   9   5-99.9953 120.514   7
  -2   9   5-93.6773 293.525   5
   2  -9  -5-133.810 190.924   1
   2  -9   6-9.03601 139.414   4
  -2  -9  -6-55.3560 409.233   2
   2   9   6 155.149 328.362   5
   2  -9  -6-8.87103 183.886   1
   2  -9   6 173.304 122.269   3
   2  -9  -6 9.46867 162.279   3
  -2   9   6 333.194 143.876   8
   2   9   6 7.52627 124.901   8
  -2   9  -6 33.0241 149.987   7
  -2   9   6-489.685 301.248   5
  -2   9  -6-528.456 350.841   6
  -2   9   6 114.651 124.310   7
  -2   9  -7 527.239 347.322   6
   2  -9  -7 148.539 174.603   3
   2   9   7 462.689 340.688   5
  -2  -9  -7 551.917 431.346   2
   2   9   7 85.3619 134.359   8
  -2   9   7-552.423 310.449   5
  -2   9  -7 127.031 149.877   7
   2  -9   7 84.5223 151.479   4
  -2   9   7 33.9254 144.123   8
  -2   9  -8 701.432 370.776   6
   2   9   8 223.860 136.965   8
  -2   9  -8 182.665 157.090   7
   2   9   8 522.395 347.489   5
  -2  -9  -8 73.6728 426.284   2
  -2   9   8 318.678 327.991   5
   2  -9  -8 341.609 195.033   3
  -2   9   8 344.761 160.776   8
   2  -9   8 108.064 161.594   4
   2  -9  -9 86.6257 188.600   3
   2   9   9-106.519 142.767   8
  -2   9  -9-301.443 379.092   6
  -2   9   9-214.720 166.001   8
  -2  -9  -9 109.990 167.303   3
  -2   9  -9-125.411 157.062   7
   2   9   9 33.4501 343.769   5
  -2  -9  -9-277.415 430.067   2
  -2   9   9 141.714 324.026   5
   2  -9   9-10.2035 160.897   4
   2  -9 -10-147.090 187.555   3
  -2   9 -10 410.271 380.598   6
  -2  -9 -10 30.6417 178.976   3
   2   9  10-360.981 369.657   5
  -2   9  10 295.390 356.986   5
  -2  -9 -10-18.6124 435.121   2
   2   9  10-16.9208 150.830   8
  -2   9  10-145.543 174.036   8
  -2   9 -10-18.4488 159.830   7
   2  -9  10 42.5957 178.396   4
  -2   9 -11 122.699 404.188   6
  -2  -9 -11 363.325 194.131   3
   2   9  11 266.210 389.123   5
  -2   9  11 187.979 362.074   5
   2  -9 -11 402.449 217.028   3
  -2   9  11 614.335 193.800   8
  -2   9 -11 380.159 180.502   7
   2  -9  11 541.306 208.902   4
  -2   9 -12 268.529 392.633   6
  -2  -9 -12 41.9978 189.180   3
   2   9  12-73.0829 399.906   5
  -2   9  12-10.4404 181.778   8
  -2   9 -12-58.7565 176.183   7
   2  -9  12 11.5251 187.269   4
   2  -9 -12 257.586 214.244   3
  -2   9  12-212.060 375.174   5
  -2  -9 -13 5538.28 504.637   3
   2   9  13 5536.89 478.962   8
  -2   9  13 3287.20 604.689   5
   2  -9 -13 1526.48 448.379   3
  -2   9  13 1924.71 432.880   8
   2  -9  13 2255.11 443.698   4
  -2   9 -13 4858.41 642.512   6
  -2   9 -14 18.8058 405.823   6
  -2   9  14-113.835 387.333   5
  -2  -9 -14-10.9129 200.702   3
   2   9  14 192.392 436.002   5
   2  -9  14 320.804 215.755   4
  -2  -9 -14 19.7542 478.161   2
  -2   9  14 201.409 200.346   8
   2  -9 -14 442.574 247.246   3
   2   9  14 18.6764 167.302   8
  -2   9 -14-51.9298 193.233   7
  -2   9 -15 769.414 460.053   6
  -2  -9 -15 1466.25 279.541   3
   2   9  15 2036.80 504.767   5
  -2   9  15 1258.27 456.314   5
   2   9  15 1756.11 258.499   8
   2  -9 -15 808.602 301.212   3
  -2   9 -15 1194.95 263.647   7
   2  -9  15 1482.25 290.116   4
  -2  -9 -15 825.880 519.288   2
  -2   9 -16 512.359 460.362   6
  -2  -9 -16 286.271 216.803   3
   2   9  16 40.5482 463.765   5
   2  -9 -16-131.010 258.841   3
  -2   9  16-283.196 418.692   5
   2  -9  16 79.0241 230.580   4
  -9   2 -17 33.1468 405.079   6
  -2   9  18 12.7499 240.193   8
  -2  -9 -18 43.4989 521.029   2
   2   9  18 62.0473 180.904   8
  -2   9 -18-11.5614 208.609   7
  -9   2 -18-206.685 447.350   6
  -2   9 -19 378.777 453.789   6
  -2  -9 -19 22.3167 564.556   2
  -2   9  19-276.227 246.664   8
  -2  -9 -19 322.868 240.889   3
   2  -9 -19 231.900 290.253   3
   2   9  19 306.836 199.216   8
  -2   9  19 242.312 459.263   5
  -2   9 -19 331.862 232.346   7
   2   9  19 416.968 508.708   5
  -9   2 -19-17.6237 460.362   6
   2  -9  19 14.4736 237.061   4
  -2   9 -20 449.582 538.976   6
   2   9  20 454.630 240.387   8
  -2  -9 -20 730.073 293.524   3
  -2   9  20-162.727 275.336   8
   2  -9 -20 481.340 351.594   3
  -2   9 -20 194.518 259.417   7
   2  -9  20 354.929 299.811   4
   2  -9  21-272.856 250.401   4
  -2   9 -21 698.670 474.964   6
  -2   9  21 91.5094 484.121   5
  -2   9  21 139.663 263.149   8
   2   9  21-124.196 211.577   8
  -2  -9 -21 92.8393 245.383   3
  -2  -9 -21 235.831 595.888   2
   2  -9 -21-302.533 313.821   3
  -2   9 -21-124.363 237.536   7
   2   9  21-23.2619 546.256   5
   2  -9  22 184.840 255.760   4
   2   9  22 142.698 543.415   5
  -2   9 -22-133.041 485.318   6
  -2  -9 -22-110.119 261.445   3
   2   9  22-69.2658 215.674   8
  -2   9  22 100.561 272.490   8
  -2   9  22-326.103 485.303   5
  -2  -9 -22-145.713 624.791   2
   2  -9 -22 350.731 318.761   3
  -2   9 -22-101.688 241.102   7
   2  -9  23 62.7550 270.889   4
  -2   9  23 398.437 292.211   8
  -2  -9 -23-42.9675 265.745   3
  -2   9 -23 135.598 512.227   6
   2   9  23 873.956 573.281   5
   2   9  23 236.138 232.802   8
  -2   9  23 447.759 491.777   5
  -2  -9 -23 175.159 642.030   2
   2  -9 -23 208.845 343.412   3
  -2   9 -23-103.780 250.492   7
   2  -9  24 253.630 271.755   4
  -2   9 -24 206.373 499.979   6
  -2   9  24-287.464 286.068   8
   2   9  24 622.766 585.078   5
   2   9  24 72.4142 234.168   8
  -2  -9 -24 208.976 287.212   3
  -2   9  24 904.583 521.167   5
  -2  -9 -24 51.6136 656.152   2
  -2   9 -24 92.5774 266.996   7
   2  -9 -24 156.392 331.657   3
   2  -9  25 177.082 322.976   4
  -2   9 -25 140.198 565.718   6
   2   9  25 493.298 260.377   8
  -2   9  25 340.466 308.578   8
  -2   9 -25 430.800 304.051   7
   2   9  25 2669.96 671.682   5
  -2  -9 -25 669.975 320.388   3
  -2  -9 -25 2289.56 765.330   2
   2  -9 -25 677.505 364.177   3
   2   9  26-75.5949 249.153   8
   2  -9  26 226.250 301.494   4
  -2  -9 -26-16.3070 295.555   3
  -2  -9 -26 686.787 730.373   2
   2   9  26-336.974 613.513   5
   2  -9 -26-222.298 336.148   3
  -2   9 -26-287.270 292.921   7
  -2   9  26 404.574 306.945   8
   2  -9  27-16.2280 285.563   4
  -2   9 -27 457.928 283.856   7
  -2  -9 -27-152.410 309.958   3
   2   9  27 424.953 609.279   5
   2   9  27 257.400 262.391   8
  -2   9  27-63.3099 300.118   8
  -2  -9 -27 594.963 741.818   2
   2   9  28-811.922 639.448   5
   2   9  28 257.723 251.301   8
  -2   9  28-176.402 311.933   8
  -2  -9 -28 29.2133 765.864   2
  -2  -9 -28-88.7994 323.798   3
  -2   9 -28 84.2042 279.947   7
   2   9  29-331.965 665.545   5
  -2  -9 -29-1233.63 855.567   2
  -2  -9 -29-74.1294 369.709   3
  -2   9 -29 340.162 300.612   7
   2   9  29-171.032 259.566   8
   2   9  30-147.661 260.853   8
  -2  -9 -30-588.039 815.543   2
  -2  -9 -30 175.575 372.329   3
  -2   9 -30-214.128 276.988   7
   2   9  30-505.430 665.343   5
   2   9  31 41.0899 270.197   8
   2   9  31 626.090 657.058   5
  -2  -9 -31-857.507 843.909   2
  -2  -9 -31 408.285 378.959   3
   3  -9   0 4978.51 535.653   3
  -3   9   0 4026.47 577.618   5
  -3   9   0 4421.27 511.046   8
   3  -9   0 5315.72 529.605   4
  -3   9   0 5560.04 539.648   7
  -3   9   0 3792.33 607.103   6
   3  -9   0 4413.97 584.633   1
  -3   9   1 164.040 126.112   8
   3  -9   1 7.92318 138.005   4
   3  -9  -1 17.4349 150.469   3
  -3   9  -1 291.478 152.058   7
  -3   9   1 127.429 135.777   7
   3  -9  -1 160.650 237.047   1
   3  -9   1 191.017 242.503   1
  -3   9  -1 21.4736 241.575   5
  -3   9  -1 232.685 112.014   8
  -3   9   1 401.903 269.453   5
  -3   9   1 374.815 295.021   6
   3  -9   1 223.435 147.457   3
  -3   9  -1 92.3246 300.849   6
   3  -9  -1 14.9181 131.673   4
   3  -9   2 2307.00 313.771   3
   3  -9  -2 2224.01 319.605   3
   3   9   2 1801.64 415.008   5
  -3   9   2 2890.49 303.411   8
  -3   9  -2 2512.32 283.853   8
  -3   9   2 1893.02 389.667   5
   3  -9  -2 1956.88 294.363   4
  -3   9   2 2578.76 308.132   7
   3  -9   2 2483.23 309.606   4
  -3   9  -2 2443.52 312.445   7
   3  -9  -2 2655.22 366.814   1
  -3   9   2 1933.44 405.450   6
   3  -9   2 2965.59 412.779   1
  -3   9  -2 2081.09 365.574   5
  -3   9  -2 2427.12 430.355   6
   3  -9   3 597.060 321.948   2
   3  -9   3 432.629 286.091   1
   3   9   3 787.652 327.338   5
   3  -9   3 848.359 174.045   3
  -3   9  -3 603.123 175.934   7
  -3   9   3 141.411 279.579   5
  -3   9   3 423.083 150.644   8
   3  -9  -3 453.583 228.251   1
   3  -9  -3 705.176 185.989   3
  -3   9   3 448.020 158.616   7
   3  -9   3 733.714 165.645   4
  -3   9  -3 831.386 253.892   5
  -3   9  -3 636.964 127.582   8
  -3  -9  -3 487.842 374.213   2
  -3   9   3 331.626 303.273   6
  -3   9  -3 1109.54 337.225   6
  -3   9  -4 732.126 175.331   7
  -3   9   4 797.169 165.899   8
   3   9   4 674.973 144.475   8
   3   9   4 279.665 322.566   5
   3  -9  -4 488.023 223.173   1
  -3   9   4 120.768 288.639   5
  -3   9  -4 413.598 117.106   8
   3  -9  -4 612.072 190.005   3
   3  -9   4 348.881 321.567   2
  -3   9   4 759.817 164.450   7
   3  -9   4 203.589 284.126   1
   3  -9   4 835.379 173.593   4
  -3   9   4 80.3635 300.245   6
  -3   9  -4-375.766 343.227   6
  -3  -9  -4-18.6617 392.264   2
   3  -9  -5 526.175 218.388   1
   3   9   5 446.613 331.955   5
   3  -9   5 359.825 167.605   4
  -3   9   5 379.243 147.884   7
   3   9   5 605.648 140.807   8
   3  -9   5 443.494 309.701   1
  -3   9   5 316.406 153.753   8
   3  -9  -5 185.788 188.395   3
  -3   9   5 741.693 302.876   5
  -3  -9  -5 349.825 428.715   2
  -3   9  -5 523.519 170.040   7
  -3   9   5 236.949 287.491   6
  -3   9  -5 300.954 340.227   6
  -3  -9  -6 477.994 451.308   2
   3   9   6 98.3198 344.210   5
  -3   9   6 52.2841 148.517   8
  -3   9   6 247.804 298.317   5
   3  -9  -6 151.063 190.175   3
   3   9   6 153.607 126.263   8
   3  -9   6-157.934 160.683   4
  -3   9  -6 17.5941 152.678   7
  -3   9   6 449.923 295.305   6
   3  -9   6 273.139 303.027   1
  -3   9  -6 307.939 348.944   6
  -3   9  -7-145.450 352.540   6
  -3  -9  -7-341.314 456.057   2
   3  -9   7 106.905 318.695   1
   3   9   7 521.643 364.719   5
  -3   9   7 15.0983 298.245   5
   3  -9  -7 146.612 192.691   3
   3  -9   7 250.033 170.015   4
  -3   9  -7 375.547 171.642   7
  -3   9   7 443.229 170.163   8
   3   9   7 238.523 140.248   8
  -3   9   7 640.901 302.300   6
  -3   9  -8-49.6034 382.114   6
   3  -9   8-55.4693 333.730   1
  -3  -9  -8 141.632 452.321   2
  -3   9   8 62.7783 312.035   5
   3   9   8-501.091 370.888   5
   3   9   8 123.032 137.191   8
   3  -9  -8 222.708 200.930   3
  -3   9   8 38.4055 161.904   8
  -3   9  -8 218.654 159.357   7
   3  -9   8 39.6745 162.868   4
  -3   9  -9 463.812 381.368   6
  -3  -9  -9-20.2056 439.448   2
   3   9   9 443.028 385.511   5
   3  -9  -9 269.317 211.817   3
  -3   9   9 277.046 319.142   5
   3   9   9 109.273 143.169   8
  -3   9   9 119.468 172.303   8
  -3   9  -9 93.0535 164.040   7
   3  -9   9 307.123 180.564   4
  -3   9 -10 52.6977 404.645   6
   3   9  10 199.178 387.130   5
  -3   9  10-67.2314 336.560   5
   3  -9 -10 498.317 227.456   3
  -3   9 -10 180.948 174.358   7
  -3   9  10 525.253 202.130   8
   3  -9  10 477.505 203.270   4
   3   9  11 148.757 402.312   5
   3  -9 -11 267.622 239.460   3
  -3   9  11 191.419 187.943   8
  -3   9  11 452.674 347.693   5
  -3   9 -11 109.411 408.317   6
  -3   9 -11 126.938 178.271   7
   3  -9  11 76.5791 185.580   4
  -3   9 -12 913.068 574.567   6
  -3  -9 -12 2173.43 317.614   3
   3   9  12 2484.95 533.739   5
  -3  -9 -12 427.804 566.506   2
  -3   9  12 1513.46 289.307   8
  -3   9  12 1476.78 444.780   5
   3  -9  12 2211.88 323.388   4
   3  -9 -12 1185.14 324.372   3
   3   9  12 1446.39 267.565   8
  -3   9 -13 75.6684 427.770   6
  -3  -9 -13 11.4932 207.086   3
   3   9  13-678.555 466.424   5
   3   9  13-121.543 183.057   8
  -3   9  13 45.2039 196.763   8
  -3   9  13-111.136 376.688   5
   3  -9 -13 116.077 239.226   3
   3  -9  13 11.8391 189.144   4
  -3   9 -14 2075.29 524.760   6
  -3  -9 -14 2751.65 360.467   3
   3   9  14 2982.85 545.710   5
   3   9  14 2313.64 323.759   8
  -3   9  14 2176.70 501.517   5
  -3   9 -14 2537.33 342.596   7
   3  -9  14 2466.08 361.052   4
   3  -9 -14 1708.42 379.457   3
  -3   9  14 2316.09 344.669   8
  -3   9 -15-431.486 461.827   6
  -3  -9 -15 280.167 225.114   3
   3   9  15 20.3246 447.621   5
  -3  -9 -15-146.821 524.293   2
   3  -9 -15 360.711 270.908   3
  -3   9  15-216.107 413.506   5
   3   9  15 127.027 176.711   8
  -3   9 -15 152.954 202.220   7
   3  -9  15-268.257 229.902   4
  -3  -9 -16 1811.99 294.196   3
   3   9  16 2030.17 534.083   5
   3  -9  16 912.132 284.481   4
  -9   3 -16 1030.27 460.680   6
  -9   3 -17-462.335 461.751   6
  -3  -9 -18 131.805 543.374   2
  -3   9 -18-47.6145 224.490   7
  -3   9  18 367.082 243.307   8
  -3   9  18 271.966 442.157   5
   3   9  18 231.057 202.056   8
   3  -9 -18 190.997 287.952   3
  -9   3 -18 258.368 469.199   6
   3  -9  18 269.638 247.443   4
  -3   9 -19-1439.36 533.445   6
   3  -9  19-14.6687 257.214   4
  -3  -9 -19-387.176 258.623   3
   3   9  19-1817.25 577.846   5
  -3   9 -19-12.2392 234.942   7
   3   9  19-160.900 212.463   8
  -3   9  19-27.0226 259.904   8
  -3   9  19-616.309 471.569   5
  -3  -9 -19-1746.54 618.081   2
   3  -9 -19-820.209 334.847   3
  -3   9 -20-302.538 507.148   6
  -3  -9 -20-625.338 275.809   3
   3   9  20-1750.89 566.813   5
   3   9  20-109.582 214.835   8
  -3   9  20-153.216 253.071   8
  -3   9  20-948.952 502.089   5
  -3   9 -20-150.912 245.547   7
   3  -9 -20-293.573 320.589   3
  -9   3 -20-614.235 539.150   6
   3  -9  20-196.091 267.974   4
  -9   3 -21-348.365 527.821   6
  -3   9 -21 616.058 516.013   6
   3   9  21 494.568 220.978   8
  -3  -9 -21 235.397 253.628   3
   3   9  21 273.302 537.437   5
  -3   9  21 143.570 263.837   8
  -3   9 -21 116.201 253.970   7
  -3  -9 -21-607.189 608.545   2
   3  -9 -21-205.766 308.855   3
   3  -9  21 124.976 271.615   4
   3   9  22 22.9719 215.782   8
  -3   9 -22-67.4122 511.986   6
   3  -9  22-225.185 286.713   4
  -3  -9 -22 120.921 251.711   3
   3   9  22-999.636 559.750   5
  -3  -9 -22-788.455 619.656   2
  -3   9  22 162.706 269.678   8
  -3   9 -22 264.744 253.795   7
   3  -9 -22-18.9915 305.109   3
   3   9  23-692.634 586.227   5
  -3  -9 -23 331.997 269.645   3
  -3   9 -23 388.718 505.670   6
  -3  -9 -23-709.627 651.113   2
  -3   9  23 60.8818 278.935   8
  -3   9 -23-135.603 265.690   7
   3   9  23 246.558 231.857   8
   3  -9  23 295.502 296.416   4
   3  -9  24 134.390 282.368   4
  -3   9 -24-440.942 543.272   6
  -3  -9 -24 114.477 273.395   3
   3   9  24-340.238 585.889   5
  -3   9 -24-152.530 269.530   7
   3   9  24 660.189 246.669   8
  -3  -9 -24 377.545 639.087   2
   3  -9  25 17.0336 301.476   4
  -3   9 -25-401.466 558.563   6
   3   9  25 24.5550 240.898   8
   3   9  25-596.349 604.406   5
  -3  -9 -25-341.374 305.216   3
  -3  -9 -25-826.005 731.828   2
  -3   9 -25 113.252 285.353   7
  -3  -9 -26-26.4845 673.262   2
   3  -9  26 467.193 310.175   4
  -3   9 -26 1532.39 576.241   6
   3   9  26-25.2903 585.480   5
   3   9  26 414.534 258.115   8
  -3   9 -26 245.248 297.068   7
  -3  -9 -26 262.321 295.013   3
   3  -9  27 52.2783 299.634   4
  -3   9 -27-412.613 562.927   6
   3   9  27-12.8603 257.083   8
   3   9  27-437.797 617.554   5
  -3  -9 -27 570.646 706.883   2
  -3  -9 -27-321.956 311.289   3
  -3   9 -27-161.339 293.501   7
   3  -9  28 334.853 321.032   4
  -3  -9 -28-555.659 730.732   2
  -3   9 -28 543.534 583.866   6
   3   9  28 724.462 275.806   8
  -3  -9 -28 319.331 312.240   3
   3   9  28 685.941 635.692   5
  -3   9 -28 416.590 315.851   7
   3  -9  29 405.098 341.675   4
  -3  -9 -29 1272.44 406.881   3
   3   9  29 998.928 323.358   8
  -3   9 -29 135.225 330.656   7
   3   9  29 698.362 734.359   5
   3  -9  30 17.5915 289.901   4
  -3   9 -30 348.364 314.908   7
   3   9  30 1038.58 304.921   8
   3   9  30 602.332 643.930   5
  -3  -9 -30 146.228 351.978   3
  -3   9 -31 45.6786 305.248   7
   4  -9   0 250.006 177.763   3
  -4   9   0 217.188 133.542   8
  -4   9   0 586.678 262.970   5
   4  -9   0 551.975 250.742   1
  -4   9   0 346.012 157.829   7
  -4   9   0 55.6843 325.368   6
  -4   9   1 3389.61 405.218   8
   4  -9  -1 3842.32 441.301   3
   4  -9   1 3339.52 429.920   3
  -4   9   1 3260.53 479.403   5
  -4   9  -1 3342.44 394.186   8
  -4   9   1 3471.85 417.808   7
  -4   9  -1 3795.49 425.406   7
  -4   9  -1 2358.02 462.909   5
  -4   9  -1 3784.06 529.058   6
   4  -9  -1 4292.15 480.216   1
   4  -9   1 4098.52 490.699   1
  -4   9   1 3485.45 523.275   6
   4  -9  -2 378.763 236.248   1
   4  -9   2 330.194 273.793   1
  -4   9  -2 245.922 167.652   7
  -4   9  -2-316.349 250.825   5
  -4   9   2-13.0058 263.623   5
  -4   9  -2 266.334 115.962   8
  -4   9   2 283.181 148.882   8
  -4   9   2-76.6564 149.923   7
   4  -9   2 157.245 169.992   3
   4  -9  -2 150.957 191.260   3
   4  -9   2-93.4321 143.249   4
  -4   9   2 326.120 335.123   6
  -4   9  -2 530.514 334.000   6
  -4   9   3 1337.10 222.543   7
   4  -9  -3 1615.19 288.220   1
   4  -9   3 861.281 310.387   1
  -4   9   3 1399.61 230.082   8
  -4   9  -3 1434.00 191.040   8
  -4   9  -3 1464.68 240.150   7
  -4   9   3 1162.33 327.512   5
  -4   9  -3 1304.55 290.883   5
   4  -9  -3 1197.84 253.695   3
   4  -9   3 1408.66 238.814   3
   4  -9   3 1328.77 224.493   4
  -4   9   3 783.612 371.110   6
  -4   9  -3 1294.45 379.669   6
  -4   9   4 1065.48 319.102   5
  -4   9  -4 756.591 199.194   7
   4  -9   4 1384.11 337.334   1
  -4   9   4 1029.46 201.770   8
   4  -9   4 1027.54 200.244   4
   4  -9  -4 929.549 245.754   3
  -4   9   4 485.126 357.609   6
   4  -9  -4 761.371 250.791   1
  -4   9  -4 253.823 347.503   6
   4  -9   5 146.513 292.035   1
  -4   9   5 14.5239 287.290   5
  -4   9   5-18.3413 160.043   8
  -4   9  -5 188.633 176.572   7
   4  -9   5 9.18441 152.370   4
   4  -9  -5 108.547 208.710   3
  -4   9   5-198.201 364.550   6
  -4   9  -5 414.156 354.457   6
  -4   9   6 76.7088 163.966   8
   4   9   6 382.581 331.386   5
  -4   9   6 300.456 308.749   5
   4  -9   6 56.7714 161.800   4
  -4   9  -6 9.56742 172.652   7
   4  -9   6-421.738 338.168   1
  -4   9   6 134.278 384.701   6
  -4  -9  -6-749.854 432.694   2
  -4   9  -6-78.4649 368.185   6
   4  -9  -6 100.099 201.038   3
   4  -9   7 97.4977 172.745   4
   4   9   7-249.780 351.607   5
   4   9   7 46.5629 133.381   8
  -4  -9  -7 20.1505 417.942   2
  -4   9   7 554.137 313.408   5
  -4   9   7-315.914 176.542   8
  -4   9  -7 29.0567 179.956   7
   4  -9  -7-194.617 220.734   3
  -4   9   7 429.842 433.108   6
   4  -9   7-141.033 323.311   1
  -4   9  -7-79.9355 373.417   6
  -4  -9  -8 685.937 457.953   2
   4  -9   8 18.2592 335.452   1
   4   9   8-103.942 372.370   5
  -4   9   8 396.963 321.862   5
  -4   9   8 273.222 183.822   8
   4   9   8 406.841 143.081   8
   4  -9   8 381.840 188.951   4
  -4   9  -8 265.862 184.245   7
   4  -9  -8 486.419 238.952   3
  -4   9  -8 165.946 384.425   6
  -4   9   9 351.550 184.388   8
   4   9   9 340.846 381.570   5
  -4   9   9 130.862 318.635   5
  -4   9  -9 20.0017 180.081   7
  -4   9  -9 481.987 407.392   6
   4  -9   9 269.831 191.218   4
   4  -9   9 38.1355 366.824   1
   4  -9  -9 405.647 238.309   3
   4  -9  10 39.4815 364.538   1
   4   9  10 241.271 404.510   5
  -4   9  10-117.774 340.566   5
  -4   9  10 200.326 191.319   8
   4  -9  10 385.554 195.464   4
  -4   9 -10 50.3200 183.504   7
   4  -9 -10 376.032 240.774   3
  -4   9 -10-315.932 417.596   6
  -4   9 -11 184.721 269.427   7
  -4  -9 -11 1104.96 595.303   2
   4  -9  11 886.187 603.653   1
   4   9  11 2155.74 493.568   5
   4  -9  11 1240.50 283.899   4
  -4   9  11 414.630 375.397   5
  -4   9  11 998.689 243.390   8
   4  -9 -11 1060.26 299.621   3
   4   9  11 1113.70 215.650   8
  -4   9 -12-692.639 503.182   6
  -4   9  12 229.691 197.066   8
   4   9  12-371.107 443.353   5
  -4   9  12 141.372 367.354   5
   4   9  12 139.774 166.114   8
   4  -9 -12 107.738 248.212   3
  -4   9 -13 775.271 486.999   6
  -4  -9 -13 1566.06 584.398   2
   4   9  13 1073.33 478.420   5
   4   9  13 2249.58 271.130   8
  -4   9  13 969.749 271.502   8
  -4   9  13 1193.28 421.699   5
   4  -9  13 2001.24 303.436   4
   4  -9 -13 1353.12 337.231   3
  -4   9 -14-240.690 481.992   6
  -4  -9 -14 199.452 530.607   2
   4   9  14 121.125 436.697   5
   4  -9 -14 343.125 275.361   3
   4   9  14 410.773 188.012   8
  -4   9  14 227.404 203.663   8
  -4   9  14 221.547 376.316   5
   4  -9  14 896.198 459.097   1
   4  -9  14 243.813 223.725   4
  -4   9 -14 87.4520 202.961   7
  -4   9 -15 1103.41 534.574   6
  -4  -9 -15 1654.97 313.597   3
   4   9  15 2359.68 532.014   5
   4  -9  15 1682.37 290.661   4
   4  -9 -15 1455.10 347.954   3
  -9   4 -16 215.382 437.390   6
   4  -9  17 865.050 539.150   1
  -4  -9 -17 274.177 562.864   2
   4   9  17 1094.50 234.332   8
  -4   9 -17 662.861 255.755   7
  -9   4 -17 394.946 478.392   6
  -4   9 -18 255.703 493.862   6
  -4  -9 -18-116.490 250.518   3
   4  -9  18 412.942 525.893   1
  -4  -9 -18 254.147 570.829   2
   4   9  18 236.408 501.714   5
   4   9  18 376.463 207.781   8
  -4   9 -18 85.1605 223.860   7
  -9   4 -18 97.5754 491.766   6
   4  -9  18 28.1798 232.699   4
  -4   9 -19 151.738 576.920   6
  -4  -9 -19 234.187 268.546   3
   4   9  19 1781.73 588.963   5
   4  -9  19 610.145 637.844   1
   4   9  19 230.786 215.612   8
  -4   9 -19 287.614 248.088   7
   4  -9  19 218.370 282.737   4
  -4   9 -20 373.426 532.471   6
   4   9  20 67.3858 217.919   8
   4  -9  20 369.890 594.914   1
  -4  -9 -20 131.823 256.768   3
  -4  -9 -20-190.668 593.380   2
   4   9  20-660.504 535.026   5
  -4   9 -20 12.8540 251.661   7
   4  -9  20-15.1199 257.667   4
  -4   9 -21 134.285 520.867   6
  -4  -9 -21 266.779 618.857   2
  -4  -9 -21 93.3468 253.287   3
   4  -9  21 263.288 636.847   1
   4   9  21 311.817 541.234   5
   4   9  21-126.819 222.805   8
  -4   9 -21 92.4130 261.074   7
   4  -9  21-46.7307 273.793   4
   9  -4  21-202.928 392.679   1
   4   9  22 200.347 223.918   8
  -4   9 -22 386.682 525.078   6
   4  -9  22 212.376 709.552   1
  -4  -9 -22 173.009 635.413   2
  -4  -9 -22-121.835 267.096   3
   4   9  22-136.244 555.923   5
  -9   4 -22-228.661 540.718   6
   9  -4  22-210.563 246.021   4
  -4   9 -22 162.634 267.069   7
   4  -9  22-16.0637 286.839   4
   9  -4  22 746.270 409.466   1
  -4   9 -23 162.107 559.065   6
   4   9  23 156.701 232.461   8
  -4  -9 -23-529.547 662.537   2
  -4  -9 -23-193.046 270.738   3
   4  -9  23 32.9591 278.545   4
   4   9  23-137.554 552.989   5
  -4   9 -23 361.342 275.968   7
   4  -9  23 652.879 770.811   1
  -4   9 -24 447.022 569.142   6
   4  -9  24 136.137 309.824   4
   4  -9  24-883.799 930.653   1
  -4  -9 -24-28.1809 282.635   3
   4   9  24 232.980 598.750   5
  -4   9 -24 839.612 299.320   7
   4   9  24 209.749 265.326   8
  -4   9 -25 599.311 572.813   6
   4  -9  25-419.949 919.270   1
  -4  -9 -25-1157.53 700.393   2
   4   9  25 810.880 593.768   5
   4   9  25 25.2697 244.173   8
  -4  -9 -25-28.8910 281.711   3
  -4   9 -25 101.850 275.983   7
   4  -9  25-138.824 295.699   4
  -4   9 -26-365.208 571.492   6
  -4  -9 -26 484.327 714.601   2
   4   9  26-290.406 579.526   5
  -4  -9 -26 357.081 303.094   3
   4   9  26 297.910 254.843   8
   4  -9  26-104.956 1010.32   1
  -4   9 -26 341.557 302.168   7
   4  -9  26-124.226 322.621   4
   4  -9  27 451.963 330.425   4
  -4   9 -27 419.304 600.570   6
   4  -9  27 660.657 1242.02   1
  -4  -9 -27 440.318 722.378   2
   4   9  27-98.7867 582.698   5
   4   9  27 811.025 285.610   8
  -4   9 -27 892.450 335.573   7
  -4  -9 -27 1045.74 334.417   3
   4  -9  28-164.145 327.293   4
   4  -9  28 632.198 1499.59   1
  -4   9 -28-899.137 612.566   6
  -4  -9 -28 84.4366 706.781   2
   4   9  28-426.947 634.206   5
  -4  -9 -28-191.288 315.285   3
   4   9  28-109.314 259.627   8
  -4   9 -28-614.551 323.460   7
   4  -9  29 184.168 331.825   4
  -4   9 -29-203.044 631.401   6
   4  -9  29 1681.85 1748.08   1
  -4   9 -29 420.369 318.505   7
  -4  -9 -29-33.1808 332.585   3
   4   9  29-98.4728 287.117   8
   4   9  29 664.976 651.165   5
   4  -9  30 18.4258 309.806   4
  -4   9 -30 25.7050 610.033   6
   4   9  30 232.122 285.188   8
  -4   9 -30 15.8122 315.111   7
   4  -9  31 444.168 316.021   4
  -4   9 -31 78.4295 596.851   6
  -4   9 -31 191.038 328.316   7
   5  -9   0 1184.53 293.368   1
  -5   9   0 1465.35 219.472   8
  -5   9   0 913.621 220.829   7
  -5   9   0 861.569 407.937   6
   5  -9  -1 333.660 238.816   1
   5  -9   1 195.934 259.356   1
  -5   9  -1 215.775 156.063   8
  -5   9   1 379.375 180.061   8
  -5   9  -1 167.833 170.638   7
  -5   9   1-238.891 406.516   6
  -5   9  -1 47.8942 374.798   6
  -5   9   1 161.990 162.618   7
   5  -9   2 14.4554 285.498   1
  -5   9  -2 991.731 186.622   8
  -5   9   2 998.484 213.696   8
  -5   9  -2 839.674 209.918   7
  -5   9   2 452.133 442.277   6
  -5   9  -2 1127.57 399.471   6
   5  -9  -2 959.732 260.989   1
  -5   9  -3 662.336 201.135   7
  -5   9  -3 1258.93 387.436   6
  -5   9   3 335.098 189.777   8
   5  -9   3 841.576 283.283   1
  -5   9   3 496.805 503.798   6
  -5   9   4-71.4468 171.908   8
  -5   9  -4 40.2354 169.711   7
   5  -9   4-140.766 283.084   1
  -5   9   4-534.916 566.573   6
  -5   9  -4 79.4965 365.676   6
  -5   9  -5 326.317 189.251   7
  -5   9   5 340.808 192.918   8
   5  -9   5 773.124 330.679   1
  -5   9   5-59.0366 736.539   6
  -5   9  -5 565.562 378.800   6
  -5   9   6 259.294 186.392   8
   5  -9   6 298.237 169.600   4
  -5   9  -6 245.397 186.540   7
   5  -9   6 16.8427 314.335   1
   5  -9   7-17.3758 322.080   1
   5  -9   7 472.529 185.607   4
  -5   9  -7 154.202 178.670   7
  -5   9   7 331.625 181.245   8
  -5   9  -7 33.3503 388.654   6
   5  -9   8 36.2646 339.721   1
  -5   9   8 10.3288 173.661   8
   5  -9   8 152.103 175.145   4
  -5   9  -8-10.4006 183.428   7
  -5   9  -8-170.775 397.819   6
   5   9   9 2729.17 466.880   5
   5  -9   9 374.293 440.744   1
  -5   9  -9 556.806 265.192   7
  -5   9  -9 3224.62 507.298   6
   5   9  10-319.951 396.844   5
   5  -9  10-58.5313 418.524   1
   5  -9  10 139.838 216.844   4
  -5   9 -10 1246.05 252.079   7
  -5  -9 -10 958.900 544.927   2
  -5   9 -10 389.731 506.720   6
   5   9  11 482.173 407.942   5
   5   9  11 483.950 175.412   8
   5  -9  11 233.184 202.443   4
  -5   9 -11 440.439 444.109   6
  -5  -9 -11 21.5307 469.765   2
   5  -9  12 572.821 230.608   4
   5   9  12 613.184 443.282   5
   5   9  12 853.512 196.592   8
  -5   9 -12 616.305 464.263   6
  -5  -9 -12 417.926 519.777   2
  -5  -9 -13 22.4710 508.162   2
   5   9  13 276.241 170.701   8
   5   9  13 275.542 436.935   5
  -5   9 -13 116.034 452.548   6
   5  -9  13-260.107 210.849   4
   5   9  14 984.698 470.324   5
   5  -9  14 501.185 220.207   4
  -9   5 -14 118.819 424.521   6
  -9   5 -15-143.508 442.585   6
   5  -9  16 263.533 463.819   1
   5   9  16 104.379 184.905   8
  -5   9 -16 228.329 221.500   7
  -9   5 -16-75.4150 469.987   6
  -5   9 -17 1230.20 539.896   6
  -5  -9 -17 477.597 574.921   2
   5  -9  17 67.1127 235.842   4
  -5  -9 -17 28.9674 259.517   3
   5  -9  17 200.539 493.726   1
   5   9  17 278.668 204.498   8
  -5   9 -17 258.508 233.589   7
  -5   9 -18 5323.95 726.346   6
  -5  -9 -18 4647.20 735.719   2
  -5  -9 -18 762.980 322.333   3
   5   9  18 2540.66 579.672   5
   5  -9  18 3232.50 659.034   1
   5   9  18 758.753 261.931   8
  -5   9 -18 1287.15 319.150   7
   5  -9  18 662.557 312.906   4
   9  -5  19 60.7468 374.225   1
  -5   9 -19 337.361 524.975   6
   5  -9  19 27.1856 511.572   1
  -5  -9 -19 49.3864 590.158   2
  -5  -9 -19 99.2747 264.483   3
   5   9  19 21.2432 490.055   5
   5   9  19 67.6259 211.792   8
  -9   5 -19-42.4151 259.561   7
  -5   9 -19 51.7744 242.114   7
   5  -9  19 499.247 261.486   4
   9  -5  20 185.824 386.824   1
  -5   9 -20-593.679 563.537   6
  -5  -9 -20-1304.28 631.814   2
  -5  -9 -20-239.227 274.799   3
   5   9  20 277.822 505.386   5
   5  -9  20 142.222 555.429   1
   5   9  20 23.0943 216.652   8
  -9   5 -20 215.606 263.616   7
   9  -5  20 134.424 300.911   4
  -5   9 -20-146.056 252.554   7
   5  -9  20-163.156 262.367   4
  -9   5 -20 901.898 559.759   6
  -5   9 -21 530.144 549.349   6
   9  -5  21 442.022 416.765   1
   9  -5  21-270.841 282.676   4
  -5  -9 -21-688.755 631.077   2
   5  -9  21-657.114 596.543   1
  -5  -9 -21 56.1743 267.821   3
  -5   9 -21-190.696 267.675   7
   5   9  21 107.402 512.387   5
  -9   5 -21-150.982 547.891   6
  -9   5 -21 102.445 275.702   7
   5   9  21 141.975 234.552   8
   5  -9  21 46.1381 271.173   4
  -5   9 -22-561.221 578.945   6
   9  -5  22 343.289 413.082   1
  -5  -9 -22-311.610 656.509   2
  -5  -9 -22 84.5740 277.927   3
  -5   9 -22 502.829 279.199   7
   5   9  22 238.305 532.995   5
   5   9  22 217.297 243.344   8
   5  -9  22 441.020 609.992   1
  -9   5 -22 238.817 301.146   7
   9  -5  22 334.869 301.861   4
   5  -9  22 190.049 290.905   4
  -9   5 -22 261.554 556.636   6
  -5   9 -23-992.602 603.516   6
   9  -5  23-131.276 420.616   1
  -5  -9 -23 343.004 652.742   2
  -5  -9 -23-99.0292 276.261   3
   5   9  23-152.709 534.504   5
  -5   9 -23 357.868 280.251   7
   5   9  23-457.804 251.340   8
   5  -9  23 166.908 665.073   1
  -9   5 -23 15.2404 292.607   7
   9  -5  23 365.691 276.339   4
   5  -9  23 16.3881 293.484   4
  -9   5 -23-65.5624 587.827   6
  -5   9 -24-264.189 588.946   6
  -5  -9 -24-1775.46 727.291   2
  -5  -9 -24-256.556 296.910   3
   5   9  24-1108.08 574.520   5
   5   9  24-25.3844 248.909   8
   5  -9  24-386.612 315.005   4
   5  -9  24-320.122 727.543   1
  -9   5 -24-202.740 301.737   7
  -5   9 -24-513.017 300.372   7
  -9   5 -24-421.180 585.439   6
  -5   9 -25-24.3421 579.794   6
  -5  -9 -25-356.937 701.784   2
  -5  -9 -25-72.1133 290.098   3
   5   9  25 538.631 558.459   5
   5  -9  25 724.340 747.384   1
  -5   9 -25 359.748 302.205   7
   5   9  25 65.1552 253.145   8
   5  -9  25 137.946 304.789   4
  -5   9 -26 494.475 606.462   6
  -5  -9 -26 644.869 706.442   2
   5   9  26 227.708 268.998   8
  -5  -9 -26-14.6567 278.488   3
   5   9  26 1222.22 556.135   5
  -5   9 -26-153.061 297.791   7
   5  -9  26 248.563 313.971   4
   5  -9  26-205.759 841.951   1
  -5   9 -27-250.627 612.104   6
  -5  -9 -27 114.558 728.642   2
  -5  -9 -27-403.575 291.983   3
   5   9  27 289.635 275.243   8
   5   9  27-23.1553 547.157   5
   5  -9  27 626.462 957.192   1
  -5   9 -27-93.5931 306.260   7
   5  -9  27-252.613 312.709   4
  -5   9 -28 2088.78 734.357   6
  -5  -9 -28 1375.41 902.501   2
   5   9  28 2262.11 411.647   8
  -5   9 -28 904.036 387.939   7
  -5  -9 -28 1165.25 401.702   3
   5  -9  28 496.494 386.740   4
   5  -9  29-278.148 319.698   4
  -5   9 -29 592.560 614.563   6
  -5   9 -29 16.0937 334.567   7
   5  -9  29 488.430 1142.10   1
   5   9  29-29.4237 297.069   8
  -5   9 -30-104.515 619.508   6
   5  -9  30 902.080 1286.38   1
   5  -9  30-224.701 327.564   4
  -5   9 -30 244.188 330.666   7
  -5   9 -31-311.889 331.673   7
  -6   9   0 221.449 223.706   8
  -6   9   0 92.0742 537.250   6
   6  -9   0 337.346 268.570   1
   6  -9   1 14.8526 267.180   1
  -6   9  -1 81.5523 224.144   8
  -6   9   1 363.845 235.830   8
  -6   9  -1 212.814 192.261   7
  -6   9   1-666.131 661.092   6
  -6   9  -1 20.5719 468.509   6
   6  -9   2 434.670 273.532   1
  -6   9   2 251.179 228.754   8
  -6   9  -2 43.1397 187.811   7
  -6   9  -2 556.318 452.060   6
   6  -9   3-61.3046 280.323   1
  -6   9  -3 108.716 194.793   7
  -6   9  -3 163.167 421.218   6
   6  -9   4 157.692 273.968   1
  -6   9  -4 275.804 197.422   7
  -6   9  -4 17.7038 412.158   6
  -6   9  -5 140.347 396.616   6
  -6   9  -5 542.770 204.910   7
   6  -9   5 439.720 309.276   1
   6  -9   6-83.3737 311.097   1
  -6   9  -6 121.348 404.155   6
  -6   9  -6 298.105 204.921   7
   6  -9   7 468.214 368.479   1
  -6   9  -7-11.1627 223.213   7
  -6   9  -7 402.162 463.849   6
  -6   9  -8-33.3748 209.278   7
   6  -9   8-144.256 382.551   1
  -6   9  -8-408.266 487.148   6
  -6   9  -9 108.633 426.485   6
   6  -9   9 370.094 201.513   4
  -6   9  -9 179.895 203.358   7
   6  -9   9 500.248 368.871   1
   6  -9  10 10.8436 188.474   4
  -6   9 -10-11.2627 196.076   7
   6  -9  10 38.0911 353.816   1
  -6   9 -10 91.5042 433.155   6
   6  -9  11-178.750 200.728   4
  -6   9 -11-93.6788 451.418   6
   6  -9  12-34.6060 202.831   4
  -6   9 -12-191.181 466.911   6
   6   9  13 55.5463 396.474   5
  -9   6 -13-51.4841 419.436   6
   6  -9  14 284.066 416.621   1
  -6   9 -14 177.645 215.227   7
   6  -9  15 269.844 427.747   1
   6   9  15 9.71309 173.289   8
   6  -9  15 25.3964 215.038   4
  -6   9 -15 132.600 233.375   7
  -6  -9 -15 539.200 505.152   2
  -6   9 -15-62.4306 485.239   6
   9  -6  16-59.3497 362.849   1
   6  -9  16 78.6026 227.035   4
   6   9  16 791.507 448.764   5
   6  -9  16-208.452 445.288   1
   6   9  16-80.7567 180.310   8
  -6   9 -16 73.5371 223.859   7
  -9   6 -16-479.247 263.640   7
  -6  -9 -16-46.0636 523.318   2
  -6   9 -16-275.121 500.497   6
  -6   9 -17 1875.53 620.436   6
   9  -6  17 2294.63 503.839   1
  -6   9 -17 412.674 274.091   7
   6   9  17 669.547 234.448   8
   6   9  17 1116.17 510.554   5
   6  -9  17 1074.46 547.169   1
  -9   6 -17 263.154 287.002   7
   6  -9  17 541.485 285.665   4
  -9   6 -17-470.234 557.109   6
  -6  -9 -17 3180.10 658.956   2
  -6  -9 -18 652.454 583.842   2
  -6   9 -18 336.234 558.109   6
  -9   6 -18 434.656 274.566   7
   9  -6  18-266.267 404.081   1
   6   9  18 60.0353 444.266   5
   6  -9  18 572.579 483.028   1
   6   9  18-10.8245 195.129   8
   6  -9  18 194.950 251.340   4
  -6   9 -18-204.373 234.001   7
  -9   6 -18-571.784 546.471   6
  -6  -9 -19 986.732 606.067   2
  -6   9 -19 92.4667 553.531   6
   9  -6  19 250.149 388.121   1
  -6  -9 -19 194.836 307.947   3
   6   9  19-20.1461 487.778   5
   6  -9  19-257.365 511.726   1
  -9   6 -19 326.725 268.435   7
   9  -6  19-87.8580 300.836   4
   6  -9  19 114.546 250.560   4
   6   9  19 346.187 216.096   8
  -9   6 -19-698.705 536.928   6
  -6   9 -19 130.587 247.854   7
  -6   9 -20-642.907 555.657   6
  -6  -9 -20 276.940 596.926   2
   9  -6  20-278.124 410.735   1
  -6  -9 -20 571.505 318.612   3
   6   9  20-323.130 486.272   5
   6   9  20-92.0648 212.881   8
   6  -9  20 746.442 537.625   1
  -9   6 -20-57.6527 268.516   7
   9  -6  20-68.4360 311.932   4
  -6   9 -20-360.707 268.450   7
   6  -9  20 383.956 264.046   4
  -9   6 -20 221.225 574.167   6
  -6   9 -21 1183.11 618.141   6
  -6  -9 -21 539.549 639.775   2
   9  -6  21 383.868 313.505   4
   9  -6  21 500.820 429.907   1
  -6  -9 -21-215.748 294.840   3
   6   9  21 650.502 485.301   5
   6  -9  21 348.104 289.615   4
   6   9  21 355.414 232.153   8
   6  -9  21 276.731 552.729   1
  -6   9 -21 314.409 264.981   7
  -9   6 -21 336.813 276.925   7
  -9   6 -21-744.138 577.381   6
  -6   9 -22 656.321 617.949   6
  -6  -9 -22-1783.49 670.769   2
   9  -6  22-221.647 434.474   1
  -6  -9 -22 90.8038 294.013   3
   6   9  22 998.096 509.529   5
   6   9  22 511.077 243.350   8
   6  -9  22-806.342 561.613   1
  -9   6 -22 74.4857 277.159   7
   9  -6  22-162.835 299.073   4
  -6   9 -22 111.899 278.348   7
   6  -9  22-235.224 288.019   4
  -9   6 -22-296.095 590.292   6
  -6   9 -23-734.488 663.162   6
  -6  -9 -23 215.567 694.961   2
  -6   9 -23 57.2525 292.557   7
   9  -6  23-405.968 441.827   1
   6   9  23 588.472 251.817   8
  -6  -9 -23 74.4388 301.763   3
   6   9  23-387.788 505.586   5
  -9   6 -23 485.652 316.976   7
   6  -9  23 450.762 636.101   1
   9  -6  23 111.297 297.071   4
   6  -9  23 112.770 302.253   4
  -9   6 -23 209.146 606.841   6
  -6  -9 -24-247.674 703.795   2
   9  -6  24-114.821 454.130   1
  -6  -9 -24-14.7973 286.342   3
   6   9  24-328.474 518.721   5
  -9   6 -24 216.748 305.017   7
   6  -9  24 188.752 618.207   1
  -6   9 -24-545.060 620.704   6
  -6   9 -24 73.1896 285.100   7
   9  -6  24-170.715 293.176   4
   6  -9  24 49.8175 289.563   4
   6   9  24 64.4494 247.472   8
  -9   6 -24-378.146 621.362   6
  -6   9 -25 973.888 641.147   6
  -6  -9 -25 196.877 714.011   2
  -6   9 -25 119.619 295.976   7
  -9   6 -25 15.8189 307.178   7
   9  -6  25 93.5000 473.279   1
  -6  -9 -25 73.6148 291.079   3
   6   9  25 82.5872 509.312   5
   6   9  25-66.3966 250.846   8
   6  -9  25 363.516 656.090   1
   9  -6  25 242.719 272.379   4
   6  -9  25-84.9426 304.497   4
  -9   6 -25 1675.41 616.127   6
  -6   9 -26-305.326 317.015   7
  -6  -9 -26 258.745 714.077   2
  -6   9 -26 1136.24 629.136   6
   6   9  26-205.436 263.662   8
  -6  -9 -26-14.7216 286.751   3
   6   9  26 125.811 522.056   5
   6  -9  26-139.341 709.253   1
   6  -9  26 104.655 302.700   4
  -6  -9 -27-1528.25 838.286   2
  -6  -9 -27-148.016 304.745   3
   6   9  27-190.044 564.969   5
   6   9  27-495.297 313.626   8
   6  -9  27-1290.34 848.951   1
  -6   9 -27-575.678 365.924   7
   6  -9  27-337.974 342.381   4
  -6   9 -28 77.7285 644.614   6
   6   9  28-161.168 293.131   8
   6  -9  28 352.477 773.570   1
  -6   9 -28 47.4824 310.776   7
   6  -9  28-270.407 334.073   4
  -6   9 -29-1440.40 676.056   6
   6  -9  29-18.3721 342.882   4
   6  -9  29-542.933 862.889   1
  -6   9 -29-337.500 326.550   7
  -6   9 -30-239.012 654.054   6
   6  -9  30-223.612 918.189   1
  -6   9 -30 65.1184 325.580   7
   6  -9  30-387.942 343.604   4
  -7   9  -1-902.509 874.167   6
  -7   9  -2-27.2565 659.049   6
  -7   9  -3 682.506 604.528   6
   7  -9   3 810.156 351.356   1
   7  -9   4 313.068 346.188   1
  -7   9  -4 920.713 244.619   7
  -7   9  -4-105.869 516.565   6
   7  -9   5-50.0156 320.639   1
  -7   9  -5-59.5577 221.490   7
  -7   9  -5-399.874 489.154   6
  -7   9  -6-57.9794 474.060   6
  -7   9  -6 132.284 256.529   7
   7  -9   7 17.5650 330.291   1
  -7   9  -7-277.120 217.862   7
  -7   9  -7 190.135 434.262   6
   7  -9   8 1236.56 394.950   1
  -7   9  -8 1240.42 277.919   7
  -7   9  -8 822.787 495.885   6
  -7   9  -9 48.5919 219.848   7
  -7   9  -9-187.988 454.543   6
   7  -9   9-37.0257 338.518   1
  -7   9 -10 723.708 482.058   6
  -7   9 -13-12.2822 222.797   7
   7  -9  13-20.6157 396.943   1
   9  -7  13-347.380 359.651   1
   9  -7  14 39.5506 362.658   1
   7  -9  14-85.5679 412.323   1
  -9   7 -14-68.0822 233.971   7
   7  -9  14 25.1221 216.194   4
  -7   9 -14 12.4372 222.717   7
  -9   7 -14 453.498 452.665   6
  -7   9 -14-468.455 472.298   6
   9  -7  15-783.458 419.477   1
   7  -9  15-363.392 249.148   4
  -9   7 -15-247.134 273.768   7
  -7   9 -15-252.230 260.277   7
  -9   7 -15-1589.84 546.245   6
  -7   9 -15-873.844 535.133   6
   9  -7  16 40.8350 416.352   1
  -9   7 -16 13.8481 271.468   7
  -7   9 -16-422.549 264.644   7
   7  -9  16-321.947 253.890   4
   7  -9  16-449.491 493.373   1
  -9   7 -16-896.369 548.450   6
  -7   9 -16-797.141 564.047   6
   9  -7  17-62.7793 394.241   1
   7   9  17-18.5504 422.679   5
  -9   7 -17-251.778 258.773   7
  -7   9 -17-12.8916 242.887   7
   7  -9  17-13.8402 246.354   4
   7  -9  17 530.086 443.657   1
  -9   7 -17-147.876 505.223   6
  -7   9 -17 43.8145 531.042   6
   9  -7  18 659.733 413.567   1
   7   9  18 317.785 446.533   5
  -9   7 -18 14.1439 266.771   7
  -7   9 -18 288.609 256.602   7
   9  -7  18 121.288 308.341   4
   7  -9  18 328.018 257.647   4
  -9   7 -18 131.209 521.726   6
   7  -9  18 191.937 472.670   1
  -7   9 -18 362.442 554.607   6
   9  -7  19 21.6388 400.915   1
   7   9  19 654.615 447.349   5
  -7   9 -19 93.5685 252.264   7
  -9   7 -19 157.507 263.834   7
   9  -7  19-225.518 306.442   4
   7  -9  19 73.5258 259.386   4
  -7  -9 -19-688.505 545.138   2
  -9   7 -19-22.2843 569.102   6
   7  -9  19 468.212 474.409   1
  -7   9 -19 212.411 571.185   6
  -7   9 -20 119.757 592.118   6
  -9   7 -20 754.570 291.320   7
   9  -7  20 396.170 438.977   1
   7   9  20 784.291 461.519   5
   7  -9  20 608.147 510.214   1
   9  -7  20 17.3493 312.036   4
  -9   7 -20 1075.01 589.975   6
  -7   9 -20 694.818 276.649   7
   7  -9  20 181.016 270.706   4
  -7  -9 -20 945.583 585.396   2
  -7   9 -21 221.961 606.212   6
  -7  -9 -21 53.0759 329.604   3
   9  -7  21 626.810 449.288   1
   7   9  21-18.6619 447.828   5
   7  -9  21 52.1824 509.475   1
  -9   7 -21 73.0886 271.949   7
   9  -7  21-224.994 313.223   4
  -7   9 -21 166.812 260.073   7
   7  -9  21 15.4532 266.416   4
  -7  -9 -21-462.071 588.525   2
  -9   7 -21-930.945 624.308   6
  -7   9 -22-912.891 676.476   6
   7  -9  22 53.7927 573.978   1
  -7  -9 -22 814.313 355.463   3
   9  -7  22-529.231 483.233   1
   7   9  22-74.7654 457.089   5
  -9   7 -22 789.266 624.801   6
   9  -7  22 223.496 322.083   4
  -9   7 -22 103.933 278.038   7
  -7   9 -22 496.470 296.845   7
   7  -9  22 317.355 305.181   4
  -7  -9 -22 374.876 613.285   2
  -7   9 -23 461.686 639.080   6
   7  -9  23 194.476 548.717   1
  -7  -9 -23-48.6210 319.698   3
   9  -7  23-46.8285 460.123   1
   7   9  23-581.607 457.795   5
   7   9  23 251.553 231.494   8
   7  -9  23-469.097 303.045   4
  -7   9 -23 101.395 277.350   7
   9  -7  23-119.183 312.695   4
  -9   7 -23-45.2988 285.629   7
  -7  -9 -23 1031.14 629.533   2
  -9   7 -23 120.361 604.024   6
  -7   9 -24 309.128 642.133   6
   7   9  24 99.0794 251.470   8
   7  -9  24-201.219 584.734   1
  -7  -9 -24 533.912 315.224   3
   9  -7  24 547.875 472.713   1
   7   9  24 93.8629 468.445   5
  -7   9 -24 251.221 291.759   7
  -7  -9 -24 767.309 638.403   2
  -9   7 -24 353.521 306.358   7
   9  -7  24 420.660 315.070   4
   7  -9  24 330.876 310.264   4
  -9   7 -24 884.674 636.734   6
  -9   7 -25 580.820 653.037   6
  -7   9 -25-832.394 648.131   6
   7  -9  25 59.6091 605.390   1
  -7  -9 -25-15.3527 295.926   3
   9  -7  25 412.104 475.174   1
   7   9  25-56.3945 449.949   5
  -7   9 -25 15.0800 283.703   7
  -9   7 -25 203.582 300.659   7
   9  -7  25 199.561 289.055   4
   7   9  25-256.271 265.771   8
   7  -9  25-101.947 310.700   4
  -7  -9 -25-1139.98 679.477   2
  -9   7 -26-897.739 714.752   6
  -7   9 -26-2035.80 786.244   6
   7  -9  26-247.696 637.673   1
  -7  -9 -26 90.2626 309.039   3
   9  -7  26-468.747 519.967   1
   7   9  26-1000.99 506.735   5
   7   9  26 119.362 253.835   8
  -9   7 -26-15.9772 319.188   7
  -7   9 -26-784.245 322.355   7
   9  -7  26-196.226 302.089   4
   7  -9  26-17.3796 304.862   4
  -7  -9 -26-1531.03 727.212   2
   7  -9  27-870.486 736.689   1
   7   9  27 151.179 273.746   8
  -7   9 -27-579.563 328.353   7
   7  -9  27-334.979 355.349   4
  -7   9 -27-1389.76 715.987   6
   7  -9  28 168.186 692.096   1
  -7   9 -28 264.182 675.644   6
  -7   9 -28 159.342 332.008   7
   7  -9  28-125.575 306.742   4
   7  -9  29 457.124 739.049   1
  -7   9 -29-426.794 664.863   6
   7  -9  29 308.056 337.656   4
  -7   9 -29 485.668 335.359   7
  -7   9 -30 26.9271 681.444   6
  -7   9 -30-98.5016 336.689   7
  -8   9  -5 173.341 588.393   6
  -8   9  -6-177.987 522.153   6
   8  -9   6-641.786 343.345   1
  -8   9  -7 860.901 533.646   6
   9  -8  10-287.524 351.642   1
  -9   8 -11-207.336 454.606   6
  -8   9 -11 257.556 485.804   6
   9  -8  11 19.3858 347.148   1
   9  -8  12 98.2117 362.408   1
  -8   9 -12-237.096 244.155   7
   8  -9  12 281.398 388.021   1
  -9   8 -12 218.659 239.217   7
  -9   8 -12 267.339 444.892   6
  -8   9 -12 416.941 489.677   6
   9  -8  13-1105.84 421.170   1
   8  -9  13-266.442 427.376   1
  -8   9 -13-13.1596 246.276   7
  -9   8 -13-800.096 496.429   6
  -9   8 -13-178.715 256.067   7
   8  -9  13-229.217 237.413   4
  -8   9 -13 20.2627 519.287   6
   9  -8  14-224.573 427.212   1
   8  -9  14 302.192 277.409   4
  -9   8 -14 553.482 294.486   7
  -8   9 -14 650.746 280.356   7
   8  -9  14 63.4290 434.862   1
  -9   8 -14 380.614 516.891   6
  -8   9 -14-41.5224 559.475   6
   9  -8  15 83.6262 402.498   1
   8  -9  15 136.246 239.581   4
   8  -9  15 21.5763 411.536   1
  -9   8 -15-208.980 251.857   7
  -8   9 -15 281.839 262.496   7
  -9   8 -15 346.592 477.521   6
  -8   9 -15-42.5787 500.408   6
   9  -8  16-191.232 394.251   1
  -8   9 -16-81.4599 259.388   7
   8  -9  16 44.0640 408.212   1
  -9   8 -16 63.1841 508.461   6
  -9   8 -16-168.610 249.818   7
   8  -9  16-42.2737 249.759   4
  -8   9 -16-43.2780 530.231   6
   9  -8  17-475.259 425.446   1
   8  -9  17 626.530 284.433   4
   9  -8  17-82.3503 296.711   4
  -8   9 -17 622.822 269.879   7
  -9   8 -17 312.041 276.247   7
  -9   8 -17 457.220 532.000   6
  -8   9 -17 265.542 533.996   6
   8  -9  17-22.4940 420.583   1
   9  -8  18-461.262 417.750   1
  -8   9 -18 45.8494 560.254   6
  -9   8 -18-577.638 540.756   6
   9  -8  18-235.706 293.897   4
   8  -9  18 46.6085 460.203   1
  -9   8 -18-441.167 274.431   7
  -8   9 -18-315.807 266.575   7
   8  -9  18 195.706 269.627   4
   9  -8  19 586.988 442.888   1
   8  -9  19-23.8183 464.771   1
   8  -9  19 15.5050 273.154   4
  -8   9 -19 404.186 276.744   7
   9  -8  19 378.481 317.237   4
  -9   8 -19 302.350 274.205   7
  -9   8 -19 91.5387 580.690   6
  -8   9 -19 862.391 575.934   6
   8  -9  20-15.9334 285.400   4
   9  -8  20 275.504 439.060   1
  -9   8 -20 538.338 621.890   6
   8  -9  20-48.7136 491.836   1
  -9   8 -20 14.5860 281.954   7
  -8   9 -20 14.1624 279.792   7
   9  -8  20 175.143 304.978   4
  -8   9 -20-120.505 588.602   6
   8  -9  21 278.144 297.939   4
   8   9  21 848.770 420.918   5
   9  -8  21-257.011 467.811   1
   8  -9  21 24.9278 516.310   1
  -8   9 -21 619.281 301.873   7
  -9   8 -21 221.813 285.815   7
   9  -8  21 159.844 324.067   4
  -9   8 -21 169.363 607.995   6
  -8   9 -21 1178.77 633.101   6
  -8   9 -22 1118.26 653.399   6
  -8  -9 -22-314.478 372.867   3
   8   9  22-219.410 402.994   5
   9  -8  22-427.982 456.522   1
  -9   8 -22 375.204 285.520   7
   8  -9  22 127.664 486.972   1
   9  -8  22 447.936 336.204   4
   8  -9  22 66.7853 299.968   4
  -8   9 -22-249.163 285.534   7
  -9   8 -22 636.983 623.776   6
  -9   8 -23 276.977 636.832   6
  -8   9 -23-470.060 649.667   6
  -8  -9 -23 770.541 359.232   3
   8   9  23 690.215 406.817   5
   9  -8  23 435.725 500.088   1
  -8   9 -23 691.549 301.539   7
  -9   8 -23 579.410 302.252   7
   8  -9  23-261.741 522.129   1
   9  -8  23 287.903 339.171   4
   8  -9  23 341.134 320.052   4
  -9   8 -24 390.371 656.557   6
  -8   9 -24 52.7742 643.867   6
  -8  -9 -24 136.968 329.572   3
   8   9  24-202.544 407.437   5
   8  -9  24 276.934 332.298   4
   9  -8  24-147.911 487.502   1
  -8   9 -24 74.9225 292.228   7
  -9   8 -24-325.442 297.923   7
   8  -9  24 456.823 571.724   1
   9  -8  24-288.615 353.136   4
  -9   8 -25-1124.80 744.499   6
  -8   9 -25-702.449 752.520   6
  -8   9 -25-442.629 321.446   7
  -8  -9 -25-32.4278 320.027   3
   8   9  25-337.480 428.102   5
   9  -8  25-401.874 543.324   1
  -9   8 -25-281.202 313.764   7
   8  -9  25-1132.32 592.332   1
   9  -8  25 143.575 320.503   4
   8  -9  25 454.501 327.164   4
  -9   8 -26-319.891 697.202   6
   9  -8  26-845.052 562.651   1
  -8   9 -26-186.512 319.377   7
  -8   9 -26-540.899 716.350   6
   8  -9  26-994.314 646.349   1
  -9   8 -26 15.9016 316.680   7
   9  -8  26-445.021 345.679   4
   8  -9  26-371.757 345.570   4
  -9   8 -27-650.767 693.498   6
  -8   9 -27 244.817 713.170   6
   9  -8  27 78.3450 515.192   1
  -9   8 -27-32.3805 323.039   7
  -8   9 -27 174.001 322.900   7
   8  -9  27 351.289 600.265   1
   9  -8  27 88.3714 321.845   4
   8  -9  27 107.886 335.060   4
  -8   9 -28-652.492 704.105   6
  -8   9 -28-289.558 329.509   7
  -9   8 -28 197.900 338.982   7
   8  -9  28 211.394 621.377   1
   8  -9  28-18.1786 335.851   4
  -8   9 -29 1659.42 733.239   6
  -8   9 -29 277.813 337.806   7
   8  -9  29 311.877 672.679   1
   8  -9  29 36.3985 316.559   4
  -9   9  -9 465.324 474.087   6
   9  -9   9 58.6238 353.663   1
  -9   9 -10-20.6347 489.673   6
  -9   9 -11 307.000 528.575   6
  -9   9 -12 13.9381 268.584   7
  -9   9 -12-608.176 567.088   6
   9  -9  13 62.3050 407.146   1
  -9   9 -13 56.0075 256.493   7
  -9   9 -13 123.106 489.886   6
   9  -9  14-42.5434 411.743   1
  -9   9 -14 126.779 252.071   7
  -9   9 -14 230.074 514.217   6
  -9   9 -15 21.1588 492.687   6
   9  -9  15-151.314 417.504   1
   9  -9  15-222.412 263.573   4
  -9   9 -15-156.053 259.909   7
   9  -9  16 307.748 434.874   1
  -9   9 -16-42.5932 257.235   7
   9  -9  16 199.687 259.378   4
  -9   9 -16 304.598 531.463   6
   9  -9  17 22.5949 449.190   1
  -9   9 -17 286.595 269.069   7
   9  -9  17-15.9792 284.178   4
  -9   9 -17 22.3669 543.189   6
   9  -9  18 206.908 460.042   1
  -9   9 -18 362.028 276.336   7
   9  -9  18 49.6493 294.603   4
  -9   9 -18-205.042 569.699   6
   9  -9  19 46.8026 494.812   1
   9  -9  19 324.919 307.844   4
  -9   9 -19 559.814 627.956   6
  -9   9 -19 234.339 291.924   7
   9  -9  20 309.683 495.836   1
   9  -9  20 105.792 300.996   4
  -9   9 -20 341.244 298.829   7
  -9   9 -20 435.342 605.975   6
  -9   9 -21-283.116 298.423   7
   9  -9  21-97.0657 475.112   1
   9  -9  21 180.846 342.173   4
  -9   9 -21 73.7697 618.969   6
   9  -9  22 296.777 496.539   1
  -9   9 -22-181.435 312.096   7
   9  -9  22 166.274 335.120   4
  -9   9 -22 1193.35 648.516   6
  -9   9 -23-1029.27 697.278   6
   9  -9  23-25.5021 489.599   1
  -9   9 -23 15.3503 289.973   7
   9  -9  23 263.450 341.569   4
   9  -9  24-260.268 554.478   1
  -9   9 -24-358.623 328.011   7
   9  -9  24-152.099 369.549   4
  -9   9 -25-54.6544 713.361   6
   9  -9  25-345.586 543.159   1
  -9   9 -25 31.7007 301.886   7
   9  -9  25 19.1270 363.304   4
  -9   9 -26 307.285 727.680   6
   9  -9  26-271.729 553.932   1
   9  -9  26-76.9057 357.742   4
  -9   9 -26 257.844 321.531   7
  -9   9 -27 448.921 722.375   6
   9  -9  27-27.7940 556.472   1
  -9   9 -27-196.541 314.039   7
   9  -9  27 57.4287 337.017   4
  -9   9 -28 335.443 730.899   6
   9  -9  28-369.981 583.038   1
  -9   9 -28 33.3009 326.291   7
   9  -9  28 441.707 356.063   4
  -9   9 -29 278.313 714.984   6
   9  -9  29 1400.06 624.608   1
  -9   9 -29-372.231 350.980   7
   9  -9  29-266.789 356.571   4
   0  10   0 360.559 305.125   6
   0 -10   0-50.0419 417.902   2
   0  10   0-118.110 121.899   8
   0  10   0 12.0686 271.067   5
   0  10   0 108.726 133.314   7
   0 -10   0 8.30025 140.483   4
   0  10   1-167.321 302.254   6
   0 -10   1-617.597 402.729   2
   0  10  -1 27.6824 307.569   6
   0 -10  -1-66.8066 155.836   3
   0  10  -1 437.424 282.512   5
   0 -10  -1 83.9978 417.606   2
   0  10   1 410.284 297.101   5
   0  10   1-6.78839 116.315   8
   0 -10   1 17.2156 138.599   4
   0  10   1 154.456 138.190   7
   0  10  -1 52.6492 137.378   7
   0  10  -1 63.4342 119.392   8
   0 -10  -1-15.9855 142.957   4
   0 -10   2-90.1602 377.229   2
   0  10   2-61.9840 287.959   6
   0  10  -2 287.451 311.889   6
   0 -10  -2 8.61586 155.657   3
   0  10  -2 349.289 279.396   5
   0  10   2 268.982 302.059   5
   0 -10  -2 320.091 422.882   2
   0  10   2 55.9649 117.346   8
   0  10  -2 48.1695 104.279   8
   0  10   2 47.8889 133.060   7
   0  10  -2 353.931 154.603   7
   0 -10  -2 238.047 137.788   4
   0 -10   2 89.1198 141.739   4
   0  10   3-11.9307 279.514   6
   0  10  -3-341.791 321.003   6
   0 -10  -3-8.84235 165.141   3
   0  10  -3-55.8237 102.065   8
   0  10  -3-172.021 280.164   5
   0  10   3 39.8597 302.826   5
   0 -10  -3 151.945 418.400   2
   0  10   3-187.810 124.765   8
   0  10   3-227.726 131.177   7
   0  10  -3-123.329 146.532   7
   0 -10  -3 139.819 127.512   4
   0 -10   3-446.683 325.881   2
   0 -10   3 92.7097 161.059   4
   0  10   4 1322.28 208.382   8
   0  10   4 1193.51 325.813   6
   0  10  -4 1550.11 379.432   6
   0 -10  -4 1516.44 243.659   3
   0  10  -4 868.488 326.619   5
   0  10   4 1224.84 354.709   5
   0 -10  -4 1716.04 461.710   2
   0 -10   4 1340.21 231.509   4
   0  10   4 1639.45 212.570   7
   0  10  -4 1388.80 228.060   7
   0 -10  -4 1011.88 202.995   4
   0  10  -5 205.826 329.874   6
   0 -10  -5-55.6912 169.732   3
   0  10  -5-103.619 293.346   5
   0  10   5-242.032 321.015   5
   0 -10  -5 275.722 417.026   2
   0  10   5 30.4531 135.091   8
   0  10  -5-45.2724 160.411   7
   0 -10  -5-140.281 138.558   4
   0 -10   5 138.203 159.500   4
   0  10  -6 2039.32 432.709   6
   0 -10  -6 2046.32 301.406   3
   0  10   6 1653.79 409.261   5
   0 -10  -6 2363.18 517.438   2
   0 -10   6 2226.33 304.534   4
   0  10  -6 2327.12 297.925   7
   0  10   6 1860.36 274.286   8
   0  10  -7-234.425 348.516   6
   0 -10  -7 107.925 178.169   3
   0  10   7 91.6670 336.812   5
   0  10   7 16.5052 141.433   8
   0 -10  -7 53.9098 422.375   2
   0  10  -7-255.944 178.496   7
   0 -10   7-125.431 165.447   4
   0 -10   8 2051.01 301.201   4
   0  10  -8 1825.04 429.398   6
   0 -10  -8 1590.80 295.257   3
   0  10   8 980.612 415.138   5
   0  10   8 2221.22 282.198   8
   0 -10  -8 919.822 494.082   2
   0  10  -8 2700.42 309.316   7
   0 -10   9-165.994 185.732   4
   0  10  -9 35.3673 371.094   6
   0 -10  -9 165.483 185.854   3
   0  10   9 65.6290 354.504   5
   0  10   9-231.067 160.534   8
   0 -10  -9-113.102 461.991   2
   0  10  -9-262.289 189.374   7
   0 -10  10 770.242 217.202   4
   0  10 -10 471.747 399.188   6
   0 -10 -10 202.012 211.270   3
   0  10  10-307.907 416.967   5
   0  10  10 794.968 184.527   8
   0 -10 -10-155.142 503.491   2
   0  10 -10 21.7064 212.812   7
   0 -10  11 23.1493 207.454   4
   0  10 -11 426.237 428.111   6
   0  10  11 808.205 219.040   8
   0 -10 -11 196.897 231.893   3
   0  10 -11 11.0492 217.760   7
   0 -10  12 59.3439 197.770   4
   0  10 -12-113.867 395.840   6
   0 -10 -12 20.5453 502.142   2
   0 -10 -12 78.8214 210.954   3
   0  10  12 182.852 405.891   5
   0  10  12-88.4482 178.384   8
   0  10 -12-11.1906 191.331   7
   0 -10  13 24.1707 206.306   4
   0  10 -13-135.946 400.516   6
   0 -10 -13 69.6679 218.762   3
   0  10  13 18.9453 430.044   5
   0  10  13 10.1077 177.969   8
   0 -10 -13-169.676 510.692   2
   0  10 -13 101.563 192.966   7
   0 -10  14-171.979 197.081   4
   0  10 -14 79.0828 417.211   6
   0  10  14 296.086 441.840   5
   0 -10 -14-239.447 223.463   3
   0 -10 -16 211.525 574.496   2
   0  10  16 76.8757 204.219   8
   0  10  17-671.059 486.231   5
   0 -10  17 38.6050 204.045   4
   0 -10 -17-53.1191 232.734   3
   0  10  17 203.118 214.394   8
   0  10 -17-235.751 196.137   7
   0 -10  18 221.433 224.386   4
   0  10  18-22.3670 507.952   5
   0 -10 -18 234.126 255.985   3
   0  10  18 11.7983 213.479   8
   0  10 -18 246.515 217.133   7
   0 -10 -19-429.305 292.466   3
   0  10  19 48.4545 231.552   8
   0  10  20 757.968 533.541   5
   0 -10 -20 609.504 285.728   3
   0  10  20 932.066 262.073   8
   0  10  21 229.372 243.547   8
   0  10  21-460.675 549.920   5
   0 -10 -21 77.3876 274.797   3
   0  10  22 1022.23 553.870   5
   0  10  22 574.502 261.338   8
   0 -10 -22 223.587 296.774   3
   0  10  23 305.768 565.801   5
   0 -10 -23-316.081 294.151   3
   0  10  23-106.923 249.071   8
   0  10  24 469.916 591.820   5
   0 -10 -24 655.220 333.813   3
   0  10  24 396.233 285.092   8
   0  10  25-191.926 263.810   8
   0  10  25-238.767 597.140   5
   0 -10 -25 36.0759 333.882   3
   0 -10 -26-319.036 345.252   3
   0  10  26-55.9108 259.786   8
   0  10  26 378.497 598.988   5
   0 -10 -26 614.008 974.102   2
   0  10  27 14.2288 269.544   8
   0  10  27-300.956 630.970   5
   0 -10 -27 58.6331 350.004   3
   0 -10 -27 1021.41 1044.89   2
   0  10  28-1163.62 678.121   5
   0  10  28-404.625 308.630   8
   0 -10 -28-40.5100 378.585   3
   0 -10 -28-566.286 1183.26   2
   0 -10 -29 210.388 372.225   3
   0  10  29 110.868 626.548   5
   0  10  29-556.756 306.773   8
   0 -10 -29 232.427 1203.18   2
   0 -10 -30-49.5892 1246.42   2
   0 -10 -30-259.873 395.433   3
   0  10  30-266.717 283.040   8
   0  10  30 139.177 631.002   5
   0  10  31 149.421 304.855   8
   0  10  31-55.5430 628.711   5
   0 -10 -31 1055.88 1348.22   2
   0 -10 -31-713.831 415.781   3
   0 -10 -32 785.183 1473.95   2
   0 -10 -32 159.069 392.298   3
   0  10  32 496.180 313.789   8
  -1 -10   0-359.715 421.837   2
  -1  10   0 372.997 317.449   6
  -1 -10   0 8.12470 138.529   4
  -1  10   0 282.574 123.225   8
   1  10   0 461.102 328.835   5
   1 -10   0 158.022 152.881   3
  -1  10   0 434.137 274.442   5
   1 -10   0 650.103 405.549   2
   1  10   0 303.788 119.102   8
  -1  10   0 311.216 148.763   7
   1  10   0 402.453 159.994   7
   1 -10   0 300.844 148.535   4
  -1  10   1 335.480 303.525   6
  -1  10  -1-358.976 324.783   6
  -1 -10   1 33.8129 139.360   4
  -1 -10  -1-116.479 130.753   4
  -1 -10  -1 344.067 434.551   2
   1  10  -1-31.0589 320.254   6
   1 -10   1 144.681 156.130   3
   1  10  -1 280.473 323.113   5
   1  10   1-196.435 305.847   5
   1 -10  -1 65.3375 146.698   3
  -1  10  -1-109.569 257.972   5
   1 -10   1-60.1049 388.572   2
  -1  10   1-178.192 275.720   5
   1  10   1 20.7468 117.843   8
  -1  10  -1 105.515 117.890   8
  -1  10   1-165.266 124.192   8
   1  10  -1-43.3322 106.192   8
   1 -10  -1-30.5714 398.735   2
  -1  10   1 232.134 148.082   7
  -1  10  -1-184.878 147.498   7
   1  10   1 7.47613 144.289   7
   1  10  -1-53.7291 167.297   7
   1 -10  -1 85.6384 139.414   4
   1 -10   1-59.0858 142.861   4
  -1 -10   1 232.912 368.474   2
  -1  10   2-12.4097 300.006   6
  -1  10  -2 85.7273 315.614   6
  -1 -10   2 140.164 149.174   4
  -1 -10  -2 257.903 126.806   4
  -1 -10  -2 613.376 450.267   2
   1  10  -2 204.870 325.638   6
   1 -10   2 7.35124 140.747   3
   1  10  -2 858.527 339.876   5
   1 -10   2 88.8799 394.369   2
   1  10   2 425.582 318.049   5
   1 -10  -2 178.120 164.337   3
  -1  10  -2-10.5301 252.446   5
  -1  10   2 24.7598 280.687   5
   1  10   2 286.832 136.264   8
  -1  10   2 239.538 130.373   8
  -1  10  -2 185.537 117.911   8
   1 -10  -2 545.824 401.438   2
  -1  10  -2 39.2858 140.692   7
   1  10   2 269.741 143.773   7
   1  10  -2 203.585 170.282   7
   1 -10  -2 367.009 149.711   4
   1 -10  -2 331.595 271.778   1
   1 -10   2 324.050 162.147   4
  -1 -10   2 119.288 308.028   2
  -1  10   2 155.331 145.144   7
  -1  10   3 437.418 140.886   8
  -1  10   3 35.7379 298.094   6
   1  10   3 500.671 133.938   8
  -1 -10   3 27.1359 140.645   4
  -1  10  -3 573.988 338.673   6
  -1 -10  -3 6.94665 120.599   4
   1 -10   3 482.643 380.201   2
   1  10  -3-224.502 331.216   6
   1 -10   3 299.167 148.226   3
   1  10  -3 475.697 348.634   5
  -1 -10  -3 242.589 438.191   2
   1  10   3-287.681 321.093   5
  -1  10  -3-272.719 248.368   5
   1 -10  -3 140.162 166.516   3
  -1  10   3 25.7471 288.337   5
  -1  10  -3 217.474 115.239   8
   1 -10  -3 158.748 411.534   2
  -1  10   3 94.9358 144.340   7
   1 -10  -3 161.827 258.555   1
  -1  10  -3 193.246 148.822   7
   1  10   3 233.185 139.640   7
   1 -10  -3 187.306 134.355   4
   1  10  -3 52.5561 183.043   7
   1 -10   3 145.316 156.127   4
  -1  10   4 673.225 297.255   6
   1 -10   4 290.912 337.019   2
  -1 -10   4 260.773 154.018   4
  -1  10  -4 334.259 344.843   6
   1 -10   4 507.235 150.070   3
   1  10  -4 637.611 335.411   6
   1  10  -4 174.384 368.835   5
   1  10   4 235.842 327.874   5
  -1 -10  -4-130.463 446.073   2
  -1  10  -4 241.632 249.059   5
   1 -10  -4 172.002 167.504   3
  -1  10   4 294.989 313.666   5
   1  10   4 607.495 145.329   8
   1 -10  -4 422.921 414.921   2
  -1  10  -4 397.150 167.621   7
   1  10   4 326.600 134.416   7
   1 -10  -4-13.8408 139.061   4
   1  10  -4 11.3024 195.571   7
   1 -10   4 198.948 166.905   4
  -1  10   4 242.739 150.439   7
  -1  10   4 147.568 135.768   8
  -1  10  -4 197.967 110.141   8
   1 -10  -4-152.016 256.437   1
  -1 -10   5 832.210 208.592   4
  -1  10  -5 689.363 373.541   6
  -1 -10  -5 1461.80 232.315   3
   1 -10   5 1088.04 196.406   3
   1  10  -5 1542.20 467.891   5
   1  10   5 1536.80 384.462   5
  -1  10  -5 1088.39 285.741   5
   1 -10  -5 1168.53 286.741   1
  -1 -10  -5 615.192 463.707   2
   1 -10  -5 1028.48 230.277   3
  -1  10   5 912.379 347.612   5
  -1  10  -5 1039.29 166.602   8
   1  10   5 1524.36 213.460   8
  -1  10   5 1364.81 206.218   8
   1 -10  -5 937.660 451.403   2
  -1  10  -5 1413.09 215.605   7
   1 -10  -5 950.155 192.861   4
   1  10  -5 1779.16 280.675   7
   1 -10   5 1540.37 235.618   4
   1 -10   5 538.499 304.984   2
  -1 -10   6 382.240 174.363   4
  -1  10  -6-80.8794 361.876   6
  -1 -10  -6 1011.40 225.122   3
   1  10  -6 947.463 512.280   5
   1  10   6 278.660 367.983   5
   1 -10  -6 338.134 183.893   3
  -1  10   6 788.963 348.625   5
   1  10   6 360.142 173.115   8
  -1  10   6 349.818 164.093   8
   1 -10  -6 396.905 438.880   2
  -1  10  -6 395.330 169.107   7
   1  10  -6 551.190 235.730   7
   1 -10   6 751.303 202.449   4
  -1 -10   7 1212.81 246.045   4
  -1  10  -7 1863.98 437.968   6
  -1 -10  -7 1906.25 280.388   3
   1  10   7 830.266 398.792   5
   1 -10  -7 1687.38 272.030   3
  -1  10   7 1330.46 394.177   5
   1  10   7 1882.16 247.736   8
  -1 -10  -7 1088.87 495.044   2
  -1  10   7 1436.44 243.540   8
   1 -10   7 1705.46 269.500   4
   1 -10  -7 2033.69 497.271   2
  -1  10  -7 1451.72 248.724   7
   1  10  -7 1787.93 310.490   7
  -1 -10   8 225.079 167.469   4
  -1  10  -8 393.479 368.954   6
  -1 -10  -8-91.7376 181.717   3
   1  10   8-280.902 358.617   5
   1 -10  -8 371.477 193.326   3
  -1  10   8-94.3579 341.695   5
   1  10   8 279.955 154.217   8
  -1  10   8 44.1628 152.964   8
  -1 -10  -8-18.9397 443.400   2
  -1  10  -8 37.3713 162.250   7
   1  10  -8 369.865 232.267   7
   1 -10   8 206.562 183.949   4
  -1 -10   9 972.120 218.948   4
  -1  10  -9 334.573 421.285   6
  -1 -10  -9 1252.09 242.199   3
   1  10   9 1021.78 403.711   5
   1 -10  -9 1110.33 239.728   3
  -1  10   9 707.290 380.894   5
  -1  10   9 958.155 209.920   8
   1  10   9 1111.71 211.511   8
  -1  10  -9 973.063 225.647   7
   1  10  -9 1289.76 277.158   7
   1 -10   9 1076.74 244.463   4
  -1 -10  -9 711.717 485.229   2
  -1  10  10-820.668 416.052   5
   1 -10 -10-331.181 219.958   3
  -1 -10  10-127.569 170.592   4
  -1  10 -10-270.965 423.251   6
  -1 -10 -10-319.550 223.013   3
   1  10  10-1196.04 475.516   5
  -1  10  10 9.42674 172.015   8
   1  10  10-197.495 181.508   8
  -1  10 -10-347.127 193.674   7
   1  10 -10 92.6350 227.705   7
   1 -10  10-221.651 205.256   4
  -1  10 -11-166.622 460.625   6
  -1 -10 -11-404.546 245.939   3
   1 -10 -11-34.3078 224.584   3
   1  10  11-202.262 200.351   8
  -1  10  11 58.4076 180.757   8
  -1  10  11-495.234 436.577   5
  -1  10 -11-10.1882 197.562   7
   1  10 -11 300.272 244.370   7
  -1 -10 -11 640.931 582.846   2
   1 -10  11-156.037 225.942   4
  -1  10  12 18.3688 401.693   5
  -1  10 -12-114.103 418.832   6
  -1 -10 -12 134.114 211.527   3
   1  10  12 728.037 420.558   5
   1 -10 -12 154.116 215.619   3
   1  10  12 9.41688 171.325   8
  -1  10  12 20.4819 179.854   8
  -1 -10 -12 20.4263 506.179   2
  -1  10 -12 20.8810 185.663   7
   1 -10  12 73.9857 197.476   4
  -1  10 -13 350.186 423.226   6
  -1  10  13-284.392 420.050   5
  -1 -10 -13 251.735 214.723   3
   1  10  13 173.421 435.327   5
   1 -10 -13 73.8147 213.192   3
   1  10  13 59.0261 175.967   8
  -1  10  13 73.9618 191.280   8
  -1  10 -13-74.7231 191.801   7
   1 -10  13-76.3573 218.004   4
   1 -10  14 78.1809 233.719   4
  -1  10 -14 258.511 427.185   6
  -1 -10 -14 93.8211 219.435   3
   1  10  14-139.881 449.278   5
  -1  10  14-19.6664 429.139   5
   1 -10 -14-63.8395 227.620   3
   1  10  16 274.954 193.887   8
  -1 -10 -16 22.5443 546.045   2
  -1  10 -16 213.835 207.668   7
   1 -10  17-83.4386 224.802   4
  -1  10 -17 63.0315 447.557   6
  -1 -10 -17-76.3791 238.933   3
   1  10  17 21.8999 496.207   5
  -1  10  17 172.771 475.629   5
  -1 -10 -17 510.300 600.309   2
   1 -10 -17 258.016 256.795   3
  -1  10 -17 11.4130 210.645   7
   1  10  17 10.8303 193.195   8
  -1  10  17 333.746 222.181   8
   1 -10  18-369.188 265.367   4
  -1  10 -18 149.905 488.788   6
   1  10  18-463.715 230.458   8
  -1  10  18-1473.03 554.214   5
  -1  10  18 24.5358 234.484   8
   1 -10 -18-295.578 279.146   3
  -1 -10 -18-1051.90 648.865   2
   1  10  18-1714.05 592.808   5
  -1  10 -18 46.2368 221.740   7
  -1 -10 -18-157.351 260.589   3
   1 -10  19 316.656 253.810   4
  -1  10 -19-239.920 477.054   6
   1  10  19-947.656 585.428   5
  -1 -10 -19 487.685 274.654   3
   1  10  19 185.261 231.740   8
  -1  10  19-297.969 521.848   5
   1 -10 -19 338.399 286.831   3
  -1  10 -19 268.979 233.462   7
  -1  10  19 479.560 256.934   8
   1 -10  20-293.571 245.031   4
  -1  10 -20 132.680 474.532   6
  -1 -10 -20-252.392 269.563   3
  -1  10  20-181.685 243.138   8
  -1 -10 -20 971.997 650.739   2
  -1  10  20-377.845 507.299   5
   1  10  20 166.410 529.799   5
   1 -10 -20 47.7727 282.111   3
   1  10  20 248.813 233.141   8
  -1  10 -20 141.846 233.474   7
   1 -10 -21 447.341 313.021   3
   1 -10  21 636.790 277.687   4
  -1 -10 -21 363.219 285.196   3
   1  10  21 763.623 248.774   8
  -1  10  21 461.302 536.101   5
  -1  10  21 253.330 254.133   8
  -1 -10 -21 291.553 673.244   2
  -1  10 -21 656.913 250.920   7
   1  10  21 656.201 570.037   5
   1 -10  22 223.605 254.081   4
  -1 -10 -22 150.871 281.523   3
   1  10  22-471.821 578.476   5
   1  10  22 12.3934 219.626   8
  -1  10  22-24.7637 554.074   5
   1 -10 -22 415.189 309.841   3
  -1 -10 -22 1292.83 716.523   2
  -1  10 -22-96.4933 224.779   7
  -1  10  22-205.236 271.647   8
   1 -10  23 240.274 260.362   4
  -1  10  23 42.0935 269.417   8
   1  10  23 531.868 254.856   8
   1  10  23 1299.50 598.621   5
  -1  10  23 1215.93 579.111   5
  -1 -10 -23 219.461 283.309   3
   1 -10 -23 17.9672 318.846   3
  -1 -10 -23 486.069 728.622   2
  -1  10 -23 340.931 238.607   7
  -1  10 -24-110.622 251.434   7
  -1 -10 -24 195.810 312.859   3
   1  10  24 90.5198 253.480   8
  -1  10  24-129.288 286.206   8
   1  10  24-233.650 602.005   5
  -1  10  24 102.937 551.054   5
   1 -10 -24 37.3553 327.775   3
  -1 -10 -24 982.574 824.860   2
  -1  10  25 279.091 280.306   8
  -1 -10 -25-434.544 791.489   2
   1  10  25 277.023 256.787   8
   1  10  25-478.298 617.929   5
  -1  10  25 287.757 573.819   5
  -1 -10 -25-185.327 291.101   3
   1 -10 -25 154.591 349.332   3
  -1  10  26 78.8358 571.047   5
   1  10  26-189.201 610.013   5
   1  10  26-147.942 260.937   8
  -1 -10 -26 436.856 337.700   3
  -1  10  26-119.875 293.723   8
  -1 -10 -26-193.974 817.479   2
   1 -10 -26-80.1589 359.410   3
   1  10  27 82.1526 261.157   8
   1  10  27-165.389 628.661   5
  -1  10  27 625.573 304.393   8
  -1  10  27-212.104 581.498   5
  -1 -10 -27-164.068 335.799   3
  -1 -10 -27-337.626 866.693   2
   1 -10 -27-412.223 375.809   3
   1  10  28-264.472 279.425   8
   1  10  28-306.842 684.711   5
  -1  10  28-743.796 649.524   5
  -1 -10 -28-572.484 401.098   3
  -1 -10 -28-2045.47 992.084   2
   1 -10 -28-591.137 418.015   3
  -1  10  28-185.954 334.082   8
   1  10  29 27.7256 267.657   8
   1  10  29-424.633 659.464   5
  -1  10  29 439.330 316.516   8
  -1 -10 -29-368.400 965.838   2
  -1 -10 -29-79.4662 366.520   3
   1 -10 -29 21.6408 365.095   3
   1  10  30 337.384 281.192   8
  -1 -10 -30-41.4010 403.233   3
  -1  10  30 233.044 300.324   8
   1 -10 -30-658.224 391.163   3
   1  10  30-256.783 645.815   5
  -1  10  31 297.025 320.025   8
   1  10  31 656.453 654.635   5
  -1 -10 -31-880.785 1087.39   2
  -1 -10 -31 343.243 384.123   3
   1  10  31 298.873 284.384   8
   1  10  32 489.021 300.827   8
   1  10  32-544.763 677.354   5
  -1 -10 -32 155.843 413.850   3
  -1 -10 -32-83.1789 1109.85   2
   1  10  33 85.8549 669.345   5
  -1 -10 -33 457.494 427.588   3
  -2  10   0 595.009 341.936   6
   2  10   0 273.864 364.085   5
  -2  10   0 576.993 140.785   8
   2 -10   0 575.743 177.511   3
  -2  10   0 674.995 293.078   5
  -2  10   0 686.481 187.760   7
   2 -10   0 438.312 395.609   2
   2 -10   0 701.305 172.303   4
   2 -10   0 363.371 293.388   1
   2  10   0 1008.16 323.747   7
  -2  10   1 806.131 344.558   6
  -2  10  -1 592.985 351.830   6
   2 -10   1 1193.91 327.287   1
   2  10  -1 448.902 368.901   5
   2  10   1 190.771 342.462   5
   2 -10   1 459.262 170.276   3
  -2  10  -1 436.606 284.269   5
   2 -10  -1 692.185 184.110   3
  -2  10   1 680.599 303.212   5
  -2  10   1 546.621 143.191   8
   2 -10  -1 799.176 408.682   2
  -2  10   1 520.074 178.067   7
  -2  10  -1 493.174 166.075   7
   2 -10  -1 462.532 165.075   4
   2 -10   1 671.945 179.037   4
   2 -10   1 512.855 389.248   2
   2  10   1 697.944 265.971   7
   2  10  -1 1219.74 374.807   7
  -2  10  -1 489.806 132.141   8
  -2 -10  -1 434.103 399.565   2
   2 -10  -1 689.225 293.853   1
  -2  10  -2 148.743 338.459   6
   2  10   2 248.236 131.356   8
   2  10  -2 525.594 396.767   5
   2  10   2 158.383 341.734   5
   2 -10   2 121.869 150.952   3
   2 -10   2 449.085 320.366   1
  -2  10  -2 10.6948 263.301   5
   2 -10  -2 133.165 176.678   3
  -2  10   2 557.866 294.260   5
   2 -10   2 149.355 376.702   2
   2 -10  -2-13.0526 266.277   1
  -2  10   2 240.588 158.272   7
   2 -10  -2 464.344 150.595   4
  -2  10  -2 176.086 160.838   7
   2 -10  -2 14.9972 388.542   2
   2 -10   2 448.945 162.204   4
   2  10   2 367.842 214.286   7
   2  10  -2 863.615 444.634   7
  -2  10  -2 419.981 129.279   8
  -2  10   2 245.195 132.563   8
  -2  10   2 91.2749 319.910   6
  -2 -10  -2 601.786 433.797   2
  -2  10  -3 1180.00 389.799   6
  -2 -10  -3 1201.28 478.194   2
   2  10   3 540.957 362.382   5
   2 -10  -3 517.561 271.642   1
   2 -10   3 783.466 184.446   3
   2 -10   3-735.130 399.684   2
  -2  10  -3 847.137 279.221   5
   2 -10  -3 727.432 200.617   3
   2  10   3 846.729 166.205   8
   2 -10   3 838.277 190.671   4
  -2  10   3 580.711 157.548   8
  -2  10   3 502.792 173.980   7
   2 -10  -3 897.762 174.544   4
  -2  10  -3 830.541 183.433   7
  -2  10   3 718.092 317.462   5
  -2  10  -3 817.911 149.236   8
   2  10   3 914.914 204.439   7
   2  10  -3 1754.82 555.378   7
  -2  10   3 209.493 313.747   6
  -2  10  -4 47.8503 358.002   6
  -2 -10  -4-525.673 472.308   2
   2  10   4 225.351 358.118   5
   2 -10   4 155.562 355.554   2
   2 -10   4-70.3642 150.596   3
  -2  10  -4-512.632 266.723   5
   2  10   4 92.6668 133.407   8
  -2  10  -4 262.530 113.822   8
  -2  10   4 84.3383 146.273   8
  -2  10   4 183.759 145.791   7
   2 -10  -4 115.728 145.946   4
  -2  10  -4 94.4879 155.922   7
   2 -10   4 84.4162 160.060   4
  -2  10   4-83.1248 309.172   5
   2 -10  -4 46.4134 236.400   1
  -2  10   4 310.324 307.412   6
   2 -10  -4 38.2625 169.939   3
  -2  10  -5 1261.01 400.599   6
  -2 -10  -5 839.260 484.229   2
   2  10   5 557.957 370.347   5
   2  10   5 773.558 174.079   8
  -2  10   5 258.601 330.174   5
   2 -10  -5 983.664 214.411   3
  -2  10   5 933.297 179.412   8
   2 -10  -5 1094.14 261.750   1
  -2  10   5 688.933 173.515   7
   2 -10  -5 770.571 170.704   4
  -2  10  -5 804.787 191.512   7
   2 -10   5 825.160 201.667   4
  -2  10   5 450.343 308.559   6
  -2  10  -6 300.626 375.948   6
   2  10   6 678.589 163.090   8
  -2 -10  -6 204.540 467.577   2
   2  10   6 217.541 356.892   5
  -2  10   6 538.241 330.424   5
  -2  10   6 337.284 161.172   8
  -2  10  -6 338.999 169.555   7
   2 -10   6 303.512 172.795   4
   2 -10  -6 237.385 187.845   3
  -2  10  -7 959.113 407.743   6
  -2 -10  -7 20.4572 472.915   2
   2  10   7 579.984 378.220   5
  -2  10  -7 647.980 192.559   7
   2  10   7 631.998 170.083   8
  -2  10   7 77.7612 322.799   5
   2 -10  -7 836.524 217.064   3
  -2  10   7 552.796 177.777   8
   2 -10   7 785.318 203.863   4
  -2  10  -8-104.783 395.122   6
   2  10   8 209.154 381.737   5
  -2 -10  -8 939.866 504.627   2
  -2  10   8 16.0800 359.422   5
   2  10   8 759.708 182.408   8
   2 -10  -8 623.907 217.662   3
  -2  10   8 582.853 193.500   8
  -2  10  -8 607.725 194.671   7
   2 -10   8 1083.22 222.185   4
   2  10   9 248.501 162.752   8
  -2  10   9 233.944 352.476   5
  -2  10  -9 53.6654 407.466   6
  -2 -10  -9 304.195 198.168   3
   2  10   9 89.6058 390.517   5
  -2 -10  -9-20.4855 486.154   2
   2 -10  -9 127.406 211.307   3
  -2  10   9 517.896 184.222   8
  -2  10  -9 450.759 181.764   7
   2 -10   9 213.981 196.952   4
   2  10  10 163.335 191.291   8
  -2  10 -10 1098.63 511.530   6
  -2 -10 -10 712.159 249.442   3
   2  10  10 1416.06 496.061   5
  -2 -10 -10 123.540 562.713   2
  -2  10  10 1139.44 403.255   5
   2 -10 -10 951.459 253.599   3
  -2  10  10 139.010 187.912   8
  -2  10 -10 78.7728 203.922   7
   2 -10  10 791.527 240.192   4
  -2  10 -11-74.6752 426.582   6
  -2 -10 -11 146.551 217.041   3
   2  10  11 417.177 432.888   5
   2  10  11-327.180 178.801   8
   2 -10 -11 12.5126 224.449   3
  -2  10  11 241.067 189.162   8
  -2  10  11 609.249 388.604   5
  -2  10 -11 182.201 193.344   7
   2 -10  11 145.210 212.061   4
  -2  10  12-278.789 403.523   5
  -2  10 -12-114.510 422.442   6
  -2 -10 -12 263.723 212.222   3
   2  10  12 291.812 430.610   5
  -2  10  12-129.940 193.445   8
   2 -10  12-12.4889 190.637   4
   2  10  12 200.572 179.820   8
   2 -10 -12 182.204 237.039   3
  -2  10 -12 51.9696 187.956   7
  -2  10 -13-117.247 439.236   6
  -2 -10 -13 175.422 228.055   3
   2  10  13 739.714 465.150   5
  -2  10  13 440.374 404.646   5
  -2  10  13 100.589 202.097   8
  -2  10 -13 85.3290 190.409   7
   2 -10 -13 295.071 244.811   3
   2 -10  13 787.611 253.112   4
  -2  10 -14 438.929 457.122   6
  -2 -10 -14 514.160 235.400   3
   2  10  14 245.704 462.928   5
   2 -10 -14 13.9528 250.232   3
  -2  10  14 396.496 424.499   5
   2 -10  14 212.733 237.143   4
  -2 -10 -16-424.551 537.739   2
  -2  10 -16-114.710 207.736   7
   2  10  16-125.240 190.493   8
  -2  10 -17-21.2635 465.893   6
  -2 -10 -17 12.6835 235.325   3
   2  10  17-221.552 503.386   5
  -2  10 -17 70.3707 221.592   7
  -2  10  17-345.892 462.933   5
   2  10  17 85.2669 192.356   8
   2 -10 -17 171.574 275.483   3
  -2 -10 -17 250.806 561.367   2
   2 -10  17 14.5205 232.873   4
  -2 -10 -18-442.735 650.217   2
  -2  10 -18 151.573 510.485   6
   2  10  18 10.9840 211.698   8
  -2 -10 -18 77.8435 269.207   3
  -2  10  18 845.621 527.377   5
  -2  10  18 324.323 270.406   8
   2 -10 -18-227.682 309.682   3
  -2  10 -18 323.443 253.390   7
   2 -10  18 29.8838 260.565   4
   2  10  19 145.785 209.800   8
  -2  10 -19 989.028 496.650   6
  -2 -10 -19 146.210 251.966   3
   2  10  19 23.1141 528.219   5
  -2 -10 -19 23.8586 604.263   2
  -2  10  19-274.382 466.741   5
  -2  10  19 400.609 261.594   8
   2 -10 -19 16.8677 295.638   3
  -2  10 -19 623.459 246.300   7
   2 -10  19 182.949 262.273   4
   2 -10  20 374.751 279.179   4
   2  10  20 217.526 216.429   8
  -2  10 -20 536.500 505.214   6
  -2 -10 -20 273.037 258.204   3
   2  10  20 499.698 550.411   5
  -2 -10 -20 98.6427 618.400   2
  -2  10  20 653.441 494.006   5
   2 -10 -20 70.0646 298.660   3
  -2  10 -20 211.863 235.315   7
  -2  10  20 302.246 261.594   8
   2 -10  21-15.8614 260.785   4
   2 -10 -21 398.428 319.402   3
  -2  10 -21 250.057 512.915   6
  -2 -10 -21 533.378 279.616   3
   2  10  21 584.292 232.463   8
  -2 -10 -21-1316.90 660.895   2
  -2  10  21 84.7508 267.154   8
  -2  10  21 166.935 487.635   5
  -2  10 -21-101.526 245.363   7
   2  10  21-48.6911 553.991   5
   2 -10  22 242.265 286.565   4
  -2  10 -22-368.341 523.542   6
   2  10  22-743.811 578.579   5
   2  10  22-226.585 227.429   8
  -2 -10 -22 208.319 639.551   2
  -2  10  22-116.130 271.954   8
  -2  10  22 265.203 512.944   5
   2 -10 -22 56.0490 333.030   3
  -2 -10 -22-130.329 283.127   3
  -2  10 -22 413.233 260.741   7
   2 -10  23 212.105 276.770   4
  -2  10 -23-23.3885 534.481   6
   2  10  23-50.4162 573.890   5
   2  10  23-12.1666 236.226   8
  -2  10  23-195.919 527.273   5
  -2  10  23 74.5161 287.025   8
  -2 -10 -23-804.433 707.025   2
   2 -10 -23-405.621 353.311   3
  -2  10 -23 498.844 269.631   7
  -2 -10 -23 314.371 282.166   3
   2 -10  24-213.714 308.336   4
  -2  10 -24-1277.64 581.742   6
  -2 -10 -24-801.528 758.331   2
   2  10  24 257.637 621.983   5
   2  10  24-111.693 252.359   8
  -2  10  24 45.8570 297.810   8
  -2 -10 -24-806.030 319.354   3
  -2  10  24-321.427 550.065   5
   2 -10 -24-217.946 346.562   3
  -2  10 -24-159.975 280.949   7
   2  10  25-113.906 259.587   8
  -2 -10 -25 514.918 319.956   3
  -2  10  25 93.9019 305.194   8
  -2  10  25 1246.27 570.274   5
  -2 -10 -25 912.599 756.496   2
   2 -10 -25 244.255 357.839   3
   2  10  25 575.955 613.853   5
   2 -10  26-100.110 339.945   4
   2  10  26 80.2047 628.103   5
   2  10  26 670.853 272.407   8
  -2 -10 -26 33.4241 316.809   3
  -2 -10 -26 117.804 748.178   2
  -2  10  26 399.713 320.569   8
  -2  10 -26 1588.34 339.766   7
   2 -10 -26-82.8146 358.849   3
  -2 -10 -27 68.9648 312.222   3
   2  10  27 499.531 265.572   8
  -2 -10 -27 30.4251 774.876   2
  -2  10  27-159.716 305.678   8
   2  10  27 840.339 634.607   5
  -2  10 -27 318.654 286.440   7
   2 -10 -27 41.9354 349.365   3
   2  10  28 589.034 304.419   8
  -2  10  28 616.888 361.433   8
  -2 -10 -28 1024.35 389.771   3
  -2  10 -28 854.136 322.694   7
   2  10  29 558.611 287.532   8
   2  10  29 335.911 650.055   5
  -2 -10 -29-779.006 844.533   2
  -2  10  29 49.3339 317.691   8
  -2 -10 -29 37.2923 361.923   3
   2  10  30 138.597 276.953   8
   2  10  30-763.687 647.544   5
  -2 -10 -30 369.457 359.810   3
  -2 -10 -30-531.672 856.202   2
  -2 -10 -31 958.609 907.827   2
   2  10  31 295.876 294.605   8
  -2 -10 -31-305.193 380.420   3
   2  10  31 372.994 659.426   5
   2  10  32-113.436 284.090   8
  -2 -10 -32 316.884 930.420   2
  -2 -10 -32-275.906 410.531   3
   2  10  32-578.319 693.523   5
   3 -10   0 344.665 282.361   1
   3 -10   0 243.297 183.996   3
  -3  10   0 568.255 298.451   5
  -3  10   0 273.790 133.965   8
  -3  10   0 677.041 186.285   7
   3 -10   0 480.686 172.429   4
  -3  10   0 181.621 345.301   6
  -3  10  -1 869.256 328.837   5
   3 -10  -1 1733.96 333.264   1
  -3  10  -1 1470.66 211.392   8
  -3  10   1 1894.38 224.718   8
  -3  10   1 1852.89 366.776   5
   3 -10   1 1645.78 257.809   3
   3 -10  -1 1317.03 250.317   3
  -3  10   1 1912.06 252.824   7
   3 -10  -1 1308.39 235.597   4
   3 -10   1 1403.91 241.687   4
  -3  10  -1 1139.33 241.139   7
   3 -10   1 1322.27 416.968   2
  -3  10   1 1189.54 390.209   6
   3 -10   1 1192.42 341.392   1
  -3  10  -1 1090.45 394.400   6
  -3  10  -2 547.292 285.315   5
   3  10   2 457.035 363.839   5
  -3  10   2 1030.91 321.152   5
   3 -10   2 927.612 208.172   3
  -3  10  -2 659.982 147.426   8
   3 -10  -2 773.200 209.696   3
  -3  10   2 585.640 357.012   6
   3 -10  -2 566.918 181.406   4
  -3  10   2 620.092 194.331   7
   3 -10   2 855.054 197.526   4
  -3  10   2 606.488 169.679   8
   3 -10  -2 997.554 287.486   1
   3 -10   2 1457.24 340.449   1
  -3  10  -2 935.604 203.446   7
   3 -10   2 575.490 388.422   2
  -3  10  -2 1545.62 402.592   6
   3 -10   3 296.546 308.695   1
  -3  10   3 325.410 162.971   8
   3  10   3 131.866 360.446   5
   3 -10   3 84.8160 166.880   3
  -3  10  -3-119.830 265.339   5
  -3  10   3 542.835 315.626   5
  -3  10  -3 277.412 123.845   8
   3 -10  -3 114.615 181.477   3
   3 -10  -3 283.415 258.684   1
   3 -10   3-99.7034 362.992   2
  -3  10   3 106.661 162.560   7
  -3  10  -3 417.674 171.855   7
   3 -10   3 308.898 169.540   4
  -3 -10  -3 578.801 422.455   2
  -3  10   3-468.992 334.261   6
   3 -10  -3 393.039 154.921   4
  -3  10  -3 293.580 384.813   6
  -3  10   4 477.141 330.454   5
   3 -10   4 376.410 181.510   4
   3  10   4 882.321 166.403   8
  -3  10  -4 947.561 384.985   6
   3  10   4 889.221 379.313   5
   3 -10  -4 902.257 270.081   1
   3 -10  -4 573.206 213.080   3
  -3  10   4 827.762 182.635   8
  -3  10   4 685.143 174.593   7
   3 -10  -4 557.646 169.609   4
  -3  10  -4 861.229 207.750   7
   3 -10   4 966.980 360.539   1
  -3  10   4-100.930 340.934   6
  -3 -10  -4-400.880 455.434   2
  -3  10  -5-413.945 378.681   6
  -3 -10  -5-41.9471 456.706   2
  -3  10   5-106.170 141.479   7
   3 -10  -5 11.2331 192.698   3
   3 -10  -5 77.4611 218.558   1
   3  10   5 34.2225 363.267   5
   3 -10   5 59.4936 168.678   4
  -3  10   5-372.903 322.113   5
   3 -10  -5 155.504 143.290   4
  -3  10   5-173.035 163.211   8
   3  10   5 62.9684 127.408   8
  -3  10  -5 168.262 173.413   7
  -3  10   5 12.3434 318.028   6
   3 -10   5-126.531 340.991   1
   3 -10  -6 1100.33 265.082   1
  -3  10  -6 1387.61 427.962   6
  -3 -10  -6 858.901 514.155   2
   3  10   6 1469.09 418.391   5
   3  10   6 1402.11 206.266   8
   3 -10   6 712.230 400.073   1
  -3  10   6 928.261 368.370   5
  -3  10   6 906.480 217.847   8
   3 -10  -6 1051.82 250.845   3
   3 -10  -6 807.691 192.181   4
  -3  10  -6 1409.38 233.720   7
   3 -10   6 1401.79 237.463   4
  -3  10  -7 105.376 397.239   6
  -3 -10  -7 87.4772 506.281   2
   3  10   7-119.073 141.025   8
   3  10   7-71.6547 392.191   5
   3 -10   7 58.5340 374.700   1
  -3  10   7 76.1872 169.487   8
   3 -10  -7 252.168 216.536   3
  -3  10  -7 95.3701 165.484   7
   3 -10   7 433.167 186.807   4
  -3  10   7-64.1430 334.227   5
  -3  10  -8-161.485 424.134   6
  -3 -10  -8-331.617 519.899   2
   3  10   8-183.545 417.180   5
   3  10   8 315.988 164.111   8
  -3  10   8 562.221 355.583   5
  -3  10   8 158.043 176.435   8
   3 -10  -8 611.308 232.166   3
   3 -10   8 20.1896 404.213   1
  -3  10  -8 368.488 184.345   7
   3 -10   8 336.897 196.056   4
  -3  10  -9 167.520 522.258   6
  -3 -10  -9 643.129 537.513   2
   3  10   9 1396.64 466.246   5
  -3  10   9 143.048 189.592   8
   3  10   9-90.3178 163.775   8
  -3  10   9 290.962 370.568   5
   3 -10  -9 438.340 256.100   3
  -3  10  -9 19.7639 202.721   7
   3 -10   9 606.377 243.116   4
   3  10  10 404.873 428.346   5
   3  10  10 267.842 170.826   8
  -3  10  10 424.829 376.225   5
  -3  10  10 363.777 202.644   8
   3 -10 -10 80.3457 246.949   3
  -3  10 -10 30.2721 203.077   7
   3 -10  10 173.073 223.709   4
  -3  10 -11-115.680 456.739   6
   3  10  11-78.7789 446.186   5
   3  10  11 368.994 175.832   8
  -3  10  11 749.920 395.460   5
  -3  10  11 132.225 199.453   8
   3 -10 -11-152.945 252.368   3
  -3  10 -11 92.8811 189.969   7
   3 -10  11 393.485 223.287   4
  -3  10  12 582.020 398.780   5
  -3  10 -12-137.704 460.245   6
  -3 -10 -12 610.770 235.523   3
   3  10  12 262.678 445.209   5
  -3  10  12 373.853 217.128   8
   3 -10 -12 376.746 266.056   3
   3 -10  12 533.386 231.994   4
  -3  10 -12 612.974 210.911   7
  -3  10 -13 279.447 491.647   6
  -3 -10 -13 710.492 268.614   3
   3  10  13 970.846 486.933   5
  -3  10  13 1393.68 449.940   5
   3 -10 -13 706.226 283.448   3
   3 -10  13 1012.27 263.207   4
  -3 -10 -15 22.8215 552.026   2
   3  10  15 384.666 206.549   8
  -3  10  15 551.275 236.140   8
  -3  10 -16 21.0444 475.064   6
  -3 -10 -16 206.652 241.515   3
   3  10  16 330.767 496.344   5
  -3 -10 -16 623.367 582.101   2
   3  10  16 10.6039 193.890   8
  -3  10  16 376.847 435.823   5
  -3  10  16 75.4208 232.421   8
   3 -10 -16 16.6924 281.741   3
  -3  10 -16 140.515 213.738   7
   3 -10  16 14.2369 235.358   4
   3  10  17-10.8128 201.832   8
  -3  10 -17-21.4684 488.271   6
  -3 -10 -17 249.726 254.750   3
   3  10  17-269.034 519.918   5
  -3 -10 -17 538.198 594.439   2
   3 -10 -17-68.8796 294.981   3
  -3  10  17 319.058 443.212   5
  -3  10 -17 96.0756 217.440   7
   3 -10  17 14.6599 247.359   4
  -3  10 -18-152.906 513.768   6
  -3 -10 -18-93.2508 275.751   3
   3  10  18-1344.26 606.074   5
  -3 -10 -18 855.311 710.489   2
  -3  10  18 108.666 505.266   5
   3  10  18-166.634 227.311   8
   3 -10 -18-463.340 349.876   3
  -3  10 -18-307.862 272.444   7
   3 -10  18-45.3462 286.223   4
  -3  10 -19-512.026 525.989   6
  -3 -10 -19 487.199 267.960   3
   3  10  19-394.155 544.924   5
  -3 -10 -19-24.1391 609.450   2
   3 -10 -19 91.5234 302.855   3
   3  10  19-67.9452 215.669   8
  -3  10  19 13.6005 237.153   8
  -3  10  19-376.548 468.191   5
  -3  10 -19-176.658 243.855   7
   3 -10  19 124.106 277.801   4
  -3  10 -20-22.6258 511.306   6
  -3 -10 -20 110.148 251.012   3
   3  10  20-521.471 564.594   5
  -3 -10 -20 762.242 640.156   2
   3  10  20 346.282 220.531   8
  -3  10  20 83.8498 264.328   8
  -3  10  20 898.415 482.666   5
  -3  10 -20-12.9189 251.967   7
   3 -10 -20-131.227 327.160   3
   3 -10  20 112.306 288.483   4
  -3  10 -21-138.318 537.554   6
  -3 -10 -21 14.0391 259.118   3
   3  10  21 527.409 564.505   5
  -3 -10 -21 1028.37 659.029   2
   3  10  21 223.531 222.128   8
  -3  10  21 186.696 274.767   8
  -3  10  21-295.848 480.597   5
  -3  10 -21 92.5368 249.550   7
   3 -10 -21-192.502 317.494   3
   3 -10  21 16.3987 282.394   4
   3  10  22 11.9945 238.526   8
  -3  10 -22-187.300 529.394   6
  -3 -10 -22 731.485 288.989   3
   3  10  22 828.627 586.724   5
  -3 -10 -22-538.009 656.009   2
  -3  10  22 546.261 293.760   8
  -3  10 -22 391.857 288.076   7
   3 -10 -22 607.359 356.579   3
   3 -10  22 100.919 293.673   4
  -3 -10 -23-322.923 301.775   3
  -3  10 -23 23.6964 554.715   6
   3  10  23-49.8447 617.273   5
  -3  10  23-224.251 305.205   8
   3  10  23-476.814 245.055   8
  -3 -10 -23-759.884 710.679   2
  -3  10 -23 124.214 279.176   7
   3 -10 -23 675.226 366.173   3
   3 -10  23-324.919 321.264   4
   3 -10  24 313.923 314.385   4
  -3  10 -24 96.1763 558.156   6
   3  10  24 731.749 599.396   5
  -3 -10 -24 429.194 685.082   2
  -3 -10 -24 15.0838 287.853   3
  -3  10  24-168.901 312.799   8
   3  10  24-162.038 238.579   8
  -3  10 -24 506.714 291.792   7
   3 -10  25 17.6232 322.725   4
  -3  10 -25 826.418 593.583   6
   3  10  25 102.660 607.983   5
   3  10  25 25.4162 247.836   8
  -3  10 -25-329.733 309.597   7
  -3 -10 -25-170.866 291.015   3
  -3 -10 -25 1017.10 710.863   2
   3 -10  26 107.078 310.594   4
  -3 -10 -26 28.1939 725.518   2
  -3  10 -26 542.347 561.914   6
   3  10  26 856.857 626.977   5
   3  10  26 324.072 260.333   8
  -3 -10 -26-128.283 308.263   3
  -3  10 -26 72.8824 287.613   7
   3 -10  27 17.9203 301.776   4
  -3  10 -27-273.907 570.584   6
  -3 -10 -27 1041.42 756.118   2
   3  10  27 157.721 606.200   5
  -3 -10 -27 49.7879 317.094   3
  -3  10 -27 266.414 293.796   7
   3  10  27 595.092 269.496   8
   3 -10  28 18.0745 332.978   4
  -3  10 -28-530.513 626.002   6
   3  10  28-418.245 288.366   8
  -3 -10 -28 103.214 354.818   3
   3  10  28 454.797 736.431   5
  -3  10 -28-464.032 327.362   7
  -3 -10 -29 822.562 813.986   2
   3 -10  29 72.0727 315.469   4
   3  10  29-55.0675 280.272   8
   3  10  29 622.453 660.492   5
  -3 -10 -29 554.283 358.656   3
  -3  10 -29-60.5048 301.649   7
  -3 -10 -30 343.643 822.658   2
   3  10  30-192.745 651.353   5
  -3 -10 -30 92.1453 331.431   3
  -3  10 -30 472.880 320.381   7
   3  10  30 28.0992 273.428   8
  -3 -10 -31 736.175 822.598   2
   3  10  31 315.609 292.399   8
   3  10  31 920.153 660.980   5
  -3 -10 -31 76.3988 340.273   3
  -3  10 -31 107.340 305.716   7
   3  10  32-117.230 282.309   8
   4 -10   0 2236.69 384.842   1
   4 -10   0 1724.16 322.299   3
  -4  10   0 2143.06 270.720   8
  -4  10   0 1482.17 378.658   5
   4 -10   0 2024.05 286.733   4
  -4  10   0 2252.88 307.288   7
  -4  10   0 1806.82 440.736   6
   4 -10  -1 17.2889 153.656   4
   4 -10  -1 137.122 210.674   3
   4 -10  -1 136.433 258.179   1
  -4  10   1-391.758 302.930   5
  -4  10   1 405.272 160.111   8
  -4  10  -1 347.044 139.351   8
   4 -10   1 262.769 160.628   4
  -4  10   1 306.886 179.261   7
  -4  10  -1 349.272 183.648   7
   4 -10   1 387.191 292.186   1
  -4  10   1 147.446 366.744   6
   4 -10   1 401.120 211.743   3
  -4  10  -1 289.056 368.355   6
  -4  10  -1 174.765 277.078   5
   4 -10   2 1077.65 328.520   1
  -4  10   2 1069.74 208.109   8
   4 -10  -2 1353.57 296.573   1
  -4  10   2 1230.82 403.401   6
  -4  10   2 1092.23 218.568   7
  -4  10  -2 1075.03 310.504   5
  -4  10  -2 947.932 178.272   8
   4 -10   2 1367.59 222.602   4
   4 -10  -2 611.258 247.561   3
   4 -10   2 730.363 244.560   3
  -4  10  -2 1145.09 230.121   7
  -4  10   2 1344.88 340.537   5
  -4  10  -2 669.120 399.414   6
   4 -10  -3 864.238 263.933   1
   4 -10   3 719.397 328.433   1
   4 -10   3 505.549 187.829   4
  -4  10   3 391.636 315.321   5
  -4  10   3 520.869 182.397   8
  -4  10   3 382.325 177.344   7
   4 -10  -3 326.805 229.512   3
  -4  10  -3 719.768 205.373   7
  -4  10   3 620.876 392.932   6
  -4  10  -3-94.6615 366.993   6
   4 -10  -4 160.656 241.092   1
   4 -10   4 220.186 327.813   1
  -4  10   4-74.6793 315.083   5
  -4  10   4-9.11450 160.591   8
  -4  10   4-43.0505 154.090   7
   4 -10   4 166.491 167.014   4
   4 -10  -4 99.8270 221.499   3
  -4  10  -4 99.3964 182.665   7
  -4  10   4 271.139 358.970   6
  -4  10  -4-112.678 374.001   6
   4  10   5 815.915 360.990   5
  -4  10   5 976.112 214.626   8
  -4  10   5 632.307 337.938   5
   4 -10   5 354.511 352.394   1
   4 -10   5 624.221 204.168   4
  -4  10  -5 1123.25 228.737   7
  -4  10   5 472.999 378.678   6
   4 -10  -5 707.865 241.001   3
  -4  10  -5 229.029 412.219   6
   4  10   6-474.857 368.213   5
  -4  10  -6-233.389 187.566   7
  -4  10   6-143.165 324.707   5
  -4  10   6 190.540 180.806   8
   4 -10  -6 159.816 233.075   3
   4 -10   6-248.250 184.510   4
   4 -10   6-18.5162 357.896   1
  -4 -10  -6 369.354 450.088   2
  -4  10  -6-67.7804 397.257   6
   4  10   7 810.214 398.093   5
   4  10   7 1234.78 184.077   8
  -4  10   7-311.480 340.422   5
  -4  10   7 258.625 194.398   8
   4 -10  -7 398.601 251.982   3
   4 -10   7 202.322 204.601   4
  -4  10  -7 10.2499 201.776   7
  -4 -10  -7 21.5512 507.564   2
  -4  10  -7-465.590 462.775   6
   4 -10   7-1284.14 433.794   1
   4 -10   8 1339.99 499.774   1
   4  10   8 146.027 411.189   5
   4  10   8-231.593 164.523   8
  -4  10   8 168.746 352.526   5
  -4  10   8 95.5599 195.304   8
  -4  10  -8 249.609 272.723   7
   4 -10  -8 425.538 257.241   3
   4 -10   8 821.417 252.742   4
  -4  10  -8 1554.29 560.320   6
  -4 -10  -8 1954.04 599.025   2
  -4 -10  -9 341.104 531.262   2
   4  10   9 435.543 416.458   5
   4 -10   9 186.099 402.182   1
  -4  10   9 437.221 209.606   8
   4  10   9 706.063 172.071   8
   4 -10  -9 73.1682 260.400   3
  -4  10  -9 10.5431 207.235   7
   4 -10   9 654.821 208.917   4
  -4  10   9 676.640 369.371   5
  -4  10  -9-205.337 454.307   6
  -4  10 -10 285.244 446.118   6
   4  10  10-136.825 439.400   5
  -4  10  10 512.592 367.469   5
  -4  10  10 267.334 208.896   8
   4  10  10 212.806 171.389   8
   4 -10  10 21.3747 406.390   1
  -4  10 -10 264.793 205.764   7
   4 -10 -10-135.779 260.299   3
   4 -10  10 185.580 209.759   4
  -4  10 -11-78.7068 480.919   6
   4  10  11 382.063 445.890   5
  -4  10  11 163.187 382.999   5
  -4  10 -11 323.469 211.541   7
   4 -10 -11 312.391 276.789   3
  -4  10  11 283.186 211.052   8
   4 -10  11 347.202 223.498   4
   4 -10  11 66.8220 440.791   1
  -4  10 -12-220.502 486.201   6
   4  10  12 1275.07 485.630   5
   4 -10  12 787.995 243.636   4
  -4  10  12 391.141 220.417   8
   4 -10 -12 707.209 301.131   3
  -4  10  12 222.900 380.414   5
   4 -10 -13 231.197 289.847   3
  -4  10  13-284.967 384.998   5
  -4  10 -15 21.3567 497.674   6
  -4 -10 -15 24.1308 566.306   2
   4  10  15 411.436 201.133   8
  -4  10 -15-140.323 214.590   7
  -4  10  15 132.608 216.000   8
   4 -10  15 202.402 234.944   4
   4 -10  15-25.6372 487.143   1
  -4  10 -16 282.511 516.248   6
  -4 -10 -16 857.653 290.515   3
  -4 -10 -16 97.3826 584.497   2
   4 -10  16 241.385 531.126   1
   4  10  16 66.8988 490.593   5
   4  10  16 593.026 228.930   8
  -4  10  16-147.243 222.428   8
  -4  10 -16 647.105 244.730   7
  -4  10  16 1043.54 426.861   5
   4 -10 -16 267.152 289.256   3
   4 -10  16 224.465 262.365   4
  -4  10 -17 967.320 641.417   6
  -4 -10 -17 450.238 311.333   3
  -4 -10 -17 3245.97 735.860   2
   4  10  17 2558.56 613.247   5
   4  10  17 704.534 256.991   8
   4 -10  17 3279.06 737.648   1
  -4  10  17 1050.50 301.419   8
  -4  10 -17 835.381 287.922   7
   4 -10 -17 2830.55 438.636   3
   4 -10  17 655.018 324.076   4
  -4  10 -18 67.0511 518.347   6
   4 -10  18-323.567 607.369   1
  -4 -10 -18 99.2324 272.657   3
  -4 -10 -18-99.4951 612.950   2
   4  10  18 435.077 536.346   5
   4  10  18 67.6857 211.227   8
  -4  10 -18 88.2114 236.245   7
   4 -10 -18 73.7308 304.007   3
   4 -10  18 165.097 259.744   4
  -4  10 -19-181.044 542.612   6
  -4 -10 -19 1030.78 639.611   2
  -4 -10 -19 42.7340 276.392   3
   4  10  19-1155.78 553.298   5
   4 -10  19 31.0325 608.299   1
   4  10  19 11.5019 224.919   8
  -4  10 -19 90.4672 240.466   7
   4 -10  19 217.820 265.598   4
  -4  10 -20 206.828 572.174   6
  -4 -10 -20 255.056 641.009   2
  -4 -10 -20 259.271 271.411   3
   4  10  20 303.761 541.862   5
   4  10  20 164.204 221.942   8
   4 -10  20-32.9499 671.674   1
  -4  10 -20-344.562 258.175   7
   4 -10  20 16.0018 272.275   4
 -10   4 -20 488.334 520.792   6
  -4  10 -21-280.570 527.962   6
  -4 -10 -21-310.841 651.207   2
  -4 -10 -21 145.249 285.591   3
   4  10  21 212.057 576.128   5
   4  10  21 286.939 227.120   8
   4 -10  21-669.847 692.146   1
  -4  10 -21 149.427 253.657   7
 -10   4 -21-62.2308 531.973   6
   4 -10  21 494.339 298.260   4
  -4  10 -22-71.3055 543.617   6
   4  10  22-48.7551 227.135   8
   4 -10  22 380.683 762.183   1
  -4 -10 -22-1133.22 684.505   2
  -4 -10 -22-234.818 277.286   3
   4  10  22 143.547 580.435   5
  -4  10 -22 556.436 281.599   7
  10  -4  22 155.549 366.327   4
 -10   4 -22-860.921 561.756   6
   4 -10  22-320.802 299.156   4
  -4  10 -23-192.832 594.795   6
  -4 -10 -23 223.005 302.758   3
   4  10  23 193.372 595.021   5
  -4  10 -23 113.916 285.223   7
   4 -10  23-41.5538 863.101   1
   4 -10  23-52.2723 312.301   4
   4  10  23 323.181 259.886   8
  -4  10 -24 588.261 591.733   6
   4 -10  24 367.672 937.969   1
  -4 -10 -24 1012.07 713.581   2
  -4 -10 -24-286.881 286.538   3
   4  10  24-898.819 607.718   5
   4  10  24-469.098 268.139   8
  -4  10 -24 378.423 288.326   7
   4 -10  24 17.7600 301.747   4
  -4  10 -25-173.859 593.105   6
  -4 -10 -25 92.1992 299.417   3
  -4 -10 -25-279.111 709.002   2
   4  10  25 1359.28 597.218   5
   4  10  25 362.313 259.922   8
  -4  10 -25 520.028 310.455   7
   4 -10  25-413.307 1016.92   1
   4 -10  25 127.103 314.772   4
  -4 -10 -26 282.722 318.111   3
  -4  10 -26 225.813 592.185   6
  -4 -10 -26 370.544 725.347   2
   4  10  26 225.126 596.060   5
  -4  10 -26 651.219 321.832   7
   4 -10  26 770.824 1207.68   1
   4  10  26 330.379 266.972   8
   4 -10  26 91.9533 324.436   4
   4 -10  27-186.642 343.916   4
  -4 -10 -27-338.185 327.414   3
   4  10  27-2396.95 722.185   5
  -4  10 -27 101.649 643.035   6
   4 -10  27-909.133 1571.52   1
  -4 -10 -27-2213.28 802.651   2
   4  10  27-216.011 285.353   8
  -4  10 -27-739.440 348.912   7
   4 -10  28-375.323 348.780   4
  -4  10 -28 153.855 595.534   6
  -4 -10 -28 29.7679 846.703   2
   4  10  28 152.708 636.997   5
  -4 -10 -28 231.925 341.902   3
   4  10  28 676.514 288.761   8
  -4  10 -28 234.519 322.754   7
   4 -10  28-170.363 1717.98   1
   4 -10  29 37.7773 335.672   4
  -4  10 -29-233.702 612.996   6
  -4 -10 -29 152.084 773.234   2
  -4 -10 -29-17.0735 328.234   3
   4  10  29 113.074 278.828   8
   4 -10  29-110.313 2256.53   1
  -4  10 -29 47.4928 306.754   7
   4  10  29-103.366 614.832   5
   4 -10  30 395.507 332.475   4
  -4 -10 -30 352.786 338.135   3
  -4  10 -30-471.581 615.959   6
  -4 -10 -30 590.586 792.729   2
  -4  10 -30 353.746 331.228   7
   4  10  30 78.4040 627.887   5
   4  10  30-159.287 283.221   8
   4 -10  31-132.038 320.923   4
   4 -10  31-3250.51 5775.51   1
   4  10  31-89.1396 310.621   8
  -4  10 -31 404.594 327.986   7
   4 -10  32 186.558 323.719   4
   4 -10  32-2895.07 17042.3   1
   5 -10   0 190.123 272.622   1
  -5  10   0 244.210 174.325   8
  -5  10   0 380.663 186.165   7
   5 -10   0 130.730 207.791   3
  -5  10   0-203.635 412.641   6
  -5  10  -1 742.187 194.022   8
   5 -10  -1 1323.46 308.994   1
  -5  10  -1 668.504 216.844   7
   5 -10   1 1298.17 321.458   1
  -5  10   1 904.835 208.487   8
  -5  10   1 1019.45 236.591   7
   5 -10  -1 814.337 246.783   3
  -5  10   1 487.497 440.318   6
  -5  10  -1 1368.36 438.714   6
   5 -10  -2-251.079 259.177   1
  -5  10   2 29.5626 166.854   7
   5 -10   2 247.437 295.756   1
  -5  10   2-29.0529 182.755   8
  -5  10  -2 189.037 182.602   7
   5 -10  -2-25.5095 209.954   3
  -5  10   2 391.958 442.890   6
  -5  10  -2 200.781 403.237   6
  -5  10   3 416.805 193.669   8
   5 -10   3 19.3374 161.805   4
   5 -10   3-16.1106 307.192   1
  -5  10  -3 373.754 196.975   7
   5 -10  -3 52.5954 214.944   3
  -5  10   3-684.317 479.557   6
  -5  10  -3 67.5139 403.928   6
  -5  10   4 1089.25 528.294   6
  -5  10   4 351.157 200.439   8
   5 -10   4 148.627 172.597   4
  -5  10  -4 10.6709 207.268   7
   5 -10   4-16.7913 340.727   1
   5 -10  -4 257.081 236.616   3
  -5  10  -4 34.2128 405.986   6
  -5  10   5 43.6120 203.594   8
  -5  10  -5-42.7327 200.913   7
   5 -10   5 323.277 188.496   4
   5 -10  -5 236.332 239.914   3
  -5  10   5 749.516 593.137   6
   5 -10   5 280.877 367.401   1
  -5  10  -5 498.508 437.670   6
   5 -10   6-72.4435 378.137   1
  -5  10   6 287.667 210.544   8
   5 -10   6 41.4028 195.726   4
  -5  10  -6 517.660 222.281   7
   5 -10  -6 99.8803 243.727   3
  -5  10  -6 52.5265 440.681   6
   5 -10   7-113.380 357.548   1
  -5  10   7 155.951 206.222   8
   5 -10   7 138.230 190.588   4
  -5  10  -7-10.8177 205.909   7
   5 -10  -7 102.432 241.384   3
  -5  10  -7 194.620 416.276   6
   5 -10   8-136.533 377.665   1
  -5  10  -8 32.7644 205.618   7
  -5  10   8 323.451 211.698   8
   5 -10   8 142.030 203.696   4
   5 -10  -8 134.903 249.689   3
  -5  10  -8 162.072 436.356   6
   5 -10   9 101.652 381.979   1
   5  10   9 302.018 395.569   5
  -5  10   9 22.2562 191.608   8
   5 -10   9 56.2195 202.951   4
  -5  10  -9 33.0377 217.301   7
   5 -10  -9 76.6817 251.984   3
  -5  10  -9-92.9866 451.580   6
   5  10  10 521.216 400.624   5
   5 -10  10-335.625 385.905   1
  -5  10  10 324.079 205.143   8
   5 -10  10 404.840 222.410   4
  -5  10 -10 468.189 225.543   7
  -5  10 -10-169.945 448.365   6
   5  10  11-116.340 428.787   5
  -5  10  11 189.189 189.825   8
   5 -10  11 11.9242 220.424   4
  -5  10 -11 78.0969 477.652   6
  -5 -10 -13 1511.02 573.250   2
   5  10  13 565.801 198.900   8
  -5  10 -14 21.0708 489.563   6
  -5 -10 -14 24.3503 560.076   2
   5  10  14 112.880 175.067   8
   5 -10  14 65.1958 223.096   4
  -5  10 -15-326.529 527.498   6
  -5 -10 -15 1135.17 617.036   2
   5 -10  15 198.472 469.594   1
   5  10  15 108.199 486.799   5
   5  10  15 517.362 210.510   8
  -5  10 -15-85.5127 226.600   7
   5 -10  15-13.4149 230.357   4
  -5  10 -16 1169.01 674.993   6
  -5 -10 -16 1231.88 705.232   2
   5 -10  16 2389.09 663.988   1
  -5  10 -16 923.809 301.910   7
   5 -10  16 748.347 307.129   4
   5  10  16 390.743 235.640   8
  -5  10 -17 22.8558 549.443   6
   5  10  17-311.847 205.270   8
  -5 -10 -17-381.849 608.321   2
  -5 -10 -17 15.7849 288.729   3
   5  10  17-244.001 521.387   5
   5 -10  17-26.8837 510.671   1
   5 -10  17-170.814 253.842   4
  -5  10 -17 421.441 255.170   7
  -5  10 -18 23.0834 536.843   6
  -5 -10 -18-592.875 640.844   2
  -5 -10 -18-205.571 312.907   3
   5  10  18-134.548 514.889   5
   5 -10  18-27.9766 532.211   1
   5  10  18 114.040 209.733   8
  -5  10 -18-130.752 249.934   7
   5 -10  18-264.495 254.812   4
 -10   5 -18-241.853 497.526   6
   5 -10  19 29.2050 568.105   1
  -5  10 -19-187.530 567.769   6
  -5 -10 -19-183.717 634.089   2
  -5 -10 -19-31.3073 294.133   3
   5  10  19-113.387 514.290   5
   5  10  19 35.0069 218.381   8
  -5  10 -19 227.653 258.854   7
   5 -10  19 15.2668 263.690   4
 -10   5 -19 517.663 535.493   6
  -5  10 -20-142.000 553.880   6
  -5 -10 -20 1091.15 676.121   2
  -5 -10 -20-296.445 299.354   3
   5  10  20 728.858 530.200   5
   5  10  20 155.129 224.463   8
   5 -10  20-30.6195 587.172   1
  -5  10 -20 164.672 266.471   7
   5 -10  20 237.266 280.876   4
 -10   5 -20-256.387 541.609   6
  -5  10 -21 456.156 568.739   6
  -5 -10 -21-54.0320 652.687   2
  -5 -10 -21 46.5533 291.939   3
   5  10  21-91.3180 526.979   5
   5  10  21-73.1760 231.658   8
   5 -10  21-483.757 644.903   1
  -5  10 -21 253.074 287.611   7
  10  -5  21 68.8212 407.033   4
   5 -10  21-81.3971 277.880   4
 -10   5 -21 175.031 550.268   6
  -5  10 -22 436.684 649.851   6
  -5 -10 -22 82.3445 723.530   2
  -5 -10 -22 77.6685 300.684   3
   5  10  22 1077.98 590.515   5
   5 -10  22 956.399 772.714   1
  10  -5  22 123.638 387.271   4
  -5  10 -22 388.753 306.538   7
   5  10  22 12.4601 237.462   8
   5 -10  22 16.8377 298.709   4
 -10   5 -22 1602.16 620.409   6
  -5  10 -23 246.388 587.948   6
  -5  10 -23-117.917 286.790   7
  -5 -10 -23 334.902 691.716   2
  -5 -10 -23-248.299 308.459   3
   5  10  23-137.896 551.744   5
   5  10  23-381.950 249.766   8
   5 -10  23 36.4202 737.304   1
  10  -5  23-169.189 351.574   4
   5 -10  23 34.5368 294.699   4
 -10   5 -23-291.991 587.805   6
  -5  10 -24 623.664 596.091   6
  -5 -10 -24 198.829 702.691   2
  -5 -10 -24-31.0901 298.842   3
   5  10  24-278.586 563.212   5
   5  10  24 77.7777 248.546   8
   5 -10  24 195.575 821.347   1
  -5  10 -24 241.174 297.342   7
   5 -10  24-371.968 334.606   4
  -5  10 -25 25.3065 607.321   6
  -5 -10 -25 57.8575 718.561   2
  -5 -10 -25 359.477 313.013   3
   5  10  25-466.787 591.115   5
   5  10  25-212.048 254.891   8
   5 -10  25 169.589 826.848   1
  -5  10 -25-123.190 297.296   7
   5 -10  25-234.852 305.857   4
  -5  10 -26 153.593 615.892   6
  -5 -10 -26 58.9556 724.467   2
   5  10  26 515.614 268.278   8
  -5 -10 -26 173.307 297.563   3
   5  10  26-116.828 573.543   5
   5 -10  26-232.119 962.119   1
  -5  10 -26-15.7104 320.568   7
   5 -10  26 593.450 355.124   4
  -5  10 -27-597.436 710.073   6
   5  10  27-23.6928 652.603   5
  -5 -10 -27 908.024 375.034   3
   5 -10  27 205.820 1109.83   1
   5  10  27 305.742 320.704   8
  -5  10 -27 271.985 349.401   7
   5 -10  27 93.9616 343.324   4
  -5  10 -28-131.261 618.183   6
  -5 -10 -28 152.890 766.742   2
   5  10  28 114.025 285.908   8
   5 -10  28-289.392 1138.88   1
   5  10  28 333.683 575.919   5
  -5 -10 -28 97.1229 319.483   3
  -5  10 -28-16.2607 319.721   7
   5 -10  28 286.278 353.705   4
  -5 -10 -29 132.061 327.206   3
  -5  10 -29 714.578 659.284   6
  -5 -10 -29 998.125 802.177   2
   5 -10  29 66.3099 1339.06   1
   5  10  29 554.534 587.278   5
   5  10  29 73.1923 299.572   8
  -5  10 -29 626.322 341.800   7
   5 -10  29-212.215 347.766   4
   5 -10  30 328.176 351.528   4
  -5  10 -30 80.2559 637.106   6
   5 -10  30 621.570 1624.47   1
   5  10  30 421.660 304.271   8
  -5  10 -30 116.683 330.833   7
   5 -10  31-77.3268 344.724   4
   5 -10  31-186.025 1902.76   1
  -5  10 -31-269.434 653.456   6
  -5  10 -31-336.025 357.325   7
  -6  10   0 400.938 239.642   8
  -6  10   0 22.3614 573.143   6
   6 -10   0 15.3038 280.669   1
   6 -10   1-93.4216 309.452   1
  -6  10   1 147.451 232.448   8
  -6  10  -1 33.5787 200.144   7
  -6  10   1-450.691 635.545   6
  -6  10  -1 83.5638 511.431   6
   6 -10   2-270.367 309.382   1
  -6  10   2 50.9050 243.061   8
  -6  10   2 28.9721 733.724   6
  -6  10  -2 11.3800 208.740   7
  -6  10  -2-78.8150 472.040   6
   6 -10   3-343.360 320.932   1
  -6  10   3 13.0252 227.530   8
  -6  10  -3 11.4728 207.985   7
  -6  10   3 181.371 908.793   6
  -6  10  -3 38.3209 462.533   6
   6 -10   4-50.6074 317.792   1
  -6  10  -4-161.284 204.722   7
  -6  10   4 206.521 239.789   8
  -6  10   4-584.546 1315.69   6
  -6  10  -4 433.574 456.188   6
   6 -10   5-17.2643 316.165   1
  -6  10   5 214.446 225.916   8
  -6  10  -5-23.2998 221.897   7
  -6  10   5-349.448 2830.56   6
  -6  10  -5-296.233 443.923   6
  -6  10  -6-11.5855 223.396   7
  -6  10   6 183.280 217.559   8
   6 -10   6-17.9510 341.936   1
  -6  10  -6 37.1228 454.811   6
   6 -10   7 36.8575 343.362   1
  -6  10  -7 46.1049 206.152   7
   6 -10   7 95.8671 189.064   4
  -6  10  -7-149.832 465.578   6
   6 -10   8 364.394 392.471   1
   6 -10   8 141.401 197.746   4
  -6  10  -8 11.6244 232.715   7
  -6  10  -8 18.7608 456.782   6
   6 -10   9-156.620 186.879   4
  -6  10  -9 19.0658 473.357   6
   6 -10  12 326.300 428.130   1
  -6  10 -12-190.925 212.266   7
   6  10  13 96.7510 423.166   5
  -6 -10 -13 468.799 493.631   2
   6 -10  13-251.781 226.606   4
  -6  10 -13 143.412 490.024   6
   6 -10  14-182.030 238.206   4
   6  10  14-220.276 454.598   5
   6 -10  14-256.162 470.819   1
  -6 -10 -14 714.280 530.445   2
  -6  10 -14 254.107 513.770   6
   6  10  15 842.831 524.253   5
   6 -10  15 191.838 525.418   1
  -6  10 -15 822.877 282.037   7
   6 -10  15 26.8228 262.672   4
  -6  10 -15 86.0750 579.393   6
  -6  10 -16-22.4423 533.091   6
   6  10  16-504.725 476.521   5
   6 -10  16-296.525 464.940   1
   6  10  16-176.989 199.517   8
  -6  10 -16 139.679 238.035   7
   6 -10  16-13.8050 233.397   4
  -6 -10 -16-97.4493 557.754   2
  -6  10 -17-231.700 552.404   6
   6  10  17-297.598 480.886   5
   6 -10  17 51.5066 499.199   1
  -6  10 -17-64.7427 246.362   7
   6 -10  17-456.481 267.637   4
   6  10  17 21.5446 198.364   8
 -10   6 -17 20.0427 506.620   6
  -6 -10 -17-398.306 582.143   2
  -6  10 -18-141.271 569.682   6
  -6 -10 -18 1169.75 367.405   3
   6 -10  18-53.2283 508.651   1
   6  10  18 149.741 485.078   5
   6  10  18 378.270 212.325   8
  -6  10 -18-79.3113 254.281   7
   6 -10  18 14.6785 250.977   4
 -10   6 -18-372.269 510.424   6
  -6 -10 -18 431.854 587.820   2
  -6 -10 -19-728.094 629.861   2
  -6  10 -19-461.365 587.204   6
  -6 -10 -19-108.069 335.676   3
   6  10  19-107.523 501.459   5
   6 -10  19-110.245 551.879   1
   6  10  19 229.200 223.963   8
  -6  10 -19 94.5443 258.774   7
   6 -10  19 348.519 265.655   4
 -10   6 -19 257.938 517.634   6
  -6 -10 -20 105.983 627.361   2
  -6  10 -20 493.045 589.321   6
  -6 -10 -20-35.5039 340.813   3
   6  10  20 518.363 517.271   5
   6 -10  20-57.2297 589.691   1
   6  10  20 188.535 231.647   8
  10  -6  20 218.867 436.501   4
  -6  10 -20-13.8062 271.884   7
  10  -6  20 198.657 414.476   1
 -10   6 -20 222.171 567.614   6
   6 -10  20 404.233 288.139   4
  -6  10 -21-99.3927 651.901   6
  -6 -10 -21 259.423 333.812   3
   6  10  21 1084.58 547.249   5
   6 -10  21 59.5827 628.344   1
   6  10  21-72.6153 238.162   8
  -6  10 -21 268.326 286.877   7
  10  -6  21-182.559 413.613   4
   6 -10  21-338.711 294.952   4
 -10   6 -21 525.174 621.600   6
  10  -6  21-381.016 447.095   1
  -6 -10 -22 109.999 673.288   2
  -6  10 -22-100.747 623.675   6
  -6 -10 -22 67.9285 336.820   3
   6  10  22-173.283 505.562   5
   6  10  22 260.787 234.810   8
  10  -6  22 515.479 398.572   4
   6 -10  22 280.135 619.448   1
  -6  10 -22 14.4423 293.181   7
   6 -10  22-132.744 292.289   4
 -10   6 -22 372.492 619.467   6
  10  -6  22-45.5303 424.829   1
  -6 -10 -23 112.107 686.235   2
  -6  10 -23-456.775 618.316   6
  -6 -10 -23-299.914 328.092   3
   6  10  23 194.396 521.545   5
   6  10  23-178.089 247.444   8
  10  -6  23 201.817 388.181   4
   6 -10  23 32.6485 623.595   1
  -6  10 -23-118.108 291.867   7
   6 -10  23 17.1317 311.686   4
 -10   6 -23-117.489 596.119   6
  10  -6  23-647.655 466.087   1
  -6 -10 -24 85.6853 705.607   2
  -6  10 -24 76.7637 640.221   6
  -6 -10 -24 98.8720 317.951   3
   6  10  24 215.966 527.172   5
  10  -6  24 361.333 353.090   4
   6  10  24 339.218 262.249   8
  -6  10 -24-135.810 303.199   7
   6 -10  24-34.4035 661.525   1
   6 -10  24 157.984 308.878   4
 -10   6 -24-422.857 623.446   6
  10  -6  24 375.956 457.873   1
  -6 -10 -25 820.400 738.047   2
   6  10  25 160.602 258.980   8
  -6  10 -25 51.7581 616.249   6
  -6 -10 -25-309.372 325.202   3
   6  10  25-150.965 545.334   5
   6 -10  25-36.4307 740.852   1
  -6  10 -25-215.720 296.996   7
   6 -10  25 361.020 329.106   4
 -10   6 -25-95.3805 619.324   6
  -6 -10 -26 119.535 838.309   2
  -6 -10 -26 226.100 360.562   3
   6  10  26 467.291 297.185   8
   6 -10  26 38.8151 892.603   1
  -6  10 -26 1053.14 374.547   7
   6 -10  26-91.9380 375.686   4
  -6 -10 -27 914.175 784.572   2
  -6  10 -27 476.132 643.886   6
  -6 -10 -27 257.508 330.826   3
   6  10  27 303.556 533.009   5
   6  10  27 56.5060 275.573   8
   6 -10  27-707.282 867.822   1
  -6  10 -27-176.116 312.305   7
   6 -10  27-18.7193 331.687   4
  -6 -10 -28 248.692 780.632   2
  -6  10 -28 321.127 672.000   6
  -6 -10 -28-193.183 317.159   3
   6  10  28 174.475 533.908   5
   6 -10  28 449.047 918.560   1
   6  10  28 29.0769 279.855   8
  -6  10 -28 65.1068 331.003   7
   6 -10  28-152.905 342.786   4
  -6  10 -29 649.895 676.597   6
   6  10  29 972.889 565.843   5
   6 -10  29 48.8764 989.444   1
  -6  10 -29 264.252 329.263   7
   6  10  29 239.719 289.868   8
   6 -10  29-230.944 352.493   4
  -6  10 -30-682.634 676.460   6
   6 -10  30 375.649 1108.21   1
  -6  10 -30-217.325 341.988   7
   6 -10  30-213.563 350.058   4
  -6  10 -31 658.621 666.327   6
   6 -10  31-96.8395 342.603   4
  -7  10   0-42.1737 1027.38   6
  -7  10  -1-257.114 794.223   6
  -7  10  -2-245.478 658.947   6
   7 -10   2 50.2526 314.255   1
   7 -10   3-51.0345 309.738   1
  -7  10  -3-12.2081 226.205   7
  -7  10  -3-337.678 550.617   6
   7 -10   4-120.341 320.278   1
  -7  10  -4-12.3224 222.675   7
  -7  10  -4 604.908 568.674   6
   7 -10   5 474.816 364.632   1
  -7  10  -5 174.080 237.921   7
  -7  10  -5 21.3520 523.640   6
   7 -10   6 72.3324 348.558   1
  -7  10  -6-24.8962 226.974   7
  -7  10  -6 245.447 493.330   6
  -7  10  -7 482.896 507.883   6
  -7  10 -10-175.116 229.199   7
   7 -10  10-80.9190 381.910   1
   7 -10  11 20.7224 391.488   1
   7 -10  11 23.7078 196.893   4
  -7  10 -11 189.215 226.979   7
  -7  10 -11-341.778 483.698   6
   7 -10  12-12.2174 212.371   4
  -7  10 -12 286.515 503.868   6
   7 -10  13 50.4998 228.195   4
  -7  10 -13 62.3647 564.062   6
  -7  10 -14-346.801 256.735   7
   7 -10  14-39.1374 235.601   4
   7 -10  14 22.5925 439.756   1
  -7  10 -14-189.515 536.759   6
  -7  10 -15 91.1318 243.728   7
   7 -10  15 53.9190 233.325   4
   7 -10  15 139.022 453.687   1
  -7  10 -15 239.364 533.220   6
  -7  10 -16 209.386 246.348   7
   7 -10  16 13.9479 245.700   4
 -10   7 -16 179.441 488.569   6
   7 -10  16 23.7754 455.320   1
  -7  10 -16-154.695 542.837   6
   7  10  17-19.6801 451.512   5
  -7  10 -17-66.5065 249.488   7
   7 -10  17-201.697 262.947   4
 -10   7 -17-456.958 522.536   6
  10  -7  17 280.619 404.585   1
   7 -10  17-24.7565 477.326   1
  -7  10 -17-617.075 547.172   6
  -7  10 -18 71.4857 574.237   6
   7  10  18 297.756 458.217   5
  -7  10 -18 94.7411 253.581   7
   7 -10  18-44.6952 262.712   4
 -10   7 -18-277.589 529.104   6
  10  -7  18-43.7527 408.711   1
   7 -10  18 152.680 524.175   1
  -7  10 -19 96.8596 582.707   6
   7 -10  19-52.3649 537.621   1
   7  10  19 440.671 473.865   5
  -7  10 -19 399.736 271.201   7
   7 -10  19-76.6752 278.669   4
  10  -7  19-325.837 418.890   4
  -7 -10 -19 771.569 589.454   2
 -10   7 -19 177.311 558.452   6
  10  -7  19 133.088 408.767   1
  10  -7  20 854.728 466.406   1
  -7  10 -20 449.649 663.898   6
   7 -10  20 485.675 584.655   1
  -7 -10 -20 210.374 407.113   3
  10  -7  20 344.016 416.122   4
   7  10  20 960.530 492.781   5
  -7  10 -20 98.3402 295.194   7
   7 -10  20 15.7700 287.372   4
  -7 -10 -20-644.559 613.531   2
 -10   7 -20 1490.43 637.134   6
  10  -7  21 483.639 452.771   1
  -7  10 -21-308.932 637.533   6
   7 -10  21 891.120 597.084   1
  -7 -10 -21 953.992 406.595   3
   7  10  21-179.823 472.677   5
  10  -7  21 112.632 400.520   4
 -10   7 -21-277.871 297.840   7
  -7  10 -21 257.981 289.341   7
   7 -10  21-146.331 289.230   4
  -7 -10 -21 1170.63 624.661   2
 -10   7 -21-565.834 610.710   6
  -7  10 -22-156.598 635.928   6
  10  -7  22-280.354 459.864   1
   7 -10  22-28.8164 563.545   1
  -7 -10 -22-214.027 374.249   3
   7  10  22 779.893 486.906   5
 -10   7 -22-265.814 299.654   7
  10  -7  22 65.7886 391.101   4
  -7  10 -22 14.5354 277.855   7
   7 -10  22-366.268 302.454   4
  -7 -10 -22-208.844 621.768   2
 -10   7 -22-453.822 616.889   6
  -7  10 -23 315.265 672.628   6
  10  -7  23 331.884 465.733   1
   7 -10  23-29.8825 594.713   1
  -7 -10 -23 705.582 376.669   3
   7  10  23 1096.68 489.144   5
   7  10  23 206.198 235.581   8
 -10   7 -23 206.300 302.231   7
  10  -7  23 276.181 391.431   4
  -7  10 -23 519.149 308.543   7
   7 -10  23 188.127 309.717   4
  -7 -10 -23 483.533 652.993   2
 -10   7 -23-726.698 630.838   6
  -7  10 -24-132.914 654.532   6
  10  -7  24-120.279 452.016   1
   7 -10  24 404.007 661.256   1
   7  10  24 100.019 243.978   8
  -7 -10 -24-465.958 371.386   3
   7  10  24 237.963 481.565   5
 -10   7 -24-64.4883 324.865   7
  -7  10 -24-317.852 306.107   7
  10  -7  24 82.0018 377.697   4
   7 -10  24-247.067 326.104   4
  -7 -10 -24 467.788 647.928   2
 -10   7 -24-347.015 654.026   6
  -7  10 -25 347.331 798.281   6
  10  -7  25 146.514 504.810   1
  -7 -10 -25 174.037 354.864   3
   7  10  25 276.099 509.690   5
   7  10  25 12.8830 262.753   8
 -10   7 -25 262.394 340.637   7
  -7  10 -25-493.937 348.141   7
  10  -7  25-375.395 377.399   4
   7 -10  25-435.058 357.686   4
  -7 -10 -25-2647.31 795.504   2
 -10   7 -25 2146.72 714.701   6
  -7  10 -26 591.381 679.203   6
  10  -7  26-247.964 498.874   1
   7 -10  26 441.105 724.252   1
  -7 -10 -26-67.6080 323.645   3
   7  10  26 412.536 491.400   5
   7  10  26-225.651 262.181   8
 -10   7 -26 317.444 323.316   7
  -7  10 -26-204.471 315.685   7
  10  -7  26 246.909 357.321   4
   7 -10  26 203.115 338.643   4
  -7 -10 -26 749.207 703.707   2
 -10   7 -26-957.927 691.210   6
  -7  10 -27-216.849 686.131   6
   7 -10  27 35.6504 708.707   1
  -7 -10 -27 16.5159 324.978   3
   7  10  27 392.840 488.137   5
   7  10  27-123.229 260.937   8
  -7  10 -27-384.395 328.807   7
   7 -10  27-94.3100 342.767   4
  -7 -10 -27-1944.86 754.922   2
  -7  10 -28 684.207 682.985   6
   7 -10  28-263.215 765.577   1
  -7  10 -28-211.608 314.569   7
   7  10  28-217.700 486.467   5
   7  10  28-113.110 276.790   8
   7 -10  28 476.747 350.229   4
  -7  10 -29 440.758 668.884   6
   7 -10  29 39.8083 830.346   1
  -7  10 -29 166.271 339.777   7
   7 -10  29-423.408 370.029   4
  -7  10 -30 388.690 685.522   6
   7 -10  30-350.485 357.196   4
  -8  10  -4-152.480 825.371   6
   8 -10   7 37.7153 346.854   1
  -8  10  -7 39.8573 229.076   7
   8 -10   8 250.835 359.680   1
  -8  10  -8 106.733 251.649   7
  -8  10  -8-43.3728 524.951   6
   8 -10   9-274.613 387.950   1
  -8  10  -9 26.8101 233.081   7
  -8  10  -9-84.9984 502.987   6
   8 -10  10-20.1844 413.939   1
  -8  10 -10-107.029 258.011   7
  -8  10 -10-124.961 525.493   6
  -8  10 -11 578.493 303.606   7
   8 -10  11 1625.39 506.513   1
  -8  10 -11 1523.77 609.927   6
   8 -10  12-212.092 228.734   4
  -8  10 -12 84.3342 497.985   6
   8 -10  13-12.8532 223.082   4
  -8  10 -13-211.515 511.448   6
   8 -10  14 66.3472 419.167   1
  -8  10 -14 122.769 250.579   7
   8 -10  14 252.817 246.915   4
  -8  10 -14-107.725 512.362   6
   8 -10  15 22.5891 427.945   1
  -8  10 -15-81.4187 252.906   7
   8 -10  15 13.8059 237.729   4
 -10   8 -15-401.013 498.850   6
  10  -8  15-301.401 418.282   1
  -8  10 -15 130.740 522.495   6
  -8  10 -16 68.6282 258.662   7
   8 -10  16-42.9499 254.897   4
   8 -10  16 140.444 451.218   1
 -10   8 -16-269.317 505.963   6
  10  -8  16-544.721 444.196   1
  -8  10 -16-88.8165 545.828   6
   8 -10  17 23.9300 455.173   1
  -8  10 -17-264.072 263.338   7
   8 -10  17 44.5617 259.498   4
 -10   8 -17 150.228 515.033   6
  -8  10 -17-459.288 561.300   6
  10  -8  17 242.784 420.393   1
  10  -8  18 112.856 439.043   1
  -8  10 -18-14.0954 268.089   7
   8 -10  18 24.4732 469.224   1
 -10   8 -18 30.0284 288.252   7
  10  -8  18 20.9492 378.563   4
   8 -10  18 15.3802 271.617   4
 -10   8 -18-285.551 551.589   6
  -8  10 -18 233.400 558.656   6
  10  -8  19-274.546 441.342   1
   8 -10  19 25.0553 505.605   1
 -10   8 -19-166.549 300.693   7
  10  -8  19 214.089 412.493   4
  -8  10 -19-214.628 285.980   7
   8 -10  19-270.393 300.580   4
 -10   8 -19-660.039 594.825   6
  -8  10 -19-169.064 600.141   6
 -10   8 -20 382.280 304.648   7
  10  -8  20 162.367 446.747   1
  10  -8  20 458.253 409.663   4
  -8  10 -20-14.3372 274.936   7
   8 -10  20 128.349 517.903   1
   8 -10  20 148.075 288.205   4
 -10   8 -20-281.910 593.774   6
  -8  10 -20-151.083 610.050   6
  -8  10 -21 409.315 649.841   6
  10  -8  21-188.194 444.389   1
   8 -10  21 135.357 294.566   4
 -10   8 -21-108.225 295.648   7
  -8  10 -21 145.787 280.270   7
  10  -8  21-198.202 406.217   4
   8 -10  21 605.543 556.511   1
 -10   8 -21-526.625 612.195   6
  -8  10 -22 1318.41 722.314   6
  10  -8  22 334.040 469.865   1
  -8 -10 -22 672.308 456.557   3
   8  10  22-162.623 435.861   5
 -10   8 -22 375.555 302.220   7
  -8  10 -22 504.461 318.962   7
  10  -8  22-176.537 392.002   4
   8 -10  22-313.767 315.105   4
   8 -10  22 162.221 586.008   1
 -10   8 -22 146.735 623.400   6
  -8  10 -23 240.623 681.711   6
  10  -8  23-363.149 488.241   1
  -8 -10 -23 173.379 419.371   3
   8  10  23 466.728 445.860   5
  -8  10 -23 15.1033 302.753   7
 -10   8 -23-253.567 309.456   7
  10  -8  23-263.626 390.394   4
   8 -10  23-28.1684 559.125   1
   8 -10  23 17.8468 315.667   4
 -10   8 -23 1185.39 680.671   6
  -8  10 -24 1483.77 834.891   6
  10  -8  24 466.942 574.743   1
  -8 -10 -24 161.175 414.076   3
   8  10  24 2470.40 499.459   5
  -8  10 -24 983.935 372.311   7
 -10   8 -24 369.647 346.588   7
  10  -8  24-130.204 430.723   4
   8 -10  24 261.224 674.203   1
   8 -10  24-236.401 351.382   4
 -10   8 -24 3236.70 751.642   6
  -8  10 -25 552.010 695.790   6
  10  -8  25 125.798 521.844   1
  -8 -10 -25-549.090 382.791   3
  10  -8  25-170.436 387.308   4
   8  10  25 782.016 450.469   5
 -10   8 -25-32.6447 323.622   7
  -8  10 -25-203.521 320.655   7
   8 -10  25 29.9600 589.519   1
   8 -10  25 148.531 334.027   4
 -10   8 -25-755.527 686.896   6
 -10   8 -26 187.617 679.335   6
  -8  10 -26 55.6934 692.242   6
  10  -8  26 485.466 529.402   1
  -8 -10 -26 107.780 360.180   3
   8  10  26 283.149 419.673   5
  -8  10 -26-15.9305 320.220   7
 -10   8 -26-49.7712 318.197   7
  10  -8  26 186.951 378.257   4
   8 -10  26-30.9992 642.996   1
   8 -10  26-19.0191 355.916   4
 -10   8 -27-190.577 715.615   6
  -8  10 -27-111.643 697.424   6
  10  -8  27 103.818 528.279   1
  -8  10 -27-486.088 344.334   7
   8  10  27-17.6064 441.659   5
 -10   8 -27-50.6270 331.961   7
   8 -10  27 32.1411 659.383   1
  10  -8  27-243.028 386.870   4
   8 -10  27-445.490 376.443   4
  -8  10 -28-587.610 714.036   6
  -8  10 -28 214.034 332.897   7
   8 -10  28 434.319 670.548   1
   8 -10  28-39.0613 352.462   4
  -8  10 -29 168.618 716.596   6
   8 -10  29-118.402 359.313   4
  -9  10  -8 1251.30 763.872   6
   9 -10   8 3009.84 567.520   1
  -9  10  -9-412.679 615.474   6
   9 -10   9-301.963 441.859   1
   9 -10  10-20.5597 376.017   1
  -9  10 -10-56.5855 259.535   7
  -9  10 -10-266.350 522.637   6
   9 -10  11 20.8455 401.836   1
  -9  10 -11 70.9342 263.998   7
  -9  10 -11 109.066 523.037   6
  -9  10 -12 257.344 520.881   6
   9 -10  13-21.6737 444.505   1
  -9  10 -13 185.790 279.256   7
 -10   9 -13 20.5709 478.420   6
  -9  10 -13 86.2376 507.705   6
   9 -10  14-220.313 441.104   1
  -9  10 -14 28.7447 251.445   7
   9 -10  14-41.9002 243.960   4
 -10   9 -14 143.931 503.785   6
  -9  10 -14-218.361 514.129   6
  10  -9  14-43.5669 408.687   1
  -9  10 -15-459.630 273.942   7
   9 -10  15 44.8288 450.216   1
   9 -10  15-318.692 266.040   4
 -10   9 -15-230.637 502.671   6
  -9  10 -15 219.744 521.794   6
  10  -9  15-374.768 415.140   1
  10  -9  16-22.5322 432.581   1
   9 -10  16-23.0514 452.991   1
 -10   9 -16-29.8973 287.750   7
  -9  10 -16 43.4335 272.365   7
   9 -10  16-15.0894 259.280   4
 -10   9 -16-236.519 540.359   6
  -9  10 -16 336.567 551.081   6
  10  -9  17-22.8275 466.431   1
   9 -10  17 492.843 492.822   1
 -10   9 -17 60.1419 281.719   7
  10  -9  17 18.5270 328.242   4
  -9  10 -17-29.2253 278.336   7
   9 -10  17 31.4806 270.056   4
 -10   9 -17 132.831 561.526   6
  -9  10 -17-114.332 571.551   6
  10  -9  18 161.969 484.255   1
   9 -10  18 262.964 475.112   1
 -10   9 -18 15.1423 276.493   7
  -9  10 -18 251.061 289.495   7
  10  -9  18-327.989 339.127   4
   9 -10  18-180.294 291.725   4
 -10   9 -18-22.5684 547.517   6
  -9  10 -18-487.758 595.787   6
  10  -9  19-23.4645 452.269   1
   9 -10  19 24.3559 486.439   1
 -10   9 -19-122.141 291.945   7
  -9  10 -19 192.433 284.937   7
  10  -9  19 80.3355 372.045   4
   9 -10  19-136.480 315.578   4
 -10   9 -19-325.700 579.199   6
  -9  10 -19 336.868 587.130   6
  10  -9  20 23.8028 459.625   1
   9 -10  20 49.6675 494.981   1
  -9  10 -20-344.791 291.205   7
  10  -9  20 166.627 381.694   4
 -10   9 -20-292.703 301.554   7
   9 -10  20-70.7951 320.156   4
 -10   9 -20-23.8644 586.778   6
  -9  10 -20-367.280 598.617   6
  10  -9  21-24.3496 461.982   1
   9 -10  21 76.8547 514.886   1
 -10   9 -21 62.2893 307.747   7
  -9  10 -21 45.6003 292.012   7
  10  -9  21-364.842 399.398   4
   9 -10  21 604.207 336.915   4
 -10   9 -21 340.581 624.104   6
  -9  10 -21 101.344 621.345   6
  -9  10 -22-713.371 697.112   6
  10  -9  22-98.9004 505.218   1
   9 -10  22-52.3365 519.461   1
 -10   9 -22 393.876 305.728   7
  -9  10 -22-154.196 303.846   7
   9 -10  22-416.031 346.350   4
 -10   9 -22-50.4353 650.716   6
  10  -9  22 87.8148 401.483   4
  -9  10 -23-268.199 789.683   6
  10  -9  23 728.057 598.555   1
   9 -10  23 1123.78 611.821   1
 -10   9 -23 1260.00 374.931   7
  -9  10 -23 469.778 363.935   7
  10  -9  23 1272.61 474.992   4
   9 -10  23 930.662 418.038   4
 -10   9 -23 1771.91 760.150   6
 -10   9 -24 129.366 305.094   7
  -9  10 -24 82.8192 686.965   6
  10  -9  24 255.163 519.781   1
   9 -10  24-109.519 547.756   1
  -9  10 -24 461.306 318.529   7
  10  -9  24-22.5234 398.737   4
   9 -10  24 296.890 364.414   4
 -10   9 -24-501.402 661.867   6
 -10   9 -25 1121.02 719.872   6
  -9  10 -25-226.887 720.434   6
  10  -9  25-207.508 555.445   1
   9 -10  25 28.0619 564.581   1
 -10   9 -25 49.2033 315.746   7
  -9  10 -25-145.409 321.926   7
  10  -9  25-179.990 395.482   4
   9 -10  25 505.004 401.486   4
 -10   9 -26 251.753 741.121   6
  -9  10 -26-286.252 732.623   6
  10  -9  26 79.1621 528.948   1
   9 -10  26 115.161 594.407   1
 -10   9 -26-282.914 311.350   7
  -9  10 -26 279.114 335.071   7
  10  -9  26 44.8337 397.124   4
   9 -10  26 61.1769 370.701   4
 -10   9 -27 870.820 731.376   6
  -9  10 -27-200.605 725.393   6
  10  -9  27 134.326 558.083   1
 -10   9 -27-506.956 346.078   7
   9 -10  27 591.929 648.662   1
  10  -9  27 22.1022 398.550   4
   9 -10  27-308.940 373.666   4
  -9  10 -27-316.885 324.426   7
 -10   9 -28-457.046 734.949   6
  10  -9  28 465.073 566.824   1
  10  -9  28 152.245 396.625   4
   9 -10  28-458.295 382.680   4
 -10  10 -12 242.921 531.821   6
 -10  10 -13-109.443 517.472   6
  10 -10  13-220.834 425.461   1
 -10  10 -14-65.8452 547.743   6
  10 -10  14-22.3493 415.206   1
  10 -10  15-22.8403 480.182   1
  10 -10  15 220.093 287.119   4
 -10  10 -15 15.0630 279.112   7
 -10  10 -15-219.214 574.736   6
  10 -10  16 439.892 457.156   1
  10 -10  16-645.782 318.137   4
 -10  10 -16 15.1303 281.429   7
 -10  10 -16-223.212 536.027   6
  10 -10  17-23.4759 451.502   1
 -10  10 -17-45.6551 291.321   7
  10 -10  17-329.368 308.351   4
 -10  10 -17 22.5615 562.309   6
  10 -10  18-71.4528 501.809   1
 -10  10 -18 260.438 292.196   7
  10 -10  18-382.426 333.997   4
 -10  10 -18-92.5143 573.564   6
  10 -10  19-121.875 487.557   1
 -10  10 -19-108.155 305.385   7
  10 -10  19-191.239 344.738   4
 -10  10 -19 70.9332 596.618   6
  10 -10  20-717.763 493.136   1
 -10  10 -20 171.556 298.274   7
  10 -10  20-20.0267 337.256   4
 -10  10 -20-24.0771 627.635   6
  10 -10  21-477.758 573.435   1
 -10  10 -21-346.811 335.546   7
  10 -10  21-83.5243 381.475   4
 -10  10 -21 74.9361 702.471   6
  10 -10  22-383.476 515.799   1
  10 -10  22-824.514 432.647   4
 -10  10 -22-446.589 323.451   7
 -10  10 -22 310.540 670.811   6
  10 -10  23 26.0141 496.811   1
 -10  10 -23 80.7253 304.632   7
  10 -10  23-112.026 385.674   4
 -10  10 -23 631.684 670.128   6
 -10  10 -24 246.718 688.630   6
  10 -10  24 79.4621 521.493   1
 -10  10 -24 16.3599 308.743   7
  10 -10  24 527.502 414.227   4
 -10  10 -25-166.666 706.235   6
  10 -10  25 296.922 556.781   1
 -10  10 -25-493.990 325.838   7
  10 -10  25 327.828 418.847   4
 -10  10 -26-285.137 722.109   6
  10 -10  26 55.0791 573.781   1
  10 -10  26 118.236 436.813   4
   0  11   0 7.29231 128.932   8
   0  11   0 176.668 330.409   6
   0 -11   0-695.608 484.069   2
   0 -11   0-162.182 171.479   3
   0  11   0-522.435 327.729   5
   0  11   0 154.450 159.664   7
   0 -11   0-158.576 166.390   4
   0 -11   1 270.695 475.867   2
   0  11   1-42.7892 333.841   6
   0  11  -1-334.177 325.372   6
   0 -11  -1 139.500 173.949   3
   0 -11  -1 37.9976 472.706   2
   0  11  -1 210.003 313.735   5
   0  11   1 205.309 319.515   5
   0  11  -1-27.9920 121.925   8
   0  11   1-37.4564 129.848   8
   0  11   1 31.5509 157.182   7
   0  11  -1 109.534 163.898   7
   0 -11  -1 261.822 164.821   4
   0 -11   1 394.517 187.117   4
   0 -11   2-299.119 418.600   2
   0  11   2-648.976 331.360   6
   0  11  -2-140.902 334.538   6
   0  11   2 161.887 144.252   8
   0 -11  -2-114.570 180.627   3
   0  11  -2 90.9050 305.771   5
   0 -11  -2 228.290 488.720   2
   0  11   2-393.462 336.934   5
   0  11  -2-79.2546 118.308   8
   0  11   2-61.6080 143.701   7
   0  11  -2-87.6917 164.313   7
   0 -11  -2 61.0407 162.023   4
   0 -11   2 148.653 176.405   4
   0  11   3 801.635 328.643   6
   0  11  -3 1112.69 381.012   6
   0 -11  -3 886.429 211.516   3
   0  11  -3 462.642 330.609   5
   0  11   3 826.320 347.339   5
   0 -11  -3 38.0803 480.588   2
   0  11  -3 733.023 153.918   8
   0  11   3 894.234 181.491   8
   0  11   3 1044.17 192.075   7
   0  11  -3 927.540 213.185   7
   0 -11   3 650.290 382.706   2
   0 -11  -3 781.161 190.995   4
   0 -11   3 754.411 209.288   4
   0  11  -4 148.909 349.758   6
   0 -11  -4 9.98229 193.220   3
   0  11  -4-322.179 327.144   5
   0  11   4 149.078 334.220   5
   0 -11  -4-801.292 509.352   2
   0  11   4 162.808 154.477   8
   0  11  -4-105.946 172.011   7
   0 -11   4-209.525 175.854   4
   0 -11  -5 2121.91 341.182   3
   0  11  -5 1717.71 467.489   6
   0  11   5 2769.07 467.934   5
   0  11  -5 2335.39 336.510   7
   0 -11   5 2476.93 349.543   4
   0 -11  -5 1266.77 555.169   2
   0  11   5 2775.50 316.134   8
   0 -11   6 177.445 192.033   4
   0  11   6-238.634 166.382   8
   0  11  -6-192.119 365.386   6
   0 -11  -6-94.4409 206.176   3
   0  11  -6-52.6258 205.746   7
   0 -11  -7 2536.97 408.535   3
   0  11   7 2488.34 541.445   5
   0  11   7 3967.03 397.972   8
   0  11  -7 3386.45 420.058   7
   0 -11   7 2657.99 408.992   4
   0 -11   8 11.6200 187.658   4
   0  11  -8 36.7280 381.619   6
   0 -11  -8-132.686 205.108   3
   0  11   8-253.316 385.084   5
   0  11   8-252.017 174.383   8
   0  11  -8 11.3706 205.117   7
   0 -11   9 1412.40 292.697   4
   0 -11  -9 2513.91 313.570   3
   0  11  -9 168.657 432.258   6
   0  11   9 1973.09 452.155   5
   0  11   9 2312.18 273.036   8
   0 -11  -9 2060.97 576.401   2
   0  11  -9 81.9282 300.891   7
   0 -11  10 12.1728 191.825   4
   0  11 -10 268.386 412.247   6
   0 -11 -10-81.2381 219.233   3
   0  11  10 453.746 413.537   5
   0  11  10 67.4124 179.161   8
   0 -11 -10-843.752 542.279   2
   0  11 -10-11.9690 223.296   7
   0 -11  11 371.980 225.414   4
   0  11 -11 39.1975 424.662   6
   0 -11 -11 868.599 247.791   3
   0  11  11 1201.14 447.248   5
   0  11  11 740.356 199.429   8
   0 -11 -11 453.506 543.535   2
   0  11 -11 48.6364 230.245   7
   0 -11  12-100.901 204.275   4
   0  11 -12 240.189 423.137   6
   0 -11 -12 256.268 231.572   3
   0  11  12 19.2976 433.909   5
   0 -11 -14-562.630 579.526   2
   0  11  14 54.2603 202.277   8
   0  11 -14 172.530 219.430   7
   0  11  15 21.4149 464.396   5
   0 -11  15-304.968 222.120   4
   0  11  15 11.1294 205.003   8
   0 -11 -15 79.4879 237.610   3
   0  11 -15-12.2719 217.751   7
   0 -11  16-549.443 249.009   4
   0 -11 -16-163.774 264.328   3
   0 -11 -17-464.593 286.008   3
   0 -11  17 108.473 218.815   4
   0  11  18-186.332 514.997   5
   0 -11 -18-87.1707 268.817   3
   0  11  18 304.762 239.635   8
   0 -11 -18-535.003 650.604   2
   0 -11 -19 736.020 291.978   3
   0  11  19 587.178 260.368   8
   0  11  19 692.092 535.465   5
   0 -11 -19 222.498 695.207   2
   0 -11 -20 108.677 269.870   3
   0  11  20-12.7970 235.392   8
   0 -11 -20 29.0222 717.414   2
   0  11  20 49.1271 540.924   5
   0  11  21 1061.30 296.565   8
   0 -11 -21 900.599 337.505   3
   0 -11 -21 606.999 797.320   2
   0  11  21 1831.83 601.883   5
   0  11  22 120.692 259.389   8
   0  11  22 154.540 595.730   5
   0 -11 -22-346.746 303.005   3
   0 -11 -22-1082.77 843.818   2
   0  11  23 493.776 276.179   8
   0  11  23 761.862 591.415   5
   0 -11 -23 239.648 326.704   3
   0 -11 -23-33.5334 859.812   2
   0  11  24-196.223 268.588   8
   0  11  24 134.309 602.841   5
   0 -11 -24-88.3035 316.442   3
   0 -11 -24 247.930 904.521   2
   0  11  25 529.537 282.608   8
   0 -11 -25 73.2428 337.722   3
   0  11  25 436.187 607.145   5
   0 -11 -25-601.116 951.954   2
   0  11  26 72.9542 286.434   8
   0  11  26-860.172 620.832   5
   0 -11 -26 495.442 339.203   3
   0 -11 -26-1400.72 1038.71   2
   0  11  27 460.427 314.500   8
   0 -11 -27 769.427 401.595   3
   0  11  28 193.015 279.343   8
   0  11  28-538.881 661.268   5
   0 -11 -28-143.119 368.926   3
   0 -11 -28 918.086 1187.94   2
   0  11  29 652.206 652.928   5
   0  11  29 45.1765 290.640   8
   0 -11 -29-358.429 384.131   3
   0  11  30 167.655 298.215   8
   0 -11 -30 130.689 390.220   3
   0  11  30-427.152 636.599   5
   0 -11 -30 1173.36 1390.30   2
   0  11  31 710.092 652.883   5
   0 -11 -31 557.615 427.741   3
  -1 -11   0 634.357 453.017   2
  -1  11   0 555.273 347.370   6
  -1 -11   0-159.110 147.574   4
   1  11   0-511.373 359.017   5
   1 -11   0-177.676 169.440   3
  -1  11   0 189.000 300.567   5
   1 -11   0-606.336 460.272   2
  -1  11   0-78.6446 133.781   8
   1  11   0-64.2950 132.363   8
  -1  11   0 108.949 158.118   7
   1  11   0 190.438 171.561   7
   1 -11   0 9.32872 156.285   4
  -1 -11  -1-139.183 497.061   2
  -1  11   1 452.200 344.646   6
  -1  11  -1 241.371 359.191   6
  -1 -11   1 376.121 170.776   4
  -1 -11  -1 305.986 155.237   4
   1  11  -1 641.176 383.028   5
   1 -11   1 25.8286 166.357   3
   1  11   1 510.226 361.672   5
   1 -11   1 396.499 466.797   2
   1 -11  -1 257.715 183.916   3
  -1  11  -1-133.750 294.234   5
  -1  11   1-13.0248 306.170   5
   1 -11  -1 902.071 484.521   2
   1  11   1 338.344 144.842   8
  -1  11  -1 375.268 140.694   8
  -1  11   1 301.518 145.301   8
  -1  11   1 348.695 172.932   7
  -1  11  -1 280.499 174.116   7
   1  11   1 292.628 172.142   7
   1  11  -1 306.147 189.857   7
   1 -11  -1 413.258 172.457   4
   1 -11   1 192.402 180.859   4
  -1 -11   1 706.335 413.753   2
  -1  11   2-13.6913 330.404   6
  -1 -11   2 151.690 155.008   4
  -1  11  -2 388.972 357.339   6
  -1 -11  -2 177.888 139.847   4
  -1 -11  -2 616.690 500.890   2
   1 -11  -2-157.417 468.679   2
   1 -11   2-288.081 445.348   2
   1 -11   2 415.559 179.077   3
   1  11  -2 144.273 374.247   5
   1  11   2 433.955 356.281   5
   1 -11  -2 151.712 180.446   3
  -1  11  -2-269.943 290.800   5
  -1  11   2 13.4988 318.576   5
   1  11   2 234.648 140.725   8
  -1  11  -2-13.3978 132.285   8
   1 -11  -2 119.969 304.805   1
  -1  11   2 173.217 139.962   8
  -1  11   2 156.329 172.750   7
  -1  11  -2-8.65473 160.717   7
   1  11   2-54.7096 156.688   7
   1  11  -2-21.7911 204.430   7
   1 -11  -2 174.136 158.671   4
   1 -11   2 19.8423 163.356   4
  -1  11   3-290.351 322.629   6
  -1 -11   3 370.971 172.926   4
  -1  11  -3 176.279 357.207   6
   1 -11   3 96.1674 429.708   2
  -1 -11  -3 249.594 500.941   2
   1 -11   3 168.677 166.171   3
   1  11  -3-117.090 405.135   5
   1  11   3-361.755 353.025   5
  -1  11  -3 113.533 277.799   5
   1 -11  -3 410.161 199.751   3
  -1  11   3 181.547 327.027   5
   1  11   3 434.411 157.033   8
  -1  11   3 263.999 146.755   8
   1 -11  -3-17.6664 462.097   2
  -1  11  -3 140.784 122.337   8
   1 -11  -3 327.283 305.285   1
  -1  11   3 285.596 172.762   7
  -1  11  -3 406.829 170.295   7
   1  11  -3 261.108 219.551   7
   1 -11  -3 227.793 157.827   4
   1 -11   3 143.168 183.519   4
   1 -11   4 639.777 402.570   2
  -1 -11   4 621.557 203.519   4
  -1  11  -4 594.948 379.988   6
  -1 -11  -4 1033.72 231.380   3
   1 -11   4 1015.57 194.666   3
   1  11  -4 1497.38 470.119   5
  -1 -11  -4 416.270 496.894   2
   1  11   4 414.556 373.582   5
   1 -11  -4 552.778 223.148   3
  -1  11   4 492.180 360.102   5
   1  11   4 1048.98 194.139   8
   1 -11  -4 813.532 487.854   2
  -1  11  -4 663.010 197.289   7
   1  11  -4 899.691 268.164   7
  -1  11   4 683.061 179.399   8
   1 -11   4 1043.17 221.853   4
  -1 -11   5 164.327 173.140   4
  -1  11  -5 254.794 387.516   6
  -1 -11  -5 395.189 203.746   3
   1  11  -5 787.914 490.795   5
  -1 -11  -5-20.7830 502.897   2
   1  11   5-162.708 381.212   5
   1 -11  -5 82.7735 198.016   3
  -1  11   5-226.300 350.382   5
   1  11   5 229.270 157.837   8
  -1  11   5 390.109 163.656   8
   1 -11  -5-313.960 486.278   2
  -1  11  -5 149.507 170.477   7
   1  11  -5 287.692 259.878   7
   1 -11   5 97.9588 190.182   4
  -1 -11  -6 3252.32 370.559   3
   1 -11  -6 2800.37 370.156   3
   1  11   6 3070.00 508.992   5
  -1 -11  -6 2455.21 627.002   2
  -1  11   6 2470.87 486.710   5
   1  11   6 2885.49 332.373   8
  -1  11   6 2172.66 321.783   8
   1  11  -6 3931.62 427.601   7
   1 -11   6 2363.98 360.979   4
  -1 -11   6 1753.57 333.875   4
   1 -11  -6 2513.95 606.251   2
  -1  11  -6 2089.40 333.527   7
  -1 -11   7-42.9874 179.179   4
  -1  11  -7 412.430 406.685   6
  -1 -11  -7-195.964 215.109   3
   1  11   7-292.147 415.569   5
  -1 -11  -7 229.598 533.041   2
   1 -11  -7-109.548 216.721   3
  -1  11   7-145.083 398.845   5
  -1  11   7 267.867 173.787   8
   1 -11  -7-1088.51 549.049   2
  -1  11  -7 9.91397 196.636   7
   1  11   7-115.723 160.733   8
   1  11  -7-272.469 267.391   7
   1 -11   7-126.740 199.704   4
  -1 -11   8 1521.42 272.488   4
  -1  11  -8 716.699 471.085   6
  -1 -11  -8 2202.07 301.317   3
   1  11   8 1449.71 442.824   5
   1 -11  -8 1973.94 301.037   3
  -1  11   8 1864.07 262.357   8
  -1 -11  -8 1489.54 576.386   2
  -1  11   8 1737.62 427.505   5
   1  11   8 2344.66 267.480   8
   1  11  -8 248.664 386.528   7
   1 -11  -8 2418.78 579.109   2
  -1  11  -8 143.063 266.108   7
   1 -11   8 1398.91 289.668   4
  -1  11   9 9.60610 175.816   8
  -1  11  -9 18.8175 417.361   6
  -1 -11  -9 330.101 216.333   3
   1  11   9-308.793 404.476   5
   1 -11  -9 487.961 231.878   3
  -1  11   9 383.168 389.361   5
  -1 -11  -9-465.617 510.083   2
   1  11   9 140.268 174.131   8
   1 -11  -9-144.113 495.766   2
  -1  11  -9-231.360 188.185   7
   1  11  -9-15.7119 281.460   7
   1 -11   9 85.9338 214.540   4
  -1  11 -10-250.247 434.905   6
  -1 -11 -10 1312.67 268.067   3
   1 -11 -10 955.936 553.679   2
   1  11  10 1231.78 455.116   5
  -1  11  10 667.730 425.118   5
  -1 -11 -10 1310.27 546.672   2
  -1  11  10 780.885 219.987   8
   1  11  10 1236.75 223.513   8
  -1  11 -10 151.236 239.901   7
   1  11 -10 93.9595 316.700   7
   1 -11 -10 1183.92 273.726   3
   1 -11  10 856.351 254.360   4
   1 -11 -11-184.969 229.187   3
   1  11  11 225.202 185.853   8
  -1  11 -11-98.6813 421.319   6
  -1 -11 -11 71.4772 238.319   3
   1  11  11-211.526 445.964   5
  -1  11  11 483.957 419.749   5
  -1 -11 -11 21.7766 520.836   2
  -1  11 -11 33.1091 205.144   7
   1  11 -11-30.8439 274.565   7
   1 -11 -11-65.7603 541.458   2
  -1  11  11 172.907 187.466   8
   1 -11  11 103.840 222.034   4
  -1  11  12 347.002 428.423   5
  -1  11 -12-322.494 459.744   6
  -1 -11 -12-48.6612 227.730   3
   1  11  12 850.180 461.453   5
   1 -11 -12 12.7222 238.806   3
   1 -11  12 119.544 223.409   4
   1  11  14-189.802 190.286   8
  -1 -11 -14-23.1758 547.588   2
  -1  11  14 78.8523 193.587   8
  -1  11 -14 34.9878 206.953   7
   1 -11  15 99.2756 227.449   4
  -1  11 -15 85.2217 457.635   6
  -1 -11 -15 246.906 240.206   3
   1  11  15 820.385 487.197   5
  -1  11  15-21.2354 466.172   5
   1 -11 -15 364.686 254.647   3
  -1  11  15 23.1565 207.691   8
  -1  11 -15 307.084 224.637   7
   1 -11  16-173.027 255.827   4
  -1  11 -16-389.008 522.991   6
  -1 -11 -16-505.660 283.587   3
  -1  11  16-1113.36 543.042   5
   1 -11 -16-536.372 287.351   3
  -1  11  16-392.604 248.764   8
   1 -11  17 44.1256 250.273   4
  -1  11 -17-219.865 497.407   6
  -1 -11 -17-232.013 278.957   3
   1  11  17-367.740 558.730   5
   1  11  17-149.242 222.401   8
  -1  11  17-766.408 518.643   5
   1 -11 -17-75.0371 279.229   3
   1 -11  18 625.576 252.585   4
  -1  11 -18 111.769 476.709   6
   1  11  18 398.912 225.703   8
   1  11  18 165.365 534.102   5
  -1 -11 -18 433.982 274.791   3
  -1  11  18 462.150 494.260   5
   1 -11 -18 415.657 289.090   3
  -1 -11 -18-973.430 678.423   2
  -1  11 -18 435.843 244.982   7
   1 -11  19-451.698 244.638   4
  -1  11 -19-135.674 496.943   6
   1  11  19-72.4835 543.727   5
  -1 -11 -19 57.5922 260.189   3
  -1  11  19-214.265 508.160   5
  -1  11  19 128.810 244.004   8
   1 -11 -19 15.9470 285.578   3
  -1 -11 -19-369.365 677.760   2
   1  11  19 359.703 234.138   8
  -1  11 -19 146.046 220.595   7
   1 -11  20 1194.40 298.366   4
  -1  11 -20-252.625 488.518   6
  -1  11  20 2169.20 584.676   5
  -1 -11 -20 578.343 299.400   3
   1  11  20 955.399 269.462   8
   1  11  20 967.247 578.896   5
  -1  11  20 819.530 286.240   8
   1 -11 -20 545.350 322.645   3
  -1 -11 -20 1334.25 728.782   2
  -1  11 -20 366.621 248.578   7
   1 -11  21 15.4163 256.652   4
  -1 -11 -21 28.1604 706.684   2
   1  11  21-455.215 575.772   5
   1  11  21 325.240 242.296   8
  -1  11  21 925.971 567.082   5
   1 -11 -21 102.183 305.621   3
  -1 -11 -21 290.535 291.811   3
  -1  11  21-13.5595 258.114   8
  -1  11 -21-49.0737 225.896   7
   1 -11  22 139.777 266.754   4
   1  11  22 741.030 280.178   8
   1  11  22 829.122 633.190   5
  -1 -11 -22 126.371 317.949   3
  -1  11  22 1198.52 583.738   5
  -1  11  22 792.485 297.208   8
  -1 -11 -22 262.778 797.992   2
   1 -11 -22 864.028 351.022   3
  -1  11 -22 344.615 252.092   7
   1  11  23 448.420 601.132   5
  -1  11  23 356.044 280.852   8
  -1 -11 -23 293.789 306.453   3
  -1  11  23 260.653 582.158   5
  -1 -11 -23-1061.64 818.163   2
   1 -11 -23 18.3277 323.396   3
   1  11  23 143.436 251.309   8
  -1  11 -23-61.8847 243.232   7
  -1  11  24 131.227 285.665   8
  -1  11  24 582.305 571.878   5
   1  11  24-26.5957 249.799   8
  -1 -11 -24 1137.04 806.150   2
  -1 -11 -24 304.292 312.355   3
   1  11  24 214.413 607.480   5
   1 -11 -24 227.320 342.802   3
   1  11  25 246.241 612.230   5
   1  11  25 67.7846 260.150   8
  -1  11  25 29.8195 289.466   8
  -1  11  25 322.834 589.530   5
  -1 -11 -25 242.984 315.687   3
  -1 -11 -25 197.801 830.480   2
   1 -11 -25 19.6018 352.249   3
   1  11  26 69.0329 263.064   8
   1  11  26-749.135 638.738   5
  -1  11  26-121.794 292.387   8
  -1  11  26 27.0354 556.948   5
  -1 -11 -26-54.0208 337.442   3
  -1 -11 -26-861.585 858.731   2
   1 -11 -26-20.1907 359.990   3
   1  11  27 1523.95 736.336   5
  -1  11  27 403.327 354.766   8
   1  11  27 941.235 329.295   8
  -1  11  27 2373.26 703.708   5
  -1 -11 -27 1765.36 428.385   3
   1 -11 -27 1417.75 462.076   3
   1  11  28 57.0869 272.559   8
   1  11  28 256.238 630.115   5
  -1  11  28 15.7775 309.676   8
  -1  11  28 27.4267 582.903   5
  -1 -11 -28 303.058 970.271   2
  -1 -11 -28-19.2748 344.123   3
   1 -11 -28-21.3484 374.062   3
  -1  11  29 16.0069 322.584   8
   1  11  29-86.4638 662.913   5
   1  11  29-159.344 281.954   8
  -1  11  29-602.587 617.663   5
  -1 -11 -29-437.711 1023.78   2
  -1 -11 -29 220.763 369.259   3
   1 -11 -29-284.635 405.145   3
   1  11  30 234.795 284.726   8
   1  11  30 463.590 649.072   5
  -1 -11 -30 667.929 1101.11   2
  -1 -11 -30 249.333 384.088   3
   1 -11 -30 533.634 400.708   3
   1  11  31-437.211 675.142   5
  -1 -11 -31-438.559 1009.86   2
  -1 -11 -31-172.175 404.010   3
  -2  11   0 855.436 394.240   6
   2  11   0 792.431 432.648   5
   2 -11   0 575.039 208.959   3
  -2  11   0 687.524 329.385   5
  -2  11   0 934.172 171.690   8
   2 -11   0 195.108 330.725   1
   2 -11   0 877.051 453.991   2
  -2  11   0 658.666 208.045   7
   2 -11   0 747.457 207.035   4
   2  11   0 1142.66 342.024   7
   2 -11   1 102.368 348.188   1
  -2  11   1-89.4286 361.591   6
  -2  11  -1-175.722 379.086   6
   2  11  -1 865.475 441.804   5
   2  11   1-510.304 399.420   5
  -2  11  -1 13.5398 124.333   8
   2 -11   1 143.676 178.463   3
  -2  11  -1 246.348 299.069   5
   2 -11  -1 9.58370 179.545   3
  -2  11   1-185.153 308.619   5
   2 -11   1-142.546 434.845   2
  -2  11   1-14.5383 135.994   8
   2 -11  -1 505.167 449.713   2
  -2  11   1-307.140 185.003   7
  -2  11  -1 109.282 179.414   7
   2 -11  -1 27.2248 164.478   4
   2 -11   1-86.1468 178.823   4
   2  11   1 13.3381 245.670   7
   2  11  -1-427.692 379.419   7
  -2 -11  -1 408.625 446.468   2
   2 -11  -1 324.884 317.202   1
  -2  11   2 623.060 376.941   6
  -2  11  -2-114.749 384.391   6
   2 -11   2 744.373 370.287   1
  -2  11  -2 356.853 144.559   8
   2  11  -2 664.718 484.695   5
   2  11   2 330.065 400.150   5
   2 -11   2 477.931 197.396   3
   2 -11   2 1448.44 464.136   2
  -2  11  -2 284.206 301.782   5
   2 -11  -2 217.861 201.517   3
  -2  11   2-233.418 330.083   5
   2  11   2 590.768 147.330   8
  -2  11   2 596.405 165.813   8
   2 -11  -2-14.6896 294.452   1
   2 -11  -2 33.3173 457.720   2
  -2  11   2 505.520 196.653   7
  -2  11  -2 400.943 193.400   7
   2 -11  -2 282.105 177.824   4
   2 -11   2 473.348 182.864   4
   2  11   2 474.347 230.391   7
   2  11  -2 946.294 476.221   7
  -2 -11  -2-545.939 468.538   2
  -2  11   3 309.623 367.658   6
  -2 -11  -3-255.840 494.389   2
  -2  11  -3-250.631 388.165   6
   2  11  -3 601.860 525.297   5
   2  11   3 208.003 402.680   5
   2 -11  -3-472.310 302.503   1
   2 -11   3 46.8439 439.416   2
   2 -11   3-58.8423 175.354   3
  -2  11   3 100.329 327.496   5
   2 -11  -3-224.826 209.306   3
   2  11   3 15.9572 137.575   8
  -2  11   3-86.0230 149.361   8
  -2  11   3-8.58266 178.433   7
   2 -11  -3-51.3899 468.170   2
  -2  11  -3-18.3813 170.999   7
   2 -11  -3 102.820 161.659   4
   2 -11   3 30.4850 178.910   4
   2  11  -3 31.6891 587.031   7
   2 -11   3-55.4040 355.035   1
  -2  11  -4 85.6293 413.223   6
  -2 -11  -4-352.491 536.731   2
  -2  11   4 14.8647 351.406   5
   2  11   4 505.069 404.363   5
  -2  11   4 434.417 167.717   8
   2  11   4 465.055 164.812   8
  -2  11  -4 344.014 193.026   7
   2 -11  -4 276.005 164.495   4
   2 -11  -4-282.561 472.527   2
   2 -11   4 221.419 190.877   4
   2 -11  -4 222.494 285.282   1
   2 -11  -4 285.070 209.103   3
  -2 -11  -5 313.965 569.340   2
   2  11   5 1165.71 421.500   5
  -2  11   5 1166.58 391.644   5
   2 -11  -5 687.474 237.200   3
  -2  11   5 913.991 205.647   8
  -2  11  -5 764.346 205.669   7
   2 -11  -5 237.480 520.203   2
   2 -11   5 869.370 231.119   4
   2  11   5 609.939 181.953   8
  -2  11  -6 393.129 477.124   6
  -2 -11  -6 901.875 581.998   2
   2  11   6-250.320 415.815   5
  -2  11   6 286.395 379.561   5
   2  11   6 592.746 182.528   8
   2 -11  -6 214.234 223.560   3
  -2  11   6 471.899 190.255   8
  -2  11  -6 846.677 212.904   7
   2 -11   6 380.772 221.286   4
  -2  11  -7 36.5689 450.693   6
  -2 -11  -7 112.670 558.554   2
   2  11   7 1090.30 422.426   5
  -2  11   7 544.077 381.915   5
   2 -11  -7 676.040 254.783   3
   2  11   7 1220.87 211.773   8
  -2  11   7 1067.66 219.468   8
  -2  11  -7 795.188 214.733   7
   2 -11   7 858.294 244.437   4
  -2  11  -8-112.174 420.194   6
  -2 -11  -8 545.596 228.981   3
  -2 -11  -8 496.405 552.646   2
   2  11   8 595.586 423.169   5
   2 -11  -8 530.254 226.433   3
  -2  11   8 271.837 393.290   5
   2  11   8 604.419 189.555   8
  -2  11   8 581.607 196.865   8
  -2  11  -8 10.0453 210.272   7
   2 -11   8 788.560 217.955   4
  -2  11  -9 361.817 469.806   6
   2 -11  -9 548.146 246.259   3
  -2 -11  -9 1030.92 251.608   3
   2  11   9 761.808 449.808   5
  -2  11   9 439.878 397.820   5
   2  11   9 1083.57 211.285   8
  -2  11   9 580.669 207.656   8
  -2  11  -9 102.817 226.984   7
   2 -11   9 854.413 250.341   4
  -2  11 -10-19.4485 431.444   6
  -2 -11 -10 623.302 238.695   3
   2  11  10 391.995 442.919   5
  -2 -11 -10 203.837 547.173   2
   2  11  10 195.017 178.678   8
  -2  11  10 18.2181 391.999   5
   2 -11 -10 309.299 239.115   3
  -2  11  10 227.262 190.776   8
  -2  11 -10 10.5310 194.713   7
   2 -11  10 229.364 232.385   4
  -2  11 -11-159.187 443.320   6
  -2 -11 -11 389.614 236.486   3
   2  11  11 563.474 458.816   5
   2 -11 -11 53.2837 237.292   3
  -2  11  11 117.131 192.551   8
  -2  11  11 543.901 416.238   5
   2 -11  11 13.1054 242.296   4
   2 -11 -12 13.7871 254.012   3
  -2  11  12 213.402 432.389   5
  -2 -11 -13 92.7535 565.348   2
   2  11  13-146.019 183.325   8
  -2  11 -13 192.181 208.819   7
  -2  11  14 248.005 217.524   8
  -2  11 -14-84.5061 468.468   6
  -2 -11 -14 388.912 250.363   3
   2  11  14-64.9737 470.095   5
  -2  11 -14 196.344 209.064   7
   2 -11  14 114.827 250.698   4
  -2  11 -15-150.538 470.960   6
  -2 -11 -15-316.713 248.417   3
   2  11  15-952.813 509.376   5
  -2  11  15-680.256 449.616   5
  -2  11  15-169.847 215.499   8
   2 -11 -15 15.1537 263.432   3
  -2  11 -15 129.633 219.498   7
   2 -11  15-146.968 252.610   4
  -2  11 -16 373.160 564.681   6
  -2 -11 -16 968.114 314.345   3
   2  11  16 954.174 269.923   8
  -2  11  16 1158.75 297.565   8
   2 -11 -16 1341.75 356.908   3
   2 -11  16 631.252 309.327   4
  -2  11 -17-44.6329 500.758   6
  -2 -11 -17 54.8231 254.267   3
   2  11  17 443.862 542.703   5
  -2 -11 -17 1208.79 615.635   2
   2  11  17 180.926 220.252   8
  -2  11  17-1055.91 491.732   5
   2 -11 -17 145.327 290.487   3
  -2  11  17-12.7900 231.135   8
  -2  11 -17-146.693 225.820   7
   2 -11  17-15.4364 264.375   4
  -2  11 -18-22.6759 493.677   6
  -2 -11 -18 603.819 633.573   2
  -2 -11 -18 223.793 269.639   3
   2  11  18 740.950 553.099   5
   2  11  18 230.545 219.870   8
  -2  11  18-321.568 485.926   5
   2 -11 -18 133.607 302.012   3
  -2  11 -18 149.070 238.712   7
   2 -11  18 298.843 280.659   4
   2 -11  19 160.833 272.222   4
  -2  11 -19 45.9180 504.053   6
  -2 -11 -19 796.740 658.775   2
  -2 -11 -19 28.5685 266.501   3
   2  11  19 267.273 548.903   5
   2  11  19 164.463 235.782   8
  -2  11  19 47.1621 498.449   5
   2 -11 -19-416.014 308.993   3
  -2  11 -19-327.911 250.042   7
   2 -11  20 16.3209 267.653   4
  -2  11 -20 139.818 539.401   6
  -2 -11 -20 306.973 284.742   3
   2  11  20-74.8918 571.484   5
   2  11  20-59.8475 227.393   8
  -2 -11 -20-1262.51 676.196   2
  -2  11  20 362.335 510.611   5
  -2  11  20 235.085 260.911   8
   2 -11 -20 232.681 322.499   3
  -2  11 -20-127.910 243.979   7
   2  11  21 231.771 236.520   8
   2 -11  21 1172.96 310.568   4
  -2 -11 -21 239.366 287.982   3
  -2  11 -21-94.2021 549.182   6
   2  11  21 815.520 587.752   5
  -2 -11 -21-836.058 695.344   2
  -2  11  21 156.053 268.121   8
  -2  11  21-491.580 542.405   5
   2 -11 -21 351.623 325.782   3
  -2  11 -21 12.9576 244.780   7
   2 -11  22 536.788 310.843   4
  -2 -11 -22 814.166 320.484   3
  -2  11 -22 1217.58 627.689   6
   2  11  22 1992.78 675.727   5
  -2 -11 -22 166.214 751.512   2
  -2  11  22 72.7735 288.752   8
  -2  11  22-75.1641 557.582   5
   2 -11 -22 438.259 354.948   3
   2  11  22 484.626 278.461   8
  -2  11 -22 695.134 282.261   7
   2  11  23 341.830 254.265   8
   2 -11  23 16.8986 296.758   4
  -2  11  23 909.168 554.808   5
  -2  11 -23-120.467 623.823   6
  -2 -11 -23-78.9962 289.592   3
   2  11  23 79.1322 598.498   5
  -2 -11 -23 28.5018 721.531   2
  -2  11  23 268.638 294.338   8
   2 -11 -23 489.359 353.755   3
  -2  11 -23 198.998 266.688   7
   2 -11  24 119.854 287.361   4
  -2  11 -24 48.8197 549.346   6
  -2 -11 -24 32.5403 297.560   3
  -2  11  24 397.637 312.895   8
   2  11  24 25.7787 243.214   8
  -2  11  24-383.688 556.448   5
   2 -11 -24-443.484 364.857   3
   2  11  24 400.786 624.094   5
  -2  11 -24 120.555 260.946   7
  -2 -11 -24-117.486 727.224   2
   2  11  25-838.557 658.429   5
   2 -11  25 85.7681 293.310   4
  -2 -11 -25-285.492 319.430   3
   2  11  25 13.1231 249.626   8
  -2 -11 -25 212.219 763.086   2
  -2  11  25-46.9825 302.677   8
  -2  11  25-77.2782 540.916   5
   2 -11 -25 205.964 363.754   3
  -2  11 -25 419.438 273.550   7
   2 -11  26 17.1976 298.104   4
   2  11  26 660.104 641.333   5
   2  11  26 173.590 262.924   8
  -2 -11 -26-31.3389 788.858   2
  -2 -11 -26 294.749 318.116   3
  -2  11  26-310.811 565.249   5
  -2  11  26 48.0486 310.484   8
  -2  11 -26 13.6541 268.503   7
   2 -11 -26 84.3552 376.621   3
   2  11  27-388.772 700.032   5
  -2  11  27-32.1056 329.905   8
  -2 -11 -27 412.741 369.650   3
   2  11  27-95.0860 293.342   8
  -2  11 -27-495.703 306.865   7
   2 -11 -27 684.309 451.523   3
   2  11  28-179.437 278.028   8
   2  11  28 197.244 655.774   5
  -2 -11 -28 268.618 853.570   2
  -2  11  28 32.7039 322.962   8
  -2 -11 -28-184.173 344.078   3
  -2  11 -28-97.1251 269.191   7
   2 -11 -28 755.954 390.881   3
   2  11  29 252.400 278.729   8
  -2  11  29-99.6728 320.659   8
   2  11  29-28.4207 652.435   5
  -2 -11 -29 208.943 364.710   3
   2  11  30 258.791 672.814   5
  -2 -11 -30-72.0935 928.058   2
   2  11  30 14.2280 291.388   8
  -2 -11 -30-39.3790 374.483   3
  -2 -11 -31 373.300 949.698   2
  -2 -11 -31 942.720 426.835   3
   2  11  31-519.752 694.887   5
  -3  11   0 698.206 160.158   8
   3 -11   0 635.151 346.384   1
  -3  11   0 405.794 337.038   5
   3 -11   0 283.751 218.698   3
  -3  11   0 696.065 203.580   7
   3 -11   0 402.765 189.391   4
  -3  11   0 124.587 409.170   6
   3  11   1 348.772 411.224   5
  -3  11  -1 250.849 142.002   8
  -3  11  -1 430.455 335.492   5
   3 -11   1 286.807 215.863   3
   3 -11   1 183.372 327.430   1
   3 -11   1-417.093 441.377   2
  -3  11  -1 273.538 189.455   7
   3 -11   1 384.311 193.795   4
   3  11   2-108.517 403.458   5
  -3  11   2-129.862 348.595   5
   3 -11   2 90.0409 208.206   3
   3 -11  -2 122.325 208.915   3
  -3  11   2 100.854 155.891   8
   3 -11   2-732.122 449.050   2
  -3  11   2-36.8610 178.786   7
   3 -11  -2-54.5722 170.160   4
  -3  11  -2-227.071 199.819   7
   3 -11   2 263.346 196.762   4
   3 -11   2-17.4697 363.153   1
   3 -11  -2 472.503 331.417   1
  -3  11  -2-732.699 430.621   6
  -3  11  -3 1665.87 465.785   6
   3 -11   3 888.586 424.231   1
   3  11   3 738.946 418.645   5
  -3  11   3 537.452 360.358   5
   3 -11  -3 412.159 239.072   3
  -3  11   3 427.553 174.683   8
   3 -11  -3 978.665 306.952   1
  -3  11   3 408.450 202.044   7
   3 -11  -3 566.524 189.915   4
  -3  11  -3 557.731 212.828   7
   3 -11   3 560.088 219.194   4
  -3 -11  -3-653.215 469.877   2
  -3  11   3 588.302 408.499   6
  -3  11  -4 850.189 488.714   6
  -3  11   4 632.862 368.559   5
   3  11   4 817.078 421.529   5
   3 -11  -4 218.921 287.980   1
  -3  11   4 59.9177 169.529   8
   3 -11  -4-153.536 213.218   3
   3 -11   4 132.749 425.564   1
  -3  11   4 241.172 179.878   7
   3 -11  -4 77.6246 178.697   4
  -3  11  -4 681.446 226.920   7
   3 -11   4 234.697 216.066   4
  -3  11   4 978.281 391.776   6
  -3  11  -5-413.702 481.998   6
   3  11   5 403.844 421.144   5
  -3  11   5-207.444 366.360   5
  -3  11   5 281.117 175.195   8
   3  11   5 524.848 167.520   8
  -3  11  -5 319.541 209.229   7
   3 -11  -5 146.271 226.254   3
   3 -11   5 502.868 208.121   4
   3 -11   5-99.0103 411.661   1
  -3 -11  -5-804.336 541.408   2
  -3  11  -6-146.845 432.536   6
  -3 -11  -6-115.475 539.715   2
   3  11   6 708.887 430.981   5
   3 -11   6 266.181 412.320   1
  -3  11   6-294.967 372.390   5
  -3  11   6 131.945 173.506   8
   3 -11  -6 289.579 234.243   3
  -3  11  -6 141.184 196.209   7
   3 -11   6 101.263 200.736   4
   3  11   6 322.491 164.034   8
  -3  11  -7 152.144 450.929   6
  -3 -11  -7 307.244 537.792   2
  -3  11  -7 10.1491 204.967   7
   3  11   7 534.048 435.806   5
   3  11   7 587.495 172.804   8
  -3  11   7-67.7065 371.271   5
  -3  11   7 772.141 206.210   8
   3 -11  -7 244.840 241.014   3
   3 -11   7-21.1434 401.734   1
   3 -11   7 417.016 212.090   4
  -3  11  -8 213.384 462.722   6
   3  11   8 280.213 170.110   8
  -3 -11  -8 167.046 557.702   2
   3 -11   8 65.7425 431.065   1
   3  11   8 253.237 435.817   5
   3 -11   8 355.778 216.740   4
  -3  11   8 361.274 200.907   8
   3 -11  -8-119.855 249.178   3
  -3  11  -8-10.3003 199.188   7
  -3  11   8 262.104 380.579   5
  -3  11  -9 137.624 460.470   6
  -3 -11  -9 217.019 576.532   2
   3  11   9-238.345 447.001   5
  -3  11   9-54.0965 384.180   5
   3  11   9 394.051 186.349   8
   3 -11  -9 578.129 263.285   3
  -3  11   9 170.456 199.778   8
  -3  11  -9 83.8226 202.437   7
   3 -11   9 109.931 225.236   4
   3 -11   9-22.5726 441.230   1
  -3  11 -10-501.043 465.173   6
   3  11  10 506.963 465.083   5
  -3  11  10-259.164 392.584   5
  -3  11  10 10.9690 193.736   8
   3 -11 -10 311.374 270.656   3
  -3  11 -10-21.3515 198.911   7
   3 -11  10-253.280 224.716   4
  -3  11 -11-142.999 467.205   6
  -3  11  11 152.643 397.979   5
   3 -11 -11-117.030 271.762   3
   3 -11  11 91.2917 227.044   4
  -3  11  13 276.144 218.522   8
  -3  11 -13 136.515 207.763   7
  -3  11 -14 21.3840 491.102   6
  -3 -11 -14 311.026 251.651   3
   3  11  14 1008.09 508.710   5
  -3  11  14-20.6711 428.497   5
  -3  11  14-12.2826 224.750   8
   3 -11 -14 258.931 285.279   3
  -3  11 -14 139.802 230.857   7
   3 -11  14 14.3799 241.325   4
  -3  11 -15-630.908 536.002   6
  -3 -11 -15-192.938 271.917   3
  -3 -11 -15-1064.93 674.489   2
   3  11  15-868.261 573.240   5
   3  11  15-43.8596 209.243   8
  -3  11  15-254.705 475.312   5
  -3  11  15-401.762 250.953   8
   3 -11 -15-317.131 318.097   3
   3 -11  15 266.053 266.259   4
  -3  11 -16-177.354 575.253   6
  -3  11  16-520.059 528.252   5
  -3 -11 -16 69.9238 279.749   3
  -3 -11 -16-900.406 683.518   2
   3  11  16-1721.15 606.436   5
  -3  11  16-410.613 259.721   8
   3  11  16-325.387 229.905   8
   3 -11 -16-741.581 345.752   3
   3 -11  16-515.976 293.236   4
  -3  11 -17-157.684 507.964   6
  -3 -11 -17 14.2524 267.490   3
  -3 -11 -17 151.808 617.925   2
   3  11  17-23.7074 541.232   5
   3  11  17 57.1223 208.428   8
  -3  11  17 177.423 456.370   5
  -3  11  17 314.848 250.968   8
   3 -11 -17 88.7380 326.504   3
  -3  11 -17 248.975 247.216   7
   3 -11  17-249.795 267.927   4
  -3  11 -18 22.9364 521.646   6
  -3 -11 -18 390.308 280.159   3
  -3 -11 -18-692.334 650.889   2
   3  11  18-722.440 565.007   5
   3  11  18-186.075 217.657   8
  -3  11  18 268.286 247.149   8
  -3  11  18-764.078 481.766   5
   3 -11 -18-72.9445 313.927   3
  -3  11 -18-63.5760 237.958   7
   3 -11  18-223.839 285.501   4
  -3  11 -19-116.378 538.754   6
  -3 -11 -19-88.0032 277.464   3
  -3 -11 -19 52.0620 622.541   2
   3  11  19 342.742 568.219   5
  -3  11  19-481.072 482.637   5
   3  11  19-59.1714 220.491   8
   3 -11 -19 300.768 330.421   3
  -3  11 -19 64.8940 252.473   7
   3 -11  19 198.049 279.347   4
  -3  11 -20 94.7496 555.444   6
  -3 -11 -20 29.7925 267.992   3
  -3 -11 -20 26.4673 663.776   2
   3  11  20-74.9739 568.007   5
   3  11  20 373.251 232.871   8
  -3  11  20-582.399 496.939   5
   3 -11 -20 19.2400 331.492   3
  -3  11 -20 145.588 254.546   7
   3 -11  20 404.221 291.708   4
  -3  11 -21-144.104 598.028   6
  -3 -11 -21 15.1457 273.455   3
  -3 -11 -21 997.407 696.145   2
   3  11  21-100.887 606.859   5
  -3  11  21 115.115 276.428   8
  -3  11  21 306.457 512.358   5
  -3  11 -21-13.4900 258.829   7
   3  11  21 12.2513 234.786   8
   3 -11 -21 255.375 337.130   3
   3 -11  21 258.795 307.223   4
  -3  11 -22 461.128 609.001   6
  -3 -11 -22 54.9965 734.631   2
  -3 -11 -22-585.963 317.667   3
   3  11  22-767.288 668.142   5
  -3  11  22-162.188 294.514   8
  -3  11  22-166.822 532.171   5
  -3  11 -22 370.843 278.360   7
   3 -11 -22 120.635 355.654   3
   3  11  22 12.5597 257.560   8
   3 -11  22-17.5245 285.288   4
   3 -11  23 303.677 327.071   4
  -3  11 -23-270.410 585.381   6
  -3 -11 -23 870.701 727.791   2
   3  11  23 1199.14 642.265   5
   3  11  23 319.485 257.324   8
  -3  11  23-14.9009 302.212   8
  -3 -11 -23 424.177 308.516   3
  -3  11 -23 13.9705 272.133   7
   3 -11 -23 346.795 366.116   3
   3 -11  24-324.865 323.308   4
  -3 -11 -24-64.2385 308.031   3
  -3  11 -24 24.8879 581.883   6
  -3 -11 -24 28.7399 720.635   2
   3  11  24 841.484 633.758   5
   3  11  24-104.004 242.692   8
  -3  11  24 91.6595 294.964   8
  -3  11 -24 99.3910 274.171   7
   3 -11 -24-680.664 377.259   3
   3 -11  25 219.280 322.371   4
  -3  11 -25 125.499 590.008   6
   3  11  25 1091.86 628.744   5
  -3 -11 -25 353.282 735.340   2
   3  11  25 171.947 257.824   8
  -3  11  25-328.754 305.084   8
  -3  11 -25 14.4142 288.074   7
  -3 -11 -25 263.193 321.376   3
   3 -11  26-312.018 324.754   4
  -3  11 -26-304.704 634.222   6
   3  11  26 403.548 293.945   8
  -3 -11 -26 168.852 338.993   3
  -3  11 -26 58.4487 290.531   7
   3 -11  27-296.350 335.635   4
  -3  11 -27-383.568 598.851   6
   3  11  27-150.544 276.476   8
  -3 -11 -27-329.782 362.087   3
  -3  11 -27 88.6075 290.557   7
   3 -11  28 110.888 313.069   4
  -3 -11 -28 63.6646 828.672   2
   3  11  28 222.735 289.353   8
  -3 -11 -28 214.442 334.111   3
  -3  11 -28-119.450 289.225   7
   3  11  28 846.656 638.040   5
  -3 -11 -29 228.952 858.079   2
   3  11  29-240.662 273.949   8
   3  11  29 356.859 640.011   5
  -3 -11 -29 55.3142 340.103   3
  -3  11 -29 90.4175 298.760   7
   3  11  30-222.081 649.578   5
   3  11  30-158.389 284.109   8
  -3 -11 -30-132.127 354.174   3
  -3 -11 -31 34.5098 752.718   2
   3  11  31-446.794 655.113   5
  -3 -11 -31-292.783 362.578   3
  -4  11   0 183.494 323.720   5
  -4  11   0-7.39337 149.647   8
   4 -11   0-37.5617 241.651   3
   4 -11   0-58.3751 171.014   4
  -4  11   0 61.2551 187.504   7
   4 -11   0 235.372 319.104   1
  -4  11   0-771.533 409.538   6
  -4  11   1 393.941 351.948   5
  -4  11   1 768.573 183.124   8
   4 -11  -1 1096.24 323.281   1
   4 -11   1 902.749 276.153   3
   4 -11  -1 521.745 258.938   3
   4 -11  -1 587.876 203.627   4
  -4  11   1 774.107 224.807   7
   4 -11   1 558.443 200.420   4
  -4  11  -1 537.128 217.911   7
   4 -11   1 713.640 336.895   1
  -4  11   1 428.876 403.799   6
  -4  11  -1 376.266 419.642   6
   4 -11   2-34.0321 352.127   1
   4 -11  -2-172.480 282.464   1
  -4  11   2-60.2526 334.376   5
  -4  11   2 83.4488 161.072   8
  -4  11   2-176.834 186.103   7
   4 -11  -2 324.185 245.974   3
   4 -11  -2 46.2394 162.306   4
   4 -11   2 92.0519 185.115   4
  -4  11  -2 62.8628 187.346   7
  -4  11   2-279.949 403.368   6
  -4  11  -2 116.053 406.535   6
   4 -11   3-89.0532 352.284   1
   4 -11  -3 414.735 280.893   1
  -4  11   3-232.860 346.377   5
  -4  11   3-44.7855 166.787   8
  -4  11   3 18.9564 177.960   7
   4 -11  -3-8.99548 163.678   4
   4 -11  -3-92.7178 246.167   3
  -4  11  -3 199.800 198.231   7
   4 -11   3 188.881 184.285   4
  -4  11   3 554.209 391.120   6
  -4  11  -3 308.229 416.176   6
   4 -11   4 331.899 380.644   1
   4 -11  -4 303.930 269.280   1
  -4  11   4 527.609 346.418   5
  -4  11   4 187.801 177.735   8
  -4  11   4 91.0341 171.891   7
   4 -11  -4 105.473 162.343   4
  -4  11  -4 158.466 199.218   7
   4 -11   4 43.0071 193.892   4
   4 -11  -4 406.548 244.391   3
  -4  11   4 195.753 381.439   6
  -4  11  -4 121.668 435.792   6
   4  11   5-35.0717 377.929   5
  -4  11   5-427.744 359.754   5
  -4  11   5-79.5368 174.000   8
   4 -11   5 19.2787 371.627   1
   4 -11  -5 25.5677 154.329   4
   4 -11  -5-111.114 255.139   3
   4 -11   5-253.830 207.112   4
   4 -11  -5 140.393 252.134   1
  -4  11  -5 31.8930 191.893   7
  -4  11  -5 215.530 423.654   6
   4  11   6 469.179 397.248   5
  -4  11   6 30.9727 193.175   8
  -4  11   6 744.132 370.454   5
   4 -11  -6 71.2377 242.002   3
  -4  11  -6 75.1178 212.461   7
   4 -11   6 226.326 217.181   4
   4 -11   6 20.1123 379.173   1
  -4 -11  -6 21.6834 487.244   2
  -4  11  -6 182.519 439.718   6
   4  11   7 55.7764 402.402   5
  -4  11   7 74.6339 204.276   8
   4 -11  -7 87.7788 253.970   3
  -4  11  -7 54.0931 201.109   7
   4 -11   7 34.8833 203.532   4
  -4  11   7 294.175 367.039   5
  -4 -11  -7 22.7398 493.172   2
   4 -11   7-20.7904 398.147   1
  -4  11  -7 209.391 459.552   6
  -4  11  -8-96.7916 469.020   6
   4 -11   8 42.9413 435.254   1
   4  11   8-57.7014 436.759   5
   4  11   8 143.827 171.884   8
  -4  11   8-35.5271 366.960   5
  -4  11   8 233.436 207.174   8
   4 -11  -8 301.297 271.699   3
  -4  11  -8 175.294 222.358   7
   4 -11   8 11.9045 208.953   4
  -4 -11  -8 23.6235 535.348   2
  -4  11  -9-180.041 493.712   6
   4  11   9 297.633 446.536   5
  -4  11   9-437.315 388.103   5
  -4  11   9 11.3690 210.923   8
   4 -11  -9 154.751 268.551   3
  -4  11  -9 33.2665 205.728   7
   4 -11   9 73.4669 215.916   4
  -4  11 -10 284.915 485.488   6
  -4  11  10-242.759 387.793   5
  -4  11  10 266.376 204.625   8
   4 -11 -10-222.530 277.232   3
   4 -11  10 50.2033 232.913   4
  -4  11  11 745.775 411.686   5
   4 -11 -11 146.859 292.312   3
   4 -11  12-98.7824 469.896   1
  -4  11 -12 195.516 233.183   7
  -4  11 -13-21.7694 511.455   6
   4 -11  13 25.4769 482.868   1
   4  11  13 397.259 491.154   5
  -4  11  13 132.771 215.130   8
  -4  11 -13 375.176 234.744   7
   4 -11  13 13.6315 238.270   4
  -4  11 -14-616.166 575.061   6
   4  11  14 141.266 196.073   8
  -4 -11 -14 25.8329 603.021   2
  -4 -11 -14-57.9101 276.145   3
   4 -11  14-1289.60 579.755   1
   4  11  14-1173.24 552.099   5
  -4  11  14 36.6405 229.002   8
  -4  11  14-971.036 439.413   5
  -4  11 -14 155.562 241.226   7
   4 -11 -14 17.6585 333.009   3
   4 -11  14-537.188 253.220   4
  -4  11 -15 44.7533 608.398   6
  -4 -11 -15 416.317 673.510   2
  -4 -11 -15 178.308 292.777   3
   4  11  15-1014.71 588.883   5
   4  11  15 633.317 237.081   8
  -4  11  15 160.662 249.617   8
   4 -11 -15 739.993 387.225   3
   4 -11  15 174.711 281.141   4
  -4  11 -16 203.656 519.016   6
  -4 -11 -16-445.950 642.227   2
  -4 -11 -16 90.1526 287.788   3
   4  11  16 683.502 529.420   5
   4  11  16 146.944 214.523   8
  -4  11  16 112.632 224.902   8
  -4  11  16 20.9177 427.948   5
   4 -11 -16 37.0450 305.448   3
   4 -11  16-135.584 261.093   4
  -4  11 -17 160.909 552.086   6
   4 -11  17-59.2034 578.765   1
  -4 -11 -17 316.770 627.514   2
  -4 -11 -17-45.6390 279.809   3
   4  11  17 23.9114 534.981   5
  -4  11  17 202.990 230.295   8
  -4  11  17 21.2335 447.843   5
  -4  11 -17-368.452 260.209   7
   4  11  17-103.754 214.781   8
   4 -11 -17 56.5861 310.409   3
   4 -11  17 62.0005 272.451   4
  -4  11 -18-23.2676 556.518   6
  -4 -11 -18-693.348 644.858   2
  -4 -11 -18 46.2036 298.932   3
   4  11  18 315.260 564.454   5
   4 -11  18 30.9862 599.665   1
   4  11  18 481.661 230.448   8
  -4  11  18 77.2877 229.785   8
  -4  11 -18 90.9606 245.630   7
   4 -11 -18-459.915 343.276   3
   4 -11  18 96.2031 284.183   4
  -4  11 -19 23.6137 558.508   6
  -4 -11 -19 26.9736 654.461   2
  -4 -11 -19 155.996 308.273   3
   4  11  19-342.663 556.718   5
   4  11  19-311.006 237.361   8
  -4  11  19-39.3024 235.182   8
   4 -11  19-65.2340 659.445   1
  -4  11 -19-13.2899 247.104   7
   4 -11 -19-155.306 301.241   3
   4 -11  19-164.605 283.962   4
  -4  11 -20-24.0083 560.804   6
  -4 -11 -20 983.675 694.655   2
  -4 -11 -20-392.957 304.251   3
   4  11  20-1258.59 592.748   5
   4  11  20-133.941 228.560   8
  -4  11 -20 108.716 258.922   7
   4 -11  20 34.5747 652.277   1
   4 -11 -20 274.612 323.464   3
   4 -11  20-50.7703 295.665   4
  -4  11 -21 462.335 615.666   6
  -4 -11 -21 471.058 726.112   2
  -4 -11 -21 348.575 317.298   3
   4  11  21 1593.30 630.805   5
   4  11  21 223.971 251.482   8
  -4  11 -21 361.161 284.635   7
   4 -11  21 17.3183 322.872   4
   4 -11  21 554.456 822.765   1
  -4  11 -22-420.147 584.476   6
  -4 -11 -22 814.428 715.024   2
  -4 -11 -22 63.9315 297.818   3
   4  11  22 933.150 600.591   5
   4  11  22-25.3222 249.509   8
  -4  11 -22 14.1871 263.999   7
   4 -11  22-39.9134 794.241   1
   4 -11  22 53.5540 313.328   4
  -4  11 -23-150.125 598.927   6
  -4 -11 -23 771.115 717.771   2
  -4 -11 -23 32.2879 316.122   3
   4  11  23-25.2611 591.114   5
   4  11  23-128.785 244.047   8
   4 -11  23-567.620 898.390   1
  -4  11 -23-231.672 281.005   7
   4 -11  23 54.5589 304.185   4
  -4  11 -24 406.374 600.617   6
  -4 -11 -24 116.331 729.749   2
  -4 -11 -24 65.3031 310.505   3
   4  11  24 1042.52 628.039   5
   4  11  24-117.932 248.547   8
  -4  11 -24 191.916 288.266   7
   4 -11  24-260.248 318.886   4
  -4  11 -25 385.357 606.516   6
  -4 -11 -25 918.783 753.479   2
   4 -11  25-54.9674 1111.22   1
   4  11  25 360.042 270.016   8
   4  11  25 180.236 605.737   5
  -4 -11 -25-99.1954 314.544   3
  -4  11 -25-165.390 289.918   7
   4 -11  25-18.8274 321.464   4
   4 -11  26 1127.61 399.846   4
   4 -11  26 703.395 1446.99   1
  -4  11 -26 414.365 702.547   6
   4  11  26 461.476 311.878   8
  -4 -11 -26 1572.62 919.666   2
  -4 -11 -26 806.459 385.500   3
   4  11  26 2772.40 757.272   5
  -4  11 -26 795.290 365.371   7
   4 -11  27 76.9233 335.590   4
  -4  11 -27 366.333 614.084   6
  -4 -11 -27-1513.26 809.610   2
   4  11  27 597.604 640.399   5
  -4 -11 -27 616.250 343.195   3
  -4  11 -27 217.411 302.772   7
   4  11  27 497.415 287.812   8
   4 -11  27 76.7183 1479.02   1
   4 -11  28-116.233 325.676   4
  -4  11 -28-105.378 604.780   6
  -4 -11 -28 631.190 816.135   2
   4  11  28 260.305 628.899   5
   4  11  28 70.3675 283.193   8
   4 -11  28-1367.30 1938.58   1
  -4  11 -28 31.4774 314.000   7
  -4 -11 -28 192.225 339.519   3
   4 -11  29 19.3420 335.853   4
  -4  11 -29-159.641 628.760   6
  -4 -11 -29-387.068 837.855   2
  -4 -11 -29-53.6316 338.382   3
   4 -11  29-679.257 2865.28   1
   4  11  29 286.810 281.709   8
   4  11  29-734.599 653.801   5
  -4  11 -29 544.301 338.228   7
   4 -11  30 135.748 333.790   4
  -4  11 -30-428.088 644.772   6
  -4 -11 -30-1714.19 892.059   2
   4 -11  30 226.887 3879.18   1
   4  11  30 43.8697 300.194   8
  -4 -11 -30 256.437 345.080   3
   4  11  30 342.228 651.266   5
   5 -11   0 31.2349 323.120   1
   5 -11   0 443.037 195.006   4
  -5  11   0 856.858 223.375   7
   5 -11   0 530.756 274.322   3
  -5  11   0 303.142 460.895   6
   5 -11  -1-287.590 295.183   1
   5 -11   1-32.3349 303.311   1
  -5  11   1-136.645 178.793   8
  -5  11   1 258.044 316.642   5
   5 -11   1-100.761 176.828   4
  -5  11   1-75.2352 190.404   7
  -5  11  -1 156.044 201.114   7
   5 -11  -1 327.237 253.615   3
  -5  11   1 160.294 440.613   6
  -5  11  -1 17.7077 435.263   6
   5 -11  -2 885.509 304.778   1
  -5  11   2 531.800 202.958   8
   5 -11   2 555.412 348.438   1
  -5  11   2 400.357 323.583   5
  -5  11   2 530.941 207.805   7
   5 -11   2 430.381 195.244   4
  -5  11  -2 357.777 221.452   7
   5 -11  -2 579.465 259.288   3
  -5  11   2 1031.55 458.007   6
  -5  11  -2 303.916 447.997   6
  -5  11   3-10.3958 195.582   8
  -5  11   3-244.638 324.606   5
   5 -11   3 20.9682 180.158   4
  -5  11  -3 67.0618 198.935   7
   5 -11   3 34.6269 347.483   1
   5 -11  -3-29.4927 247.020   3
  -5  11   3-328.739 455.770   6
  -5  11  -3-17.8829 429.135   6
   5 -11  -3 389.425 292.620   1
  -5  11   4 11.0396 202.749   8
  -5  11   4-345.969 328.381   5
   5 -11   4 149.961 196.153   4
  -5  11  -4-11.2897 202.786   7
   5 -11  -4 105.113 260.150   3
   5 -11   4 54.1892 356.310   1
  -5  11   4-281.553 492.435   6
  -5  11  -4-181.272 436.100   6
   5 -11   5-65.8047 196.499   4
  -5  11   5 114.178 210.697   8
  -5  11   5-338.971 347.534   5
  -5  11  -5 56.3382 198.461   7
   5 -11  -5 367.055 262.000   3
  -5  11  -5 531.551 465.642   6
   5 -11   5-18.8918 360.335   1
   5 -11   6-136.424 383.489   1
  -5  11   6 23.3709 212.765   8
  -5  11   6-82.6754 341.403   5
   5 -11   6-146.014 199.933   4
  -5  11  -6 56.3846 212.177   7
   5 -11  -6 62.3492 255.607   3
  -5  11  -6-184.794 457.540   6
   5 -11   7 20.3314 399.258   1
  -5  11   7 165.969 215.280   8
  -5  11   7 270.657 358.984   5
  -5  11  -7 56.7648 223.784   7
   5 -11   7 149.739 215.605   4
   5 -11  -7 317.684 266.409   3
  -5  11  -7-247.073 469.993   6
  -5  11   8-240.383 231.561   8
   5 -11   8 35.4188 212.604   4
   5 -11  -8-80.9382 262.205   3
  -5  11  -8-153.818 468.873   6
  -5  11   9 48.1204 214.798   8
   5 -11  -9 16.4960 263.026   3
   5 -11  10-630.529 438.909   1
   5 -11 -10 16.7952 291.927   3
  -5 -11 -10 23.4263 523.880   2
   5  11  11 40.2375 435.829   5
  -5  11 -11 11.8115 240.484   7
   5 -11  11-139.243 477.486   1
  -5  11 -12-467.560 507.391   6
   5  11  12 41.8606 431.136   5
  -5  11  12 154.219 212.435   8
  -5  11 -12 83.8664 230.624   7
   5 -11  12-210.182 228.323   4
   5 -11  12 72.3398 502.956   1
  -5  11 -13-504.430 595.898   6
   5  11  13-172.851 499.263   5
  -5  11  13-11.7959 235.543   8
   5  11  13-123.643 196.504   8
  -5  11 -13-401.695 248.302   7
   5 -11  13-473.640 273.539   4
   5 -11  13 24.8548 558.717   1
  -5 -11 -13-405.356 594.820   2
  -5 -11 -14 878.740 704.322   2
  -5  11 -14-423.459 637.864   6
   5  11  14-575.671 554.633   5
  -5  11  14 481.620 250.182   8
   5  11  14 404.562 216.403   8
  -5  11 -14 86.7097 255.059   7
   5 -11  14-83.3466 274.398   4
  -5  11 -15 368.131 551.677   6
  -5 -11 -15 366.855 637.312   2
   5  11  15-700.711 519.385   5
   5  11  15 21.9346 199.435   8
   5 -11  15 171.848 250.967   4
  -5  11 -16 561.043 553.521   6
  -5 -11 -16-371.510 634.154   2
   5  11  16 585.017 222.298   8
   5 -11  16 27.3658 532.351   1
  -5 -11 -16 298.534 305.002   3
   5  11  16-184.760 522.983   5
  -5  11 -16 129.158 253.433   7
   5 -11  16 234.918 256.317   4
  -5  11 -17 141.635 561.417   6
  -5 -11 -17 27.0206 639.218   2
  -5 -11 -17-440.464 325.707   3
   5 -11  17 200.264 560.343   1
   5  11  17 23.4444 528.898   5
   5  11  17 34.5966 209.742   8
  -5  11 -17-197.872 261.124   7
   5 -11  17-502.882 283.634   4
  -5  11 -18-263.750 575.008   6
  -5 -11 -18 54.6820 657.869   2
  -5 -11 -18-68.0474 316.703   3
   5  11  18-738.235 557.836   5
   5 -11  18 119.000 586.225   1
   5  11  18-318.655 226.591   8
  -5  11 -18 13.4799 259.064   7
   5 -11  18 94.1929 267.323   4
  -5  11 -19-24.2127 581.517   6
   5 -11  19 31.0482 619.337   1
  -5 -11 -19-110.709 666.415   2
  -5 -11 -19 17.0773 321.712   3
   5  11  19-96.1964 548.980   5
   5  11  19 12.0622 229.724   8
  -5  11 -19 13.7815 268.414   7
   5 -11  19-16.2510 281.541   4
  -5  11 -20-147.390 658.499   6
  -5 -11 -20-728.833 724.244   2
  -5 -11 -20-291.189 354.069   3
   5  11  20 628.269 586.727   5
   5 -11  20-65.1314 688.030   1
   5  11  20-86.1520 241.240   8
  -5  11 -20-676.688 306.676   7
   5 -11  20-150.414 294.756   4
  -5  11 -21-273.077 609.060   6
  -5 -11 -21-28.5533 715.629   2
   5  11  21-213.390 244.983   8
  -5 -11 -21-34.3636 323.856   3
   5  11  21 72.6111 558.028   5
   5 -11  21-1236.39 727.015   1
  -5  11 -21-418.007 303.332   7
   5 -11  21 17.2759 301.909   4
  -5  11 -22 301.861 613.877   6
  -5 -11 -22-289.607 711.351   2
  -5 -11 -22-34.2837 331.843   3
   5  11  22 315.566 586.525   5
   5  11  22 127.965 249.416   8
   5 -11  22 255.200 706.452   1
  -5  11 -22 58.9485 277.409   7
   5 -11  22 141.702 321.654   4
 -11   5 -22 154.331 555.440   6
  -5  11 -23-433.923 608.354   6
  -5 -11 -23 558.638 736.623   2
  -5 -11 -23-427.828 343.066   3
   5  11  23 121.301 554.336   5
   5  11  23 352.166 273.309   8
   5 -11  23-195.118 801.062   1
  -5  11 -23-316.231 311.286   7
   5 -11  23 18.1711 327.402   4
 -11   5 -23 224.270 564.502   6
  -5  11 -24-155.328 639.464   6
  -5 -11 -24 268.915 739.228   2
  -5 -11 -24-34.1896 331.750   3
   5  11  24 463.586 592.962   5
   5  11  24 106.363 256.385   8
   5 -11  24 84.3415 832.934   1
  -5  11 -24 153.796 306.888   7
   5 -11  24-18.5391 326.466   4
  -5  11 -25 26.1717 690.675   6
  -5 -11 -25-1397.84 812.781   2
  -5 -11 -25 85.5764 344.126   3
   5  11  25-1416.22 668.951   5
   5  11  25-460.681 297.099   8
   5 -11  25-46.1169 1029.52   1
  -5  11 -25-596.157 357.974   7
   5 -11  25-247.556 345.368   4
  -5  11 -26-212.252 651.113   6
  -5 -11 -26-1298.71 852.263   2
  -5 -11 -26-188.776 352.305   3
   5  11  26-534.671 621.093   5
   5  11  26 248.663 296.161   8
   5 -11  26-51.1244 1005.94   1
  -5  11 -26-95.8770 313.650   7
   5 -11  26 173.816 338.409   4
  -5  11 -27-401.779 654.119   6
  -5 -11 -27-251.963 762.175   2
   5  11  27 126.849 279.076   8
   5 -11  27-57.7024 1243.47   1
  -5 -11 -27-310.342 340.530   3
   5  11  27 710.078 580.043   5
  -5  11 -27-178.807 314.143   7
   5 -11  27 196.393 349.543   4
  -5  11 -28 188.694 644.738   6
  -5 -11 -28-1764.64 833.980   2
   5 -11  28 399.714 1315.80   1
   5  11  28 1398.66 636.006   5
  -5 -11 -28 521.683 343.593   3
   5  11  28-71.9433 294.152   8
  -5  11 -28-115.537 318.705   7
   5 -11  29 239.101 365.430   4
  -5  11 -29 244.753 651.490   6
  -5 -11 -29 392.317 825.429   2
   5 -11  29-237.840 1589.20   1
   5  11  29 343.260 589.878   5
   5  11  29 44.0983 285.958   8
  -5 -11 -29 87.9285 342.094   3
  -5  11 -29-300.836 329.709   7
  -5 -11 -30-89.2018 347.476   3
  -5 -11 -30-599.572 844.846   2
   5  11  30 15.0303 246.911   8
   5  11  30 833.244 603.374   5
   6 -11   0-80.9658 316.209   1
  -6  11   0 23.1626 195.363   7
  -6  11   0-267.384 541.019   6
   6 -11   1 330.608 336.362   1
  -6  11  -1 106.264 228.757   7
  -6  11   1 541.594 579.622   6
  -6  11  -1 128.373 534.308   6
   6 -11  -1 206.883 312.188   1
   6 -11   2 151.227 331.876   1
  -6  11   2 51.0792 236.229   8
  -6  11  -2-35.7831 220.967   7
  -6  11   2-205.925 646.392   6
  -6  11  -2 102.787 497.070   6
   6 -11   3-17.3180 333.974   1
  -6  11   3-26.5600 243.427   8
  -6  11  -3 193.582 224.706   7
  -6  11   3-28.5377 721.137   6
  -6  11  -3 666.943 509.985   6
   6 -11   4 53.7214 344.395   1
  -6  11  -4-484.974 232.740   7
  -6  11   4-232.189 252.757   8
   6 -11   4-107.014 184.409   4
  -6  11   4 232.994 841.249   6
  -6  11  -4-19.7894 472.491   6
   6 -11   5-311.971 351.850   1
  -6  11   5 218.517 251.916   8
   6 -11   5-32.7823 189.011   4
  -6  11  -5-12.0451 217.012   7
  -6  11   5-445.529 1052.73   6
  -6  11  -5-98.8140 479.449   6
  -6  11   6 94.2533 248.089   8
   6 -11   6-155.455 192.795   4
  -6  11  -6-39.2123 493.147   6
  -6  11   7 328.358 247.397   8
   6 -11   7-11.3468 208.451   4
  -6  11   8-178.281 227.671   8
  -6  11  -9-12.0904 239.391   7
   6 -11   9 21.0056 396.804   1
  -6  11 -10 12.1902 235.713   7
   6 -11  10 171.512 216.834   4
  -6  11 -10-20.1177 493.361   6
   6 -11  10 21.9088 417.328   1
   6 -11  11-22.5303 448.377   1
  -6  11 -11-184.607 234.184   7
   6 -11  11 12.5858 218.518   4
  -6  11 -11-20.6953 505.445   6
  -6  11 -12 247.411 260.374   7
   6 -11  12 142.545 253.821   4
  -6  11 -12 490.035 624.132   6
   6 -11  13 120.475 490.006   1
  -6  11 -13-12.5277 253.882   7
   6 -11  13 13.3329 246.658   4
  -6  11 -13 280.630 531.912   6
  -6  11 -14-179.732 550.890   6
   6  11  14-166.587 461.459   5
   6 -11  14-330.053 254.868   4
  -6 -11 -14-605.354 547.388   2
  -6  11 -15 136.843 559.252   6
   6  11  15 536.770 491.052   5
   6 -11  15-141.332 253.877   4
  -6 -11 -15-348.314 584.745   2
  -6  11 -16 164.702 564.627   6
   6  11  16 636.012 496.410   5
   6 -11  16-26.2969 523.931   1
   6  11  16-181.733 200.592   8
  -6  11 -16 117.983 249.696   7
   6 -11  16-43.7692 250.310   4
  -6 -11 -16-742.164 599.358   2
  -6  11 -17 262.933 578.982   6
   6  11  17-66.8505 506.902   5
   6  11  17 287.186 214.920   8
   6 -11  17 27.4105 525.434   1
  -6  11 -17 547.563 276.549   7
   6 -11  17 75.0199 250.821   4
  -6 -11 -17 261.425 597.851   2
  -6  11 -18-295.930 608.621   6
  -6 -11 -18-272.833 362.039   3
   6  11  18-22.6319 528.608   5
   6 -11  18 28.3314 567.918   1
  -6  11 -18 40.8649 260.824   7
   6  11  18 125.261 222.364   8
   6 -11  18-15.4035 266.430   4
  -6 -11 -18-586.518 636.485   2
  -6  11 -19-325.538 636.887   6
  -6 -11 -19 39.2960 361.389   3
   6  11  19 159.692 537.483   5
   6  11  19-234.370 229.970   8
   6 -11  19-440.465 641.698   1
  -6  11 -19-166.815 275.271   7
   6 -11  19-158.961 273.859   4
  -6 -11 -19-1275.93 670.820   2
  -6 -11 -20-1248.77 702.510   2
  -6  11 -20-151.599 640.655   6
  -6 -11 -20-38.8955 371.395   3
   6  11  20-12.0310 233.926   8
   6  11  20 253.049 547.673   5
   6 -11  20-335.829 628.453   1
  -6  11 -20 14.1944 269.945   7
   6 -11  20-725.993 319.462   4
  -6 -11 -21-818.724 705.154   2
  -6  11 -21-307.600 633.200   6
   6  11  21 172.663 240.086   8
  -6 -11 -21 38.4559 369.269   3
   6  11  21 391.983 545.829   5
   6 -11  21 63.6990 632.265   1
  -6  11 -21 362.528 299.544   7
   6 -11  21-33.9842 294.537   4
 -11   6 -21-22.4281 578.362   6
  -6 -11 -22-287.131 704.802   2
  -6  11 -22 51.7035 639.218   6
  -6 -11 -22-208.899 367.804   3
   6  11  22-298.885 531.413   5
   6  11  22-50.4972 240.596   8
  11  -6  22 111.086 680.226   4
   6 -11  22-333.778 662.706   1
  -6  11 -22-385.246 298.134   7
   6 -11  22-17.5640 293.586   4
 -11   6 -22-161.524 612.824   6
  -6 -11 -23-292.163 714.691   2
   6  11  23 12.9201 244.512   8
  -6  11 -23-208.765 652.289   6
  -6 -11 -23 168.982 365.761   3
   6  11  23-617.756 545.350   5
  11  -6  23 223.618 580.760   4
   6 -11  23-35.1533 687.343   1
   6 -11  23 18.0279 315.450   4
  -6  11 -23-393.560 299.430   7
 -11   6 -23 489.099 611.936   6
  -6 -11 -24 29.7232 726.188   2
  -6  11 -24-448.906 684.697   6
  -6 -11 -24-590.900 370.340   3
   6  11  24-477.670 564.034   5
  11  -6  24-223.617 506.328   4
   6 -11  24-186.292 780.058   1
   6  11  24-185.010 247.497   8
  -6  11 -24-123.625 307.886   7
   6 -11  24 18.5736 314.037   4
 -11   6 -24-330.468 620.093   6
  -6 -11 -25-121.024 832.956   2
  -6  11 -25-1230.80 703.245   6
  -6 -11 -25-673.129 389.740   3
   6  11  25-951.148 627.859   5
   6  11  25-26.9741 276.929   8
   6 -11  25-39.7599 880.580   1
  -6  11 -25-315.320 330.898   7
   6 -11  25-189.604 367.926   4
  -6 -11 -26 30.7939 760.092   2
  -6  11 -26 405.474 674.710   6
  -6 -11 -26-233.533 344.671   3
   6  11  26-22.6786 540.661   5
   6 -11  26 128.352 824.749   1
  -6  11 -26 417.836 326.685   7
   6  11  26-41.3765 261.933   8
   6 -11  26 541.844 368.782   4
  -6 -11 -27 313.514 771.879   2
  -6  11 -27-109.388 665.094   6
  -6 -11 -27 160.044 341.861   3
   6  11  27-157.326 542.529   5
   6  11  27 70.5473 277.983   8
   6 -11  27-325.370 955.249   1
  -6  11 -27-65.4105 334.906   7
   6 -11  27 19.6201 343.772   4
  -6 -11 -28 160.550 786.626   2
  -6  11 -28 82.7174 674.536   6
  -6 -11 -28-194.101 357.502   3
   6  11  28 1322.73 566.794   5
   6  11  28 606.781 303.788   8
   6 -11  28 459.584 1008.99   1
  -6  11 -28 249.302 344.797   7
   6 -11  28 100.009 350.576   4
  -6 -11 -29-523.097 849.174   2
  -6  11 -29 334.436 673.346   6
   6  11  29-721.336 562.142   5
  -6 -11 -29-140.522 338.197   3
   6  11  29 207.282 291.781   8
   6 -11  29-182.049 358.411   4
   6  11  30-292.002 526.993   5
  -6 -11 -30 175.683 348.744   3
  -7  11   0-145.047 881.288   6
  -7  11   1-1454.64 1183.83   6
  -7  11  -1 430.936 759.707   6
   7 -11   1-69.3388 323.496   1
  -7  11  -2-189.612 644.021   6
   7 -11   2-17.4265 323.495   1
   7 -11   3-35.5177 339.594   1
  -7  11  -3-12.7584 238.373   7
  -7  11  -3-124.905 618.998   6
  -7  11  -4-165.009 563.013   6
   7 -11   7 19.4153 353.979   1
  -7  11  -7-12.9218 236.627   7
   7 -11   8 441.693 387.485   1
   7 -11   8-11.4850 196.695   4
  -7  11  -8-12.9904 244.047   7
  -7  11  -8-422.550 509.139   6
   7 -11   9 82.4049 207.244   4
  -7  11  -9 38.5951 237.300   7
   7 -11   9-123.321 448.480   1
  -7  11  -9-418.264 536.839   6
   7 -11  10 1345.34 514.343   1
   7 -11  10 374.162 241.493   4
  -7  11 -10-51.7698 275.805   7
  -7  11 -10 441.913 598.528   6
   7 -11  11-87.5346 450.260   1
  -7  11 -11 13.0370 253.598   7
   7 -11  11 24.8311 222.003   4
  -7  11 -11-400.110 565.272   6
  -7  11 -12-12.9640 245.278   7
   7 -11  12-421.869 230.389   4
   7 -11  12-22.7204 445.184   1
  -7  11 -12 148.882 531.521   6
  -7  11 -13 13.0919 252.064   7
   7 -11  13 13.1881 234.779   4
   7 -11  13 23.2959 464.156   1
  -7  11 -13 502.232 526.685   6
   7 -11  14 68.0192 234.143   4
  -7  11 -14-308.996 546.453   6
   7 -11  15-267.128 251.677   4
  -7  11 -15 250.186 546.098   6
  -7  11 -16 269.463 270.419   7
   7 -11  16-116.171 256.864   4
   7 -11  16 25.5210 495.783   1
  -7  11 -16-299.833 575.127   6
  -7  11 -17 192.145 583.683   6
  -7  11 -17 123.194 273.118   7
   7 -11  17 14.9624 256.321   4
   7 -11  17-52.4380 504.734   1
  -7  11 -18 585.471 629.914   6
   7 -11  18 26.9691 549.738   1
   7  11  18-272.415 476.102   5
  -7  11 -18 27.8339 278.636   7
   7 -11  18-15.4811 276.806   4
  -7  11 -19 377.620 638.900   6
   7 -11  19-972.473 563.464   1
   7  11  19-84.4519 473.809   5
  -7  11 -19-510.087 295.379   7
   7 -11  19 175.454 291.654   4
  -7 -11 -19-301.562 578.908   2
  -7  11 -20-389.599 607.263   6
   7 -11  20-229.467 595.657   1
  -7 -11 -20 671.294 455.560   3
   7  11  20 148.537 500.565   5
  -7  11 -20 129.953 288.530   7
   7 -11  20-16.4848 281.527   4
  -7 -11 -20 77.4053 603.254   2
 -11   7 -20 134.023 542.877   6
  -7  11 -21 79.1011 653.904   6
   7 -11  21-178.051 600.516   1
  -7 -11 -21-387.074 426.846   3
   7  11  21 1105.86 520.488   5
  11  -7  21-812.998 689.963   4
  -7  11 -21-497.462 300.189   7
   7 -11  21-643.164 328.653   4
  -7 -11 -21 1375.13 647.435   2
 -11   7 -21-347.447 588.130   6
  -7  11 -22 53.1793 639.848   6
   7 -11  22-61.5762 610.534   1
  -7 -11 -22 615.884 427.537   3
   7  11  22 212.827 503.495   5
  11  -7  22-276.327 628.056   4
  -7  11 -22 59.6935 289.885   7
   7 -11  22 209.409 314.251   4
  -7 -11 -22 27.0738 635.344   2
 -11   7 -22 23.6021 604.234   6
  -7  11 -23-53.8942 677.271   6
   7 -11  23-320.565 668.699   1
  -7 -11 -23-84.9858 411.233   3
   7  11  23 63.4216 515.926   5
  11  -7  23-160.221 573.025   4
  -7  11 -23-243.487 316.478   7
   7 -11  23 36.1595 324.383   4
  -7 -11 -23 332.184 655.256   2
 -11   7 -23-241.829 624.970   6
  -7  11 -24-135.762 743.046   6
   7 -11  24 33.5061 743.761   1
  -7 -11 -24-41.0843 445.464   3
   7  11  24-315.025 535.902   5
  11  -7  24-561.899 595.694   4
  -7  11 -24-46.5679 336.615   7
   7 -11  24 335.872 382.587   4
  -7 -11 -24 1952.78 769.412   2
 -11   7 -24-1029.19 678.851   6
  -7  11 -25-356.969 672.451   6
   7 -11  25-35.1689 741.961   1
  -7 -11 -25-537.786 414.425   3
   7  11  25 207.863 516.991   5
   7  11  25-245.112 255.089   8
  -7  11 -25-79.1169 305.501   7
  11  -7  25-272.257 496.693   4
   7 -11  25 38.1931 328.611   4
  -7 -11 -25-464.619 702.946   2
 -11   7 -25-175.295 622.729   6
  -7  11 -26 414.762 682.410   6
   7 -11  26 296.790 755.329   1
  -7 -11 -26-115.573 373.706   3
  -7  11 -26-16.1174 320.714   7
   7  11  26-247.070 505.679   5
   7  11  26 39.7426 268.765   8
   7 -11  26 137.247 352.707   4
  -7 -11 -26-355.800 698.703   2
  -7  11 -27-83.8701 693.295   6
   7 -11  27 196.848 808.170   1
  -7 -11 -27-74.7635 368.268   3
   7  11  27-183.968 521.226   5
   7  11  27 95.2051 274.338   8
  -7  11 -27 147.648 330.890   7
   7 -11  27 39.8453 358.429   4
  -7 -11 -27 393.211 732.593   2
  -7  11 -28 309.913 685.201   6
  -7 -11 -28-145.704 367.743   3
   7  11  28-81.7098 509.374   5
   7  11  28 27.9469 270.748   8
   7 -11  28 20.2113 361.931   4
  -7 -11 -28 401.081 763.255   2
  -7 -11 -29 427.426 347.242   3
   7  11  29 444.892 511.163   5
   8 -11   4 37.6222 365.920   1
   8 -11   5-606.744 396.617   1
  -8  11  -5-84.2679 690.995   6
   8 -11   6-1335.40 456.003   1
  -8  11  -6-396.762 278.124   7
  -8  11  -6-614.023 758.390   6
   8 -11   7 1982.31 514.841   1
  -8  11  -7 192.155 306.857   7
  -8  11  -7 1258.26 718.599   6
  -8  11  -8-27.5432 270.873   7
  -8  11  -8-552.812 647.891   6
   8 -11   9-163.823 409.998   1
  -8  11  -9 13.7200 249.424   7
  -8  11  -9 22.5271 541.960   6
   8 -11  10 21.0969 399.080   1
   8 -11  10 12.0844 208.002   4
  -8  11 -10-27.5476 248.162   7
  -8  11 -10-312.070 540.779   6
   8 -11  11-21.5217 410.735   1
   8 -11  11-296.798 210.964   4
  -8  11 -11-13.7119 256.654   7
  -8  11 -11-109.917 521.911   6
   8 -11  12 12.7547 217.129   4
  -8  11 -12 68.9425 251.525   7
   8 -11  12 710.920 449.184   1
  -8  11 -12-308.978 523.790   6
   8 -11  13 13.1589 220.427   4
  -8  11 -13 44.1125 538.190   6
   8 -11  14-13.6149 233.959   4
  -8  11 -14-111.325 545.516   6
   8 -11  15-94.8244 460.003   1
  -8  11 -15-13.9197 262.368   7
   8 -11  15-197.508 256.977   4
  -8  11 -15 157.122 547.766   6
   8 -11  16 122.899 485.034   1
  -8  11 -16 14.0766 263.674   7
   8 -11  16 292.382 263.309   4
  -8  11 -16-23.1078 576.811   6
   8 -11  17 276.696 503.001   1
  -8  11 -17-171.016 275.417   7
   8 -11  17 151.772 269.710   4
  -8  11 -17-548.033 606.182   6
   8 -11  18 51.5115 514.448   1
  -8  11 -18 245.612 272.273   7
   8 -11  18-15.7321 281.816   4
  -8  11 -18-314.337 602.985   6
  -8  11 -19-25.1964 608.221   6
  -8  11 -19 231.370 281.298   7
   8 -11  19-52.7988 531.124   1
   8 -11  19-244.950 298.183   4
 -11   8 -19-220.671 552.859   6
  -8  11 -20 25.6053 642.491   6
  11  -8  20-894.629 613.408   4
  -8  11 -20-14.6942 280.227   7
   8 -11  20 189.651 545.068   1
   8 -11  20 253.003 295.054   4
 -11   8 -20-206.315 573.867   6
  -8  11 -21 396.386 668.477   6
  11  -8  21-257.129 593.155   4
  -8  11 -21 179.288 280.551   7
   8 -11  21 225.647 595.850   1
   8 -11  21 382.992 302.689   4
 -11   8 -21-234.712 603.697   6
  11  -8  22-798.384 590.249   4
  -8  11 -22-106.436 312.207   7
   8 -11  22-203.288 617.676   1
   8 -11  22 18.0079 319.235   4
 -11   8 -22-968.231 642.418   6
  -8  11 -23-885.101 761.147   6
  -8 -11 -23-483.887 526.434   3
   8  11  23-1054.12 502.943   5
  -8  11 -23-526.044 352.930   7
  11  -8  23 187.961 613.279   4
   8 -11  23-509.549 710.785   1
   8 -11  23 36.9675 354.278   4
  11  -8  23-198.682 541.461   1
 -11   8 -23-1410.70 693.104   6
  -8  11 -24 250.836 693.429   6
  -8 -11 -24 238.002 474.311   3
   8  11  24 437.329 470.156   5
  -8  11 -24-567.093 323.184   7
  11  -8  24-515.363 548.750   4
   8 -11  24-31.0141 614.187   1
   8 -11  24-19.0290 332.007   4
  11  -8  24-150.816 474.313   1
 -11   8 -24 382.793 658.091   6
  -8  11 -25 592.391 730.544   6
  -8 -11 -25-224.079 445.337   3
   8  11  25 18.7946 445.620   5
  -8  11 -25 128.265 312.274   7
  11  -8  25 638.480 526.007   4
   8 -11  25 64.3425 649.578   1
   8 -11  25-294.827 347.114   4
  11  -8  25-127.225 498.128   1
 -11   8 -25-643.513 658.303   6
  -8  11 -26 85.0962 720.575   6
  -8 -11 -26-105.458 411.392   3
   8  11  26 129.946 450.424   5
  -8  11 -26 342.540 334.530   7
  11  -8  26-358.129 521.167   4
   8 -11  26 301.511 701.947   1
   8 -11  26 120.518 363.049   4
  11  -8  26-232.014 520.571   1
 -11   8 -26 341.828 688.405   6
 -11   8 -27-134.892 699.522   6
  -8 -11 -27 601.452 410.692   3
   8  11  27 202.164 448.250   5
   8 -11  27 20.5483 365.809   4
  -8 -11 -28 114.444 382.356   3
   8  11  28-236.395 451.303   5
  -9  11  -7-205.929 694.605   6
   9 -11   7-122.165 368.189   1
  -9  11  -8-79.7437 631.353   6
   9 -11   8 102.763 381.309   1
   9 -11   9-20.9855 400.216   1
  -9  11  -9 57.8551 261.772   7
  -9  11  -9-25.0224 613.570   6
   9 -11  10-21.2695 399.030   1
  -9  11 -10-14.4793 257.306   7
   9 -11  11-64.7672 408.941   1
  -9  11 -11 14.5007 265.927   7
  -9  11 -11 92.8514 563.145   6
   9 -11  12-22.1187 426.330   1
  -9  11 -12 14.5419 273.192   7
   9 -11  12 25.9179 217.450   4
  -9  11 -12-206.710 568.651   6
   9 -11  13 333.858 243.253   4
  -9  11 -13-475.996 552.090   6
   9 -11  14-69.3610 243.620   4
  -9  11 -14-227.775 593.808   6
   9 -11  15 235.518 492.044   1
  -9  11 -15 73.3102 287.823   7
   9 -11  15 302.693 270.113   4
  -9  11 -15-296.375 582.823   6
   9 -11  16-23.9906 450.079   1
  -9  11 -16-14.7776 274.532   7
   9 -11  16 120.117 263.914   4
  -9  11 -16-668.568 572.154   6
   9 -11  17 73.3539 486.638   1
  -9  11 -17 268.397 293.914   7
   9 -11  17 15.6676 272.041   4
  -9  11 -17-162.988 564.013   6
   9 -11  18-24.9294 492.447   1
  11  -9  18-246.020 462.268   4
  -9  11 -18 358.369 289.449   7
   9 -11  18 16.3320 277.024   4
 -11   9 -18-109.471 559.581   6
  -9  11 -18 264.126 600.215   6
   9 -11  19-25.7253 500.411   1
  11  -9  19 389.880 445.901   4
  -9  11 -19-317.267 285.037   7
   9 -11  19-17.0462 302.009   4
 -11   9 -19 317.092 573.609   6
   9 -11  20-236.463 529.259   1
  -9  11 -20 30.6059 293.857   7
  11  -9  20-27.4059 482.506   4
   9 -11  20-53.2645 304.131   4
  11  -9  20-97.4756 484.945   1
 -11   9 -20-116.985 596.609   6
  -9  11 -20-226.733 624.263   6
  -9  11 -21 919.518 781.083   6
   9 -11  21 456.499 583.589   1
  -9  11 -21-294.763 329.826   7
  11  -9  21-828.367 579.573   4
   9 -11  21-314.468 349.544   4
  11  -9  21-49.2975 557.965   1
 -11   9 -21 1555.15 708.171   6
  -9  11 -22-240.450 665.938   6
   9 -11  22-27.4911 558.047   1
  -9  11 -22-220.436 326.361   7
  11  -9  22-29.4615 525.491   4
   9 -11  22-383.105 354.829   4
  11  -9  22 99.7494 497.791   1
 -11   9 -22-221.014 622.658   6
  -9  11 -23 27.5751 706.299   6
   9 -11  23 197.259 546.754   1
  -9  11 -23 367.568 325.054   7
  11  -9  23 120.153 546.077   4
   9 -11  23-178.074 342.843   4
 -11   9 -23 254.808 679.348   6
  11  -9  23-1388.12 531.761   1
  -9  11 -24-28.4159 734.811   6
  -9  11 -24 974.089 336.336   7
   9 -11  24 202.573 586.371   1
  11  -9  24-181.301 540.993   4
   9 -11  24 61.3624 368.999   4
 -11   9 -24-258.834 671.376   6
  11  -9  24-25.5637 494.808   1
  -9  11 -25-403.308 726.294   6
  11  -9  25 180.009 529.948   4
   9 -11  25-460.731 391.415   4
 -11   9 -25 346.795 697.462   6
   9 -11  25-29.7809 581.631   1
  11  -9  25 129.478 510.941   1
  11  -9  26 26.2433 536.114   1
  11  -9  26-471.757 544.389   4
 -11   9 -26-303.585 719.293   6
  11  -9  27-285.677 498.131   4
 -10  11 -11-148.996 606.932   6
  10 -11  11 44.3771 423.155   1
 -10  11 -12 592.961 595.749   6
  10 -11  12-493.459 454.159   1
 -10  11 -13-209.678 592.608   6
  10 -11  14 14.4813 254.135   4
 -10  11 -14 23.1661 559.675   6
  10 -11  15 47.0657 453.588   1
 -10  11 -15-45.8418 292.195   7
  10 -11  15 45.2345 264.187   4
 -10  11 -15-252.557 567.091   6
  10 -11  16 190.983 473.868   1
 -10  11 -16 61.3707 287.050   7
  10 -11  16-205.793 282.626   4
 -10  11 -16 46.3395 568.144   6
  10 -11  17-24.2332 463.493   1
 -10  11 -17 293.239 289.721   7
  11 -10  17 362.620 362.541   4
  10 -11  17 33.2439 295.094   4
 -11  10 -17-308.503 557.721   6
 -10  11 -17-395.784 563.961   6
  10 -11  18 24.8182 498.744   1
 -10  11 -18 15.5462 292.941   7
  11 -10  18 192.942 386.288   4
  10 -11  18 87.4545 311.370   4
  11 -10  18 534.857 490.926   1
 -11  10 -18-180.683 550.234   6
 -10  11 -18-425.140 600.455   6
  10 -11  19-1084.66 548.750   1
 -10  11 -19 15.6775 309.329   7
  11 -10  19 91.6320 395.637   4
  10 -11  19 349.959 325.859   4
 -11  10 -19-370.863 644.615   6
  11 -10  19-245.838 506.441   1
 -10  11 -19-292.419 683.656   6
  10 -11  20 76.9523 524.792   1
 -10  11 -20-15.8291 325.445   7
  11 -10  20 755.781 488.205   4
  10 -11  20-174.310 368.483   4
 -11  10 -20-731.986 674.716   6
  11 -10  20-397.905 539.378   1
 -10  11 -20-816.445 678.882   6
  10 -11  21-52.2094 529.829   1
 -10  11 -21 47.9943 293.788   7
  11 -10  21 77.5385 442.906   4
  10 -11  21-386.923 354.284   4
 -11  10 -21 96.8235 612.265   6
 -10  11 -21 230.335 628.248   6
  11 -10  21-956.810 509.847   1
  11 -10  22-153.010 514.914   1
  11 -10  22 81.7618 461.278   4
  10 -11  22-79.7532 539.984   1
 -10  11 -22-32.1466 305.299   7
  10 -11  22 213.351 384.384   4
 -11  10 -22-452.695 636.430   6
 -10  11 -22-182.299 641.180   6
 -10  11 -23 543.603 705.469   6
  11 -10  23 234.728 527.285   1
  10 -11  23 244.034 563.063   1
 -11  10 -23-148.845 308.189   7
 -10  11 -23-358.014 332.962   7
  11 -10  23 199.355 505.353   4
  10 -11  23-222.193 395.521   4
 -11  10 -23 102.522 661.861   6
 -10  11 -24-617.475 706.991   6
  11 -10  24 471.560 547.519   4
  10 -11  24 46.2803 422.514   4
 -11  10 -24-212.397 668.768   6
  11 -11  16 120.890 290.845   4
  11 -11  16 24.3306 478.161   1
 -11  11 -16-160.855 563.033   6
  11 -11  17 91.4013 311.497   4
  11 -11  17 147.589 509.600   1
 -11  11 -17-527.530 646.235   6
  11 -11  18 1266.23 441.096   4
 -11  11 -18-209.601 679.831   6
  11 -11  18 24.8872 572.769   1
  11 -11  19 62.4616 371.221   4
 -11  11 -19-141.823 568.233   6
  11 -11  19-302.351 492.057   1
  11 -11  20 51.0353 508.799   1
  11 -11  20-489.637 411.026   4
 -11  11 -20 119.795 598.251   6
  11 -11  21-26.1049 527.759   1
 -11  11 -21 32.7351 316.786   7
  11 -11  21-356.758 462.074   4
 -11  11 -21 123.998 631.420   6
  11 -11  22-379.886 466.686   4
 -11  11 -22 378.729 652.121   6
   0 -12   0 165.828 182.622   4
   0 -12   0-228.547 534.980   2
   0  12   0 175.987 365.637   6
   0 -12   0 119.250 201.279   3
   0  12   0-547.356 368.385   5
   0  12   0 31.9007 145.183   8
   0  12   0 199.198 176.292   7
   0 -12  -1-90.6822 180.712   4
   0 -12   1-202.208 187.067   4
   0 -12   1-770.871 529.132   2
   0  12   1-186.682 351.106   6
   0  12  -1-49.3345 355.129   6
   0 -12   1-67.3328 186.866   3
   0 -12  -1 531.617 554.700   2
   0 -12  -1 81.6475 203.089   3
   0  12  -1 247.890 365.889   5
   0  12   1-181.126 366.789   5
   0  12   1 73.8585 155.031   8
   0  12  -1-83.8303 141.984   8
   0  12   1 43.9343 178.484   7
   0  12  -1 216.003 181.022   7
   0 -12  -2 107.500 182.747   4
   0 -12   2-65.4840 189.184   4
   0  12  -2-219.553 372.861   6
   0 -12   2 289.410 192.710   3
   0 -12  -2 291.773 208.238   3
   0 -12  -2-831.579 563.098   2
   0  12  -2 159.077 360.258   5
   0  12   2 107.872 359.825   5
   0  12   2 235.479 163.215   8
   0  12  -2-28.5766 137.541   8
   0  12  -2 322.875 187.755   7
   0 -12   2 452.023 461.194   2
   0 -12   3-89.4184 188.217   4
   0  12  -3 225.381 390.156   6
   0 -12  -3 96.1351 204.537   3
   0  12  -3-86.3069 353.582   5
   0 -12  -3 255.419 554.831   2
   0  12   3-204.579 370.193   5
   0  12   3 206.789 161.883   8
   0  12  -3-184.620 199.259   7
   0 -12   3 15.6342 395.637   2
   0 -12   4 811.915 231.208   4
   0 -12  -4 1009.03 256.513   3
   0  12   4 790.451 395.799   5
   0 -12  -4 1511.96 585.073   2
   0  12   4 1242.95 214.403   8
   0  12  -4 1063.80 247.541   7
   0 -12   5-327.308 220.353   4
   0  12  -5 127.526 402.060   6
   0 -12  -5-11.2236 200.216   3
   0  12   5-247.806 380.370   5
   0 -12  -5-576.519 540.806   2
   0  12   5 45.2096 160.867   8
   0  12  -5 11.2878 213.082   7
   0 -12   6 1253.57 275.706   4
   0  12   6 1334.95 229.890   8
   0  12  -6 205.192 455.919   6
   0 -12  -6 1465.60 283.546   3
   0  12   6 1477.60 426.904   5
   0 -12  -6 2103.15 598.098   2
   0  12  -6 142.012 283.505   7
   0 -12   7 24.3610 196.431   4
   0  12  -7-171.148 416.220   6
   0 -12  -7-117.999 220.143   3
   0  12   7 150.699 176.459   8
   0  12   7-261.626 405.186   5
   0 -12  -7 281.618 543.148   2
   0  12  -7 24.6460 233.427   7
   0 -12  -8 2546.72 352.981   3
   0  12  -8 796.951 512.217   6
   0  12   8 2442.90 507.593   5
   0  12   8 2718.68 315.935   8
   0 -12  -8 2024.82 621.048   2
   0  12  -8 243.079 365.304   7
   0 -12   8 2358.83 353.295   4
   0 -12   9-63.5330 215.558   4
   0  12  -9-258.113 413.737   6
   0 -12  -9-234.486 242.950   3
   0  12   9 483.775 421.612   5
   0  12  -9-39.5877 245.260   7
   0 -12  10 439.337 245.249   4
   0  12  11-82.6631 193.377   8
   0 -12 -11-420.761 562.479   2
   0 -12  12 212.984 221.492   4
   0 -12 -12 251.111 241.387   3
   0  12  12 182.616 467.299   5
   0  12  12 64.6331 190.478   8
   0 -12 -12 167.101 575.926   2
   0  12 -12 69.1242 256.864   7
   0 -12  13 13.5993 230.001   4
   0  12 -13-213.417 468.650   6
   0 -12 -13 13.5366 250.967   3
   0  12  13-899.928 490.239   5
   0  12  13-110.172 204.344   8
   0 -12 -13-513.678 642.266   2
   0  12 -13-27.6701 259.032   7
   0 -12  14 687.767 293.367   4
   0 -12 -14 1011.78 328.811   3
   0  12  14 495.787 256.253   8
   0  12 -14 192.670 331.147   7
   0 -12  15-319.560 215.921   4
   0 -12 -15 312.805 266.014   3
   0  12  15 313.283 498.699   5
   0  12  15 23.0509 206.718   8
   0 -12 -15-823.184 663.282   2
   0  12 -15 27.2404 246.502   7
   0 -12  16 182.663 230.032   4
   0  12  16 22.9620 509.415   5
   0 -12 -16 116.776 259.417   3
   0  12  16 176.844 216.088   8
   0  12 -16 308.848 252.356   7
   0  12  17-780.491 530.817   5
   0 -12 -17-330.046 272.935   3
   0  12  17 98.3962 232.604   8
   0  12 -17-13.1992 243.361   7
   0  12  18 629.515 553.574   5
   0 -12 -18 339.346 292.424   3
   0  12  19-747.102 572.386   5
   0  12  19 257.334 250.694   8
   0 -12 -19 254.061 297.420   3
   0 -12 -19 29.2339 725.090   2
   0  12  20 1527.01 622.662   5
   0  12  20 565.909 269.734   8
   0 -12 -20 474.077 312.487   3
   0 -12 -20 30.3733 791.556   2
   0  12  21 496.166 597.094   5
   0  12  21 215.298 269.020   8
   0 -12 -21-724.862 332.441   3
   0  12  22 1463.00 629.364   5
   0  12  22 481.261 285.344   8
   0 -12 -22 361.850 324.420   3
   0 -12 -22 132.610 843.610   2
   0  12  23-168.621 270.564   8
   0  12  23 380.986 608.289   5
   0 -12 -23-71.1366 329.976   3
   0 -12 -23 278.676 878.831   2
   0  12  24 221.222 618.266   5
   0  12  24 502.169 294.817   8
   0 -12 -24 73.0734 336.965   3
   0 -12 -24 441.335 953.660   2
   0  12  25 380.787 303.932   8
   0  12  25-84.5088 647.054   5
   0 -12 -25 132.029 354.587   3
   0 -12 -25 39.0081 975.255   2
   0  12  26-253.772 308.271   8
   0  12  26-1110.21 685.578   5
   0 -12 -26-234.570 367.121   3
   0  12  27 410.467 308.058   8
   0 -12 -27-524.091 379.211   3
   0 -12 -27-1070.15 1161.47   2
   0  12  27 259.636 643.539   5
   0  12  28 77.2948 294.853   8
   0  12  28-696.382 657.388   5
   0 -12 -28 104.052 378.889   3
   0  12  29-146.050 654.798   5
   0 -12 -29 21.3891 388.821   3
  -1  12   0 480.072 388.725   6
   1  12   0 585.639 414.813   5
   1 -12   0-58.9461 533.016   2
   1 -12   0 129.121 197.805   3
  -1  12   0-55.1282 334.761   5
   1  12   0 221.791 151.478   8
  -1  12   0 355.177 155.999   8
  -1  12   0 295.032 194.614   7
   1  12   0 262.211 203.744   7
   1 -12   0 412.588 201.720   4
  -1 -12   0-760.804 513.805   2
  -1 -12  -1-815.577 556.633   2
  -1  12   1-310.601 354.845   6
  -1  12  -1-526.856 386.955   6
  -1 -12   1 148.143 164.568   4
   1 -12   1-881.676 546.915   2
   1  12  -1-122.510 419.621   5
   1 -12   1 67.1686 187.369   3
   1  12   1-340.339 388.819   5
   1 -12  -1 71.5400 198.280   3
  -1  12  -1-80.2482 330.348   5
   1 -12  -1 39.2498 521.399   2
  -1  12   1 326.787 341.527   5
   1  12   1-194.539 156.032   8
  -1  12  -1 38.3935 149.748   8
  -1  12   1 48.4243 158.803   8
   1 -12  -1-140.434 364.497   1
  -1  12   1 155.526 182.045   7
  -1  12  -1-9.33963 169.780   7
   1  12   1-74.8330 187.509   7
   1  12  -1 10.9971 205.163   7
   1 -12  -1-41.1734 185.727   4
   1 -12   1 162.639 192.380   4
  -1 -12   1 197.267 441.878   2
  -1 -12  -2 223.800 573.130   2
  -1 -12   2 234.237 169.675   4
  -1  12  -2 524.681 397.583   6
   1 -12  -2 151.856 361.850   1
   1 -12   2-690.652 521.949   2
   1  12  -2 18.0732 424.860   5
   1 -12   2 18.6056 181.581   3
   1  12   2 409.127 418.816   5
   1 -12  -2 220.768 206.505   3
  -1  12  -2 377.568 337.762   5
  -1  12   2 263.203 344.850   5
   1 -12  -2-78.4125 531.904   2
   1  12   2 414.070 164.306   8
  -1  12  -2 133.994 141.262   8
  -1  12   2 297.575 160.149   8
  -1  12  -2 142.417 190.207   7
   1  12  -2-12.0731 229.245   7
   1 -12  -2 542.504 195.422   4
   1 -12   2-88.8845 201.759   4
  -1 -12   3 439.588 186.412   4
  -1  12  -3 208.521 409.965   6
  -1 -12  -3 388.988 577.107   2
  -1 -12  -3 466.960 210.129   3
   1  12  -3 756.609 481.336   5
   1  12   3-205.150 407.288   5
   1 -12  -3 680.342 231.342   3
  -1  12   3 331.885 368.526   5
   1  12   3 314.396 175.292   8
   1 -12  -3-196.746 513.936   2
  -1  12   3 649.544 176.126   8
  -1  12  -3 407.533 199.485   7
   1  12  -3 569.516 262.539   7
   1 -12   3 318.875 207.251   4
  -1 -12   4 278.800 184.844   4
  -1  12  -4 142.587 411.168   6
  -1 -12  -4 130.990 204.190   3
  -1 -12  -4 23.0365 556.170   2
   1  12  -4-243.549 505.796   5
   1  12   4-276.468 394.575   5
   1 -12  -4 88.7292 219.023   3
  -1  12   4 813.680 381.639   5
  -1  12   4 60.1283 156.253   8
   1 -12  -4-318.521 506.941   2
  -1  12  -4 189.053 184.870   7
   1  12  -4 405.641 280.888   7
   1 -12   4 23.3381 201.102   4
   1  12   4-71.5244 162.367   8
  -1 -12   5 822.108 232.171   4
  -1  12  -5 128.152 443.188   6
  -1 -12  -5 1215.75 259.718   3
  -1 -12  -5 1151.21 600.698   2
   1  12   5 404.265 420.711   5
   1 -12  -5 990.695 257.405   3
  -1  12   5 1841.56 418.067   5
   1  12   5 1115.97 216.291   8
  -1  12   5 1220.33 222.991   8
   1 -12  -5 1057.55 553.876   2
  -1  12  -5 706.927 232.367   7
   1  12  -5 1065.12 337.259   7
   1 -12   5 1098.30 266.313   4
  -1 -12   6-178.910 195.922   4
  -1  12  -6 149.957 447.513   6
  -1 -12  -6 206.715 219.895   3
  -1 -12  -6 230.010 588.679   2
  -1  12   6-90.3471 164.967   8
   1  12   6-89.9111 405.843   5
   1 -12  -6-46.7552 218.987   3
  -1  12   6 266.846 380.001   5
   1  12   6 84.3950 175.192   8
   1 -12  -6-599.917 531.029   2
  -1  12  -6 52.7878 189.062   7
   1  12  -6 68.2512 316.083   7
   1 -12   6-111.242 210.977   4
  -1 -12  -7 2574.51 330.220   3
  -1  12  -7 115.056 493.042   6
  -1 -12  -7 2051.37 642.540   2
   1  12   7 754.089 472.202   5
   1 -12  -7 1631.23 316.417   3
   1  12   7 2535.41 281.987   8
  -1  12   7 719.373 431.014   5
  -1  12   7 2526.97 283.419   8
   1 -12  -7 1797.17 594.218   2
  -1  12  -7 174.170 288.949   7
   1  12  -7 144.290 431.781   7
   1 -12   7 1455.03 309.214   4
  -1  12  -8 176.387 447.494   6
  -1 -12  -8 120.540 223.195   3
   1  12   8 225.700 422.150   5
  -1 -12  -8 671.086 572.566   2
   1 -12  -8-258.536 242.745   3
  -1  12   8 88.4551 401.682   5
  -1  12   8 193.171 183.467   8
   1 -12  -8 237.897 556.895   2
   1  12   8 78.2851 179.468   8
  -1  12  -8-11.2171 207.434   7
   1  12  -8 149.862 366.856   7
   1 -12   8 284.681 228.375   4
  -1  12  -9 301.189 489.796   6
  -1 -12  -9 1600.93 294.369   3
   1  12   9 2219.26 505.166   5
  -1  12   9 1452.43 457.709   5
   1 -12  -9 820.617 277.414   3
   1  12  -9 324.589 401.616   7
   1 -12   9 891.783 283.448   4
  -1 -12 -11 522.131 598.370   2
   1  12  11 146.068 193.541   8
  -1  12 -11-12.0911 224.532   7
  -1  12 -12-42.4523 467.982   6
  -1 -12 -12 315.928 254.561   3
   1  12  12 896.373 483.477   5
  -1  12  12-605.423 456.864   5
  -1 -12 -12-24.0452 584.863   2
   1  12  12 106.783 196.049   8
  -1  12  12 110.765 200.970   8
   1 -12 -12-673.496 605.493   2
   1 -12 -12 205.453 238.631   3
  -1  12 -12 12.3235 226.190   7
   1 -12  12 14.1372 233.252   4
   1 -12  13-506.505 263.740   4
  -1  12 -13-216.059 527.058   6
  -1  12  13-625.202 488.408   5
  -1 -12 -13-174.668 261.459   3
   1  12  13-711.077 516.936   5
   1 -12 -13-295.809 268.247   3
   1  12  13-54.4388 206.401   8
  -1  12  13-215.787 209.803   8
   1 -12 -13-1312.92 664.621   2
  -1  12 -13 12.5125 253.243   7
   1 -12  14 73.5509 278.794   4
  -1  12 -14 923.067 594.540   6
  -1 -12 -14-13.7223 285.869   3
   1  12  14 974.916 580.673   5
  -1  12  14 1091.22 559.582   5
   1  12  14 366.345 234.904   8
   1 -12 -14 492.616 305.417   3
  -1  12  14 58.2184 225.732   8
   1 -12 -14 536.150 768.239   2
  -1  12 -14-12.6611 252.121   7
   1 -12  15 29.8594 239.070   4
  -1  12 -15-512.070 485.864   6
  -1 -12 -15-28.0344 253.794   3
   1  12  15-249.194 517.192   5
  -1  12  15-552.015 486.296   5
   1 -12 -15-29.8389 266.873   3
  -1 -12 -15-786.870 625.481   2
   1  12  15-33.9725 212.590   8
  -1  12  15 11.9346 224.035   8
  -1  12 -15-12.7639 240.247   7
   1 -12 -15-606.123 649.909   2
   1 -12  16 212.919 257.850   4
  -1  12 -16-429.597 467.354   6
  -1 -12 -16-128.935 266.148   3
   1  12  16 325.884 528.870   5
  -1  12  16 271.867 494.353   5
   1  12  16 58.2987 214.457   8
  -1  12  16-97.8430 232.936   8
   1 -12 -16-230.328 277.482   3
  -1  12 -16-25.6559 246.936   7
   1 -12 -16 27.2591 636.114   2
   1 -12  17 215.408 243.736   4
  -1  12 -17-91.8092 485.313   6
  -1 -12 -17 410.446 276.432   3
   1  12  17 408.806 545.986   5
  -1  12  17 256.867 521.066   5
  -1  12  17 300.680 240.530   8
   1 -12 -17-348.158 273.559   3
  -1  12 -17-128.545 234.696   7
   1 -12 -17 1413.35 727.867   2
   1 -12  18 31.0797 265.705   4
  -1  12 -18 23.1859 501.757   6
   1  12  18 493.671 553.874   5
  -1  12  18 23.8979 516.623   5
   1  12  18 36.4057 227.048   8
  -1 -12 -18-149.953 275.411   3
  -1 -12 -18 547.939 699.620   2
   1 -12 -18 16.3214 280.463   3
   1 -12  19 536.954 278.355   4
  -1  12 -19 23.5036 503.175   6
   1  12  19 1008.46 588.166   5
  -1  12  19 688.369 535.738   5
  -1 -12 -19 76.8722 284.745   3
  -1 -12 -19 56.2948 702.181   2
   1 -12 -19 100.061 298.899   3
  -1  12 -19-153.992 246.581   7
   1  12  19 346.667 238.593   8
   1 -12  20-317.843 268.440   4
   1  12  20-981.891 625.858   5
  -1 -12 -20-520.739 316.269   3
   1  12  20-505.151 258.782   8
  -1  12  20 75.4067 557.474   5
  -1  12  20 68.5065 261.580   8
  -1 -12 -20-1420.40 779.090   2
   1 -12 -20 86.0254 315.716   3
  -1  12 -20-115.178 249.050   7
   1 -12  21 382.972 275.819   4
  -1  12  21 231.990 570.476   5
   1  12  21 368.296 614.416   5
  -1 -12 -21 372.869 332.209   3
   1  12  21 128.846 254.155   8
  -1  12  21 252.512 276.153   8
  -1 -12 -21-1286.69 811.751   2
   1 -12 -21 17.6573 325.750   3
  -1  12 -21 535.488 265.656   7
   1 -12  22 16.0397 256.744   4
  -1  12  22-344.684 283.686   8
  -1  12  22 685.860 591.355   5
   1  12  22-188.306 614.094   5
  -1 -12 -22 483.671 327.364   3
  -1 -12 -22 92.9484 781.048   2
   1 -12 -22 346.079 343.164   3
   1  12  22 52.5576 255.614   8
  -1  12 -22-495.221 251.456   7
   1  12  23 491.980 642.848   5
   1  12  23 187.508 264.667   8
  -1  12  23 144.366 277.505   8
  -1 -12 -23 308.888 323.759   3
  -1  12  23 1044.98 609.265   5
  -1 -12 -23-32.1611 841.701   2
   1 -12 -23 207.392 339.021   3
   1  12  24-696.742 633.299   5
   1  12  24-204.765 265.416   8
  -1  12  24-88.5876 279.890   8
  -1  12  24 27.2947 588.295   5
  -1 -12 -24-35.3734 324.542   3
  -1 -12 -24-368.362 837.074   2
   1 -12 -24 116.556 353.826   3
   1  12  25-166.834 282.665   8
   1  12  25-1241.41 691.643   5
  -1  12  25-316.912 307.394   8
  -1  12  25-773.160 632.523   5
  -1 -12 -25 216.956 346.485   3
  -1 -12 -25-874.040 924.641   2
   1 -12 -25-120.226 377.664   3
   1 -12 -25-448.731 1164.02   2
   1  12  26-14.1489 277.021   8
   1  12  26-430.141 670.668   5
  -1  12  26-184.943 304.829   8
  -1  12  26-167.795 632.105   5
  -1 -12 -26-615.858 366.510   3
   1 -12 -26-329.206 396.522   3
   1  12  27-143.903 270.503   8
   1  12  27-173.711 645.911   5
  -1  12  27 487.212 319.365   8
  -1  12  27 55.9806 605.786   5
  -1 -12 -27 577.077 990.534   2
  -1 -12 -27-57.5084 351.157   3
   1 -12 -27 126.554 360.741   3
   1 -12 -27 1033.77 1388.39   2
   1  12  28-482.283 300.459   8
  -1  12  28-128.013 317.071   8
   1  12  28 644.410 678.037   5
  -1 -12 -28 1215.66 1063.51   2
  -1  12  28-478.302 642.360   5
  -1 -12 -28-118.711 371.366   3
   1 -12 -28-758.266 411.472   3
   1 -12 -28-1525.06 1558.06   2
   1  12  29-911.339 700.667   5
  -1 -12 -29 204.978 380.826   3
  -2  12   0 67.0965 405.698   6
   2  12   0-467.024 476.481   5
   2 -12   0 108.453 375.865   1
   2 -12   0 83.0530 201.898   3
  -2  12   0-207.583 347.913   5
   2 -12   0 378.746 498.137   2
  -2  12   0 23.0550 152.458   8
  -2  12   0 149.227 206.554   7
   2 -12   0 286.605 195.180   4
   2  12   0 189.887 323.990   7
  -2  12   1 359.855 420.880   6
  -2  12  -1 326.586 424.081   6
   2 -12  -1 236.056 496.275   2
   2  12  -1 1506.33 538.103   5
   2  12   1 627.414 467.417   5
   2 -12   1 443.935 215.425   3
   2 -12   1 307.639 513.962   2
  -2  12  -1 227.472 340.736   5
   2 -12  -1 224.356 225.958   3
  -2  12   1 386.403 351.234   5
  -2  12  -1 581.006 169.008   8
  -2  12   1 405.951 167.209   8
  -2  12   1 78.8262 197.055   7
  -2  12  -1 49.3990 199.007   7
   2 -12   1 412.101 375.821   1
   2 -12  -1 288.403 204.361   4
   2  12  -1 1152.69 450.831   7
   2 -12   1 228.409 204.626   4
   2 -12  -1 708.050 364.460   1
  -2  12   2 240.544 406.469   6
  -2  12  -2-35.1967 423.776   6
   2  12  -2 888.372 561.508   5
   2  12   2-1322.39 461.106   5
   2 -12   2 156.287 408.440   1
  -2  12   2 461.220 355.861   5
   2 -12  -2 307.857 221.549   3
   2  12   2-72.2839 139.500   8
  -2  12   2-136.484 157.285   8
   2 -12  -2 184.977 488.757   2
   2 -12  -2-131.738 344.684   1
  -2  12   2 436.203 201.137   7
  -2  12  -2 49.6347 198.596   7
   2 -12  -2 312.119 199.445   4
   2  12  -2-503.759 542.296   7
   2 -12   2 44.6010 206.641   4
  -2 -12  -2-21.5204 495.422   2
  -2 -12  -3 479.752 535.155   2
  -2  12  -3 143.305 447.187   6
   2  12  -3 715.524 643.557   5
   2  12   3 132.584 433.340   5
  -2  12   3 922.196 374.918   5
   2 -12  -3 11.3018 217.875   3
   2  12   3 25.4622 154.288   8
  -2  12   3 8.36753 154.133   8
   2 -12   3 182.473 416.838   1
   2 -12  -3-94.2154 508.678   2
  -2  12  -3 268.371 186.852   7
   2  12  -3 36.3152 663.176   7
   2 -12   3 114.331 193.870   4
  -2 -12  -4-118.133 562.282   2
  -2  12  -4 18.3192 444.256   6
   2  12   4 757.856 447.847   5
  -2  12   4-63.5197 363.760   5
   2  12   4 132.847 149.463   8
   2 -12  -4-11.6302 222.492   3
  -2  12   4 214.409 160.105   8
   2 -12  -4-732.070 536.240   2
  -2  12  -4 130.569 192.772   7
   2  12  -4 236.910 861.424   7
   2 -12   4 259.333 214.379   4
  -2  12  -5-243.446 456.987   6
  -2 -12  -5 96.8729 566.200   2
   2  12   5-37.9318 423.547   5
  -2  12   5 310.369 390.377   5
   2  12   5 119.363 168.751   8
   2 -12  -5 227.483 230.253   3
  -2  12   5 251.521 176.866   8
   2 -12  -5 970.462 535.979   2
  -2  12  -5-274.978 197.692   7
   2 -12   5-96.7330 213.634   4
  -2  12  -6-19.0607 480.110   6
  -2 -12  -6 24.5717 575.041   2
   2  12   6 286.541 436.029   5
  -2  12   6 843.531 403.209   5
   2  12   6 1031.11 205.894   8
   2 -12  -6 800.882 256.310   3
  -2  12   6 896.232 213.451   8
   2 -12  -6 346.313 540.281   2
  -2  12  -6 31.0725 229.571   7
   2 -12   6 744.220 245.361   4
  -2  12  -7 194.594 468.196   6
  -2 -12  -7 58.2103 219.120   3
  -2 -12  -7 24.6896 584.914   2
   2  12   7 388.445 445.486   5
  -2  12   7 191.651 393.650   5
   2  12   7 135.943 187.773   8
  -2  12   7 29.0161 179.805   8
   2 -12  -7-114.192 247.843   3
  -2  12  -7 21.1526 207.947   7
   2 -12  -7 84.0042 530.672   2
   2 -12   7 128.054 230.455   4
  -2  12  -8 198.555 467.900   6
   2 -12  -8 953.663 285.478   3
  -2 -12  -8 1134.98 259.587   3
   2  12   8 494.118 463.337   5
  -2  12   8 644.185 418.903   5
  -2  12   8 926.118 212.733   8
  -2  12  -8 32.4034 226.104   7
   2 -12  -8 605.975 563.839   2
   2 -12   8 551.520 259.412   4
  -2  12  -9-60.8859 465.372   6
  -2  12   9 166.292 409.078   5
   2 -12  -9 497.591 270.686   3
   2 -12   9 363.425 240.437   4
  -2 -12 -10 1140.23 643.325   2
  -2 -12 -11 373.605 611.095   2
   2  12  11 433.069 199.267   8
  -2  12  11 88.2277 199.198   8
  -2  12 -11 80.8238 210.936   7
  -2  12 -12 214.968 475.291   6
  -2 -12 -12 13.3311 240.911   3
  -2 -12 -12 25.0695 587.640   2
   2  12  12 586.795 490.973   5
   2  12  12-97.2793 195.336   8
  -2  12  12 303.135 444.130   5
  -2  12  12 90.5858 201.856   8
   2 -12 -12-220.445 263.586   3
  -2  12 -12-11.7931 216.915   7
   2 -12  12 173.929 261.533   4
  -2  12 -13-349.842 551.197   6
  -2 -12 -13 164.117 274.829   3
  -2  12  13-958.819 517.307   5
   2  12  13-66.6619 539.976   5
   2  12  13-187.101 223.302   8
   2 -12 -13-121.165 293.088   3
  -2  12  13 307.787 238.176   8
  -2  12 -13-24.0584 248.938   7
   2 -12  13 59.8264 260.394   4
  -2  12 -14-400.179 566.398   6
  -2 -12 -14-739.234 292.009   3
   2  12  14-1639.87 600.382   5
   2  12  14-112.044 219.162   8
  -2  12  14-1665.67 542.912   5
  -2  12  14-194.101 249.798   8
   2 -12 -14-46.3969 306.967   3
  -2  12 -14-12.2495 249.251   7
   2 -12  14-702.658 294.852   4
  -2  12 -15 158.597 515.268   6
  -2 -12 -15-526.252 270.178   3
   2  12  15-183.921 221.601   8
   2  12  15 69.8589 535.062   5
  -2  12  15 154.001 474.612   5
  -2  12  15 223.656 234.111   8
   2 -12 -15 31.8900 274.466   3
  -2  12 -15 87.1649 233.645   7
   2 -12  15 31.1547 266.363   4
  -2  12 -16-115.020 508.620   6
  -2 -12 -16-391.384 288.467   3
   2  12  16 23.8451 542.801   5
  -2  12  16 157.798 471.263   5
  -2  12  16 38.1646 247.797   8
   2 -12 -16 16.4389 285.747   3
  -2  12 -16 12.6352 240.665   7
   2 -12  16 79.8119 267.407   4
  -2  12 -17-23.3423 518.206   6
  -2  12  17 533.055 517.066   5
  -2 -12 -17 236.412 273.435   3
   2  12  17-662.065 562.946   5
  -2 -12 -17-584.643 640.453   2
  -2  12  17 104.144 230.747   8
   2 -12 -17 219.079 314.933   3
   2 -12  17-16.2314 275.762   4
   2 -12  18 33.1465 291.348   4
  -2  12 -18 23.6070 520.396   6
  -2 -12 -18 195.854 282.687   3
   2  12  18 49.8545 559.901   5
  -2 -12 -18 27.0486 673.434   2
   2  12  18 278.777 232.754   8
  -2  12  18-404.681 504.297   5
  -2  12  18-133.195 248.542   8
   2 -12 -18-52.0865 321.208   3
   2 -12  19 151.150 290.040   4
  -2  12 -19 119.601 534.659   6
  -2 -12 -19 353.403 296.345   3
   2  12  19 1095.04 602.164   5
   2  12  19 505.618 248.653   8
  -2  12  19 461.159 518.615   5
   2 -12 -19 71.8157 318.459   3
  -2  12 -19-91.4951 251.075   7
  -2 -12 -19 110.319 702.045   2
   2 -12  20 322.630 303.855   4
  -2  12 -20-193.156 563.554   6
  -2 -12 -20 470.814 323.626   3
  -2 -12 -20-366.320 784.556   2
   2  12  20 327.618 263.587   8
  -2  12  20 993.751 576.186   5
   2 -12 -20-332.549 351.917   3
  -2  12 -20 184.500 261.647   7
   2 -12  21 309.996 307.515   4
  -2  12 -21 293.276 576.964   6
   2  12  21-692.618 632.185   5
  -2 -12 -21-16.0271 306.115   3
  -2 -12 -21-28.8530 728.487   2
   2  12  21 115.419 242.329   8
  -2  12  21-171.275 273.353   8
  -2  12  21 151.594 545.073   5
   2 -12 -21 18.9928 329.631   3
  -2  12 -21 185.821 252.169   7
   2 -12  22-138.709 322.788   4
  -2  12 -22-692.372 721.267   6
   2  12  22 162.040 611.967   5
  -2 -12 -22 393.627 319.665   3
  -2 -12 -22 532.799 755.400   2
   2  12  22 300.076 252.423   8
  -2  12  22 335.939 291.607   8
  -2  12  22 283.258 560.283   5
   2 -12 -22-136.861 353.511   3
  -2  12 -22-66.7818 273.801   7
   2 -12  23-175.617 313.596   4
  -2  12 -23-24.9030 594.576   6
   2  12  23 79.6317 257.578   8
   2  12  23 329.626 619.982   5
  -2 -12 -23 336.204 315.441   3
  -2  12  23 179.380 289.715   8
  -2 -12 -23-702.534 767.061   2
   2 -12 -23 80.1424 361.572   3
  -2  12 -23-26.8601 261.320   7
  -2  12  23 366.340 585.483   5
   2 -12  24-17.5995 281.586   4
   2  12  24 222.056 637.377   5
  -2 -12 -24 94.4170 802.033   2
  -2 -12 -24-413.817 322.519   3
  -2  12  24-275.345 294.497   8
  -2  12  24-815.245 583.399   5
   2  12  24 175.513 267.794   8
   2 -12 -24 20.5942 366.313   3
  -2  12 -24-391.457 267.746   7
   2 -12  25-510.048 333.525   4
   2  12  25 700.661 706.555   5
  -2 -12 -25-2371.67 941.116   2
  -2 -12 -25-283.506 363.182   3
  -2  12  25-438.189 345.273   8
   2  12  25-192.124 286.514   8
  -2  12  25-1407.63 690.529   5
   2 -12 -25-966.553 435.545   3
  -2  12 -25-555.799 298.871   7
   2 -12  26-123.147 297.256   4
   2  12  26 284.008 663.354   5
   2  12  26-111.611 286.731   8
  -2  12  26 384.044 314.471   8
  -2 -12 -26 163.857 329.991   3
  -2  12  26 1119.69 594.709   5
  -2  12 -26-272.189 278.731   7
   2 -12 -26 277.816 376.820   3
   2  12  27-42.4974 274.831   8
   2  12  27-742.877 664.955   5
  -2  12  27-163.418 312.486   8
  -2 -12 -27 562.359 361.784   3
  -2  12  27 534.560 587.980   5
  -2 -12 -27 69.6903 868.889   2
  -2  12 -27-191.227 271.796   7
   2 -12 -27 65.3747 380.592   3
  -2 -12 -28 540.930 942.047   2
   2  12  28 28.7672 278.703   8
  -2 -12 -28-401.862 358.015   3
   2  12  28 981.893 672.710   5
   2 -12 -28-396.169 386.246   3
  -2  12  28 179.896 290.178   8
  -2 -12 -29-37.5026 922.572   2
   2  12  29-261.017 670.677   5
  -2 -12 -29 98.6238 384.169   3
  -3  12   0-497.363 435.658   6
   3 -12   0-122.707 353.948   1
  -3  12   0 351.162 354.088   5
   3 -12   0 82.5210 227.532   3
  -3  12   0-15.1240 143.840   8
   3 -12   0-835.135 487.552   2
  -3  12   0 240.192 210.110   7
   3 -12   0 53.6031 200.856   4
  -3  12   1 369.871 425.475   6
  -3  12  -1 34.9892 438.324   6
   3 -12  -1-133.671 337.410   1
   3  12   1-333.996 484.963   5
  -3  12   1 15.0857 350.491   5
   3 -12  -1 180.547 240.154   3
  -3  12   1 181.949 159.429   8
   3 -12   1 18.3656 361.401   1
   3 -12  -1-330.849 496.058   2
  -3  12   1 10.2699 200.346   7
  -3  12  -1-73.5809 199.719   7
   3 -12  -1 188.418 194.528   4
   3 -12   1-43.9360 194.349   4
  -3  12  -2 54.3517 450.074   6
   3  12   2 464.599 457.725   5
  -3  12   2-510.422 365.876   5
  -3  12   2-140.849 159.097   8
   3 -12  -2 12.3145 231.836   3
  -3  12   2 261.120 197.807   7
  -3  12  -2 169.468 211.724   7
   3 -12  -2 41.0672 187.941   4
   3 -12  -2 608.018 494.858   2
   3 -12   2 269.045 209.031   4
   3 -12   2 19.1922 374.861   1
   3 -12  -2 539.268 328.332   1
  -3  12   2-82.3488 414.316   6
  -3  12   3 63.7463 364.135   5
  -3  12  -3-147.741 450.256   6
   3 -12   3-79.4938 393.497   1
   3  12   3-396.506 450.435   5
  -3  12   3 17.1225 161.509   8
   3 -12  -3 214.284 239.092   3
   3 -12  -3 165.594 319.596   1
  -3  12  -3-10.6582 191.154   7
   3 -12  -3-321.093 196.689   4
   3 -12   3 91.9269 210.734   4
   3 -12  -3 461.690 514.212   2
  -3  12  -4 305.891 495.172   6
   3  12   4 552.613 466.783   5
   3 -12   4 20.7241 418.014   1
  -3  12   4 328.345 374.845   5
  -3  12   4 36.0800 171.499   8
   3 -12  -4-25.8642 245.418   3
  -3  12  -4-10.7030 203.713   7
   3 -12   4-11.7814 200.230   4
  -3 -12  -4 1163.42 536.944   2
  -3  12  -5 155.848 463.906   6
   3  12   5 454.736 449.214   5
   3  12   5 8.76474 151.880   8
  -3  12   5 507.123 391.283   5
  -3  12   5 56.0738 175.845   8
   3 -12  -5-39.8352 237.440   3
   3 -12   5 64.1937 434.128   1
  -3  12  -5 10.6466 207.916   7
   3 -12   5-156.213 218.461   4
  -3 -12  -5 355.117 540.943   2
  -3 -12  -6-98.4423 556.009   2
  -3  12  -6 158.733 484.195   6
   3 -12   6 22.2423 450.761   1
   3  12   6 756.947 456.892   5
   3  12   6 101.040 165.872   8
  -3  12   6-17.4081 391.431   5
  -3  12   6 138.063 190.448   8
   3 -12  -6 150.118 253.972   3
  -3  12  -6 32.2065 208.928   7
   3 -12   6-184.921 223.871   4
  -3  12  -7 321.388 506.881   6
   3 -12   7-22.8934 458.536   1
   3  12   7 809.514 475.758   5
  -3  12   7 659.016 422.122   5
   3 -12  -7 403.081 274.539   3
  -3  12  -7 119.394 216.204   7
  -3  12   7 550.797 212.467   8
   3 -12   7 632.440 253.530   4
  -3  12  -8 20.4539 490.414   6
  -3  12   8 55.0007 408.984   5
  -3  12   8 73.7045 191.700   8
   3 -12  -8-114.374 267.105   3
   3 -12   8 52.2721 231.514   4
  -3  12   9 660.205 420.816   5
   3 -12  -9-161.867 267.145   3
  -3 -12 -10 680.792 624.639   2
   3  12  10-10.4299 191.428   8
   3 -12  10 24.8641 488.673   1
  -3  12 -10 135.587 217.345   7
  -3  12 -11-42.9021 492.421   6
  -3 -12 -11-631.544 607.414   2
  -3 -12 -11-66.1860 241.342   3
   3  12  11-109.089 469.177   5
   3  12  11-10.6805 192.713   8
  -3  12  11 116.309 209.861   8
  -3  12 -11-57.5439 211.978   7
   3 -12  11 99.3427 256.453   4
  -3  12 -12-369.647 544.342   6
  -3 -12 -12-95.7159 265.150   3
  -3 -12 -12-1291.68 676.026   2
   3  12  12-1207.34 557.943   5
   3  12  12-119.622 204.618   8
  -3  12  12-959.134 466.354   5
  -3  12  12 11.8970 225.184   8
   3 -12 -12-334.975 327.404   3
  -3  12 -12 35.1935 233.014   7
   3 -12  12-407.590 266.685   4
  -3  12 -13 132.604 589.258   6
  -3 -12 -13 237.967 282.919   3
   3  12  13-436.281 560.776   5
   3  12  13 33.2927 230.823   8
  -3  12  13 546.761 252.505   8
   3 -12 -13-114.880 329.796   3
  -3  12 -13 47.8538 244.971   7
   3 -12  13 150.205 289.688   4
  -3  12 -14 202.138 524.177   6
  -3 -12 -14 186.496 262.060   3
   3  12  14-375.236 521.680   5
   3  12  14 101.788 209.961   8
  -3  12  14 278.070 460.531   5
  -3  12  14-371.777 238.053   8
   3 -12 -14-16.9477 295.152   3
  -3  12 -14 36.5927 241.946   7
   3 -12  14-492.416 277.766   4
  -3  12 -15-68.5848 515.487   6
  -3 -12 -15-205.842 274.718   3
   3  12  15 839.416 554.638   5
  -3  12  15-197.344 454.802   5
  -3  12  15-38.6586 240.444   8
   3 -12 -15 34.8344 306.167   3
  -3  12 -15-174.104 231.721   7
   3 -12  15 94.8079 279.957   4
  -3  12 -16-278.540 523.124   6
  -3 -12 -16-391.666 287.381   3
  -3 -12 -16-1432.69 692.562   2
   3  12  16 1270.13 585.871   5
  -3  12  16 335.463 467.296   5
  -3  12  16-354.376 241.278   8
   3 -12 -16-322.029 317.867   3
  -3  12 -16-12.6697 233.285   7
   3 -12  16 32.3200 289.864   4
  -3  12 -17-306.852 556.719   6
  -3 -12 -17-54.6238 666.429   2
  -3 -12 -17-76.6418 285.564   3
   3  12  17-249.089 567.539   5
   3  12  17-11.9712 227.377   8
  -3  12  17-297.298 469.441   5
  -3  12  17-53.4553 256.904   8
   3 -12 -17 331.250 329.544   3
   3 -12  17 148.568 288.306   4
  -3  12 -18 167.543 554.017   6
  -3 -12 -18-27.6414 674.479   2
  -3 -12 -18 327.438 292.544   3
   3  12  18-936.270 609.810   5
   3  12  18 340.740 235.205   8
  -3  12  18-204.150 268.833   8
  -3  12  18-396.923 485.921   5
   3 -12 -18-226.296 327.792   3
   3 -12  18 153.014 283.323   4
  -3  12 -19-462.334 576.453   6
  -3 -12 -19-110.889 298.047   3
   3  12  19-77.5823 593.114   5
   3  12  19 236.078 241.099   8
  -3  12  19 110.941 270.821   8
  -3  12  19 613.666 533.215   5
   3 -12 -19-289.451 326.625   3
  -3  12 -19-267.181 253.773   7
   3 -12  19 225.116 300.034   4
  -3  12 -20 24.6411 610.239   6
  -3 -12 -20 1023.99 764.678   2
  -3 -12 -20 338.064 328.825   3
   3  12  20-78.7864 646.203   5
   3  12  20-25.2575 258.701   8
  -3  12  20-1152.14 623.125   5
   3 -12 -20 416.021 368.285   3
  -3  12 -20 447.717 268.653   7
   3 -12  20-124.002 312.655   4
  -3  12 -21 349.262 576.915   6
  -3 -12 -21-231.479 722.081   2
  -3 -12 -21-163.561 309.399   3
   3  12  21-1112.01 647.107   5
   3  12  21 333.544 257.158   8
  -3  12  21-1339.00 623.090   5
   3 -12 -21 121.140 351.490   3
  -3  12 -21 41.2826 257.807   7
   3 -12  21 35.9392 320.316   4
   3 -12  22 109.761 313.427   4
  -3  12 -22 75.5050 580.499   6
  -3 -12 -22-1474.31 749.062   2
  -3 -12 -22 16.6376 311.395   3
   3  12  22 1045.78 639.149   5
   3  12  22 221.572 243.327   8
  -3  12  22-129.878 275.357   8
  -3  12  22 1892.65 608.147   5
  -3  12 -22 139.461 268.959   7
   3 -12 -22-328.457 384.163   3
   3 -12  23-110.834 323.763   4
  -3  12 -23 178.127 591.742   6
  -3 -12 -23-1505.18 788.127   2
   3  12  23 463.765 655.801   5
  -3 -12 -23 84.5740 311.662   3
   3  12  23 436.849 270.288   8
  -3  12  23 294.911 292.811   8
  -3  12  23-520.650 554.760   5
  -3  12 -23 14.1219 267.266   7
   3 -12 -23-83.7548 370.451   3
   3 -12  24 204.642 323.352   4
  -3 -12 -24-258.611 324.791   3
  -3  12 -24 102.479 598.389   6
  -3 -12 -24 738.723 771.137   2
   3  12  24 658.764 646.255   5
   3  12  24-53.7806 259.832   8
  -3  12  24 45.2335 284.826   8
  -3  12 -24-171.165 278.522   7
   3 -12 -24 84.6794 366.161   3
   3 -12  25 732.525 401.613   4
   3  12  25 423.328 326.237   8
  -3  12 -25 465.889 718.369   6
   3  12  25 665.008 746.363   5
  -3 -12 -25 1196.49 422.395   3
  -3  12  25 1819.98 390.526   8
  -3  12 -25 1109.98 359.937   7
   3 -12  26-56.4233 316.691   4
  -3  12 -26-286.183 599.992   6
  -3 -12 -26 582.237 821.663   2
   3  12  26-55.5928 642.802   5
   3  12  26 429.735 283.239   8
  -3 -12 -26-323.773 345.790   3
  -3  12  26-378.570 315.039   8
  -3  12 -26 101.881 288.183   7
   3 -12  27-18.9297 323.672   4
  -3  12 -27 78.7840 614.488   6
  -3 -12 -27 365.432 846.440   2
   3  12  27-840.295 666.425   5
   3  12  27 42.2215 269.507   8
  -3 -12 -27 128.777 347.543   3
  -3  12 -27 146.795 291.767   7
   3 -12  28 131.890 327.486   4
  -3 -12 -28-1195.96 889.427   2
   3  12  28-471.391 299.624   8
   3  12  28 1234.61 684.673   5
  -3 -12 -28 433.139 364.892   3
   3  12  29-56.4561 663.324   5
  -3 -12 -29-309.062 377.535   3
  -4  12   0 658.537 233.383   7
   4 -12   0 526.177 211.987   4
   4 -12   0 479.212 385.326   1
  -4  12   0 400.357 447.867   6
  -4  12   1-158.044 349.078   5
  -4  12   1 156.161 166.547   8
   4 -12  -1 81.8301 335.951   1
   4 -12  -1 99.3545 261.049   3
  -4  12   1-227.729 204.571   7
  -4  12  -1 33.1818 218.727   7
   4 -12  -1-73.4412 189.871   4
   4 -12   1 22.0082 196.753   4
   4 -12   1-17.6822 343.943   1
  -4  12   1 16.8614 422.758   6
  -4  12  -1-141.153 443.757   6
   4 -12   2 37.0840 376.784   1
   4 -12  -2 625.563 325.068   1
  -4  12   2-146.133 364.964   5
  -4  12   2 96.3952 171.574   8
   4 -12  -2 788.090 297.958   3
  -4  12   2 233.492 211.750   7
   4 -12  -2 347.785 198.832   4
  -4  12  -2 145.289 208.134   7
   4 -12   2 112.706 208.987   4
  -4  12   2 83.1620 424.949   6
  -4  12  -2-72.8003 447.513   6
   4 -12   3-155.091 397.951   1
   4 -12  -3 374.929 316.656   1
  -4  12   3-49.7339 379.497   5
  -4  12   3-45.8680 174.949   8
   4 -12  -3-391.976 281.292   3
  -4  12   3-10.2156 191.119   7
   4 -12  -3 229.366 197.457   4
  -4  12  -3 33.5345 213.463   7
   4 -12   3-57.6353 207.988   4
  -4  12  -3 350.795 475.696   6
   4 -12   4-20.0417 399.377   1
  -4  12   4-408.020 374.463   5
  -4  12   4-39.0634 184.156   8
   4 -12  -4-44.4384 270.983   3
  -4  12  -4 11.1991 222.722   7
   4 -12   4-118.078 211.927   4
  -4  12  -4-393.328 504.872   6
  -4  12  -5 214.479 493.418   6
  -4  12   5-139.439 381.116   5
  -4  12   5 30.5419 187.538   8
   4 -12   5-20.9203 406.413   1
   4 -12  -5-90.5047 273.408   3
  -4  12  -5-22.4846 222.341   7
   4 -12   5-96.3936 216.447   4
  -4  12  -6 237.484 496.201   6
  -4  12   6-53.5838 390.941   5
  -4  12   6 312.801 211.977   8
   4 -12  -6-261.509 285.781   3
  -4  12  -6-56.6251 219.729   7
   4 -12   6-37.0484 222.168   4
   4 -12   6-21.6016 440.332   1
  -4  12  -7 347.024 528.167   6
  -4  12   7 402.404 414.764   5
  -4  12   7-434.644 222.455   8
   4 -12  -7-172.829 273.646   3
   4 -12   7-113.957 231.854   4
   4  12   8 37.4937 164.564   8
  -4  12   8 355.815 420.342   5
  -4  12   8 286.525 225.182   8
   4 -12  -8 96.3367 279.717   3
  -4 -12  -8-672.696 578.881   2
   4  12   9 41.4457 459.550   5
   4 -12   9 48.0725 469.953   1
   4  12   9-146.718 172.751   8
  -4  12   9 629.667 404.647   5
   4 -12  -9-114.936 298.044   3
  -4  12  -9 11.6434 230.839   7
  -4 -12  -9 102.421 578.996   2
  -4 -12 -10 26.2240 620.155   2
  -4  12 -10-108.665 537.238   6
   4  12  10-149.435 472.481   5
   4 -12  10-74.1472 490.608   1
   4  12  10 213.363 190.654   8
  -4  12 -10-94.3194 245.119   7
   4 -12  10 13.5420 248.019   4
  -4  12 -11-419.549 603.836   6
   4  12  11-896.235 521.846   5
   4  12  11-336.118 207.120   8
  -4  12  11-233.803 248.540   8
  -4  12 -11-165.567 256.996   7
   4 -12  11-750.752 310.825   4
  -4  12 -12 1627.71 672.303   6
  -4 -12 -12 3897.02 813.833   2
   4  12  12 134.276 538.786   5
   4  12  12 237.600 213.612   8
  -4  12  12 3033.71 561.556   5
  -4  12  12 1182.93 295.467   8
   4 -12 -12 123.268 367.906   3
  -4  12 -12 24.0310 283.474   7
   4 -12  12 215.587 311.413   4
   4 -12  12 131.565 581.321   1
  -4  12 -13 22.6517 534.414   6
   4 -12  13-838.411 544.265   1
  -4 -12 -13-403.119 263.573   3
   4  12  13-184.034 518.347   5
   4  12  13-310.533 200.823   8
  -4  12  13 12.5759 234.641   8
  -4  12  13 659.422 429.531   5
   4 -12 -13-125.977 307.966   3
  -4  12 -13 24.4501 236.912   7
   4 -12  13 29.5144 266.180   4
  -4  12 -14-320.475 545.142   6
  -4 -12 -14-481.139 300.741   3
   4 -12  14 27.8256 550.992   1
   4  12  14 777.092 543.609   5
  -4  12  14 114.141 232.009   8
  -4  12  14-189.045 434.223   5
  -4  12 -14-112.055 235.620   7
   4 -12 -14-92.3245 322.567   3
   4 -12  14 45.4574 276.347   4
  -4  12 -15-23.2478 546.402   6
  -4 -12 -15 83.5992 665.870   2
  -4 -12 -15 263.969 298.923   3
   4  12  15 24.1684 530.614   5
   4 -12  15-401.546 581.214   1
  -4  12  15-153.428 239.901   8
  -4  12  15 106.912 429.681   5
  -4  12 -15 12.6901 239.428   7
   4 -12 -15 37.6682 321.502   3
   4 -12  15-250.129 266.421   4
   4  12  16 319.799 235.413   8
  -4  12 -16 117.589 543.990   6
  -4 -12 -16 56.1835 666.158   2
  -4 -12 -16-285.452 295.685   3
   4  12  16 345.480 557.603   5
  -4  12  16 231.996 247.407   8
  -4  12  16-108.670 458.048   5
   4 -12 -16 191.799 327.600   3
   4 -12  16 80.2017 276.339   4
  -4  12 -17 119.346 547.451   6
  -4 -12 -17-28.3316 665.302   2
  -4 -12 -17-389.802 303.481   3
   4  12  17 200.651 586.367   5
   4  12  17 108.648 233.665   8
  -4  12  17-273.031 249.998   8
  -4  12  17-22.0069 462.137   5
   4 -12 -17 214.498 324.972   3
   4 -12  17 16.5509 267.963   4
   4  12  18 12.2449 239.761   8
  -4  12 -18-145.595 564.243   6
  -4 -12 -18-829.432 696.182   2
  -4 -12 -18 264.358 320.588   3
   4  12  18 25.4136 585.024   5
  -4  12  18-105.043 255.448   8
  -4  12  18 535.029 484.457   5
  -4  12 -18-26.7448 267.119   7
   4 -12 -18-19.8962 330.982   3
   4 -12  18 64.0477 645.842   1
   4 -12  18-423.917 300.898   4
   4 -12  19 469.810 715.542   1
  -4  12 -19 196.801 602.271   6
  -4 -12 -19-1527.87 773.324   2
  -4 -12 -19-218.931 328.497   3
   4  12  19 463.601 611.231   5
   4  12  19 161.959 253.749   8
  -4  12  19 146.042 248.135   8
  -4  12 -19 13.6332 278.641   7
   4 -12 -19 181.307 350.212   3
   4 -12  19 156.593 311.653   4
   4 -12  20-961.058 718.700   1
  -4  12 -20-124.634 563.114   6
  -4 -12 -20 320.827 727.279   2
  -4 -12 -20 136.392 331.198   3
   4  12  20-129.908 616.019   5
   4  12  20 12.6639 241.834   8
  -4  12  20-13.4513 250.242   8
  -4  12 -20-166.735 274.771   7
   4 -12 -20 325.460 362.030   3
   4 -12  20 35.5406 313.330   4
  -4  12 -21-25.2955 592.417   6
   4 -12  21-37.9026 750.483   1
  -4 -12 -21 531.848 722.164   2
  -4 -12 -21 17.2295 311.369   3
   4  12  21-52.4327 629.652   5
   4  12  21 64.3461 241.465   8
  -4  12 -21-198.163 280.986   7
   4 -12 -21-286.855 359.592   3
   4 -12  21 18.2981 310.774   4
  -4  12 -22 76.7814 589.337   6
   4 -12  22-40.7869 789.385   1
  -4 -12 -22-929.377 757.639   2
  -4 -12 -22 34.8173 321.443   3
   4  12  22 929.010 648.901   5
   4  12  22 39.2198 250.418   8
  -4  12 -22-331.351 286.694   7
   4 -12  22-521.305 332.198   4
   4 -12  23 88.9634 899.262   1
  -4  12 -23 415.439 601.066   6
  -4 -12 -23 121.844 759.626   2
   4  12  23-146.023 255.361   8
  -4 -12 -23-123.069 340.332   3
   4  12  23 371.525 610.382   5
  -4  12 -23 307.678 287.338   7
   4 -12  23 266.254 339.129   4
  -4  12 -24-393.635 684.653   6
  -4 -12 -24-1363.82 814.424   2
  -4 -12 -24-124.352 358.040   3
   4  12  24-773.185 711.882   5
   4  12  24 148.319 270.564   8
  -4  12 -24-148.900 314.633   7
   4 -12  24-77.0359 353.403   4
  -4  12 -25-317.241 642.751   6
  -4 -12 -25-789.262 871.495   2
   4  12  25-914.876 677.065   5
  -4 -12 -25-412.747 376.969   3
   4  12  25-426.230 289.126   8
  -4  12 -25 362.680 317.283   7
   4 -12  25-389.403 1124.75   1
   4 -12  25-19.4465 341.344   4
   4 -12  26-354.283 351.047   4
  -4  12 -26-240.156 619.442   6
  -4 -12 -26 1062.72 834.078   2
  -4 -12 -26 181.728 360.020   3
   4  12  26-376.900 281.431   8
   4  12  26 134.893 636.421   5
   4 -12  26 64.9025 1280.31   1
  -4  12 -26-15.3260 299.118   7
   4 -12  27 256.652 349.244   4
  -4  12 -27-134.109 630.412   6
  -4 -12 -27 361.604 825.513   2
   4  12  27 376.938 641.161   5
   4  12  27 70.8621 277.860   8
  -4 -12 -27-258.055 352.509   3
  -4  12 -27 201.722 304.599   7
   4 -12  28-357.026 333.442   4
  -4  12 -28-54.0962 611.640   6
  -4 -12 -28 1243.31 861.315   2
   4  12  28-115.113 286.721   8
   4  12  28-563.394 648.168   5
  -4 -12 -28 337.022 366.108   3
   5 -12   0 134.141 350.915   1
  -5  12   0 11.6134 232.841   7
   5 -12   0 437.878 202.553   4
  -5  12   0 207.109 485.668   6
   5 -12  -1 491.383 336.030   1
   5 -12   1 504.354 355.384   1
  -5  12   1 11.3883 227.236   7
   5 -12  -1 406.476 206.530   4
  -5  12  -1 59.3606 251.675   7
   5 -12   1 545.611 228.853   4
  -5  12   1 298.691 486.861   6
  -5  12  -1 150.577 475.446   6
   5 -12  -2-206.331 314.651   1
  -5  12   2 69.9788 199.171   8
  -5  12   2 369.046 357.233   5
   5 -12   2 18.1225 364.597   1
  -5  12   2 11.0690 219.168   7
   5 -12  -2-142.196 188.420   4
  -5  12  -2-71.2381 227.035   7
   5 -12   2 167.433 202.610   4
   5 -12  -2 16.4149 285.769   3
  -5  12   2-18.7337 468.972   6
  -5  12  -2 18.8505 479.200   6
   5 -12  -3 15.4434 322.134   1
  -5  12   3 10.5754 212.010   8
  -5  12   3 214.203 363.219   5
  -5  12   3 53.1929 191.690   7
   5 -12  -3-188.849 181.507   4
  -5  12  -3 47.3198 225.625   7
   5 -12   3-22.8120 205.824   4
   5 -12   3 132.207 374.435   1
   5 -12  -3-362.828 298.481   3
  -5  12   3 74.3630 486.001   6
  -5  12  -3 19.0154 463.999   6
  -5  12   4 304.200 223.149   8
  -5  12   4 557.170 370.714   5
  -5  12  -4-154.828 233.812   7
   5 -12   4-11.6649 207.042   4
   5 -12  -4 149.503 303.355   3
   5 -12   4 19.4551 395.676   1
  -5  12  -4-668.895 502.836   6
  -5  12   5 128.981 223.168   8
  -5  12   5 880.717 379.395   5
   5 -12   5 23.8369 213.905   4
   5 -12  -5 33.5390 292.290   3
  -5  12  -5 117.560 501.292   6
  -5  12   6 85.8561 228.348   8
  -5  12   6 175.949 369.977   5
   5 -12   6 256.111 227.378   4
   5 -12  -6-271.264 317.749   3
  -5  12   7 62.6050 238.751   8
  -5  12   7 376.939 380.829   5
   5 -12  -7 68.6725 298.629   3
  -5  12   8 420.594 392.671   5
  -5  12  -8 95.6411 251.173   7
   5 -12  -8 69.9613 289.880   3
  -5  12  -9-127.685 555.560   6
   5 -12   9 23.4308 491.504   1
  -5  12  -9 24.0250 261.391   7
   5 -12   9-170.208 258.678   4
  -5  12 -10 301.723 660.515   6
   5  12  10 679.097 498.075   5
   5 -12  10 940.551 641.363   1
  -5  12  10-420.041 284.239   8
  -5  12 -10 60.6025 385.476   7
   5 -12  10-722.425 344.075   4
  -5  12 -11-599.117 719.050   6
   5  12  11-1123.54 532.362   5
  -5  12  11-481.335 278.795   8
  -5  12 -11-24.5721 450.673   7
   5 -12  11-520.867 628.740   1
   5 -12 -11-1221.37 418.093   3
  -5 -12 -11-1722.34 689.566   2
  -5  12 -12-180.016 583.171   6
   5  12  12 215.526 480.789   5
   5  12  12-102.560 195.333   8
  -5  12  12 178.792 238.926   8
  -5  12 -12-161.735 271.751   7
   5 -12  12 337.196 289.078   4
   5 -12  12 205.827 529.362   1
   5 -12 -12-166.233 318.428   3
  -5  12 -13 370.940 543.005   6
   5  12  13 266.472 495.909   5
  -5  12  13 12.6618 229.961   8
  -5  12 -13-25.2414 258.585   7
   5 -12  13 303.205 276.566   4
   5 -12 -13-93.4725 303.269   3
   5 -12  13 26.4582 506.664   1
  -5 -12 -14 27.1492 625.534   2
  -5  12 -14 47.0709 545.259   6
   5  12  14 711.130 511.729   5
  -5  12  14-12.5514 224.762   8
  -5  12 -14 38.4662 242.545   7
   5 -12  14-147.600 259.022   4
   5 -12 -14-132.291 313.798   3
   5 -12  14 27.2208 533.570   1
  -5 -12 -15 249.015 653.838   2
   5 -12  15 224.295 548.302   1
  -5  12 -15 189.908 581.737   6
  -5 -12 -15 277.511 297.434   3
   5  12  15 23.4812 528.561   5
   5  12  15 226.525 222.629   8
  -5  12  15 74.7242 223.691   8
  -5  12 -15 39.1332 276.897   7
   5 -12  15-30.3566 272.077   4
  -5 -12 -16-28.0369 663.390   2
  -5  12 -16 24.0989 562.810   6
  -5 -12 -16-342.122 323.913   3
   5  12  16-936.471 567.282   5
   5  12  16 11.6310 222.639   8
  -5  12  16-61.8942 228.442   8
   5 -12  16-644.343 298.122   4
  -5 -12 -17-766.200 696.473   2
  -5  12 -17 340.720 588.043   6
  -5 -12 -17 70.6721 332.980   3
   5  12  17 98.0231 557.385   5
   5  12  17-119.001 227.757   8
   5 -12  17-226.238 281.040   4
  -5  12 -18-395.096 635.495   6
  -5 -12 -18 144.412 714.134   2
   5  12  18 109.520 247.995   8
  -5 -12 -18-360.049 366.886   3
   5 -12  18 31.2948 678.832   1
   5  12  18-1198.65 622.413   5
  -5  12 -18-27.6942 280.057   7
   5 -12  18-350.555 302.084   4
  -5  12 -19-350.662 601.077   6
  -5 -12 -19 321.476 733.338   2
  -5 -12 -19 238.573 353.766   3
   5 -12  19 65.2114 650.429   1
   5  12  19-428.928 591.447   5
   5  12  19-12.4224 235.048   8
  -5  12 -19-197.760 275.173   7
   5 -12  19-85.7062 290.166   4
  -5  12 -20 658.073 608.918   6
  -5 -12 -20-88.7426 708.641   2
  -5 -12 -20-166.952 356.142   3
   5  12  20-840.060 619.115   5
   5  12  20 253.359 241.274   8
   5 -12  20 34.1369 694.210   1
  -5  12 -20 187.365 285.027   7
   5 -12  20-265.473 295.434   4
  -5  12 -21-256.482 614.436   6
  -5 -12 -21-449.450 733.530   2
  -5 -12 -21 131.294 357.710   3
   5  12  21-536.098 617.786   5
   5 -12  21-35.9660 728.811   1
   5  12  21-193.537 251.963   8
  -5  12 -21 249.993 291.188   7
   5 -12  21 18.1312 306.364   4
  -5  12 -22-78.0902 604.170   6
  -5 -12 -22-607.253 752.953   2
  -5 -12 -22 282.220 353.987   3
   5  12  22-25.5481 616.721   5
   5 -12  22 229.015 803.274   1
   5  12  22 13.1251 246.966   8
  -5  12 -22 44.9849 285.622   7
   5 -12  22 74.3700 337.515   4
  -5  12 -23 184.361 634.398   6
  -5 -12 -23 495.077 769.952   2
  -5 -12 -23-376.976 362.779   3
   5  12  23-255.685 626.187   5
   5 -12  23 572.614 852.340   1
   5  12  23 160.236 257.645   8
  -5  12 -23 320.993 310.244   7
   5 -12  23 588.245 351.461   4
  -5  12 -24-453.772 729.543   6
  -5 -12 -24-94.3243 391.778   3
   5  12  24-128.346 642.129   5
   5 -12  24 1462.16 1024.66   1
   5  12  24-149.400 292.465   8
  -5  12 -24 108.992 332.774   7
   5 -12  24 58.5045 376.940   4
  -5  12 -25 134.860 644.498   6
  -5 -12 -25-127.636 782.437   2
  -5 -12 -25-18.8704 366.600   3
   5  12  25 178.329 609.261   5
   5 -12  25-730.073 967.303   1
   5  12  25 386.595 279.472   8
  -5  12 -25-47.5433 305.884   7
   5 -12  25-277.020 357.044   4
  -5  12 -26 218.500 657.128   6
  -5 -12 -26-486.718 801.483   2
   5 -12  26 217.559 1117.80   1
  -5 -12 -26-132.200 357.828   3
   5  12  26 76.1971 601.738   5
  -5  12 -26 789.311 339.096   7
   5  12  26-266.616 271.304   8
   5 -12  26 201.451 348.533   4
  -5  12 -27 137.744 656.077   6
  -5 -12 -27 198.113 817.556   2
   5 -12  27-62.1934 1281.13   1
   5  12  27-285.405 293.422   8
   5  12  27 127.287 629.356   5
  -5 -12 -27-113.403 365.856   3
   5 -12  27 40.6139 345.579   4
   5  12  28 152.192 604.366   5
  -5 -12 -28 227.697 364.864   3
   6 -12   0-34.1876 331.658   1
  -6  12   0 61.0623 230.413   7
  -6  12   0 112.755 579.753   6
   6 -12   1 122.584 340.261   1
   6 -12   1 131.140 202.273   4
  -6  12  -1 24.9452 244.581   7
  -6  12   1 162.297 597.408   6
  -6  12  -1 43.6365 542.385   6
   6 -12  -1-83.6561 328.031   1
   6 -12   2 36.0630 353.991   1
   6 -12   2 144.753 201.381   4
  -6  12  -2 88.1230 241.188   7
  -6  12   2-292.202 634.325   6
  -6  12  -2-21.5239 533.816   6
  -6  12   3 13.6640 263.883   8
   6 -12   3-135.352 206.766   4
  -6  12   3-254.967 673.232   6
  -6  12  -3-126.577 549.989   6
  -6  12   4 14.2074 273.841   8
   6 -12   4-11.4974 203.678   4
  -6  12   6 116.431 278.696   8
   6 -12   6 40.7261 416.560   1
  -6  12  -6-12.6815 230.560   7
  -6  12  -7 25.1103 236.881   7
   6 -12   7 12.2039 216.570   4
   6 -12   7-466.194 489.608   1
  -6  12  -7-124.315 559.184   6
  -6  12  -8 25.2245 261.467   7
   6 -12   8 99.8561 242.069   4
   6 -12   8 1415.98 551.068   1
  -6  12  -8 1309.30 639.042   6
  -6  12   9-771.911 318.628   8
  -6  12  -9-113.030 259.727   7
   6 -12   9-153.166 251.238   4
   6 -12   9-90.8325 520.636   1
  -6  12  -9-551.087 622.379   6
   6 -12  10 23.3406 472.441   1
  -6  12  10-293.281 256.340   8
  -6  12 -10 50.5612 259.539   7
   6 -12  10-13.0877 244.236   4
  -6  12 -10 173.576 522.015   6
   6 -12  11-23.9845 479.615   1
  -6  12 -11 88.6750 251.464   7
   6 -12  11-53.6308 245.898   4
  -6  12 -11 240.661 531.216   6
   6 -12  12 74.7626 474.064   1
  -6  12 -12-38.3695 258.090   7
   6 -12  12 275.519 254.261   4
  -6  12 -12-158.701 566.738   6
  -6  12 -13 160.554 552.757   6
   6 -12  13-256.084 529.349   1
  -6  12 -13 38.8176 243.824   7
   6 -12  13 141.111 253.910   4
  -6  12 -14 188.748 567.896   6
   6  12  14 1450.74 511.067   5
   6 -12  14 52.6284 503.370   1
  -6  12 -14-39.3280 250.740   7
   6 -12  14 450.173 272.523   4
  -6 -12 -14 504.609 577.243   2
  -6  12 -15-239.160 571.616   6
   6  12  15-924.314 514.649   5
   6 -12  15 568.205 537.898   1
  -6  12 -15 26.5442 271.492   7
   6 -12  15-238.342 273.499   4
  -6 -12 -15 25.9465 596.314   2
  -6  12 -16-271.005 599.794   6
   6  12  16-159.007 512.308   5
   6 -12  16-107.447 265.328   4
  -6 -12 -16 26.5802 618.153   2
  -6  12 -17 425.050 647.218   6
  -6 -12 -17-367.350 386.609   3
   6  12  17-507.863 239.253   8
   6  12  17 162.278 560.430   5
   6 -12  17 290.030 622.875   1
   6 -12  17-471.992 302.854   4
  -6 -12 -17-1118.52 675.440   2
  -6  12 -18 252.163 608.193   6
  -6 -12 -18 161.597 395.458   3
   6  12  18 306.754 555.574   5
   6  12  18 92.9567 228.371   8
   6 -12  18-29.9646 582.864   1
  -6  12 -18 41.9297 290.234   7
   6 -12  18 16.2174 290.876   4
  -6 -12 -18-1251.48 683.055   2
  -6  12 -19 460.724 641.784   6
  -6 -12 -19 269.418 399.506   3
   6  12  19-311.187 577.373   5
   6  12  19 35.8104 232.872   8
   6 -12  19-93.1083 591.116   1
  -6  12 -19 71.2154 268.763   7
   6 -12  19-370.066 313.440   4
  -6 -12 -19-1330.93 686.446   2
  -6  12 -20 516.717 643.241   6
  -6 -12 -20-731.866 406.767   3
   6  12  20 411.731 561.128   5
   6  12  20-110.218 240.712   8
   6 -12  20 32.2684 614.571   1
  -6  12 -20-29.0471 289.041   7
   6 -12  20 34.6376 293.663   4
  -6 -12 -20 1036.91 694.709   2
  -6 -12 -21 117.562 702.364   2
  -6  12 -21 104.819 633.710   6
  -6 -12 -21 126.371 402.354   3
   6  12  21 1165.25 580.670   5
   6  12  21 37.6053 238.022   8
   6 -12  21-235.812 654.511   1
  -6  12 -21 14.8154 285.775   7
   6 -12  21 143.265 304.329   4
  -6 -12 -22 597.422 734.372   2
  -6  12 -22-238.188 620.506   6
  -6 -12 -22 209.960 408.107   3
   6  12  22 145.770 568.635   5
   6  12  22 281.831 253.710   8
   6 -12  22-141.422 739.233   1
  -6  12 -22-45.3319 299.138   7
   6 -12  22 165.544 324.619   4
  -6 -12 -23 3460.08 882.108   2
  -6  12 -23 1742.70 780.337   6
  -6 -12 -23 795.288 447.596   3
   6  12  23 2465.44 669.240   5
   6  12  23 850.036 307.701   8
   6 -12  23 2090.29 912.231   1
  -6  12 -23 277.454 371.687   7
   6 -12  23 512.367 378.036   4
  -6 -12 -24-308.412 757.193   2
  -6  12 -24-435.115 649.639   6
   6  12  24-53.3750 261.524   8
  -6 -12 -24 331.083 419.412   3
   6  12  24 384.019 571.481   5
   6 -12  24 238.261 790.493   1
  -6  12 -24 754.240 329.618   7
   6 -12  24 252.281 346.117   4
  -6 -12 -25 533.017 783.078   2
  -6  12 -25-384.836 655.150   6
  -6 -12 -25 224.697 390.111   3
   6  12  25-262.206 593.943   5
   6  12  25-176.846 274.386   8
   6 -12  25-85.2495 851.320   1
  -6  12 -25 272.159 334.335   7
   6 -12  25 198.507 353.333   4
  -6 -12 -26 1083.58 820.286   2
  -6  12 -26 27.8361 676.871   6
  -6 -12 -26 362.796 401.813   3
   6  12  26-380.407 601.230   5
   6 -12  26 508.711 987.413   1
  -6  12 -26 407.296 342.600   7
   6  12  26-69.3348 266.648   8
   6 -12  26 726.584 379.437   4
  -6 -12 -27-648.111 832.534   2
  -6 -12 -27-119.398 380.164   3
   6  12  27-164.142 575.551   5
   6 -12  27 20.6340 362.841   4
  -7  12   0-333.662 928.455   6
  -7  12   1-194.290 1085.86   6
  -7  12  -1-890.404 768.461   6
  -7  12   2-1599.74 1335.82   6
   7 -12   3-93.1891 422.739   1
  -7  12   3-2452.68 1928.77   6
   7 -12   4 496.284 452.613   1
  -7  12   4 307.505 415.889   8
  -7  12  -4 53.8002 271.325   7
   7 -12   5 1061.10 482.849   1
   7 -12   5 813.918 259.049   4
  -7  12  -5-120.905 287.741   7
  -7  12  -5 1358.23 706.255   6
   7 -12   6-180.502 422.121   1
   7 -12   6-11.7554 233.723   4
  -7  12  -6 13.4925 290.224   7
  -7  12  -6-665.391 650.477   6
   7 -12   7 20.7292 394.311   1
  -7  12  -7 13.4171 271.961   7
   7 -12   7-143.693 215.185   4
  -7  12  -7-134.359 573.586   6
   7 -12   8-275.776 429.873   1
  -7  12  -8-13.4640 249.785   7
   7 -12   8 12.1955 216.400   4
  -7  12  -8 88.9788 547.232   6
   7 -12   9-176.250 424.801   1
  -7  12  -9 13.3072 248.876   7
   7 -12   9-174.571 225.959   4
  -7  12  -9-287.530 546.853   6
   7 -12  10 90.3137 433.471   1
  -7  12 -10-13.3708 258.736   7
   7 -12  10-76.5661 225.716   4
  -7  12 -10 615.744 544.900   6
  -7  12 -11 79.5711 251.999   7
   7 -12  11 208.246 455.912   1
   7 -12  11 65.4679 227.699   4
  -7  12 -11-89.4684 557.789   6
  -7  12 -12 13.3572 245.349   7
   7 -12  12 147.833 232.111   4
   7 -12  12-120.098 483.840   1
  -7  12 -12-179.381 541.726   6
  -7  12 -13 13.4755 260.673   7
   7 -12  13 69.1439 245.250   4
   7 -12  13 591.023 510.885   1
  -7  12 -13 298.294 569.126   6
  -7  12 -14 136.137 263.779   7
   7 -12  14-113.845 255.611   4
   7 -12  14-75.7610 504.371   1
  -7  12 -14-115.699 543.367   6
  -7  12 -15-95.9347 581.852   6
   7 -12  15-14.6851 261.376   4
  -7  12 -16 242.748 626.764   6
   7 -12  16 226.550 281.483   4
  -7  12 -17 199.914 618.555   6
  -7  12 -17-84.2332 265.285   7
   7 -12  17-358.987 279.418   4
   7 -12  17-415.607 552.402   1
  -7  12 -18 50.7010 619.656   6
   7 -12  18 28.5065 555.284   1
  -7  12 -18-14.2621 286.737   7
   7 -12  18-241.098 288.857   4
  -7  12 -19-78.3988 633.104   6
   7 -12  19-29.3751 617.000   1
  -7 -12 -19-693.583 474.370   3
   7  12  19-220.950 510.699   5
  -7  12 -19 14.5092 269.181   7
   7 -12  19-116.299 306.806   4
  -7  12 -20-185.684 650.520   6
   7 -12  20-212.471 607.039   1
  -7 -12 -20-49.2315 457.405   3
   7  12  20 223.018 505.360   5
  -7  12 -20-29.5391 288.576   7
   7 -12  20-102.441 306.839   4
  -7 -12 -20-905.995 637.887   2
  -7  12 -21 347.846 690.088   6
   7 -12  21 94.3421 647.963   1
  -7 -12 -21 148.669 482.223   3
   7  12  21-134.925 532.941   5
  -7  12 -21-14.9541 304.511   7
   7 -12  21 335.129 319.119   4
  -7 -12 -21 709.275 657.586   2
  -7  12 -22 1221.74 814.506   6
   7 -12  22 752.031 797.780   1
  -7 -12 -22 905.091 542.236   3
   7  12  22 1957.48 605.394   5
  -7  12 -22-30.4806 359.854   7
   7 -12  22 750.859 390.007   4
  -7  12 -23-54.7709 668.775   6
   7 -12  23 102.430 661.554   1
  -7 -12 -23-120.376 467.086   3
   7  12  23-290.800 531.754   5
  -7  12 -23 15.5285 308.999   7
   7 -12  23 189.605 345.690   4
  -7 -12 -23-455.819 697.993   2
  -7  12 -24-83.2304 681.413   6
   7 -12  24-71.6545 738.012   1
  -7 -12 -24-211.095 441.889   3
   7  12  24 797.443 544.510   5
  -7  12 -24 142.447 323.049   7
   7 -12  24 38.9574 341.328   4
  -7 -12 -24-552.367 709.396   2
  -7  12 -25-27.9829 702.149   6
   7 -12  25 151.243 751.449   1
   7  12  25-241.389 520.752   5
  -7  12 -25-547.947 343.252   7
   7 -12  25 441.935 348.016   4
  -7 -12 -25 1571.26 738.675   2
  -7 -12 -26 221.506 424.699   3
   7  12  26 303.118 542.437   5
   7 -12  26-328.273 369.091   4
  -7 -12 -26-30.2090 724.305   2
  -7 -12 -27-450.422 429.603   3
   7  12  27 1225.88 553.440   5
  -8  12  -2 693.470 1145.75   6
  -8  12  -3 375.931 934.453   6
  -8  12  -4 393.393 812.328   6
   8 -12   4-156.257 365.977   1
   8 -12   5 19.9186 373.685   1
  -8  12  -5 14.1190 273.570   7
  -8  12  -5-352.025 725.148   6
   8 -12   6 20.1872 376.688   1
  -8  12  -6 70.7635 255.854   7
  -8  12  -6 273.115 635.659   6
   8 -12   7-20.6742 392.156   1
   8 -12   7 35.7039 206.207   4
  -8  12  -7 56.7290 269.753   7
  -8  12  -7-51.2429 628.771   6
   8 -12   8 252.442 411.902   1
  -8  12  -8-14.1057 262.900   7
   8 -12   8 145.239 221.125   4
  -8  12  -8-296.701 615.617   6
   8 -12   9-866.719 434.438   1
  -8  12  -9-127.198 261.967   7
   8 -12   9 147.290 221.320   4
  -8  12  -9-23.8640 578.052   6
   8 -12  10 221.076 439.396   1
  -8  12 -10-127.538 258.416   7
   8 -12  10-12.5559 215.451   4
  -8  12 -10-446.751 570.455   6
   8 -12  11 361.151 438.639   1
  -8  12 -11 42.2632 271.780   7
   8 -12  11 128.520 230.784   4
  -8  12 -11-23.1173 558.145   6
   8 -12  12 23.3097 448.237   1
  -8  12 -12-14.1558 266.167   7
   8 -12  12-224.587 228.020   4
  -8  12 -12-69.0377 551.397   6
   8 -12  13-381.105 472.814   1
  -8  12 -13-42.7248 274.538   7
   8 -12  13 13.6051 229.916   4
  -8  12 -13 68.7562 558.332   6
   8 -12  14 97.3952 495.855   1
  -8  12 -14 42.3957 285.539   7
   8 -12  14 168.291 260.381   4
  -8  12 -14 93.4358 594.355   6
   8 -12  15 87.0296 262.279   4
  -8  12 -15 140.790 580.576   6
   8 -12  16 15.0024 245.557   4
  -8  12 -16-264.765 580.042   6
   8 -12  17 26.4499 516.494   1
  -8  12 -17-116.673 281.877   7
   8 -12  17 15.5552 280.280   4
  -8  12 -17-97.2915 609.379   6
  -8  12 -18-227.386 612.432   6
   8 -12  18 325.234 547.246   1
  -8  12 -18 14.5751 277.224   7
   8 -12  18 16.0774 281.258   4
  -8  12 -19 26.0239 610.010   6
  -8  12 -19 59.1348 289.052   7
   8 -12  19 27.8081 557.427   1
   8 -12  19-116.816 303.813   4
  -8  12 -20-79.2295 666.781   6
  -8  12 -20 30.0354 297.352   7
   8 -12  20-28.9303 609.501   1
   8 -12  20-17.2603 295.107   4
  -8  12 -21-490.160 774.453   6
  -8  12 -21 167.911 327.564   7
   8 -12  21 774.644 694.181   1
   8 -12  21 125.367 347.794   4
  -8  12 -22 553.102 697.716   6
  -8  12 -22 46.5760 303.617   7
   8 -12  22 92.2430 623.837   1
   8 -12  22-18.4641 331.715   4
  -8  12 -23-334.844 676.956   6
  -8  12 -23 15.7926 313.497   7
   8 -12  23 95.4800 632.533   1
   8 -12  23 133.790 335.431   4
  -8  12 -24-56.5972 709.059   6
  -8  12 -24-128.596 330.586   7
   8 -12  24 66.0944 661.522   1
   8 -12  24-635.857 375.551   4
  -8 -12 -25-503.367 523.910   3
   8  12  25-516.855 478.650   5
   8 -12  25 675.253 396.990   4
 -12   8 -25 696.963 653.493   6
  -8 -12 -26 125.717 503.556   3
   8  12  26-19.5725 487.704   5
  12  -8  26 531.027 889.605   4
 -12   8 -26 1021.38 673.797   6
  -9  12  -5-654.627 1061.59   6
  -9  12  -6 215.728 872.521   6
  -9  12  -7 285.197 733.482   6
   9 -12   7-42.0790 398.540   1
   9 -12   8-85.0902 398.544   1
  -9  12  -8 29.6588 267.593   7
  -9  12  -8-314.901 678.167   6
   9 -12   9 43.5141 441.417   1
  -9  12  -9 44.4748 277.760   7
  -9  12  -9-26.8766 647.146   6
   9 -12  10-132.485 434.025   1
  -9  12 -10 148.208 280.904   7
   9 -12  10-225.747 223.423   4
  -9  12 -10-25.7368 609.230   6
   9 -12  11-22.6218 454.718   1
  -9  12 -11-59.3256 294.264   7
   9 -12  11-230.058 227.428   4
  -9  12 -11 296.556 609.041   6
   9 -12  12 322.067 490.467   1
  -9  12 -12 14.8618 283.901   7
   9 -12  12 354.996 231.418   4
  -9  12 -12 121.354 607.986   6
   9 -12  13 93.6756 464.388   1
  -9  12 -13 14.8007 273.198   7
   9 -12  13 121.883 235.991   4
  -9  12 -13 452.571 577.956   6
   9 -12  14-578.439 480.487   1
  -9  12 -14-178.418 290.089   7
   9 -12  14-98.0914 241.399   4
  -9  12 -14 23.6890 579.232   6
   9 -12  15 14.5285 249.229   4
  -9  12 -15-70.7808 577.116   6
   9 -12  16-225.323 495.171   1
  -9  12 -16-165.801 297.828   7
   9 -12  16 30.2160 278.008   4
  -9  12 -16-72.1626 596.565   6
   9 -12  17 25.5319 486.254   1
  -9  12 -17 15.0660 287.704   7
   9 -12  17 15.7166 266.004   4
  -9  12 -17-145.175 602.391   6
   9 -12  18-26.3451 521.635   1
  -9  12 -18-15.2218 282.781   7
   9 -12  18 98.2160 300.633   4
  -9  12 -18-223.576 623.817   6
   9 -12  19-188.397 625.797   1
  -9  12 -19 15.4005 325.533   7
   9 -12  19-119.647 308.873   4
  -9  12 -19 553.039 687.029   6
  -9  12 -20-26.1371 647.025   6
   9 -12  20-27.5263 546.876   1
  -9  12 -20-15.5996 322.913   7
   9 -12  20-604.710 346.738   4
  -9  12 -21 107.835 662.778   6
   9 -12  21-56.3932 568.098   1
  -9  12 -21-15.8146 314.556   7
   9 -12  21-315.757 329.799   4
  -9  12 -22-356.008 685.016   6
   9 -12  22-57.8449 591.632   1
  -9  12 -22-32.0914 317.314   7
   9 -12  22 96.5448 345.248   4
  -9  12 -23 56.4879 706.498   6
   9 -12  23-29.7300 470.342   1
  -9  12 -23 16.2921 232.897   7
   9 -12  23 60.3720 358.170   4
  12  -9  24 322.275 986.538   4
 -12   9 -24 671.530 686.344   6
  12  -9  25-998.917 948.019   4
  10 -12  10-45.1984 435.018   1
 -10  12 -10 172.223 703.264   6
 -10  12 -11 188.646 659.240   6
  10 -12  11 22.8408 437.396   1
  10 -12  12-293.370 242.441   4
 -10  12 -12-77.5077 627.868   6
  10 -12  12-277.439 467.022   1
  10 -12  13 23.6450 459.457   1
 -10  12 -13-15.4474 283.903   7
  10 -12  13-205.656 240.841   4
 -10  12 -13-149.073 602.349   6
  10 -12  14 42.6997 246.599   4
 -10  12 -14-73.3739 614.183   6
  10 -12  15-562.639 278.160   4
 -10  12 -15 72.1942 601.856   6
  10 -12  16-24.7078 483.738   1
 -10  12 -16 124.598 299.478   7
  10 -12  16-15.4799 275.586   4
 -10  12 -16 407.973 591.355   6
  10 -12  17-151.892 577.571   1
 -10  12 -17-172.343 331.426   7
  10 -12  17-437.940 317.716   4
 -10  12 -17-479.231 684.452   6
  10 -12  18-1724.27 597.894   1
 -10  12 -18-15.7784 356.735   7
  10 -12  18-629.828 329.100   4
 -10  12 -18-293.981 674.562   6
  10 -12  19-26.1825 540.616   1
 -10  12 -19-15.9141 322.182   7
  10 -12  19-107.521 311.560   4
 -10  12 -19-296.401 623.181   6
  10 -12  20 373.301 516.723   1
 -10  12 -20-32.1431 310.720   7
  10 -12  20 18.8599 330.569   4
 -10  12 -20 483.050 631.527   6
  10 -12  21 258.485 352.603   4
 -10  12 -21-158.713 655.117   6
  10 -12  22 375.903 389.171   4
  11 -12  15-570.768 307.958   4
 -11  12 -15 1585.28 748.907   6
  11 -12  16-1647.58 609.336   1
 -11  12 -16-2271.14 710.011   6
  11 -12  17 188.843 319.429   4
 -11  12 -17-454.373 604.729   6
  11 -12  17 75.8020 495.941   1
  11 -12  18-109.303 326.229   4
 -11  12 -18 743.063 613.934   6
  11 -12  18-127.930 507.240   1
 -11  12 -19 48.8794 319.418   7
  11 -12  19-38.8211 344.976   4
 -11  12 -19 384.767 596.844   6
  11 -12  20-289.965 381.453   4
   0 -13   0-170.188 196.562   4
   0 -13   0 159.567 594.627   2
   0  13   0 51.7387 391.465   6
   0 -13   0-139.804 220.498   3
   0  13   0 803.963 412.015   5
   0  13   0-34.4574 165.162   8
   0  13   0 130.343 198.523   7
   0 -13   1 236.678 561.857   2
   0 -13   1 197.264 215.463   4
   0 -13  -1-23.4661 619.732   2
   0  13  -1-212.061 396.422   6
   0 -13   1 315.434 205.055   3
   0 -13  -1 242.916 230.782   3
   0  13  -1 438.215 393.697   5
   0  13   1 647.406 426.381   5
   0  13  -1 155.864 155.034   8
   0  13   1-53.5149 165.180   8
   0  13  -1 93.7690 207.079   7
   0 -13   2-59.2561 201.624   4
   0  13  -2-126.694 405.735   6
   0 -13   2-40.8546 205.004   3
   0 -13  -2 71.0063 609.380   2
   0 -13  -2 67.9575 213.681   3
   0  13   2-403.447 403.058   5
   0  13   2 291.688 180.278   8
   0  13  -2-65.3596 213.814   7
   0 -13   2 39.0551 498.294   2
   0 -13   3-48.3496 217.259   4
   0  13  -3 185.206 412.415   6
   0 -13  -3 558.636 245.594   3
   0  13   3-222.334 406.985   5
   0  13   3 130.162 171.430   8
   0  13  -3-68.5789 209.763   7
   0 -13   4-99.0696 219.792   4
   0  13  -4-265.201 435.284   6
   0 -13  -4 11.9141 227.277   3
   0 -13  -4 235.771 607.039   2
   0  13   4-191.830 403.322   5
   0  13   4-85.4502 178.208   8
   0  13  -4 24.1103 227.794   7
   0 -13   5 567.419 238.005   4
   0  13  -5 19.3585 427.018   6
   0 -13  -5 747.407 259.614   3
   0 -13  -5 967.486 632.913   2
   0  13   5 248.715 431.976   5
   0  13   5 571.751 205.222   8
   0  13  -5-12.7244 259.732   7
   0 -13   6-12.8278 211.893   4
   0  13  -6 257.007 431.838   6
   0 -13  -6 175.382 254.480   3
   0  13   6 72.7226 428.821   5
   0  13   6-9.84248 181.324   8
   0  13  -6-13.3754 249.209   7
   0 -13   7 704.246 265.665   4
   0 -13  -7 1012.08 286.239   3
   0  13   9 482.183 205.224   8
   0  13  -9 15.1955 306.141   7
   0 -13  10 354.300 258.135   4
   0  13 -10-233.803 534.160   6
   0 -13 -10 109.364 292.428   3
   0  13  10 101.119 519.916   5
   0 -13 -10-1186.46 755.280   2
   0  13  10-192.225 219.991   8
   0  13 -10-124.857 349.533   7
   0 -13  11-556.722 288.990   4
   0  13 -11-173.005 566.832   6
   0 -13 -11-544.651 297.740   3
   0  13  11-185.075 221.571   8
   0  13 -11-47.6356 347.503   7
   0 -13  12 28.1591 221.921   4
   0  13 -12 197.864 461.154   6
   0 -13 -12 199.889 264.532   3
   0  13  12 276.583 482.950   5
   0  13  12-134.477 202.862   8
   0 -13 -12 562.195 630.687   2
   0  13 -12 63.8245 314.388   7
   0 -13  13 42.6719 237.213   4
   0 -13 -13-14.6004 265.566   3
   0  13  13-176.146 486.627   5
   0  13  13-537.407 219.601   8
   0 -13 -13 288.889 665.314   2
   0  13 -13 15.9342 295.667   7
   0 -13  14-157.891 246.845   4
   0  13  14-521.233 514.013   5
   0 -13 -14-59.6882 281.290   3
   0  13  14-93.3372 212.014   8
   0 -13 -14 80.4456 670.307   2
   0  13 -14 15.7822 301.145   7
   0 -13  15-14.5092 241.503   4
   0 -13 -15 15.2763 287.522   3
   0  13  15 214.325 220.434   8
   0  13  15 348.322 523.154   5
   0 -13 -15-82.2592 678.934   2
   0  13 -15 62.0906 297.350   7
   0  13  16-549.480 545.890   5
   0 -13 -16 172.116 293.175   3
   0  13  16 210.695 226.013   8
   0 -13 -16 365.179 717.883   2
   0  13 -16-197.445 284.182   7
   0  13  17-952.978 566.257   5
   0  13  17-101.213 238.697   8
   0 -13 -17-346.634 737.207   2
   0 -13 -17 80.2023 297.007   3
   0  13  18-226.065 591.790   5
   0 -13 -18-509.717 329.509   3
   0  13  18 64.5801 258.872   8
   0 -13 -18-981.107 794.003   2
   0  13  19 206.360 589.735   5
   0  13  20-105.309 583.246   5
   0 -13 -20 17.3193 308.246   3
   0  13  21 215.855 601.326   5
   0  13  21 260.995 268.954   8
   0 -13 -21 17.7996 324.554   3
   0  13  22 210.336 267.145   8
   0 -13 -22 36.2624 313.678   3
   0 -13 -22 34.4471 871.728   2
   0  13  22-603.877 621.315   5
   0  13  23-448.792 630.051   5
   0  13  23 300.564 292.189   8
   0 -13 -23-93.2584 346.090   3
   0 -13 -23 72.2271 925.684   2
   0  13  24 160.614 296.378   8
   0  13  24-540.871 708.378   5
   0 -13 -24-95.4129 368.698   3
   0  13  25-148.910 282.468   8
   0  13  25 115.847 647.512   5
   0 -13 -25-157.010 360.238   3
   0 -13 -25-766.095 1027.43   2
   0  13  26 30.3476 285.852   8
   0  13  26-876.785 663.393   5
   0 -13 -26 128.927 1071.63   2
   0 -13 -26 221.968 374.868   3
   0  13  27-680.125 691.283   5
   0 -13 -27-811.692 393.754   3
  -1  13   0 34.8271 408.909   6
   1  13   0-24.3246 152.551   8
   1 -13   0 287.603 601.062   2
   1  13   0 422.408 456.428   5
   1 -13   0 76.5716 227.402   3
  -1  13   0-271.284 378.764   5
  -1  13   0-111.996 171.017   8
  -1  13   0 20.1917 197.402   7
   1 -13   0 19.9374 414.456   1
   1 -13   0-23.9855 212.134   4
  -1 -13   0-319.936 531.024   2
  -1 -13  -1 1128.61 587.318   2
   1  13   1 77.6705 162.223   8
  -1  13  -1 89.3244 430.186   6
   1 -13   1-726.918 588.499   2
   1  13  -1 59.0298 461.257   5
   1 -13  -1-308.237 578.050   2
   1  13   1 56.4799 447.572   5
   1 -13   1 53.1623 216.036   3
   1 -13  -1 11.2476 217.718   3
  -1  13   1 154.260 368.955   5
  -1  13   1-96.7835 158.133   8
  -1  13  -1-10.2121 194.306   7
   1  13  -1 356.832 251.171   7
  -1 -13   1 399.170 476.984   2
   1 -13   1 122.105 217.055   4
  -1 -13  -2-24.0587 601.829   2
  -1  13  -2 91.5209 420.219   6
  -1 -13  -2-11.0137 203.516   3
   1  13  -2-287.745 512.136   5
   1  13   2 93.5741 449.889   5
   1 -13  -2-57.7557 227.922   3
   1 -13  -2-306.997 579.792   2
  -1  13   2-585.774 389.817   5
   1  13   2-171.507 171.770   8
  -1  13   2 8.96035 170.278   8
  -1  13  -2-10.3978 198.636   7
   1  13  -2 54.1458 328.441   7
   1 -13   2 74.6455 223.530   4
  -1 -13  -3 445.893 637.823   2
  -1  13  -3 393.583 440.949   6
  -1 -13  -3 159.467 214.134   3
   1  13   3-18.6821 434.071   5
   1 -13  -3 462.296 244.299   3
  -1  13   3 326.820 401.745   5
   1 -13  -3-21.9005 561.405   2
   1  13   3-65.4954 175.223   8
  -1  13   3-146.397 176.537   8
  -1  13  -3 42.5139 215.517   7
   1  13  -3 30.0163 297.637   7
   1 -13   3 228.227 225.104   4
   1  13   4 192.372 186.632   8
  -1  13  -4 230.026 445.219   6
  -1 -13  -4 1057.42 651.077   2
  -1 -13  -4 421.553 224.745   3
   1  13   4 601.562 458.273   5
   1 -13  -4 206.716 251.464   3
  -1  13   4 369.385 405.408   5
   1 -13  -4-307.251 572.633   2
  -1  13   4 148.516 178.821   8
  -1  13  -4 174.685 226.571   7
   1  13  -4-16.6460 319.732   7
   1 -13   4 542.673 246.053   4
  -1  13  -5-391.789 448.016   6
  -1 -13  -5-758.902 619.787   2
  -1 -13  -5-119.667 226.984   3
   1  13   5-133.325 442.863   5
   1 -13  -5-124.642 248.633   3
  -1  13   5 138.046 406.990   5
   1  13   5 176.554 186.806   8
   1 -13  -5 155.351 569.269   2
  -1  13   5-170.474 172.419   8
   1  13  -5 1049.84 471.388   7
  -1  13  -5 11.2444 213.863   7
   1 -13   5 65.8386 228.498   4
  -1  13  -6 160.533 459.110   6
   1 -13  -6 898.140 615.955   2
  -1 -13  -6 576.821 253.141   3
   1  13   6 231.882 449.182   5
   1 -13  -6 408.599 257.650   3
  -1  13   6 635.390 425.125   5
  -1  13   6 539.812 201.929   8
  -1  13  -6 34.8128 242.110   7
   1  13  -6 20.1582 414.943   7
   1 -13   6 308.580 242.320   4
  -1  13  -7-20.4727 466.913   6
   1 -13  -7-156.980 252.832   3
  -1  13   7-72.6315 426.018   5
   1 -13   7 82.5156 233.978   4
  -1 -13  -8 1268.34 639.905   2
   1  13   8 437.428 198.644   8
  -1 -13  -9-172.413 256.810   3
  -1 -13  -9-101.965 629.187   2
   1  13   9-367.228 467.119   5
  -1  13   9-52.7650 189.210   8
   1 -13  -9-1384.35 662.128   2
   1  13   9 127.729 193.148   8
  -1  13  -9-178.459 263.947   7
   1  13  -9-23.7935 432.627   7
  -1  13 -10 539.790 551.261   6
  -1 -13 -10 826.904 313.044   3
   1  13  10 2067.16 578.785   5
  -1 -13 -10 4568.32 802.411   2
   1 -13 -10 1320.78 338.183   3
   1  13  10 573.800 246.811   8
  -1  13  10 658.188 248.844   8
   1 -13 -10 5494.57 801.591   2
  -1  13  10 2213.41 565.158   5
  -1  13 -10 39.2612 283.375   7
   1  13 -10 384.623 526.419   7
   1 -13  10 942.383 317.368   4
   1 -13  11-489.007 290.991   4
  -1  13 -11-681.008 587.721   6
  -1 -13 -11-83.1192 283.635   3
   1  13  11-832.831 525.825   5
  -1  13  11-327.238 507.292   5
   1 -13 -11 100.819 282.879   3
   1  13  11-210.949 217.995   8
  -1  13  11-397.290 224.790   8
  -1  13 -11 173.998 285.065   7
   1 -13  12 105.308 264.511   4
  -1  13 -12 89.3134 485.251   6
  -1 -13 -12 198.059 267.329   3
   1  13  12 657.021 494.798   5
  -1 -13 -12 26.1530 659.824   2
  -1  13  12 168.595 467.387   5
   1 -13 -12 88.5798 279.729   3
   1  13  12-372.817 216.423   8
  -1  13  12-310.742 220.471   8
   1 -13 -12-51.1181 646.326   2
  -1  13 -12-13.6101 249.323   7
   1 -13  13 213.592 256.058   4
  -1  13 -13 272.240 473.228   6
  -1 -13 -13 57.7959 266.949   3
   1  13  13 384.046 513.782   5
  -1 -13 -13-397.266 655.216   2
  -1  13  13-475.029 473.588   5
   1 -13 -13 45.4228 278.524   3
  -1  13  13 47.0876 219.988   8
   1 -13 -13 104.758 672.801   2
  -1  13 -13 179.292 267.277   7
   1  13  13-68.9775 207.497   8
   1  13  14 93.6316 215.262   8
   1 -13  14 61.8078 248.245   4
  -1  13 -14 91.7899 486.111   6
  -1 -13 -14-191.830 274.129   3
   1  13  14-69.5690 512.712   5
  -1 -13 -14-268.632 671.433   2
  -1  13  14 155.704 480.850   5
   1 -13 -14 15.5264 281.826   3
  -1  13  14-36.1093 230.160   8
   1 -13 -14 565.198 685.223   2
  -1  13 -14-13.9112 254.375   7
   1 -13  15-94.2754 255.760   4
  -1  13 -15-139.667 504.790   6
  -1 -13 -15 135.570 279.045   3
   1  13  15 23.6697 534.715   5
  -1 -13 -15-136.521 700.895   2
  -1  13  15 160.366 488.470   5
   1 -13 -15-207.186 294.815   3
  -1  13  15 12.3045 226.965   8
   1  13  15 131.599 223.823   8
   1 -13 -15-580.565 709.143   2
  -1  13 -15-83.8054 260.949   7
   1 -13  16 31.7430 259.776   4
  -1  13 -16 235.997 518.640   6
  -1 -13 -16 107.733 291.531   3
   1  13  16-170.035 547.694   5
  -1  13  16 258.105 519.300   5
  -1 -13 -16 27.9014 666.696   2
   1  13  16-170.592 227.653   8
  -1  13  16-50.2928 239.141   8
   1 -13 -16-65.3954 294.550   3
   1 -13 -16 28.4522 689.682   2
  -1  13 -16 13.9675 258.379   7
   1 -13  17-16.0095 259.290   4
  -1  13 -17-119.014 505.402   6
   1  13  17-250.740 582.555   5
  -1 -13 -17 267.120 294.913   3
  -1  13  17 96.5820 538.699   5
  -1 -13 -17 28.4649 698.030   2
   1  13  17-434.354 250.126   8
  -1  13  17-64.2459 232.355   8
   1 -13 -17-251.944 299.986   3
   1 -13 -17 29.3534 720.987   2
  -1  13 -17 97.4218 264.128   7
   1 -13  18-16.2575 276.662   4
  -1  13 -18-24.1030 535.614   6
  -1 -13 -18 289.331 325.801   3
  -1  13  18-222.061 570.106   5
  -1  13  18 144.394 259.367   8
   1 -13 -18 310.637 330.961   3
   1 -13 -18-1093.19 829.948   2
  -1  13 -18 13.8226 262.644   7
   1  13  18-51.4099 625.716   5
   1  13  19 891.817 625.233   5
  -1 -13 -19 230.348 314.379   3
  -1  13  19-50.6822 558.135   5
  -1  13  19-395.435 281.078   8
   1 -13 -19 17.5703 314.818   3
   1 -13  20 98.3843 261.100   4
   1  13  20 483.458 609.946   5
  -1 -13 -20 134.827 311.876   3
   1  13  20 183.655 265.539   8
  -1  13  20-155.979 566.395   5
   1 -13 -20 451.531 341.701   3
  -1 -13 -21-466.387 331.640   3
   1 -13  21 280.070 278.852   4
   1  13  21 355.096 619.433   5
   1  13  21 310.234 262.387   8
  -1  13  21 159.052 579.618   5
  -1 -13 -21 31.5777 788.657   2
   1 -13 -21 184.687 329.730   3
  -1  13 -21-294.685 278.148   7
   1  13  22-697.503 628.632   5
   1  13  22 137.405 263.135   8
  -1 -13 -22-35.4480 325.355   3
  -1  13  22 276.321 282.151   8
  -1  13  22 1030.15 617.839   5
  -1 -13 -22 32.6341 833.475   2
   1 -13 -22 246.775 350.433   3
   1 -13 -22-363.379 941.165   2
   1  13  23-1217.37 667.383   5
  -1  13  23 29.7109 288.378   8
  -1 -13 -23 33.8379 843.296   2
  -1 -13 -23 36.3490 337.616   3
  -1  13  23-935.176 633.982   5
   1 -13 -23-19.5792 352.653   3
   1  13  23-27.9820 281.012   8
   1  13  24-691.792 746.296   5
   1  13  24 28.4975 287.936   8
  -1  13  24-182.093 311.624   8
  -1 -13 -24 1690.35 1010.05   2
  -1  13  24-363.978 684.688   5
  -1 -13 -24-784.468 386.314   3
   1 -13 -24-361.728 379.283   3
   1 -13 -24 948.241 1161.85   2
   1  13  25 290.048 289.056   8
   1  13  25-669.794 671.800   5
  -1  13  25 232.450 301.111   8
  -1 -13 -25 36.7756 916.455   2
  -1  13  25 537.840 634.164   5
  -1 -13 -25 418.414 360.639   3
   1 -13 -25-247.287 381.558   3
   1 -13 -25 44.4795 1114.47   2
   1  13  26-545.924 294.513   8
   1  13  26 354.503 685.427   5
  -1  13  26-217.737 311.940   8
  -1 -13 -26-655.529 970.969   2
  -1  13  26-1203.40 653.933   5
  -1 -13 -26-684.518 378.942   3
   1 -13 -26-465.283 386.230   3
   1 -13 -26-678.814 1253.82   2
   1  13  27 595.259 680.849   5
  -1 -13 -27 40.5996 827.715   2
  -1  13  27 114.662 633.954   5
  -1 -13 -27 160.058 368.279   3
   1 -13 -27 43.2346 389.747   3
  -2  13   0-18.0337 445.143   6
   2 -13   0 197.804 422.288   1
   2  13   0 185.718 544.224   5
   2 -13   0-428.465 565.292   2
   2 -13   0 195.982 226.990   3
  -2  13   0 215.417 215.544   7
   2 -13   0-108.784 225.021   4
  -2  13  -1 92.1747 454.255   6
   2  13  -1-500.384 617.478   5
   2  13   1 198.851 510.960   5
   2 -13  -1-486.838 565.894   2
   2 -13  -1 141.939 231.003   3
  -2  13   1-325.618 374.625   5
  -2  13   1-196.430 168.730   8
   2 -13   1-185.116 442.327   1
  -2  13  -1 10.8016 224.578   7
   2 -13  -1-95.8040 394.708   1
   2  13  -1-23.6820 438.718   7
   2 -13  -1-59.4168 218.915   4
   2 -13   1 270.781 228.691   4
   2 -13   2-106.766 427.536   1
  -2  13  -2-37.6690 456.948   6
   2  13  -2-222.075 662.180   5
   2  13   2 85.2811 498.437   5
  -2  13   2-79.8023 382.375   5
   2 -13  -2-242.453 245.691   3
   2 -13  -2 1263.93 582.480   2
  -2  13   2 191.190 171.271   8
  -2  13  -2 53.6202 218.131   7
   2  13  -2-220.335 574.739   7
   2 -13   2-50.1806 221.593   4
  -2 -13  -2 721.758 550.826   2
  -2  13  -3-479.004 464.828   6
   2  13  -3 323.803 794.630   5
   2  13   3-145.447 472.083   5
  -2  13   3 295.699 387.122   5
   2  13   3 35.7694 164.473   8
   2 -13  -3 149.303 241.701   3
  -2  13   3 107.023 167.554   8
   2 -13  -3-699.004 578.189   2
   2 -13   3 87.8656 449.865   1
  -2  13  -3-42.9291 207.136   7
   2  13  -3-43.8585 818.225   7
   2 -13   3-102.348 233.254   4
  -2 -13  -3-48.2364 561.806   2
   2 -13   4 67.9909 463.061   1
  -2 -13  -4 781.754 619.363   2
  -2  13  -4 293.233 448.340   6
   2  13   4-535.342 480.486   5
  -2  13   4-287.450 402.646   5
   2  13   4 224.991 175.876   8
   2 -13  -4-191.560 254.433   3
  -2  13   4-54.5726 163.375   8
   2 -13  -4-105.139 580.676   2
  -2  13  -4-10.8427 201.999   7
   2  13  -4 256.410 1209.26   7
   2 -13   4 52.5512 243.374   4
  -2  13  -5-39.8752 500.559   6
   2  13   5 143.182 465.034   5
  -2  13   5 242.634 394.866   5
   2 -13  -5 117.951 263.883   3
  -2  13   5 360.312 197.156   8
   2 -13  -5 171.687 569.240   2
  -2  13  -5-21.9882 221.557   7
   2 -13   5 187.774 247.968   4
   2 -13  -6-13.4504 251.030   3
  -2  13  -6 101.595 479.290   6
  -2  13   6 784.736 425.487   5
  -2  13   6-106.844 187.594   8
   2 -13  -6 614.401 584.638   2
   2 -13   6 136.922 252.291   4
  -2 -13  -7 1043.11 645.641   2
   2 -13  -7-27.6185 260.096   3
  -2  13   7 881.371 450.678   5
  -2 -13  -8-241.980 648.482   2
   2  13   8-10.5458 199.257   8
  -2  13  -8-58.3014 226.846   7
  -2  13  -9-128.934 532.517   6
  -2 -13  -9 12.9745 253.780   3
   2  13   9-771.951 525.422   5
   2  13   9 107.305 210.999   8
  -2  13   9-203.248 216.634   8
  -2  13  -9 23.8339 244.167   7
   2 -13   9 131.428 283.779   4
  -2  13 -10 963.901 629.211   6
  -2 -13 -10 66.7789 276.338   3
  -2 -13 -10 2486.63 814.648   2
  -2  13  10 423.893 239.880   8
   2  13  10-590.534 539.271   5
   2  13  10 404.858 221.535   8
  -2  13  10 1693.81 532.423   5
   2 -13 -10-149.331 311.792   3
  -2  13 -10 85.2387 273.730   7
   2 -13 -10 1507.08 739.421   2
   2 -13  10 14.8979 307.555   4
  -2  13 -11 44.5386 514.990   6
  -2 -13 -11-165.146 262.113   3
  -2 -13 -11-1113.40 697.616   2
   2  13  11-289.878 504.222   5
   2  13  11-11.1944 204.412   8
  -2  13  11-265.276 465.384   5
  -2  13  11 400.114 230.005   8
   2 -13 -11 15.3177 271.369   3
  -2  13 -11-62.1707 244.979   7
   2 -13 -11-199.574 633.698   2
   2 -13  11-138.030 264.848   4
  -2  13 -12-22.6184 514.379   6
  -2 -13 -12 211.707 267.710   3
  -2 -13 -12-517.808 678.507   2
   2  13  12 1296.27 544.333   5
   2  13  12 68.3556 212.841   8
  -2  13  12 63.0111 462.521   5
  -2  13  12-257.564 225.956   8
   2 -13 -12 78.6572 282.139   3
  -2  13 -12-25.3813 244.287   7
   2 -13 -12 665.110 672.549   2
   2 -13  12-359.307 288.154   4
  -2  13 -13-161.280 499.631   6
  -2 -13 -13-87.1516 278.863   3
  -2 -13 -13 27.4534 650.349   2
   2  13  13 837.811 539.167   5
   2  13  13 220.178 210.032   8
  -2  13  13-389.067 470.186   5
  -2  13  13-191.581 235.600   8
   2 -13 -13 129.268 289.356   3
  -2  13 -13-77.4925 235.821   7
   2 -13  13 15.9052 260.797   4
  -2  13 -14-140.266 531.652   6
  -2 -13 -14-326.855 284.486   3
  -2 -13 -14 27.6929 672.952   2
   2  13  14 523.007 547.752   5
   2  13  14 11.8395 217.456   8
  -2  13  14 66.3109 470.279   5
  -2  13  14 336.340 244.812   8
   2 -13 -14-16.4431 293.564   3
  -2  13 -14 26.2337 257.124   7
   2 -13  14-16.2721 277.292   4
  -2  13 -15 118.526 559.604   6
  -2 -13 -15 410.129 296.618   3
  -2 -13 -15-27.9793 667.414   2
   2  13  15 827.433 569.945   5
   2  13  15-96.3092 221.109   8
  -2  13  15 159.107 487.753   5
  -2  13  15-203.556 239.681   8
   2 -13 -15-168.918 300.647   3
  -2  13 -15-13.2923 254.863   7
   2 -13  15-214.874 284.023   4
  -2  13 -16 23.9598 528.703   6
  -2 -13 -16-170.659 289.076   3
  -2 -13 -16 113.255 706.600   2
   2  13  16-250.363 594.142   5
   2  13  16 36.7114 231.536   8
  -2  13  16 348.680 505.156   5
  -2  13  16 168.759 238.811   8
   2 -13 -16 294.914 316.792   3
  -2  13 -16 13.4351 269.361   7
   2 -13  16-33.5363 285.776   4
   2 -13  17 17.0844 292.180   4
  -2  13 -17-121.349 557.170   6
  -2 -13 -17-79.1998 298.892   3
   2  13  17 384.047 600.717   5
  -2  13  17 214.827 506.244   5
  -2  13  17 331.135 260.052   8
   2 -13 -17-88.6226 322.275   3
  -2  13 -17 13.5437 261.485   7
   2 -13  18 190.091 306.232   4
  -2  13 -18 270.273 568.240   6
  -2 -13 -18 630.278 349.915   3
  -2  13  18 293.752 562.507   5
  -2  13  18 135.087 264.993   8
   2 -13 -18 127.370 341.354   3
  -2  13 -18 13.6267 269.654   7
   2 -13  19 209.347 293.617   4
  -2  13 -19-247.648 560.719   6
  -2 -13 -19-385.997 748.645   2
  -2 -13 -19 544.480 332.673   3
   2  13  19 185.976 596.915   5
   2  13  19 349.850 242.865   8
  -2  13  19-74.7988 556.391   5
  -2  13  19 96.4446 259.262   8
   2 -13 -19-354.762 338.738   3
   2 -13  20 17.6768 303.236   4
  -2  13 -20 225.337 560.715   6
  -2 -13 -20 60.5349 754.742   2
   2  13  20-463.432 620.539   5
  -2 -13 -20-218.791 304.125   3
   2  13  20-92.1792 259.106   8
  -2  13  20-42.1626 265.125   8
  -2  13  20-280.487 562.637   5
   2 -13 -20 673.021 355.195   3
   2 -13  21 71.1160 298.342   4
  -2  13 -21 278.308 568.823   6
  -2 -13 -21 30.9513 767.539   2
   2  13  21-138.882 631.090   5
  -2 -13 -21 51.5970 328.007   3
   2  13  21-107.096 257.362   8
  -2  13  21-466.461 578.664   5
   2 -13 -21 59.0936 358.612   3
  -2  13 -21-68.6213 266.278   7
   2 -13  22 269.920 307.290   4
  -2  13 -22-254.465 558.737   6
  -2 -13 -22-31.7203 784.783   2
   2  13  22 1463.20 661.397   5
  -2 -13 -22 369.199 342.101   3
   2  13  22-190.485 261.383   8
  -2  13  22-264.001 580.843   5
   2 -13 -22 202.155 373.533   3
  -2  13 -22 13.7206 259.712   7
   2 -13  23-72.0748 315.455   4
  -2  13 -23-256.909 640.243   6
  -2 -13 -23-161.886 352.806   3
  -2 -13 -23-749.591 861.767   2
   2  13  23-943.475 713.028   5
   2  13  23-235.067 280.146   8
  -2  13  23-29.8767 298.982   8
  -2  13  23 348.688 619.264   5
   2 -13 -23-61.9725 392.563   3
  -2  13 -23-27.4017 282.501   7
   2 -13  24-360.206 335.878   4
  -2 -13 -24-1712.35 957.307   2
   2  13  24-1441.98 706.249   5
   2  13  24-421.399 303.137   8
  -2 -13 -24-496.862 374.393   3
  -2  13  24-564.231 327.649   8
  -2  13  24-1994.81 686.258   5
   2 -13 -24-1159.04 459.064   3
  -2  13 -24 13.6798 298.236   7
   2 -13  25 108.053 295.909   4
  -2 -13 -25 34.6861 870.374   2
   2  13  25-610.417 677.738   5
   2  13  25-228.354 289.292   8
  -2 -13 -25-301.753 348.440   3
  -2  13  25 77.8762 290.658   8
  -2  13  25 136.151 600.884   5
   2 -13 -25 21.5527 391.854   3
  -2  13 -25-54.5960 269.669   7
  -2 -13 -26-431.064 919.505   2
   2  13  26 382.080 695.202   5
   2  13  26-144.907 292.294   8
  -2 -13 -26-251.106 351.471   3
  -2  13  26 382.811 609.569   5
   2 -13 -26-350.200 385.024   3
   2  13  27 88.4849 664.049   5
  -2 -13 -27 435.997 375.005   3
  -3  13   0 429.416 488.079   6
   3 -13   0 19.3036 399.465   1
  -3  13   0 11.2316 220.176   7
   3 -13   0-156.159 217.084   4
  -3  13   1-274.935 477.462   6
  -3  13  -1-193.122 481.593   6
   3 -13  -1 18.4565 377.137   1
   3  13   1 241.137 554.595   5
   3 -13   1 20.1537 418.032   1
   3 -13  -1 80.2586 269.814   3
   3 -13  -1 1283.61 555.868   2
  -3  13   1 55.4481 221.004   7
  -3  13  -1 11.2715 218.175   7
   3 -13  -1 35.3513 222.358   4
   3 -13   1 12.1829 235.497   4
  -3  13  -2 78.6557 482.286   6
   3  13   2-411.058 521.894   5
  -3  13   2-214.498 389.645   5
  -3  13   2-112.692 167.633   8
   3 -13  -2-299.536 275.109   3
   3 -13  -2 389.984 543.377   2
  -3  13  -2 11.3266 221.702   7
   3 -13   2-20.8137 421.390   1
   3 -13   2-136.795 238.030   4
  -3  13  -3 20.0092 478.134   6
   3  13   3 110.223 512.598   5
  -3  13   3 135.506 391.372   5
  -3  13   3-136.215 174.633   8
   3 -13  -3 138.698 256.973   3
   3 -13  -3-1335.89 574.118   2
  -3  13  -3 11.3459 235.899   7
   3 -13   3 12.6985 227.444   4
   3 -13   3 21.6573 434.682   1
  -3  13  -4-20.2326 504.545   6
   3 -13   4-157.610 470.192   1
  -3  13   4 869.434 419.073   5
  -3  13   4 37.4200 183.686   8
   3 -13  -4-141.660 263.594   3
  -3  13  -4-11.4114 218.567   7
   3 -13  -4 389.768 547.686   2
   3 -13   4 90.8304 224.132   4
  -3  13  -5-164.684 518.264   6
  -3  13   5-785.341 429.193   5
  -3  13   5-58.8835 189.517   8
   3 -13  -5-173.849 270.907   3
   3 -13  -5 232.383 569.496   2
   3 -13   5-26.6978 237.132   4
   3  13   6 460.826 183.358   8
  -3  13   6 18.3182 408.505   5
  -3  13   6 354.429 202.119   8
   3 -13  -6-222.425 263.323   3
   3 -13  -6-348.089 577.682   2
  -3 -13  -6 51.7191 580.727   2
  -3 -13  -7 53.4039 631.162   2
   3 -13   7-270.838 489.678   1
   3  13   7-386.332 487.065   5
  -3  13   7-74.7580 424.225   5
   3  13   7-230.173 188.133   8
   3 -13  -7-75.2088 287.450   3
   3  13   8-956.499 563.778   5
   3 -13   8-655.464 592.883   1
   3  13   8-186.542 207.294   8
  -3  13  -8-34.8705 246.327   7
   3 -13   9 51.7845 596.508   1
  -3  13  -9 896.492 633.228   6
  -3 -13  -9 408.597 258.939   3
   3  13   9 1252.83 578.580   5
   3  13   9 704.051 234.375   8
  -3  13   9 720.391 254.485   8
  -3  13  -9 70.7718 282.933   7
   3 -13   9 351.706 310.514   4
   3 -13  10-211.366 546.308   1
  -3  13 -10 44.2773 541.730   6
  -3 -13 -10-1315.07 743.016   2
  -3 -13 -10 90.7797 234.110   3
   3  13  10 22.3588 501.432   5
   3  13  10-76.7028 202.363   8
  -3  13  10-444.335 458.247   5
  -3  13  10-258.877 229.362   8
   3 -13 -10-178.202 325.863   3
  -3  13 -10 11.9876 241.042   7
   3 -13  10-389.479 267.020   4
   3 -13  11 215.514 533.400   1
  -3  13 -11-449.685 536.332   6
  -3 -13 -11-254.783 675.280   2
  -3 -13 -11 67.9358 243.682   3
   3  13  11 68.5094 500.848   5
   3  13  11 11.2178 204.824   8
  -3  13  11-494.935 449.983   5
  -3  13  11-144.475 218.860   8
   3 -13 -11 181.751 310.409   3
  -3  13 -11-12.1936 231.288   7
   3 -13  11 184.870 274.614   4
  -3  13 -12 296.735 545.921   6
  -3 -13 -12-683.517 714.094   2
  -3 -13 -12-266.888 266.518   3
   3  13  12 632.081 532.432   5
   3  13  12 80.2588 213.403   8
  -3  13  12-444.102 454.814   5
  -3  13  12-270.396 231.634   8
   3 -13 -12 84.7061 303.906   3
  -3  13 -12-12.4104 244.280   7
   3 -13  12-15.7373 276.252   4
   3  13  13 11.6525 218.235   8
  -3  13 -13 46.4423 509.385   6
  -3 -13 -13-28.6488 676.373   2
  -3 -13 -13 116.287 275.150   3
   3  13  13 407.064 547.719   5
  -3  13  13 43.3458 449.110   5
  -3  13  13 275.484 237.408   8
   3 -13 -13 329.912 324.551   3
  -3  13 -13-12.6277 240.059   7
   3 -13  13-16.0708 274.035   4
  -3  13 -14-306.202 549.219   6
  -3 -13 -14-862.456 708.981   2
  -3 -13 -14 45.1061 281.019   3
   3  13  14-122.233 542.724   5
   3  13  14-296.790 230.772   8
  -3  13  14-331.189 479.367   5
  -3  13  14 89.1345 229.562   8
   3 -13 -14-88.9779 315.854   3
  -3  13 -14 12.8480 236.792   7
   3 -13  14 32.8883 293.240   4
  -3  13 -15 23.9421 535.661   6
  -3 -13 -15 1042.23 712.770   2
  -3 -13 -15-324.628 296.384   3
   3  13  15 398.822 553.858   5
   3  13  15-12.0827 229.805   8
  -3  13  15-271.252 486.088   5
  -3  13  15 271.639 243.680   8
   3 -13 -15-366.046 323.724   3
  -3  13 -15 65.2986 254.029   7
   3 -13  15 16.7698 294.290   4
  -3  13 -16 266.914 584.334   6
  -3 -13 -16 191.174 300.694   3
   3  13  16-432.873 588.386   5
  -3  13  16-300.499 492.425   5
  -3  13  16-315.021 252.189   8
   3 -13 -16-374.758 339.756   3
  -3  13 -16-13.2617 253.441   7
   3 -13  16 103.475 298.939   4
  -3  13 -17-442.453 607.546   6
  -3 -13 -17-325.937 324.266   3
   3  13  17-881.311 631.851   5
  -3  13  17-406.710 265.002   8
  -3  13  17 235.136 509.869   5
   3 -13 -17-325.781 340.234   3
  -3  13 -17 13.4524 267.639   7
   3 -13  17-70.1835 294.769   4
  -3  13 -18-249.668 579.586   6
  -3 -13 -18-1278.54 794.957   2
  -3 -13 -18-283.129 327.489   3
   3  13  18 237.755 641.518   5
   3  13  18 12.7427 256.622   8
  -3  13  18-13.7510 260.372   8
  -3  13  18-143.928 530.489   5
   3 -13 -18 176.672 350.641   3
   3 -13  18-338.752 308.593   4
  -3  13 -19 227.335 588.331   6
  -3 -13 -19-30.1075 752.300   2
  -3 -13 -19 254.846 326.594   3
   3  13  19 189.113 633.703   5
   3  13  19 711.655 271.215   8
  -3  13  19 251.146 275.542   8
  -3  13  19 24.4322 539.617   5
   3 -13 -19-320.504 364.900   3
   3 -13  19 109.208 305.267   4
  -3  13 -20 153.304 594.662   6
  -3 -13 -20-91.6204 757.357   2
  -3 -13 -20-17.3140 315.715   3
   3  13  20-356.795 641.064   5
   3  13  20 289.007 257.228   8
  -3  13  20-127.454 273.013   8
  -3  13  20-49.2777 543.143   5
   3 -13 -20 367.283 368.758   3
  -3  13 -20 13.9347 263.648   7
   3 -13  20-18.4311 309.320   4
   3 -13  21-337.259 312.701   4
  -3  13 -21-51.5074 588.705   6
  -3 -13 -21 838.073 783.871   2
  -3 -13 -21-616.977 335.277   3
   3  13  21 83.0531 643.950   5
   3  13  21 66.6730 258.292   8
  -3  13  21-230.248 266.015   8
  -3  13  21-1024.56 577.621   5
   3 -13 -21-104.296 369.365   3
  -3  13 -21-14.0633 267.689   7
   3 -13  22 321.285 327.486   4
  -3  13 -22 260.169 590.024   6
  -3 -13 -22 31.6092 780.130   2
  -3 -13 -22-251.288 343.285   3
   3  13  22-140.961 660.864   5
   3  13  22 216.478 260.180   8
  -3  13  22 75.8526 559.619   5
  -3  13 -22-28.3565 297.462   7
   3 -13 -22 21.1680 374.469   3
   3 -13  23 247.273 368.919   4
  -3  13 -23 627.966 704.698   6
  -3 -13 -23 32.2450 891.930   2
  -3 -13 -23 146.039 376.862   3
   3  13  23 193.153 295.548   8
  -3  13  23 50.9145 667.866   5
   3  13  23 1339.42 745.414   5
  -3  13 -23 199.932 312.618   7
   3 -13 -23 301.700 408.415   3
   3 -13  24-710.280 346.893   4
  -3  13 -24-26.4062 620.068   6
  -3 -13 -24 131.866 834.232   2
   3  13  24 572.867 679.128   5
  -3 -13 -24 371.958 368.239   3
   3  13  24 349.807 276.356   8
  -3  13  24-29.8000 289.075   8
  -3  13  24 256.146 568.022   5
  -3  13 -24 28.7423 283.839   7
   3 -13 -24-348.181 400.237   3
   3 -13  25 19.2201 325.315   4
  -3  13 -25 212.121 600.149   6
  -3 -13 -25 405.231 836.754   2
   3  13  25 255.469 288.639   8
  -3 -13 -25-322.254 357.611   3
  -3  13  25-136.766 295.222   8
  -3  13 -25 43.3381 284.619   7
   3 -13 -25-350.432 386.193   3
   3  13  25-173.207 665.751   5
   3 -13  26 270.922 336.361   4
  -3  13 -26-240.561 603.834   6
  -3 -13 -26 69.3376 865.177   2
   3  13  26 982.195 694.988   5
   3  13  26 28.7826 292.329   8
  -3 -13 -26-115.910 366.439   3
   3 -13 -26-285.634 380.044   3
  -3 -13 -27 453.463 372.052   3
  -4  13   0-70.5423 227.429   7
   4 -13   0 321.045 222.989   4
   4 -13   0 18.6953 378.968   1
  -4  13   0 56.2423 466.485   6
   4 -13  -1-89.4854 372.365   1
  -4  13   1 34.9836 228.528   7
  -4  13  -1 35.4089 227.733   7
   4 -13  -1 488.206 234.376   4
   4 -13   1 243.199 226.117   4
   4 -13   1 77.1382 393.405   1
  -4  13   1 73.9199 477.441   6
  -4  13  -1-38.9948 504.437   6
  -4  13  -2 553.555 490.783   6
   4 -13   2 80.7352 406.724   1
   4 -13  -2 478.431 305.987   3
  -4  13  -2 23.7658 229.337   7
   4 -13   2-61.8998 223.010   4
   4 -13  -2 286.292 545.450   2
  -4  13  -3-240.482 494.980   6
   4 -13   3 105.312 430.846   1
  -4  13   3-371.922 411.057   5
  -4  13   3 47.9698 184.677   8
   4 -13  -3-192.389 302.028   3
  -4  13  -3-35.5566 223.586   7
   4 -13   3 177.216 234.489   4
  -4  13  -4 20.6425 526.756   6
  -4  13   4 108.000 400.770   5
  -4  13   4-99.9816 196.777   8
   4 -13  -4 177.969 307.746   3
   4 -13   4-142.338 247.804   4
  -4  13   5-257.514 410.426   5
  -4  13   5 74.2264 205.128   8
   4 -13  -5-394.666 314.583   3
   4  13   6-1547.65 548.273   5
  -4  13   6-206.688 448.785   5
  -4  13   6-99.0267 219.026   8
   4 -13  -6-350.332 336.508   3
   4 -13   6-69.9199 550.491   1
   4  13   7 2635.21 577.563   5
  -4  13  -7 35.9832 275.214   7
   4 -13   7 2418.63 656.571   1
  -4 -13  -7-397.415 732.026   2
  -4  13  -8-509.697 682.831   6
  -4  13  -8 277.817 254.591   7
   4 -13   8-462.491 299.877   4
  -4 -13  -8 673.661 728.718   2
  -4  13  -9-337.148 564.082   6
   4 -13   9-25.5043 516.305   1
   4  13   9-108.573 491.130   5
   4  13   9-152.119 193.431   8
  -4  13   9-239.913 424.573   5
  -4  13   9-231.695 233.421   8
   4 -13  -9 228.296 316.087   3
  -4  13  -9-24.4483 258.887   7
   4 -13   9-114.698 276.185   4
  -4 -13  -9 26.8700 644.329   2
  -4  13 -10 22.6633 541.267   6
   4  13  10 951.238 508.973   5
   4 -13  10 158.169 561.051   1
   4  13  10 295.183 192.769   8
  -4  13  10 1117.44 455.240   5
  -4  13  10 236.089 225.020   8
   4 -13 -10 232.586 315.805   3
  -4  13 -10-37.0937 252.469   7
   4 -13  10-635.096 293.538   4
  -4 -13 -10 990.523 641.087   2
  -4 -13 -11 28.1328 684.768   2
  -4  13 -11-160.928 571.010   6
   4  13  11-22.5835 502.794   5
   4  13  11 109.031 201.693   8
  -4  13  11-787.218 451.106   5
  -4  13  11 289.976 250.568   8
   4 -13  11 53.9844 540.413   1
   4 -13 -11 91.3969 319.766   3
  -4  13 -11 12.5249 251.376   7
   4 -13  11-196.481 272.299   4
  -4 -13 -12 570.512 686.263   2
  -4  13 -12 92.7941 560.459   6
  -4 -13 -12-178.185 259.638   3
   4  13  12 185.549 520.943   5
   4  13  12 67.4241 196.900   8
  -4  13  12 117.074 244.050   8
  -4  13  12-316.753 446.849   5
   4 -13 -12-93.1299 325.311   3
  -4  13 -12 12.5649 235.406   7
   4 -13  12-1215.41 581.321   1
   4 -13  12 77.3256 282.381   4
  -4 -13 -13-377.253 711.021   2
  -4  13 -13 94.1289 559.915   6
  -4 -13 -13 14.5335 272.346   3
   4  13  13 261.369 540.395   5
   4  13  13 403.242 222.151   8
  -4  13  13-236.026 248.454   8
  -4  13  13-236.632 438.025   5
   4 -13 -13 265.622 340.844   3
  -4  13 -13-127.619 245.409   7
   4 -13  13 175.006 279.706   4
   4 -13  13 256.483 587.731   1
  -4  13 -14-548.973 551.619   6
  -4 -13 -14 29.2993 719.143   2
  -4 -13 -14-259.168 291.430   3
   4  13  14-341.297 549.299   5
   4  13  14-224.285 217.518   8
  -4  13  14-263.743 249.125   8
  -4  13  14 108.578 452.632   5
   4 -13 -14 57.9314 340.747   3
  -4  13 -14 64.8394 260.603   7
   4 -13  14-48.8347 274.418   4
   4 -13  14 204.284 574.375   1
  -4  13 -15 410.000 573.327   6
   4 -13  15 29.9282 591.853   1
  -4 -13 -15-63.2892 304.993   3
   4  13  15 150.246 571.099   5
  -4  13  15-384.105 259.982   8
  -4  13  15 507.807 467.210   5
  -4  13 -15-13.1873 253.205   7
   4 -13 -15 98.6762 345.252   3
   4 -13  15 16.7573 284.610   4
  -4  13 -16 342.234 568.017   6
  -4 -13 -16-213.280 301.998   3
   4 -13  16-30.7528 628.459   1
   4  13  16 153.306 568.434   5
  -4  13  16 13.2994 246.325   8
  -4  13  16-381.282 487.029   5
  -4  13 -16-442.487 268.414   7
   4 -13 -16-20.0463 350.329   3
   4 -13  16 17.1277 295.536   4
  -4  13 -17 422.215 614.428   6
  -4 -13 -17 181.271 774.964   2
  -4 -13 -17-169.720 330.568   3
   4  13  17 547.466 617.042   5
   4 -13  17-126.858 714.398   1
   4  13  17 150.492 259.830   8
  -4  13  17-373.761 255.950   8
  -4  13  17 341.242 477.707   5
  -4  13 -17 81.8217 277.664   7
   4 -13 -17-264.345 375.081   3
   4 -13  17 17.4942 314.718   4
  -4  13 -18 176.113 569.998   6
  -4 -13 -18 182.977 749.614   2
  -4 -13 -18-210.194 342.483   3
   4  13  18 555.825 619.868   5
  -4  13  18 40.2332 258.851   8
  -4  13  18 160.903 485.876   5
   4  13  18-12.7602 252.985   8
   4 -13 -18 269.182 367.970   3
   4 -13  18-483.428 332.635   4
  -4  13 -19-178.691 588.727   6
  -4 -13 -19 862.461 760.812   2
  -4 -13 -19-358.266 348.476   3
   4  13  19-295.565 638.753   5
   4  13  19 116.771 259.182   8
  -4  13  19 13.4897 250.655   8
  -4  13  19 116.147 500.611   5
   4 -13 -19-355.813 366.169   3
   4 -13  19-18.2514 315.210   4
  -4  13 -20-206.701 616.326   6
  -4 -13 -20 31.1584 743.882   2
  -4 -13 -20 474.988 359.918   3
   4  13  20 1221.99 653.850   5
   4  13  20-302.009 263.860   8
   4 -13  20-35.8426 734.902   1
  -4  13 -20-42.6334 278.921   7
   4 -13 -20-422.094 370.368   3
   4 -13  20 150.067 329.193   4
  -4  13 -21 444.225 631.317   6
  -4 -13 -21 31.5491 766.034   2
  -4 -13 -21-371.555 359.521   3
   4  13  21-193.053 656.179   5
   4  13  21 13.3309 258.339   8
  -4  13  21-411.334 284.415   8
   4 -13  21-151.625 767.221   1
  -4  13 -21 144.159 287.601   7
   4 -13 -21 63.7104 355.144   3
   4 -13  21 304.936 332.358   4
  -4  13 -22-26.4953 631.503   6
  -4 -13 -22 510.540 788.786   2
  -4 -13 -22-377.201 358.770   3
   4  13  22-27.8020 678.980   5
   4  13  22-81.1449 273.808   8
  -4  13  22 27.7212 255.017   8
   4 -13  22 405.028 857.088   1
  -4  13 -22-29.2257 292.287   7
   4 -13 -22 127.840 360.680   3
   4 -13  22-350.030 362.851   4
  -4  13 -23-80.3050 660.759   6
   4  13  23 411.632 287.772   8
  -4 -13 -23-323.957 880.241   2
  -4 -13 -23-343.874 395.993   3
   4  13  23-1529.32 745.487   5
   4 -13  23-263.084 977.254   1
  -4  13 -23-44.3998 316.842   7
   4 -13  23-531.277 366.291   4
  -4  13 -24 404.306 617.660   6
  -4 -13 -24 329.544 805.483   2
  -4 -13 -24-96.7345 371.054   3
   4  13  24-641.903 669.216   5
   4  13  24-27.8272 282.096   8
   4 -13  24-48.2637 952.087   1
  -4  13 -24 14.9785 295.611   7
   4 -13  24-397.281 343.141   4
   4 -13  25 20.1070 339.152   4
  -4  13 -25 27.1903 636.216   6
  -4 -13 -25 1208.21 851.875   2
   4  13  25 112.541 674.581   5
  -4 -13 -25 195.631 384.446   3
   4  13  25-211.535 275.731   8
   4 -13  25-325.615 1181.73   1
  -4  13 -25 76.1454 303.043   7
   4 -13  26 221.956 371.259   4
  -4  13 -26 300.483 633.521   6
  -4 -13 -26 171.130 842.031   2
   4  13  26 897.114 680.771   5
  -4 -13 -26-336.729 380.417   3
   4  13  26 128.662 269.884   8
   5 -13   0-36.5860 403.241   1
  -5  13   0 86.6706 234.864   7
   5 -13   0 81.4037 230.557   4
  -5  13   0-470.946 541.883   6
   5 -13  -1-52.9679 383.087   1
   5 -13   1-394.218 440.602   1
  -5  13   1-12.1574 247.266   7
  -5  13  -1-37.2786 258.332   7
   5 -13  -1-79.4076 226.642   4
   5 -13   1-238.131 241.892   4
  -5  13   1-527.594 537.331   6
  -5  13  -1-39.4116 541.172   6
   5 -13  -2-136.552 410.843   1
   5 -13  -2-33.1730 224.437   4
   5 -13   2-133.800 248.276   4
  -5  13  -2-665.597 572.617   6
   5 -13   3 261.196 242.950   4
   5 -13  -3 353.597 379.062   3
  -5  13   4 57.2267 243.790   8
   5 -13  -4 630.232 378.299   3
  -5  13   5 830.092 289.281   8
  -5  13  -5 12.4450 284.421   7
   5 -13  -5 1019.52 401.216   3
   5 -13   5-65.6728 550.335   1
   5 -13   6-338.125 637.284   1
  -5  13  -6 24.7881 270.099   7
   5 -13   6-106.013 255.941   4
   5 -13  -6-334.692 382.476   3
  -5  13  -6-1011.98 743.368   6
  -5  13  -8-682.911 742.826   6
   5 -13   8-72.3971 615.327   1
  -5  13   8 13.4133 249.891   8
  -5  13  -8 137.217 264.254   7
   5 -13   8 13.7937 278.181   4
  -5  13  -9-67.8275 566.005   6
   5 -13   9 446.502 544.053   1
  -5  13   9 108.301 260.280   8
  -5  13   9-136.879 418.290   5
  -5  13  -9-37.5536 262.012   7
   5 -13   9 14.1056 260.589   4
   5 -13  -9 113.960 324.764   3
  -5  13 -10-663.142 576.013   6
   5  13  10 764.860 478.492   5
   5 -13  10-51.4540 550.906   1
  -5  13  10-67.8239 256.966   8
  -5  13  10 19.8372 417.021   5
  -5  13 -10-12.6118 344.697   7
   5 -13  10-57.5192 303.304   4
   5 -13 -10 19.2816 333.517   3
  -5 -13 -10 1143.16 615.786   2
  -5  13 -11-282.043 564.717   6
   5  13  11-128.197 475.026   5
  -5  13  11 54.0575 254.403   8
  -5  13  11-341.851 431.814   5
   5 -13  11-660.126 545.399   1
  -5  13 -11-76.3933 272.244   7
   5 -13  11-368.050 276.666   4
   5 -13 -11-77.8597 335.960   3
  -5 -13 -11 26.3331 613.612   2
  -5  13 -12-237.943 578.697   6
   5  13  12-154.066 495.309   5
  -5  13  12-120.643 239.697   8
  -5  13  12-122.204 437.068   5
  -5  13 -12 90.3644 275.558   7
   5 -13  12-27.0806 544.170   1
   5 -13  12-239.957 274.251   4
   5 -13 -12 452.017 335.464   3
  -5 -13 -12 54.2088 615.240   2
  -5  13 -13 457.954 610.206   6
   5  13  13-296.308 526.925   5
   5  13  13-131.139 197.431   8
  -5  13  13-238.672 261.533   8
  -5  13 -13-13.0758 254.008   7
   5 -13  13-507.150 292.859   4
   5 -13  13-112.039 566.522   1
   5 -13 -13-297.445 347.912   3
  -5 -13 -13 27.8831 649.173   2
  -5  13 -14 24.2743 587.926   6
  -5 -13 -14 271.607 294.283   3
   5  13  14 23.4252 532.739   5
  -5  13  14-52.4041 241.675   8
  -5  13 -14-13.2623 263.271   7
   5 -13  14-523.402 279.240   4
   5 -13 -14-39.9845 340.113   3
   5 -13  14 1177.90 604.609   1
  -5  13 -15-98.4197 611.130   6
  -5 -13 -15 16.1059 294.512   3
   5  13  15 409.480 568.115   5
  -5  13  15-51.7552 251.687   8
  -5  13 -15-13.4681 256.509   7
   5 -13  15-227.642 305.057   4
   5 -13 -15 201.391 339.111   3
   5 -13  15-176.951 628.818   1
  -5 -13 -16 2090.87 770.513   2
   5 -13  16 60.6240 642.225   1
   5  13  16 286.786 257.619   8
  -5  13 -16 893.074 681.851   6
  -5 -13 -16 393.569 374.382   3
   5  13  16 346.374 588.503   5
  -5  13  16 179.040 250.189   8
  -5  13 -16 273.710 318.401   7
   5 -13  16 183.333 323.691   4
   5 -13 -16 465.832 366.855   3
  -5 -13 -17-29.8320 735.090   2
  -5  13 -17-352.115 607.156   6
   5 -13  17-31.2342 624.614   1
  -5 -13 -17-107.156 450.955   3
   5  13  17-126.935 593.526   5
   5  13  17-269.288 303.375   8
  -5  13  17 139.221 245.962   8
  -5  13 -17-139.578 269.118   7
   5 -13  17 51.5274 305.769   4
  -5 -13 -18 30.1973 783.173   2
  -5  13 -18 76.2124 605.158   6
  -5 -13 -18-464.268 431.277   3
   5  13  18-466.149 603.984   5
   5  13  18-538.071 299.728   8
   5 -13  18 17.5952 297.776   4
  -5 -13 -19 794.593 772.822   2
  -5  13 -19 463.351 620.389   6
   5 -13  19 267.958 685.212   1
  -5 -13 -19-364.972 391.185   3
   5  13  19 682.374 611.957   5
   5  13  19 127.484 246.509   8
  -5  13 -19 14.4469 281.137   7
   5 -13  19 54.3906 313.698   4
  -5 -13 -20-373.410 782.042   2
  -5  13 -20 52.2723 594.416   6
   5 -13  20-35.2357 702.899   1
  -5 -13 -20 295.236 376.422   3
   5  13  20 52.9823 622.098   5
   5  13  20 220.810 246.794   8
  -5  13 -20 44.0995 293.662   7
   5 -13  20-241.065 327.030   4
  -5 -13 -21 126.007 770.339   2
  -5  13 -21-767.256 645.003   6
   5 -13  21 184.982 789.224   1
  -5 -13 -21 866.088 405.511   3
   5  13  21 667.683 642.469   5
   5  13  21 52.8882 259.737   8
  -5  13 -21 29.8983 303.611   7
   5 -13  21 664.718 355.705   4
  -5  13 -22 617.134 747.330   6
   5 -13  22 939.407 901.400   1
   5  13  22 698.813 300.015   8
  -5 -13 -22 1388.60 462.799   3
  -5  13 -22 60.7941 363.951   7
   5 -13  22 445.365 375.283   4
  -5 -13 -23 517.604 821.775   2
  -5  13 -23 27.1324 648.895   6
   5 -13  23 209.112 862.493   1
  -5 -13 -23 185.525 395.265   3
   5  13  23-539.459 649.478   5
   5  13  23 27.3088 263.238   8
  -5  13 -23 15.4450 297.354   7
   5 -13  23-477.645 371.850   4
  -5 -13 -24-1017.33 834.885   2
  -5  13 -24 137.099 675.632   6
   5 -13  24-271.366 913.205   1
  -5 -13 -24 435.642 408.194   3
   5  13  24-835.290 662.858   5
   5  13  24-27.7202 260.766   8
  -5  13 -24 109.793 304.712   7
   5 -13  24-181.784 352.780   4
  -5 -13 -25 33.3324 818.776   2
  -5  13 -25 360.998 650.483   6
   5 -13  25-347.588 1012.27   1
  -5 -13 -25-83.3421 406.562   3
   5  13  25 828.224 646.146   5
   5  13  25 267.263 283.335   8
  -5  13 -25-15.9101 297.144   7
   5 -13  25 185.209 351.528   4
  -5 -13 -26-167.127 404.329   3
   5  13  26-664.494 651.395   5
   6 -13   0-80.2387 236.852   4
  -6  13   0-228.372 625.846   6
   6 -13  -1-161.131 369.211   1
  -6  13   1-62.8992 258.829   7
   6 -13  -1-100.772 212.668   4
   6 -13   1 292.861 220.074   4
  -6  13   1-559.941 609.033   6
   6 -13  -2 175.674 224.399   4
   6 -13  -2-35.0179 365.653   1
  -6  13   2-637.228 636.969   6
   6 -13   3 59.6669 397.711   1
  -6  13  -3-26.5595 257.306   7
   6 -13   4-40.7370 392.596   1
  -6  13  -4-13.3575 266.126   7
   6 -13   4 12.4041 219.058   4
  -6  13  -4-109.512 543.139   6
   6 -13   5 21.1826 452.808   1
  -6  13  -5-118.779 257.377   7
   6 -13   5-177.061 225.821   4
   6 -13   6-43.4800 471.463   1
  -6  13  -6 78.2614 253.430   7
   6 -13   6 64.4071 232.819   4
  -6  13  -6-88.2305 590.900   6
  -6  13   7-124.579 292.154   8
  -6  13  -7 13.0671 253.851   7
   6 -13   7 26.2913 239.678   4
   6 -13   7-22.6117 488.815   1
  -6  13  -7-44.0363 576.826   6
  -6  13   8 323.553 294.351   8
  -6  13  -8 39.2885 247.337   7
   6 -13   8 255.025 250.320   4
   6 -13   8 278.684 504.443   1
  -6  13  -8-179.372 587.654   6
  -6  13   9 75.4115 276.627   8
  -6  13  -9-13.0182 249.966   7
   6 -13   9 13.6936 248.963   4
   6 -13   9-834.756 503.045   1
  -6  13  -9 134.916 551.387   6
  -6  13  10-204.978 270.413   8
  -6  13 -10-13.0838 264.617   7
   6 -13  10-434.222 266.436   4
   6 -13  10-24.8317 496.950   1
  -6  13 -10-115.900 549.957   6
  -6  13 -11-186.631 558.523   6
   6 -13  11-76.4591 502.890   1
  -6  13  11-244.353 275.860   8
  -6  13 -11 39.5132 251.144   7
   6 -13  11-185.689 268.253   4
  -6  13 -12 70.5766 565.198   6
   6 -13  12-26.1504 536.993   1
  -6  13 -12-92.4359 256.931   7
   6 -13  12-263.415 262.057   4
  -6  13 -13 193.002 575.514   6
   6 -13  13 54.2358 544.952   1
  -6  13 -13 13.3387 257.861   7
   6 -13  13 104.672 262.080   4
  -6  13 -14-97.5739 598.979   6
  -6  13 -14-80.9714 268.985   7
   6 -13  14 15.3490 287.083   4
  -6  13 -15-426.134 670.382   6
   6  13  15 651.048 552.151   5
   6 -13  15-1199.31 624.640   1
  -6  13 -15 13.6752 282.648   7
   6 -13  15-391.948 302.776   4
  -6 -13 -15 161.063 668.583   2
  -6  13 -16-126.884 607.978   6
  -6 -13 -16-420.633 382.125   3
   6  13  16 554.748 544.276   5
   6 -13  16-29.3334 574.307   1
  -6  13 -16 69.2226 283.320   7
   6 -13  16-209.483 302.840   4
  -6 -13 -16 27.5282 647.613   2
  -6  13 -17 281.122 623.795   6
  -6 -13 -17 490.365 447.447   3
   6  13  17-973.955 598.116   5
   6 -13  17-16.6765 294.462   4
  -6  13 -18-25.8998 624.143   6
  -6 -13 -18 462.934 430.538   3
   6  13  18 24.3370 577.028   5
   6  13  18-94.4829 248.552   8
   6 -13  18-17.1492 294.679   4
  -6 -13 -18-28.8369 694.339   2
  -6  13 -19 417.873 630.644   6
  -6 -13 -19-693.424 427.623   3
   6  13  19-99.4482 597.838   5
   6  13  19-303.055 246.758   8
   6 -13  19 97.4652 656.179   1
  -6  13 -19-130.877 287.307   7
   6 -13  19 246.782 320.369   4
  -6 -13 -19-381.689 687.187   2
  -6  13 -20 105.898 632.598   6
  -6 -13 -20-217.823 389.468   3
   6  13  20 75.6064 585.465   5
   6  13  20 148.996 242.760   8
   6 -13  20 303.435 708.739   1
  -6  13 -20 14.7996 313.851   7
   6 -13  20-18.2063 329.487   4
  -6 -13 -20-955.612 717.218   2
  -6  13 -21 2567.37 806.483   6
  -6 -13 -21 2014.52 520.980   3
   6  13  21 3702.43 713.279   5
   6  13  21 342.655 292.617   8
   6 -13  21 1335.90 833.026   1
  -6  13 -21 271.104 363.550   7
   6 -13  21 728.672 377.166   4
  -6 -13 -21-940.847 825.727   2
  -6  13 -22 243.782 645.624   6
  -6 -13 -22 772.576 463.805   3
   6  13  22-330.019 605.091   5
   6  13  22 168.507 255.190   8
   6 -13  22-73.7447 747.219   1
  -6  13 -22 61.3332 302.204   7
   6 -13  22-269.945 341.689   4
  -6 -13 -22 184.940 760.755   2
  -6 -13 -23 156.506 736.317   2
  -6  13 -23 604.691 645.424   6
  -6 -13 -23-252.769 435.272   3
   6  13  23 177.626 598.495   5
   6  13  23-52.8557 261.967   8
   6 -13  23 194.667 803.820   1
  -6  13 -23 78.0207 306.647   7
   6 -13  23-19.7324 341.303   4
  -6 -13 -24 478.745 785.149   2
  -6  13 -24-55.6201 658.797   6
  -6 -13 -24-137.943 432.511   3
   6  13  24 252.242 605.812   5
   6  13  24-40.3546 263.336   8
   6 -13  24 40.4208 354.106   4
  -6 -13 -25-205.896 441.343   3
   6  13  25-151.075 616.183   5
   7 -13   1-18.9893 371.750   1
   7 -13   2 251.984 396.519   1
  -7  13  -2-13.8249 247.219   7
   7 -13   2-95.5388 209.276   4
  -7  13  -2-469.444 695.597   6
   7 -13   3 515.651 411.838   1
  -7  13  -3 55.8153 273.909   7
   7 -13   3-72.2487 225.330   4
  -7  13  -3-79.5689 660.348   6
   7 -13   4 100.860 395.908   1
  -7  13  -4 13.9418 252.318   7
   7 -13   4-109.950 212.690   4
  -7  13  -4 304.695 652.276   6
   7 -13   5 20.7816 407.910   1
  -7  13  -5 13.9943 252.947   7
   7 -13   5 111.407 218.681   4
  -7  13  -5-24.7648 597.821   6
   7 -13   6 21.2232 424.416   1
  -7  13   6-167.732 416.198   8
  -7  13  -6-27.7906 261.086   7
   7 -13   6-25.1518 222.832   4
  -7  13  -6-192.628 589.475   6
   7 -13   7 65.8293 443.264   1
  -7  13  -7-13.9103 261.316   7
   7 -13   7-307.003 229.118   4
  -7  13  -7 142.102 583.251   6
   7 -13   8-22.4614 437.066   1
  -7  13  -8-205.793 255.508   7
   7 -13   8-143.168 232.661   4
  -7  13  -8 349.588 571.133   6
  -7  13  -9 13.7453 265.654   7
   7 -13   9 13.2775 235.605   4
  -7  13  -9 305.076 609.080   6
   7 -13  10-23.8884 488.655   1
  -7  13 -10-13.7895 261.201   7
   7 -13  10-13.5470 234.314   4
  -7  13 -10 116.557 566.005   6
  -7  13 -11 13.6568 267.426   7
   7 -13  11 97.9156 519.154   1
   7 -13  11 69.3052 247.914   4
  -7  13 -11 236.446 571.266   6
  -7  13 -12 27.4701 276.187   7
   7 -13  12 14.1821 249.490   4
   7 -13  12-330.067 520.076   1
  -7  13 -12-1040.51 580.424   6
  -7  13 -13-27.6816 301.388   7
   7 -13  13 14.5531 251.715   4
   7 -13  13 234.094 554.584   1
  -7  13 -13-316.436 638.591   6
  -7  13 -14-122.404 601.267   6
  -7  13 -14 13.9666 266.372   7
   7 -13  14 74.4960 264.373   4
   7 -13  14 53.3058 535.576   1
  -7  13 -15 200.574 590.880   6
  -7  13 -15 13.9884 282.578   7
   7 -13  15 137.977 285.744   4
   7 -13  15 109.252 529.283   1
  -7  13 -16-126.594 617.303   6
  -7  13 -16 14.1571 287.251   7
   7 -13  16 125.853 278.289   4
   7 -13  16-28.4060 572.189   1
  -7  13 -17-233.972 620.659   6
   7 -13  17 16.2228 282.434   4
  -7  13 -18 605.474 668.735   6
   7 -13  18-183.127 286.608   4
  -7  13 -19-453.427 671.854   6
   7 -13  19 92.6218 618.127   1
  -7  13 -19-14.7988 298.447   7
   7 -13  19 68.7250 301.033   4
  -7  13 -20 510.603 756.958   6
   7 -13  20 31.8826 762.129   1
  -7 -13 -20 1616.93 572.242   3
  -7  13 -20 180.547 367.289   7
   7 -13  20 732.005 370.224   4
  -7  13 -21 735.799 665.524   6
   7 -13  21 66.0733 652.509   1
  -7 -13 -21 231.523 491.267   3
   7  13  21 961.145 566.843   5
  -7  13 -21 30.4289 303.524   7
   7 -13  21-386.826 338.817   4
  -7  13 -22 302.430 676.353   6
   7 -13  22-515.624 668.641   1
  -7 -13 -22-420.375 514.348   3
   7  13  22 775.547 556.733   5
  -7  13 -22 46.4385 306.883   7
   7 -13  22 209.929 359.033   4
  -7 -13 -22-714.149 689.552   2
  -7  13 -23-278.682 667.270   6
  -7 -13 -23 132.579 512.724   3
   7  13  23-328.768 562.362   5
   7 -13  23-216.153 354.459   4
  -7 -13 -23-291.397 703.028   2
  -7 -13 -24 132.375 508.701   3
   7  13  24 722.274 575.985   5
  -7 -13 -24 178.229 709.965   2
  -8  13   0-931.608 1768.13   6
  -8  13   1 1377.83 2929.94   6
  -8  13  -1 1132.77 1366.78   6
  -8  13  -2-481.299 1129.15   6
  -8  13  -3-37.8940 941.193   6
   8 -13   3 20.2139 401.235   1
   8 -13   4-40.8017 404.475   1
   8 -13   4-85.8568 226.945   4
  -8  13  -4 436.740 842.340   6
   8 -13   5 20.8417 392.631   1
  -8  13  -5 14.6334 274.154   7
   8 -13   5 37.0857 222.722   4
  -8  13  -5-183.436 747.219   6
   8 -13   6 21.1476 393.425   1
  -8  13  -6 117.145 262.626   7
   8 -13   6-124.096 220.188   4
  -8  13  -6 28.7347 698.843   6
   8 -13   7 21.6808 409.000   1
  -8  13  -7 102.530 270.562   7
   8 -13   7-37.6785 222.154   4
  -8  13  -7 27.0933 651.804   6
   8 -13   8 110.392 437.721   1
  -8  13  -8-14.5422 273.617   7
   8 -13   8 127.206 221.146   4
  -8  13  -8-392.161 635.327   6
   8 -13   9-113.771 453.371   1
  -8  13  -9-145.482 264.915   7
   8 -13   9 12.9378 225.672   4
  -8  13  -9-25.2308 625.205   6
   8 -13  10-46.4510 479.515   1
  -8  13 -10 43.6810 274.673   7
   8 -13  10-52.7164 238.863   4
  -8  13 -10 148.188 629.275   6
   8 -13  11 143.860 478.937   1
  -8  13 -11 115.649 297.893   7
   8 -13  11 94.2905 248.242   4
  -8  13 -11-218.041 612.190   6
   8 -13  12 24.4926 467.741   1
  -8  13 -12-29.0130 284.029   7
   8 -13  12 110.259 240.759   4
  -8  13 -12 73.0742 615.469   6
   8 -13  13-25.0277 486.373   1
  -8  13 -13 29.1596 277.614   7
   8 -13  13-311.346 259.495   4
  -8  13 -13-24.1807 596.915   6
   8 -13  14-434.879 501.430   1
  -8  13 -14-14.4549 281.169   7
   8 -13  14 232.600 263.094   4
  -8  13 -14-319.016 581.832   6
   8 -13  15 106.109 517.772   1
  -8  13 -15 29.1425 277.971   7
   8 -13  15-509.716 269.731   4
  -8  13 -15-98.2725 595.919   6
  -8  13 -16 75.9548 636.273   6
  -8  13 -16-29.4257 283.958   7
   8 -13  16 15.4836 264.728   4
  -8  13 -17 255.079 648.686   6
   8 -13  17-255.256 274.256   4
  -8  13 -18-418.647 720.703   6
  -8  13 -18-29.7185 302.189   7
   8 -13  18 49.5812 303.540   4
  -8  13 -19-26.4649 714.310   6
  -8  13 -19 60.2463 311.843   7
   8 -13  19-233.671 637.426   1
   8 -13  19 273.034 327.773   4
  -8  13 -20-81.6648 662.616   6
  -8  13 -20-15.2895 301.660   7
   8 -13  20 60.8081 635.622   1
   8 -13  20-140.873 313.947   4
  -8  13 -21-27.5989 686.033   6
  -8  13 -21 15.5299 295.769   7
   8 -13  21 31.3292 638.615   1
   8 -13  21-54.8119 324.174   4
  -8  13 -22 111.314 710.164   6
  -8  13 -22-15.7782 260.284   7
   8 -13  22-32.3786 534.834   1
   8 -13  22-286.092 333.236   4
  -9  13  -4-353.298 1481.34   6
  -9  13  -5 457.938 1169.39   6
  -9  13  -6-194.054 994.938   6
   9 -13   6-172.971 433.231   1
   9 -13   7-125.655 215.574   4
  -9  13  -7-102.025 833.231   6
   9 -13   7 458.670 468.699   1
   9 -13   8-22.3236 457.841   1
  -9  13  -8 30.4365 306.359   7
   9 -13   8-202.875 227.664   4
  -9  13  -8-155.772 759.641   6
   9 -13   9-67.9326 434.156   1
  -9  13  -9 30.3786 288.892   7
   9 -13   9 38.3057 224.432   4
  -9  13  -9-144.258 688.217   6
   9 -13  10-23.0029 445.763   1
  -9  13 -10-45.4990 281.848   7
   9 -13  10-116.826 230.436   4
  -9  13 -10 27.4885 692.457   6
   9 -13  11-424.438 469.293   1
  -9  13 -11-15.1602 297.460   7
   9 -13  11-370.271 240.978   4
  -9  13 -11-78.8791 639.419   6
   9 -13  12 24.0011 444.027   1
  -9  13 -12 30.3555 289.529   7
   9 -13  12-135.377 239.919   4
  -9  13 -12-255.677 639.088   6
   9 -13  13 97.7548 494.742   1
  -9  13 -13 75.5141 285.886   7
   9 -13  13-347.389 249.439   4
  -9  13 -13 324.632 634.897   6
   9 -13  14 25.1611 500.313   1
  -9  13 -14 15.1614 287.644   7
   9 -13  14 315.001 256.131   4
  -9  13 -14 175.265 626.506   6
   9 -13  15-25.6480 520.358   1
  -9  13 -15-15.2400 281.538   7
   9 -13  15-14.7798 260.222   4
  -9  13 -15-347.435 615.424   6
   9 -13  16-137.802 278.673   4
  -9  13 -16-150.964 687.779   6
   9 -13  17 571.573 330.476   4
  -9  13 -17 25.1907 719.586   6
  -9  13 -18-259.737 646.208   6
   9 -13  18-137.783 538.164   1
  -9  13 -18 15.4892 304.905   7
   9 -13  18 313.967 304.936   4
  -9  13 -19 628.621 652.671   6
   9 -13  19 140.811 563.211   1
  -9  13 -19 31.3209 303.157   7
   9 -13  19 17.1599 304.109   4
  -9  13 -20 591.513 678.843   6
   9 -13  20-259.503 569.501   1
  -9  13 -20 31.7058 305.594   7
   9 -13  20 53.7297 321.241   4
   9 -13  21 111.859 340.081   4
  10 -13   9-128.411 223.749   4
 -10  13  -9 457.529 848.181   6
  10 -13  10 13.0151 220.668   4
 -10  13 -10-509.956 762.231   6
  10 -13  10-23.3308 447.919   1
  10 -13  11 381.990 239.329   4
 -10  13 -11 644.852 723.479   6
  10 -13  11-70.8305 459.110   1
  10 -13  12 386.300 480.582   1
 -10  13 -12-62.8263 293.279   7
  10 -13  12-296.525 234.588   4
 -10  13 -12 139.022 652.436   6
  10 -13  13-73.4441 485.434   1
 -10  13 -13 15.6965 294.637   7
  10 -13  13 179.755 241.693   4
 -10  13 -13 238.859 647.134   6
  10 -13  14-298.136 535.528   1
 -10  13 -14 15.7103 313.613   7
  10 -13  14-114.169 255.059   4
 -10  13 -14-515.784 734.731   6
  10 -13  15 479.403 592.105   1
 -10  13 -15 125.944 363.672   7
  10 -13  15 561.616 309.173   4
 -10  13 -15 277.148 713.497   6
  10 -13  16 123.004 286.235   4
 -10  13 -16 25.2786 659.961   6
  10 -13  17-144.249 296.828   4
 -10  13 -17-150.561 652.375   6
  10 -13  18-187.215 519.552   1
 -10  13 -18 16.0061 299.867   7
  10 -13  18-33.5640 305.970   4
 -10  13 -18 280.372 637.068   6
  10 -13  19-246.331 306.371   4
 -10  13 -19-306.730 634.367   6
  11 -13  14 159.221 242.967   4
  11 -13  15-225.466 259.468   4
 -11  13 -15-442.433 659.557   6
  11 -13  16-220.053 283.165   4
 -11  13 -16-228.659 657.843   6
  11 -13  17 66.0057 313.022   4
 -11  13 -17-74.7707 633.118   6
   0 -14   0-662.531 683.239   2
   0 -14   0 11.5980 245.422   3
   0  14   0-874.007 493.387   5
   0  14   0 147.169 176.590   8
   0 -14  -1-1578.08 766.201   2
   0 -14  -1-620.683 269.408   3
   0  14   1-1150.93 495.212   5
   0  14   1-152.724 195.356   8
   0 -14   2-128.430 245.101   4
   0  14  -2-271.194 498.883   6
   0 -14  -2-293.735 270.893   3
   0  14   2-921.079 510.884   5
   0  14   2-254.954 212.312   8
   0  14  -2-181.271 264.840   7
   0 -14   3 65.2541 246.856   4
   0  14  -3-158.153 500.759   6
   0 -14  -3 401.261 270.561   3
   0  14   3 119.629 214.392   8
   0  14  -3-12.7775 275.374   7
   0 -14   4 821.372 303.296   4
   0  14  -4 383.256 538.170   6
   0 -14  -4 632.051 327.876   3
   0  14  -4 54.2548 316.364   7
   0 -14   5-147.846 256.045   4
   0 -14  -6-1400.16 736.434   2
   0  14   6 31.4409 204.289   8
   0 -14  -7 138.001 277.181   3
   0 -14  -7 364.395 668.231   2
   0  14   7 614.218 474.372   5
   0  14   7 42.7258 199.293   8
   0  14  -7-16.2376 315.623   7
   0 -14   8 309.970 252.997   4
   0  14  -8-108.053 469.493   6
   0 -14  -8 268.001 275.003   3
   0 -14  -8 524.162 682.432   2
   0  14   8 976.254 474.985   5
   0  14   8 32.5366 208.228   8
   0  14  -8-34.2346 322.118   7
   0 -14   9 256.534 246.686   4
   0  14  -9 527.410 471.078   6
   0 -14  -9 216.150 275.691   3
   0  14   9-20.8022 470.452   5
   0 -14  -9-158.528 646.131   2
   0  14   9 344.263 212.078   8
   0  14  -9-35.7881 327.466   7
   0 -14  10-57.6179 243.386   4
   0  14 -10 379.572 469.365   6
   0 -14 -10 264.978 279.231   3
   0  14  10 444.795 493.827   5
   0 -14 -10-80.1474 664.082   2
   0  14  10-282.268 219.344   8
   0  14 -10-18.4659 354.050   7
   0 -14  11 232.785 252.908   4
   0 -14 -11-15.0322 286.701   3
   0  14  11 43.4160 473.689   5
   0 -14 -11-893.112 677.520   2
   0  14  11 57.6652 216.403   8
   0  14 -11-18.8895 360.258   7
   0 -14  12-14.6779 241.549   4
   0 -14 -12 107.523 290.564   3
   0  14  12-400.810 509.259   5
   0 -14 -12 192.892 682.797   2
   0  14  12-46.9567 218.395   8
   0  14 -12 19.0839 356.531   7
   0 -14  13-281.864 252.477   4
   0  14  13 68.9712 530.254   5
   0 -14 -13 125.440 292.624   3
   0 -14 -13-699.907 703.071   2
   0  14  13-23.9013 227.726   8
   0  14 -13 19.0474 354.930   7
   0 -14  14 194.148 256.666   4
   0  14  14-424.864 534.264   5
   0 -14 -14 16.0286 309.798   3
   0  14  14 170.412 234.978   8
   0 -14 -14-1025.73 733.043   2
   0  14 -14 18.8044 359.129   7
   0  14  15-772.433 595.841   5
   0 -14 -15-147.505 328.802   3
   0  14  15-187.712 254.964   8
   0  14 -15-55.1492 346.848   7
   0  14  16 305.933 260.894   8
   0 -14 -16 16.7688 320.764   3
   0 -14 -16 29.6414 789.201   2
   0  14  16-818.106 624.529   5
   0  14  17-25.3186 584.318   5
   0 -14 -17-429.147 331.256   3
   0  14  17-376.492 262.388   8
   0 -14 -17 61.1380 766.580   2
   0  14  18 363.895 587.221   5
   0  14  18-132.276 258.365   8
   0 -14 -18-70.2677 332.811   3
   0 -14 -18 31.3458 782.883   2
   0  14  19 556.973 617.889   5
   0  14  19-40.4255 257.515   8
   0 -14 -19 180.024 334.107   3
   0 -14 -19 418.902 818.591   2
   0  14  20 788.346 640.035   5
   0  14  20-109.835 255.416   8
   0 -14 -20-18.4321 331.075   3
   0  14  21-918.521 678.928   5
   0 -14 -21-510.327 378.374   3
   0  14  22 84.8746 689.962   5
   0  14  22-14.2591 283.162   8
   0 -14 -22 19.2002 385.695   3
   0  14  23-72.6457 287.597   8
   0  14  23-317.612 673.612   5
   0 -14 -23 37.3916 939.992   2
   0 -14 -23-551.606 381.961   3
   0  14  24-414.543 301.497   8
   0  14  24 175.665 645.398   5
   0 -14 -24 201.000 376.616   3
   0  14  25-1130.86 701.136   5
   0 -14 -25 20.6132 390.233   3
  -1 -14   0-663.606 263.896   3
   1  14   0 21.6235 576.822   5
  -1 -14  -1-330.049 247.408   3
   1  14  -1-1343.33 627.753   5
   1  14   1 63.3296 569.053   5
   1 -14  -1 12.2671 273.316   3
  -1  14   1-419.340 466.456   5
   1  14   1-136.148 188.438   8
  -1  14   1-294.164 215.857   8
   1 -14   1-397.922 544.779   1
   1 -14   1-231.524 278.280   4
  -1  14  -2-414.055 539.219   6
  -1 -14  -2 270.429 249.889   3
   1  14   2 1285.92 570.172   5
  -1  14   2-250.978 216.606   8
   1 -14  -2 453.218 296.412   3
  -1  14   2-120.545 495.553   5
   1  14   2-315.184 203.211   8
  -1  14  -2-34.0518 252.960   7
   1  14  -2-76.4587 322.877   7
   1 -14   2 220.692 287.705   4
  -1  14  -3 704.652 582.504   6
  -1 -14  -3 1292.80 302.902   3
   1 -14  -3 1356.32 816.034   2
   1 -14  -3 1330.21 333.913   3
  -1  14   3 941.664 262.506   8
  -1  14  -3-11.6272 284.569   7
   1  14  -3 240.757 390.706   7
   1 -14   3 852.534 326.859   4
  -1  14  -4 1355.37 614.528   6
   1 -14  -4 211.776 321.882   3
  -1  14   4 1890.28 540.628   5
   1  14  -4 213.952 474.409   7
   1 -14   4 170.027 287.591   4
  -1 -14  -5-1756.01 802.128   2
   1  14   5-188.153 218.813   8
  -1 -14  -6-578.848 705.569   2
  -1 -14  -6-13.0410 247.989   3
   1  14   6 20.7777 468.187   5
   1  14   6-170.042 204.388   8
  -1  14   6-174.947 198.460   8
   1 -14  -6-415.331 661.229   2
  -1  14  -6-12.8349 248.331   7
  -1  14  -7 281.420 487.163   6
  -1 -14  -7-496.568 692.757   2
  -1 -14  -7-187.096 257.932   3
   1  14   7-168.101 487.257   5
   1 -14  -7 28.4027 274.452   3
  -1  14   7 38.4727 450.909   5
   1  14   7-140.682 202.184   8
   1 -14  -7-446.180 627.269   2
  -1  14   7 147.056 191.237   8
  -1  14  -7 79.7996 272.385   7
   1  14  -7-55.1479 529.379   7
   1 -14   7 14.7709 255.907   4
   1 -14   8 210.862 269.307   4
  -1 -14  -8 470.546 686.940   2
  -1 -14  -8-165.089 256.665   3
   1  14   8 21.2598 486.675   5
  -1  14   8 357.164 474.943   5
   1 -14  -8-130.615 281.568   3
   1  14   8 55.2783 206.551   8
  -1  14   8-10.6956 202.603   8
   1 -14  -8 301.548 650.302   2
  -1  14  -8 13.7739 259.485   7
   1  14  -8-210.828 579.757   7
   1 -14   9 167.913 260.127   4
  -1  14  -9-335.722 497.317   6
  -1 -14  -9-464.792 280.620   3
   1  14   9 345.918 517.047   5
  -1  14   9-997.888 473.959   5
   1 -14  -9-193.043 283.201   3
   1  14   9 168.524 229.027   8
  -1  14   9 77.0188 206.432   8
   1 -14  -9-280.829 645.559   2
  -1  14  -9-14.2331 261.033   7
   1  14  -9 32.0366 653.036   7
   1 -14  10 30.9148 254.854   4
  -1  14 -10-22.7333 485.764   6
  -1 -14 -10-1255.95 721.221   2
  -1 -14 -10 360.410 274.951   3
   1  14  10-351.916 503.976   5
  -1  14  10-83.6199 464.516   5
   1 -14 -10-45.5841 289.403   3
   1  14  10-216.931 215.706   8
  -1  14  10 33.6563 207.850   8
   1 -14 -10-261.951 657.297   2
  -1  14 -10 29.3306 268.967   7
   1 -14  11-312.982 273.966   4
   1 -14 -11 46.6323 288.971   3
  -1  14 -11 300.054 537.755   6
  -1 -14 -11-250.685 278.008   3
  -1 -14 -11 140.613 687.986   2
   1  14  11-449.102 516.539   5
  -1  14  11 149.680 492.794   5
   1  14  11 23.3093 209.937   8
  -1  14  11-194.581 220.012   8
   1 -14 -11-613.756 690.655   2
  -1  14 -11 15.0272 294.756   7
   1 -14  12 94.9651 269.266   4
  -1  14 -12-23.3305 520.966   6
  -1 -14 -12-211.079 273.281   3
  -1 -14 -12-312.174 702.645   2
   1  14  12-461.542 536.107   5
  -1  14  12-109.845 475.919   5
   1  14  12 11.8438 223.448   8
   1 -14 -12-127.284 293.066   3
  -1  14  12 142.895 215.846   8
   1 -14 -12-244.825 689.961   2
  -1  14 -12-15.3169 292.904   7
   1 -14  13 16.0765 272.011   4
  -1  14 -13-236.498 508.775   6
  -1 -14 -13 246.662 293.167   3
  -1 -14 -13 172.114 722.716   2
   1  14  13-330.665 544.885   5
  -1  14  13 157.212 511.436   5
   1  14  13 421.348 231.569   8
   1 -14 -13 195.428 303.313   3
  -1  14  13 85.0314 228.977   8
   1 -14 -13-138.769 717.323   2
  -1  14 -13 77.5786 303.311   7
   1 -14  14 32.4523 269.901   4
  -1  14 -14-167.734 506.496   6
  -1 -14 -14-47.2673 295.177   3
  -1 -14 -14 29.0431 728.752   2
   1  14  14-192.422 538.664   5
  -1  14  14 207.784 508.399   5
   1  14  14-123.324 233.284   8
   1 -14 -14 149.987 301.599   3
  -1  14  14 61.9470 235.640   8
   1 -14 -14-28.3958 704.164   2
  -1  14 -14-78.0969 293.842   7
   1 -14  15 16.3608 277.801   4
  -1  14 -15 120.802 534.395   6
  -1 -14 -15-322.022 320.359   3
   1  14  15-1700.82 636.678   5
  -1  14  15-1091.60 567.237   5
   1  14  15 75.2434 236.743   8
  -1  14  15 88.4343 247.795   8
   1 -14 -15-136.545 334.487   3
   1 -14 -15 29.0351 763.508   2
  -1  14 -15 15.6322 308.740   7
   1 -14  16-581.466 311.019   4
  -1  14 -16 220.057 541.505   6
  -1 -14 -16-164.605 322.451   3
   1  14  16-1524.53 661.672   5
  -1 -14 -16-89.6576 826.591   2
  -1  14  16-315.299 582.356   5
   1  14  16-255.028 257.009   8
  -1  14  16-141.676 247.423   8
   1 -14 -16 261.935 321.329   3
   1 -14 -16 89.1870 793.374   2
  -1  14 -16-15.5538 296.101   7
   1 -14  17-116.912 296.285   4
  -1  14 -17-74.1664 525.075   6
   1  14  17-234.352 598.500   5
  -1 -14 -17 67.2454 317.084   3
  -1 -14 -17-699.773 767.720   2
  -1  14  17 921.955 592.025   5
   1  14  17-363.110 247.138   8
  -1  14  17-301.867 257.408   8
   1 -14 -17-143.174 319.884   3
   1 -14 -17-488.205 786.893   2
  -1  14 -17-15.4065 287.846   7
   1 -14  18 33.5469 279.539   4
   1  14  18-212.512 616.562   5
  -1 -14 -18 120.392 321.349   3
  -1 -14 -18-558.586 773.226   2
   1  14  18 65.9562 268.935   8
  -1  14  18-381.378 558.777   5
  -1  14  18-68.2138 264.729   8
   1 -14 -18-36.6785 329.942   3
   1 -14 -18-973.491 817.407   2
  -1  14 -18-91.1664 318.739   7
   1 -14  19 50.4453 274.252   4
   1  14  19 54.4056 622.735   5
  -1 -14 -19 158.357 333.327   3
   1  14  19-107.765 259.347   8
  -1  14  19-78.2665 569.869   5
  -1  14  19 222.417 271.486   8
   1 -14 -19 130.339 348.382   3
   1 -14 -19 32.4183 819.122   2
  -1  14 -19-44.8261 295.157   7
   1 -14  20-320.749 278.854   4
   1  14  20-194.796 635.480   5
  -1 -14 -20-162.170 329.943   3
  -1  14  20-213.796 600.497   5
  -1  14  20-184.157 273.597   8
   1 -14 -20-114.512 341.168   3
   1 -14 -20-33.6035 860.850   2
  -1  14 -20-87.9302 280.023   7
   1  14  21 537.408 665.420   5
  -1 -14 -21 33.5487 849.664   2
   1  14  21-83.6461 282.651   8
  -1 -14 -21-147.574 366.728   3
  -1  14  21 245.018 641.041   5
   1 -14 -21-350.255 362.120   3
   1  14  22-1645.78 777.094   5
   1  14  22 56.7399 293.797   8
  -1 -14 -22-737.295 405.303   3
  -1  14  22-27.8181 662.984   5
   1 -14 -22-378.741 407.243   3
   1  14  23 790.243 674.359   5
  -1 -14 -23 465.837 932.047   2
   1  14  23 245.398 285.105   8
  -1  14  23-134.988 281.775   8
  -1  14  23 479.436 638.325   5
  -1 -14 -23-212.917 363.132   3
   1 -14 -23-530.897 408.314   3
   1 -14 -23-38.7342 980.188   2
  -1 -14 -24 372.569 945.096   2
   1  14  24-685.081 703.328   5
   1  14  24-455.204 301.500   8
  -1  14  24 259.968 297.501   8
  -1  14  24 258.205 626.855   5
  -1 -14 -24-59.5673 363.956   3
   1 -14 -24-503.397 414.057   3
   1 -14 -24 41.0731 1006.44   2
   1  14  25-180.381 696.670   5
  -1 -14 -25 262.276 387.637   3
   1 -14 -25 150.105 399.226   3
   2  14   0 3654.44 868.007   5
  -2  14  -1 1243.34 633.768   6
   2  14  -1 5732.53 943.109   5
   2  14   1 5388.52 801.336   5
   2 -14   1 3043.20 675.398   1
   2 -14   1 1098.35 361.702   4
   2 -14  -2 1237.02 380.944   3
  -2  14   2 1485.12 283.923   8
  -2  14  -2 323.691 337.114   7
   2 -14   2 1766.03 645.564   1
  -2  14  -2 2211.99 696.138   6
   2 -14   2 422.421 348.269   4
  -2  14  -3 964.899 595.492   6
  -2  14   3-508.264 508.439   5
   2 -14  -3-231.630 319.193   3
  -2  14   3 391.820 218.300   8
  -2  14  -3-81.5062 264.255   7
   2  14  -3 703.396 1224.76   7
   2 -14   3-85.6627 295.515   4
   2  14   4-254.852 196.997   8
   2 -14  -4-446.676 309.243   3
   2  14  -4-98.5056 2070.87   7
   2 -14   4-29.0554 273.226   4
  -2 -14  -5-164.062 223.860   3
   2  14   5-379.545 513.542   5
   2  14   5-142.960 197.236   8
  -2 -14  -6 56.0242 691.887   2
  -2 -14  -6-109.907 241.209   3
   2  14   6 377.227 510.333   5
   2 -14   6-50.7081 509.475   1
   2  14   6 189.651 199.597   8
   2 -14  -6-425.860 648.718   2
  -2  14  -6-48.4035 232.335   7
  -2  14  -7 219.714 495.986   6
  -2 -14  -7 177.187 241.920   3
   2  14   7-333.659 510.259   5
   2  14   7 43.3442 197.848   8
  -2  14   7 888.779 453.422   5
   2 -14  -7-120.022 280.486   3
  -2  14   7 339.890 203.110   8
   2 -14  -7-530.434 630.831   2
  -2  14  -7-37.0609 239.285   7
   2 -14   7-106.585 257.487   4
  -2  14  -8-223.724 531.368   6
  -2 -14  -8-896.949 732.742   2
  -2 -14  -8-13.0314 250.182   3
   2  14   8-157.248 519.011   5
   2  14   8 199.705 216.086   8
  -2  14   8-414.106 453.507   5
   2 -14  -8-153.567 272.893   3
  -2  14   8 152.146 213.021   8
   2 -14  -8-468.507 642.760   2
  -2  14  -8 12.6316 245.701   7
   2 -14   8 31.2332 288.051   4
  -2  14  -9 22.7179 515.197   6
  -2 -14  -9-465.919 700.575   2
  -2 -14  -9 67.3240 263.302   3
   2  14   9-90.8877 507.889   5
   2  14   9-79.3487 218.540   8
  -2  14   9 60.7269 460.368   5
   2 -14  -9 173.080 292.344   3
  -2  14   9 266.938 213.869   8
   2 -14  -9 251.845 654.602   2
  -2  14  -9 12.9237 250.453   7
   2 -14   9-95.1912 296.435   4
  -2  14 -10 138.350 522.423   6
  -2 -14 -10-907.728 728.452   2
  -2 -14 -10 83.5694 260.992   3
   2  14  10-897.417 534.582   5
   2  14  10-218.766 221.114   8
  -2  14  10-935.252 485.024   5
  -2  14  10 104.433 225.186   8
   2 -14 -10-32.2312 296.448   3
   2 -14 -10 411.670 660.981   2
  -2  14 -10 13.2397 241.444   7
   2 -14  10 290.042 290.352   4
  -2  14 -11-70.3827 523.044   6
  -2 -14 -11-29.3661 703.041   2
  -2 -14 -11-344.404 271.470   3
   2  14  11-234.064 527.445   5
   2  14  11-199.351 224.704   8
  -2  14  11-233.493 479.285   5
  -2  14  11-106.785 220.899   8
   2 -14 -11 82.4441 299.647   3
   2 -14 -11-710.825 688.872   2
  -2  14 -11-13.5205 248.017   7
   2 -14  11-147.169 290.046   4
  -2  14 -12-95.1601 569.428   6
  -2 -14 -12 443.104 729.628   2
  -2 -14 -12 489.565 281.780   3
   2  14  12-190.403 534.571   5
   2  14  12-59.6486 222.879   8
  -2  14  12 174.359 490.000   5
  -2  14  12-121.191 229.253   8
   2 -14 -12-388.463 301.067   3
   2 -14 -12 241.909 695.076   2
  -2  14 -12-96.5005 282.990   7
   2 -14  12 33.3875 290.157   4
  -2  14 -13-482.070 550.233   6
  -2 -14 -13 832.823 733.481   2
  -2 -14 -13-167.662 286.764   3
   2  14  13 534.432 555.585   5
   2  14  13 85.2731 217.510   8
  -2  14  13-402.863 502.708   5
  -2  14  13 12.3662 234.590   8
   2 -14 -13 380.620 311.248   3
   2 -14 -13 137.239 711.352   2
  -2  14 -13-42.0520 271.622   7
   2 -14  13-592.258 307.173   4
  -2  14 -14-219.707 532.802   6
  -2 -14 -14 867.937 748.733   2
  -2 -14 -14 62.6000 291.381   3
   2  14  14 817.289 592.910   5
   2  14  14 24.7615 227.681   8
  -2  14  14 159.877 502.576   5
  -2  14  14 166.589 244.006   8
   2 -14 -14 70.2246 308.313   3
   2 -14 -14 756.688 734.295   2
  -2  14 -14-14.2091 274.845   7
   2 -14  14 171.400 297.658   4
   2 -14  15 52.3253 348.733   4
  -2  14 -15 345.118 582.160   6
  -2 -14 -15-513.487 822.422   2
  -2 -14 -15 609.792 324.037   3
   2  14  15 1493.77 654.920   5
   2  14  15-88.0641 265.843   8
  -2  14  15 281.300 526.765   5
  -2  14  15-52.2035 253.401   8
   2 -14 -15 449.459 348.276   3
   2 -14 -15 687.575 763.433   2
  -2  14 -15-28.7177 287.944   7
   2 -14  16-70.4851 318.285   4
  -2  14 -16-124.673 562.939   6
  -2 -14 -16-885.651 814.882   2
  -2 -14 -16 65.7674 308.807   3
   2  14  16-156.091 595.712   5
   2  14  16 38.3324 248.652   8
  -2  14  16-1340.20 554.138   5
  -2  14  16-265.559 264.294   8
   2 -14 -16 18.4140 320.389   3
  -2  14 -16 14.4625 277.308   7
   2 -14 -16-1702.70 775.768   2
   2 -14  17-53.3547 289.621   4
  -2  14 -17 151.294 560.355   6
  -2 -14 -17 216.456 763.811   2
  -2 -14 -17 387.265 325.936   3
   2  14  17 185.161 618.436   5
   2  14  17-273.771 254.388   8
  -2  14  17 367.958 539.166   5
  -2  14  17-310.626 267.220   8
   2 -14 -17-262.526 343.501   3
  -2  14 -17 58.1207 279.095   7
   2 -14 -17-1325.50 785.308   2
   2 -14  18 18.0171 303.991   4
  -2  14 -18-228.558 558.715   6
  -2 -14 -18 51.6707 329.874   3
   2  14  18-1405.34 655.690   5
   2  14  18 79.4393 265.508   8
  -2  14  18-326.706 552.906   5
  -2  14  18-233.387 269.210   8
   2 -14 -18-38.3833 364.103   3
  -2  14 -18 87.2434 283.665   7
   2 -14 -18 31.0189 781.983   2
   2 -14  19-145.007 304.132   4
  -2  14 -19-51.2977 568.488   6
  -2 -14 -19-528.695 346.766   3
   2  14  19-582.885 653.165   5
  -2  14  19-306.997 270.598   8
  -2  14  19 102.241 568.215   5
   2 -14 -19 19.6348 358.413   3
  -2  14 -19 188.716 292.229   7
   2 -14 -19-865.677 814.010   2
   2  14  20-537.803 655.175   5
   2 -14  20 200.260 320.004   4
  -2  14 -20 388.387 605.851   6
  -2 -14 -20-1202.06 832.110   2
  -2 -14 -20 18.0023 342.403   3
   2  14  20-232.179 272.117   8
  -2  14  20 326.179 279.760   8
  -2  14  20-287.275 583.161   5
   2 -14 -20 60.4780 343.529   3
   2 -14 -20 932.683 862.020   2
   2 -14  21-276.086 350.588   4
   2  14  21-748.894 310.525   8
  -2  14 -21-130.075 647.711   6
  -2 -14 -21-730.058 879.885   2
   2  14  21-2154.12 768.953   5
  -2 -14 -21-18.4214 371.097   3
  -2  14  21-331.697 303.319   8
  -2  14  21-1944.83 674.601   5
   2 -14 -21-473.528 412.236   3
   2 -14 -21-3202.42 989.072   2
   2 -14  22-18.4210 321.691   4
  -2  14 -22-498.542 676.998   6
   2  14  22-1402.56 718.325   5
  -2 -14 -22-621.889 397.718   3
   2  14  22-619.641 301.420   8
  -2  14  22-1890.32 707.804   5
   2 -14 -22-1179.77 436.980   3
  -2  14 -22-28.4888 302.821   7
   2 -14  23-367.895 322.808   4
  -2 -14 -23-1500.10 907.400   2
   2  14  23-383.620 684.280   5
   2  14  23 371.822 290.822   8
  -2 -14 -23 212.074 373.069   3
  -2  14  23-274.257 626.646   5
   2 -14 -23 85.8686 397.103   3
  -2  14 -23-14.1232 284.481   7
   2 -14  24-441.462 331.459   4
  -2 -14 -24 35.9358 923.175   2
   2  14  24 448.930 696.555   5
   2  14  24-188.736 282.108   8
  -2 -14 -24-197.267 364.966   3
  -2  14  24 826.781 630.323   5
   2 -14 -24 65.4960 398.094   3
  -2  14 -24 97.9309 278.460   7
   2 -14 -24 41.7564 1039.61   2
   3 -14   0-952.407 496.578   1
  -3  14  -1-614.872 615.167   6
   3 -14   1-21.7774 477.814   1
  -3  14  -1-12.0424 271.082   7
   3 -14   1-219.894 284.398   4
  -3  14  -2-291.650 586.645   6
  -3  14  -2 60.2638 245.516   7
   3 -14   2-181.471 265.968   4
  -3  14   3-663.625 447.935   5
  -3  14   3-178.674 191.953   8
   3 -14  -3-289.312 303.269   3
   3 -14   3 127.734 262.594   4
   3  14   4-1104.73 579.160   5
   3 -14  -4-309.968 303.434   3
   3  14   5 350.362 536.681   5
   3 -14   5 24.9085 496.865   1
  -3  14  -5-12.2160 249.012   7
  -3 -14  -5-282.028 584.173   2
  -3  14  -6 176.283 540.433   6
   3  14   6-508.150 524.401   5
   3  14   6-99.5631 185.808   8
   3 -14   6-25.5080 539.284   1
   3 -14  -6-324.147 637.415   2
  -3  14  -6 12.3098 230.557   7
   3 -14   6-210.464 267.781   4
  -3 -14  -6-323.776 624.047   2
  -3  14  -7 423.402 542.625   6
   3  14   7 641.401 529.470   5
   3  14   7 384.258 199.169   8
  -3  14   7 19.5525 433.857   5
  -3  14   7-10.9169 211.795   8
   3 -14  -7 32.5942 300.557   3
  -3  14  -7-12.2993 237.863   7
   3 -14  -7 23.7228 622.994   2
   3 -14   7 182.558 543.573   1
   3 -14   7 244.876 270.286   4
  -3 -14  -7-223.280 654.394   2
  -3 -14  -8 1062.29 698.266   2
  -3  14  -8-519.959 524.720   6
   3 -14   8-26.8261 519.120   1
  -3 -14  -8-154.466 232.655   3
   3  14   8 552.099 527.112   5
  -3  14   8 340.291 448.745   5
  -3  14   8 57.0521 215.005   8
   3  14   8-355.669 204.762   8
   3 -14  -8 149.847 316.271   3
  -3  14  -8 12.4579 250.373   7
   3 -14  -8 194.365 639.670   2
   3 -14   8-15.6875 280.101   4
  -3 -14  -9 29.2216 692.840   2
  -3  14  -9-206.359 538.414   6
  -3 -14  -9 200.785 228.123   3
   3  14   9 254.781 525.245   5
   3 -14   9 54.6287 539.476   1
   3  14   9-211.317 205.445   8
  -3  14   9 143.400 452.025   5
  -3  14   9 11.7078 222.377   8
   3 -14  -9-68.0501 313.350   3
  -3  14  -9-37.9276 257.404   7
   3 -14  -9 24.8522 629.857   2
   3 -14   9 15.9728 273.552   4
  -3 -14 -10-774.204 733.808   2
  -3  14 -10-325.496 540.248   6
  -3 -14 -10-157.948 233.857   3
   3  14  10-375.634 541.065   5
   3  14  10-11.4144 201.633   8
  -3  14  10 83.8807 468.872   5
  -3  14  10 47.9598 233.241   8
   3 -14 -10 260.817 324.162   3
  -3  14 -10 12.7710 263.652   7
   3 -14  10-999.411 577.224   1
   3 -14 -10-836.676 659.576   2
   3 -14  10-471.578 295.856   4
  -3  14 -11 472.478 551.776   6
  -3 -14 -11-1082.69 754.640   2
  -3 -14 -11 205.507 257.030   3
   3  14  11 191.359 532.547   5
   3 -14  11-28.3148 552.892   1
   3  14  11-35.0970 211.724   8
  -3  14  11 64.0857 468.984   5
  -3  14  11-137.129 233.551   8
   3 -14 -11 371.354 322.406   3
  -3  14 -11 12.9863 248.656   7
   3 -14  11-232.306 292.578   4
  -3  14 -12-95.7677 547.068   6
  -3 -14 -12-1182.67 763.876   2
  -3 -14 -12-14.2919 276.239   3
   3  14  12 974.834 564.635   5
   3 -14  12-57.4227 557.051   1
   3  14  12-215.204 227.446   8
  -3  14  12-415.317 493.356   5
  -3  14  12 88.8977 242.567   8
   3 -14 -12-162.679 310.628   3
  -3  14 -12-39.6156 254.574   7
   3 -14  12 135.066 297.262   4
  -3  14 -13 436.467 550.172   6
  -3 -14 -13 153.457 724.739   2
  -3 -14 -13-14.9049 279.428   3
   3  14  13 1191.22 591.237   5
   3  14  13 207.386 233.343   8
  -3  14  13 424.881 493.260   5
  -3  14  13-25.8210 245.878   8
   3 -14 -13 701.990 345.111   3
  -3  14 -13 40.2616 266.668   7
   3 -14  13 103.020 288.176   4
   3 -14  13 174.600 561.919   1
  -3  14 -14 320.020 586.717   6
   3 -14  14-265.647 657.159   1
  -3 -14 -14-1391.39 804.247   2
  -3 -14 -14-525.582 314.762   3
   3  14  14-228.071 597.709   5
   3  14  14 161.582 236.441   8
  -3  14  14 454.757 509.235   5
  -3  14  14-196.474 255.804   8
   3 -14 -14 377.403 349.590   3
  -3  14 -14 122.674 260.678   7
   3 -14  14-105.686 322.117   4
  -3  14 -15 373.771 621.421   6
  -3 -14 -15-591.920 809.789   2
  -3 -14 -15-289.265 327.325   3
   3  14  15-774.435 632.542   5
   3  14  15-75.6133 243.086   8
  -3  14  15 119.369 252.092   8
  -3  14  15-209.168 519.550   5
   3 -14 -15 19.3534 347.224   3
  -3  14 -15-96.7529 278.904   7
   3 -14  15-178.823 308.936   4
  -3  14 -16-126.067 573.937   6
  -3 -14 -16-31.3297 770.718   2
  -3 -14 -16 132.665 317.528   3
   3  14  16 342.000 632.371   5
   3  14  16 25.6289 244.384   8
  -3  14  16-53.6542 250.248   8
  -3  14  16 94.9284 517.309   5
   3 -14 -16-276.489 368.444   3
  -3  14 -16-97.9702 261.476   7
   3 -14  16 72.5595 318.338   4
  -3  14 -17 332.570 572.452   6
  -3 -14 -17-563.748 338.408   3
   3  14  17 483.361 641.186   5
   3  14  17 65.0890 252.115   8
  -3  14  17 176.214 263.865   8
   3 -14 -17 120.828 351.301   3
  -3  14 -17-141.478 266.358   7
   3 -14  17-184.949 297.874   4
  -3  14 -18 129.324 584.320   6
  -3 -14 -18 210.605 334.724   3
   3  14  18-935.694 662.092   5
  -3  14  18-136.933 261.173   8
  -3  14  18 196.578 534.534   5
   3 -14 -18 20.5690 372.269   3
  -3  14 -18-114.174 261.000   7
   3 -14  18 18.7186 324.320   4
  -3  14 -19 703.607 603.186   6
  -3 -14 -19-1293.67 819.669   2
  -3 -14 -19 162.037 337.299   3
   3  14  19 364.330 665.631   5
  -3  14  19 55.3373 262.409   8
  -3  14  19-625.248 560.645   5
   3 -14 -19 104.656 382.179   3
  -3  14 -19-71.8791 274.526   7
   3 -14  19-113.472 332.412   4
   3 -14  20 76.7823 327.095   4
  -3  14 -20-105.264 611.892   6
  -3 -14 -20-1016.46 836.048   2
  -3 -14 -20 368.817 362.388   3
   3  14  20-198.395 654.222   5
   3  14  20 150.435 265.672   8
  -3  14  20-293.566 271.565   8
  -3  14  20-75.5984 543.611   5
   3 -14 -20 212.642 375.525   3
   3 -14  21 212.650 376.669   4
  -3  14 -21 1009.40 735.243   6
  -3 -14 -21 666.127 961.539   2
  -3 -14 -21 546.734 408.898   3
   3  14  21 610.278 301.618   8
  -3  14  21 537.348 311.861   8
  -3  14  21 2274.69 689.000   5
   3 -14 -21 1127.23 464.667   3
   3 -14  22 213.757 362.023   4
  -3  14 -22 80.1146 606.163   6
  -3 -14 -22-642.834 879.383   2
  -3 -14 -22-346.927 373.930   3
   3  14  22 1085.24 681.376   5
   3  14  22-140.640 278.122   8
  -3  14  22 343.527 298.220   8
  -3  14  22-439.594 579.667   5
  -3  14 -22-72.7029 285.019   7
   3 -14 -22 21.9470 397.184   3
   3 -14  23 39.1768 349.178   4
  -3  14 -23 26.9210 617.992   6
  -3 -14 -23-34.5061 855.009   2
   3  14  23-919.571 709.412   5
  -3 -14 -23-255.582 375.445   3
   3  14  23 28.5184 287.231   8
  -3  14  23 598.689 584.651   5
  -3  14 -23 14.5531 297.358   7
   3 -14 -23-22.1733 393.425   3
   3 -14  24 196.088 346.876   4
  -3  14 -24 189.150 605.763   6
  -3 -14 -24-282.211 878.969   2
   3  14  24-983.667 698.109   5
  -3 -14 -24-421.308 384.180   3
  -3  14  24-52.3997 586.773   5
  -3  14 -24-14.5561 230.348   7
   3 -14 -24 157.308 391.896   3
   4 -14   0-776.111 437.756   1
   4 -14   0 13.1662 253.820   4
  -4  14  -1 125.748 527.553   6
   4 -14   1 53.4837 259.828   4
   4 -14   3-205.177 479.130   1
   4 -14   4 328.338 503.349   1
  -4  14   4-114.415 432.117   5
   4 -14  -4 319.738 337.969   3
  -4  14  -4-12.5352 243.054   7
  -4  14  -5-784.516 556.286   6
   4 -14   5-48.7086 505.122   1
  -4  14  -5 12.5133 237.995   7
   4 -14   5 158.131 269.319   4
  -4  14  -6-499.379 557.070   6
   4  14   6 671.928 517.503   5
  -4  14   6 57.2688 223.137   8
   4 -14   6 150.098 518.289   1
  -4  14  -6 25.0809 247.734   7
   4 -14   6 14.6596 266.141   4
  -4  14  -7 114.230 563.894   6
   4  14   7 223.349 509.441   5
  -4  14   7 307.778 234.245   8
  -4  14   7-40.0889 436.106   5
   4 -14  -7-18.3386 328.003   3
  -4  14  -7 63.1244 247.611   7
   4 -14   7-590.357 528.178   1
   4 -14   7 74.7381 274.253   4
  -4  14  -8-92.5301 547.515   6
   4  14   8 357.931 500.019   5
  -4  14   8-231.447 235.415   8
  -4  14   8-244.918 452.156   5
   4 -14  -8 18.5837 331.773   3
  -4  14  -8-25.4167 253.818   7
   4 -14   8 122.796 275.710   4
   4 -14   8 424.307 572.683   1
  -4 -14  -8 160.719 620.016   2
   4 -14   9-27.1315 555.659   1
  -4  14  -9-70.2864 557.436   6
   4  14   9-476.140 513.203   5
  -4  14   9 419.648 254.943   8
  -4  14   9 748.258 457.260   5
   4 -14  -9-169.645 321.763   3
  -4  14  -9-12.8532 251.657   7
   4 -14   9-219.141 282.461   4
  -4 -14  -9 27.7854 631.900   2
  -4  14 -10 188.818 579.681   6
   4 -14  10-55.4218 565.522   1
   4  14  10-344.250 512.965   5
   4  14  10-65.0983 199.551   8
  -4  14  10 103.695 239.086   8
  -4  14  10 442.490 454.073   5
   4 -14 -10 287.076 347.903   3
  -4  14 -10-12.9895 262.275   7
   4 -14  10-143.664 284.978   4
  -4 -14 -10-976.205 656.034   2
  -4  14 -11 119.504 569.634   6
  -4 -14 -11 177.255 237.201   3
   4  14  11 679.519 547.287   5
   4 -14  11 28.5048 574.857   1
   4  14  11-101.139 217.174   8
  -4  14  11 26.2998 247.045   8
  -4  14  11-150.114 461.645   5
   4 -14 -11-38.9632 349.928   3
  -4  14 -11-39.4456 261.316   7
   4 -14  11-130.916 283.972   4
  -4 -14 -11 322.945 693.663   2
  -4 -14 -12-659.945 735.029   2
  -4  14 -12-145.221 575.443   6
  -4 -14 -12 135.456 246.444   3
   4  14  12-932.540 566.529   5
   4  14  12-46.3485 221.503   8
  -4  14  12-79.6981 253.519   8
  -4  14  12-1178.22 488.262   5
   4 -14  12 29.0475 568.741   1
   4 -14 -12 237.434 372.881   3
  -4  14 -12 13.3243 261.706   7
   4 -14  12-233.582 291.572   4
  -4 -14 -13-760.636 761.852   2
  -4  14 -13-390.792 607.367   6
  -4 -14 -13-186.813 272.744   3
   4  14  13-220.374 573.705   5
   4  14  13 59.5472 218.765   8
  -4  14  13 187.166 251.745   8
  -4  14  13-1042.66 509.540   5
   4 -14  13-1449.75 655.027   1
   4 -14 -13-662.874 382.429   3
  -4  14 -13-160.369 267.136   7
   4 -14  13-17.1214 322.555   4
  -4  14 -14-123.626 646.563   6
  -4 -14 -14 498.442 304.934   3
   4  14  14-377.110 587.941   5
   4  14  14 304.687 242.206   8
  -4  14  14 204.873 262.479   8
  -4  14  14 1217.62 520.845   5
   4 -14 -14 611.662 391.500   3
  -4  14 -14-13.5581 301.504   7
   4 -14  14 391.794 666.987   1
   4 -14  14 34.9036 331.882   4
  -4 -14 -15 281.691 782.413   2
  -4  14 -15-150.553 576.156   6
  -4 -14 -15 238.179 297.353   3
   4  14  15-128.473 580.050   5
   4  14  15 112.153 235.123   8
  -4  14  15 205.122 262.515   8
  -4  14  15 340.716 486.045   5
  -4  14 -15 27.5176 279.445   7
   4 -14 -15 228.561 365.451   3
   4 -14  15 92.9283 607.321   1
   4 -14  15 88.8757 299.588   4
  -4  14 -16-482.492 588.324   6
  -4 -14 -16 116.645 305.146   3
   4  14  16 236.560 603.374   5
   4  14  16 12.7177 236.260   8
  -4  14  16 177.761 260.069   8
  -4  14  16-391.736 492.903   5
  -4  14 -16-55.8255 267.940   7
   4 -14 -16 42.1055 371.790   3
   4 -14  16-108.900 304.556   4
   4 -14  16-63.2674 662.776   1
   4 -14  17 32.4045 651.281   1
  -4  14 -17-25.6948 585.052   6
  -4 -14 -17-121.526 331.362   3
   4  14  17-1071.17 621.687   5
  -4  14  17-177.659 254.958   8
  -4  14  17-93.4057 506.039   5
  -4  14 -17-28.2995 268.004   7
   4 -14 -17 42.6035 367.487   3
   4 -14  17-203.123 309.074   4
  -4  14 -18-52.1056 604.703   6
  -4 -14 -18 96.6798 811.159   2
   4 -14  18-33.3114 637.850   1
  -4 -14 -18-36.2001 346.614   3
   4  14  18 136.495 636.495   5
  -4  14  18-13.6607 259.174   8
  -4  14  18 518.764 520.332   5
  -4  14 -18 14.3358 281.773   7
   4 -14 -18-236.748 379.532   3
   4 -14  18 412.952 339.237   4
  -4  14 -19 105.351 612.956   6
  -4 -14 -19 32.7151 793.671   2
  -4 -14 -19-18.7046 350.422   3
   4  14  19-194.058 644.015   5
   4  14  19 13.3971 263.605   8
  -4  14  19 163.936 274.845   8
  -4  14  19-333.513 536.614   5
   4 -14 -19-218.218 373.720   3
   4 -14  19-19.2436 327.914   4
  -4  14 -20-641.031 731.289   6
  -4 -14 -20-1489.31 850.913   2
  -4 -14 -20-288.757 394.874   3
   4  14  20-872.275 717.230   5
   4  14  20-190.461 272.291   8
  -4  14  20-68.4176 274.850   8
  -4  14  20-1706.20 588.854   5
   4 -14 -20-21.9687 414.764   3
   4 -14  20-526.738 383.997   4
  -4  14 -21-458.698 692.075   6
  -4 -14 -21-1239.95 903.971   2
   4 -14  21-862.034 794.817   1
  -4 -14 -21-197.536 405.763   3
   4  14  21-57.2787 702.657   5
   4  14  21-193.226 283.426   8
  -4  14  21-109.793 270.524   8
  -4  14 -21-474.212 309.572   7
   4 -14 -21-1036.89 430.715   3
   4 -14  21-417.412 393.334   4
  -4  14 -22-81.7351 621.938   6
  -4 -14 -22-101.906 828.184   2
   4 -14  22-118.966 851.862   1
  -4 -14 -22 60.6061 396.500   3
   4  14  22-86.7505 692.142   5
   4  14  22-223.984 280.282   8
  -4  14  22 41.3715 275.433   8
  -4  14 -22 29.9057 293.851   7
   4 -14 -22 132.611 367.640   3
   4 -14  22 20.0858 361.876   4
  -4  14 -23 438.616 649.408   6
  -4 -14 -23-34.4988 832.066   2
   4 -14  23 467.191 897.748   1
  -4 -14 -23-82.4141 395.036   3
   4  14  23 57.9301 696.248   5
   4  14  23 56.7531 279.182   8
  -4  14 -23 90.4005 293.078   7
   4 -14  23-202.497 350.827   4
   4 -14  24-430.393 364.940   4
  -4 -14 -24-35.0845 699.084   2
  -4 -14 -24 125.901 405.668   3
   4  14  24 409.867 703.815   5
   5 -14   0-190.493 257.104   4
   5 -14   2 63.3818 432.679   1
  -5  14  -2-13.2893 242.646   7
  -5  14  -3 52.6243 251.001   7
   5 -14   3-329.464 452.493   1
   5 -14   3-149.129 238.026   4
  -5  14  -3 66.5073 558.042   6
  -5  14  -4 267.957 577.447   6
  -5  14  -4-13.1672 266.160   7
   5 -14   4 551.540 278.299   4
   5 -14   4-22.5662 475.945   1
  -5  14  -5-157.449 556.471   6
  -5  14  -5-91.2794 250.406   7
   5 -14   5 253.296 264.055   4
   5 -14   5 70.5477 507.855   1
  -5  14  -6 575.690 601.582   6
   5 -14   6 24.1666 514.756   1
  -5  14   6 116.222 242.350   8
  -5  14  -6 52.1590 250.091   7
   5 -14   6-57.4346 261.479   4
  -5  14  -7 278.544 578.425   6
   5 -14   7 552.168 517.671   1
  -5  14   7 203.562 261.386   8
  -5  14   7-299.109 433.860   5
  -5  14  -7-12.9762 243.272   7
   5 -14  -7-122.361 382.170   3
   5 -14   7 175.109 275.050   4
  -5  14  -8 187.323 586.630   6
   5 -14   8 334.821 550.919   1
  -5  14   8 124.934 262.230   8
  -5  14   8-40.4221 430.006   5
  -5  14  -8-117.105 248.143   7
   5 -14  -8-102.113 372.345   3
   5 -14   8 14.8904 284.353   4
  -5  14  -9-312.019 592.436   6
   5 -14   9-26.4116 534.019   1
  -5  14   9-84.4050 262.277   8
  -5  14   9 20.4692 431.841   5
  -5  14  -9-78.2551 271.319   7
   5 -14  -9-471.285 372.627   3
   5 -14   9 15.1973 267.317   4
  -5  14 -10-484.666 579.046   6
   5 -14  10 81.9963 553.849   1
  -5  14  10 155.558 270.052   8
  -5  14  10-82.6961 445.049   5
  -5  14 -10 13.1263 258.928   7
   5 -14 -10-370.602 374.272   3
   5 -14  10 169.664 280.796   4
  -5  14 -11-24.4867 587.103   6
   5  14  11 415.332 505.510   5
   5 -14  11 83.8984 563.315   1
  -5  14  11-187.277 273.253   8
  -5  14  11 460.148 461.978   5
  -5  14 -11 132.357 267.248   7
   5 -14 -11 41.6374 365.926   3
   5 -14  11-299.254 275.962   4
  -5 -14 -11 27.1140 631.021   2
  -5  14 -12 516.526 638.382   6
   5  14  12 541.230 554.774   5
  -5  14  12-14.2955 278.442   8
  -5  14  12 655.553 485.898   5
   5 -14  12-28.5912 616.139   1
  -5  14 -12-106.940 278.838   7
   5 -14 -12-293.134 372.090   3
   5 -14  12-64.7649 306.292   4
  -5 -14 -12-1287.97 707.463   2
  -5  14 -13-323.290 669.091   6
  -5 -14 -13-13.3692 255.130   3
   5  14  13-1157.45 611.826   5
  -5  14  13-141.216 267.615   8
  -5  14  13 21.3666 467.459   5
  -5  14 -13 13.5577 291.379   7
   5 -14  13-1665.27 663.343   1
   5 -14 -13 315.998 372.967   3
   5 -14  13-248.076 321.685   4
  -5 -14 -13-345.141 700.263   2
  -5  14 -14 300.313 608.766   6
  -5 -14 -14 173.537 273.825   3
   5  14  14 690.981 632.763   5
   5  14  14 715.076 240.796   8
  -5  14  14-139.102 267.415   8
  -5  14 -14-27.4628 275.294   7
   5 -14  14 120.412 598.901   1
   5 -14 -14 42.3527 368.502   3
   5 -14  14 506.887 309.735   4
  -5 -14 -14 1536.19 779.366   2
  -5  14 -15-75.9465 612.267   6
  -5 -14 -15-437.635 295.978   3
   5  14  15-294.628 586.831   5
   5  14  15 35.6334 229.053   8
  -5  14  15-136.818 260.583   8
  -5  14 -15 41.7583 282.730   7
   5 -14 -15-446.664 357.788   3
   5 -14  15-138.784 293.936   4
   5 -14  15-61.5478 596.427   1
  -5  14 -16-409.953 616.613   6
  -5 -14 -16-249.486 321.399   3
   5  14  16-936.389 600.775   5
  -5  14  16-121.097 257.436   8
  -5  14 -16 28.2320 267.859   7
   5 -14 -16-298.757 354.059   3
   5 -14  16-70.8987 315.861   4
   5 -14  16 62.9946 641.480   1
  -5 -14 -17 872.687 753.666   2
  -5  14 -17 387.607 619.104   6
  -5 -14 -17-335.617 356.356   3
   5  14  17 259.561 590.360   5
  -5  14  17 145.639 250.969   8
  -5  14 -17 143.207 289.653   7
   5 -14  17 109.308 319.338   4
   5 -14  17 96.8740 620.013   1
  -5 -14 -18 31.5863 774.558   2
   5 -14  18 66.4013 663.950   1
  -5  14 -18 235.350 632.342   6
  -5 -14 -18 466.913 374.469   3
   5  14  18 211.895 625.864   5
   5  14  18-102.263 253.550   8
  -5  14  18-104.350 244.846   8
  -5  14 -18 58.1219 295.256   7
   5 -14  18 464.924 352.840   4
  -5 -14 -19-1055.75 789.752   2
  -5  14 -19 291.759 655.352   6
   5  14  19-221.747 252.031   8
  -5 -14 -19-254.302 383.842   3
   5  14  19-674.924 676.059   5
   5 -14  19 151.778 342.774   4
  -5  14 -20-563.366 716.694   6
  -5 -14 -20-20.4459 425.040   3
   5  14  20-984.118 699.131   5
   5  14  20-53.1399 268.269   8
   5 -14  20-58.1662 369.777   4
  -5 -14 -21-1673.30 850.305   2
   5 -14  21-556.487 761.546   1
  -5  14 -21 81.5686 645.218   6
  -5 -14 -21 422.549 429.138   3
   5  14  21-27.5966 672.823   5
   5  14  21 202.356 256.925   8
  -5  14 -21 45.5966 305.777   7
   5 -14  21-355.339 363.604   4
  -5 -14 -22-434.561 825.705   2
  -5  14 -22-247.367 661.864   6
   5 -14  22 507.277 802.920   1
  -5 -14 -22 65.1418 418.093   3
   5  14  22 1363.16 686.095   5
   5  14  22 178.200 270.915   8
  -5  14 -22-15.3968 310.665   7
   5 -14  22-81.0259 367.815   4
  -5 -14 -23 711.748 838.472   2
  -5  14 -23 138.858 657.313   6
  -5 -14 -23 199.758 430.054   3
   5  14  23 140.405 664.639   5
   5  14  23 13.9116 261.355   8
   5 -14  23-287.615 361.668   4
   6 -14   0 19.6287 388.184   1
  -6  14   0-68.2825 261.517   7
   6 -14   1-19.9889 395.807   1
  -6  14  -1 13.8133 259.183   7
   6 -14   1 75.5429 231.944   4
  -6  14  -1 162.553 582.703   6
   6 -14   2-144.272 415.260   1
  -6  14  -2 13.9762 265.994   7
   6 -14   2-193.122 239.711   4
  -6  14  -2 92.1723 587.630   6
   6 -14   3 21.2913 425.240   1
  -6  14  -3 55.7652 274.324   7
   6 -14   3-65.6477 241.144   4
  -6  14  -3-256.298 602.089   6
   6 -14   4 21.7898 434.120   1
  -6  14  -4-13.9786 274.698   7
   6 -14   4 13.3915 244.512   4
  -6  14  -4 23.1682 606.087   6
   6 -14   5-22.6391 451.623   1
  -6  14  -5 13.7759 278.528   7
   6 -14   5 163.890 243.872   4
  -6  14  -5-352.194 587.339   6
  -6  14   6-210.491 314.962   8
   6 -14   6 23.2089 460.118   1
  -6  14  -6 137.704 269.937   7
   6 -14   6 13.8983 261.479   4
  -6  14  -6 491.685 598.797   6
  -6  14   7 280.085 324.696   8
  -6  14  -7-13.5790 262.896   7
   6 -14   7 212.533 264.470   4
   6 -14   7-192.881 520.726   1
  -6  14  -7-280.632 595.008   6
  -6  14  -8 648.029 580.852   6
  -6  14   8-133.924 325.270   8
  -6  14  -8 27.1745 282.203   7
   6 -14   8-230.193 276.652   4
   6 -14   8-49.4576 504.113   1
  -6  14  -9 384.825 611.418   6
  -6  14   9 297.589 313.591   8
  -6  14  -9-26.9648 273.854   7
   6 -14   9 14.6748 259.564   4
   6 -14   9-1014.30 525.929   1
  -6  14 -10-735.600 654.874   6
  -6  14  10-419.832 324.621   8
  -6  14 -10 27.0637 263.886   7
   6 -14  10-29.9469 285.023   4
   6 -14  10-606.292 566.577   1
  -6  14 -11 739.418 675.846   6
   6 -14  11 215.980 593.749   1
  -6  14  11 312.670 306.896   8
  -6  14 -11 13.6063 284.383   7
   6 -14  11 791.946 325.227   4
  -6  14 -12 124.001 610.703   6
   6 -14  12-912.219 561.610   1
  -6  14  12 120.439 289.663   8
  -6  14 -12 27.2390 269.263   7
   6 -14  12-342.366 291.390   4
  -6  14 -13-228.398 598.573   6
   6 -14  13-143.006 591.204   1
  -6  14  13 144.573 274.278   8
  -6  14 -13-13.7398 273.794   7
   6 -14  13 142.466 278.284   4
  -6  14 -14-332.803 601.146   6
   6 -14  14-321.886 575.778   1
  -6  14 -14 13.8832 271.796   7
   6 -14  14 194.387 282.926   4
  -6  14 -15-25.6919 622.254   6
   6 -14  15 329.392 596.594   1
  -6  14 -15-14.0478 267.905   7
   6 -14  15-99.4949 299.656   4
  -6  14 -16 51.9330 619.411   6
  -6 -14 -16 393.322 324.924   3
   6  14  16-93.5613 562.259   5
   6 -14  16 30.6697 622.973   1
  -6  14 -16 14.1984 279.049   7
   6 -14  16-222.358 303.511   4
  -6 -14 -16 311.104 669.994   2
  -6  14 -17 287.305 643.612   6
  -6 -14 -17-53.8513 342.883   3
   6  14  17 554.141 566.812   5
   6 -14  17 62.8905 634.969   1
  -6  14 -17-115.148 282.968   7
   6 -14  17 35.0515 304.723   4
  -6 -14 -17 1331.54 689.933   2
  -6  14 -18-132.113 688.414   6
  -6 -14 -18-193.973 387.684   3
   6  14  18-1042.96 606.605   5
   6 -14  18-1195.79 716.839   1
  -6  14 -18-29.2041 298.359   7
   6 -14  18 180.621 324.270   4
  -6 -14 -18 177.372 704.102   2
  -6  14 -19-26.7411 747.056   6
  -6 -14 -19 309.816 443.804   3
   6 -14  19 444.239 390.599   4
  -6  14 -20 809.355 686.861   6
  -6 -14 -20 43.8568 416.501   3
   6  14  20-490.700 618.167   5
   6  14  20-62.7046 246.137   8
   6 -14  20 104.386 687.228   1
   6 -14  20 76.3171 342.701   4
  -6 -14 -20 61.5677 721.582   2
  -6  14 -21-273.024 662.362   6
  -6 -14 -21-45.9457 432.184   3
   6  14  21 444.765 613.263   5
   6  14  21-76.8559 255.840   8
   6 -14  21-36.1522 694.068   1
  -6  14 -21 122.212 316.129   7
   6 -14  21-195.337 357.713   4
  -6 -14 -21 125.187 739.459   2
  -6  14 -22-276.910 643.317   6
  -6 -14 -22 359.104 466.317   3
   6  14  22-341.969 639.790   5
   6 -14  22 200.309 354.359   4
  -6 -14 -22-381.473 743.188   2
   7 -14   0 36.5838 209.548   4
   7 -14   0 79.5873 402.707   1
  -7  14   0-459.942 778.895   6
   7 -14   1-180.906 407.964   1
  -7  14  -1 114.491 278.259   7
   7 -14  -1 262.207 235.685   4
   7 -14   1 87.1045 242.010   4
  -7  14  -1 59.0491 731.664   6
   7 -14   2 20.5441 407.892   1
  -7  14  -2 14.4874 273.077   7
   7 -14   2-189.764 244.656   4
  -7  14  -2-282.793 707.991   6
   7 -14   3 147.209 416.399   1
  -7  14  -3-14.5923 276.794   7
   7 -14   3 12.8678 223.304   4
  -7  14  -3 27.2293 689.053   6
   7 -14   4-21.4016 435.858   1
  -7  14  -4 14.5409 273.369   7
   7 -14   4 183.048 228.221   4
  -7  14  -4 291.306 672.272   6
   7 -14   5-154.342 439.414   1
  -7  14  -5 58.2319 278.954   7
   7 -14   5 199.084 238.997   4
  -7  14  -5 308.982 663.495   6
   7 -14   6 157.590 457.977   1
  -7  14  -6 43.2585 287.530   7
   7 -14   6 94.3859 243.949   4
  -7  14  -6 654.080 636.233   6
   7 -14   7 23.2620 482.618   1
  -7  14   7 158.486 446.210   8
  -7  14  -7 187.261 282.252   7
   7 -14   7 82.1317 241.283   4
  -7  14  -7 175.953 602.794   6
   7 -14   8 809.149 530.631   1
  -7  14  -8-14.1751 299.770   7
   7 -14   8 139.208 263.865   4
  -7  14  -8 396.111 647.404   6
   7 -14   9-123.475 503.421   1
  -7  14  -9 14.1803 286.729   7
   7 -14   9 254.759 273.588   4
  -7  14  -9-498.078 654.309   6
   7 -14  10 25.2735 503.570   1
  -7  14 -10-142.003 281.244   7
   7 -14  10 360.566 275.498   4
  -7  14 -10-222.381 627.213   6
  -7  14 -11-42.1197 267.760   7
   7 -14  11 362.107 538.888   1
   7 -14  11 14.7188 266.382   4
  -7  14 -11-25.2275 621.107   6
  -7  14 -12 327.429 625.606   6
  -7  14 -12 14.1062 269.801   7
   7 -14  12-80.4070 547.653   1
   7 -14  12 89.8572 258.252   4
  -7  14 -13-179.221 638.945   6
  -7  14 -13-56.7746 280.009   7
   7 -14  13 199.240 277.806   4
   7 -14  13-27.4145 533.263   1
  -7  14 -14 77.0552 608.988   6
  -7  14 -14 57.2428 280.513   7
   7 -14  14 15.6387 270.052   4
   7 -14  14-280.492 554.682   1
  -7  14 -15-129.115 609.610   6
  -7  14 -15 143.113 279.141   7
   7 -14  15-224.594 279.780   4
   7 -14  15-57.3879 562.469   1
  -7  14 -16 105.661 645.080   6
  -7  14 -16 28.9306 278.814   7
   7 -14  16 16.3845 282.001   4
   7 -14  16-357.478 603.653   1
  -7  14 -17-319.813 755.927   6
  -7  14 -17-29.2904 322.157   7
   7 -14  17-488.333 333.509   4
   7 -14  17-305.137 735.750   1
   7 -14  18-606.489 356.998   4
  -7  14 -19-54.0944 688.264   6
   7 -14  19-179.582 333.973   4
  -7  14 -20-54.4584 664.993   6
   7 -14  20 33.1871 679.697   1
  -7  14 -20-45.8269 299.507   7
   7 -14  20 277.357 338.180   4
  -7  14 -21-275.599 682.925   6
   7 -14  21-19.1316 345.267   4
  -8  14   0-581.225 1540.99   6
   8 -14   1 292.224 242.434   4
  -8  14  -1-436.958 1279.42   6
   8 -14   2-76.9939 234.732   4
  -8  14  -2 213.002 1089.50   6
   8 -14   3 128.678 235.304   4
  -8  14  -3-265.352 968.739   6
   8 -14   3-275.683 423.543   1
   8 -14   4 259.518 443.579   1
  -8  14  -4 60.6153 279.369   7
   8 -14   4 77.9036 238.756   4
  -8  14  -4 861.594 930.810   6
   8 -14   5 21.9124 465.246   1
  -8  14  -5 166.813 300.345   7
   8 -14   5 26.1572 237.145   4
  -8  14  -5 32.1825 826.762   6
   8 -14   6-22.4311 444.721   1
  -8  14  -6-105.998 297.618   7
   8 -14   6-13.2085 239.453   4
  -8  14  -6-180.947 758.500   6
   8 -14   7-182.533 440.972   1
  -8  14  -7 120.920 288.691   7
   8 -14   7 40.0720 233.352   4
  -8  14  -7 431.108 711.598   6
   8 -14   8 23.2427 475.495   1
  -8  14  -8-29.9550 271.945   7
   8 -14   8 148.725 245.507   4
  -8  14  -8 165.120 694.309   6
   8 -14   9 23.9473 463.168   1
  -8  14  -9-59.8120 274.065   7
   8 -14   9-356.636 241.823   4
  -8  14  -9 53.1407 645.940   6
   8 -14  10-122.196 483.297   1
  -8  14 -10 44.4102 279.262   7
   8 -14  10 13.9272 247.495   4
  -8  14 -10 105.315 644.022   6
   8 -14  11-50.4428 498.774   1
  -8  14 -11-29.6272 281.386   7
   8 -14  11 127.694 245.029   4
  -8  14 -11-103.112 631.587   6
   8 -14  12-51.5047 512.056   1
  -8  14 -12-59.3874 277.843   7
   8 -14  12-289.275 272.955   4
  -8  14 -12-129.136 612.040   6
   8 -14  13-52.6000 490.722   1
  -8  14 -13-119.243 283.226   7
  -8  14 -13 51.1068 613.772   6
  -8  14 -14 234.537 647.771   6
   8 -14  14-107.424 527.089   1
  -8  14 -14 44.2732 288.906   7
   8 -14  14-45.5160 265.828   4
  -8  14 -15-806.016 683.097   6
   8 -14  15-27.8183 557.637   1
  -8  14 -15-59.4483 307.911   7
   8 -14  15 124.226 273.815   4
   8 -14  16 255.947 629.446   1
  -8  14 -16 14.9918 333.085   7
   8 -14  16 575.429 323.297   4
  -8  14 -17-106.163 661.854   6
   8 -14  17-29.0747 558.240   1
  -8  14 -17-15.1459 310.277   7
   8 -14  17-147.709 304.124   4
  -8  14 -18-27.1347 698.095   6
   8 -14  18-16.9527 284.471   4
  -8  14 -19-246.294 701.901   6
   8 -14  19-261.466 315.546   4
   8 -14  20-126.299 334.465   4
  -9  14  -3-322.745 1975.51   6
   9 -14   4 52.9714 226.128   4
  -9  14  -4 593.338 1479.55   6
   9 -14   5-92.6325 240.771   4
  -9  14  -5-387.387 1207.52   6
   9 -14   6 13.1764 223.014   4
  -9  14  -6-701.258 986.508   6
   9 -14   6 22.5338 438.881   1
   9 -14   7-92.5981 235.859   4
   9 -14   7 364.651 437.577   1
   9 -14   8 69.9170 455.086   1
  -9  14  -8-15.6118 280.427   7
   9 -14   8-26.5924 232.604   4
  -9  14  -8-367.592 813.401   6
   9 -14   9 141.924 482.734   1
  -9  14  -9-77.7973 293.124   7
   9 -14   9 40.2841 234.530   4
  -9  14  -9-680.868 758.262   6
   9 -14  10 24.2374 451.911   1
  -9  14 -10 15.5088 310.666   7
   9 -14  10-353.352 236.165   4
  -9  14 -10-29.2689 731.793   6
   9 -14  11 690.144 532.037   1
  -9  14 -11 15.4873 291.140   7
   9 -14  11 234.827 244.645   4
  -9  14 -11-83.7236 683.456   6
   9 -14  12-175.587 479.037   1
  -9  14 -12-15.3712 300.962   7
   9 -14  12 140.809 236.337   4
  -9  14 -12 164.314 686.650   6
   9 -14  13-1522.96 560.822   1
  -9  14 -13-61.5653 334.572   7
   9 -14  13 14.3825 265.921   4
  -9  14 -13-505.947 715.167   6
   9 -14  14 78.8895 612.761   1
  -9  14 -14 92.5940 341.215   7
   9 -14  14 398.239 306.062   4
  -9  14 -14 1247.40 741.486   6
   9 -14  15-80.4057 507.096   1
  -9  14 -15 15.5056 314.371   7
   9 -14  15-257.629 274.046   4
  -9  14 -15 261.808 658.540   6
   9 -14  16-1229.49 568.220   1
  -9  14 -16-92.7381 305.754   7
   9 -14  16 46.9044 263.819   4
  -9  14 -16-346.254 676.793   6
  -9  14 -17 159.271 686.513   6
   9 -14  17 278.719 560.143   1
  -9  14 -17 124.612 320.996   7
   9 -14  17 16.1092 289.508   4
  -9  14 -18-53.9490 704.149   6
   9 -14  18 33.4168 318.216   4
  10 -14   8-305.920 232.196   4
 -10  14  -8 137.017 1095.43   6
  10 -14   9 40.0515 235.182   4
 -10  14  -9 936.227 997.682   6
  10 -14  10-269.250 241.292   4
 -10  14 -10-139.946 900.352   6
  10 -14  10-24.1875 499.262   1
  10 -14  11 95.2723 254.849   4
 -10  14 -11 862.416 922.662   6
  10 -14  11 612.398 579.686   1
  10 -14  12-250.568 527.580   1
 -10  14 -12-79.8205 326.608   7
  10 -14  12-124.664 265.398   4
 -10  14 -12-897.527 842.591   6
  10 -14  13 228.800 499.029   1
 -10  14 -13-31.8813 309.393   7
  10 -14  13 141.431 258.390   4
 -10  14 -13 113.345 714.374   6
  10 -14  14 154.861 502.789   1
 -10  14 -14 63.7486 313.344   7
  10 -14  14-217.704 257.704   4
 -10  14 -14-498.501 711.510   6
  10 -14  15 26.2220 525.661   1
 -10  14 -15-15.9618 304.865   7
  10 -14  15 119.463 255.804   4
 -10  14 -15 53.7348 702.380   6
  10 -14  16 26.8786 409.018   1
  10 -14  16-417.183 290.913   4
 -10  14 -16 80.2524 696.734   6
  11 -14  14-260.531 255.296   4
 -11  14 -14 205.387 736.536   6
   0 -15  -3 987.358 718.739   2
   0  15   3 222.804 210.017   8
   0 -15  -4 84.7993 717.482   2
   0 -15  -4-55.1580 284.060   3
   0  15   4 143.033 492.831   5
   0  15   4 97.1805 200.615   8
   0  15  -4-61.1752 320.800   7
   0 -15   5-14.3606 245.943   4
   0  15  -5-21.6796 479.327   6
   0 -15  -5 366.777 709.037   2
   0 -15  -5 155.247 278.751   3
   0  15   5-515.630 507.796   5
   0  15   5-109.189 209.630   8
   0  15  -5 115.343 322.579   7
   0 -15   6-159.557 265.360   4
   0  15  -6-286.573 505.631   6
   0 -15  -6-141.292 729.727   2
   0 -15  -6-115.480 278.349   3
   0  15   6 626.320 485.504   5
   0  15   6-133.462 220.912   8
   0  15  -6 17.7607 346.012   7
   0 -15   7 248.971 254.903   4
   0 -15  -7-452.510 728.803   2
   0 -15  -7 649.257 299.664   3
   0  15   7 532.224 495.188   5
   0  15   7-33.8215 212.806   8
   0  15  -7-363.103 363.228   7
   0 -15   8-59.0998 255.716   4
   0 -15  -8 568.649 717.355   2
   0 -15  -8-105.545 293.805   3
   0  15   8-1211.27 532.176   5
   0  15   8 11.4854 217.454   8
   0  15  -8-20.4382 373.834   7
   0 -15   9 14.9005 253.144   4
   0 -15  -9 200.499 714.823   2
   0 -15  -9-123.269 301.726   3
   0  15   9-132.121 524.402   5
   0  15   9-139.876 220.602   8
   0  15  -9 21.6970 407.106   7
   0 -15  10 75.2994 259.745   4
   0 -15 -10 780.446 741.488   2
   0 -15 -10-236.031 303.792   3
   0  15  10-558.135 546.597   5
   0  15  10 307.703 243.060   8
   0  15 -10 182.115 437.687   7
   0 -15  11 15.1643 255.478   4
   0 -15 -11-146.093 765.508   2
   0 -15 -11-273.321 308.373   3
   0  15  11-980.105 578.172   5
   0  15  11 60.5861 235.848   8
   0  15 -11 70.6150 456.746   7
   0 -15 -12 3428.17 909.515   2
   0  15  12 2953.02 653.226   5
   0 -15 -12 410.218 365.141   3
   0  15  12 394.076 274.857   8
   0  15 -12-23.9554 478.601   7
   0  15  13-959.167 596.082   5
   0 -15 -13-958.309 825.410   2
   0 -15 -13 67.0690 324.929   3
   0  15  13 100.130 241.948   8
   0  15 -13-23.9804 442.995   7
   0  15  14-342.254 555.451   5
   0 -15 -14-394.233 343.203   3
   0 -15 -14 60.7770 763.117   2
   0  15  14 267.194 251.025   8
   0  15 -14-189.048 452.496   7
   0  15  15 801.469 569.492   5
   0 -15 -15 1297.05 809.914   2
   0 -15 -15 227.792 338.104   3
   0  15  15 506.533 262.632   8
   0  15  16 667.437 581.031   5
   0 -15 -16 567.562 802.773   2
   0 -15 -16-376.366 347.714   3
   0  15  16 92.4484 262.482   8
   0  15  17 706.682 628.736   5
   0 -15 -17-546.425 828.044   2
   0  15  17 308.872 265.141   8
   0 -15 -17 293.252 343.624   3
   0  15  18 402.322 606.709   5
   0  15  18 81.9121 269.778   8
   0 -15 -18 98.4841 829.616   2
   0 -15 -18 243.815 352.709   3
   0  15  19-902.343 706.376   5
   0 -15 -19-307.288 396.191   3
   0  15  20 27.9977 669.228   5
   0  15  20-169.373 287.912   8
   0 -15 -20-255.408 383.058   3
   0  15  21-825.342 678.909   5
   0  15  21-301.475 294.422   8
   0 -15 -21 71.2576 909.849   2
   0 -15 -21 603.509 381.633   3
   0  15  22 494.391 692.005   5
   0 -15 -22 408.333 391.109   3
   1  15   2 9.95767 186.835   8
  -1 -15  -2 323.208 669.511   2
  -1 -15  -3 252.581 705.291   2
  -1 -15  -3 12.6747 238.447   3
   1 -15  -3-79.9467 699.630   2
   1  15   3 1215.86 565.714   5
   1  15   3-176.545 195.104   8
  -1 -15  -4-52.0014 247.592   3
   1 -15  -4-423.908 701.952   2
   1  15   4-792.285 539.040   5
  -1  15   4 884.805 462.748   5
   1  15   4 117.784 203.100   8
  -1  15   4 63.4163 198.012   8
  -1  15  -4-52.6927 271.037   7
   1  15  -4 23.0614 453.186   7
   1 -15   5-46.7054 275.286   4
  -1 -15  -5-380.465 714.844   2
  -1  15  -5-199.405 516.749   6
  -1 -15  -5-93.5618 256.297   3
   1  15   5 202.646 518.970   5
   1 -15  -5-423.905 681.247   2
   1 -15  -5 117.117 277.272   3
  -1  15   5-117.612 457.224   5
   1  15   5-219.717 214.137   8
  -1  15   5-375.931 208.572   8
  -1  15  -5-13.7025 269.968   7
   1  15  -5 54.0022 547.317   7
   1 -15   6 188.518 279.190   4
  -1 -15  -6 1274.76 781.063   2
  -1  15  -6-360.299 498.883   6
  -1 -15  -6-164.452 260.671   3
   1  15   6 247.565 532.693   5
   1 -15  -6-957.683 682.886   2
   1 -15  -6 299.693 297.088   3
  -1  15   6 339.834 467.337   5
   1  15   6 78.5374 215.713   8
  -1  15   6-87.0694 212.004   8
  -1  15  -6 14.2765 277.361   7
   1  15  -6-31.8802 593.932   7
   1 -15   7-79.2741 280.879   4
  -1  15  -7 22.8631 516.497   6
  -1 -15  -7-387.686 750.620   2
  -1 -15  -7 14.1151 256.595   3
   1  15   7-67.6204 510.175   5
   1 -15  -7-776.542 720.729   2
  -1  15   7 882.338 499.047   5
   1 -15  -7 45.9251 299.310   3
   1  15   7 11.4310 211.764   8
  -1  15   7 77.9257 218.219   8
  -1  15  -7-14.8869 301.670   7
   1  15  -7-37.5313 728.148   7
   1 -15   8 176.027 280.033   4
  -1  15  -8 394.473 527.257   6
  -1 -15  -8-149.459 725.820   2
  -1 -15  -8-72.3306 278.195   3
   1  15   8-363.470 533.487   5
  -1  15   8 41.9268 481.285   5
   1 -15  -8-703.604 725.957   2
   1 -15  -8-125.274 306.256   3
   1  15   8-335.933 228.050   8
  -1  15   8 67.8611 218.128   8
  -1  15  -8-62.1165 307.185   7
   1  15  -8 174.357 846.808   7
   1 -15   9-64.5855 270.940   4
  -1  15  -9 23.4479 518.423   6
  -1 -15  -9-420.727 776.564   2
  -1 -15  -9 148.230 280.783   3
   1  15   9 160.484 527.265   5
  -1  15   9 192.876 497.854   5
   1 -15  -9-16.0117 301.226   3
   1 -15  -9 685.076 722.485   2
   1  15   9 11.7721 223.297   8
  -1  15   9-46.1994 221.745   8
  -1  15  -9-16.1457 320.884   7
   1  15  -9 49.1044 950.197   7
   1 -15  10 16.3754 289.228   4
  -1  15 -10-261.487 540.114   6
  -1 -15 -10 393.013 739.506   2
  -1 -15 -10 30.3584 293.381   3
   1  15  10 23.2427 545.804   5
  -1  15  10 21.8320 484.645   5
   1 -15 -10-32.7441 317.669   3
   1  15  10 120.078 226.881   8
   1 -15 -10-250.996 696.529   2
  -1  15  10 141.096 228.759   8
  -1  15 -10-16.7218 330.714   7
   1 -15  11-16.5107 283.932   4
  -1  15 -11 264.888 551.364   6
  -1 -15 -11-1245.87 814.090   2
  -1 -15 -11 155.419 314.017   3
   1  15  11-641.074 591.240   5
  -1  15  11-290.594 545.110   5
   1  15  11-73.1788 241.458   8
   1 -15 -11-418.380 344.514   3
  -1  15  11 23.9387 238.739   8
   1 -15 -11-1302.81 756.191   2
  -1  15 -11-17.2173 322.758   7
   1 -15  12 316.106 315.587   4
  -1  15 -12 365.710 581.234   6
  -1 -15 -12 4442.78 925.833   2
  -1 -15 -12 748.127 347.286   3
   1  15  12 1740.82 657.097   5
  -1  15  12 1488.27 595.364   5
   1  15  12 681.004 280.833   8
   1 -15 -12 564.544 358.408   3
  -1  15  12 861.038 281.752   8
   1 -15 -12 3596.45 861.333   2
  -1  15 -12-35.2123 354.163   7
   1 -15  13 335.043 293.990   4
  -1  15 -13 123.355 520.913   6
  -1 -15 -13-216.543 789.959   2
  -1 -15 -13-65.1839 294.483   3
   1  15  13-912.591 607.249   5
  -1  15  13-583.489 547.576   5
   1  15  13 113.694 244.139   8
   1 -15 -13 279.687 342.215   3
  -1  15  13-25.0427 244.510   8
   1 -15 -13 88.4571 756.897   2
  -1  15 -13-71.4540 342.047   7
   1 -15  14 135.950 295.970   4
  -1  15 -14 24.8450 551.535   6
  -1 -15 -14-531.630 798.978   2
  -1 -15 -14 200.117 321.580   3
   1  15  14 150.271 583.418   5
  -1  15  14-23.9289 525.414   5
   1  15  14 333.598 256.247   8
  -1  15  14 713.602 255.444   8
   1 -15 -14 375.356 362.215   3
   1 -15 -14 299.939 774.907   2
  -1  15 -14-270.010 352.849   7
   1 -15  15 17.0774 279.507   4
  -1  15 -15 226.030 542.347   6
  -1 -15 -15-158.263 784.924   2
  -1 -15 -15 102.422 314.867   3
   1  15  15-435.303 604.469   5
  -1  15  15-24.4116 538.108   5
   1  15  15 52.1189 249.154   8
  -1  15  15 12.9642 242.540   8
   1 -15 -15-127.960 345.316   3
   1 -15 -15-610.776 793.753   2
  -1  15 -15-17.9761 331.097   7
   1 -15  16 291.380 293.284   4
  -1 -15 -16 64.1961 809.857   2
   1  15  16 52.6883 618.173   5
  -1 -15 -16 279.258 342.753   3
   1  15  16 304.372 270.957   8
  -1  15  16 776.159 574.867   5
  -1  15  16 171.423 252.757   8
   1 -15 -16-392.297 336.762   3
   1 -15 -16-529.275 793.336   2
  -1  15 -16-160.309 353.754   7
   1 -15  17-223.443 293.084   4
  -1 -15 -17 65.1969 821.835   2
   1  15  17-970.478 646.438   5
  -1 -15 -17 17.8724 338.714   3
   1  15  17 54.1965 262.065   8
  -1  15  17-487.744 602.895   5
  -1  15  17-177.687 259.484   8
   1 -15 -17 57.3173 344.384   3
   1 -15 -17-731.326 822.924   2
  -1  15 -17 35.0727 332.351   7
   1 -15  18-155.344 287.179   4
  -1 -15 -18 563.971 859.790   2
   1  15  18 54.9393 623.557   5
  -1 -15 -18-36.6069 349.589   3
   1  15  18-247.770 273.982   8
  -1  15  18-104.642 564.976   5
  -1  15  18 347.252 269.911   8
   1 -15 -18 697.181 376.754   3
   1 -15 -18 390.514 827.925   2
  -1  15 -18-17.1638 331.326   7
   1  15  19-449.548 725.154   5
  -1 -15 -19-281.218 384.734   3
   1  15  19-251.676 298.553   8
  -1  15  19-509.147 664.716   5
  -1  15  19 197.604 285.444   8
   1 -15 -19-59.4325 419.973   3
  -1  15 -19 16.7240 353.095   7
   1  15  20-942.713 702.500   5
   1  15  20-142.052 296.382   8
  -1 -15 -20-268.911 383.824   3
  -1  15  20-315.561 287.576   8
  -1  15  20 327.509 628.080   5
   1 -15 -20-506.455 385.339   3
   1 -15 -20-241.293 919.654   2
   1  15  21-321.018 692.222   5
  -1 -15 -21 550.899 395.377   3
  -1  15  21 262.341 291.769   8
  -1  15  21-306.941 637.284   5
   1 -15 -21 103.060 389.346   3
   1 -15 -21 35.6775 888.470   2
   1  15  22-770.283 713.343   5
  -1  15  22 118.548 286.373   8
  -1 -15 -22 443.748 399.375   3
  -1  15  22-113.915 640.885   5
   1 -15 -22-1187.73 976.511   2
   1 -15 -22-231.747 395.794   3
   2  15   2 274.934 653.557   5
  -2 -15  -3-33.8858 213.966   3
   2  15   3 418.434 653.151   5
  -2  15  -3 12.5512 247.592   7
   2 -15   3 25.0553 531.920   1
  -2 -15  -3-624.149 624.596   2
  -2  15  -4-22.2573 517.055   6
   2 -15   4 25.7617 523.888   1
  -2 -15  -4 140.294 219.028   3
   2  15   4 906.581 606.353   5
   2 -15  -4-322.048 671.708   2
   2  15   4-172.530 195.616   8
  -2  15   4-186.682 201.995   8
  -2  15  -4 279.809 260.776   7
   2 -15   4 32.1882 285.997   4
  -2 -15  -4 716.787 662.680   2
  -2  15  -5-22.5950 549.974   6
  -2 -15  -5-303.908 244.861   3
   2  15   5 319.602 573.703   5
   2  15   5-84.7406 200.372   8
  -2  15   5-252.682 463.247   5
   2 -15  -5 673.630 677.837   2
   2 -15  -5 31.0464 306.593   3
  -2  15   5 10.5779 206.021   8
   2 -15   5-26.2371 527.211   1
  -2  15  -5 38.6084 247.401   7
   2 -15   5 357.554 311.607   4
  -2 -15  -5 887.765 706.763   2
  -2 -15  -6-442.926 704.402   2
  -2  15  -6-137.534 540.693   6
  -2 -15  -6 25.1563 236.093   3
   2  15   6-679.712 582.578   5
   2 -15   6 26.8153 563.123   1
   2  15   6 230.366 202.190   8
  -2  15   6-178.871 464.680   5
   2 -15  -6-508.232 317.680   3
   2 -15  -6-633.181 684.950   2
  -2  15   6-183.072 208.793   8
  -2  15  -6-26.2848 261.946   7
   2 -15   6 32.8406 292.793   4
  -2 -15  -7 180.481 742.967   2
  -2  15  -7-395.171 557.346   6
   2 -15   7 380.838 599.638   1
  -2 -15  -7 51.7996 234.030   3
   2  15   7 24.0971 545.939   5
   2  15   7 22.5549 206.237   8
  -2  15   7 80.8508 451.350   5
   2 -15  -7-64.9706 287.759   3
  -2  15   7 76.8707 216.370   8
   2 -15  -7-1182.10 685.110   2
  -2  15  -7-13.4570 256.306   7
   2 -15   7 315.373 294.063   4
  -2 -15  -8 919.758 764.518   2
  -2  15  -8 307.291 568.222   6
  -2 -15  -8 133.903 255.773   3
   2  15   8 240.720 546.950   5
   2  15   8-150.361 220.358   8
  -2  15   8 124.090 474.797   5
  -2  15   8-79.2154 219.631   8
   2 -15  -8 66.4453 312.126   3
   2 -15  -8 52.6807 692.533   2
  -2  15  -8-510.636 270.585   7
   2 -15   8 16.7876 303.870   4
  -2 -15  -9-433.573 749.447   2
  -2  15  -9 71.8718 550.463   6
  -2 -15  -9-194.280 260.343   3
   2  15   9-24.1112 533.087   5
   2  15   9 342.855 226.673   8
  -2  15   9 211.647 477.207   5
  -2  15   9-150.241 223.049   8
   2 -15  -9-67.9803 306.647   3
   2 -15  -9 616.514 682.441   2
  -2  15  -9-14.1612 275.097   7
   2 -15   9-119.564 300.220   4
  -2  15 -10 218.344 555.359   6
  -2 -15 -10 345.098 782.299   2
  -2 -15 -10 143.325 283.430   3
   2  15  10-851.025 591.840   5
   2  15  10 24.1266 223.468   8
  -2  15  10 409.513 493.851   5
  -2  15  10 180.476 219.040   8
   2 -15 -10-295.433 332.307   3
   2 -15 -10-27.2844 710.702   2
  -2  15 -10 72.5911 282.399   7
   2 -15  10-397.119 305.872   4
  -2  15 -11-294.762 581.936   6
  -2 -15 -11-1895.92 851.673   2
  -2 -15 -11-297.251 289.937   3
   2  15  11-24.5382 569.571   5
   2  15  11-36.8610 239.113   8
  -2  15  11-595.794 535.829   5
  -2  15  11 147.331 245.921   8
   2 -15 -11 355.001 354.148   3
   2 -15 -11-1056.78 786.962   2
  -2  15 -11-29.7253 297.657   7
   2 -15  11 17.4492 304.843   4
  -2  15 -12-24.7821 575.980   6
  -2 -15 -12-827.646 824.570   2
  -2 -15 -12-306.532 314.751   3
   2  15  12-124.473 632.621   5
   2  15  12 87.1801 249.980   8
  -2  15  12-361.562 553.941   5
  -2  15  12-212.739 246.870   8
   2 -15 -12-399.335 363.404   3
   2 -15 -12-424.218 769.074   2
  -2  15 -12 30.3919 307.338   7
   2 -15  12-299.631 319.467   4
   2 -15  13 304.215 306.675   4
  -2  15 -13 250.647 548.440   6
  -2 -15 -13-927.612 789.695   2
  -2 -15 -13 173.783 302.015   3
   2  15  13 454.688 608.584   5
   2  15  13 291.302 261.430   8
  -2  15  13-23.0106 522.233   5
  -2  15  13 127.408 241.262   8
   2 -15 -13 723.720 354.987   3
   2 -15 -13 229.998 735.558   2
  -2  15 -13 15.4588 295.159   7
   2 -15  14 144.403 311.272   4
  -2  15 -14 101.359 568.089   6
  -2 -15 -14 419.265 802.975   2
  -2 -15 -14-178.927 307.363   3
   2  15  14-1312.42 632.077   5
   2  15  14 141.523 246.129   8
  -2  15  14-235.699 529.956   5
  -2  15  14-264.275 264.011   8
   2 -15 -14 93.9581 345.198   3
   2 -15 -14-789.168 749.771   2
  -2  15 -14 15.6619 292.283   7
   2 -15  15 18.1906 313.602   4
  -2  15 -15 537.746 586.184   6
  -2 -15 -15 162.702 813.968   2
  -2 -15 -15-150.663 315.798   3
   2  15  15-633.225 614.038   5
   2  15  15 301.880 260.528   8
  -2  15  15-313.839 531.080   5
  -2  15  15 40.2550 251.386   8
   2 -15 -15-96.0061 345.412   3
   2 -15 -15-1366.80 793.238   2
  -2  15 -15-15.8013 310.124   7
   2 -15  16 73.2528 307.406   4
  -2  15 -16-335.052 600.954   6
  -2 -15 -16-656.269 829.767   2
  -2 -15 -16 395.824 324.312   3
   2  15  16 1534.76 660.285   5
   2  15  16 66.6239 254.247   8
  -2  15  16-713.407 562.148   5
  -2  15  16 81.6998 256.297   8
   2 -15 -16 137.354 358.368   3
   2 -15 -16-242.435 783.703   2
  -2  15 -16-15.8712 316.312   7
   2 -15  17-370.189 329.954   4
  -2  15 -17-494.270 585.998   6
  -2 -15 -17 1560.28 854.074   2
  -2 -15 -17-459.556 343.825   3
   2  15  17 136.695 639.130   5
   2  15  17 54.1038 257.973   8
  -2  15  17-226.559 549.860   5
  -2  15  17 262.281 277.407   8
   2 -15 -17 59.8044 348.181   3
   2 -15 -17 247.134 791.819   2
  -2  15 -17-47.6169 313.900   7
   2 -15  18 37.1668 305.900   4
  -2  15 -18 341.315 590.314   6
  -2 -15 -18 235.515 841.627   2
  -2 -15 -18 508.321 365.307   3
   2  15  18-669.981 673.330   5
   2  15  18 384.398 282.554   8
  -2  15  18 69.9271 275.968   8
  -2  15  18-514.919 592.699   5
   2 -15 -18-488.465 390.287   3
   2 -15 -18 378.862 816.466   2
  -2  15 -18-15.8036 301.471   7
   2 -15  19 782.543 392.073   4
  -2  15 -19 738.220 709.599   6
  -2 -15 -19 7686.98 1120.82   2
   2  15  19 4356.96 848.787   5
  -2 -15 -19 1396.28 438.707   3
   2  15  19 780.307 337.870   8
  -2  15  19 835.465 333.140   8
  -2  15  19 2432.83 688.363   5
   2 -15 -19 1474.77 465.235   3
   2 -15 -19 6119.56 1003.87   2
  -2  15 -19 156.771 368.585   7
   2 -15  20-18.8086 317.791   4
  -2  15 -20-106.313 617.989   6
   2  15  20-1286.27 712.727   5
  -2 -15 -20 305.663 383.877   3
  -2  15  20-143.427 284.694   8
  -2  15  20 80.1050 587.401   5
   2 -15 -20 42.5300 396.720   3
   2 -15 -20 333.531 851.073   2
  -2  15 -20 139.536 301.574   7
   2 -15  21 75.2033 334.101   4
   2  15  21 652.513 710.526   5
  -2 -15 -21 294.072 384.287   3
  -2  15  21-348.625 287.979   8
  -2  15  21 81.6177 620.460   5
   2 -15 -21 173.357 396.822   3
   2 -15 -21-863.664 889.435   2
  -2  15 -21-15.2940 301.691   7
   2 -15  22-243.820 334.002   4
  -2 -15 -22-689.271 940.427   2
   2  15  22-211.302 710.417   5
   2  15  22 14.6259 281.268   8
  -2 -15 -22-381.977 400.143   3
  -2  15  22-1433.04 653.769   5
   2 -15 -22-22.1103 398.341   3
   2 -15 -22 252.016 933.979   2
   3  15   2-187.746 759.175   5
   3 -15   2 219.428 507.475   1
  -3  15  -3-357.492 543.338   6
   3  15   3-1298.71 705.667   5
  -3  15  -3-38.6199 257.298   7
   3 -15   3-224.553 528.938   1
   3 -15   3-189.634 288.849   4
  -3  15  -4 157.972 574.131   6
   3  15   4-324.964 621.073   5
   3 -15  -4-284.853 639.351   2
  -3  15  -4 25.8192 256.262   7
   3 -15   4-25.7435 539.974   1
   3 -15   4-32.1930 292.186   4
   3 -15   5 26.3241 545.991   1
  -3  15  -5 365.939 546.044   6
   3  15   5-416.354 612.145   5
  -3  15   5 315.660 459.160   5
  -3  15   5 63.5049 203.507   8
   3 -15  -5 120.244 309.037   3
   3 -15  -5 434.343 662.076   2
  -3  15  -5 13.0213 245.336   7
   3 -15   5-293.486 295.981   4
  -3 -15  -5 814.530 631.064   2
  -3  15  -6-139.032 566.805   6
   3  15   6-226.864 592.435   5
   3 -15   6-135.506 570.967   1
  -3  15   6-560.480 470.873   5
  -3  15   6 55.3946 212.979   8
   3 -15  -6 139.867 332.071   3
   3 -15  -6 934.951 665.349   2
  -3  15  -6 13.1355 257.477   7
   3 -15   6 99.1223 291.291   4
  -3 -15  -6-802.792 659.193   2
  -3  15  -7 46.9340 562.396   6
  -3 -15  -7 45.4059 211.769   3
   3  15   7-49.6437 589.755   5
   3  15   7 331.223 209.765   8
  -3  15   7-163.409 458.607   5
  -3  15   7 329.846 226.040   8
   3 -15  -7 88.2317 317.834   3
   3 -15  -7-176.062 670.732   2
   3 -15   7-27.6216 567.218   1
  -3  15  -7 13.2894 251.882   7
   3 -15   7 251.240 307.571   4
  -3 -15  -7 607.571 691.499   2
  -3  15  -8-47.6416 575.012   6
  -3 -15  -8-299.363 236.515   3
   3  15   8 122.937 561.273   5
   3  15   8 366.066 217.727   8
  -3  15   8-354.488 480.453   5
  -3  15   8-142.894 234.313   8
   3 -15  -8-17.9821 334.065   3
   3 -15  -8-1026.56 685.149   2
  -3  15  -8 39.9815 254.509   7
   3 -15   8 28.0956 562.506   1
   3 -15   8 203.766 306.393   4
  -3 -15  -8-387.710 689.059   2
  -3 -15  -9 91.9010 725.055   2
   3 -15   9 488.856 591.659   1
  -3  15  -9 385.809 565.721   6
  -3 -15  -9-87.9673 231.802   3
   3  15   9-24.5889 574.832   5
   3  15   9 11.4724 217.612   8
  -3  15   9 42.5898 467.989   5
  -3  15   9 97.6349 233.064   8
   3 -15  -9-55.0102 341.613   3
   3 -15  -9-26.2044 689.909   2
  -3  15  -9-13.5411 266.105   7
   3 -15   9-51.7991 309.670   4
  -3  15 -10-561.283 613.591   6
  -3 -15 -10-144.205 248.396   3
   3 -15  10 174.732 632.473   1
   3  15  10-247.851 604.585   5
   3  15  10-47.2273 228.391   8
  -3  15  10-432.796 505.350   5
  -3  15  10-299.514 247.239   8
   3 -15 -10 18.6978 357.103   3
   3 -15 -10-1466.09 761.405   2
  -3  15 -10-55.0955 280.109   7
   3 -15  10 35.0080 313.567   4
  -3 -15 -11 2275.72 845.564   2
  -3  15 -11 915.480 655.574   6
  -3 -15 -11-370.605 260.072   3
   3  15  11-600.829 593.079   5
   3  15  11 302.263 237.372   8
  -3  15  11 552.458 517.565   5
   3 -15  11-1147.98 655.368   1
  -3  15  11 178.223 264.401   8
   3 -15 -11 493.258 369.070   3
   3 -15 -11 514.034 737.486   2
  -3  15 -11 41.8011 296.512   7
   3 -15  11-372.561 338.387   4
  -3 -15 -12 900.540 831.118   2
  -3  15 -12-175.178 606.145   6
  -3 -15 -12-100.749 268.592   3
   3  15  12 253.125 581.100   5
   3  15  12-160.839 236.673   8
  -3  15  12-22.5559 484.581   5
  -3  15  12 210.695 259.516   8
   3 -15 -12-38.6810 377.711   3
  -3  15 -12-226.733 294.318   7
   3 -15 -12-356.367 731.361   2
   3 -15  12-297.022 595.428   1
   3 -15  12-127.001 306.615   4
  -3 -15 -13-747.166 807.504   2
  -3  15 -13-177.114 574.872   6
   3 -15  13-30.0897 624.084   1
  -3 -15 -13-150.185 275.440   3
   3  15  13-411.568 601.350   5
   3  15  13 353.683 235.675   8
  -3  15  13-40.0856 251.043   8
  -3  15  13 299.352 504.010   5
   3 -15 -13-19.7180 355.257   3
  -3  15 -13 57.6085 278.342   7
   3 -15 -13 832.561 728.597   2
   3 -15  13-128.594 320.860   4
  -3 -15 -14 32.7792 805.824   2
  -3  15 -14-255.823 607.210   6
  -3 -15 -14 251.560 287.774   3
   3  15  14-417.820 613.332   5
   3  15  14 141.553 237.360   8
  -3  15  14 419.163 266.352   8
  -3  15  14 187.004 505.482   5
   3 -15 -14 180.870 376.713   3
  -3  15 -14-87.6664 283.016   7
   3 -15 -14 168.263 726.374   2
   3 -15  14 60.6728 614.858   1
   3 -15  14 18.5877 327.472   4
  -3  15 -15-25.9318 577.910   6
  -3 -15 -15 332.288 823.357   2
  -3 -15 -15 130.790 308.837   3
   3  15  15 26.6178 608.757   5
   3 -15  15-30.5986 621.517   1
   3  15  15 65.5030 250.512   8
  -3  15  15 204.867 266.009   8
  -3  15  15-71.5318 514.372   5
   3 -15 -15 20.5568 359.030   3
  -3  15 -15 14.7926 291.434   7
   3 -15 -15 28.3485 747.937   2
   3 -15  15-472.729 326.528   4
  -3  15 -16 26.1961 573.953   6
  -3 -15 -16-134.140 799.941   2
   3 -15  16-30.9159 634.626   1
  -3 -15 -16-203.727 332.792   3
   3  15  16 704.162 630.307   5
   3  15  16-146.560 258.173   8
  -3  15  16 137.681 263.639   8
  -3  15  16-316.022 527.165   5
   3 -15 -16 502.153 366.603   3
  -3  15 -16-14.9442 290.323   7
   3 -15 -16-258.090 733.396   2
   3 -15  16 152.815 332.021   4
  -3  15 -17 158.675 627.678   6
  -3 -15 -17-474.022 819.447   2
  -3 -15 -17 17.5855 331.487   3
   3  15  17-138.154 669.868   5
   3 -15  17-62.6464 636.339   1
   3  15  17 365.463 274.528   8
  -3  15  17 332.695 278.118   8
  -3  15  17 813.909 552.472   5
   3 -15 -17 127.678 365.225   3
  -3  15 -17-15.0553 309.978   7
   3 -15 -17 697.587 741.773   2
   3 -15  17-366.269 347.498   4
   3 -15  18 19.5366 355.119   4
  -3  15 -18-26.6252 660.606   6
  -3 -15 -18-1643.07 899.066   2
  -3 -15 -18-873.080 383.090   3
   3  15  18-1614.28 771.143   5
   3  15  18-301.211 291.325   8
  -3  15  18-613.461 308.791   8
  -3  15  18-2058.86 631.481   5
   3 -15  18-31.8496 658.221   1
   3 -15 -18-108.394 419.512   3
  -3  15 -18-15.1338 315.046   7
   3 -15 -18 29.5500 786.269   2
   3 -15  19-570.198 385.307   4
  -3  15 -19-778.959 726.913   6
  -3 -15 -19-582.165 395.802   3
   3  15  19-865.745 744.454   5
  -3  15  19-448.801 309.900   8
  -3  15  19-1787.03 619.561   5
   3 -15 -19-65.9891 449.234   3
  -3  15 -19-166.870 327.851   7
   3 -15  19-162.817 735.002   1
   3 -15  20 19.7602 340.665   4
  -3  15 -20-377.882 638.851   6
  -3 -15 -20-290.284 386.982   3
   3  15  20 262.928 701.045   5
  -3  15  20 211.572 274.006   8
  -3  15  20 411.246 569.982   5
   3 -15  20 234.493 681.235   1
   3 -15 -20-557.437 411.284   3
  -3  15 -20 30.3406 296.986   7
   3 -15  21 19.9319 347.624   4
  -3  15 -21 27.2108 625.258   6
  -3 -15 -21 35.5554 863.321   2
  -3 -15 -21 139.426 377.866   3
   3  15  21 445.318 732.717   5
   3  15  21 57.1645 283.051   8
  -3  15  21-14.1934 282.862   8
  -3  15  21 599.082 601.284   5
   3 -15 -21-22.6752 397.986   3
   3 -15  22-459.238 352.062   4
  -3  15 -22 356.343 632.729   6
   3  15  22 545.359 717.103   5
  -3 -15 -22 102.247 400.329   3
  -3  15  22-210.749 583.026   5
   3 -15 -22 320.635 406.355   3
  -4  15  -2-136.701 564.110   6
  -4  15  -2 79.9650 253.525   7
   4 -15   2 59.9608 272.134   4
   4 -15   2 23.7015 473.973   1
  -4  15  -3 114.601 571.983   6
   4 -15   3 121.413 494.975   1
  -4  15  -3-211.803 252.455   7
   4 -15   3 182.829 278.597   4
  -4  15  -4-23.1876 584.111   6
   4 -15   4 679.432 551.370   1
  -4  15  -4-13.2244 252.272   7
   4 -15   4 15.5949 280.603   4
  -4  15  -5 328.432 567.249   6
   4 -15   5-180.531 527.575   1
  -4  15  -5-13.1907 260.885   7
   4 -15  -5 400.913 639.034   2
   4 -15   5 47.5472 294.045   4
  -4  15  -6-213.477 585.924   6
   4 -15   6 373.482 528.938   1
  -4  15   6-11.7555 223.138   8
  -4  15   6 82.1278 477.048   5
   4 -15  -6 492.381 370.615   3
  -4  15  -6 13.2163 258.209   7
   4 -15  -6-24.1445 659.061   2
   4 -15   6 112.785 294.740   4
  -4  15  -7-143.171 604.070   6
   4  15   7-144.258 542.367   5
  -4  15   7 271.777 254.145   8
  -4  15   7 20.8559 465.551   5
   4 -15  -7 456.557 388.967   3
   4 -15   7 27.2841 537.789   1
  -4  15  -7-26.5416 256.345   7
   4 -15  -7 1283.73 697.912   2
   4 -15   7 212.946 305.630   4
  -4  15  -8 96.4892 604.452   6
   4  15   8 47.8189 545.405   5
  -4  15   8-50.8729 243.154   8
  -4  15   8 63.5748 484.799   5
   4 -15  -8-461.051 379.371   3
  -4  15  -8 53.5935 267.524   7
   4 -15   8-224.936 609.840   1
   4 -15  -8 75.4158 665.211   2
   4 -15   8-368.293 312.095   4
  -4  15  -9-365.837 656.896   6
   4  15   9-262.177 558.688   5
  -4  15   9 91.2724 251.337   8
  -4  15   9 366.054 491.543   5
   4 -15  -9-121.629 369.601   3
  -4  15  -9-54.0544 285.970   7
   4 -15  -9 662.746 716.878   2
   4 -15   9-476.384 334.779   4
   4 -15   9 1576.82 688.563   1
  -4 -15  -9-428.089 702.078   2
   4 -15  10-904.644 634.817   1
  -4  15 -10-294.845 645.085   6
  -4 -15 -10-46.1921 210.616   3
   4  15  10-432.634 581.182   5
  -4  15  10-311.334 276.950   8
  -4  15  10 1154.71 516.595   5
   4 -15 -10 20.5138 390.198   3
  -4  15 -10 27.3167 291.583   7
   4 -15  10-17.2895 315.271   4
  -4 -15 -10 855.730 755.233   2
  -4  15 -11 422.216 602.028   6
   4 -15  11 29.6546 603.053   1
  -4 -15 -11-259.932 234.778   3
   4  15  11 72.8724 568.368   5
   4  15  11-137.779 227.053   8
  -4  15  11 425.784 273.980   8
  -4  15  11-309.730 470.695   5
   4 -15 -11 41.6500 376.879   3
  -4  15 -11-41.5881 287.193   7
   4 -15  11 442.037 324.730   4
  -4 -15 -11-730.620 744.645   2
  -4  15 -12-602.428 602.922   6
  -4 -15 -12-39.5600 239.878   3
   4 -15  12-273.078 604.572   1
   4  15  12 172.883 563.326   5
   4  15  12-47.3956 233.607   8
  -4  15  12 55.4750 276.113   8
  -4  15  12-606.609 514.863   5
   4 -15 -12-63.2714 382.925   3
  -4  15 -12-28.0907 294.408   7
   4 -15  12-233.438 320.700   4
  -4 -15 -12-373.288 748.424   2
  -4 -15 -13 31.7968 747.341   2
  -4  15 -13-228.883 590.831   6
  -4 -15 -13-69.7565 255.569   3
   4  15  13-353.230 597.732   5
   4  15  13-73.1617 229.810   8
   4 -15  13 30.7602 605.281   1
  -4  15  13-209.078 271.557   8
  -4  15  13-319.305 506.320   5
   4 -15 -13 427.039 408.890   3
  -4  15 -13 28.4668 281.551   7
   4 -15  13-109.402 318.526   4
  -4 -15 -14 935.841 777.133   2
  -4  15 -14 334.069 603.590   6
  -4 -15 -14 502.895 293.196   3
   4  15  14 257.631 586.062   5
   4  15  14-112.583 231.819   8
  -4  15  14 27.9127 263.650   8
  -4  15  14 555.496 518.032   5
   4 -15  14 311.621 625.572   1
   4 -15 -14-194.570 396.137   3
  -4  15 -14 43.2859 289.916   7
   4 -15  14 334.191 331.750   4
  -4 -15 -15-32.7000 784.127   2
  -4  15 -15-285.611 619.482   6
  -4 -15 -15 141.182 301.829   3
   4  15  15 262.691 612.039   5
   4  15  15-294.359 246.031   8
  -4  15  15-227.240 280.090   8
  -4  15  15-349.195 519.977   5
   4 -15  15 126.356 653.803   1
  -4  15 -15 14.4516 286.422   7
   4 -15 -15-65.5939 390.547   3
   4 -15  15-244.853 347.644   4
  -4 -15 -16-661.761 812.003   2
  -4  15 -16-105.172 610.256   6
  -4 -15 -16 16.5296 312.262   3
   4  15  16 26.7765 623.733   5
   4  15  16-234.832 259.614   8
  -4  15  16 254.689 280.520   8
  -4  15  16 731.336 522.123   5
  -4  15 -16-14.6292 294.329   7
   4 -15 -16-133.226 392.749   3
   4 -15  16 160.243 628.205   1
   4 -15  16-248.255 337.254   4
  -4 -15 -17 504.907 864.081   2
  -4  15 -17-451.527 656.052   6
  -4 -15 -17 17.4546 338.251   3
   4  15  17-54.7120 657.038   5
   4  15  17 385.556 257.672   8
  -4  15  17 225.265 280.908   8
  -4  15  17-286.589 513.608   5
  -4  15 -17 14.7939 305.844   7
   4 -15 -17-448.088 415.665   3
   4 -15  17-195.498 678.881   1
   4 -15  17-19.5344 353.573   4
  -4  15 -18 1046.23 746.259   6
  -4 -15 -18 511.842 396.306   3
   4  15  18 2284.00 747.262   5
  -4  15  18 294.063 305.741   8
  -4  15  18 1927.07 600.480   5
  -4  15 -18 74.6840 361.344   7
   4 -15 -18 858.158 446.247   3
   4 -15  18 737.096 830.120   1
   4 -15  18 395.366 390.111   4
  -4  15 -19-162.991 646.974   6
  -4 -15 -19 171.741 385.464   3
   4  15  19 255.430 668.311   5
  -4  15  19-236.745 271.124   8
  -4  15  19 170.307 516.075   5
  -4  15 -19 135.591 307.309   7
   4 -15 -19-799.574 428.140   3
   4 -15  19 34.3053 701.835   1
   4 -15  19-159.935 351.020   4
  -4 -15 -20 696.640 883.464   2
  -4  15 -20-219.324 655.095   6
  -4 -15 -20-59.5371 391.000   3
   4  15  20 232.139 705.142   5
   4  15  20 13.9723 263.609   8
  -4  15  20 13.8618 271.741   8
  -4  15  20-343.339 547.628   5
  -4  15 -20-348.874 308.124   7
   4 -15 -20 229.522 397.009   3
   4 -15  20-141.338 729.527   1
   4 -15  20 40.6223 340.842   4
  -4 -15 -21-35.2732 886.000   2
  -4  15 -21-358.603 651.502   6
  -4 -15 -21 390.844 408.827   3
   4  15  21 647.938 730.634   5
  -4  15  21 359.255 290.542   8
   4 -15 -21-298.919 432.458   3
   4 -15  21 266.254 373.970   4
   5 -15   1-197.945 447.161   1
  -5  15  -2-161.185 566.003   6
   5 -15   2-22.8106 459.474   1
  -5  15  -2 14.0058 263.134   7
   5 -15   2 101.086 277.988   4
  -5  15  -3 117.914 603.577   6
  -5  15  -3 41.4784 276.500   7
   5 -15   3-23.3441 452.914   1
   5 -15   3-146.808 268.864   4
  -5  15  -4 166.318 591.653   6
  -5  15  -4-27.6191 268.180   7
   5 -15   4-239.593 270.044   4
   5 -15   4-193.793 493.926   1
  -5  15  -5 191.527 598.861   6
  -5  15  -5 13.6515 257.180   7
   5 -15   5 61.0464 282.316   4
   5 -15   5-223.461 530.535   1
   5 -15   6 51.6117 560.386   1
  -5  15  -6-367.386 629.824   6
  -5  15  -6 68.1658 266.623   7
   5 -15   6-404.240 316.152   4
   5 -15   7 1110.09 634.295   1
  -5  15   7 111.589 279.032   8
  -5  15   7-686.392 490.639   5
  -5  15  -7-13.5535 287.841   7
   5 -15  -7 1000.66 450.668   3
   5 -15   7-220.445 301.997   4
  -5  15  -8 248.613 673.266   6
   5 -15   8 82.0985 602.588   1
  -5  15   8 379.886 325.706   8
  -5  15   8 1009.51 498.903   5
  -5  15  -8 81.4645 289.431   7
   5 -15  -8 66.4463 407.026   3
   5 -15   8 288.591 310.538   4
  -5  15  -9-99.6282 646.124   6
   5 -15   9 139.939 553.651   1
  -5  15   9 44.6307 286.345   8
  -5  15   9-871.372 495.713   5
  -5  15  -9-13.6328 274.640   7
   5 -15  -9 88.4398 406.310   3
   5 -15   9-440.727 317.827   4
  -5  15 -10 251.094 605.689   6
   5 -15  10 142.912 590.201   1
  -5  15  10 30.0201 284.889   8
  -5  15  10 687.162 476.779   5
  -5  15 -10-68.4078 263.902   7
   5 -15 -10 221.258 395.135   3
   5 -15  10 100.364 290.442   4
  -5  15 -11 430.485 610.751   6
   5 -15  11 58.8987 573.573   1
  -5  15  11-90.1043 286.399   8
  -5  15  11-129.777 483.454   5
  -5  15 -11 27.5751 265.408   7
   5 -15 -11 88.6347 399.821   3
   5 -15  11 51.0757 297.355   4
  -5  15 -12-25.4155 615.127   6
  -5 -15 -12 127.950 219.664   3
   5  15  12 321.570 548.468   5
  -5  15  12 273.312 309.677   8
   5 -15  12 90.0099 590.439   1
  -5  15  12 873.447 484.340   5
  -5  15 -12 264.417 272.978   7
   5 -15 -12-647.913 414.586   3
   5 -15  12-259.938 303.312   4
  -5 -15 -12 830.330 684.813   2
  -5  15 -13 487.362 610.813   6
  -5 -15 -13-113.673 236.633   3
   5  15  13 258.834 533.097   5
  -5  15  13-194.851 294.181   8
  -5  15  13-528.542 490.310   5
   5 -15  13 335.899 600.842   1
  -5  15 -13 70.3265 288.397   7
   5 -15 -13 44.7935 396.152   3
   5 -15  13 53.1902 317.022   4
  -5 -15 -13 147.527 711.036   2
  -5  15 -14 155.382 615.151   6
  -5 -15 -14-522.346 248.939   3
   5  15  14 120.943 551.204   5
  -5  15  14-88.4288 283.850   8
  -5  15  14 488.331 489.867   5
  -5  15 -14 14.2619 283.942   7
   5 -15  14-403.889 626.623   1
   5 -15 -14 202.072 397.858   3
   5 -15  14 126.296 313.220   4
  -5 -15 -14 30.2659 709.501   2
  -5  15 -15 338.750 622.107   6
  -5 -15 -15 44.5369 284.258   3
   5  15  15-99.7107 585.351   5
   5  15  15 132.570 231.072   8
  -5  15  15 101.074 280.500   8
  -5  15 -15 14.4372 279.370   7
   5 -15  15-63.2235 625.134   1
   5 -15 -15 269.886 394.058   3
   5 -15  15-499.076 322.833   4
  -5 -15 -15 31.0753 723.211   2
  -5  15 -16-105.258 647.345   6
  -5 -15 -16-349.872 306.126   3
   5  15  16 76.8364 610.943   5
   5  15  16 12.3813 234.846   8
  -5  15  16 84.7771 266.179   8
  -5  15 -16 14.6134 291.144   7
   5 -15  16 32.4524 635.306   1
   5 -15 -16-90.0327 393.737   3
   5 -15  16 394.930 341.863   4
  -5 -15 -16-348.261 766.159   2
  -5  15 -17 2504.29 834.025   6
  -5 -15 -17 1333.23 391.303   3
  -5  15  17 691.153 315.434   8
  -5  15 -17 73.9660 356.137   7
   5 -15 -17 1147.06 449.891   3
   5 -15  17 1885.73 844.410   1
   5 -15  17 899.056 422.506   4
  -5  15 -18-107.654 649.165   6
  -5 -15 -18-54.6812 355.083   3
   5  15  18-994.000 690.684   5
  -5  15  18 148.819 264.966   8
  -5  15 -18-59.8867 295.431   7
   5 -15  18-135.229 706.777   1
   5 -15  18-253.586 351.520   4
  -5 -15 -19 66.5689 801.450   2
  -5  15 -19-108.722 636.019   6
  -5 -15 -19-252.741 383.558   3
   5  15  19-54.7343 653.961   5
   5  15  19 278.176 262.689   8
  -5  15 -19 75.7001 292.658   7
   5 -15  19-99.1111 359.859   4
   5 -15  19 519.985 723.900   1
  -5 -15 -20 843.386 832.620   2
  -5  15 -20-495.442 657.744   6
  -5 -15 -20 20.5156 398.631   3
   5  15  20 1031.33 659.785   5
   5  15  20 269.848 263.261   8
  -5  15 -20-45.9197 300.916   7
   5 -15  20-243.761 362.192   4
  -5 -15 -21 107.690 419.617   3
   6 -15   1-21.5029 451.556   1
   6 -15   1-67.7021 264.794   4
   6 -15   2-177.088 469.943   1
  -6  15  -2-14.6916 293.424   7
   6 -15   2 83.0606 275.807   4
  -6  15  -2-246.047 668.033   6
   6 -15   3 22.8223 478.185   1
  -6  15  -3 29.2133 284.153   7
   6 -15   3-141.547 267.058   4
  -6  15  -3 49.0908 631.494   6
   6 -15   4 466.371 512.058   1
  -6  15  -4 87.6617 285.136   7
   6 -15   4 43.3403 279.405   4
  -6  15  -4 24.4995 678.802   6
  -6  15  -5 351.149 692.331   6
   6 -15   5-24.1834 499.487   1
  -6  15  -5 172.312 291.653   7
   6 -15   5 132.097 282.873   4
  -6  15  -6-426.014 639.935   6
   6 -15   6-24.7508 532.818   1
  -6  15  -6 14.3232 278.982   7
   6 -15   6 164.497 293.143   4
  -6  15  -7 75.1366 633.316   6
  -6  15  -7 14.0964 280.870   7
   6 -15   7-25.3357 530.246   1
   6 -15   7 76.1476 273.992   4
  -6  15  -8-254.494 626.570   6
  -6  15   8-35.5287 336.497   8
  -6  15  -8 14.0848 277.490   7
   6 -15   8 108.138 279.580   4
   6 -15   8 26.2639 535.995   1
  -6  15  -9-25.4788 607.770   6
  -6  15   9-230.379 340.690   8
  -6  15  -9-13.9628 270.207   7
   6 -15   9 204.425 288.816   4
   6 -15   9 322.521 538.764   1
  -6  15 -10 155.642 646.921   6
  -6  15  10 71.1569 336.658   8
  -6  15 -10 111.966 280.393   7
   6 -15  10 112.098 293.428   4
   6 -15  10 83.6286 557.521   1
   6 -15  11 370.302 592.855   1
  -6  15 -11-52.0549 630.430   6
  -6  15  11 172.944 333.878   8
  -6  15 -11 14.0593 270.751   7
   6 -15  11 48.6538 293.174   4
  -6  15 -12 104.608 616.289   6
   6 -15  12-58.1631 598.368   1
  -6  15  12-299.988 323.790   8
  -6  15 -12 28.2898 276.948   7
   6 -15  12 66.1045 301.339   4
  -6  15 -13-156.813 646.478   6
   6 -15  13 148.358 602.432   1
  -6  15  13-463.154 313.145   8
  -6  15 -13-425.098 272.342   7
   6 -15  13 117.923 308.493   4
  -6  15 -14-578.578 632.437   6
   6 -15  14 30.5990 618.114   1
  -6  15  14-396.823 297.465   8
  -6  15 -14 100.108 283.076   7
   6 -15  14-259.474 326.860   4
  -6  15 -15-448.134 700.162   6
   6 -15  15-499.294 704.572   1
  -6  15 -15-144.464 296.539   7
   6 -15  15-158.805 326.551   4
  -6  15 -16 1222.39 802.677   6
   6 -15  16 732.060 778.962   1
  -6  15 -16 14.6125 383.164   7
   6 -15  16 1195.11 429.054   4
  -6  15 -17 26.8089 643.920   6
  -6 -15 -17 199.459 327.972   3
   6  15  17 630.382 593.115   5
   6 -15  17 32.5102 635.675   1
  -6  15 -17-162.649 296.504   7
   6 -15  17 147.878 334.121   4
  -6  15 -18 161.838 665.727   6
  -6 -15 -18-289.123 356.984   3
   6  15  18-349.716 596.932   5
   6 -15  18 33.2546 694.449   1
  -6  15 -18 59.7406 300.937   7
   6 -15  18 18.8731 338.058   4
  -6 -15 -18-574.012 723.162   2
  -6  15 -19 463.161 682.575   6
  -6 -15 -19 236.045 381.146   3
   6  15  19-383.901 604.710   5
   6 -15  19 238.743 685.342   1
  -6  15 -19 105.828 296.364   7
   6 -15  19-290.816 361.716   4
  -6 -15 -19-1233.07 771.110   2
  -6 -15 -20 148.405 410.249   3
   6  15  20-941.818 641.502   5
   6 -15  20 138.538 358.174   4
   7 -15   1 172.943 417.778   1
  -7  15  -1-15.0208 296.310   7
   7 -15   1-92.1677 232.174   4
   7 -15   2-240.758 438.282   1
  -7  15  -2 30.3499 311.615   7
   7 -15   2-67.3220 239.415   4
  -7  15  -2-514.938 717.874   6
   7 -15   3-156.751 441.186   1
  -7  15  -3 45.7346 299.615   7
   7 -15   3-82.4123 262.683   4
  -7  15  -3 56.8150 694.315   6
   7 -15   4-113.852 458.377   1
  -7  15  -4-121.163 296.917   7
   7 -15   4-237.593 264.486   4
  -7  15  -4 110.928 700.343   6
   7 -15   5 23.4308 465.784   1
  -7  15  -5 45.3785 289.048   7
   7 -15   5-255.926 293.403   4
  -7  15  -5-190.035 715.834   6
   7 -15   6 23.9042 478.681   1
  -7  15  -6-29.8914 298.649   7
   7 -15   6 173.450 257.826   4
  -7  15  -6 379.426 685.368   6
   7 -15   7 98.6819 496.444   1
  -7  15  -7 14.8980 288.855   7
   7 -15   7 176.012 278.038   4
  -7  15  -7 266.607 685.979   6
   7 -15   8 75.6248 478.837   1
  -7  15  -8 104.012 286.091   7
   7 -15   8 14.9043 279.684   4
  -7  15  -8 157.752 652.541   6
  -7  15  -9 53.3394 659.264   6
   7 -15   9-208.981 534.996   1
  -7  15   9 94.1911 457.460   8
  -7  15  -9-14.6114 286.433   7
   7 -15   9 135.801 264.403   4
  -7  15 -10-211.537 657.306   6
   7 -15  10 26.6953 527.283   1
  -7  15 -10-29.2233 279.841   7
   7 -15  10-92.0878 268.981   4
  -7  15 -11 26.6976 640.216   6
   7 -15  11 27.2674 537.322   1
  -7  15 -11 57.7200 288.078   7
   7 -15  11 218.676 279.522   4
  -7  15 -12-53.1896 662.861   6
  -7  15 -12-57.9256 278.179   7
   7 -15  12-83.5563 579.232   1
   7 -15  12-348.783 295.849   4
  -7  15 -13-1168.36 675.603   6
  -7  15 -13-29.1090 292.022   7
   7 -15  13-230.336 570.766   1
   7 -15  13-404.202 291.310   4
  -7  15 -14 80.9503 763.631   6
  -7  15 -14-14.6529 330.905   7
   7 -15  14-328.310 321.569   4
   7 -15  14 235.156 697.035   1
  -7  15 -15-676.367 774.215   6
  -7  15 -15 14.6355 314.107   7
   7 -15  15-369.152 341.886   4
   7 -15  15-209.927 647.972   1
  -7  15 -16-216.071 666.794   6
  -7  15 -16 103.410 288.247   7
   7 -15  16 343.299 314.351   4
   7 -15  16 183.708 633.828   1
  -7  15 -17-108.660 669.366   6
  -7  15 -17 134.411 293.161   7
   7 -15  17 17.7037 315.618   4
   7 -15  17-31.7297 595.290   1
  -7  15 -18 54.4431 692.075   6
  -7  15 -18-30.2153 303.744   7
   7 -15  18-217.745 340.096   4
   8 -15   1 39.6473 235.630   4
  -8  15  -1 364.747 1165.17   6
   8 -15   2 53.6573 254.101   4
  -8  15  -2-621.126 1034.98   6
   8 -15   3 204.073 250.354   4
  -8  15  -3-570.573 971.385   6
   8 -15   3-179.075 449.866   1
   8 -15   4 22.8308 447.698   1
  -8  15  -4-346.183 311.824   7
   8 -15   4-41.3306 253.703   4
  -8  15  -4 71.0273 923.810   6
   8 -15   5-185.044 465.483   1
  -8  15  -5-15.7061 294.867   7
   8 -15   5-153.181 248.478   4
  -8  15  -5-166.498 828.465   6
   8 -15   6 449.758 487.800   1
  -8  15  -6 31.2839 291.330   7
   8 -15   6 197.147 244.759   4
  -8  15  -6-409.591 785.774   6
   8 -15   7-409.134 461.058   1
  -8  15  -7 124.656 292.711   7
   8 -15   7-270.287 264.697   4
  -8  15  -7-244.769 786.705   6
   8 -15   8-24.5026 477.925   1
  -8  15  -8-15.4050 298.232   7
   8 -15   8-86.3940 259.183   4
  -8  15  -8-763.826 738.352   6
   8 -15   9 50.4562 504.515   1
  -8  15  -9 15.3568 291.750   7
   8 -15   9-102.099 271.801   4
  -8  15  -9-462.237 707.272   6
   8 -15  10 25.7264 523.816   1
  -8  15 -10-15.1813 290.346   7
   8 -15  10 177.266 274.481   4
  -8  15 -10-280.987 684.523   6
   8 -15  11 53.0504 543.860   1
  -8  15 -11 90.9945 296.895   7
   8 -15  11 15.0079 269.571   4
  -8  15 -11-549.283 694.994   6
  -8  15 -12 968.748 777.121   6
   8 -15  12 703.197 618.161   1
  -8  15 -12-15.1808 326.465   7
   8 -15  12 76.0618 283.418   4
  -8  15 -13 163.835 720.610   6
   8 -15  13-110.352 580.169   1
  -8  15 -13 15.2230 312.549   7
   8 -15  13-372.152 308.219   4
  -8  15 -14 137.420 662.329   6
   8 -15  14-28.1329 573.472   1
  -8  15 -14 60.2219 294.757   7
   8 -15  14 15.8424 276.269   4
  -8  15 -15-819.780 701.105   6
   8 -15  15-58.1947 584.181   1
  -8  15 -15-90.8718 304.355   7
   8 -15  15-129.180 295.238   4
  -8  15 -16-193.711 685.151   6
   8 -15  16-59.3751 621.312   1
  -8  15 -16 30.5096 299.784   7
   8 -15  16-33.1002 298.626   4
  -8  15 -17 692.212 705.479   6
  -8  15 -17 15.3935 236.814   7
   8 -15  17-16.9060 292.919   4
   9 -15   2 278.135 249.235   4
  -9  15  -2 2656.47 2637.28   6
   9 -15   3-97.1388 241.370   4
  -9  15  -3 151.766 1943.58   6
   9 -15   4 27.8249 256.252   4
  -9  15  -4-597.437 1482.71   6
   9 -15   5 27.8480 245.565   4
  -9  15  -5 705.307 1230.30   6
   9 -15   6 55.8697 237.228   4
   9 -15   6-23.6053 453.195   1
  -9  15  -6-87.3783 1102.20   6
   9 -15   7-835.636 480.407   1
  -9  15  -7-16.0992 312.453   7
   9 -15   7 56.0998 250.523   4
  -9  15  -7 509.253 973.004   6
   9 -15   8-463.926 491.828   1
  -9  15  -8-80.0436 300.751   7
   9 -15   8 211.456 252.827   4
  -9  15  -8 142.788 899.183   6
   9 -15   9-24.7776 531.184   1
  -9  15  -9-143.286 336.975   7
   9 -15   9-71.0228 259.086   4
  -9  15  -9 297.840 925.537   6
   9 -15  10-50.7678 561.309   1
  -9  15 -10 95.1019 353.066   7
   9 -15  10 644.937 285.798   4
  -9  15 -10 696.783 883.195   6
   9 -15  11-412.890 542.806   1
  -9  15 -11-79.0068 320.379   7
   9 -15  11-261.325 276.034   4
  -9  15 -11 180.669 758.727   6
   9 -15  12-26.2505 517.188   1
  -9  15 -12 46.9906 295.125   7
   9 -15  12-147.370 276.140   4
  -9  15 -12-58.8327 720.152   6
   9 -15  13-26.9987 553.023   1
  -9  15 -13-15.6613 296.843   7
   9 -15  13 224.770 268.540   4
  -9  15 -13 256.360 707.562   6
   9 -15  14-109.906 551.449   1
  -9  15 -14 47.0820 298.491   7
   9 -15  14 61.2175 281.483   4
  -9  15 -14-712.367 712.211   6
  -9  15 -15 111.856 683.521   6
   9 -15  15-195.811 491.759   1
   9 -15  15-93.6454 279.642   4
  10 -15   7-84.5341 268.081   4
 -10  15  -7 63.4856 1604.10   6
  10 -15   8 112.252 264.987   4
 -10  15  -8 458.974 1255.61   6
  10 -15   9 365.028 264.642   4
  10 -15   9 24.8905 505.819   1
 -10  15  -9 346.694 1093.69   6
  10 -15  10-14.0952 238.568   4
 -10  15 -10 537.931 959.629   6
  10 -15  10 25.1712 481.323   1
  10 -15  11-51.0020 485.727   1
  10 -15  11-85.2680 246.325   4
 -10  15 -11-69.6785 852.227   6
  10 -15  12 26.0866 522.282   1
 -10  15 -12 16.2152 309.653   7
  10 -15  12-57.5431 263.440   4
 -10  15 -12 65.6478 830.626   6
  10 -15  13-26.4639 436.286   1
  10 -15  13 14.6054 266.287   4
 -10  15 -13 92.5922 776.846   6
   0 -16  -3 150.245 786.003   2
   0 -16  -3-328.957 297.223   3
   0 -16  -4 664.663 821.179   2
   0 -16  -4 278.129 297.628   3
   0  16   4 313.403 562.238   5
   0  16   4 192.617 222.584   8
   0 -16   5 242.878 276.759   4
   0 -16  -5-44.9182 332.361   3
   0  16   5-763.386 595.697   5
   0  16   5-46.0703 237.246   8
   0  16  -5 57.0012 399.416   7
   0 -16   6 244.493 273.547   4
   0 -16  -6 627.954 326.125   3
   0  16   6 1134.60 614.943   5
   0  16   6 104.761 250.902   8
   0  16  -6-20.8909 426.118   7
   0 -16   7-76.8459 268.036   4
   0 -16  -7-360.016 334.137   3
   0  16   7-892.217 606.987   5
   0  16   7 188.919 251.528   8
   0  16  -7-23.0412 452.242   7
   0 -16   8 46.3707 263.831   4
   0 -16  -8 122.825 816.375   2
   0 -16  -8 351.987 321.884   3
   0  16   8 22.9805 568.059   5
   0  16   8-216.436 248.254   8
   0  16  -8 25.3109 493.601   7
   0 -16  -9-524.353 800.532   2
   0 -16  -9 179.755 315.802   3
   0  16   9-395.559 547.832   5
   0  16   9-24.3974 234.197   8
   0  16  -9 82.8056 536.200   7
   0 -16 -10 559.744 786.325   2
   0 -16 -10-116.921 318.120   3
   0  16  10 401.236 560.579   5
   0  16  10-24.7559 234.160   8
   0  16 -10 178.355 558.452   7
   0 -16 -11 251.178 781.753   2
   0  16  11 1037.62 575.705   5
   0 -16 -11 187.779 324.413   3
   0  16  11-88.3347 246.010   8
   0  16 -11 31.4550 607.970   7
   0 -16 -12-158.613 799.075   2
   0  16  12-589.341 590.268   5
   0 -16 -12 139.408 336.337   3
   0  16  12 153.781 248.971   8
   0  16 -12-293.132 636.808   7
   0 -16 -13 641.832 816.463   2
   0  16  13-625.818 586.833   5
   0 -16 -13 570.158 348.014   3
   0  16  13-78.0596 252.545   8
   0  16 -13-32.9239 637.151   7
   0 -16 -14-97.4571 819.389   2
   0  16  14 1042.95 600.610   5
   0 -16 -14 163.933 338.553   3
   0  16  14 252.936 262.407   8
   0 -16 -15 789.480 843.788   2
   0  16  15-805.484 617.670   5
   0 -16 -15 186.298 365.646   3
   0  16  15-67.5756 260.511   8
   0  16  16-1056.65 711.413   5
   0  16  16-425.369 313.103   8
   0 -16 -16-285.915 424.987   3
   0  16  17-543.032 319.955   8
   0 -16 -17-877.234 428.829   3
   0  16  18 70.6685 297.111   8
   0 -16 -18 159.616 384.060   3
   0 -16 -19-1091.70 908.007   2
   0  16  19 421.878 640.218   5
   0  16  19-14.3420 281.126   8
   0 -16 -19 61.2149 390.181   3
   0  16  20 459.985 675.514   5
   0  16  20-277.566 263.112   8
   0 -16 -20-376.161 391.163   3
  -1 -16  -2 233.665 280.724   3
  -1 -16  -2-472.965 720.129   2
  -1 -16  -3-319.768 280.519   3
   1  16   3 235.841 217.907   8
  -1 -16  -3 116.770 716.446   2
  -1 -16  -4-301.772 770.795   2
  -1 -16  -4-68.1981 281.135   3
   1  16   4-101.039 615.572   5
   1 -16  -4-245.441 339.577   3
   1  16   4-199.986 224.152   8
   1 -16   5 134.067 308.239   4
  -1 -16  -5-1015.01 843.366   2
  -1  16  -5 23.3522 559.908   6
  -1 -16  -5 97.7620 290.337   3
   1  16   5 148.757 629.791   5
   1 -16  -5 251.357 341.041   3
  -1  16   5 147.330 576.358   5
   1  16   5-45.6358 220.215   8
  -1  16   5-192.679 243.752   8
  -1  16  -5 106.474 311.522   7
   1 -16   6 286.093 328.020   4
  -1 -16  -6 2130.99 895.031   2
  -1  16  -6 805.071 596.840   6
  -1 -16  -6 258.673 307.033   3
   1  16   6 1546.81 646.623   5
   1 -16  -6 1043.85 396.885   3
   1  16   6 93.4365 239.770   8
  -1  16   6 263.982 256.519   8
  -1  16  -6 175.898 351.364   7
   1  16  -6 131.602 890.716   7
   1 -16   7-253.577 310.064   4
  -1 -16  -7-664.296 861.879   2
  -1  16  -7 191.881 586.953   6
  -1 -16  -7-323.856 316.372   3
   1 -16  -7-1475.64 884.281   2
   1  16   7-1588.76 652.767   5
  -1  16   7-895.270 605.174   5
   1 -16  -7-131.444 355.618   3
   1  16   7 214.316 241.615   8
  -1  16   7-105.195 244.695   8
  -1  16  -7-16.8704 355.855   7
   1  16  -7-57.5816 1197.11   7
   1 -16   8-152.839 302.253   4
  -1 -16  -8 128.128 795.600   2
  -1  16  -8 291.540 532.839   6
  -1 -16  -8-60.3404 290.767   3
   1  16   8 365.820 594.111   5
   1 -16  -8-1429.42 804.024   2
  -1  16   8-910.634 556.014   5
   1 -16  -8 83.9810 332.987   3
   1  16   8 254.634 230.316   8
  -1  16   8-225.445 238.726   8
  -1  16  -8 319.818 341.569   7
   1  16  -8 77.2280 1494.40   7
   1 -16   9 34.1322 289.488   4
  -1  16  -9-147.509 553.334   6
  -1 -16  -9-645.484 797.208   2
  -1 -16  -9-185.458 305.386   3
   1  16   9 1126.23 590.576   5
   1 -16  -9 972.433 782.959   2
  -1  16   9 1148.21 553.480   5
   1  16   9 147.929 235.278   8
   1 -16  -9-68.6873 334.578   3
  -1  16   9 72.8939 231.256   8
  -1  16  -9 18.6765 361.522   7
   1 -16  10 325.838 300.551   4
  -1  16 -10-49.7322 542.067   6
  -1 -16 -10 129.685 799.531   2
  -1 -16 -10 31.6656 303.233   3
   1  16  10-595.122 600.609   5
   1 -16 -10 59.5723 756.654   2
  -1  16  10 275.302 530.094   5
   1  16  10 49.9071 243.724   8
   1 -16 -10 157.963 327.510   3
  -1  16  10-271.684 239.685   8
  -1  16 -10-762.259 384.148   7
   1 -16  11 17.2245 296.693   4
  -1  16 -11 275.426 571.692   6
  -1 -16 -11-653.470 799.957   2
  -1 -16 -11 113.608 316.316   3
   1  16  11 1353.20 595.300   5
   1 -16 -11 723.904 780.654   2
  -1  16  11 117.009 541.304   5
   1  16  11 76.0358 242.935   8
   1 -16 -11 340.809 351.797   3
  -1  16  11-12.5536 248.841   8
  -1  16 -11-60.9865 388.384   7
   1 -16  12-17.4370 305.076   4
  -1  16 -12-126.510 561.115   6
  -1 -16 -12-230.697 801.541   2
  -1 -16 -12-16.6336 316.833   3
   1  16  12-583.935 589.284   5
  -1  16  12-451.423 556.945   5
   1 -16 -12-519.408 787.225   2
   1  16  12 90.4575 252.714   8
  -1  16  12-333.221 249.995   8
   1 -16 -12 622.782 360.907   3
  -1  16 -12 20.9492 391.416   7
   1 -16  13 209.960 296.648   4
  -1  16 -13 102.225 555.320   6
  -1 -16 -13-132.774 842.256   2
  -1 -16 -13 545.233 334.039   3
   1  16  13 589.528 603.449   5
  -1  16  13 24.2700 548.303   5
   1  16  13 183.665 258.654   8
   1 -16 -13 559.310 805.666   2
  -1  16  13 156.323 259.747   8
   1 -16 -13 430.462 363.939   3
  -1  16 -13 85.4978 427.602   7
   1 -16  14 17.5412 297.016   4
  -1 -16 -14 670.472 860.592   2
  -1 -16 -14 384.368 326.978   3
   1  16  14 1095.47 618.478   5
   1  16  14 93.1952 259.118   8
  -1  16  14-570.689 578.567   5
   1 -16 -14-472.466 803.778   2
  -1  16  14-26.4664 270.207   8
   1 -16 -14 38.2557 357.460   3
  -1  16 -14 21.5637 402.955   7
   1 -16  15 17.5748 301.036   4
  -1 -16 -15 33.9038 853.776   2
   1  16  15 1202.77 650.923   5
  -1 -16 -15 376.197 355.527   3
   1  16  15 729.576 286.305   8
  -1  16  15 1640.90 614.445   5
  -1  16  15 456.674 285.595   8
   1 -16 -15-159.727 815.060   2
   1 -16 -15 449.106 372.851   3
  -1  16 -15 21.5268 417.135   7
   1 -16  16 52.9184 304.180   4
   1  16  16 272.642 729.730   5
  -1 -16 -16-770.779 402.836   3
   1  16  16-537.236 325.420   8
  -1  16  16-335.775 664.959   5
  -1  16  16-708.768 312.006   8
   1 -16 -16-19.9501 400.031   3
  -1  16 -16 106.291 466.640   7
   1 -16  17-141.061 311.607   4
   1  16  17-1690.94 750.727   5
  -1 -16 -17-790.771 413.256   3
   1  16  17-475.292 329.901   8
  -1  16  17-1917.48 678.481   5
  -1  16  17-167.427 307.456   8
   1 -16 -17-203.919 402.282   3
  -1  16 -17 20.8013 426.456   7
  -1 -16 -18-388.716 903.809   2
   1  16  18-28.3089 655.933   5
  -1 -16 -18-154.499 367.461   3
   1  16  18-127.683 276.517   8
  -1  16  18-268.691 621.446   5
  -1  16  18-254.549 285.734   8
   1 -16 -18-604.052 870.407   2
   1 -16 -18 268.345 385.783   3
  -1  16 -18 100.919 391.731   7
  -1 -16 -19-35.9552 883.859   2
   1  16  19-462.870 673.356   5
   1  16  19-158.342 293.967   8
  -1 -16 -19 456.017 389.283   3
  -1  16  19-143.303 282.176   8
  -1  16  19 137.388 621.426   5
   1 -16 -19-656.073 881.837   2
   1 -16 -19-400.799 402.436   3
  -1 -16 -20 110.037 806.901   2
   1  16  20-146.930 689.441   5
  -1 -16 -20 203.406 398.227   3
  -1  16  20 101.607 263.904   8
  -1  16  20 167.677 650.991   5
   1 -16 -20-215.447 392.251   3
  -2 -16  -1-33.2988 231.539   3
  -2 -16  -2 228.027 236.109   3
   2  16   2 97.7688 830.621   5
  -2 -16  -3-223.751 235.273   3
   2  16   3-818.579 784.459   5
  -2 -16  -4 339.545 247.415   3
   2  16   4-516.865 735.536   5
   2 -16   4 268.208 652.380   1
  -2 -16  -4-1042.02 755.012   2
   2 -16   4-17.5666 344.495   4
   2 -16   5 577.325 643.191   1
  -2  16  -5 550.682 660.080   6
  -2 -16  -5 484.946 274.048   3
   2  16   5 1050.84 699.694   5
   2  16   5 195.389 229.765   8
   2 -16  -5 1994.29 428.953   3
  -2  16  -5-42.1719 306.306   7
  -2 -16  -5 1892.62 785.252   2
   2 -16   5 425.825 365.773   4
  -2  16  -6 24.2411 623.703   6
  -2 -16  -6-51.3052 264.333   3
   2  16   6 188.002 673.437   5
   2 -16   6-251.253 591.441   1
   2 -16  -6-1060.68 841.442   2
   2  16   6 78.8529 222.637   8
  -2  16   6-41.7961 556.053   5
  -2  16   6 501.743 256.006   8
   2 -16  -6 51.3929 356.610   3
  -2  16  -6 72.1166 311.580   7
   2 -16   6-17.8279 349.552   4
  -2 -16  -6-213.993 772.461   2
  -2 -16  -7-566.095 777.456   2
  -2  16  -7-98.1378 619.964   6
  -2 -16  -7-26.4638 260.818   3
   2  16   7 105.126 621.016   5
   2  16   7-127.962 224.082   8
   2 -16  -7-1374.50 776.973   2
  -2  16   7-404.636 535.686   5
  -2  16   7-81.2959 241.568   8
   2 -16  -7-140.120 345.166   3
  -2  16  -7-44.2690 305.474   7
   2 -16   7 28.2854 595.973   1
   2 -16   7 286.838 334.089   4
  -2 -16  -8 897.095 803.304   2
  -2  16  -8-148.901 578.599   6
  -2 -16  -8 219.168 263.677   3
   2  16   8 493.487 621.146   5
   2  16   8-227.041 227.580   8
  -2  16   8-347.489 497.625   5
   2 -16  -8 614.962 747.270   2
  -2  16   8-178.251 232.340   8
   2 -16  -8 411.785 350.047   3
  -2  16  -8 106.501 298.226   7
   2 -16   8 28.7264 588.307   1
   2 -16   8-72.1515 327.412   4
  -2 -16  -9-882.847 820.516   2
  -2  16  -9 627.193 579.708   6
  -2 -16  -9-98.9933 279.822   3
   2  16   9-515.251 601.802   5
   2  16   9 586.328 239.624   8
  -2  16   9-154.257 508.761   5
  -2  16   9 60.6092 244.057   8
   2 -16  -9-566.918 760.942   2
   2 -16  -9 73.1948 354.217   3
   2 -16   9 463.244 570.478   1
  -2  16  -9 31.3886 306.995   7
   2 -16   9-108.928 334.520   4
  -2 -16 -10 165.398 813.175   2
  -2  16 -10-25.2905 588.141   6
  -2 -16 -10 190.771 286.368   3
   2  16  10 386.463 602.394   5
   2  16  10 149.736 234.000   8
  -2  16  10-382.282 531.410   5
  -2  16  10 162.156 251.769   8
   2 -16 -10-287.681 747.258   2
   2 -16 -10-186.738 343.113   3
  -2  16 -10 80.8549 309.394   7
   2 -16  10 330.826 338.681   4
   2 -16  11 184.923 319.354   4
  -2 -16 -11 33.4309 833.636   2
  -2  16 -11-25.5492 566.587   6
  -2 -16 -11-75.7499 289.339   3
   2  16  11-750.588 612.612   5
   2  16  11 25.4307 237.589   8
  -2  16  11 1055.78 533.204   5
  -2  16  11 114.387 245.976   8
   2 -16 -11-147.054 750.491   2
   2 -16 -11-114.501 348.468   3
  -2  16 -11 16.6306 339.822   7
   2 -16  12-18.5999 342.093   4
  -2 -16 -12-339.057 836.778   2
  -2  16 -12-206.412 554.844   6
  -2 -16 -12-156.525 305.249   3
   2  16  12 156.256 613.696   5
   2  16  12 362.468 255.037   8
  -2  16  12-46.8714 531.958   5
  -2  16  12-271.605 255.447   8
   2 -16 -12-298.116 774.851   2
   2 -16 -12 428.754 357.404   3
  -2  16 -12-17.0404 316.565   7
   2 -16  13-186.990 336.205   4
  -2  16 -13-416.755 577.237   6
  -2 -16 -13-889.607 853.996   2
  -2 -16 -13 161.536 316.589   3
   2  16  13-974.762 630.758   5
   2  16  13 26.3335 253.895   8
  -2  16  13 237.990 555.071   5
  -2  16  13-604.628 268.349   8
   2 -16 -13 118.263 363.874   3
   2 -16 -13 513.213 779.107   2
  -2  16 -13 17.3824 345.784   7
   2 -16  14 300.585 342.141   4
  -2  16 -14-445.262 582.069   6
  -2 -16 -14-69.0689 846.577   2
  -2 -16 -14 533.678 340.297   3
   2  16  14-859.640 656.625   5
   2  16  14 546.627 280.104   8
  -2  16  14 437.673 560.415   5
  -2  16  14 546.817 265.870   8
   2 -16 -14-100.603 372.177   3
   2 -16 -14 611.091 796.945   2
  -2  16 -14-35.2755 341.994   7
   2 -16  15 75.8317 309.757   4
  -2  16 -15-184.960 619.376   6
  -2 -16 -15 1008.64 884.848   2
  -2 -16 -15 103.288 331.842   3
   2  16  15-655.107 664.968   5
   2  16  15-379.100 277.969   8
  -2  16  15 468.611 276.323   8
  -2  16  15-298.100 570.804   5
   2 -16 -15 82.1119 400.871   3
   2 -16 -15 618.199 830.286   2
  -2  16 -15 177.872 335.121   7
   2 -16  16 494.384 392.686   4
  -2  16 -16 1199.09 716.465   6
  -2 -16 -16 5728.30 1092.33   2
  -2 -16 -16 1420.66 418.045   3
   2  16  16 2680.78 792.984   5
   2  16  16 1154.59 348.138   8
  -2  16  16 697.203 326.881   8
  -2  16  16 3208.87 689.931   5
   2 -16 -16 1458.37 474.176   3
   2 -16 -16 4357.23 960.375   2
  -2  16 -16 142.668 413.336   7
   2 -16  17-419.006 337.195   4
  -2  16 -17-294.128 606.831   6
  -2 -16 -17-675.342 916.782   2
  -2 -16 -17-54.9226 338.047   3
   2  16  17-366.105 690.399   5
   2  16  17-69.7447 284.670   8
  -2  16  17-394.566 290.918   8
  -2  16  17-438.674 590.084   5
   2 -16 -17 106.225 402.584   3
   2 -16 -17-1969.04 849.931   2
  -2  16 -17-17.7984 350.137   7
   2 -16  18-115.283 332.980   4
  -2  16 -18-26.9391 593.881   6
  -2 -16 -18 720.032 918.005   2
  -2 -16 -18-113.285 356.279   3
   2  16  18 144.423 674.699   5
   2  16  18-353.832 290.316   8
  -2  16  18-14.2289 277.615   8
  -2  16  18 684.993 591.228   5
   2 -16 -18 129.907 411.320   3
   2 -16 -18-1225.01 845.177   2
  -2  16 -18-70.5660 341.923   7
   2 -16  19-249.598 330.604   4
  -2  16 -19-81.3872 614.702   6
  -2 -16 -19-438.375 897.279   2
   2  16  19-88.3551 693.489   5
  -2 -16 -19-174.916 370.274   3
   2  16  19-346.134 291.371   8
  -2  16  19 186.627 295.196   8
  -2  16  19-80.1556 601.354   5
   2 -16 -19 164.068 826.609   2
   2 -16 -19-22.1376 409.039   3
  -2  16 -19 69.5405 363.162   7
   2 -16  20-632.308 353.306   4
   2  16  20 269.084 707.477   5
  -2 -16 -20 240.338 404.206   3
  -2  16  20 272.376 597.295   5
   2 -16 -20 33.5280 661.846   2
   2 -16 -20-630.928 424.068   3
   3  16   3 1378.61 876.055   5
  -3  16  -4 955.705 681.251   6
   3  16   4-345.580 774.303   5
  -3  16  -4 206.223 338.679   7
   3 -16   4 81.0072 585.219   1
   3 -16   4 88.5974 351.300   4
  -3  16  -5-314.165 657.205   6
  -3 -16  -5-219.267 210.180   3
   3  16   5 412.722 732.973   5
  -3  16  -5 83.1623 313.833   7
   3 -16   5-305.277 619.302   1
   3 -16   5-303.517 362.579   4
   3 -16   6-169.578 589.606   1
  -3  16  -6-561.916 613.593   6
  -3 -16  -6-109.007 209.539   3
   3  16   6 814.634 680.999   5
   3 -16  -6 224.670 353.345   3
  -3  16  -6-28.1080 295.948   7
  -3 -16  -6-675.556 677.833   2
   3 -16   6 54.0164 349.934   4
  -3  16  -7 49.3993 569.107   6
  -3 -16  -7-11.4394 219.942   3
   3 -16   7-86.9395 592.123   1
   3  16   7 217.640 630.858   5
  -3  16   7 832.009 511.079   5
  -3  16   7 47.4393 227.721   8
   3 -16  -7-106.826 712.007   2
   3 -16  -7-171.393 362.707   3
  -3  16  -7 14.2598 282.369   7
  -3 -16  -7-1119.57 738.710   2
   3 -16   7 290.629 330.217   4
  -3  16  -8 75.0519 590.572   6
  -3 -16  -8-23.9231 221.587   3
   3  16   8 961.613 648.023   5
   3  16   8 33.9375 215.741   8
  -3  16   8-260.581 498.483   5
  -3  16   8-121.570 234.942   8
   3 -16   8 88.2515 600.344   1
   3 -16  -8 217.278 717.077   2
   3 -16  -8 19.3870 360.160   3
  -3  16  -8-72.5100 299.755   7
   3 -16   8-55.0088 322.294   4
  -3 -16  -8-122.744 730.718   2
  -3  16  -9 581.330 614.721   6
  -3 -16  -9 37.3451 241.238   3
   3  16   9-791.857 628.014   5
   3  16   9-245.797 231.506   8
  -3  16   9-38.0887 244.756   8
  -3  16   9-442.269 516.516   5
   3 -16  -9 394.791 384.977   3
   3 -16  -9 717.693 740.970   2
   3 -16   9-416.985 601.403   1
  -3  16  -9-58.4239 293.883   7
   3 -16   9 18.6863 325.865   4
  -3 -16  -9 473.648 733.560   2
  -3 -16 -10 1654.17 808.788   2
  -3  16 -10-25.5236 582.644   6
  -3 -16 -10 312.591 265.507   3
   3  16  10-551.684 620.164   5
   3  16  10-205.205 236.020   8
  -3  16  10-38.9276 250.776   8
  -3  16  10-694.998 506.474   5
   3 -16 -10 619.713 390.859   3
   3 -16 -10-28.0447 738.364   2
  -3  16 -10-59.5818 291.614   7
   3 -16  10 272.968 630.490   1
   3 -16  10-509.258 344.900   4
  -3 -16 -11 165.202 806.915   2
   3 -16  11-30.5497 589.666   1
  -3  16 -11-360.866 612.264   6
  -3 -16 -11-218.543 263.054   3
   3  16  11 1023.90 616.001   5
   3  16  11-260.380 241.630   8
  -3  16  11 13.2245 266.505   8
  -3  16  11-616.479 524.199   5
   3 -16 -11-61.0574 380.318   3
   3 -16 -11 595.945 747.188   2
  -3  16 -11 30.3844 306.492   7
   3 -16  11 19.0295 327.628   4
  -3 -16 -12-67.0910 800.871   2
  -3  16 -12-391.560 616.224   6
   3 -16  12 30.7137 626.067   1
  -3 -16 -12-142.851 282.139   3
   3  16  12-660.225 639.086   5
   3  16  12 63.5010 242.852   8
  -3  16  12-68.5101 260.956   8
  -3  16  12 418.698 523.465   5
   3 -16 -12 393.647 400.386   3
   3 -16 -12 687.448 762.591   2
  -3  16 -12-15.4785 298.343   7
   3 -16  12-95.9638 338.943   4
  -3 -16 -13 171.006 846.806   2
  -3  16 -13 237.085 595.144   6
  -3 -16 -13 30.0070 285.834   3
   3  16  13-1277.17 659.339   5
   3 -16  13 277.365 612.525   1
   3  16  13 12.9612 246.286   8
  -3  16  13 180.508 268.082   8
  -3  16  13 497.562 531.699   5
   3 -16 -13 506.152 405.489   3
   3 -16 -13-28.8679 742.717   2
  -3  16 -13-15.7454 308.719   7
   3 -16  13 38.9474 351.972   4
  -3 -16 -14-34.6088 838.986   2
  -3  16 -14 79.7592 600.704   6
  -3 -16 -14 376.136 294.633   3
   3  16  14 269.583 625.789   5
   3  16  14-211.562 268.481   8
  -3  16  14 378.618 272.983   8
  -3  16  14 119.971 546.290   5
   3 -16  14-154.514 620.307   1
   3 -16 -14 21.5379 387.601   3
   3 -16 -14 87.3048 749.327   2
  -3  16 -14 15.8864 306.399   7
   3 -16  14 176.583 338.982   4
  -3  16 -15 187.660 670.960   6
  -3 -16 -15-196.372 334.312   3
   3  16  15 464.250 690.365   5
   3  16  15-161.591 276.673   8
  -3  16  15-367.236 300.358   8
  -3  16  15-732.789 583.082   5
   3 -16 -15-240.808 425.853   3
   3 -16 -15-1199.22 827.450   2
  -3  16 -15-16.0781 357.237   7
   3 -16  15 340.702 698.039   1
   3 -16  15-454.346 383.896   4
   3 -16  16 239.767 360.986   4
   3 -16  16-468.160 657.671   1
  -3 -16 -16-35.3720 959.680   2
  -3  16 -16-458.345 703.593   6
  -3 -16 -16-443.534 356.191   3
   3  16  16-1361.27 739.361   5
   3  16  16-13.6960 272.231   8
  -3  16  16-369.066 296.637   8
  -3  16  16-1516.34 609.958   5
   3 -16 -16-711.680 444.352   3
   3 -16 -16-1676.16 849.855   2
  -3  16 -16-81.0982 337.303   7
   3 -16  17 20.0815 338.217   4
  -3 -16 -17 35.9239 870.098   2
  -3  16 -17-135.916 615.892   6
   3 -16  17 94.0884 649.044   1
  -3 -16 -17-266.550 338.056   3
   3  16  17-227.464 694.962   5
   3  16  17 13.9193 267.332   8
  -3  16  17 142.424 286.633   8
  -3  16  17 881.405 572.751   5
   3 -16 -17 22.5713 416.399   3
   3 -16 -17 1923.43 782.949   2
  -3  16 -17 65.2001 327.223   7
   3 -16  18 120.928 350.349   4
  -3 -16 -18 145.347 867.528   2
  -3  16 -18 27.3900 604.391   6
  -3 -16 -18-18.4898 354.073   3
   3  16  18-405.507 710.833   5
   3  16  18 42.4078 279.946   8
  -3  16  18 85.6241 284.719   8
  -3  16  18-1254.27 583.798   5
   3 -16  18-31.5963 646.350   1
   3 -16 -18 435.957 436.435   3
   3 -16 -18 29.8405 762.033   2
  -3  16 -18 342.901 320.113   7
   3 -16  19-181.840 352.332   4
  -3 -16 -19 36.7910 884.299   2
  -3  16 -19 219.939 632.065   6
  -3 -16 -19-768.349 388.484   3
   3  16  19-176.085 723.378   5
  -3  16  19-499.943 299.972   8
  -3  16  19-857.594 593.700   5
   3 -16 -19-534.283 446.743   3
   3 -16 -19 362.244 768.758   2
  -3  16 -19-65.1792 320.491   7
  -3  16  20 26.1477 581.239   5
   3 -16 -20-610.722 449.162   3
   4 -16   3 155.720 537.281   1
  -4  16  -4-388.300 608.006   6
   4 -16   4-187.524 566.871   1
  -4  16  -4 27.8734 283.750   7
   4 -16   4 120.218 321.297   4
  -4  16  -5 171.614 589.840   6
   4 -16   5-27.3508 571.801   1
  -4  16  -5 13.9412 274.038   7
   4 -16   5 139.150 312.017   4
  -4  16  -6 346.540 605.005   6
   4 -16   6-27.9256 563.204   1
  -4  16  -6-111.575 269.586   7
   4 -16   6-88.1058 303.837   4
  -4  16  -7-199.321 602.432   6
   4 -16   7 115.064 585.678   1
   4 -16  -7-85.7946 396.196   3
   4 -16  -7 623.301 684.725   2
  -4  16  -7-112.176 279.021   7
   4 -16   7 160.628 308.197   4
  -4  16  -8-301.755 617.641   6
  -4 -16  -8 49.6733 184.686   3
   4  16   8 411.775 604.903   5
  -4  16   8 106.605 269.147   8
  -4  16   8 153.585 489.494   5
   4 -16  -8-431.922 399.547   3
   4 -16   8-29.3121 591.886   1
   4 -16  -8 687.767 729.107   2
  -4  16  -8 84.7819 278.817   7
   4 -16   8 309.372 333.322   4
  -4  16  -9-406.023 624.812   6
  -4 -16  -9 42.2058 193.356   3
   4  16   9-659.712 599.549   5
  -4  16   9 164.078 278.479   8
  -4  16   9 333.693 505.488   5
   4 -16  -9 326.766 403.611   3
  -4  16  -9 14.3092 282.353   7
   4 -16  -9-160.710 720.970   2
   4 -16   9-29.8038 613.252   1
   4 -16   9 294.945 340.585   4
  -4  16 -10 128.032 631.959   6
  -4 -16 -10 45.0612 212.524   3
   4  16  10 354.014 600.067   5
  -4  16  10-111.698 276.805   8
  -4  16  10 1168.04 523.709   5
   4 -16 -10-131.988 406.927   3
  -4  16 -10-28.9581 280.185   7
   4 -16 -10 459.290 706.777   2
   4 -16  10 30.5041 598.692   1
   4 -16  10-167.930 337.685   4
  -4 -16 -10-481.309 729.183   2
  -4  16 -11-233.072 619.934   6
  -4 -16 -11 35.9287 224.584   3
   4  16  11-279.680 592.870   5
  -4  16  11-43.2439 296.058   8
  -4  16  11-751.350 518.369   5
   4 -16 -11-445.598 435.161   3
  -4  16 -11-14.6698 287.353   7
   4 -16 -11-135.687 719.561   2
   4 -16  11 132.598 346.008   4
  -4 -16 -11-620.924 736.804   2
   4 -16  11-154.474 622.383   1
   4 -16  12 31.2227 604.965   1
  -4  16 -12-391.809 613.905   6
  -4 -16 -12-25.3370 239.640   3
   4  16  12 282.036 586.932   5
   4  16  12-12.0143 232.483   8
  -4  16  12 160.100 284.928   8
  -4  16  12-507.693 530.727   5
   4 -16 -12-382.720 427.601   3
  -4  16 -12 59.6389 284.338   7
   4 -16 -12 108.654 702.439   2
   4 -16  12 306.689 347.926   4
  -4 -16 -12-736.411 753.838   2
  -4  16 -13-105.429 611.192   6
   4 -16  13-31.5148 629.420   1
  -4 -16 -13 255.779 260.845   3
   4  16  13-466.179 596.727   5
   4  16  13 136.047 239.333   8
  -4  16  13-146.160 278.742   8
  -4  16  13-23.3839 520.616   5
   4 -16 -13-113.729 415.314   3
  -4  16 -13-15.1183 303.796   7
   4 -16 -13-1002.77 708.994   2
   4 -16  13-174.445 359.572   4
  -4 -16 -13 32.7369 779.555   2
  -4  16 -14-666.099 719.924   6
  -4 -16 -14 57.3265 281.162   3
   4 -16  14-576.629 737.788   1
   4  16  14 210.464 644.978   5
   4  16  14-38.1257 250.497   8
  -4  16  14-452.907 304.587   8
  -4  16  14-971.002 567.337   5
  -4  16 -14-122.546 333.332   7
   4 -16 -14-803.855 453.072   3
   4 -16 -14 377.620 728.801   2
   4 -16  14-176.316 367.241   4
  -4 -16 -14-800.394 842.960   2
  -4  16 -15-456.792 723.009   6
  -4 -16 -15 60.7869 311.132   3
   4  16  15 774.493 669.379   5
   4 -16  15-193.667 736.395   1
   4  16  15 104.109 276.090   8
  -4  16  15 189.153 299.337   8
  -4  16  15 808.603 557.820   5
  -4  16 -15 15.5060 334.035   7
   4 -16 -15 324.470 451.250   3
   4 -16 -15 26.8224 726.581   2
   4 -16  15 19.9877 395.761   4
  -4 -16 -16 207.181 837.014   2
  -4  16 -16 81.2910 623.767   6
  -4 -16 -16-64.6907 299.187   3
   4  16  16 435.419 635.062   5
   4  16  16 132.947 251.511   8
  -4  16  16 72.2252 283.169   8
   4 -16  16 32.5357 621.320   1
  -4  16  16-842.355 548.891   5
  -4  16 -16 15.6745 321.403   7
   4 -16 -16-23.4884 408.927   3
   4 -16  16 181.547 335.551   4
  -4 -16 -17 1085.03 862.953   2
  -4  16 -17 739.794 658.198   6
  -4 -16 -17-444.410 337.251   3
   4  16  17-360.165 687.150   5
   4  16  17-298.371 275.829   8
  -4  16  17-495.296 300.901   8
  -4  16  17-1046.36 564.565   5
   4 -16  17-32.8391 666.128   1
  -4  16 -17-63.2490 330.456   7
   4 -16 -17 236.553 438.621   3
   4 -16  17-691.908 360.653   4
  -4 -16 -18-460.975 886.991   2
  -4  16 -18 497.289 666.333   6
  -4 -16 -18-252.630 351.007   3
   4  16  18-819.488 715.637   5
   4  16  18-179.229 276.709   8
  -4  16  18 158.519 288.176   8
  -4  16  18 147.452 545.524   5
   4 -16  18-33.2258 642.942   1
  -4  16 -18-63.7041 323.496   7
   4 -16 -18 71.3495 427.842   3
   4 -16  18 330.111 381.660   4
  -4  16 -19 250.588 642.736   6
  -4 -16 -19-37.9918 379.446   3
  -4  16  19-618.553 549.260   5
   4 -16 -19-168.043 427.967   3
   4 -16  19 103.888 362.362   4
   5 -16   3-25.0379 514.742   1
   5 -16   3 190.921 292.097   4
  -5  16  -4-277.763 619.183   6
  -5  16  -4-72.2940 280.896   7
   5 -16   4 25.8722 518.628   1
   5 -16   4 226.764 300.920   4
  -5  16  -5 127.180 615.541   6
  -5  16  -5-99.9724 278.874   7
   5 -16   5 82.4078 296.935   4
   5 -16   5-26.4290 545.028   1
  -5  16  -6 101.827 641.281   6
  -5  16  -6 14.2539 276.647   7
   5 -16   6-168.793 299.584   4
   5 -16   6-273.913 578.398   1
   5 -16   7 83.9399 554.728   1
  -5  16  -7 25.6300 639.635   6
  -5  16  -7 57.0075 280.134   7
   5 -16   7 68.6240 313.306   4
  -5  16  -8-77.4054 640.350   6
   5 -16   8-171.384 603.113   1
  -5  16  -8-85.1733 280.381   7
   5 -16  -8 790.987 454.034   3
   5 -16  -8-590.194 685.996   2
   5 -16   8 17.4291 307.806   4
  -5  16  -9 387.642 645.465   6
   5 -16   9 353.386 608.745   1
  -5  16   9 15.7647 311.452   8
  -5  16   9-417.047 485.842   5
  -5  16  -9-42.7553 270.062   7
   5 -16  -9 23.8317 414.285   3
   5 -16   9 406.985 334.807   4
  -5  16 -10 286.152 638.963   6
   5 -16  10 149.977 586.515   1
  -5  16  10 31.9362 301.752   8
  -5  16  10 818.816 498.082   5
  -5  16 -10-28.6758 282.232   7
   5 -16 -10-261.208 441.213   3
   5 -16  10 144.433 324.387   4
  -5  16 -11 26.1908 646.920   6
   5 -16  11 274.489 612.128   1
  -5  16  11 80.1430 307.772   8
  -5  16  11-511.893 508.082   5
  -5  16 -11-43.2532 288.357   7
   5 -16 -11-165.997 414.202   3
   5 -16  11-91.5938 326.080   4
  -5  16 -12-262.779 622.521   6
   5 -16  12-125.118 656.104   1
  -5  16  12 239.103 327.250   8
  -5  16  12 44.8503 494.843   5
  -5  16 -12 14.5524 291.755   7
   5 -16 -12-166.812 434.502   3
   5 -16  12-334.496 327.702   4
  -5  16 -13-688.209 782.469   6
  -5 -16 -13-333.664 241.783   3
   5  16  13 1294.51 604.783   5
   5 -16  13-158.530 720.757   1
  -5  16  13 31.4735 321.282   8
  -5  16  13-632.407 534.639   5
  -5  16 -13-117.595 346.294   7
   5 -16 -13-142.924 463.954   3
   5 -16  13-550.132 372.603   4
  -5 -16 -13-1527.47 775.435   2
  -5  16 -14 186.692 735.567   6
  -5 -16 -14-25.6500 258.378   3
   5  16  14-147.389 606.755   5
  -5  16  14 125.880 320.402   8
  -5  16  14 591.027 542.260   5
   5 -16  14-385.411 799.631   1
  -5  16 -14-14.8624 360.298   7
   5 -16 -14-595.420 455.448   3
   5 -16  14 115.378 393.850   4
  -5  16 -15 323.235 650.802   6
  -5 -16 -15-180.124 270.316   3
   5  16  15 100.592 594.743   5
  -5  16  15-384.315 306.366   8
   5 -16  15-32.5078 653.261   1
  -5  16 -15 105.456 295.400   7
   5 -16 -15 261.775 422.962   3
   5 -16  15 38.9908 348.662   4
  -5 -16 -15-664.018 763.947   2
  -5  16 -16-244.311 641.374   6
  -5 -16 -16 449.799 293.517   3
   5  16  16-180.010 585.921   5
  -5  16  16-119.747 295.263   8
  -5  16 -16 45.6874 306.016   7
   5 -16  16-1448.10 656.505   1
   5 -16 -16-285.027 412.836   3
   5 -16  16 178.297 354.216   4
  -5 -16 -16 517.048 774.147   2
  -5  16 -17 136.765 622.089   6
  -5 -16 -17 549.159 326.195   3
   5  16  17 474.419 639.449   5
   5  16  17-12.7839 253.531   8
  -5  16  17-101.917 284.018   8
  -5  16 -17-92.3271 309.656   7
   5 -16  17-33.3464 633.404   1
   5 -16 -17 236.934 421.747   3
   5 -16  17-100.289 370.034   4
  -5 -16 -17 165.474 780.596   2
  -5  16 -18 138.210 655.989   6
  -5 -16 -18 122.077 336.645   3
   5  16  18 323.111 647.809   5
  -5  16  18 424.661 294.660   8
   5 -16  18-568.582 358.670   4
  -6  16  -3-104.366 669.269   6
   6 -16   3 24.1928 471.798   1
  -6  16  -3 30.5523 279.743   7
   6 -16   3-45.5565 265.643   4
  -6  16  -4 238.674 676.230   6
   6 -16   4 24.9133 507.289   1
  -6  16  -4 60.9517 289.914   7
   6 -16   4-279.234 292.341   4
  -6  16  -5 53.0621 678.011   6
   6 -16   5-76.2256 489.739   1
  -6  16  -5-14.9489 285.085   7
   6 -16   5 31.5252 290.326   4
  -6  16  -6-132.688 675.304   6
   6 -16   6 52.6063 537.648   1
  -6  16  -6-29.7740 281.654   7
   6 -16   6-353.348 303.389   4
  -6  16  -7 26.9522 685.683   6
  -6  16  -7-14.6368 282.140   7
   6 -16   7-53.7153 552.604   1
   6 -16   7-65.3844 295.401   4
  -6  16  -8-323.553 684.913   6
  -6  16  -8 14.6114 300.300   7
   6 -16   8 305.587 582.057   1
   6 -16   8 49.5956 290.135   4
  -6  16  -9-296.820 676.714   6
  -6  16  -9 14.6089 281.978   7
   6 -16   9 420.109 316.487   4
   6 -16   9 170.156 576.226   1
  -6  16 -10-134.287 654.820   6
  -6  16  10-192.096 381.333   8
  -6  16 -10-43.4908 288.515   7
   6 -16  10 17.0777 306.325   4
   6 -16  10 28.9227 564.785   1
  -6  16 -11-484.348 724.280   6
  -6  16  11 168.942 365.191   8
  -6  16 -11 29.1115 298.868   7
   6 -16  11 157.199 325.011   4
  -6  16 -12 1618.82 875.646   6
  -6  16  12 424.604 396.904   8
  -6  16 -12-14.6366 356.004   7
   6 -16  12 1117.86 385.219   4
   6 -16  13-30.9429 652.025   1
  -6  16  13 17.6703 350.103   8
  -6  16 -13-206.303 350.223   7
   6 -16  13-198.308 358.511   4
  -6  16 -14-270.434 644.568   6
   6 -16  14-94.3332 673.359   1
  -6  16  14-218.686 322.174   8
  -6  16 -14-14.7718 286.674   7
   6 -16  14 55.2331 318.522   4
  -6  16 -15 163.105 649.004   6
  -6  16 -15-14.9062 304.568   7
   6 -16  15 467.864 332.570   4
  -6  16 -16-272.483 653.413   6
   6 -16  16-32.7998 669.471   1
  -6  16 -16 15.0522 316.623   7
   6 -16  16-247.271 331.330   4
  -6  16 -17 164.537 656.939   6
   6 -16  17-19.4618 338.814   4
   7 -16   3-23.9031 488.395   1
  -7  16  -3-15.9011 303.262   7
   7 -16   3-72.9904 287.978   4
  -7  16  -3 147.544 755.242   6
   7 -16   4-121.288 502.016   1
  -7  16  -4-15.7604 297.797   7
   7 -16   4 163.993 285.157   4
  -7  16  -4 377.722 709.589   6
   7 -16   5 24.9182 488.486   1
  -7  16  -5-62.7688 290.776   7
   7 -16   5-152.007 271.463   4
  -7  16  -5 293.474 752.259   6
  -7  16  -6 346.927 722.117   6
   7 -16   6-50.7333 507.975   1
  -7  16  -6-15.4744 299.234   7
   7 -16   6 231.073 277.738   4
  -7  16  -7-171.166 689.810   6
   7 -16   7 496.600 533.438   1
  -7  16  -7 15.3961 298.769   7
   7 -16   7 31.3254 282.681   4
  -7  16  -8 314.804 715.869   6
   7 -16   8 53.2982 546.405   1
  -7  16  -8 30.6639 292.007   7
   7 -16   8-143.192 276.097   4
  -7  16  -9-283.022 739.925   6
   7 -16   9-54.3718 596.919   1
  -7  16  -9-75.2789 305.956   7
   7 -16   9-96.5540 300.788   4
  -7  16 -10 953.625 808.560   6
   7 -16  10 1152.81 669.569   1
  -7  16 -10 45.1193 331.063   7
   7 -16  10 212.414 333.873   4
  -7  16 -11 56.5505 715.526   6
   7 -16  11-458.542 599.119   1
  -7  16 -11 15.0469 323.588   7
   7 -16  11 16.5968 313.106   4
  -7  16 -12-112.504 692.531   6
  -7  16 -12 29.7566 297.313   7
   7 -16  12-29.1968 632.560   1
   7 -16  12-234.733 298.110   4
  -7  16 -13-392.285 703.094   6
  -7  16 -13 89.6400 299.487   7
   7 -16  13-30.1060 626.544   1
   7 -16  13-68.1785 306.161   4
  -7  16 -14 27.7845 671.875   6
  -7  16 -14 15.0211 304.526   7
   7 -16  14 183.843 613.523   1
   7 -16  14 173.410 313.496   4
  -7  16 -15 55.5616 668.377   6
  -7  16 -15 60.5200 296.271   7
   7 -16  15-31.1762 663.330   1
   7 -16  15 106.631 325.985   4
  -7  16 -16-332.069 700.303   6
   7 -16  16-18.1133 331.292   4
   8 -16   2 70.2733 248.689   4
   8 -16   3 301.072 267.923   4
   8 -16   3 142.523 479.715   1
  -8  16  -3 116.536 987.818   6
   8 -16   4 145.166 492.866   1
  -8  16  -4-114.248 316.657   7
   8 -16   4 378.764 269.202   4
  -8  16  -4 183.794 903.693   6
   8 -16   5-1199.69 542.513   1
  -8  16  -5 48.7571 315.508   7
   8 -16   5 103.532 271.070   4
  -8  16  -5-349.438 926.530   6
   8 -16   6 625.620 570.747   1
  -8  16  -6 64.6045 330.050   7
   8 -16   6-119.956 295.094   4
  -8  16  -6 611.029 924.117   6
   8 -16   7 25.4128 570.223   1
  -8  16  -7 80.2496 363.785   7
   8 -16   7 424.399 296.262   4
  -8  16  -7 325.618 885.596   6
   8 -16   8-1214.40 575.010   1
  -8  16  -8 79.1862 332.000   7
   8 -16   8-138.089 295.580   4
  -8  16  -8-345.230 834.052   6
  -8  16  -9-280.534 768.111   6
   8 -16   9-26.5680 539.753   1
  -8  16  -9 173.328 304.699   7
   8 -16   9 139.773 294.771   4
  -8  16 -10-60.5949 752.568   6
   8 -16  10 27.0465 522.075   1
  -8  16 -10-172.700 306.703   7
   8 -16  10-62.6578 269.760   4
  -8  16 -11-59.1707 731.913   6
   8 -16  11-413.183 566.096   1
  -8  16 -11 77.6370 298.505   7
   8 -16  11-15.8783 276.435   4
  -8  16 -12-353.574 726.615   6
   8 -16  12-482.103 581.494   1
  -8  16 -12-15.5201 307.365   7
   8 -16  12 48.1323 294.301   4
  -8  16 -13-492.895 710.393   6
   8 -16  13 115.460 581.450   1
  -8  16 -13 31.0829 310.453   7
   8 -16  13 163.073 290.742   4
  -8  16 -14 901.327 731.360   6
   8 -16  14-282.060 304.095   4
   9 -16   2-171.875 271.093   4
   9 -16   3-101.500 274.912   4
  -9  16  -3-1009.49 1841.36   6
   9 -16   4 131.552 266.445   4
  -9  16  -4 362.697 1579.17   6
   9 -16   5-176.669 264.124   4
  -9  16  -5 260.502 1336.51   6
   9 -16   6 29.6280 267.712   4
   9 -16   6 24.8198 484.033   1
  -9  16  -6 92.1013 1184.75   6
   9 -16   7-150.518 505.923   1
  -9  16  -7 132.302 328.684   7
   9 -16   7-89.2848 272.119   4
  -9  16  -7-295.853 1074.42   6
   9 -16   8-179.467 525.693   1
  -9  16  -8 16.4067 320.404   7
   9 -16   8 119.762 264.834   4
  -9  16  -8 232.411 971.959   6
   9 -16   9 285.969 538.032   1
  -9  16  -9-16.2850 306.473   7
   9 -16   9-226.066 275.706   4
  -9  16  -9-36.5955 914.721   6
   9 -16  10 26.6116 529.703   1
  -9  16 -10-16.1871 324.758   7
   9 -16  10 273.122 288.904   4
  -9  16 -10 275.011 853.931   6
   9 -16  11-81.0863 561.902   1
  -9  16 -11-96.6875 310.672   7
   9 -16  11-61.2963 285.962   4
  -9  16 -11 130.485 826.154   6
  -9  16 -12-128.114 792.431   6
   9 -16  12 27.4605 472.764   1
  -9  16 -12-16.0704 308.728   7
   9 -16  12-232.627 268.035   4
   9 -16  13 187.942 294.813   4
  10 -16   7-59.6245 261.188   4
 -10  16  -7 1490.76 1851.77   6
  10 -16   8-59.4672 250.376   4
 -10  16  -8 285.078 1457.06   6
  10 -16   9 14.8626 261.681   4
  10 -16   9-25.9832 532.143   1
 -10  16  -9 1080.89 1273.30   6
  10 -16  10 148.710 261.286   4
 -10  16 -10 1077.39 1065.47   6
   0 -17  -5 160.779 832.162   2
   0 -17  -5 15.7791 310.521   3
   0  17   5 223.508 610.952   5
   0  17   5-155.580 238.497   8
   0 -17  -6 292.336 811.907   2
   0 -17  -6-48.3875 306.465   3
   0  17   6 991.235 582.478   5
   0  17   6 12.1595 231.729   8
   0 -17  -7 97.9722 820.942   2
   0 -17  -7 115.337 335.235   3
   0  17   7 296.358 242.514   8
   0  17  -7-86.1789 569.821   7
   0 -17  -8 524.440 823.760   2
   0 -17  -8-336.774 328.876   3
   0  17   8-123.726 593.844   5
   0  17   8 49.9522 245.817   8
   0  17  -8-98.8826 643.651   7
   0 -17  -9-1552.11 842.792   2
   0 -17  -9 120.436 338.843   3
   0  17   9-49.7875 604.099   5
   0  17   9-202.776 253.533   8
   0  17  -9 37.7875 745.531   7
   0 -17 -10-466.188 868.046   2
   0  17  10-782.801 617.740   5
   0 -17 -10-70.2557 344.398   3
   0  17  10 12.9218 248.243   8
   0  17 -10 257.546 890.320   7
   0 -17 -11 536.691 861.106   2
   0  17  11 76.5291 593.765   5
   0 -17 -11 89.7663 351.604   3
   0  17  11 65.5823 264.069   8
   0  17 -11 191.615 936.648   7
   0  17  12-1989.49 744.919   5
   0 -17 -12 36.7101 391.065   3
   0  17  12-865.327 325.689   8
   0  17 -12-622.295 1071.63   7
   0  17  13-1043.78 738.656   5
   0 -17 -13-281.479 429.148   3
   0  17  13 945.554 319.551   8
   0  17  14 291.675 637.586   5
   0 -17 -14-153.588 366.987   3
   0  17  14-68.8338 280.441   8
   0 -17 -15-734.481 915.070   2
   0  17  15-214.651 615.515   5
   0  17  15 167.572 290.618   8
   0 -17 -15 373.278 380.915   3
   0 -17 -16 106.180 907.880   2
   0  17  16 273.386 622.922   5
   0  17  16-325.524 301.817   8
   0 -17 -16 321.638 392.567   3
   0  17  17-613.125 663.072   5
   0  17  17-129.111 298.890   8
   0 -17 -17 144.090 397.280   3
  -1 -17  -4-256.859 303.014   3
   1  17   4 283.780 238.440   8
  -1 -17  -5 511.742 809.987   2
  -1 -17  -5-204.143 299.327   3
   1  17   5 1113.99 704.755   5
   1  17   5 11.7154 239.654   8
  -1 -17  -6-65.1651 815.115   2
   1 -17   6 35.6340 319.780   4
   1 -17  -6-1331.50 827.894   2
  -1 -17  -6 283.173 301.181   3
   1  17   6-516.836 652.319   5
  -1  17   6-92.5061 551.318   5
   1  17   6-240.475 235.410   8
   1 -17  -6-273.726 345.649   3
  -1  17   6-120.109 250.831   8
   1 -17   7 124.677 318.438   4
  -1 -17  -7 33.2525 848.044   2
  -1  17  -7 351.100 564.629   6
   1 -17  -7 310.312 813.125   2
  -1 -17  -7 442.307 311.371   3
   1  17   7 1633.94 685.763   5
  -1  17   7-257.197 561.342   5
   1  17   7 343.636 238.724   8
   1 -17  -7 70.0229 350.904   3
  -1  17   7-159.060 244.673   8
  -1  17  -7 77.4327 373.027   7
   1  17  -7 471.411 2277.60   7
   1 -17   8 503.001 328.975   4
  -1 -17  -8 942.053 870.679   2
  -1  17  -8-25.3403 568.608   6
   1 -17  -8-187.479 815.666   2
  -1 -17  -8 124.813 306.603   3
   1  17   8-291.832 640.950   5
  -1  17   8-518.304 555.669   5
   1  17   8-187.764 243.495   8
   1 -17  -8-537.091 360.189   3
  -1  17   8 124.214 249.004   8
  -1  17  -8-20.7296 406.856   7
   1 -17   9-143.812 320.940   4
  -1 -17  -9 238.004 856.454   2
  -1  17  -9-307.129 564.745   6
   1 -17  -9 1701.97 821.574   2
  -1 -17  -9 95.8814 312.849   3
   1  17   9 344.979 652.818   5
  -1  17   9-119.373 576.795   5
   1  17   9 38.2299 246.926   8
   1 -17  -9 73.1864 353.133   3
  -1  17   9-63.3711 250.023   8
  -1  17  -9-22.2103 435.918   7
   1 -17  10 107.953 308.825   4
  -1 -17 -10-483.055 856.377   2
  -1  17 -10 51.6668 565.520   6
   1 -17 -10 1400.97 855.323   2
  -1 -17 -10-49.1083 319.812   3
   1  17  10 689.416 621.630   5
  -1  17  10 266.395 575.789   5
   1  17  10 129.603 264.391   8
  -1  17  10-103.026 248.772   8
   1 -17 -10 374.098 363.517   3
  -1  17 -10 94.6445 447.090   7
   1 -17  11 36.0058 321.400   4
  -1 -17 -11 487.702 867.975   2
   1 -17 -11 418.364 844.887   2
  -1 -17 -11-117.419 346.322   3
   1  17  11 26.6038 635.144   5
   1  17  11-131.744 253.263   8
  -1  17  11-293.499 588.906   5
  -1  17  11 222.460 261.994   8
   1 -17 -11-171.932 373.028   3
  -1  17 -11-25.0180 506.957   7
   1 -17  12 36.0203 331.725   4
  -1 -17 -12 446.832 365.248   3
   1  17  12 772.312 713.892   5
   1  17  12-199.928 292.619   8
  -1  17  12 248.605 660.499   5
  -1  17  12-308.097 299.704   8
   1 -17 -12 526.910 418.328   3
  -1  17 -12 183.260 552.165   7
   1 -17  13-270.075 346.920   4
  -1 -17 -13-354.258 1018.22   2
  -1 -17 -13-687.770 387.584   3
   1  17  13-1102.61 716.209   5
   1 -17 -13-1149.77 991.258   2
   1  17  13-243.623 301.834   8
  -1  17  13-2428.89 741.661   5
  -1  17  13-285.569 313.194   8
   1 -17 -13-797.588 430.286   3
  -1  17 -13-54.0637 580.336   7
   1 -17  14 72.2028 313.252   4
  -1 -17 -14-35.7933 901.616   2
  -1 -17 -14-18.0974 350.215   3
   1  17  14-574.872 664.677   5
   1 -17 -14 564.536 867.498   2
   1  17  14 467.065 285.265   8
  -1  17  14-205.078 619.842   5
  -1  17  14-248.356 283.251   8
   1 -17 -14 142.588 391.084   3
  -1  17 -14-192.535 541.890   7
  -1 -17 -15 289.423 912.014   2
   1  17  15-527.608 663.552   5
  -1 -17 -15-37.1173 363.361   3
   1 -17 -15-570.588 857.118   2
   1  17  15 41.9930 277.906   8
  -1  17  15 914.725 614.271   5
  -1  17  15-55.9242 289.704   8
   1 -17 -15 394.836 387.187   3
  -1  17 -15 55.0726 562.647   7
  -1 -17 -16-73.0228 950.381   2
   1  17  16-564.365 667.328   5
  -1 -17 -16-686.512 372.416   3
   1 -17 -16-1120.04 911.083   2
   1  17  16 298.162 285.018   8
  -1  17  16 554.480 291.570   8
  -1  17  16 319.790 621.906   5
   1 -17 -16-84.9420 398.434   3
  -1  17 -16 27.1497 554.102   7
  -1 -17 -17-998.071 947.142   2
   1  17  17-1143.87 677.337   5
  -1 -17 -17 705.603 401.303   3
   1 -17 -17 411.962 910.563   2
   1  17  17-43.1854 278.303   8
  -1  17  17 589.796 310.427   8
  -1  17  17 162.161 637.974   5
   1 -17 -17 666.076 419.815   3
  -1  17  18 523.997 641.581   5
   1 -17 -18-658.387 433.159   3
  -2 -17  -3 12.1375 251.878   3
   2  17   3 1173.12 906.244   5
  -2 -17  -4 124.278 252.929   3
   2  17   4 1150.10 837.069   5
  -2 -17  -5 216.703 258.522   3
   2  17   5 634.766 757.798   5
   2 -17   6-422.756 365.527   4
  -2  17  -6-50.8194 590.851   6
  -2 -17  -6-105.010 255.393   3
   2  17   6 121.100 724.669   5
   2  17   6 388.912 223.723   8
  -2  17  -6 47.4425 321.271   7
   2 -17   6 374.755 616.653   1
  -2 -17  -6-93.8070 759.871   2
   2 -17   7 115.320 344.711   4
  -2  17  -7 128.273 596.518   6
   2 -17   7 116.858 605.929   1
  -2 -17  -7 134.921 255.577   3
   2  17   7 1022.64 719.359   5
   2 -17  -7-1325.34 811.223   2
   2  17   7-82.8080 227.423   8
  -2  17   7 382.907 540.045   5
  -2  17   7-48.7654 242.000   8
   2 -17  -7 18.7773 359.063   3
  -2  17  -7-16.4069 321.608   7
  -2 -17  -7-32.2478 771.870   2
  -2 -17  -8-132.734 781.279   2
   2 -17   8 57.7231 349.770   4
  -2  17  -8-362.519 593.314   6
  -2 -17  -8 460.577 278.066   3
   2  17   8 397.719 690.337   5
   2 -17  -8 297.397 768.495   2
   2  17   8 85.3027 234.576   8
   2 -17   8-59.0716 607.696   1
  -2  17   8-432.477 541.555   5
  -2  17   8-450.711 250.660   8
   2 -17  -8 38.3945 372.930   3
  -2  17  -8-16.9569 325.547   7
   2 -17   9-57.8211 335.556   4
  -2 -17  -9-1218.41 857.772   2
  -2  17  -9 391.926 621.123   6
  -2 -17  -9 531.926 293.414   3
   2  17   9-167.548 661.523   5
   2 -17  -9 391.153 804.927   2
   2  17   9-187.506 245.365   8
  -2  17   9-555.364 555.299   5
  -2  17   9-319.030 251.118   8
   2 -17  -9 568.251 382.637   3
  -2  17  -9-88.2172 357.539   7
   2 -17   9-238.019 583.204   1
   2 -17  10 38.6145 339.897   4
  -2 -17 -10-378.474 840.927   2
  -2  17 -10-79.0752 609.547   6
  -2 -17 -10-163.055 300.733   3
   2  17  10-358.396 650.236   5
   2  17  10 229.841 251.248   8
   2 -17 -10-1065.81 818.518   2
  -2  17  10 658.848 547.618   5
  -2  17  10-26.0083 249.663   8
   2 -17  10-90.0940 622.868   1
   2 -17 -10 60.0484 368.673   3
  -2  17 -10 73.3494 367.582   7
   2 -17  11-116.089 355.770   4
  -2 -17 -11-772.258 897.232   2
  -2  17 -11-211.886 617.201   6
  -2 -17 -11 76.4946 310.876   3
   2  17  11-1372.15 701.536   5
   2  17  11-234.677 258.097   8
   2 -17 -11-834.647 831.097   2
   2 -17  11-120.168 642.846   1
  -2  17  11-430.813 591.889   5
  -2  17  11 13.2938 277.836   8
   2 -17 -11-367.920 417.995   3
  -2  17 -11 19.0155 381.576   7
   2 -17  12 428.682 376.905   4
  -2 -17 -12 4871.64 1058.37   2
  -2  17 -12 507.218 692.504   6
   2 -17  12 509.245 666.129   1
  -2 -17 -12 78.9870 336.767   3
   2  17  12 2251.79 747.503   5
   2  17  12 398.672 284.088   8
   2 -17 -12 2593.21 961.808   2
  -2  17  12 932.213 310.278   8
  -2  17  12 3075.57 687.713   5
   2 -17 -12 959.618 456.572   3
  -2  17 -12 19.6298 444.507   7
   2 -17  13-175.545 343.711   4
  -2 -17 -13-1331.42 976.464   2
  -2  17 -13-268.999 620.546   6
  -2 -17 -13-146.906 340.038   3
   2  17  13-471.360 695.896   5
   2  17  13 283.960 267.498   8
  -2  17  13-27.4304 279.326   8
  -2  17  13-172.549 560.784   5
   2 -17 -13-2049.10 893.806   2
   2 -17 -13-674.660 415.114   3
  -2  17 -13-80.5628 432.920   7
   2 -17  14 39.0418 340.444   4
  -2 -17 -14 292.419 912.913   2
  -2  17 -14-297.976 596.549   6
  -2 -17 -14 371.124 331.562   3
   2  17  14-279.577 669.210   5
   2  17  14-440.023 274.701   8
  -2  17  14 434.820 294.269   8
  -2  17  14 452.047 582.915   5
   2 -17 -14 317.910 823.927   2
   2 -17 -14 365.568 390.954   3
  -2  17 -14-164.224 408.020   7
   2 -17  15-19.5242 339.898   4
  -2 -17 -15 110.888 920.240   2
  -2  17 -15-380.299 632.757   6
  -2 -17 -15 122.123 331.366   3
   2  17  15-534.163 680.910   5
   2  17  15-27.9420 290.752   8
  -2  17  15 99.2781 293.150   8
  -2  17  15 25.4632 570.250   5
   2 -17 -15-352.315 836.082   2
   2 -17 -15 109.592 417.435   3
  -2  17 -15-20.7585 397.470   7
   2 -17  16 491.697 344.691   4
  -2 -17 -16 37.3789 892.636   2
  -2  17 -16-27.3392 600.575   6
  -2 -17 -16 414.838 347.363   3
   2  17  16 199.466 656.880   5
   2  17  16 241.259 277.909   8
  -2  17  16 257.632 299.944   8
  -2  17  16-77.8370 572.881   5
   2 -17 -16 195.106 844.223   2
   2 -17 -16 22.2181 445.322   3
  -2  17 -16-145.668 403.750   7
   2 -17  17-19.6313 331.400   4
  -2 -17 -17 37.8187 777.335   2
  -2  17 -17 192.553 618.579   6
  -2 -17 -17 410.467 367.360   3
   2  17  17 262.005 675.807   5
  -2  17  17 158.645 300.786   8
  -2  17  17 52.8676 581.666   5
   2 -17 -17 32.7540 851.436   2
   2 -17 -17-45.2538 476.369   3
  -3 -17  -4 123.006 198.205   3
  -3 -17  -5 170.352 211.572   3
   3  17   5-242.434 837.540   5
  -3  17  -6 25.6792 613.200   6
  -3 -17  -6 242.741 225.795   3
   3  17   6-225.554 760.752   5
  -3  17  -6 15.0390 293.556   7
   3 -17   6 29.3689 586.696   1
   3 -17   6 137.366 343.514   4
   3 -17   7-268.306 619.757   1
  -3  17  -7-103.645 626.555   6
  -3 -17  -7-11.3962 217.739   3
   3  17   7-306.162 723.409   5
  -3  17  -7 61.3065 306.187   7
  -3 -17  -7-504.855 710.250   2
   3 -17   7-197.037 349.126   4
  -3  17  -8 104.532 620.216   6
   3 -17   8-513.756 640.255   1
  -3 -17  -8-153.996 232.673   3
   3  17   8-765.688 694.040   5
  -3  17   8-63.9921 250.398   8
   3 -17  -8-171.533 757.501   2
  -3  17   8 566.093 528.013   5
   3 -17  -8 187.364 394.984   3
  -3  17  -8-62.8271 323.296   7
  -3 -17  -8-1114.98 753.924   2
   3 -17   8-19.7965 339.723   4
  -3  17  -9 26.4409 596.745   6
  -3 -17  -9-135.673 241.458   3
   3  17   9-1344.26 678.718   5
   3 -17   9-338.979 611.683   1
  -3  17   9-13.2301 262.609   8
  -3  17   9-45.7825 523.039   5
   3 -17  -9 492.418 750.137   2
   3 -17  -9 190.572 404.358   3
  -3  17  -9 32.1583 326.212   7
  -3 -17  -9 644.127 762.942   2
   3 -17   9 377.941 362.665   4
  -3  17 -10-159.894 656.125   6
  -3 -17 -10 116.023 257.847   3
   3  17  10 28.0891 637.609   5
   3  17  10-109.839 241.713   8
  -3  17  10 81.1046 274.948   8
  -3  17  10 558.059 558.011   5
   3 -17 -10 1388.81 802.296   2
   3 -17 -10-514.353 429.115   3
   3 -17  10-279.666 691.845   1
  -3  17 -10 49.4122 333.806   7
  -3 -17 -10-397.619 789.051   2
   3 -17  10-603.214 365.556   4
  -3  17 -11-698.327 680.682   6
  -3 -17 -11 349.782 278.320   3
   3  17  11 1193.01 717.927   5
   3  17  11 263.710 260.551   8
  -3  17  11 82.6606 296.135   8
  -3  17  11-684.919 585.319   5
   3 -17 -11 2385.84 866.149   2
   3 -17 -11-174.389 442.478   3
   3 -17  11 2155.91 762.215   1
  -3  17 -11 133.441 356.586   7
   3 -17  11 404.194 396.481   4
  -3 -17 -11 169.613 885.900   2
  -3 -17 -12-556.234 903.656   2
  -3  17 -12-649.627 663.811   6
  -3 -17 -12-621.026 283.485   3
   3  17  12 359.375 646.350   5
   3  17  12-51.5547 266.330   8
  -3  17  12 223.862 287.086   8
  -3  17  12-143.993 578.439   5
   3 -17 -12-210.206 835.681   2
   3 -17 -12 110.864 453.696   3
  -3  17 -12 34.1351 367.579   7
   3 -17  12-31.3200 692.557   1
   3 -17  12 40.5928 388.781   4
  -3 -17 -13 176.848 877.148   2
  -3  17 -13 489.421 631.714   6
  -3 -17 -13-206.420 287.688   3
   3  17  13-83.1225 624.800   5
   3  17  13-118.700 264.220   8
  -3  17  13-28.8829 291.390   8
  -3  17  13-775.810 568.363   5
   3 -17 -13-150.765 789.432   2
   3 -17 -13 90.1279 421.050   3
  -3  17 -13 17.4190 348.019   7
   3 -17  13-757.970 615.969   1
   3 -17  13 81.5006 354.835   4
   3 -17  14-164.490 353.394   4
  -3 -17 -14 395.067 874.952   2
   3 -17  14 346.725 656.766   1
  -3  17 -14-328.592 634.440   6
  -3 -17 -14-215.875 302.356   3
   3  17  14 723.127 642.636   5
   3  17  14-363.756 272.794   8
  -3  17  14 87.3691 286.989   8
  -3  17  14 492.506 566.393   5
   3 -17 -14 695.917 808.915   2
   3 -17 -14-344.794 443.124   3
  -3  17 -14-17.7211 354.886   7
   3 -17  15 82.4351 357.282   4
  -3 -17 -15-696.232 907.348   2
  -3  17 -15-27.5618 617.989   6
   3 -17  15 157.118 649.651   1
  -3 -17 -15 419.026 319.774   3
   3  17  15 84.2770 681.083   5
   3  17  15 109.688 274.489   8
  -3  17  15 190.284 300.404   8
  -3  17  15 1350.86 580.760   5
   3 -17 -15-30.2598 779.177   2
   3 -17 -15-419.953 443.930   3
  -3  17 -15-17.9538 371.757   7
   3 -17  16-454.252 368.114   4
  -3 -17 -16 1373.36 932.835   2
  -3  17 -16 221.977 655.045   6
  -3 -17 -16 455.210 324.177   3
   3 -17  16 31.3201 637.712   1
   3  17  16 400.285 675.577   5
   3  17  16 111.715 263.155   8
  -3  17  16-322.695 308.075   8
  -3  17  16-508.064 590.174   5
   3 -17 -16 181.508 791.977   2
   3 -17 -16-354.999 460.396   3
  -3  17 -16-416.555 363.989   7
   3 -17  17-144.629 359.706   4
  -3  17 -17 445.140 630.912   6
  -3  17  17 87.9488 283.660   8
  -3  17  17 154.109 571.285   5
   3 -17 -17-272.101 794.304   2
   3 -17 -17-384.686 457.290   3
   4 -17   5 57.4345 592.245   1
   4 -17   5-95.0578 335.792   4
  -4  17  -6 129.087 646.860   6
   4 -17   6 29.2228 603.390   1
  -4  17  -6-295.555 299.920   7
   4 -17   6 134.293 346.772   4
  -4  17  -7 313.086 639.279   6
   4 -17   7 326.928 615.770   1
  -4  17  -7-14.8533 300.719   7
   4 -17   7 58.1067 363.449   4
  -4  17  -8-131.459 621.229   6
   4 -17   8 30.5134 625.660   1
  -4  17  -8-150.093 310.296   7
   4 -17   8 470.581 366.362   4
  -4  17  -9-715.373 719.280   6
  -4 -17  -9-113.707 201.180   3
   4  17   9-1264.09 695.805   5
  -4  17   9-243.971 294.530   8
  -4  17   9-160.635 527.318   5
   4 -17  -9-309.731 781.403   2
   4 -17   9-30.9631 730.677   1
   4 -17  -9 23.3480 452.424   3
  -4  17  -9-197.589 326.677   7
   4 -17   9-553.761 402.892   4
  -4  17 -10 747.308 754.974   6
  -4 -17 -10 564.769 247.715   3
   4  17  10 2649.69 711.951   5
  -4  17  10 865.841 344.990   8
  -4  17  10 462.468 560.786   5
   4 -17 -10 1510.40 506.475   3
  -4  17 -10-46.3782 359.840   7
   4 -17  10 1880.89 810.564   1
   4 -17  10 937.618 423.482   4
  -4  17 -11-484.935 775.819   6
  -4 -17 -11 103.384 229.492   3
   4  17  11-187.449 644.355   5
  -4  17  11-319.602 314.112   8
  -4  17  11-1052.56 575.080   5
   4 -17 -11-654.015 767.522   2
   4 -17 -11-47.6036 460.753   3
  -4  17 -11 31.4020 325.525   7
   4 -17  11-63.8739 720.205   1
  -4 -17 -11-596.527 806.633   2
   4 -17  11 20.1208 395.605   4
  -4  17 -12-108.527 635.974   6
  -4 -17 -12-145.893 233.720   3
   4  17  12-159.943 620.947   5
  -4  17  12 307.445 298.625   8
  -4  17  12-118.328 529.478   5
   4 -17 -12 681.201 760.337   2
   4 -17 -12-288.149 459.162   3
  -4  17 -12 63.7908 316.553   7
   4 -17  12 160.880 629.094   1
  -4 -17 -12-1166.12 781.254   2
   4 -17  12 102.345 350.553   4
  -4  17 -13 327.752 659.961   6
  -4 -17 -13-64.6120 248.712   3
   4  17  13 401.156 644.050   5
   4  17  13-111.931 236.529   8
  -4  17  13-46.3091 311.166   8
  -4  17  13-47.8672 550.052   5
   4 -17 -13-169.671 729.228   2
  -4  17 -13-129.565 322.496   7
   4 -17 -13-121.107 452.037   3
  -4 -17 -13-1303.08 803.915   2
   4 -17  13-432.906 353.839   4
   4 -17  13-32.3647 652.810   1
   4 -17  14 259.842 668.299   1
  -4  17 -14-549.864 659.768   6
  -4 -17 -14 260.289 259.904   3
   4  17  14-1129.13 646.245   5
   4  17  14 76.6895 250.915   8
  -4  17  14 15.4102 302.878   8
  -4  17  14 839.958 547.343   5
   4 -17 -14-1149.57 758.750   2
  -4  17 -14-49.4181 331.448   7
   4 -17 -14-195.332 452.979   3
   4 -17  14 622.489 376.112   4
  -4 -17 -14-581.222 809.940   2
   4 -17  15 97.6749 678.415   1
  -4  17 -15-305.367 654.258   6
  -4 -17 -15 540.284 286.042   3
   4  17  15-163.217 657.276   5
   4  17  15 183.437 256.379   8
  -4  17  15-107.183 297.238   8
  -4  17  15 970.301 561.566   5
  -4  17 -15-16.6813 335.349   7
   4 -17 -15 527.166 724.865   2
   4 -17 -15-445.049 465.892   3
   4 -17  15 41.7453 361.753   4
  -4 -17 -15-1290.65 854.701   2
  -4  17 -16-111.726 644.758   6
  -4 -17 -16 216.802 314.204   3
   4  17  16-688.617 681.439   5
  -4  17  16-75.7512 293.197   8
  -4  17  16-24.5036 543.941   5
   4 -17 -16 521.180 695.215   2
   4 -17 -16-49.7495 456.858   3
   4 -17  16 211.115 374.019   4
  -4  17  17-667.787 565.392   5
   4 -17 -17 125.051 444.102   3
  -5  17  -5 15.0797 303.848   7
   5 -17   5 55.8568 577.326   1
   5 -17   5 161.525 321.484   4
  -5  17  -6 132.214 656.771   6
  -5  17  -6 14.9169 287.518   7
   5 -17   6-54.9478 349.296   4
   5 -17   6 28.4351 589.760   1
  -5  17  -7-691.745 733.331   6
  -5  17  -7 14.9215 316.648   7
   5 -17   7-315.809 351.536   4
   5 -17   8 1764.15 774.668   1
  -5  17  -8 240.781 734.015   6
  -5  17  -8 14.9659 324.955   7
   5 -17   8 564.880 386.039   4
  -5  17  -9 89.7151 348.755   7
   5 -17   9-228.817 384.211   4
  -5  17 -10-215.613 682.576   6
   5 -17  10 31.2301 657.802   1
  -5  17  10-158.971 508.347   5
  -5  17 -10-45.1820 334.115   7
   5 -17 -10-270.357 727.707   2
   5 -17 -10-304.934 462.746   3
   5 -17  10-738.116 381.249   4
  -5  17 -11 54.1833 645.438   6
   5 -17  11 63.3259 646.489   1
  -5  17  11-293.239 352.187   8
  -5  17  11-22.8008 505.522   5
  -5  17 -11-15.1963 312.950   7
   5 -17 -11-1018.42 724.545   2
   5 -17 -11-860.257 482.291   3
   5 -17  11-19.6525 348.190   4
  -5  17 -12 245.150 647.634   6
   5 -17  12-64.0896 649.468   1
  -5  17  12 103.191 327.345   8
  -5  17  12-22.9306 497.934   5
  -5  17 -12 15.3129 292.299   7
   5 -17 -12-52.7967 676.753   2
   5 -17 -12 354.988 466.526   3
   5 -17  12 357.644 375.546   4
  -5  17 -13-27.4392 673.921   6
   5 -17  13 32.3699 628.009   1
  -5  17  13-50.9525 330.367   8
  -5  17  13 1083.79 538.111   5
  -5  17 -13-46.4575 312.680   7
   5 -17 -13-556.488 456.405   3
   5 -17 -13-828.439 678.707   2
   5 -17  13 201.308 360.492   4
  -5  17 -14-441.301 662.040   6
  -5 -17 -14-346.527 237.098   3
   5 -17  14-32.9858 666.201   1
  -5  17  14 116.476 336.727   8
  -5  17  14 23.1794 524.367   5
  -5  17 -14 46.9712 317.268   7
   5 -17 -14-302.837 467.748   3
   5 -17 -14 860.486 661.309   2
   5 -17  14-447.192 380.596   4
  -5  17 -15 748.704 695.806   6
  -5 -17 -15 38.7381 245.945   3
   5  17  15-227.734 579.794   5
  -5  17  15 210.644 333.014   8
   5 -17  15 33.2277 533.832   1
   5 -17 -15-25.1546 461.320   3
   5 -17  15-246.191 365.717   4
  -5  17  16-143.899 319.074   8
   5 -17 -16-275.767 468.061   3
  -6  17  -5 588.629 776.059   6
   6 -17   5 188.661 584.553   1
  -6  17  -5 15.5492 318.254   7
   6 -17   5 572.494 335.044   4
  -6  17  -6 1375.72 802.389   6
   6 -17   6-305.835 586.042   1
  -6  17  -6 170.172 339.442   7
   6 -17   6 154.404 331.619   4
  -6  17  -7-418.771 732.496   6
   6 -17   7-424.586 611.982   1
  -6  17  -7-61.6651 326.722   7
   6 -17   7 34.9138 336.177   4
  -6  17  -8 195.582 698.422   6
  -6  17  -8 15.1694 308.641   7
   6 -17   8 432.501 601.489   1
   6 -17   8-410.631 331.816   4
  -6  17  -9-195.617 678.008   6
  -6  17  -9 30.3417 297.115   7
   6 -17   9 59.4397 603.010   1
   6 -17   9-253.714 333.418   4
  -6  17 -10-222.523 675.480   6
  -6  17 -10-15.2057 325.847   7
   6 -17  10-120.985 623.878   1
   6 -17  10 496.331 347.009   4
  -6  17 -11-111.328 670.139   6
  -6  17 -11 15.1218 306.427   7
   6 -17  11-18.7218 338.313   4
   6 -17  11-61.4684 656.712   1
  -6  17 -12 278.606 655.956   6
  -6  17  12-284.977 406.044   8
  -6  17 -12 15.2029 293.801   7
   6 -17  12 151.752 323.233   4
   6 -17  12-94.9073 632.607   1
   6 -17  13-32.0609 652.768   1
  -6  17 -13-334.903 684.900   6
  -6  17  13 740.314 409.100   8
  -6  17 -13-290.921 308.809   7
   6 -17  13 76.8405 336.598   4
  -6  17 -14 417.970 683.384   6
  -6  17  14-207.141 374.013   8
   6 -17  14-195.706 354.946   4
  -6  17  15-159.839 355.485   8
   7 -17   4-51.6458 542.258   1
  -7  17  -5 61.7215 782.159   6
   7 -17   5 26.4474 528.889   1
  -7  17  -5-65.0800 315.299   7
   7 -17   5-96.8335 292.132   4
  -7  17  -6-335.930 800.300   6
   7 -17   6 187.944 541.832   1
  -7  17  -6 64.6410 316.182   7
   7 -17   6 409.723 305.971   4
  -7  17  -7-392.793 764.097   6
   7 -17   7 27.2929 553.822   1
  -7  17  -7-31.8155 316.343   7
   7 -17   7 383.511 309.961   4
  -7  17  -8 455.385 767.074   6
   7 -17   8 673.598 600.994   1
  -7  17  -8-63.2948 315.645   7
   7 -17   8-169.460 306.679   4
  -7  17  -9 150.257 755.285   6
   7 -17   9 142.828 583.731   1
  -7  17  -9-77.6431 302.603   7
   7 -17   9-222.349 317.894   4
  -7  17 -10 59.5533 746.738   6
   7 -17  10-1208.07 612.014   1
  -7  17 -10 108.511 303.089   7
   7 -17  10-173.456 317.552   4
  -7  17 -11 264.152 732.469   6
   7 -17  11 209.757 614.422   1
  -7  17 -11-15.5018 306.227   7
   7 -17  11-228.537 320.568   4
  -7  17 -12 116.561 723.772   6
   7 -17  12 395.969 672.764   1
  -7  17 -12 15.5316 316.970   7
   7 -17  12-161.428 324.606   4
  -7  17 -13 231.773 712.740   6
   7 -17  13 36.3635 324.662   4
   8 -17   4 282.641 522.547   1
   8 -17   4-15.3474 286.766   4
   8 -17   5-77.8499 498.586   1
  -8  17  -5-16.7982 315.756   7
   8 -17   5-344.144 283.357   4
  -8  17  -5-439.705 947.062   6
  -8  17  -6-579.703 914.916   6
   8 -17   6-209.941 545.182   1
  -8  17  -6-16.6600 323.267   7
   8 -17   6-253.443 294.779   4
  -8  17  -7-69.9528 915.000   6
   8 -17   7-26.8135 538.152   1
  -8  17  -7 33.0473 317.246   7
   8 -17   7 64.3184 295.330   4
  -8  17  -8 473.811 845.905   6
   8 -17   8-27.2096 542.099   1
  -8  17  -8 32.5570 320.704   7
   8 -17   8-97.7453 297.016   4
  -8  17  -9-666.909 840.129   6
   8 -17   9 223.396 557.983   1
  -8  17  -9-32.3564 308.191   7
   8 -17   9-361.316 311.158   4
  -8  17 -10-421.655 813.898   6
   8 -17  10 255.410 623.084   1
  -8  17 -10-16.0964 319.991   7
   8 -17  10 182.806 297.242   4
  -8  17 -11-411.462 824.435   6
   8 -17  11 420.358 309.031   4
   9 -17   4-76.4689 271.458   4
   9 -17   5-15.4968 273.700   4
  -9  17  -5 1528.65 1383.65   6
   9 -17   6-140.969 299.109   4
   9 -17   6 523.206 529.473   1
  -9  17  -6-150.167 1240.30   6
   9 -17   7 299.714 291.635   4
  -9  17  -7-228.259 1180.60   6
   9 -17   7-396.064 526.843   1
   9 -17   8 53.8871 524.158   1
  -9  17  -8-16.8132 322.042   7
   9 -17   8 174.798 294.492   4
  -9  17  -8 168.398 1056.40   6
  -9  17  -9-120.653 1022.14   6
   9 -17   9-352.133 307.450   4
  10 -17   6-253.043 288.570   4
  10 -17   7 126.308 294.266   4
 -10  17  -7-1780.75 2159.45   6
   0 -18  -6 2203.46 988.024   2
   0 -18  -7 341.925 953.896   2
   0 -18  -7 223.984 342.542   3
   0  18   7-460.907 712.355   5
   0  18   7 76.4093 253.884   8
   0 -18  -8-387.175 348.713   3
   0  18   8-352.822 679.906   5
   0  18   8-181.355 265.127   8
   0 -18  -9-874.841 893.162   2
   0  18   9 704.356 672.632   5
   0 -18  -9-825.687 377.866   3
   0  18   9 65.8547 252.991   8
   0  18  -9 179.450 1137.85   7
   0 -18 -10 176.725 905.280   2
   0  18  10-704.936 673.952   5
   0 -18 -10-91.7055 361.339   3
   0  18  10 119.972 258.621   8
   0  18 -10-78.0494 1562.63   7
   0 -18 -11 35.6080 916.761   2
   0  18  11-680.177 660.045   5
   0 -18 -11 131.189 365.954   3
   0  18  11 40.6382 269.547   8
   0 -18 -12 287.765 939.431   2
   0  18  12 981.502 664.251   5
   0  18  12 343.903 292.842   8
   0 -18 -12 19.1574 367.957   3
   0 -18 -13 690.364 954.005   2
   0  18  13-392.588 289.090   8
   0 -18 -13 293.898 397.232   3
   0 -18 -14-622.655 967.153   2
   0  18  14 414.409 650.084   5
   0  18  14-312.932 295.444   8
   0 -18 -14 20.0456 393.245   3
   0  18  15-363.539 675.130   5
   0 -18 -15 533.148 409.633   3
  -1 -18  -5-976.450 857.487   2
  -1 -18  -6-15.3776 317.634   3
   1  18   6 268.447 259.047   8
  -1 -18  -7-751.955 905.337   2
   1 -18  -7-1851.04 939.124   2
  -1 -18  -7-15.6967 322.189   3
   1  18   7-632.987 769.024   5
   1  18   7-237.721 253.418   8
  -1 -18  -8 34.7485 913.598   2
   1 -18   8-93.5976 319.614   4
   1 -18  -8-1830.71 932.079   2
  -1 -18  -8-240.513 317.177   3
   1  18   8-235.927 707.125   5
   1  18   8 396.060 252.141   8
  -1  18   8-329.215 625.541   5
  -1  18   8-232.564 271.113   8
   1 -18  -8-151.521 374.629   3
  -1 -18  -9 425.889 901.539   2
   1 -18   9 466.301 330.958   4
   1 -18  -9 100.487 875.015   2
  -1 -18  -9 32.7799 329.759   3
   1  18   9 754.532 737.182   5
   1  18   9-52.1438 247.288   8
  -1  18   9 153.089 619.516   5
  -1  18   9-171.542 263.888   8
   1 -18  -9-154.946 412.533   3
  -1  18  -9 27.3933 539.687   7
   1 -18  10-18.6443 325.577   4
  -1 -18 -10 395.759 925.089   2
   1 -18 -10 202.888 889.814   2
  -1 -18 -10-419.224 337.415   3
   1  18  10 114.217 709.995   5
   1  18  10-279.002 261.345   8
  -1  18  10 563.366 625.602   5
  -1  18  10-147.572 273.706   8
   1 -18 -10-415.460 392.114   3
  -1  18 -10-30.0984 605.056   7
   1 -18  11 185.857 319.386   4
  -1 -18 -11-1348.06 969.335   2
  -1 -18 -11-686.603 359.262   3
   1  18  11 823.258 687.568   5
   1  18  11 148.708 257.850   8
  -1  18  11 413.822 648.489   5
  -1  18  11 109.063 262.458   8
   1 -18 -11-60.6454 404.751   3
  -1  18 -11-32.8754 643.602   7
  -1 -18 -12 1741.77 970.892   2
   1 -18 -12-310.320 898.817   2
  -1 -18 -12-281.470 338.727   3
   1  18  12-56.6602 669.409   5
   1  18  12 247.409 281.280   8
  -1  18  12-418.628 653.500   5
  -1  18  12 431.305 297.396   8
   1 -18 -12-330.376 413.986   3
  -1  18 -12-35.4801 713.849   7
  -1 -18 -13 74.9731 936.310   2
   1 -18 -13-1739.36 951.444   2
   1  18  13 571.274 702.788   5
  -1 -18 -13 72.0854 348.954   3
   1  18  13 125.709 273.733   8
  -1  18  13 790.922 652.342   5
  -1  18  13 70.5926 288.071   8
   1 -18 -13 337.528 427.660   3
  -1  18 -13 150.897 764.538   7
  -1 -18 -14-37.9013 933.899   2
   1 -18 -14-315.771 942.449   2
   1  18  14-258.466 690.334   5
  -1 -18 -14 110.998 371.769   3
   1  18  14-254.422 291.198   8
  -1  18  14 100.202 292.519   8
  -1  18  14-320.847 626.191   5
   1 -18 -14 107.584 410.924   3
  -1  18 -14-117.549 762.179   7
   1 -18 -15 35.3593 714.937   2
  -1  18  15 14.4881 261.001   8
  -1  18  15 841.062 675.612   5
   1 -18 -15 307.776 437.133   3
  -1  18 -15 119.119 731.469   7
  -2 -18  -5 391.965 280.985   3
   2  18   5 113.773 969.867   5
  -2 -18  -6 133.510 264.832   3
   2  18   6-457.351 893.899   5
  -2 -18  -7-27.4688 275.802   3
   2  18   7-1762.35 852.153   5
  -2 -18  -7-1202.02 835.664   2
   2 -18   8-40.6978 353.727   4
  -2  18  -8-188.455 633.328   6
  -2 -18  -8 154.855 287.689   3
   2  18   8-923.336 786.427   5
   2  18   8 12.2686 239.014   8
  -2  18  -8-77.0875 393.338   7
   2 -18   8 60.2836 625.182   1
  -2 -18  -8-1749.66 857.308   2
   2 -18   9-142.006 352.605   4
   2 -18   9 486.718 638.058   1
  -2  18  -9-135.546 631.481   6
  -2 -18  -9-28.9275 283.881   3
   2 -18  -9-575.730 882.693   2
   2  18   9-1106.62 752.529   5
   2  18   9 353.453 258.229   8
  -2  18   9-93.5225 252.391   8
  -2  18   9-488.485 597.927   5
   2 -18  -9-313.103 402.864   3
  -2  18  -9 121.911 402.312   7
  -2 -18  -9 69.0639 833.565   2
  -2 -18 -10-354.433 857.772   2
   2 -18  10-182.079 349.497   4
  -2  18 -10-218.275 614.682   6
  -2 -18 -10 89.2294 287.198   3
   2 -18  10-122.310 620.434   1
   2  18  10 810.358 750.234   5
   2 -18 -10 1001.80 886.147   2
   2  18  10 362.434 256.811   8
  -2  18  10 231.478 269.793   8
  -2  18  10-272.118 599.233   5
   2 -18 -10-234.552 392.870   3
  -2  18 -10-21.4216 423.739   7
  -2 -18 -11-397.335 888.627   2
   2 -18  11-585.437 367.596   4
  -2  18 -11 247.150 624.557   6
  -2 -18 -11 61.2394 295.967   3
   2  18  11 326.471 731.334   5
   2 -18 -11 684.674 883.476   2
   2  18  11-119.180 257.028   8
  -2  18  11 503.098 292.898   8
  -2  18  11 299.036 613.573   5
   2 -18 -11 388.233 428.190   3
   2 -18  11 367.423 654.286   1
  -2  18 -11 67.1688 445.036   7
   2 -18  12-100.700 351.756   4
  -2 -18 -12 955.312 935.457   2
  -2  18 -12 110.034 632.062   6
  -2 -18 -12-47.3689 309.116   3
   2  18  12 587.751 700.402   5
   2 -18 -12-197.227 892.475   2
   2  18  12 26.9961 254.644   8
  -2  18  12-198.906 289.615   8
  -2  18  12 606.319 620.984   5
   2 -18 -12 330.207 422.075   3
  -2  18 -12-23.4317 454.013   7
   2 -18  12-61.0528 644.547   1
   2 -18  13 222.877 357.272   4
  -2 -18 -13-225.194 943.959   2
  -2  18 -13-27.6679 631.595   6
  -2 -18 -13 114.099 319.927   3
   2  18  13 292.467 673.248   5
   2 -18  13 30.4771 639.972   1
   2  18  13 192.636 262.074   8
   2 -18 -13 264.772 905.717   2
  -2  18  13-244.913 288.103   8
  -2  18  13-102.496 603.839   5
   2 -18 -13-67.3523 412.930   3
  -2  18 -13-48.6847 477.158   7
   2 -18  14 120.705 634.412   1
   2 -18  14 40.3931 350.582   4
  -2 -18 -14 38.0741 894.098   2
  -2  18 -14 500.712 622.429   6
  -2 -18 -14 84.1859 332.666   3
   2  18  14 291.012 693.632   5
   2 -18 -14 266.050 885.439   2
  -2  18  14 131.782 298.256   8
  -2  18  14-466.080 608.092   5
   2 -18 -14 137.332 456.103   3
  -2  18 -14 25.0566 500.514   7
   2 -18  15-221.333 359.218   4
  -2  18 -15 111.865 636.001   6
  -2  18  15 14.7792 261.411   8
  -2  18  15 499.406 643.465   5
   2 -18 -15 115.992 477.308   3
  -3 -18  -5 96.7550 216.118   3
   3  18   5-733.031 1046.10   5
  -3 -18  -6-11.0554 215.043   3
   3  18   6 231.516 914.864   5
  -3 -18  -7-113.940 222.367   3
   3  18   7-1097.59 866.176   5
   3 -18   7 122.093 631.066   1
  -3  18  -8 27.3089 651.977   6
  -3 -18  -8 23.6070 228.702   3
   3  18   8-631.410 811.552   5
  -3  18  -8 188.132 361.116   7
   3 -18   8-494.947 682.570   1
   3 -18   8 42.2316 374.071   4
   3 -18   9-250.204 650.881   1
  -3  18  -9-439.751 636.751   6
  -3 -18  -9-73.3036 230.482   3
   3  18   9 507.118 768.922   5
  -3  18  -9-17.6941 360.682   7
  -3 -18  -9-901.003 774.148   2
   3 -18   9 443.519 394.573   4
  -3  18 -10-165.491 660.186   6
   3 -18  10 31.5413 659.366   1
  -3 -18 -10 140.066 249.591   3
   3  18  10 91.6083 738.960   5
   3 -18 -10-92.8438 810.185   2
  -3  18  10 14.2635 278.874   8
  -3  18  10-628.557 582.093   5
   3 -18 -10 343.027 445.396   3
  -3  18 -10-18.2649 355.735   7
  -3 -18 -10-1531.35 850.745   2
   3 -18  10 21.1373 379.090   4
   3 -18  11 63.7983 376.147   4
  -3  18 -11 416.217 629.240   6
  -3 -18 -11 211.750 249.319   3
   3  18  11-208.546 688.326   5
   3 -18  11 159.780 658.250   1
   3  18  11-25.1639 242.515   8
   3 -18 -11 342.984 848.809   2
  -3  18  11-116.378 298.272   8
  -3  18  11-661.237 572.524   5
   3 -18 -11 209.208 446.865   3
  -3  18 -11-113.096 366.646   7
  -3 -18 -11-585.650 829.489   2
   3 -18  12 148.886 372.068   4
  -3  18 -12-279.031 656.379   6
  -3 -18 -12 371.841 266.843   3
   3  18  12-58.5228 695.589   5
   3  18  12-38.7856 246.225   8
  -3  18  12 251.219 311.334   8
   3 -18 -12-720.400 808.783   2
   3 -18  12 63.9913 630.348   1
  -3  18  12-715.316 596.908   5
   3 -18 -12-401.773 485.699   3
  -3  18 -12-135.973 401.965   7
  -3 -18 -12-1059.92 855.700   2
   3 -18  13 170.163 368.529   4
  -3  18 -13 196.382 655.276   6
  -3 -18 -13-14.3634 275.427   3
   3  18  13 58.0176 683.007   5
   3  18  13 159.129 262.930   8
  -3  18  13-407.377 312.968   8
   3 -18 -13-532.917 829.986   2
  -3  18  13 1049.43 599.609   5
   3 -18 -13 313.412 450.426   3
   3 -18  13 63.8767 669.919   1
  -3  18 -13 79.8134 410.090   7
  -3 -18 -13-36.1263 862.498   2
   3 -18  14-339.972 387.711   4
  -3  18 -14-393.340 651.435   6
  -3  18  14-136.809 313.491   8
   3 -18 -14-504.750 827.455   2
  -3  18  14-405.013 584.892   5
   3 -18 -14-220.258 485.878   3
  -3  18  15 1358.92 621.922   5
   3 -18 -15 99.2699 491.460   3
   4 -18   7-30.6449 613.124   1
   4 -18   7-270.098 373.169   4
  -4  18  -8-932.381 664.667   6
   4 -18   8-62.1895 633.602   1
  -4  18  -8 16.0322 328.943   7
   4 -18   8-484.841 382.347   4
  -4  18  -9-413.901 656.589   6
   4 -18   9 190.977 682.376   1
  -4  18  -9-16.3114 332.266   7
   4 -18   9-211.956 375.632   4
  -4  18 -10-416.128 671.347   6
  -4 -18 -10 73.5625 204.699   3
   4 -18  10 418.465 661.539   1
  -4  18 -10-33.2341 331.484   7
   4 -18  10-21.3068 381.559   4
  -4  18 -11-55.8014 644.657   6
  -4 -18 -11 287.916 217.167   3
   4  18  11 427.863 671.615   5
  -4  18  11-31.6178 317.737   8
  -4  18  11-456.640 554.810   5
   4 -18 -11-448.059 773.035   2
   4 -18  11 32.4541 672.384   1
   4 -18 -11-75.9546 472.384   3
  -4  18 -11 67.9744 354.518   7
   4 -18  11-106.989 373.775   4
  -4  18 -12 84.3822 671.568   6
  -4 -18 -12-34.9650 228.023   3
   4  18  12-870.089 657.958   5
  -4  18  12-114.184 320.252   8
  -4  18  12-363.855 537.980   5
   4 -18 -12-178.565 781.373   2
  -4  18 -12 34.6757 358.873   7
   4 -18 -12 25.5183 471.438   3
   4 -18  12-97.9513 678.775   1
  -4 -18 -12-356.779 768.389   2
   4 -18  12 42.9667 380.671   4
  -4  18 -13 282.634 653.660   6
  -4  18  13 262.199 330.606   8
  -4  18  13-171.373 539.730   5
   4 -18 -13-88.6653 783.644   2
  -4  18 -13 17.6692 365.745   7
   4 -18 -13-257.155 489.172   3
   4 -18  13 1551.92 716.098   1
   4 -18  13-173.475 377.611   4
  -4  18  14-392.344 339.761   8
  -4  18  14 293.928 560.899   5
   4 -18 -14-204.384 779.622   2
   4 -18 -14 155.404 491.499   3
  -5  18  -7-82.8007 664.051   6
  -5  18  -7-93.9620 312.879   7
   5 -18   7-120.332 628.936   1
   5 -18   7-59.9778 348.150   4
  -5  18  -8 55.4988 656.222   6
  -5  18  -8 94.4553 312.884   7
   5 -18   8 20.2183 357.628   4
   5 -18   8-216.892 647.737   1
   5 -18   9-220.120 635.717   1
  -5  18  -9-642.300 668.454   6
  -5  18  -9 174.522 319.638   7
   5 -18   9-163.442 370.888   4
  -5  18 -10-56.0894 678.723   6
   5 -18  10 127.492 660.369   1
  -5  18 -10 63.6816 314.554   7
   5 -18  10-372.383 375.054   4
  -5  18 -11-506.712 671.509   6
   5 -18  11-162.953 686.630   1
  -5  18 -11 16.1041 325.967   7
   5 -18  11 41.7159 378.062   4
  -5  18 -12-197.739 652.071   6
  -5  18  12 131.470 366.759   8
  -5  18  12-70.1432 523.126   5
   5 -18 -12 27.8233 715.292   2
  -5  18 -12-97.8355 323.286   7
   5 -18 -12 295.456 473.613   3
   5 -18  12-294.349 386.155   4
  -5  18  13 854.574 398.079   8
  -5  18  13-375.612 535.027   5
   5 -18 -13-435.685 720.294   2
   5 -18 -13 481.547 517.513   3
   5 -18 -14-530.751 623.601   2
   5 -18 -14-53.2813 479.100   3
   6 -18   6 402.567 581.250   1
  -6  18  -7 260.225 712.456   6
   6 -18   7-29.5918 615.167   1
  -6  18  -7-16.0281 322.506   7
   6 -18   7-168.738 351.287   4
  -6  18  -8 318.343 711.503   6
   6 -18   8 180.352 611.436   1
  -6  18  -8 16.0146 321.332   7
   6 -18   8 248.789 346.114   4
  -6  18  -9 260.545 730.924   6
  -6  18  -9 15.8072 312.261   7
   6 -18   9 30.5228 628.034   1
   6 -18   9-252.258 361.553   4
  -6  18 -10-144.707 716.553   6
  -6  18 -10 15.8608 317.936   7
   6 -18  10 94.0834 668.671   1
   6 -18  10-39.2908 352.333   4
  -6  18 -11 173.030 720.989   6
  -6  18 -11 63.7491 322.220   7
   6 -18  11-520.045 363.437   4
  -6  18  13 290.551 451.617   8
   6 -18 -13-73.8513 659.231   2
   7 -18   6-28.2794 583.249   1
   7 -18   6 121.140 320.233   4
  -7  18  -7-95.9258 799.206   6
   7 -18   7 85.9481 559.426   1
  -7  18  -7-65.7727 309.342   7
   7 -18   7 17.6383 315.858   4
  -7  18  -8-252.132 801.215   6
   7 -18   8-58.7744 612.313   1
  -7  18  -8 16.3524 314.854   7
   7 -18   8-143.434 329.359   4
  -7  18  -9-93.6778 810.107   6
  -7  18  -9-276.978 324.851   7
   7 -18   9-146.573 341.463   4
  -7  18 -10 154.723 772.603   6
   7 -18  10 260.054 361.172   4
   8 -18   6-55.3765 568.398   1
  -8  18  -6 17.1770 340.583   7
   8 -18   6 133.392 314.605   4
  -8  18  -7-74.3985 955.614   6
   8 -18   7-112.850 580.476   1
  -8  18  -7 17.0114 337.263   7
   8 -18   7 101.830 317.084   4
  -8  18  -8-144.654 924.533   6
   8 -18   8 310.205 326.137   4
  -9  18  -6 323.247 1335.99   6
   9 -18   6 32.7958 302.061   4
   0 -19  -8 1147.48 962.644   2
   0 -19  -9-72.6449 943.415   2
   0  19   9-1608.66 780.451   5
   0 -19  -9 148.896 371.318   3
   0  19   9 13.5035 260.690   8
   0 -19 -10 36.9533 977.771   2
   0  19  10-29.4137 726.020   5
   0  19  10 316.421 283.975   8
   0 -19 -10-151.999 377.334   3
   0 -19 -11-1159.98 1015.48   2
   0  19  11-351.264 738.776   5
   0  19  11-98.0124 281.462   8
   0 -19 -11-271.525 394.972   3
   0  19  12-175.267 763.124   5
   0  19  12 14.1861 242.275   8
   0 -19 -12 356.604 407.697   3
  -1 -19  -7-241.767 870.987   2
  -1 -19  -8 212.914 888.343   2
  -1 -19  -8-262.140 316.240   3
   1  19   8-234.147 795.160   5
   1  19   8 270.864 259.221   8
  -1 -19  -9-1122.55 941.328   2
   1 -19  -9-742.257 951.480   2
  -1 -19  -9 317.283 323.957   3
   1  19   9-709.738 787.997   5
   1  19   9 316.878 259.959   8
  -1 -19 -10-959.017 953.851   2
   1 -19  10 176.130 619.150   1
   1 -19 -10-964.111 1052.72   2
  -1 -19 -10-85.2426 343.439   3
   1  19  10-661.558 768.074   5
   1  19  10-40.4089 263.063   8
  -1  19  10 375.561 294.378   8
  -1  19  10-522.981 717.511   5
   1 -19 -10-332.338 411.811   3
  -1  19 -10 41.7701 840.363   7
  -1 -19 -11-452.742 970.032   2
  -1 -19 -11-156.788 356.658   3
   1  19  11-123.761 777.699   5
   1  19  11 535.884 278.158   8
  -1  19  11 113.760 285.421   8
  -1  19  11-1243.54 888.458   5
   1 -19 -11-530.478 446.297   3
   1 -19  11 235.458 645.015   1
  -1  19 -11 48.8195 954.612   7
  -1  19  12-884.526 937.032   5
   1 -19 -12-151.550 442.530   3
  -1  19 -12-567.338 1161.00   7
  -2 -19  -7-319.190 294.295   3
   2  19   7 985.091 994.265   5
  -2 -19  -7 129.079 797.275   2
  -2 -19  -8 141.620 268.443   3
   2  19   8-441.316 882.567   5
  -2 -19  -8 167.445 816.547   2
  -2 -19  -9-28.9526 295.741   3
   2  19   9 1080.23 873.787   5
   2  19   9 239.120 237.148   8
  -2 -19  -9-694.631 841.298   2
   2 -19  10 21.0698 372.784   4
  -2  19 -10 112.625 672.269   6
   2 -19 -10-682.468 934.467   2
  -2 -19 -10-459.730 309.803   3
   2  19  10 705.215 834.135   5
   2  19  10 142.274 248.146   8
  -2  19 -10-231.467 518.742   7
   2 -19  10-30.7203 638.666   1
  -2 -19 -10-500.195 880.387   2
   2 -19  11 167.515 368.048   4
  -2  19 -11-226.222 668.709   6
   2 -19 -11-757.277 1017.07   2
  -2 -19 -11-152.194 299.466   3
   2  19  11-260.175 819.835   5
  -2  19  11 292.719 310.722   8
  -2  19  11-210.313 715.657   5
   2 -19 -11 22.8246 458.087   3
  -2  19 -11 55.3813 564.447   7
   2 -19  11-31.0929 653.621   1
   2 -19  12 249.791 368.400   4
  -2  19  12-822.685 784.676   5
   2 -19 -12-512.491 447.998   3
  -2  19 -12 29.6996 475.497   7
  -3 -19  -7 102.782 226.516   3
   3  19   7-604.590 1056.36   5
  -3 -19  -8 281.056 228.723   3
   3  19   8 507.037 938.762   5
   3 -19   9 177.576 401.716   4
  -3 -19  -9-12.1055 244.437   3
   3  19   9-759.040 883.409   5
   3 -19   9 410.956 718.232   1
   3 -19  10-176.916 400.236   4
  -3  19 -10 542.192 673.657   6
  -3 -19 -10 74.8778 244.966   3
   3  19  10-682.341 844.029   5
  -3  19 -10 164.563 428.596   7
  -3 -19 -10 33.0454 668.037   2
   3 -19  10 159.575 713.357   1
   3 -19  11-132.193 396.974   4
  -3  19 -11 399.771 663.978   6
   3 -19 -11-818.835 911.999   2
  -3  19 -11 43.1141 439.967   7
   3 -19 -12 1116.40 870.569   2
  -3  19  12-102.417 614.943   5
   3 -19 -12-327.030 475.218   3
  -4  19  -9 28.6765 688.897   6
   4 -19   9-95.9836 655.418   1
  -4  19  -9-70.6257 370.664   7
   4 -19   9-336.107 415.369   4
  -4  19 -10 489.542 696.938   6
   4 -19  10-194.044 669.316   1
  -4  19 -10-108.724 366.895   7
   4 -19  10 403.885 430.896   4
  -5  19  -9 318.603 678.316   6
  -5  19  -9-168.324 341.089   7
   5 -19   9 129.575 376.570   4
   5 -19   9-96.3849 617.630   1
   0   0   0    0.00    0.00   0

TITL GKME_45 in P4/mnc
REM P4/mnc (#128 in standard setting)
CELL 0.68890  18.242677  18.242677  33.845088  90.0000  90.0000  90.0000
ZERR   16.00   0.002199   0.002199   0.005508   0.0000   0.0000   0.0000
LATT  1
SYMM -x,-y, z
SYMM -y, x, z
SYMM  y,-x, z
SYMM -x+1/2, y+1/2,-z+1/2
SYMM  x+1/2,-y+1/2,-z+1/2
SYMM  y+1/2, x+1/2,-z+1/2
SYMM -y+1/2,-x+1/2,-z+1/2
SFAC C H O Hf
UNIT 704.00 576.00 128.00 16.00
TREF
HKLF 4
END
;
_shelx_hkl_checksum              76865
_shelx_shelxl_version_number     2014/7
_olex2_submission_special_instructions 'No special instructions were received'
_oxdiff_exptl_absorpt_empirical_details
;
Empirical correction (ABSPACK) includes:
- Absorption correction using spherical harmonics
- Frame scaling
;
_oxdiff_exptl_absorpt_empirical_full_max 41.303
_oxdiff_exptl_absorpt_empirical_full_min 0.463
loop_
_space_group_symop_operation_xyz
'x, y, z'
'-x, -y, z'
'-y, x, z'
'y, -x, z'
'-x+1/2, y+1/2, -z+1/2'
'x+1/2, -y+1/2, -z+1/2'
'y+1/2, x+1/2, -z+1/2'
'-y+1/2, -x+1/2, -z+1/2'
'-x, -y, -z'
'x, y, -z'
'y, -x, -z'
'-y, x, -z'
'x-1/2, -y-1/2, z-1/2'
'-x-1/2, y-1/2, z-1/2'
'-y-1/2, -x-1/2, z-1/2'
'y-1/2, x-1/2, z-1/2'
loop_
_atom_site_label
_atom_site_type_symbol
_atom_site_fract_x
_atom_site_fract_y
_atom_site_fract_z
_atom_site_U_iso_or_equiv
_atom_site_adp_type
_atom_site_occupancy
_atom_site_site_symmetry_order
_atom_site_calc_flag
_atom_site_refinement_flags_posn
_atom_site_refinement_flags_adp
_atom_site_refinement_flags_occupancy
_atom_site_disorder_assembly
_atom_site_disorder_group
Hf1 Hf -0.0544(2) 0.1253(2) 0.0000 0.105(2) Uani 1 2 d DS TU P . .
Hf2 Hf 0.0000 0.0000 0.07161(11) 0.101(3) Uani 1 4 d DS TU P . .
O1 O -0.0387(16) 0.0911(12) 0.1045(8) 0.080(10) Uiso 1 1 d D U . . .
O4 O -0.0880(15) 0.0297(16) 0.0349(8) 0.073(10) Uiso 1 1 d . U . . .
O13 O -0.067(2) 0.1750(19) 0.0577(6) 0.129(14) Uiso 1 1 d D U . . .
O19 O -0.176(4) 0.153(4) 0.0000 0.18(3) Uiso 1 2 d S TU P . .
O20 O 0.005(3) 0.227(3) 0.0000 0.110(17) Uiso 1 2 d S TU P . .
C3 C -0.0855(10) 0.311(2) 0.1906(10) 0.116(17) Uiso 1 1 d D U . . .
C4 C -0.1095(18) 0.3326(17) 0.1512(15) 0.18(2) Uiso 1 1 d D U . . .
H4 H -0.1263 0.3798 0.1461 0.217 Uiso 1 1 calc R . . . .
C5 C -0.1062(18) 0.280(3) 0.1217(9) 0.21(2) Uiso 1 1 d D U . . .
H5 H -0.1213 0.2930 0.0964 0.253 Uiso 1 1 calc R . . . .
C6 C -0.0820(11) 0.210(2) 0.1275(12) 0.19(2) Uiso 1 1 d D U . . .
C7 C -0.0581(15) 0.1884(18) 0.1669(15) 0.18(2) Uiso 1 1 d D U . . .
H7 H -0.0413 0.1412 0.1721 0.218 Uiso 1 1 calc R . . . .
C8 C -0.0614(15) 0.241(3) 0.1964(9) 0.14(2) Uiso 1 1 d D U . . .
H8 H -0.0462 0.2282 0.2217 0.169 Uiso 1 1 calc R . . . .
C9 C -0.0866(12) 0.3606(15) 0.2227(9) 0.118(18) Uiso 1 1 d D U . . .
C16 C -0.0309(13) 0.4125(14) 0.2217(9) 0.06(2) Uiso 0.5 1 d DG U . A -2
C15 C -0.017(2) 0.455(2) 0.2548(12) 0.04(2) Uiso 0.5 1 d DG U . A .
C15D C -0.058(4) 0.446(3) 0.2889(12) 0.050 Uiso 0 1 d G . . A .
C9D C -0.114(3) 0.394(3) 0.2899(11) 0.050 Uiso 0 1 d DG . . A .
C10 C -0.1280(18) 0.351(2) 0.2568(10) 0.11(3) Uiso 0.5 1 d DG U . A -1
C11 C -0.186(2) 0.298(3) 0.2579(16) 0.11(3) Uiso 0.5 1 d D U . A -1
H11A H -0.2181 0.3083 0.2795 0.162 Uiso 0.5 1 calc GR . . A -1
H11B H -0.1648 0.2499 0.2614 0.162 Uiso 0.5 1 calc GR . . A -1
H11C H -0.2126 0.2992 0.2335 0.162 Uiso 0.5 1 calc GR . . A -1
C12 C -0.0785(13) 0.1560(16) 0.0977(9) 0.155(19) Uiso 1 1 d D U . . .
C17 C 0.0133(18) 0.427(2) 0.1909(12) 0.26(4) Uiso 1 1 d D U . A -2
H H 0.0190 0.3838 0.1751 0.394 Uiso 1 1 calc GR . . . .
HA H 0.0604 0.4426 0.2005 0.394 Uiso 1 1 calc GR . . . .
HB H -0.0079 0.4654 0.1752 0.394 Uiso 1 1 calc GR . . . .
loop_
_atom_site_aniso_label
_atom_site_aniso_U_11
_atom_site_aniso_U_22
_atom_site_aniso_U_33
_atom_site_aniso_U_23
_atom_site_aniso_U_13
_atom_site_aniso_U_12
Hf1 0.137(4) 0.138(4) 0.040(2) 0.000 0.000 0.008(3)
Hf2 0.136(4) 0.136(4) 0.031(3) 0.000 0.000 0.000
loop_
_atom_type_symbol
_atom_type_description
_atom_type_scat_dispersion_real
_atom_type_scat_dispersion_imag
_atom_type_scat_source
C C 0.0030 0.0010 'International Tables Vol C Tables 4.2.6.8 and 6.1.1.4'
H H 0.0000 0.0000 'International Tables Vol C Tables 4.2.6.8 and 6.1.1.4'
Hf Hf -0.2930 6.1080 'International Tables Vol C Tables 4.2.6.8 and 6.1.1.4'
O O 0.0110 0.0060 'International Tables Vol C Tables 4.2.6.8 and 6.1.1.4'
loop_
_geom_angle_atom_site_label_1
_geom_angle_atom_site_label_2
_geom_angle_atom_site_label_3
_geom_angle
_geom_angle_site_symmetry_1
_geom_angle_site_symmetry_3
Hf1 Hf1 Hf1 90.0 3 11
Hf2 Hf1 Hf1 59.54(4) . 3
Hf2 Hf1 Hf1 59.54(4) 9 11
Hf2 Hf1 Hf1 59.54(4) . 11
Hf2 Hf1 Hf1 59.54(4) 9 3
Hf2 Hf1 Hf2 88.41(13) . 9
O4 Hf1 Hf1 32.6(7) 10 3
O4 Hf1 Hf1 32.6(7) . 3
O4 Hf1 Hf1 88.2(7) . 11
O4 Hf1 Hf1 35.2(7) 11 11
O4 Hf1 Hf1 88.1(8) 11 3
O4 Hf1 Hf1 35.2(7) 4 11
O4 Hf1 Hf1 88.2(7) 10 11
O4 Hf1 Hf1 88.1(8) 4 3
O4 Hf1 Hf2 86.1(7) . 9
O4 Hf1 Hf2 88.3(8) 11 .
O4 Hf1 Hf2 88.3(8) 4 9
O4 Hf1 Hf2 86.1(7) 10 .
O4 Hf1 Hf2 33.6(8) 4 .
O4 Hf1 Hf2 33.6(8) 11 9
O4 Hf1 Hf2 35.1(7) 10 9
O4 Hf1 Hf2 35.1(7) . .
O4 Hf1 O4 68.6(14) 4 .
O4 Hf1 O4 65.1(14) . 10
O4 Hf1 O4 104.8(14) 4 10
O4 Hf1 O4 70.3(15) 4 11
O4 Hf1 O4 104.8(14) 11 .
O4 Hf1 O4 68.6(14) 11 10
O4 Hf1 O13 72.7(12) 4 .
O4 Hf1 O13 137.7(13) 11 .
O4 Hf1 O13 137.7(13) 4 10
O4 Hf1 O13 72.7(12) 11 10
O4 Hf1 O19 84.6(16) 10 .
O4 Hf1 O19 143.4(9) 4 .
O4 Hf1 O19 143.4(9) 11 .
O4 Hf1 O19 84.6(16) . .
O4 Hf1 O20 84.8(13) 11 .
O4 Hf1 O20 84.8(13) 4 .
O13 Hf1 Hf1 104.8(10) 10 11
O13 Hf1 Hf1 104.8(10) . 11
O13 Hf1 Hf1 110.4(9) . 3
O13 Hf1 Hf1 110.4(9) 10 3
O13 Hf1 Hf2 71.2(10) 10 9
O13 Hf1 Hf2 159.2(10) . 9
O13 Hf1 Hf2 71.2(10) . .
O13 Hf1 Hf2 159.2(10) 10 .
O13 Hf1 O4 141.9(12) 10 .
O13 Hf1 O4 79.5(11) 10 10
O13 Hf1 O4 141.9(12) . 10
O13 Hf1 O4 79.5(11) . .
O13 Hf1 O13 128.7(19) . 10
O13 Hf1 O19 78.5(12) 10 .
O13 Hf1 O19 78.5(12) . .
O19 Hf1 Hf1 81.4(17) . 3
O19 Hf1 Hf1 171.4(17) . 11
O19 Hf1 Hf2 115.2(11) . .
O19 Hf1 Hf2 115.2(11) . 9
O20 Hf1 Hf1 171.2(13) . 3
O20 Hf1 Hf1 81.2(13) . 11
O20 Hf1 Hf2 115.1(9) . .
O20 Hf1 Hf2 115.1(9) . 9
O20 Hf1 O4 145.8(8) . 10
O20 Hf1 O4 145.8(8) . .
O20 Hf1 O13 72.2(10) . 10
O20 Hf1 O13 72.2(10) . .
O20 Hf1 O19 107(2) . .
Hf1 Hf2 Hf1 91.59(13) 3 11
Hf1 Hf2 Hf1 60.91(7) 11 .
Hf1 Hf2 Hf1 60.91(7) 3 9
Hf1 Hf2 Hf1 91.59(13) 9 .
Hf1 Hf2 Hf1 60.91(7) 9 11
Hf1 Hf2 Hf1 60.91(7) 3 .
O1 Hf2 Hf1 111.2(8) 4 9
O1 Hf2 Hf1 167.4(8) 2 .
O1 Hf2 Hf1 167.4(8) 3 11
O1 Hf2 Hf1 75.9(8) 3 3
O1 Hf2 Hf1 167.4(8) 4 3
O1 Hf2 Hf1 111.2(8) 3 .
O1 Hf2 Hf1 75.9(8) 4 11
O1 Hf2 Hf1 111.7(8) 3 9
O1 Hf2 Hf1 111.2(8) . 11
O1 Hf2 Hf1 75.9(8) . .
O1 Hf2 Hf1 167.4(8) . 9
O1 Hf2 Hf1 75.9(8) 2 9
O1 Hf2 Hf1 111.2(8) 2 3
O1 Hf2 Hf1 111.7(8) 2 11
O1 Hf2 Hf1 111.7(8) . 3
O1 Hf2 Hf1 111.7(8) 4 .
O1 Hf2 O1 74.0(7) 3 2
O1 Hf2 O1 74.0(7) 4 2
O1 Hf2 O1 116.7(16) 4 3
O1 Hf2 O1 74.0(7) . 4
O1 Hf2 O1 74.0(7) . 3
O1 Hf2 O1 116.7(16) . 2
O4 Hf2 Hf1 36.9(8) 4 11
O4 Hf2 Hf1 36.9(8) 2 9
O4 Hf2 Hf1 88.6(8) 4 3
O4 Hf2 Hf1 36.9(8) . .
O4 Hf2 Hf1 90.9(7) 3 .
O4 Hf2 Hf1 32.7(8) 4 .
O4 Hf2 Hf1 90.9(7) 4 9
O4 Hf2 Hf1 32.7(8) 2 11
O4 Hf2 Hf1 32.7(8) . 3
O4 Hf2 Hf1 88.6(8) 3 11
O4 Hf2 Hf1 90.9(7) . 11
O4 Hf2 Hf1 88.6(8) . 9
O4 Hf2 Hf1 32.7(8) 3 9
O4 Hf2 Hf1 88.6(8) 2 .
O4 Hf2 Hf1 36.9(8) 3 3
O4 Hf2 Hf1 90.9(7) 2 3
O4 Hf2 O1 140.1(11) 2 .
O4 Hf2 O1 81.6(11) . .
O4 Hf2 O1 81.6(11) 4 4
O4 Hf2 O1 145.4(11) . 4
O4 Hf2 O1 140.1(11) 3 4
O4 Hf2 O1 145.4(11) 2 3
O4 Hf2 O1 140.1(11) . 2
O4 Hf2 O1 78.4(10) 3 2
O4 Hf2 O1 140.1(11) 4 3
O4 Hf2 O1 81.6(11) 3 3
O4 Hf2 O1 78.4(10) . 3
O4 Hf2 O1 78.4(10) 4 .
O4 Hf2 O1 78.4(10) 2 4
O4 Hf2 O1 81.6(11) 2 2
O4 Hf2 O1 145.4(11) 3 .
O4 Hf2 O1 145.4(11) 4 2
O4 Hf2 O4 107.5(15) 3 4
O4 Hf2 O4 107.5(15) 2 .
O4 Hf2 O4 69.5(7) 3 2
O4 Hf2 O4 69.5(7) 4 .
O4 Hf2 O4 69.5(7) 3 .
O4 Hf2 O4 69.5(7) 4 2
C12 O1 Hf2 138(2) . .
Hf1 O4 Hf1 112.2(12) 3 .
Hf1 O4 Hf2 113.6(13) 3 .
Hf2 O4 Hf1 108.0(12) . .
C12 O13 Hf1 141(3) . .
C8 C3 C4 118.8(11) . .
C8 C3 C9 119(4) . .
C9 C3 C4 122(3) . .
C3 C4 H4 121.3 . .
C5 C4 C3 117(3) . .
C5 C4 H4 121.4 . .
C4 C5 H5 118.0 . .
C6 C5 C4 124(3) . .
C6 C5 H5 118.2 . .
C5 C6 C7 118.9(11) . .
C5 C6 C12 124(4) . .
C12 C6 C7 117(4) . .
C6 C7 H7 121.3 . .
C8 C7 C6 117(3) . .
C8 C7 H7 121.5 . .
C3 C8 C7 124(3) . .
C3 C8 H8 118.1 . .
C7 C8 H8 117.9 . .
C16 C9 C3 114.0(11) . .
C10 C9 C3 124.8(15) . .
C9 C16 C15 120.0 . .
C17 C16 C9 126.4(2) . .
C17 C16 C15 113.6(2) . .
C16 C15 C15 126.33(16) . 2_565
C16 C15 C15 111(4) . 8
C15 C15 C16 85(5) 7_455 .
C15 C15 C15 68(5) 7_455 2_565
C15 C15 C15 85(3) 7_455 8
C15 C15 C15 27(5) 8 2_565
C9 C10 C11 120.0(2) . .
C10 C11 H11A 110.6 . .
C10 C11 H11B 110.7 . .
C10 C11 H11C 111.0 . .
H11A C11 H11B 108.2 . .
H11A C11 H11C 108.1 . .
H11B C11 H11C 108.2 . .
O1 C12 O13 107(3) . .
O1 C12 C6 119(3) . .
O13 C12 C6 121(3) . .
C16 C17 H 109.6 . .
C16 C17 HA 109.9 . .
C16 C17 HB 109.8 . .
H C17 HA 109.2 . .
H C17 HB 109.2 . .
HA C17 HB 109.2 . .
loop_
_geom_bond_atom_site_label_1
_geom_bond_atom_site_label_2
_geom_bond_distance
_geom_bond_site_symmetry_2
Hf1 Hf1 3.524(6) 11
Hf1 Hf1 3.524(6) 3
Hf1 Hf2 3.476(4) 9
Hf1 Hf2 3.476(4) .
Hf1 O4 2.05(3) 11
Hf1 O4 2.05(3) 4
Hf1 O4 2.19(3) 10
Hf1 O4 2.19(3) .
Hf1 O13 2.167(17) 10
Hf1 O13 2.167(17) .
Hf1 O19 2.27(7) .
Hf1 O20 2.14(5) .
Hf2 Hf1 3.476(4) 11
Hf2 Hf1 3.476(4) 9
Hf2 Hf1 3.476(4) 3
Hf2 O1 2.121(17) 3
Hf2 O1 2.121(17) 4
Hf2 O1 2.121(17) 2
Hf2 O1 2.121(17) .
Hf2 O4 2.10(3) 4
Hf2 O4 2.10(3) 3
Hf2 O4 2.10(3) .
Hf2 O4 2.10(3) 2
O1 C12 1.409(9) .
O4 Hf1 2.05(3) 3
O13 C12 1.410(9) .
C3 C4 1.46(5) .
C3 C8 1.36(4) .
C3 C9 1.414(6) .
C4 H4 0.9300 .
C4 C5 1.390(10) .
C5 H5 0.9300 .
C5 C6 1.36(4) .
C6 C7 1.46(5) .
C6 C12 1.412(6) .
C7 H7 0.9300 .
C7 C8 1.390(10) .
C8 H8 0.9300 .
C9 C16 1.3900 .
C9 C10 1.3900 .
C16 C15 1.3900 .
C16 C17 1.343(4) .
C15 C15 1.61(6) 8
C15 C15 0.79(12) 7_455
C15 C15 1.74(7) 2_565
C10 C11 1.438(4) .
C11 H11A 0.9721 .
C11 H11B 0.9723 .
C11 H11C 0.9726 .
C17 H 0.9625 .
C17 HA 0.9626 .
C17 HB 0.9626 .
loop_
_geom_torsion_atom_site_label_1
_geom_torsion_atom_site_label_2
_geom_torsion_atom_site_label_3
_geom_torsion_atom_site_label_4
_geom_torsion
_geom_torsion_site_symmetry_4
Hf1 O13 C12 O1 36(5) .
Hf1 O13 C12 C6 178(3) .
Hf2 O1 C12 O13 -26(4) .
Hf2 O1 C12 C6 -169(2) .
C3 C4 C5 C6 0.1(4) .
C3 C9 C16 C15 -168(3) .
C3 C9 C16 C17 12(3) .
C3 C9 C10 C11 -14(3) .
C4 C3 C8 C7 0.0(3) .
C4 C3 C9 C16 -75(2) .
C4 C3 C9 C10 118(3) .
C4 C5 C6 C7 0.0(3) .
C4 C5 C6 C12 180.0(2) .
C5 C6 C7 C8 -0.1(4) .
C5 C6 C12 O1 167(2) .
C5 C6 C12 O13 29(3) .
C6 C7 C8 C3 0.0(4) .
C7 C6 C12 O1 -13(2) .
C7 C6 C12 O13 -151(3) .
C8 C3 C4 C5 -0.1(3) .
C8 C3 C9 C16 105(2) .
C8 C3 C9 C10 -62(3) .
C9 C3 C4 C5 180.0(2) .
C9 C3 C8 C7 180.0(2) .
C9 C16 C15 C15 -149(6) 2_565
C9 C16 C15 C15 -174.5(13) 8
C9 C16 C15 C15 -91(3) 7_455
C12 C6 C7 C8 180.0(2) .
C17 C16 C15 C15 31(6) 2_565
C17 C16 C15 C15 5.5(13) 8
C17 C16 C15 C15 89(3) 7_455
