#------------------------------------------------------------------------------
#$Date: 2019-11-26 01:41:52 +0200 (Tue, 26 Nov 2019) $
#$Revision: 242304 $
#$URL: file:///home/coder/svn-repositories/cod/cif/4/13/23/4132306.cif $
#------------------------------------------------------------------------------
#
# This file is available in the Crystallography Open Database (COD),
# http://www.crystallography.net/
#
# All data on this site have been placed in the public domain by the
# contributors.
#
data_4132306
loop_
_publ_author_name
'Huxley, Michael T.'
'Burgun, Alexandre'
'Ghodrati, Hanieh'
'Coghlan, Campbell J.'
'Lemieux, Anthony'
'Champness, Neil R.'
'Huang, David M.'
'Doonan, Christian J.'
'Sumby, Christopher J.'
_publ_section_title
;
 Protecting-Group-Free Site-Selective Reactions in a Metal-Organic
 Framework Reaction Vessel.
;
_journal_issue                   20
_journal_name_full               'Journal of the American Chemical Society'
_journal_page_first              6416
_journal_page_last               6425
_journal_paper_doi               10.1021/jacs.8b02896
_journal_volume                  140
_journal_year                    2018
_chemical_formula_sum            'C14 H16 Br Mn N4 O3'
_chemical_formula_weight         423.16
_space_group_crystal_system      orthorhombic
_space_group_IT_number           62
_space_group_name_Hall           '-P 2ac 2n'
_space_group_name_H-M_alt        'P n m a'
_atom_sites_solution_hydrogens   geom
_audit_creation_method           SHELXL-2014/6
_cell_angle_alpha                90
_cell_angle_beta                 90
_cell_angle_gamma                90
_cell_formula_units_Z            4
_cell_length_a                   10.1113(14)
_cell_length_b                   14.6016(18)
_cell_length_c                   11.3834(10)
_cell_measurement_reflns_used    1965
_cell_measurement_temperature    150(2)
_cell_measurement_theta_max      29.0914
_cell_measurement_theta_min      2.6889
_cell_volume                     1680.7(3)
_computing_cell_refinement
;
CrysAlisPro, Agilent Technologies,
Version 1.171.35.21 (release 20-01-2012 CrysAlis171 .NET)
(compiled Jan 23 2012,18:06:46)
;
_computing_data_collection
;
CrysAlisPro, Agilent Technologies,
Version 1.171.35.21 (release 20-01-2012 CrysAlis171 .NET)
(compiled Jan 23 2012,18:06:46)
;
_computing_data_reduction
;
CrysAlisPro, Agilent Technologies,
Version 1.171.35.21 (release 20-01-2012 CrysAlis171 .NET)
(compiled Jan 23 2012,18:06:46)
;
_computing_molecular_graphics    'X-Seed (Barbour, 2001)'
_computing_structure_refinement  'SHELXL-2014/6 (Sheldrick, 2014)'
_computing_structure_solution    'SHELXS-2014/6 (Sheldrick, 2014)'
_diffrn_ambient_temperature      150(2)
_diffrn_detector_area_resol_mean 16.1695
_diffrn_measured_fraction_theta_full 0.993
_diffrn_measured_fraction_theta_max 0.980
_diffrn_measurement_details
;
#__ type_ start__ end____ width___ exp.time_
  1 omega  -44.00   -3.00   1.0000   30.0000
omega____ theta____ kappa____ phi______ frames
    -       19.0899  -57.0000   60.0000 41

#__ type_ start__ end____ width___ exp.time_
  2 omega  -82.00   24.00   1.0000   30.0000
omega____ theta____ kappa____ phi______ frames
    -      -19.5586  -19.0000  150.0000 106

#__ type_ start__ end____ width___ exp.time_
  3 omega  -13.00   12.00   1.0000   30.0000
omega____ theta____ kappa____ phi______ frames
    -       19.0899   77.0000    0.0000 25

#__ type_ start__ end____ width___ exp.time_
  4 omega  -54.00   47.00   1.0000   30.0000
omega____ theta____ kappa____ phi______ frames
    -       19.0899  -37.0000 -120.0000 101

;
_diffrn_measurement_device_type  'Xcalibur, Eos'
_diffrn_measurement_method       '\w scans'
_diffrn_radiation_monochromator  graphite
_diffrn_radiation_source         'Enhance (Mo) X-ray Source'
_diffrn_radiation_type           MoK\a
_diffrn_radiation_wavelength     0.71073
_diffrn_reflns_av_R_equivalents  0.0510
_diffrn_reflns_av_unetI/netI     0.0477
_diffrn_reflns_Laue_measured_fraction_full 0.993
_diffrn_reflns_Laue_measured_fraction_max 0.980
_diffrn_reflns_limit_h_max       11
_diffrn_reflns_limit_h_min       -13
_diffrn_reflns_limit_k_max       18
_diffrn_reflns_limit_k_min       -17
_diffrn_reflns_limit_l_max       14
_diffrn_reflns_limit_l_min       -14
_diffrn_reflns_number            8468
_diffrn_reflns_point_group_measured_fraction_full 0.993
_diffrn_reflns_point_group_measured_fraction_max 0.980
_diffrn_reflns_theta_full        27.000
_diffrn_reflns_theta_max         27.495
_diffrn_reflns_theta_min         2.694
_exptl_absorpt_coefficient_mu    3.181
_exptl_absorpt_correction_T_max  1.00000
_exptl_absorpt_correction_T_min  0.63056
_exptl_absorpt_correction_type   multi-scan
_exptl_absorpt_process_details
;
CrysAlisPro, Agilent Technologies,
Version 1.171.35.21 (release 20-01-2012 CrysAlis171 .NET)
(compiled Jan 23 2012,18:06:46)
Empirical absorption correction using spherical harmonics,
 implemented in SCALE3 ABSPACK scaling algorithm.
;
_exptl_crystal_colour            yellow
_exptl_crystal_density_diffrn    1.672
_exptl_crystal_description       block
_exptl_crystal_F_000             848
_exptl_crystal_size_max          0.200
_exptl_crystal_size_mid          0.100
_exptl_crystal_size_min          0.100
_refine_diff_density_max         0.558
_refine_diff_density_min         -0.563
_refine_diff_density_rms         0.096
_refine_ls_extinction_method     none
_refine_ls_goodness_of_fit_ref   1.056
_refine_ls_hydrogen_treatment    constr
_refine_ls_matrix_type           full
_refine_ls_number_parameters     114
_refine_ls_number_reflns         1964
_refine_ls_number_restraints     0
_refine_ls_restrained_S_all      1.056
_refine_ls_R_factor_all          0.0526
_refine_ls_R_factor_gt           0.0353
_refine_ls_shift/su_max          0.000
_refine_ls_shift/su_mean         0.000
_refine_ls_structure_factor_coef Fsqd
_refine_ls_weighting_details
'w=1/[\s^2^(Fo^2^)+(0.0235P)^2^+0.9077P] where P=(Fo^2^+2Fc^2^)/3'
_refine_ls_weighting_scheme      calc
_refine_ls_wR_factor_gt          0.0642
_refine_ls_wR_factor_ref         0.0706
_reflns_Friedel_coverage         0.000
_reflns_number_gt                1585
_reflns_number_total             1964
_reflns_threshold_expression     'I > 2\s(I)'
_cod_data_source_file            ja8b02896_si_001.cif
_cod_data_source_block           MnLCO3Br
_cod_database_code               4132306
_shelx_space_group_comment
;
The symmetry employed for this shelxl refinement is uniquely defined
by the following loop, which should always be used as a source of
symmetry information in preference to the above space-group names.
They are only intended as comments.
;
_shelx_estimated_absorpt_t_min   0.569
_shelx_estimated_absorpt_t_max   0.741
_shelxl_version_number           2014/6
_shelx_res_file
;
REM TRMX  1.000  0.000  0.000  0.000  0.000  1.000  0.000 -1.000  0.000 oP  3
REM SPGR Pnma
REM  MnCO_Mol in Pna2(1)         New: Pnma
REM R1 =  0.0353 for    1585 Fo > 4sig(Fo)  and  0.0526 for all    1964 data
REM    114 parameters refined using      0 restraints
REM Highest difference peak  0.558,  deepest hole -0.562,  1-sigma level  0.096
REM  MnCO_Mol in Pna2(1)         New: Pnma
REM R1 =  0.0353 for    1585 Fo > 4sig(Fo)  and  0.0525 for all    1964 data
REM    114 parameters refined using      0 restraints
REM Highest difference peak  0.558,  deepest hole -0.557,  1-sigma level  0.096
REM  MnCO_Mol in Pna2(1)         New: Pnma
REM R1 =  0.0353 for    1585 Fo > 4sig(Fo)  and  0.0526 for all    1964 data
REM    114 parameters refined using      0 restraints
REM Highest difference peak  0.558,  deepest hole -0.562,  1-sigma level  0.096
TITL MnCO_Mol in Pna2(1)         New: Pnma
CELL 0.71073 10.1113 14.6016 11.3834 90.000 90.000 90.000
ZERR 4.0000 0.0014 0.0018 0.0010 0.000 0.000 0.000
LATT 1
SYMM 0.5-X, -Y, 0.5+Z
SYMM 0.5+X, 0.5-Y, 0.5-Z
SYMM -X, 0.5+Y, -Z
SFAC C H BR MN N O
UNIT 56 64 4 4 16 12
MERG 2
OMIT -2 55
FMAP 2
GRID
PLAN 20
TEMP -123
SIZE 0.2 0.1 0.1
BOND $H
CONF
L.S. 20
ACTA 54
WGHT    0.023500    0.907700
FVAR       1.82749
BR1   3    0.180898    0.750000    0.359980    10.50000    0.02826    0.04040 =
         0.01652    0.00000    0.00670    0.00000
MN1   4    0.122474    0.750000    0.581242    10.50000    0.01302    0.01685 =
         0.01381    0.00000   -0.00024    0.00000
N11   5   -0.027013    0.651877    0.561592    11.00000    0.01368    0.01644 =
         0.01406   -0.00060    0.00000    0.00058
O4    6    0.343341    0.619393    0.599599    11.00000    0.02047    0.02675 =
         0.04911   -0.00103   -0.00216    0.00649
C14   1   -0.176674    0.539248    0.584308    11.00000    0.02076    0.01521 =
         0.02158   -0.00364    0.00668   -0.00537
AFIX  43
H14   2   -0.216831    0.484093    0.610522    11.00000   -1.20000
AFIX   0
C3    1    0.253038    0.667054    0.591897    11.00000    0.01701    0.01892 =
         0.02200   -0.00208    0.00124   -0.00423
N12   5   -0.138560    0.668617    0.495703    11.00000    0.01603    0.01603 =
         0.01720   -0.00226   -0.00236   -0.00017
C13   1   -0.230124    0.601638    0.508336    11.00000    0.01558    0.01849 =
         0.01818   -0.00719    0.00134   -0.00214
C17   1   -0.145244    0.750000    0.423317    10.50000    0.01945    0.01896 =
         0.01357    0.00000   -0.00423    0.00000
AFIX  23
H17A  2   -0.228948    0.750000    0.378199    10.50000   -1.20000
H17B  2   -0.070935    0.749999    0.366686    10.50000   -1.20000
AFIX   0
C16   1    0.043621    0.527318    0.698005    11.00000    0.02414    0.02137 =
         0.02123    0.00560    0.00439    0.00153
AFIX 137
H16A  2    0.130636    0.523446    0.660417    11.00000   -1.50000
H16B  2    0.012447    0.465567    0.717260    11.00000   -1.50000
H16C  2    0.050503    0.563639    0.770142    11.00000   -1.50000
AFIX   0
C15   1   -0.051885    0.571938    0.616081    11.00000    0.01685    0.01538 =
         0.01606   -0.00253    0.00477    0.00121
C18   1   -0.359463    0.603425    0.443761    11.00000    0.02035    0.02603 =
         0.02909   -0.00596   -0.00453   -0.00466
AFIX 137
H18A  2   -0.410712    0.656995    0.468613    11.00000   -1.50000
H18B  2   -0.409320    0.547543    0.461429    11.00000   -1.50000
H18C  2   -0.342833    0.606905    0.359065    11.00000   -1.50000
AFIX   0
O2    6    0.099111    0.750000    0.838174    10.50000    0.04920    0.03172 =
         0.01656    0.00000   -0.00036    0.00000
C1    1    0.105244    0.750000    0.737659    10.50000    0.01470    0.01544 =
         0.02587    0.00000   -0.00398    0.00000
HKLF 4  1  1.0000 0.0000 0.0000 0.0000 0.0000 1.0000 0.0000 -1.0000 0.0000

REM  MnCO_Mol in Pna2(1)         New: Pnma
REM R1 =  0.0353 for    1585 Fo > 4sig(Fo)  and  0.0526 for all    1964 data
REM    114 parameters refined using      0 restraints

END

WGHT      0.0235      0.9067

REM Highest difference peak  0.558,  deepest hole -0.563,  1-sigma level  0.096
Q1    1   0.0583  0.7500  0.5129  10.50000  0.05    0.56
Q2    1   0.2252  0.7500  0.6621  10.50000  0.05    0.55
Q3    1   0.1810  0.7500  0.5109  10.50000  0.05    0.52
Q4    1   0.2943  0.7500  0.5098  10.50000  0.05    0.47
Q5    1   0.2497  0.7500  0.4302  10.50000  0.05    0.47
Q6    1   0.1209  0.7500  0.4265  10.50000  0.05    0.46
Q7    1   0.2506  0.7500  0.2980  10.50000  0.05    0.44
Q8    1   0.1138  0.7500  0.3020  10.50000  0.05    0.40
Q9    1  -0.4623  0.7500  0.3755  10.50000  0.05    0.38
Q10   1  -0.1796  0.4494  0.6235  11.00000  0.05    0.38
Q11   1  -0.0206  0.7085  0.5811  11.00000  0.05    0.35
Q12   1  -0.2244  0.7500  0.2958  10.50000  0.05    0.35
Q13   1   0.2789  0.6968  0.3620  11.00000  0.05    0.34
Q14   1   0.1266  0.6893  0.5420  11.00000  0.05    0.33
Q15   1   0.3217  0.6347  0.6592  11.00000  0.05    0.33
Q16   1  -0.1196  0.5650  0.6232  11.00000  0.05    0.33
Q17   1   0.1819  0.7028  0.6373  11.00000  0.05    0.33
Q18   1  -0.0122  0.5004  0.7430  11.00000  0.05    0.32
Q19   1   0.0728  0.7500  0.2396  10.50000  0.05    0.32
Q20   1  -0.3733  0.6891  0.2685  11.00000  0.05    0.32
;
_shelx_res_checksum              42239
_shelx_hkl_file
;
   0   0 -10 81661.2 2014.01   2
   0   0  -9 90.1361 69.1256   2
   0   0  -8 114927. 2664.83   2
   0   0  -7 24.3660 45.9516   2
   0   0  -6 117085. 2660.40   2
   0   0  -5 30.4269 34.2183   2
   0   0  -4 53151.3 1305.80   2
   0   0  -3 172.672 52.4011   2
   0   0  -3 113.498 40.6661   1
   0   0  -2 150474. 3130.59   1
   0   0   2 146813. 3061.55   1
   0   0   3 114.182 35.7938   2
   0   0   3 9.91377 38.3697   1
   0   0   4 57560.4 1321.66   2
   0   0   4 59002.9 1424.47   1
   0   0   5 99.4201 49.8707   2
   0   0   5 52.3300 44.1504   1
   0   0   6 109074. 2401.52   2
   0   0   6 108900. 2582.07   1
   0   0   7 77.7132 41.8357   2
   0   0   7 50.7575 63.1508   1
   0   0   8 103854. 2632.01   1
   0   0   8 105471. 2372.18   2
   0   0   9-17.9064 83.8877   1
   0   0   9 52.2402 46.3877   2
   0   0  10 85278.2 2369.28   1
   0   0  10 85793.7 2038.19   2
   0   0  11-11.5606 101.724   1
   0   0  11 155.129 63.1686   2
   0   0  12 50163.1 1748.62   1
   0   0  12 52234.8 1409.61   2
   0   0  13 129.634 132.641   1
   0   0  13 129.349 81.3004   2
   0   0  14 44804.7 1740.62   1
   0   0  15 67.2597 150.258   1
   0   0  16 5166.33 569.260   1
   0   0  17 50.0916 153.675   1
   0   0  18 4569.19 569.599   1
   0  -1 -10 116.683 56.4804   2
   0   1  -9 882.598 138.470   2
   0  -1  -9 677.585 112.027   2
   0   1  -8-49.1328 51.4718   2
   0  -1  -8-26.1865 47.7324   2
   0   1  -7 8723.09 421.320   2
   0  -1  -7 7945.06 379.686   2
   0   1  -6 8.84099 36.6023   2
   0  -1  -6 36.4917 32.0980   2
   0  -1  -6-8.84714 40.1422   4
   0  -1  -5 231.728 49.9777   2
   0   1  -5 235.963 69.8924   2
   0  -1  -5 233.874 66.5051   4
   0  -1  -4 26.0125 28.1917   1
   0  -1  -4 45.2715 25.1598   2
   0   1  -4 42.8366 49.2938   2
   0  -1  -4 5.39666 35.7758   4
   0  -1  -3 31440.7 876.659   3
   0   1  -3 33618.1 844.507   2
   0  -1  -3 32245.4 772.846   1
   0  -1  -3 30981.8 735.339   2
   0  -1  -3 32548.8 824.346   4
   0  -1  -2-2.33134 25.3612   4
   0   1  -2 33.6773 33.6631   2
   0  -1  -2 47.0071 22.6693   2
   0  -1  -2 60.1018 41.0403   3
   0  -1   2 41.8635 30.9875   2
   0   1   2 53.3663 33.0377   3
   0  -1   2-1.17014 34.8326   1
   0   1   2-1.96911 28.3192   4
   0  -1   3 31595.2 863.565   1
   0   1   3 32148.9 814.467   4
   0   1   3 30448.9 852.211   3
   0   1   3 30056.4 754.223   1
   0   1   3 31370.0 730.662   2
   0  -1   3 32360.9 829.251   2
   0   1   4 60.9232 41.2742   1
   0  -1   4 54.2384 61.2889   1
   0   1   4 20.1716 23.7012   2
   0  -1   4-58.7649 61.3799   2
   0   1   4 1.48422 31.7726   3
   0  -1   5 165.780 61.9375   2
   0   1   5 157.062 56.8175   1
   0   1   5 200.609 40.7528   2
   0  -1   5 201.936 85.1553   1
   0   1   5 220.786 70.2190   3
   0  -1   6-18.2010 67.3660   1
   0   1   6 7.32093 31.0743   2
   0   1   6-9.53007 45.9614   1
   0  -1   6-60.6038 59.9671   2
   0  -1   7 8823.57 493.222   1
   0   1   7 7910.69 318.954   2
   0  -1   7 8379.03 414.840   2
   0   1   7 7973.47 415.264   1
   0  -1   8 52.5541 84.5942   1
   0  -1   8 117.508 73.4475   2
   0   1   8-57.9762 82.7710   1
   0   1   8 38.0103 39.4838   2
   0  -1   9 665.362 171.736   1
   0   1   9 741.328 101.032   2
   0  -1   9 742.468 131.636   2
   0   1   9 701.512 153.552   1
   0   1  10 52.6607 41.9055   2
   0  -1  10 11.5446 106.162   1
   0   1  10-31.6975 77.6672   1
   0  -1  10-33.3643 64.2919   2
   0  -1  11 157.299 112.966   1
   0   1  11 255.604 79.5988   2
   0  -1  11 180.226 79.2675   2
   0   1  11 580.800 158.147   1
   0  -1  12-1.57677 54.3025   2
   0  -1  12-94.4029 125.992   1
   0   1  12-37.0671 92.7085   1
   0   1  12 94.3731 65.3786   2
   0  -1  13 8.80324 69.6389   2
   0   1  13-15.8825 107.940   1
   0  -1  13 44.9718 116.710   1
   0   1  13-55.3380 63.4018   2
   0   1  14 66.9080 103.077   1
   0  -1  14 54.6501 138.604   1
   0   1  15 19.6075 118.854   1
   0  -1  15 70.1884 148.749   1
   0   1  16-65.5909 125.835   1
   0  -1  16 4.15153 161.525   1
   0   1  17-167.499 149.585   1
   0  -1  17 132.874 148.089   1
   0  -1  18 34.4349 172.418   1
   0  -1  19-266.454 264.430   1
   0  -2 -10 192.977 54.6790   2
   0  -2  -9 66.5873 51.3376   2
   0  -2  -8 189.142 58.5893   2
   0  -2  -7 128.364 47.0491   2
   0  -2  -6 670.200 78.6876   2
   0   2  -6 699.907 120.180   2
   0   2  -5 47.0414 50.3604   2
   0  -2  -5 88.1142 91.2212   3
   0  -2  -5-82.4186 58.9920   4
   0  -2  -5 81.9387 36.8977   2
   0  -2  -4 54171.6 1334.99   4
   0  -2  -4 52303.6 1204.96   2
   0  -2  -3 20.3745 40.5858   4
   0  -2  -3 37.2419 59.2698   3
   0  -2  -2 6813.09 305.505   4
   0   2  -2 6672.78 297.131   4
   0   2  -1 32.9924 39.2388   4
   0  -2  -1 63.7384 34.7157   4
   0  -2   0 108374. 2393.11   4
   0   2   0 110803. 2406.33   4
   0  -2   0 110898. 2314.01   1
   0   2   1 21.5385 31.0353   4
   0  -2   1-42.9483 30.7319   4
   0  -2   1 37.7756 30.5571   1
   0   2   2 6924.34 309.759   4
   0  -2   2 6779.41 299.502   2
   0  -2   2 6754.23 311.346   1
   0   2   3-33.0585 43.1983   4
   0  -2   3-22.9213 45.7278   1
   0  -2   3 14.0260 36.4163   2
   0  -2   4 51426.0 1318.84   2
   0   2   4 52270.1 1367.01   3
   0   2   4 47809.7 1153.28   1
   0   2   4 55117.2 1324.05   4
   0  -2   4 51991.3 1383.95   1
   0   2   5 52.2899 64.6506   4
   0   2   5 23.4086 32.5870   1
   0  -2   5 64.6864 50.1663   2
   0  -2   5 61.7804 82.2730   1
   0   2   6 517.193 85.9726   1
   0  -2   6 755.303 160.575   1
   0  -2   6 491.604 113.156   2
   0   2   7-55.9634 51.3427   1
   0  -2   7-67.6808 81.6855   2
   0  -2   7 31.3245 72.1429   1
   0   2   8 62.5786 51.6531   1
   0  -2   8 45.3888 71.1387   2
   0  -2   8 117.455 102.489   1
   0  -2   9 12.2916 72.6272   2
   0   2   9 170.992 88.3845   1
   0  -2   9-14.8999 94.9199   1
   0   2  10 223.830 96.5449   1
   0  -2  10 271.468 152.536   1
   0  -2  10 244.814 103.218   2
   0  -2  11 35.8386 101.809   1
   0   2  11-19.8433 70.2613   1
   0  -2  11 39.5332 85.0116   2
   0  -2  12 3417.00 311.795   2
   0   2  12 2710.47 312.937   1
   0  -2  12 3049.82 403.494   1
   0   2  13-209.619 130.370   1
   0  -2  13 137.639 177.035   1
   0  -2  13 71.4386 71.6294   2
   0  -2  14 2166.44 248.059   2
   0   2  14 2021.71 291.660   1
   0  -2  14 1899.02 361.132   1
   0   2  15 64.7056 110.168   1
   0  -2  15-67.7762 162.051   1
   0  -2  16 136.844 199.678   1
   0  -2  17 274.816 183.828   1
   0  -2  18 649.291 304.428   1
   0  -2  19 113.141 212.960   1
   0  -3 -10 13.7471 36.1695   2
   0  -3  -9 2261.01 175.840   2
   0  -3  -8-1.14005 32.6666   2
   0  -3  -7 977.235 181.816   3
   0  -3  -7 1450.76 131.322   2
   0  -3  -6-41.6821 80.1600   3
   0  -3  -6 82.1343 45.7855   2
   0  -3  -5 6367.12 300.473   2
   0  -3  -5 5765.31 397.317   3
   0  -3  -4 49.1749 56.1960   4
   0  -3  -4 13.0931 66.2160   3
   0  -3  -3 12032.7 506.862   4
   0   3  -3 11829.1 491.674   4
   0   3  -2 12.2613 48.3672   4
   0  -3  -2-52.4536 39.6268   4
   0  -3  -1 23981.7 730.735   4
   0  -3  -1 22216.9 549.253   1
   0   3  -1 20794.0 691.325   4
   0   3   0-49.8785 54.1336   4
   0  -3   0-59.4593 55.4549   4
   0  -3   0 38.4157 30.6859   1
   0  -3   1 21871.5 674.185   1
   0   3   1 24002.7 741.491   4
   0  -3   1 24077.0 727.054   4
   0   3   2 17.1909 51.5883   4
   0  -3   2-12.7786 40.2035   1
   0   3   3 11970.9 497.501   4
   0  -3   3 12391.8 516.786   1
   0  -3   3 11522.8 488.058   2
   0  -3   4 28.5853 62.9066   1
   0  -3   4 204.187 81.3521   2
   0   3   4 43.9581 52.1555   4
   0  -3   5 6276.36 409.615   1
   0  -3   5 6104.15 366.569   2
   0   3   5 5365.59 343.059   4
   0   3   6 38.9055 68.2415   4
   0  -3   6-4.20069 60.1523   2
   0  -3   6 25.2234 78.2897   1
   0   3   7 628.914 187.434   4
   0   3   7 1023.66 121.105   1
   0  -3   7 1073.18 167.745   2
   0  -3   7 1247.64 204.866   1
   0  -3   8-77.3652 108.144   2
   0   3   8-30.1075 46.5590   1
   0  -3   8 22.3103 109.198   1
   0  -3   9 1857.42 251.541   2
   0  -3   9 1652.47 268.182   1
   0   3   9 1815.92 192.757   1
   0  -3  10-112.315 107.506   2
   0   3  10-29.7661 70.5161   1
   0  -3  10-67.7858 132.479   1
   0  -3  11 3035.29 334.412   2
   0   3  11 3163.82 297.974   1
   0  -3  11 3378.33 416.613   1
   0  -3  12-111.147 112.028   2
   0  -3  12-43.6975 148.134   1
   0  -3  13 128.546 117.865   1
   0  -3  13 60.6530 94.5630   2
   0  -3  14 7.47593 146.695   1
   0  -3  14 121.989 114.870   2
   0  -3  15 451.753 225.252   1
   0  -3  16-129.476 216.542   1
   0  -3  17 45.9176 175.923   1
   0  -3  18-131.740 192.766   1
   0  -4  -9 3.03299 38.1079   2
   0  -4  -8 29682.2 1244.66   3
   0  -4  -8 30523.4 885.736   2
   0  -4  -7 6.71215 35.4671   2
   0  -4  -7-78.7039 96.3637   3
   0  -4  -6 59362.8 1791.50   3
   0  -4  -6 57983.7 1500.33   2
   0   4  -5-36.8611 67.4637   4
   0  -4  -5 119.762 110.898   3
   0  -4  -4 56792.6 1624.15   3
   0   4  -4 53280.4 1522.08   4
   0   4  -3-37.6617 70.6254   4
   0  -4  -2 44536.2 987.856   1
   0   4  -2 46651.6 1292.16   4
   0  -4  -1 5.66774 24.5229   1
   0   4  -1-6.64848 62.8837   4
   0  -4  -1-3.84415 49.5489   4
   0  -4   0 88916.3 2076.96   1
   0  -4   0 93035.2 2227.31   4
   0   4   0 99327.8 2291.55   4
   0   4   1 8.19113 68.9812   4
   0  -4   1 7.04717 43.0885   1
   0   4   2 46558.6 1323.08   4
   0  -4   2 45273.4 1262.20   1
   0   4   3-53.4300 80.8174   4
   0  -4   3-6.64524 60.1627   2
   0  -4   3 27.4080 59.6111   1
   0  -4   4 55528.4 1581.54   1
   0   4   4 54975.1 1537.29   4
   0  -4   4 55811.2 1546.09   2
   0  -4   5-28.1857 65.4604   2
   0   4   5 103.658 88.9404   4
   0  -4   5-29.0830 87.2938   1
   0   4   6 58143.5 1629.29   4
   0  -4   6 55266.0 1719.32   1
   0  -4   6 56997.2 1638.66   2
   0   4   7 59.5917 92.9234   4
   0  -4   7-19.3694 80.0034   1
   0  -4   7 12.0231 86.3982   2
   0  -4   8 29917.5 1200.07   1
   0   4   8 25222.8 1139.57   4
   0  -4   8 30827.3 1131.66   2
   0  -4   9-19.9097 134.389   2
   0  -4   9-50.8316 112.508   1
   0  -4  10 23511.7 1080.30   2
   0  -4  10 24472.2 1156.17   1
   0  -4  11-95.9877 119.984   2
   0  -4  11-163.373 156.911   1
   0  -4  12 6642.78 542.514   2
   0  -4  12 6212.70 603.055   1
   0  -4  13 130.232 187.246   1
   0  -4  13 70.5797 103.135   2
   0  -4  14 3604.70 390.265   2
   0  -4  14 3665.56 519.013   1
   0  -4  15 253.810 184.439   1
   0  -4  16 8889.87 839.830   1
   0  -4  17 440.302 298.669   1
   0  -4  18 3017.41 533.413   1
   0  -5  -9 31175.9 1367.10   3
   0  -5  -8-34.5281 110.794   3
   0  -5  -7 16253.1 854.052   3
   0   5  -7 13937.2 740.486   4
   0  -5  -6-62.8501 99.7776   3
   0   5  -6-3.82245 78.4788   4
   0   5  -5 20100.2 839.513   4
   0  -5  -5 19269.7 891.290   3
   0   5  -4-66.3798 88.2150   4
   0   5  -3 45081.5 1383.00   4
   0   5  -2-21.4806 88.0968   4
   0  -5  -2 39.1001 24.9374   1
   0  -5  -1 58881.1 1369.16   1
   0   5  -1 54370.1 1623.93   4
   0   5   0 101.979 77.9372   4
   0  -5   0 86.3889 53.5933   1
   0   5   1 67451.5 1767.81   4
   0  -5   1 58598.9 1574.80   1
   0   5   2 35.6906 82.9780   4
   0  -5   2 50.4815 75.6830   1
   0  -5   3 49957.2 1457.07   1
   0   5   3 50738.3 1510.08   4
   0  -5   3 49401.4 1474.99   2
   0  -5   4-5.33579 72.4617   1
   0  -5   4-17.5052 65.1954   2
   0   5   4-44.4262 88.6761   4
   0   5   5 21016.9 848.620   4
   0  -5   5 20313.8 844.563   2
   0  -5   5 20186.4 873.103   1
   0  -5   6 7.46431 78.1826   2
   0   5   6 57.4386 88.8162   4
   0  -5   6 6.05146 105.223   1
   0   5   7 14967.4 722.163   4
   0  -5   7 14993.3 800.592   1
   0  -5   7 14382.3 738.887   2
   0   5   8 101.425 107.547   4
   0  -5   8-48.4608 124.878   2
   0  -5   8-149.800 127.699   1
   0  -5   9 29942.9 1305.41   1
   0   5   9 30235.4 1213.41   4
   0  -5   9 30249.7 1228.88   2
   0  -5  10-198.988 156.385   1
   0  -5  10-50.2028 142.597   2
   0  -5  11 20004.4 1107.74   1
   0  -5  11 18745.4 1016.86   2
   0  -5  12 99.3725 125.407   1
   0  -5  12-63.6095 132.597   2
   0  -5  13 6591.07 669.045   1
   0  -5  13 7219.39 617.707   2
   0  -5  14 227.498 135.775   2
   0  -5  14-12.1325 145.366   1
   0  -5  15 3729.65 556.992   1
   0  -5  15 3430.35 422.242   2
   0  -5  16-427.132 245.186   1
   0  -5  17 1085.46 299.971   1
   0   6 -17 253.975 244.519   4
   0   6 -12 182.497 153.688   4
   0   6 -11-37.4217 163.374   4
   0  -6 -10 4748.27 529.959   3
   0   6 -10 3738.78 430.528   4
   0   6  -9 135.424 158.306   4
   0  -6  -9-72.7662 141.631   3
   0   6  -8 1345.59 251.570   4
   0  -6  -8 1541.84 293.127   3
   0   6  -7-36.8083 93.6116   4
   0  -6  -7-77.9754 98.6386   3
   0  -6  -6 803.634 220.179   3
   0   6  -6 714.201 186.638   4
   0  -6  -5 9.47872 94.0811   3
   0   6  -5-72.4224 95.5622   4
   0   6  -4-182.652 122.747   4
   0  -6  -3-1.42387 16.2101   1
   0   6  -3 82.8272 85.2654   4
   0   6  -2 238.676 122.227   4
   0  -6  -2 116.584 36.1117   1
   0  -6  -1-0.39309 43.3493   1
   0   6  -1 16.1176 82.6949   4
   0  -6   0 11713.3 484.316   1
   0   6   0 10943.2 619.652   4
   0   6   1-55.3013 99.7540   4
   0  -6   1-14.5258 54.8214   1
   0  -6   2 128.917 68.9743   1
   0   6   2 60.0049 83.6249   4
   0   6   3 66.2320 101.621   4
   0  -6   3-35.9111 76.1927   2
   0  -6   3-39.9995 73.0381   1
   0  -6   4-28.0128 91.0636   2
   0  -6   4 147.575 92.8363   1
   0   6   4 49.4625 94.3277   4
   0  -6   5-1.42735 113.495   1
   0   6   5-41.7051 90.2397   4
   0  -6   5 51.2683 97.2467   2
   0   6   6 726.720 156.719   4
   0  -6   6 903.699 198.733   2
   0  -6   6 765.908 191.643   1
   0   6   7-4.67317 101.994   4
   0  -6   7-150.264 150.620   1
   0  -6   7 26.1744 89.0308   2
   0  -6   8 1210.17 220.873   2
   0   6   8 1333.89 221.019   4
   0  -6   8 1932.63 314.925   1
   0  -6   9 269.377 179.539   1
   0   6   9 50.7003 109.693   4
   0  -6   9-60.9604 130.638   2
   0  -6  10 4049.67 451.528   2
   0   6  10 5435.99 486.380   4
   0  -6  10 5029.86 532.911   1
   0  -6  11 435.687 199.300   1
   0  -6  11-256.695 191.687   2
   0  -6  12-307.231 195.987   2
   0  -6  12-77.6117 193.211   1
   0  -6  13 176.659 189.855   1
   0  -6  13 46.8002 163.526   2
   0  -6  14 700.085 210.478   2
   0  -6  14 589.497 264.918   1
   0  -6  15-27.2069 153.189   1
   0  -6  15-107.292 153.026   2
   0  -6  16 1114.61 348.101   1
   0   7 -17 176.824 177.146   4
   0   7 -16-158.735 220.618   4
   0   7 -15 760.253 286.118   4
   0   7 -14-34.8626 192.580   4
   0   7 -13-214.964 211.195   4
   0   7 -12-221.093 214.282   4
   0  -7 -11 821.994 267.527   3
   0   7 -11 376.346 145.425   4
   0  -7 -10-205.830 218.856   3
   0   7 -10-201.493 166.327   4
   0  -7  -9 112.443 149.500   3
   0   7  -9 59.6763 137.517   4
   0  -7  -8 36.0685 151.662   3
   0   7  -8 97.2692 126.509   4
   0  -7  -7 1091.62 247.577   3
   0   7  -7 764.661 205.076   4
   0  -7  -6 13.8641 103.012   3
   0   7  -6-17.0957 108.974   4
   0  -7  -5 133.316 131.351   3
   0   7  -5 52.7272 104.427   4
   0   7  -4-149.448 121.694   4
   0   7  -3 2017.71 291.125   4
   0  -7  -3 2132.04 129.828   1
   0  -7  -2 22.7552 40.9587   1
   0   7  -2 144.526 94.1969   4
   0   7  -1 5634.19 464.090   4
   0  -7  -1 5052.47 293.465   1
   0  -7   0 26.4831 58.7039   1
   0   7   0 61.8019 117.352   4
   0   7   1 5194.86 444.790   4
   0  -7   1 5575.09 368.123   1
   0  -7   2 32.6889 61.9629   1
   0   7   2 64.3290 101.936   4
   0   7   3 2161.55 292.736   4
   0  -7   3 2715.91 324.554   2
   0  -7   3 2385.87 273.286   1
   0  -7   4 132.706 123.280   2
   0  -7   4 54.4746 95.5474   1
   0   7   4 81.6374 88.5224   4
   0  -7   5 190.226 131.715   1
   0   7   5 76.0495 112.092   4
   0  -7   5 242.872 122.275   2
   0  -7   6 11.5731 102.337   2
   0   7   6-95.4246 94.4943   4
   0  -7   6-28.4712 106.324   1
   0  -7   7 778.988 212.207   1
   0   7   7 635.692 172.531   4
   0  -7   7 804.792 194.699   2
   0   7   8 145.672 121.338   4
   0  -7   8 34.3562 94.7409   2
   0  -7   8 112.315 121.082   1
   0   7   9-99.5263 135.939   4
   0  -7   9 59.3078 122.265   1
   0  -7   9 119.746 147.982   2
   0   7  10 99.3159 124.823   4
   0  -7  10-184.943 186.133   1
   0  -7  10 12.8199 118.508   2
   0   7  11 937.408 244.195   4
   0  -7  11 673.633 219.401   2
   0  -7  11 575.408 238.925   1
   0  -7  12 253.869 203.309   1
   0  -7  12-24.9569 145.441   2
   0  -7  13-362.884 263.268   2
   0  -7  13-133.946 212.612   1
   0  -7  14-131.421 193.414   1
   0  -7  14-57.4683 190.844   2
   0  -7  15 1232.93 318.834   2
   0  -7  15 1170.55 343.699   1
   0  -7  16-60.8754 191.301   1
   0   8 -16 652.442 293.094   4
   0   8 -15 478.016 292.213   4
   0   8 -14 128.571 212.991   4
   0   8 -13 156.778 233.318   4
   0   8 -12 1626.64 333.266   4
   0  -8 -11 38.5618 167.498   3
   0   8 -11 271.344 196.359   4
   0   8 -10 257.871 166.244   4
   0  -8 -10-75.9546 171.997   3
   0  -8  -9 90.6176 132.592   3
   0   8  -9 71.1058 156.431   4
   0   8  -8 69.4370 113.046   4
   0  -8  -8 105.105 159.869   3
   0   8  -7 204.647 164.980   4
   0  -8  -7-42.4905 110.702   3
   0   8  -6 3650.64 418.359   4
   0  -8  -6 3853.11 448.766   3
   0  -8  -5 192.943 145.795   3
   0   8  -5 77.4048 126.979   4
   0   8  -4 362.991 171.849   4
   0   8  -3-158.354 133.853   4
   0  -8  -2 3252.78 216.457   1
   0   8  -2 2792.15 362.097   4
   0  -8  -1 11.4293 49.8621   1
   0   8  -1-21.0945 104.086   4
   0   8   0 1578.53 284.543   4
   0  -8   0 1905.11 211.338   1
   0   8   1 128.825 138.793   4
   0  -8   1-39.9749 72.2072   1
   0  -8   2 3269.25 321.386   1
   0   8   2 2884.94 365.218   4
   0  -8   2 2939.42 341.295   2
   0   8   3 52.4378 116.275   4
   0  -8   3 11.8255 82.4258   1
   0  -8   3-60.2146 103.353   2
   0  -8   4 244.154 127.848   1
   0   8   4 100.213 134.390   4
   0  -8   4 442.235 196.723   2
   0  -8   5-114.037 134.209   1
   0  -8   5 54.2781 128.475   2
   0   8   5-172.474 141.709   4
   0   8   6 3559.58 413.111   4
   0  -8   6 4532.71 465.556   2
   0  -8   6 4166.39 445.872   1
   0  -8   7-74.0145 171.143   1
   0  -8   7-38.0237 131.505   2
   0   8   7-123.414 175.829   4
   0  -8   8 234.682 190.362   2
   0   8   8 6.20451 115.452   4
   0  -8   8-151.658 186.943   1
   0   8   9-14.9914 111.006   4
   0  -8   9-2.18371 167.867   1
   0  -8   9-70.3344 135.135   2
   0  -8  10 172.478 174.294   2
   0  -8  10-110.818 204.340   1
   0   8  10-94.1949 141.220   4
   0  -8  11-16.3340 173.959   2
   0   8  11 352.090 206.669   4
   0  -8  11-127.163 195.393   1
   0  -8  12 1659.16 355.156   2
   0   8  12 1935.66 352.414   4
   0  -8  12 1719.61 398.593   1
   0  -8  13-127.321 202.124   1
   0  -8  13-197.447 219.418   2
   0  -8  14 109.471 193.255   2
   0  -8  14-123.902 209.695   1
   0  -8  15 57.3275 187.059   1
   0  -8  15-435.619 267.670   2
   0   9 -15 4335.76 658.216   4
   0   9 -14-283.466 257.742   4
   0   9 -13 10400.9 945.024   4
   0  -9 -12-61.0760 157.262   3
   0   9 -12-76.3723 176.143   4
   0  -9 -11 8206.32 808.540   3
   0   9 -11 8296.81 772.878   4
   0  -9 -10 64.1344 149.816   3
   0   9 -10 34.7895 175.927   4
   0  -9  -9 26374.1 1409.82   3
   0   9  -9 25819.7 1343.25   4
   0   9  -8-4.56025 141.972   4
   0  -9  -8 64.4304 166.409   3
   0  -9  -7 7776.29 693.673   3
   0   9  -7 8380.97 690.803   4
   0  -9  -6-31.5765 126.790   3
   0   9  -6-61.8361 155.891   4
   0   9  -5 21298.9 1132.45   4
   0  -9  -5 21950.1 1150.64   3
   0   9  -4 3.75109 143.200   4
   0   9  -3 23395.1 1175.32   4
   0  -9  -2 1.94258 40.5779   1
   0   9  -2-134.729 145.681   4
   0   9  -1 51744.8 1882.72   4
   0  -9  -1 50703.6 1406.44   1
   0   9   0 110.869 126.234   4
   0  -9   0-52.5184 74.7025   1
   0  -9   1 47849.1 1499.51   1
   0   9   1 49804.9 1814.62   4
   0  -9   2-144.615 117.203   1
   0  -9   2 249.241 161.994   2
   0   9   2 58.7832 125.802   4
   0   9   3 22321.4 1142.17   4
   0  -9   3 21238.1 1063.99   2
   0  -9   3 23358.7 1023.62   1
   0  -9   4-171.907 147.959   1
   0  -9   4 13.9971 101.810   2
   0   9   4-49.1499 124.250   4
   0  -9   5 24037.6 1134.57   1
   0   9   5 22673.2 1150.50   4
   0  -9   5 23554.1 1136.94   2
   0   9   6 227.524 176.843   4
   0  -9   6 70.1101 129.599   2
   0  -9   6-128.499 145.042   1
   0   9   7 6974.69 610.834   4
   0  -9   7 8217.41 687.020   1
   0  -9   7 7382.93 641.515   2
   0  -9   8 71.4400 152.717   1
   0   9   8 304.764 179.781   4
   0  -9   8-66.4331 122.166   2
   0  -9   9 28276.9 1442.79   1
   0  -9   9 26948.7 1353.71   2
   0   9   9 27051.6 1291.54   4
   0  -9  10-293.638 238.129   2
   0   9  10-60.4110 151.900   4
   0  -9  10-7.69273 145.684   1
   0  -9  11 8689.02 820.556   1
   0   9  11 6624.00 735.603   4
   0  -9  11 9068.68 789.510   2
   0  -9  12-171.916 227.732   2
   0   9  12 95.3615 177.649   4
   0  -9  12 130.216 196.763   1
   0  -9  13 9446.00 895.430   2
   0  -9  13 11129.3 993.976   1
   0  -9  14-506.515 300.432   2
   0  -9  14-207.618 216.285   1
   0  -9  15 5389.29 674.302   2
   0  10 -14-96.5567 178.538   4
   0  10 -13 70.5300 177.234   4
   0  10 -12 1046.72 317.351   4
   0 -10 -12 1357.61 382.039   3
   0 -10 -11 74.3874 204.340   3
   0  10 -11 107.340 146.034   4
   0 -10 -10 1968.46 401.049   3
   0  10 -10 1600.51 372.965   4
   0  10  -9 264.027 220.945   4
   0 -10  -9-179.452 205.114   3
   0 -10  -8 5045.60 597.254   3
   0  10  -8 3848.10 508.589   4
   0 -10  -7-13.0496 166.459   3
   0  10  -7-82.7235 160.805   4
   0  10  -6 6171.85 629.672   4
   0 -10  -6 5908.53 609.458   3
   0  10  -5 113.337 183.415   4
   0 -10  -5 189.039 176.652   3
   0  10  -4 5826.62 596.470   4
   0  10  -3-284.278 217.358   4
   0  10  -2 9871.46 766.257   4
   0  10  -1-84.6016 171.276   4
   0 -10   0-8.75630 64.9253   1
   0  10   0 45.0003 139.927   4
   0 -10   1 142.880 92.8368   1
   0 -10   1 130.337 133.937   2
   0  10   1 29.2311 145.003   4
   0  10   2 11463.7 831.735   4
   0 -10   2 9670.64 706.744   2
   0 -10   2 9575.83 612.153   1
   0 -10   3 9.10789 93.7483   1
   0 -10   3 88.3029 107.219   2
   0  10   3 100.010 142.410   4
   0 -10   4 5429.09 541.654   2
   0  10   4 5334.48 567.101   4
   0 -10   4 6221.72 539.284   1
   0  10   5 69.9253 152.865   4
   0 -10   5 50.4409 143.394   2
   0 -10   5-16.3272 118.426   1
   0 -10   6 5977.47 593.839   2
   0 -10   6 6795.79 624.115   1
   0  10   6 6200.85 606.259   4
   0 -10   7 349.852 205.427   2
   0  10   7-74.4104 133.389   4
   0 -10   7-7.94731 150.894   1
   0  10   8 5199.81 556.784   4
   0 -10   8 4362.70 520.599   2
   0 -10   8 4422.99 552.882   1
   0 -10   9-282.371 154.708   2
   0  10   9-186.384 186.699   4
   0 -10  10 2005.25 396.369   2
   0  10  10 1862.78 359.880   4
   0 -10  10 1246.71 314.268   1
   0 -10  11 83.1328 230.415   1
   0 -10  11 40.5397 193.751   2
   0  10  11-16.4794 160.251   4
   0 -10  12 739.148 216.725   2
   0  10  12 1214.42 320.432   4
   0 -10  12 976.395 332.040   1
   0 -10  13-212.306 243.011   2
   0 -10  13 28.1912 194.075   1
   0  10  13-235.623 188.323   4
   0 -10  14-184.429 209.304   2
   0 -10  15-495.869 323.505   2
   0  11 -12-515.536 307.633   4
   0 -11 -11 2293.61 448.341   3
   0  11 -11 2345.40 428.447   4
   0 -11 -10-291.211 200.660   3
   0  11 -10-85.5589 184.678   4
   0  11  -9 1777.33 410.209   4
   0 -11  -9 1556.17 380.435   3
   0  11  -8-405.877 243.781   4
   0 -11  -8 269.023 210.506   3
   0  11  -7 220.758 194.754   4
   0 -11  -7 212.446 224.017   3
   0  11  -6-59.3823 172.931   4
   0 -11  -6 14.8455 169.288   3
   0 -11  -5 34.5370 153.253   3
   0  11  -5 240.023 192.717   4
   0  11  -4-383.455 253.488   4
   0  11  -3 3913.40 523.407   4
   0  11  -2 281.167 216.253   4
   0 -11  -1 590.143 186.638   2
   0  11  -1 346.370 166.387   4
   0 -11   0-122.383 169.155   2
   0  11   0-377.376 238.492   4
   0  11   1 422.030 192.399   4
   0 -11   1 843.541 238.744   2
   0  11   2-40.9768 170.216   4
   0 -11   2 26.8453 79.9305   1
   0 -11   3 4172.28 491.097   2
   0  11   3 3529.59 493.974   4
   0 -11   3 3799.01 404.637   1
   0 -11   4 235.296 165.344   2
   0  11   4 110.339 123.478   4
   0 -11   4 92.0798 105.701   1
   0 -11   5 209.120 196.161   2
   0  11   5-172.733 205.902   4
   0 -11   5 160.210 120.731   1
   0  11   6 264.249 198.139   4
   0 -11   6-48.3354 170.936   2
   0 -11   6-132.321 181.049   1
   0 -11   7 149.139 131.356   1
   0  11   7 278.422 229.912   4
   0 -11   7 63.7014 148.253   2
   0 -11   8 295.256 220.181   1
   0  11   8 456.513 242.840   4
   0 -11   8 147.707 172.351   2
   0  11   9 1913.61 373.473   4
   0 -11   9 2220.59 428.952   2
   0 -11   9 1484.87 361.074   1
   0 -11  10-343.630 229.263   2
   0  11  10 112.125 171.045   4
   0 -11  10 142.843 230.077   1
   0 -11  11 1777.65 385.231   2
   0  11  11 1835.68 419.793   4
   0 -11  11 2133.61 453.095   1
   0  11  12-20.8251 179.453   4
   0 -11  12 133.976 198.003   2
   0 -11  12 367.329 292.697   1
   0  11  13 341.733 240.384   4
   0 -11  13-40.3176 215.929   2
   0  12 -10 1244.76 352.485   4
   0 -12 -10 1761.79 402.788   3
   0 -12  -9-62.3143 180.021   3
   0  12  -9-123.474 256.180   4
   0 -12  -8 1230.39 352.480   3
   0  12  -8 1178.66 333.764   4
   0 -12  -7 108.018 162.123   3
   0  12  -7-33.5551 209.067   4
   0  12  -6 225.744 210.677   4
   0 -12  -6-283.983 237.493   3
   0  12  -5 325.648 253.375   4
   0 -12  -5-42.0892 123.377   3
   0  12  -4 461.385 246.740   4
   0 -12  -3-33.5669 117.322   2
   0  12  -3 117.278 229.139   4
   0 -12  -2 3783.17 470.758   2
   0  12  -2 3030.39 476.662   4
   0  12  -1 135.518 221.910   4
   0 -12  -1 259.724 204.423   2
   0  12   0 4986.62 624.045   4
   0 -12   0 5527.59 573.202   2
   0 -12   1 36.1169 168.389   2
   0  12   1 141.191 180.845   4
   0  12   2 3414.60 508.743   4
   0 -12   2 3878.43 511.164   2
   0 -12   3 25.1049 123.118   2
   0  12   3 123.278 148.262   4
   0 -12   4 717.246 261.169   2
   0 -12   4 712.057 228.834   1
   0  12   4 352.172 215.176   4
   0 -12   5 147.444 191.350   2
   0 -12   5-62.2928 148.416   1
   0  12   5-67.5772 159.343   4
   0 -12   6 76.2915 147.011   1
   0 -12   6 397.516 205.014   2
   0  12   6-84.9036 160.402   4
   0 -12   7 80.9092 186.472   2
   0 -12   7-269.871 223.879   1
   0  12   7-166.391 175.456   4
   0 -12   8 1183.44 303.140   1
   0 -12   8 1078.93 320.757   2
   0  12   8 1250.76 302.414   4
   0 -12   9-199.638 179.712   1
   0  12   9 78.3478 152.284   4
   0 -12   9-232.925 200.156   2
   0 -12  10 2312.87 467.413   1
   0  12  10 2247.56 425.869   4
   0 -12  10 1755.74 392.128   2
   0  12  11-134.283 192.700   4
   0 -12  11 19.5131 200.262   1
   0 -13  -8 132.922 182.862   3
   0  13  -7 10271.5 980.130   4
   0 -13  -7 10436.1 938.643   3
   0 -13  -6 120.123 156.338   3
   0 -13  -6 0.59841 145.155   2
   0  13  -6 482.737 249.883   4
   0 -13  -5 8691.40 825.076   3
   0 -13  -5 8512.81 733.318   2
   0  13  -5 9254.86 894.370   4
   0 -13  -4-116.751 176.642   3
   0  13  -4 158.229 198.592   4
   0 -13  -4 146.298 143.717   2
   0 -13  -3 5457.34 581.238   2
   0  13  -3 5243.90 675.998   4
   0  13  -2-61.1396 174.446   4
   0 -13  -2 58.6856 156.833   2
   0 -13  -1 11123.2 847.287   2
   0  13  -1 11118.9 966.284   4
   0  13   0 27.7314 172.221   4
   0 -13   0 9.63141 160.445   2
   0  13   1 12197.9 1019.33   4
   0 -13   1 10812.6 866.584   2
   0 -13   2-13.8951 166.319   2
   0  13   2-305.790 239.053   4
   0 -13   3 5264.45 615.252   2
   0  13   3 6877.20 754.428   4
   0  13   4 81.7525 181.786   4
   0 -13   4 53.2961 192.829   2
   0  13   5 8809.78 856.008   4
   0 -13   5 9308.92 842.643   2
   0  13   6-5.00370 220.513   4
   0 -13   6 291.919 242.552   2
   0 -13   7 10506.1 922.454   1
   0  13   7 11987.2 992.962   4
   0 -13   7 11643.3 976.304   2
   0 -13   8 197.779 156.352   1
   0  13   8-463.454 266.080   4
   0 -13   9 2279.78 461.527   1
   0  13   9 3689.51 552.799   4
   0 -13  10 180.093 217.627   1
   0 -14  -5 389.704 212.047   2
   0 -14  -5-178.438 197.626   3
   0 -14  -4 6974.00 690.687   2
   0 -14  -4 6265.60 687.920   3
   0 -14  -3 55.2602 142.840   2
   0  14  -3-129.049 240.861   4
   0 -14  -2 11437.3 898.267   2
   0  14  -2 11670.6 1044.18   4
   0  14  -1 411.242 308.776   4
   0 -14  -1-63.2626 160.161   2
   0  14   0 17242.4 1284.24   4
   0 -14   0 15593.9 1084.32   2
   0 -14   1 178.188 185.200   2
   0  14   1-334.930 251.594   4
   0 -14   2 11597.5 949.412   2
   0  14   2 14196.0 1153.85   4
   0  14   3 94.6926 198.351   4
   0 -14   3 189.459 241.125   2
   0  14   4 7382.83 828.806   4
   1   0  -8-100.976 88.5543   2
   1   0  -7-2.43955 69.3190   2
   1   0  -6-21.9159 54.4225   2
  -1   0  -5 45.4632 46.2147   1
   1   0  -5-27.9993 40.2089   2
   1   0  -4 75.7178 52.9151   2
  -1   0  -4-4.41494 35.8802   1
  -1   0  -3 12.9314 36.4041   3
   1   0  -3-17.2577 37.2928   2
  -1   0  -3-3.89965 41.0223   1
   1   0  -2 25.8955 26.0303   2
  -1   0  -2 6.33656 19.0954   3
  -1   0   2-21.0628 22.6207   2
   1   0   3 3.61072 34.2919   3
  -1   0   3 34.2653 39.0354   2
  -1   0   4 35.2626 38.8136   2
   1   0   4 57.2120 34.7941   3
   1   0   4 36.1640 20.6607   2
   1   0   4-44.1276 49.0477   1
   1   0   5-11.5104 24.2470   2
   1   0   5-32.2275 50.8593   1
  -1   0   5-37.8340 40.2678   2
   1   0   5-19.1725 45.5330   3
   1   0   6 33.5694 41.8329   3
   1   0   6-36.5522 65.8596   1
  -1   0   6 76.3233 72.6975   1
   1   0   6 26.0311 30.5061   2
  -1   0   6 43.7080 40.1872   2
  -1   0   7 65.4549 58.7663   2
   1   0   7 4.10716 63.0052   1
   1   0   7 47.7982 33.4718   2
  -1   0   7 156.663 83.0659   1
  -1   0   8-160.729 88.0980   1
  -1   0   8-4.22826 51.0476   2
   1   0   8-28.3572 34.9547   2
   1   0   8 27.6241 72.6127   1
   1   0   9 27.7108 32.4314   2
   1   0   9-151.411 111.380   1
  -1   0   9-11.4664 89.1238   1
  -1   0   9 111.368 88.2112   2
   1   0  10 50.3084 38.7441   2
  -1   0  10 119.826 122.413   1
  -1   0  10-54.7000 57.8530   2
   1   0  10-61.7628 101.024   1
  -1   0  11 34.2832 76.2001   2
   1   0  11-2.24978 34.8302   2
   1   0  11-29.1048 100.077   1
  -1   0  11 35.7897 109.517   1
   1   0  12-53.3132 119.956   1
   1   0  12-43.8323 42.8632   2
  -1   0  12 35.3541 103.115   1
  -1   0  12 57.3653 81.7994   2
  -1   0  13-115.206 130.683   1
  -1   0  13 89.6060 85.9326   2
   1   0  13 244.023 157.888   1
  -1   0  14 85.2974 110.416   2
   1   0  14-265.989 165.964   1
  -1   0  14-2.31435 120.076   1
  -1   0  15-538.339 211.978   1
   1   0  15 68.9611 145.157   1
  -1   0  16-35.6281 160.411   1
  -1   0  17-97.0407 188.201   1
  -1   0  18 57.7248 164.100   1
   1  -1  -8 2123.43 216.062   2
  -1  -1  -8 1881.35 117.224   2
   1  -1  -7 20578.0 696.246   2
  -1  -1  -7 18844.3 722.297   4
  -1  -1  -7 19149.3 498.165   2
  -1  -1  -6 1993.58 183.973   1
   1  -1  -6 2319.01 183.461   2
  -1  -1  -6 1589.05 171.162   4
   1   1  -6 1509.35 198.067   2
   1  -1  -5 12797.4 453.059   2
  -1   1  -5 12651.3 528.951   1
   1   1  -5 12162.7 574.495   2
  -1  -1  -5 12967.6 485.928   1
   1  -1  -5 9713.96 510.245   4
  -1  -1  -5 13193.7 538.519   3
  -1  -1  -5 13258.3 452.096   4
  -1  -1  -4 30562.6 832.301   1
   1  -1  -4 30617.4 868.581   4
   1   1  -4 26984.6 943.131   2
  -1  -1  -4 29332.2 872.545   3
   1  -1  -4 29279.7 790.004   2
  -1   1  -4 29541.7 893.229   1
  -1  -1  -4 31218.9 785.967   4
  -1  -1  -3 88919.2 1912.56   4
   1  -1  -3 89189.4 1952.02   2
   1   1  -3 85632.9 2130.25   2
  -1  -1  -3 87057.0 1973.22   1
  -1  -1  -3 86434.1 2009.11   3
  -1   1  -3 91023.5 2051.15   1
   1  -1  -3 87945.3 2009.06   4
   1  -1  -2 26381.7 704.208   4
  -1   1  -2 26489.7 635.969   4
  -1   1  -2 27778.1 737.282   1
   1  -1  -2 26840.8 688.592   2
  -1  -1  -2 24465.9 619.685   4
   1   1  -2 23502.8 778.001   2
  -1   1  -1 13513.9 371.833   4
  -1  -1  -1 13497.8 344.208   4
   1  -1  -1 13243.2 402.706   4
   1   1  -1 12660.9 461.130   2
   1  -1  -1 13860.1 415.609   2
  -1  -1  -1 12046.6 384.331   2
   1   1   0 99352.3 2292.43   2
  -1   1   0 112312. 2257.42   4
   1  -1   0 114435. 2261.12   4
  -1   1   1 14486.0 417.952   3
   1   1   1 13912.6 385.957   2
  -1  -1   1 11796.2 462.357   2
   1   1   1 14209.3 362.465   4
   1  -1   1 14172.4 377.867   4
  -1   1   1 13620.3 416.190   4
  -1   1   2 24510.8 692.612   4
   1  -1   2 25114.3 724.501   1
   1   1   2 27926.9 621.350   4
  -1   1   2 25209.8 681.863   2
  -1  -1   2 22850.3 753.516   2
  -1   1   3 87811.7 1974.24   2
   1  -1   3 88049.8 2069.80   1
   1   1   3 89825.9 1909.65   4
  -1  -1   3 87796.2 2102.79   2
  -1   1   4 27262.2 758.573   2
   1  -1   4 27807.7 867.109   1
   1  -1   4 28189.2 728.937   2
  -1  -1   4 27489.2 866.443   2
   1   1   5 12058.6 491.705   3
  -1  -1   5 12105.8 513.962   2
   1  -1   5 11622.5 534.719   1
  -1   1   5 12169.3 441.502   2
   1  -1   5 12259.7 420.629   2
  -1   1   6 1645.58 165.739   1
   1   1   6 1670.44 174.679   1
   1  -1   6 1600.40 201.977   1
  -1  -1   6 1569.63 187.302   1
  -1   1   6 1582.64 148.263   2
   1  -1   6 1611.51 147.183   2
  -1  -1   6 1894.80 190.774   2
  -1   1   7 18971.7 646.924   2
  -1  -1   7 20190.8 734.226   2
   1  -1   7 17842.1 664.002   2
   1   1   7 20117.4 497.370   2
  -1  -1   7 18899.9 780.129   1
   1   1   7 20430.8 745.962   1
   1  -1   7 19170.6 808.598   1
  -1   1   7 19811.5 719.082   1
  -1   1   8 2016.48 183.820   2
  -1  -1   8 2237.98 226.944   2
  -1  -1   8 1761.55 235.436   1
   1   1   8 1974.82 117.606   2
   1  -1   8 1579.85 175.106   2
   1   1   8 1640.83 207.352   1
  -1   1   8 2080.63 220.101   1
   1  -1   8 1742.87 237.983   1
   1   1   9 18956.1 817.314   1
  -1  -1   9 20574.1 776.254   2
  -1  -1   9 20669.1 899.037   1
   1  -1   9 20953.3 714.754   2
   1  -1   9 20420.3 920.504   1
  -1   1   9 18848.1 698.557   2
   1   1   9 20502.1 557.766   2
  -1   1   9 20908.3 823.029   1
  -1   1  10 24655.5 838.939   2
   1  -1  10 24204.6 1073.38   1
  -1  -1  10 23376.3 1024.49   1
  -1   1  10 23650.4 951.453   1
  -1  -1  10 25200.4 892.431   2
   1  -1  10 24235.5 797.629   2
   1   1  10 24917.2 668.298   2
   1   1  10 23856.1 972.462   1
   1  -1  11 9178.66 430.039   2
  -1  -1  11 8586.76 483.885   2
  -1  -1  11 8411.81 597.916   1
  -1   1  11 8768.06 463.049   2
   1   1  11 8088.18 549.122   1
   1   1  11 8961.02 338.922   2
   1  -1  11 8664.72 628.847   1
  -1   1  11 8513.47 555.312   1
   1   1  12 12679.1 437.414   2
  -1   1  12 12175.0 706.637   1
  -1  -1  12 11788.0 752.547   1
   1   1  12 12173.7 723.632   1
   1  -1  12 11719.9 783.041   1
   1  -1  12 12819.9 529.330   2
  -1   1  12 13463.3 607.172   2
  -1  -1  12 12722.5 618.957   2
  -1   1  13 2102.51 305.233   1
   1  -1  13 1890.13 323.513   1
  -1  -1  13 2220.15 251.124   2
   1   1  13 2239.62 317.650   1
  -1  -1  13 2235.05 332.162   1
   1  -1  13 2416.94 213.347   2
  -1   1  13 2071.28 235.357   2
  -1  -1  14 1932.05 239.103   2
  -1  -1  14 1302.84 285.902   1
  -1   1  14 1372.84 265.272   1
   1  -1  14 1085.06 277.211   1
   1  -1  15 3074.69 449.474   1
  -1   1  15 3920.79 450.087   1
  -1  -1  15 3704.79 468.786   1
  -1   1  16 266.457 124.689   1
  -1  -1  16 491.503 222.766   1
   1  -1  16 105.426 166.707   1
  -1   1  17 6257.69 623.172   1
  -1  -1  17 6531.57 680.899   1
  -1  -1  18 1489.09 345.090   1
  -1  -1  19 440.067 235.355   1
  -1  -2 -10 3828.92 171.005   2
  -1  -2  -9 31.7732 20.0079   2
   1  -2  -9 103.861 54.8111   2
  -1  -2  -8 141.832 35.2383   2
   1  -2  -8 177.802 61.5334   2
  -1  -2  -7 6211.77 438.872   3
  -1  -2  -7 6579.56 240.777   2
  -1  -2  -7 6416.82 345.988   1
   1  -2  -7 6810.65 335.688   2
   1  -2  -6 8828.49 376.805   2
  -1  -2  -6 9467.78 424.486   4
  -1  -2  -6 8651.37 384.568   1
  -1  -2  -6 9518.98 509.227   3
  -1  -2  -6 8479.56 258.252   2
   1   2  -5 494.234 114.854   2
  -1  -2  -5 490.812 83.6941   4
  -1  -2  -5 392.684 41.6027   2
  -1  -2  -5 554.088 84.7125   1
  -1  -2  -5 489.869 114.784   3
   1  -2  -5 500.248 80.2367   2
  -1  -2  -4 47412.8 1150.70   1
   1  -2  -4 49025.0 1276.62   4
  -1  -2  -4 45784.4 1294.74   3
  -1  -2  -4 44596.0 1178.47   4
   1   2  -4 45312.8 1334.89   2
  -1   2  -4 47887.8 1290.59   1
   1  -2  -4 45854.0 1181.23   2
   1  -2  -3 21313.0 646.168   2
  -1   2  -3 21508.5 693.470   1
   1  -2  -3 19597.6 674.627   4
   1   2  -3 21199.3 742.320   2
   1  -2  -3 18553.0 682.134   3
  -1  -2  -3 22802.7 642.614   4
  -1   2  -3 20781.7 626.447   4
  -1   2  -2 918.068 107.718   1
   1   2  -2 1063.35 135.213   2
  -1  -2  -2 817.864 93.4606   4
  -1   2  -2 991.901 101.391   4
  -1  -2  -2 909.759 81.2409   2
   1  -2  -2 1026.86 121.469   3
   1  -2  -2 901.560 115.227   4
   1  -2  -1 863.954 106.126   4
  -1  -2  -1 742.534 84.6542   4
  -1  -2  -1 887.723 91.8810   2
  -1   2  -1 977.107 103.851   1
   1   2  -1 1042.85 117.224   2
  -1   2  -1 949.987 103.173   4
   1  -2  -1 852.997 97.9031   3
  -1   2   0 339.912 74.6708   4
   1  -2   0 281.975 64.3111   4
  -1  -2   0 353.908 73.2211   2
  -1  -2   0 336.834 61.2293   4
  -1   2   0 287.485 46.7546   1
   1   2   0 349.843 68.2143   4
   1   2   0 445.212 70.3430   2
   1   2   1 818.729 94.6674   4
   1  -2   1 890.889 93.2142   4
  -1  -2   1 936.311 114.417   2
  -1   2   1 887.717 109.379   4
   1  -2   1 870.086 99.3770   1
   1  -2   2 925.125 101.248   4
  -1   2   2 938.904 111.423   3
  -1  -2   2 974.224 131.806   2
   1  -2   2 1020.50 126.051   1
   1   2   2 956.697 99.1378   4
  -1   2   2 925.976 114.818   4
  -1   2   3 20004.7 668.472   4
  -1  -2   3 21458.3 750.744   2
   1  -2   3 21194.5 711.274   1
  -1   2   3 22643.4 710.527   3
   1   2   3 19259.5 597.615   4
  -1  -2   4 42768.9 1325.97   2
   1   2   4 45055.7 1142.10   4
   1  -2   4 44105.9 1277.65   1
  -1   2   4 49392.8 1288.82   3
  -1   2   4 44152.7 1242.09   4
  -1  -2   5 168.682 96.9727   2
   1  -2   5 616.948 98.2570   2
  -1   2   5 624.477 123.422   4
   1  -2   5 421.751 123.148   1
   1   2   5 379.627 75.8339   4
   1  -2   6 8738.42 507.512   1
  -1  -2   6 8448.85 498.113   2
  -1  -2   6 8398.23 476.897   1
  -1   2   6 9019.76 379.977   1
   1  -2   6 8622.21 399.214   2
  -1   2   6 7754.66 378.814   2
  -1  -2   7 5935.55 423.912   1
  -1  -2   7 6425.45 428.413   2
   1  -2   7 5752.73 430.872   1
   1  -2   7 6381.89 359.389   2
  -1   2   7 6758.37 346.174   1
  -1   2   7 5749.16 322.335   2
  -1  -2   8 94.3396 72.7300   2
   1  -2   8 96.8842 60.8810   2
  -1   2   8 71.4827 62.5142   1
  -1  -2   8-51.0516 85.5142   1
   1  -2   8 17.5735 79.1820   1
  -1   2   8 124.571 63.5958   2
  -1   2   9 40.4182 67.4532   1
   1  -2   9 44.1960 68.1149   2
  -1  -2   9 100.818 103.894   2
   1  -2   9 25.2133 93.2821   1
  -1   2   9 79.7420 58.6361   2
  -1  -2   9 156.236 123.269   1
  -1   2  10 5151.85 333.360   2
  -1   2  10 4829.06 363.383   1
  -1  -2  10 5380.34 399.458   2
   1  -2  10 4749.76 462.398   1
   1  -2  10 4566.86 359.750   2
  -1  -2  10 4608.07 435.770   1
  -1  -2  11 449.130 164.636   1
   1  -2  11 529.211 186.039   1
   1  -2  11 685.962 139.442   2
  -1   2  11 499.147 114.251   2
  -1   2  11 580.823 147.400   1
  -1  -2  11 586.981 155.942   2
  -1  -2  12 199.248 138.511   1
   1  -2  12 297.582 127.645   1
   1  -2  12 663.460 139.309   2
  -1  -2  12 535.693 139.261   2
  -1   2  12 420.307 153.043   1
  -1   2  12 314.671 96.7029   2
   1  -2  13 13.2577 148.533   1
   1  -2  13 51.6956 76.0183   2
  -1   2  13-89.3885 96.4602   2
  -1   2  13 1.16733 92.9183   1
  -1  -2  13 60.6417 128.732   1
  -1  -2  13 283.693 126.501   2
   1  -2  14 224.717 173.929   1
  -1  -2  14 102.082 96.7968   2
  -1  -2  14-187.647 181.780   1
  -1   2  14-112.636 114.859   1
  -1  -2  15 570.448 224.590   1
  -1   2  15 698.975 191.328   1
   1  -2  15 701.125 251.483   1
  -1  -2  16 116.556 142.551   1
   1  -2  16-11.5995 188.693   1
  -1   2  16-84.2091 140.206   1
  -1  -2  17-16.9738 145.195   1
   1  -2  17 272.853 207.211   1
  -1  -2  18 39.9559 211.892   1
  -1  -2  19-180.647 244.081   1
  -1  -3  -9 6105.95 250.751   2
  -1  -3  -8 460.480 91.1735   1
  -1  -3  -8 697.432 69.6752   2
   1  -3  -8 812.963 120.924   2
  -1  -3  -8 907.190 210.516   3
   1  -3  -7 10797.4 455.682   2
  -1  -3  -7 9969.55 595.451   3
  -1  -3  -7 10237.2 428.903   1
  -1  -3  -7 10618.5 334.166   2
  -1  -3  -6 7417.47 331.286   1
  -1  -3  -6 7286.29 473.222   3
   1  -3  -6 7680.44 377.176   2
  -1  -3  -6 7720.47 285.758   2
  -1  -3  -5 3744.08 267.155   4
   1  -3  -5 3550.27 310.494   3
   1  -3  -5 3682.15 251.586   2
  -1  -3  -5 3666.77 311.685   3
  -1  -3  -5 3546.75 198.840   1
  -1   3  -5 3464.82 265.174   4
   1  -3  -4 12837.8 607.863   3
  -1  -3  -4 15936.7 577.383   4
  -1   3  -4 14467.6 561.706   4
   1  -3  -4 14270.1 548.767   2
   1  -3  -3 2501.95 224.220   4
  -1  -3  -3 2498.35 202.258   4
   1   3  -3 3036.50 253.782   2
   1  -3  -3 2640.83 234.348   3
  -1   3  -3 2456.45 198.546   4
  -1   3  -3 2412.21 206.744   1
  -1  -3  -2 4916.10 275.922   4
   1   3  -2 5166.62 298.590   4
  -1   3  -2 5095.22 282.939   1
  -1   3  -2 4888.61 285.152   4
   1  -3  -2 4839.17 297.313   3
   1   3  -2 5950.01 341.214   2
   1  -3  -2 5194.21 318.488   4
  -1  -3  -1 75477.9 1761.83   4
   1   3  -1 68876.2 1772.47   4
  -1  -3  -1 73285.0 1740.38   2
  -1   3  -1 75967.5 1734.62   1
   1  -3  -1 77827.7 1829.63   4
  -1   3  -1 74205.9 1805.84   4
  -1  -3   0 4042.63 245.375   2
  -1  -3   0 4415.66 253.238   4
  -1   3   0 4244.21 267.622   4
  -1   3   0 3849.06 199.320   1
   1   3   0 4436.74 257.394   4
   1  -3   0 4835.37 275.432   4
  -1   3   1 73879.3 1826.89   4
   1   3   1 69696.8 1759.01   4
  -1  -3   1 74656.7 1809.82   2
   1  -3   1 73917.5 1761.22   1
   1  -3   1 77394.4 1783.22   4
  -1   3   1 75170.2 1617.19   1
   1  -3   2 5367.38 289.198   4
  -1  -3   2 5042.50 312.867   2
   1  -3   2 4937.55 291.638   1
  -1   3   2 5262.25 313.496   4
   1   3   2 4988.07 277.273   4
  -1   3   3 2497.68 216.055   4
   1  -3   3 2210.31 213.791   1
  -1  -3   3 2680.18 237.228   2
   1   3   3 2337.55 192.868   4
   1   3   4 14447.0 546.273   4
   1  -3   4 14142.4 621.817   1
  -1   3   4 14088.4 595.067   4
  -1  -3   4 14158.4 632.287   2
  -1   3   5 3163.94 274.392   4
   1  -3   5 3341.59 302.264   1
  -1  -3   5 3230.21 297.847   2
  -1   3   5 3623.89 169.830   1
   1  -3   5 3368.70 258.947   2
   1   3   5 3424.12 248.982   4
   1   3   6 8320.88 415.970   4
   1  -3   6 7521.11 408.620   2
  -1   3   6 8588.82 475.984   4
  -1   3   6 7607.03 304.815   1
   1  -3   6 8223.12 511.346   1
  -1  -3   6 7221.94 492.948   2
  -1  -3   6 6790.13 458.381   1
  -1  -3   7 10146.4 588.180   1
  -1  -3   7 10146.7 614.688   2
   1  -3   7 10217.0 615.020   1
   1   3   7 9171.27 509.276   4
  -1   3   7 10712.6 414.068   1
   1  -3   7 10702.0 515.902   2
   1  -3   8 815.480 145.273   2
  -1  -3   8 698.608 197.780   1
  -1  -3   8 471.027 126.594   2
  -1   3   8 797.307 119.074   1
   1  -3   8 497.280 143.258   1
  -1  -3   9 6001.33 472.372   2
  -1  -3   9 6463.40 508.729   1
   1  -3   9 6643.59 532.512   1
  -1   3   9 6347.31 365.495   1
   1  -3   9 6416.78 431.507   2
   1  -3  10 40.4251 89.3417   2
  -1  -3  10 39.4054 100.466   2
  -1   3  10 284.962 92.2295   1
   1  -3  10 94.9185 110.633   1
  -1  -3  10-25.7130 96.6331   1
   1  -3  11 2396.04 368.121   1
  -1   3  11 2637.65 264.238   1
   1  -3  11 2970.88 318.834   2
  -1  -3  11 2463.68 350.897   1
  -1  -3  11 2730.43 319.067   2
  -1  -3  12 108.260 131.553   2
  -1   3  12-39.6672 66.3140   1
  -1  -3  12-2.38419 126.438   1
   1  -3  12 76.4459 144.544   1
   1  -3  12 42.0849 98.2307   2
   1  -3  13 9517.51 768.039   1
  -1  -3  13 9230.14 599.669   2
  -1   3  13 9361.29 587.202   1
  -1  -3  13 8378.82 702.821   1
   1  -3  13 9208.79 569.779   2
  -1  -3  14 340.857 131.352   2
  -1  -3  14 148.967 148.088   1
   1  -3  14 2.06238 175.495   1
  -1   3  14 309.741 132.997   1
  -1  -3  15 1919.39 362.689   1
  -1  -3  15 2033.08 287.122   2
   1  -3  15 2185.33 424.635   1
   1  -3  16 49.5055 198.494   1
  -1  -3  16 90.9102 175.447   1
   1  -3  17-25.3196 187.227   1
  -1  -3  17-36.7271 168.100   1
  -1  -3  18 445.201 222.067   1
   1  -3  18 521.345 252.900   1
  -1  -4 -10 5416.48 520.504   3
  -1  -4  -9 5101.36 232.616   2
  -1  -4  -9 5299.89 490.484   3
  -1  -4  -8 20746.9 973.130   3
  -1  -4  -8 19069.9 638.727   1
  -1  -4  -8 21194.2 603.163   2
  -1   4  -7 8559.71 519.697   4
  -1  -4  -7 8534.10 581.575   3
  -1  -4  -7 8892.03 357.773   1
   1  -4  -7 9235.91 609.413   3
  -1  -4  -7 9653.21 374.630   2
  -1  -4  -6 20200.5 591.051   1
  -1  -4  -6 20499.2 900.785   3
   1  -4  -6 21426.6 929.690   3
  -1   4  -6 19756.4 802.115   4
  -1  -4  -5 3919.95 358.153   3
  -1   4  -5 4214.13 324.206   4
  -1  -4  -5 4094.43 197.842   1
   1  -4  -5 4721.81 379.936   3
   1  -4  -4 4579.88 363.037   3
  -1   4  -4 4618.58 324.675   4
   1  -4  -3 7121.64 429.174   3
   1   4  -3 6880.53 402.328   4
  -1   4  -3 6766.17 391.168   4
   1   4  -2 56435.8 1618.73   4
  -1   4  -2 61818.6 1647.45   4
  -1   4  -2 65683.6 1594.96   1
  -1  -4  -2 63897.4 1624.61   4
  -1  -4  -1 35205.6 1034.28   4
  -1   4  -1 37375.4 988.866   1
  -1   4  -1 31851.2 1055.27   4
   1   4  -1 35242.8 1064.79   4
  -1  -4  -1 36012.2 1022.60   2
   1  -4   0 50458.8 1261.29   1
  -1   4   0 48710.8 1226.57   1
  -1   4   0 47733.2 1394.23   4
   1   4   0 52616.8 1396.45   4
  -1  -4   0 49042.7 1352.37   2
  -1  -4   0 55916.1 1389.20   4
   1  -4   1 35074.0 1019.43   1
  -1  -4   1 35731.5 1080.40   2
   1   4   1 37603.2 1102.65   4
  -1   4   1 35215.4 1120.22   4
  -1   4   1 37184.4 890.810   1
   1   4   2 56197.2 1562.77   4
   1  -4   2 60707.7 1581.79   1
  -1   4   2 59114.8 1639.57   4
  -1  -4   2 59835.8 1617.53   2
  -1   4   2 61208.6 1306.22   1
  -1   4   3 6327.45 398.135   4
  -1  -4   3 7034.40 416.189   2
   1   4   3 6883.25 384.965   4
   1  -4   3 6670.30 402.722   1
   1   4   4 4493.88 310.059   4
   1  -4   4 4828.05 357.950   1
  -1  -4   4 4095.52 333.750   2
  -1   4   4 3529.00 308.207   4
  -1  -4   5 4025.28 337.135   1
  -1  -4   5 3909.59 342.837   2
   1   4   5 3985.36 302.463   4
   1  -4   5 3970.07 351.643   1
   1  -4   5 3895.86 307.370   2
  -1   4   5 4048.29 327.459   4
   1  -4   6 19273.4 873.023   1
   1   4   6 18841.4 743.161   4
   1  -4   6 20996.9 785.993   2
  -1   4   6 19530.7 814.107   4
  -1   4   6 18424.0 492.690   1
  -1  -4   6 19860.9 866.215   2
  -1  -4   6 19449.0 844.347   1
   1   4   7 9560.10 516.360   4
  -1  -4   7 8641.89 576.039   2
   1  -4   7 9262.96 503.547   2
  -1   4   7 8218.13 314.307   1
   1  -4   7 8623.63 585.073   1
  -1   4   7 9694.34 562.244   4
  -1  -4   7 8463.81 557.901   1
  -1  -4   8 18624.4 943.952   2
  -1   4   8 18990.5 607.667   1
   1  -4   8 19035.8 953.202   1
   1   4   8 22075.1 852.836   4
  -1  -4   8 18968.7 930.133   1
  -1   4   8 22277.1 922.191   4
   1  -4   8 20613.2 836.298   2
  -1   4   9 4783.89 284.237   1
  -1  -4   9 5432.24 492.778   2
  -1  -4   9 5230.26 475.427   1
   1  -4   9 5447.15 507.306   1
   1  -4   9 5041.62 403.176   2
  -1   4  10 5043.43 317.426   1
  -1  -4  10 5035.07 485.950   1
   1  -4  10 5233.91 516.379   1
   1  -4  10 5101.67 426.722   2
  -1  -4  10 5242.49 480.967   2
   1  -4  11 10122.1 666.053   2
  -1  -4  11 11666.7 736.896   2
   1  -4  11 11641.4 813.233   1
  -1   4  11 10641.5 524.894   1
  -1  -4  11 10651.3 760.529   1
  -1  -4  12 8883.97 714.239   1
  -1  -4  12 9981.42 670.211   2
   1  -4  12 9609.53 654.243   2
  -1   4  12 9402.71 520.421   1
   1  -4  12 10891.1 813.274   1
   1  -4  13 1902.79 287.369   2
  -1  -4  13 2371.89 393.399   1
   1  -4  13 1648.74 348.749   1
  -1  -4  13 2251.83 323.473   2
  -1  -4  14 4640.79 559.321   1
   1  -4  14 5213.64 470.503   2
   1  -4  14 4829.06 594.203   1
  -1  -4  14 5848.39 518.931   2
   1  -4  15 1330.36 363.560   1
  -1  -4  15 769.508 261.296   1
  -1  -4  15 864.814 217.115   2
  -1  -4  16 3892.88 549.998   1
   1  -4  16 3997.64 570.501   1
  -1  -4  17 57.6503 148.277   1
   1  -4  17-429.865 257.857   1
   1  -4  18-13.6320 206.426   1
  -1  -4  18-109.429 191.323   1
  -1  -5 -11 4005.47 486.732   3
  -1   5 -11 4437.34 460.286   4
  -1  -5 -10 7802.72 645.212   3
  -1   5 -10 6847.94 553.579   4
  -1   5  -9 2756.09 335.809   4
  -1  -5  -9 2749.96 372.857   3
  -1  -5  -8 1957.55 298.448   3
  -1  -5  -8 1874.62 167.944   2
   1  -5  -8 1431.76 268.459   3
  -1   5  -8 1790.58 256.687   4
  -1  -5  -7 11690.9 718.896   3
  -1  -5  -7 11885.2 390.965   1
   1  -5  -7 13499.8 776.459   3
  -1   5  -7 12730.3 681.637   4
  -1   5  -6 18296.5 808.887   4
  -1  -5  -6 18776.0 904.957   3
  -1  -5  -6 17184.0 482.647   1
   1  -5  -6 19465.5 906.931   3
  -1  -5  -5 562.491 61.5970   1
   1  -5  -5 681.686 168.978   3
  -1   5  -5 765.437 158.579   4
   1   5  -5 543.823 145.443   4
   1   5  -4 12410.1 624.520   4
  -1   5  -4 10934.0 579.936   4
   1  -5  -4 11928.8 640.950   3
   1  -5  -3 5724.55 410.070   3
  -1   5  -3 5465.70 389.853   4
   1   5  -3 5405.98 384.238   4
   1   5  -2 11079.6 560.706   4
  -1   5  -2 11515.3 580.741   4
  -1   5  -1 49786.4 1504.00   4
  -1   5  -1 51255.1 1334.09   1
   1   5  -1 50389.3 1483.23   4
   1   5   0 3865.67 324.406   4
  -1   5   0 3994.07 327.158   4
   1  -5   0 4219.36 258.494   1
  -1  -5   0 3950.22 307.704   2
  -1   5   0 4181.93 239.493   1
  -1   5   1 48235.9 1486.02   4
   1   5   1 48476.7 1448.45   4
  -1  -5   1 48256.9 1431.12   2
   1  -5   1 51483.0 1357.61   1
   1   5   2 12567.3 582.061   4
   1  -5   2 10976.6 526.568   1
  -1  -5   2 11020.7 560.363   2
  -1   5   2 10348.6 572.027   4
  -1   5   3 4627.77 374.247   4
   1   5   3 5657.47 381.270   4
   1  -5   3 5297.35 377.522   1
  -1  -5   3 5423.29 393.691   2
  -1  -5   4 11801.0 607.785   1
   1   5   4 11853.2 586.893   4
   1  -5   4 11226.9 601.365   1
  -1  -5   4 12017.8 626.282   2
  -1   5   4 12067.9 618.040   4
  -1  -5   5 663.645 162.748   2
   1  -5   5 485.769 136.849   1
   1   5   5 584.338 134.328   4
  -1  -5   5 652.253 152.253   1
  -1   5   5 573.556 145.097   4
   1   5   6 17989.8 773.069   4
  -1   5   6 17436.0 809.690   4
  -1  -5   6 18749.2 864.898   2
  -1  -5   6 17841.6 852.530   1
   1  -5   6 18272.9 794.450   2
   1  -5   6 17959.5 871.242   1
   1   5   7 13416.2 653.833   4
  -1  -5   7 12434.7 721.022   1
  -1  -5   7 11959.6 713.415   2
  -1   5   7 11121.5 661.311   4
   1  -5   7 12820.5 658.407   2
   1  -5   7 12057.8 728.335   1
  -1  -5   8 976.273 211.738   2
   1  -5   8 1631.49 240.114   2
   1   5   8 1856.33 243.449   4
   1  -5   8 1518.79 277.141   1
  -1  -5   8 1304.26 251.375   1
  -1   5   8 1226.12 275.479   4
   1   5   9 2534.32 336.414   4
  -1  -5   9 2859.97 369.657   1
   1  -5   9 3074.39 394.527   1
  -1  -5   9 2659.75 364.942   2
   1  -5   9 3183.79 333.020   2
  -1   5   9 2925.90 356.522   4
  -1  -5  10 7352.58 613.427   2
   1  -5  10 6678.88 609.676   1
  -1  -5  10 6213.36 577.494   1
   1  -5  10 6452.94 508.821   2
  -1  -5  11 3995.35 462.330   2
   1  -5  11 3797.45 471.920   1
   1  -5  11 3993.38 413.487   2
  -1  -5  11 4150.39 486.968   1
  -1  -5  12 4413.55 482.409   2
  -1  -5  12 3972.15 495.381   1
   1  -5  12 3907.62 509.570   1
   1  -5  12 4469.05 467.058   2
   1  -5  13 6977.25 609.512   2
   1  -5  13 7354.76 726.582   1
  -1  -5  13 8020.97 644.487   2
  -1  -5  13 6343.10 652.741   1
  -1  -5  14-27.1069 154.701   1
   1  -5  14 310.177 216.553   1
   1  -5  14 14.1034 115.103   2
  -1  -5  14 426.845 205.767   2
   1  -5  15 2871.25 494.318   1
  -1  -5  15 3026.20 397.215   2
  -1  -5  15 2117.67 408.097   1
  -1  -5  16 1694.55 386.068   1
   1  -5  16 1700.36 412.396   1
  -1  -5  17 150.724 194.778   1
   1  -5  17 64.9591 152.899   1
  -1   6 -16 1288.46 351.674   4
  -1   6 -15 133.742 152.696   4
  -1   6 -14 2240.81 404.925   4
  -1   6 -13 1742.73 347.486   4
  -1   6 -12 3265.47 443.172   4
  -1  -6 -11 127.412 133.267   3
  -1   6 -11-139.505 170.975   4
  -1  -6 -10 5893.01 578.646   3
  -1   6 -10 4623.65 481.999   4
   1  -6  -9 9815.41 756.431   3
  -1  -6  -9 8784.01 694.795   3
  -1   6  -9 8638.09 632.936   4
   1  -6  -8 6205.87 559.359   3
  -1   6  -8 5975.33 505.481   4
  -1  -6  -8 6482.99 566.089   3
   1   6  -8 6049.73 523.295   4
  -1   6  -7 1639.27 262.812   4
   1   6  -7 2053.85 298.533   4
   1  -6  -7 2715.95 352.585   3
  -1  -6  -7 2395.72 342.096   3
  -1  -6  -6 13897.9 793.238   3
  -1   6  -6 13731.5 736.749   4
   1  -6  -6 13872.1 804.512   3
   1   6  -6 14164.8 761.400   4
   1   6  -5 555.848 154.539   4
  -1   6  -5 631.414 168.512   4
   1  -6  -5 416.517 149.758   3
  -1   6  -4 21762.7 936.237   4
   1  -6  -4 23282.1 986.874   3
   1   6  -4 22857.9 959.865   4
   1   6  -3 2130.25 260.384   4
  -1   6  -3 2882.51 311.411   4
  -1   6  -2 12383.0 666.416   4
   1   6  -2 11656.3 628.385   4
   1   6  -1 12014.2 643.225   4
  -1   6  -1 12085.1 654.180   4
  -1  -6   0 20877.3 824.299   2
   1  -6   0 19712.4 697.265   1
   1   6   0 18658.6 847.189   4
  -1   6   0 21509.7 894.730   4
  -1   6   1 12238.3 662.031   4
   1  -6   1 12679.3 563.444   1
  -1  -6   1 12372.4 631.424   2
   1   6   1 13026.2 664.150   4
  -1   6   2 11444.3 647.171   4
   1   6   2 13429.9 667.767   4
   1  -6   2 12403.2 593.611   1
  -1  -6   2 12516.6 645.761   2
   1   6   3 2386.85 275.595   4
  -1  -6   3 2601.33 274.547   1
  -1  -6   3 3090.20 317.926   2
  -1   6   3 2474.83 292.622   4
   1  -6   3 2594.20 273.322   1
  -1  -6   4 23504.3 956.906   1
   1  -6   4 23311.0 969.262   1
   1   6   4 25336.1 978.238   4
  -1  -6   4 23983.8 990.320   2
  -1   6   4 21467.2 956.859   4
  -1  -6   5 400.004 122.274   2
  -1   6   5 466.611 158.729   4
   1  -6   5 500.760 161.660   1
   1   6   5 617.605 154.332   4
  -1  -6   5 419.868 144.981   1
   1  -6   6 15025.0 810.905   1
   1   6   6 15428.5 741.810   4
  -1  -6   6 14496.7 788.863   1
   1  -6   6 14425.0 741.099   2
  -1   6   6 13761.2 748.618   4
  -1  -6   6 13980.8 779.121   2
   1   6   7 2631.70 301.947   4
   1  -6   7 2108.23 324.605   1
  -1   6   7 2500.58 312.565   4
  -1  -6   7 2672.08 348.013   1
   1  -6   7 2036.19 279.482   2
  -1  -6   7 2338.01 314.143   2
   1  -6   8 6377.04 566.420   1
  -1   6   8 7364.77 558.318   4
  -1  -6   8 7099.70 582.335   1
   1   6   8 6767.76 501.836   4
  -1  -6   8 6159.45 539.705   2
   1  -6   8 6803.34 517.466   2
  -1   6   9 8989.78 629.592   4
  -1  -6   9 9470.90 701.100   1
   1  -6   9 8965.53 702.078   1
  -1  -6   9 7510.65 633.752   2
   1  -6   9 9258.36 620.780   2
   1   6   9 8168.11 581.923   4
  -1  -6  10 5328.92 556.537   1
  -1   6  10 5218.31 513.379   4
   1  -6  10 5744.89 498.979   2
   1   6  10 6579.33 519.876   4
   1  -6  10 5251.81 557.501   1
  -1  -6  10 4765.16 522.872   2
   1  -6  11-118.408 176.522   1
  -1  -6  11 113.229 128.738   1
  -1  -6  11 74.4719 136.593   2
   1  -6  11-174.613 141.670   2
   1  -6  12 3722.50 432.832   2
   1  -6  12 4488.88 551.924   1
  -1  -6  12 3723.70 478.501   2
  -1  -6  12 4874.46 565.681   1
   1  -6  13 2211.49 347.475   2
   1  -6  13 1566.57 361.433   1
  -1  -6  13 1992.82 349.592   2
  -1  -6  13 2684.64 442.824   1
   1  -6  14 2811.53 497.149   1
   1  -6  14 2391.85 384.492   2
  -1  -6  14 2025.99 356.288   2
  -1  -6  14 2831.69 489.847   1
   1  -6  15 172.870 168.413   1
  -1  -6  15 404.731 211.405   2
  -1  -6  15-120.679 196.860   1
   1  -6  16 855.237 320.504   1
  -1  -6  16 1196.83 341.795   1
   1   7 -17 728.435 338.905   4
  -1   7 -16-60.3161 237.141   4
   1   7 -16 25.7666 233.832   4
  -1   7 -15 166.208 161.718   4
   1   7 -15 296.368 245.611   4
  -1   7 -14-19.6182 155.554   4
   1   7 -14 268.593 216.760   4
  -1   7 -13-65.9769 145.441   4
   1   7 -13 339.150 211.661   4
  -1   7 -12-191.009 176.829   4
   1   7 -12 53.0160 132.118   4
  -1  -7 -12-51.9272 186.417   3
  -1   7 -11 380.543 177.014   4
   1   7 -11 274.493 188.558   4
  -1  -7 -11-5.42034 164.710   3
  -1  -7 -10 3034.32 426.130   3
   1  -7 -10 2828.39 447.786   3
   1   7 -10 3104.95 434.301   4
  -1   7 -10 2726.11 392.654   4
   1  -7  -9 3445.76 459.275   3
  -1  -7  -9 2550.15 396.545   3
  -1   7  -9 2950.86 388.362   4
   1   7  -9 3024.98 395.874   4
   1  -7  -8 1712.66 315.259   3
  -1   7  -8 1443.61 268.674   4
  -1  -7  -8 1834.10 332.941   3
   1   7  -8 2117.57 335.862   4
  -1  -7  -7 1702.96 310.871   3
   1   7  -7 1925.15 302.067   4
  -1   7  -7 1930.30 304.688   4
   1  -7  -7 2439.50 365.055   3
  -1   7  -6-198.276 135.894   4
   1   7  -6 33.5417 120.733   4
   1  -7  -6 22.6783 138.705   3
  -1  -7  -6-47.3498 123.370   3
  -1   7  -5 9802.27 639.287   4
   1  -7  -5 9410.83 657.289   3
   1   7  -5 10014.1 652.871   4
  -1  -7  -4 2983.27 155.500   1
   1   7  -4 2885.63 343.893   4
   1  -7  -4 3703.87 386.498   3
  -1   7  -4 3180.32 357.080   4
   1   7  -3 3933.29 385.635   4
  -1  -7  -3 4772.52 242.248   1
  -1   7  -3 4495.33 424.016   4
   1   7  -2 250.186 123.319   4
  -1   7  -2 251.186 121.940   4
   1   7  -1 443.832 156.232   4
  -1   7  -1 220.976 137.914   4
  -1  -7  -1 342.940 122.901   2
  -1  -7  -1 267.050 77.7939   1
  -1  -7   0 1586.92 186.746   1
   1  -7   0 1614.23 181.556   1
  -1  -7   0 1573.32 238.512   2
  -1   7   0 1509.26 250.620   4
   1   7   0 1607.48 253.193   4
   1  -7   1 211.211 75.1909   1
  -1  -7   1 296.778 132.179   2
   1   7   1 488.469 149.330   4
  -1  -7   1 325.148 112.315   1
  -1   7   1 316.658 108.867   4
  -1  -7   2 447.302 166.979   2
  -1  -7   2 334.239 123.867   1
  -1   7   2 39.1963 105.303   4
   1   7   2 126.983 91.5676   4
   1  -7   2 256.772 120.626   1
  -1  -7   3 4809.90 403.201   1
  -1   7   3 4268.98 417.280   4
   1  -7   3 4745.30 393.484   1
  -1  -7   3 4864.98 423.858   2
   1   7   3 5278.11 442.569   4
  -1   7   4 2790.06 339.284   4
  -1  -7   4 3073.45 341.083   1
   1   7   4 3886.22 385.913   4
   1  -7   4 3024.70 340.372   1
  -1  -7   4 3220.59 350.632   2
  -1  -7   5 10566.8 659.628   1
   1  -7   5 10602.3 664.773   1
   1   7   5 9866.68 624.619   4
   1  -7   5 10035.1 641.827   2
  -1  -7   5 10160.4 659.744   2
  -1   7   5 9957.45 645.614   4
  -1   7   6-37.3324 125.523   4
  -1  -7   6 28.3928 99.2978   1
  -1  -7   6 120.848 156.765   2
   1  -7   6-72.9272 104.255   1
   1  -7   6 101.879 131.165   2
   1   7   6 88.6342 96.2024   4
   1   7   7 2025.96 290.757   4
  -1  -7   7 1949.22 309.373   2
   1  -7   7 2363.28 320.179   2
  -1  -7   7 2067.25 316.218   1
   1  -7   7 2034.29 327.014   1
  -1   7   7 2032.66 307.627   4
  -1  -7   8 1599.80 300.785   1
   1  -7   8 1540.75 267.265   2
  -1  -7   8 1077.04 251.505   2
   1  -7   8 1240.23 280.995   1
  -1   7   8 1477.31 273.192   4
   1   7   8 1411.17 255.436   4
  -1  -7   9 2115.05 338.698   2
  -1   7   9 2576.63 396.048   4
  -1  -7   9 2917.94 414.489   1
   1  -7   9 3528.55 403.429   2
   1  -7   9 3132.58 439.463   1
   1   7   9 3360.50 377.476   4
   1  -7  10 3261.88 404.438   2
   1   7  10 3307.03 400.200   4
  -1  -7  10 3657.92 474.034   1
   1  -7  10 3033.51 444.188   1
  -1  -7  10 2918.44 405.482   2
  -1   7  10 3378.81 417.694   4
  -1  -7  11-136.822 215.843   2
  -1   7  11 244.764 200.336   4
   1  -7  11 43.0207 182.932   1
  -1  -7  11 359.044 207.518   1
   1   7  11 520.626 191.660   4
   1  -7  11 272.007 184.432   2
  -1  -7  12 374.893 238.707   1
  -1  -7  12 45.9728 141.781   2
   1  -7  12 369.595 223.749   1
   1  -7  12 236.083 172.736   2
   1  -7  13 166.254 151.503   1
   1  -7  13 73.5825 166.206   2
  -1  -7  13 12.3447 155.761   2
  -1  -7  13 28.8426 187.396   1
   1  -7  14 118.643 188.374   2
   1  -7  14 4.86942 141.163   1
  -1  -7  14 359.353 225.564   2
  -1  -7  14-14.8469 159.301   1
   1  -7  15 26.4914 180.371   1
  -1  -7  15 77.8928 158.166   2
  -1  -7  15 463.273 256.968   1
   1  -7  15 115.401 173.020   2
  -1  -7  16 201.130 207.800   2
  -1   8 -16 1790.43 419.257   4
   1   8 -16 2392.53 487.713   4
  -1   8 -15 907.785 298.409   4
   1   8 -15 1590.31 420.184   4
  -1   8 -14 3392.86 546.301   4
   1   8 -14 4926.78 635.442   4
   1   8 -13 2352.49 428.968   4
  -1   8 -13 2455.00 442.885   4
   1   8 -12 8930.95 803.710   4
  -1  -8 -12 9023.80 838.990   3
  -1   8 -12 8082.76 756.430   4
   1   8 -11 3636.53 507.082   4
  -1  -8 -11 4299.00 568.554   3
  -1   8 -11 4951.39 563.593   4
   1   8 -10 7852.72 695.904   4
   1  -8 -10 7237.35 718.453   3
  -1  -8 -10 8092.11 740.814   3
  -1   8 -10 7752.09 690.589   4
   1  -8  -9 6625.09 651.852   3
   1   8  -9 6377.95 603.983   4
  -1   8  -9 6463.92 605.780   4
  -1  -8  -9 6888.34 657.625   3
  -1   8  -8 16083.6 956.754   4
   1   8  -8 15924.1 960.404   4
   1  -8  -8 16941.6 1041.00   3
  -1  -8  -8 16505.8 1024.85   3
  -1   8  -7 2637.30 382.542   4
   1   8  -7 3019.05 391.633   4
   1  -8  -7 3006.83 415.842   3
  -1  -8  -7 3319.31 438.177   3
  -1   8  -6 12932.2 818.904   4
   1  -8  -6 13762.2 869.156   3
   1   8  -6 13589.6 837.327   4
   1   8  -5 15295.5 878.502   4
   1  -8  -5 15561.0 898.304   3
  -1   8  -5 14472.6 858.449   4
  -1  -8  -4 9273.84 316.959   1
   1  -8  -4 10898.2 703.924   3
  -1   8  -4 10211.1 704.451   4
   1   8  -4 10468.3 699.316   4
  -1  -8  -3 10990.5 414.588   1
  -1   8  -3 11235.2 734.101   4
   1   8  -3 11424.5 725.370   4
  -1  -8  -2 32595.4 960.369   1
   1   8  -2 34912.9 1370.52   4
  -1   8  -2 30647.1 1317.00   4
  -1  -8  -2 33195.0 1215.95   2
  -1  -8  -1 9969.41 488.526   1
  -1   8  -1 10831.0 715.824   4
  -1  -8  -1 10993.3 644.077   2
   1   8  -1 12395.8 754.278   4
  -1   8   0 31296.2 1311.19   4
   1  -8   0 33013.0 1052.73   1
  -1  -8   0 33136.7 1084.44   1
   1   8   0 33292.0 1332.41   4
  -1  -8   0 29052.2 1193.85   2
  -1  -8   1 10449.0 571.665   1
   1  -8   1 10373.5 555.126   1
  -1  -8   1 10236.1 651.401   2
   1   8   1 10743.3 697.460   4
  -1   8   1 10592.5 715.172   4
   1   8   2 31581.3 1298.27   4
  -1   8   2 34613.8 1376.61   4
   1  -8   2 30831.1 1148.49   1
  -1  -8   2 31878.0 1265.35   2
  -1  -8   2 31976.1 1176.17   1
   1   8   3 12186.0 741.525   4
  -1   8   3 11382.2 739.718   4
   1  -8   3 11180.0 651.488   1
  -1  -8   3 11279.0 704.594   2
  -1  -8   3 11309.4 666.097   1
   1   8   4 9635.25 661.511   4
   1  -8   4 9814.38 639.618   1
  -1  -8   4 9749.06 674.375   2
  -1   8   4 10250.8 708.865   4
  -1  -8   4 10531.8 660.699   1
   1   8   5 13691.5 809.152   4
   1  -8   5 15088.1 855.903   1
  -1  -8   5 15694.9 879.010   2
  -1   8   5 17001.2 918.332   4
  -1  -8   5 15690.1 865.719   1
   1  -8   5 15005.6 844.582   2
  -1   8   6 15851.3 889.569   4
   1  -8   6 15204.9 859.073   2
   1  -8   6 13441.6 846.341   1
  -1  -8   6 14955.0 880.619   1
   1   8   6 13385.4 803.036   4
  -1  -8   6 13327.0 844.029   2
   1  -8   7 3083.52 388.008   2
  -1   8   7 2566.38 361.146   4
  -1  -8   7 3053.81 403.798   1
   1  -8   7 3670.97 454.657   1
  -1  -8   7 3042.80 406.797   2
   1   8   7 3353.28 382.158   4
  -1   8   8 17704.6 975.463   4
   1  -8   8 15990.4 1001.82   1
  -1  -8   8 17217.3 1020.86   1
   1  -8   8 16820.7 938.799   2
  -1  -8   8 16414.5 985.649   2
   1   8   8 15615.6 886.720   4
  -1  -8   9 5916.61 606.579   1
   1   8   9 5804.46 531.485   4
  -1   8   9 5736.75 546.109   4
   1  -8   9 5633.26 600.132   1
  -1  -8   9 6100.98 608.057   2
   1  -8   9 6205.43 573.495   2
   1  -8  10 7488.17 633.460   2
   1   8  10 7827.33 627.894   4
  -1   8  10 7165.15 629.298   4
   1  -8  10 7405.66 721.240   1
  -1  -8  10 6772.44 665.527   2
  -1  -8  10 6379.52 662.412   1
  -1  -8  11 3906.31 518.650   2
   1  -8  11 5668.07 653.183   1
   1  -8  11 4592.95 512.047   2
  -1   8  11 5052.28 547.045   4
   1   8  11 5048.43 509.828   4
  -1  -8  11 3772.96 533.271   1
  -1  -8  12 9425.24 841.900   2
   1  -8  12 9026.87 850.255   1
  -1   8  12 8493.85 722.669   4
   1  -8  12 8001.53 709.901   2
   1   8  12 5946.79 714.670   4
  -1  -8  12 8844.51 827.788   1
  -1  -8  13 2683.20 463.285   2
   1  -8  13 2569.75 429.780   2
   1  -8  13 2841.80 519.085   1
  -1  -8  13 3033.64 508.238   1
  -1  -8  14 4288.09 594.853   1
  -1  -8  14 5396.94 635.836   2
   1  -8  14 4533.57 580.192   2
   1  -8  14 6320.67 770.569   1
   1  -8  15 1360.73 417.005   1
   1  -8  15 1265.13 320.240   2
  -1  -8  15 1830.98 383.740   2
  -1  -8  15 1835.70 437.967   1
  -1  -8  16 3004.02 467.760   2
  -1   9 -15-72.2606 237.915   4
   1   9 -15 218.652 271.002   4
   1   9 -14 135.663 197.850   4
  -1   9 -14 343.863 230.962   4
  -1   9 -13 1.70686 157.747   4
   1   9 -13 262.966 241.479   4
  -1  -9 -13-62.3710 175.229   3
   1   9 -12 316.916 183.426   4
  -1   9 -12 199.521 196.273   4
  -1  -9 -12 215.680 193.812   3
   1  -9 -11 376.734 217.861   3
  -1   9 -11 338.183 222.809   4
  -1  -9 -11 112.860 207.319   3
   1   9 -11-4.07838 139.553   4
   1  -9 -10 309.203 180.492   3
  -1   9 -10 231.593 188.694   4
   1   9 -10 148.896 169.075   4
  -1  -9 -10-26.1907 166.022   3
  -1   9  -9 220.544 163.092   4
   1   9  -9 255.654 186.056   4
   1  -9  -9 57.8965 130.880   3
  -1  -9  -9 674.972 255.294   3
   1   9  -8 715.207 232.269   4
  -1  -9  -8 1005.86 260.682   3
   1  -9  -8 868.852 279.565   3
  -1   9  -8 533.538 220.953   4
  -1   9  -7 254.710 163.415   4
   1   9  -7 316.275 170.944   4
   1  -9  -7 205.123 155.516   3
  -1  -9  -7 310.811 187.781   3
  -1   9  -6 714.591 222.158   4
   1  -9  -6 876.323 243.571   3
   1   9  -6 1039.48 279.846   4
   1   9  -5 208.202 177.150   4
  -1   9  -5 236.954 193.103   4
   1  -9  -5 58.0084 135.411   3
   1   9  -4 297.385 170.565   4
  -1   9  -4 37.5883 139.195   4
   1  -9  -4 106.883 111.765   3
  -1  -9  -3 27.1479 100.309   2
  -1   9  -3 126.341 126.207   4
   1   9  -3-85.6640 146.526   4
   1   9  -2 79.6740 127.479   4
  -1  -9  -2 129.480 46.6261   1
  -1  -9  -2 433.457 156.212   2
  -1   9  -2 244.880 128.886   4
  -1   9  -1 120.251 175.702   4
   1   9  -1-58.0917 124.995   4
  -1  -9  -1 47.4441 58.8954   1
  -1  -9  -1 93.9570 89.9227   2
  -1  -9   0 447.394 152.747   2
   1  -9   0 653.070 141.053   1
  -1  -9   0 690.262 149.677   1
  -1   9   0 614.116 217.321   4
   1   9   0 722.903 215.572   4
  -1  -9   1-69.8428 128.796   2
   1   9   1 194.692 164.089   4
  -1   9   1 28.5070 146.816   4
  -1  -9   1 21.9778 82.9977   1
   1  -9   1 9.82980 67.4024   1
  -1   9   2 399.444 172.216   4
  -1  -9   2 300.593 172.781   2
   1  -9   2 257.064 135.604   1
   1   9   2 274.771 172.003   4
  -1  -9   2 287.817 120.204   1
  -1   9   3-62.0671 148.836   4
   1  -9   3 137.468 91.5413   1
  -1  -9   3 293.850 165.640   2
  -1  -9   3-122.167 120.256   1
   1   9   3 126.285 113.323   4
   1  -9   4 71.2237 98.4575   2
  -1  -9   4 106.101 128.020   2
   1   9   4 113.367 115.881   4
   1  -9   4 132.450 99.0325   1
  -1  -9   4 276.038 129.003   1
  -1   9   4 75.0722 131.881   4
  -1   9   5 158.154 125.719   4
  -1  -9   5 181.717 172.231   2
   1  -9   5-24.7083 125.411   2
   1  -9   5 88.0923 109.636   1
  -1  -9   5-57.1821 120.204   1
   1   9   5-237.057 138.672   4
   1   9   6 1208.63 268.852   4
  -1  -9   6 675.367 218.834   2
   1  -9   6 989.547 250.315   2
   1  -9   6 850.293 235.247   1
  -1  -9   6 639.010 200.585   1
  -1   9   6 809.554 223.691   4
  -1   9   7-73.8088 166.083   4
   1  -9   7 108.516 129.727   1
   1   9   7 259.528 181.331   4
   1  -9   7 93.6668 129.305   2
  -1  -9   7 528.660 208.864   2
  -1  -9   7 139.707 166.664   1
   1  -9   8 501.153 197.017   2
  -1   9   8 800.558 223.232   4
   1   9   8 457.622 168.975   4
  -1  -9   8 761.499 268.987   2
  -1  -9   8 826.132 244.864   1
   1  -9   8 393.414 202.704   1
  -1   9   9 590.962 222.791   4
   1  -9   9 328.008 174.247   2
  -1  -9   9 484.068 235.857   2
   1   9   9 470.165 209.688   4
  -1  -9   9 69.3938 154.042   1
   1  -9   9 273.574 178.728   1
  -1  -9  10-90.9783 201.935   2
   1   9  10 121.828 136.816   4
  -1   9  10 261.947 166.014   4
   1  -9  10 570.620 241.025   1
   1  -9  10 14.6558 125.559   2
  -1  -9  10 204.016 208.707   1
   1  -9  11-267.656 249.155   1
   1   9  11-66.6304 160.670   4
  -1  -9  11 20.4044 146.964   1
   1  -9  11 406.252 209.059   2
  -1   9  11 179.011 210.873   4
  -1  -9  11-374.930 259.854   2
   1   9  12 592.552 223.994   4
  -1  -9  12 115.055 173.783   1
  -1  -9  12 64.7178 165.203   2
   1  -9  12-24.1090 187.416   2
   1  -9  12 60.3518 192.000   1
  -1   9  12 340.720 232.280   4
   1  -9  13-547.221 274.095   2
   1  -9  13-159.432 237.752   1
  -1  -9  13 79.1782 225.017   2
  -1  -9  13-130.288 236.274   1
  -1  -9  14 3.96222 185.790   2
  -1  -9  14 157.552 263.784   1
   1  -9  14-85.0922 203.855   2
   1  -9  14-115.127 277.269   1
   1  -9  15 12.9574 208.164   2
  -1  -9  15-325.525 263.178   2
  -1  -9  16 28.4000 213.956   2
  -1  10 -14 1276.19 354.412   4
  -1  10 -13 1167.76 324.162   4
  -1 -10 -13 1287.61 359.754   3
   1  10 -13 1227.14 360.505   4
  -1  10 -12 5705.79 693.276   4
   1  10 -12 4322.08 598.630   4
  -1 -10 -12 4812.94 637.725   3
   1 -10 -11 699.753 303.121   3
   1  10 -11 696.238 264.548   4
  -1  10 -11 724.363 255.255   4
  -1 -10 -11 1077.78 352.672   3
   1  10 -10 2339.48 411.793   4
   1 -10 -10 2545.55 459.982   3
  -1  10 -10 1864.52 388.453   4
  -1 -10 -10 2971.87 496.345   3
  -1  10  -9 3986.36 552.847   4
   1 -10  -9 3762.96 544.195   3
  -1 -10  -9 4776.39 598.140   3
   1  10  -9 4241.67 560.265   4
   1  10  -8 6569.04 655.637   4
   1 -10  -8 6470.87 670.367   3
  -1  10  -8 6161.55 655.976   4
  -1 -10  -8 6938.67 696.964   3
   1 -10  -7 1263.80 311.296   3
  -1 -10  -7 494.031 259.512   3
  -1 -10  -7 741.651 190.851   2
  -1  10  -7 1187.26 296.252   4
   1  10  -7 1064.47 279.178   4
  -1  10  -6 9691.25 795.280   4
  -1 -10  -6 9984.25 647.805   2
   1  10  -6 9595.51 773.346   4
   1 -10  -6 9292.35 767.652   3
   1  10  -5 889.453 265.574   4
  -1  10  -5 613.790 241.674   4
  -1 -10  -5 620.350 156.513   2
   1 -10  -5 439.279 185.324   3
  -1  10  -4 5738.57 600.181   4
   1  10  -4 6287.00 619.038   4
   1 -10  -4 5932.70 575.522   3
  -1 -10  -4 5958.19 508.748   2
   1  10  -3 3527.69 467.700   4
  -1 -10  -3 4004.21 414.317   2
  -1  10  -3 3806.85 481.031   4
  -1 -10  -2 11083.8 713.395   2
  -1  10  -2 9717.95 770.100   4
   1  10  -2 11896.0 845.635   4
  -1  10  -1 4479.03 512.392   4
   1  10  -1 4940.37 545.554   4
  -1 -10  -1 4560.02 465.905   2
  -1 -10  -1 4356.16 326.791   1
  -1 -10   0 12749.5 644.703   1
  -1  10   0 12486.3 873.547   4
  -1 -10   0 11443.6 759.819   2
   1  10   0 12673.6 872.687   4
  -1  10   1 4311.13 514.305   4
  -1 -10   1 4350.46 464.146   2
  -1 -10   1 4474.39 396.947   1
   1 -10   1 4123.22 365.255   1
   1  10   1 5023.02 533.068   4
  -1 -10   2 10920.1 758.003   2
   1 -10   2 10770.7 649.955   1
  -1  10   2 11549.0 842.830   4
  -1 -10   2 10850.3 668.326   1
   1  10   2 10161.8 781.348   4
   1  10   3 3254.77 448.685   4
  -1  10   3 3082.07 448.192   4
  -1 -10   3 3198.87 420.222   2
   1 -10   3 2999.42 354.344   1
  -1 -10   3 2805.38 364.546   1
  -1 -10   4 7272.97 593.459   1
   1  10   4 6058.47 595.078   4
   1 -10   4 5688.34 518.409   1
   1 -10   4 5832.81 569.870   2
  -1 -10   4 6971.71 617.479   2
  -1  10   4 5239.80 575.995   4
  -1 -10   5 854.266 276.458   2
  -1 -10   5 658.387 190.678   1
   1 -10   5 712.274 190.307   1
  -1  10   5 603.882 256.445   4
   1  10   5 677.295 214.223   4
   1 -10   5 905.186 242.192   2
   1 -10   6 10615.1 782.073   2
   1 -10   6 10555.7 787.978   1
  -1 -10   6 9794.85 788.102   2
  -1  10   6 9834.81 785.274   4
  -1 -10   6 9839.18 766.393   1
   1  10   6 9972.80 752.389   4
   1  10   7 876.799 244.268   4
   1 -10   7 1286.20 283.170   2
  -1  10   7 298.814 150.773   4
   1 -10   7 882.768 263.153   1
  -1 -10   7 456.774 201.010   1
  -1 -10   7 1160.61 292.913   2
   1 -10   8 7162.37 677.634   2
  -1 -10   8 6087.38 640.832   2
  -1  10   8 5829.60 604.966   4
   1 -10   8 7096.89 705.958   1
   1  10   8 6842.48 625.842   4
  -1 -10   8 7882.99 721.259   1
  -1 -10   9 4950.64 611.668   1
  -1  10   9 4206.54 515.926   4
   1 -10   9 3556.06 540.502   1
   1  10   9 3817.20 491.901   4
   1 -10   9 5695.56 592.516   2
  -1 -10   9 4137.87 552.874   2
   1  10  10 3237.58 448.098   4
  -1 -10  10 2561.11 440.494   2
  -1  10  10 2999.78 453.362   4
  -1 -10  10 3076.08 495.172   1
   1 -10  10 2839.36 474.029   1
   1 -10  10 2519.32 415.209   2
   1  10  11 1263.48 308.000   4
   1 -10  11 1129.97 308.271   2
  -1  10  11 789.847 243.378   4
  -1 -10  11 79.2110 223.259   2
   1 -10  11 1129.59 330.026   1
  -1 -10  11 853.315 303.678   1
  -1 -10  12 5240.49 679.231   1
   1 -10  12 5070.34 692.489   1
  -1  10  12 5875.51 661.205   4
  -1 -10  12 5728.15 734.966   2
   1  10  12 6811.54 671.572   4
   1 -10  12 5161.75 628.047   2
   1 -10  13 1001.11 322.734   2
   1  10  13 1349.69 365.576   4
   1 -10  13 1360.15 361.233   1
  -1 -10  13 791.135 301.137   2
  -1  10  13 1327.13 388.147   4
  -1 -10  13 1868.31 435.945   1
   1 -10  14 2106.18 420.438   2
  -1 -10  14 1579.77 405.939   2
   1 -10  15-370.542 303.648   2
  -1  11 -13 176.266 205.298   4
   1  11 -12-187.152 183.322   4
  -1  11 -12-182.780 271.476   4
  -1 -11 -11 584.129 273.385   3
  -1  11 -11 638.825 272.021   4
   1  11 -11 102.265 182.548   4
   1 -11 -11-140.293 242.626   3
  -1  11 -10-249.693 228.252   4
  -1 -11 -10-105.039 178.241   3
   1  11 -10 11.8477 164.932   4
   1 -11  -9 1198.77 342.224   3
   1  11  -9 945.195 303.515   4
  -1  11  -9 1519.60 370.707   4
  -1 -11  -9 1895.68 399.474   3
  -1  11  -8-18.2550 223.734   4
   1 -11  -8 64.0985 165.799   3
  -1 -11  -8 191.588 162.816   3
   1  11  -8-214.638 251.313   4
   1 -11  -7 1760.00 375.845   3
  -1  11  -7 1665.60 366.051   4
   1  11  -7 1506.16 354.875   4
  -1 -11  -7 1275.40 327.296   3
  -1 -11  -7 1045.62 211.855   2
   1  11  -6 316.936 199.536   4
  -1  11  -6 408.558 235.140   4
   1 -11  -6 153.148 186.204   3
  -1 -11  -6 189.096 226.761   3
  -1 -11  -6 168.904 135.369   2
  -1  11  -5 4933.86 604.220   4
   1 -11  -5 4088.68 504.175   3
  -1 -11  -5 4923.68 479.823   2
   1  11  -5 5163.03 607.041   4
   1  11  -4 178.213 170.890   4
  -1  11  -4 107.769 169.371   4
  -1 -11  -4 12.9932 103.090   2
   1 -11  -4 30.7212 144.260   3
  -1 -11  -3 3290.34 403.763   2
   1  11  -3 3156.12 474.596   4
  -1  11  -3 2384.51 424.192   4
  -1  11  -2 156.008 193.875   4
  -1 -11  -2 336.400 194.032   2
   1  11  -2 127.706 159.992   4
  -1 -11  -1 3189.34 411.976   2
   1  11  -1 4001.16 525.739   4
  -1  11  -1 2972.85 459.423   4
  -1  11   0 62.6802 154.149   4
   1  11   0-23.9008 141.793   4
  -1 -11   0 292.468 185.386   2
  -1 -11   1 3347.38 440.829   2
   1  11   1 4691.52 551.949   4
  -1 -11   1 3584.61 362.098   1
  -1  11   1 2912.76 446.712   4
  -1 -11   2 270.478 189.742   2
  -1  11   2 190.741 186.850   4
  -1 -11   2 314.877 147.435   1
   1  11   2 373.960 216.239   4
   1 -11   2 251.921 132.661   1
  -1  11   3 3124.48 469.979   4
   1  11   3 3168.34 458.179   4
   1 -11   3 2751.66 417.280   2
   1 -11   3 3053.24 374.139   1
  -1 -11   3 2399.38 382.213   2
  -1 -11   3 2771.84 360.692   1
  -1  11   4 205.358 219.714   4
   1 -11   4 112.766 164.869   2
   1  11   4-141.274 165.605   4
  -1 -11   4 245.131 187.082   2
  -1 -11   4 79.0956 129.228   1
   1 -11   4 107.293 105.909   1
  -1  11   5 4642.81 562.145   4
  -1 -11   5 4590.96 544.404   2
   1 -11   5 4249.11 492.819   1
  -1 -11   5 4520.63 520.799   1
   1  11   5 5734.95 602.407   4
   1 -11   5 5685.57 584.381   2
  -1 -11   6 488.656 228.697   1
  -1  11   6 254.184 173.621   4
   1  11   6-11.7196 144.021   4
   1 -11   6 452.896 197.960   1
  -1 -11   6 211.188 217.295   2
   1 -11   6 366.126 182.801   2
   1 -11   7 1245.89 305.768   2
   1 -11   7 1539.96 339.865   1
  -1  11   7 998.275 273.358   4
   1  11   7 1048.23 298.557   4
  -1 -11   7 1317.68 339.760   2
  -1 -11   7 1333.84 327.865   1
  -1 -11   8 158.215 222.581   2
  -1 -11   8-199.029 252.598   1
   1 -11   8 184.054 205.990   1
   1  11   8 64.4338 156.600   4
   1 -11   8 154.399 184.512   2
  -1  11   8-188.996 204.078   4
   1  11   9 1292.20 311.594   4
  -1  11   9 1836.37 366.774   4
   1 -11   9 1906.21 410.227   1
   1 -11   9 1437.09 323.830   2
  -1 -11   9 1380.97 346.713   2
  -1 -11   9 1417.38 339.056   1
   1  11  10 104.601 140.946   4
  -1 -11  10-220.348 225.918   2
   1 -11  10-125.500 157.023   1
  -1  11  10-197.921 181.349   4
  -1 -11  10-770.004 315.685   1
   1 -11  10-354.417 246.358   2
   1 -11  11 302.107 226.596   1
   1 -11  11 810.450 302.863   2
  -1 -11  11 889.818 296.921   2
   1  11  11-45.8286 156.601   4
  -1 -11  11 518.343 261.399   1
  -1  11  11 668.174 285.958   4
   1 -11  12-164.294 219.842   1
  -1 -11  12-247.473 305.189   2
   1  11  12 130.828 155.761   4
  -1 -11  12 93.3365 244.662   1
  -1  11  12-150.875 212.685   4
   1 -11  12 12.7155 153.554   2
   1 -11  13 492.466 254.935   2
   1  11  13 441.996 261.933   4
  -1  11  13 650.475 256.480   4
  -1  12 -11 102.008 228.282   4
   1 -12 -10 2695.47 494.621   3
   1  12 -10 2842.39 506.467   4
  -1  12 -10 2941.37 549.986   4
  -1  12  -9-257.544 214.404   4
   1 -12  -9 281.438 218.534   3
  -1 -12  -9 77.7075 180.174   3
   1  12  -9 431.974 279.749   4
  -1 -12  -8 1906.92 406.890   3
   1  12  -8 1245.08 334.573   4
   1 -12  -8 1314.65 347.961   3
  -1  12  -8 2152.03 424.809   4
   1  12  -7 309.400 199.321   4
  -1  12  -7 464.990 255.295   4
   1 -12  -7 279.599 215.117   3
  -1 -12  -7 248.262 167.081   3
  -1  12  -6 806.935 273.366   4
   1  12  -6 1111.03 340.321   4
   1 -12  -6 276.478 175.861   3
  -1 -12  -6 712.366 265.364   3
  -1 -12  -6 584.262 205.103   2
  -1  12  -5 3903.95 547.273   4
   1  12  -5 3343.91 531.921   4
   1 -12  -5 4059.04 527.929   3
  -1 -12  -5 3910.79 450.746   2
  -1  12  -4 2335.85 442.212   4
  -1 -12  -4 3500.96 442.487   2
   1  12  -4 2805.39 469.713   4
   1 -12  -4 2648.61 427.153   3
   1  12  -3 661.276 269.274   4
  -1 -12  -3 871.703 257.615   2
  -1  12  -3 1236.18 338.965   4
   1 -12  -3 582.404 216.114   3
   1  12  -2 5328.76 630.563   4
  -1 -12  -2 5023.06 539.546   2
  -1  12  -2 5669.25 663.373   4
  -1 -12  -1 249.194 160.736   2
   1  12  -1 17.4555 182.141   4
  -1  12  -1-14.2538 166.700   4
  -1  12   0 5476.38 652.224   4
   1  12   0 5006.89 616.107   4
  -1 -12   0 4663.91 531.322   2
  -1 -12   1 168.154 197.139   2
   1  12   1 499.019 236.756   4
  -1  12   2 6110.82 683.862   4
   1  12   2 5060.52 627.242   4
   1 -12   2 5755.23 593.997   2
  -1 -12   2 5646.99 599.504   2
   1 -12   3 1085.38 323.829   2
  -1  12   3 1167.95 328.723   4
   1  12   3 676.569 267.349   4
  -1 -12   3 734.922 234.570   2
  -1  12   4 2977.81 498.304   4
   1 -12   4 3161.93 463.978   2
   1  12   4 3906.85 526.593   4
  -1 -12   4 3466.09 502.657   2
   1 -12   4 2654.90 382.719   1
  -1 -12   4 2994.90 420.530   1
  -1  12   5 4299.27 574.921   4
   1  12   5 3852.44 538.239   4
   1 -12   5 4351.54 513.614   1
   1 -12   5 4404.30 550.211   2
  -1 -12   5 4466.00 530.369   1
  -1 -12   5 3812.40 519.646   2
  -1  12   6 648.563 252.202   4
   1 -12   6 516.072 242.166   2
  -1 -12   6 224.888 142.465   1
   1 -12   6 640.703 238.169   1
  -1 -12   6 253.248 169.901   2
   1  12   6 402.804 208.459   4
   1  12   7 222.902 184.560   4
   1 -12   7 357.103 189.884   2
  -1  12   7 8.07944 165.105   4
  -1 -12   7 275.399 259.486   2
  -1 -12   7 379.408 204.547   1
   1 -12   7 156.104 206.069   1
   1  12   8 1881.12 374.715   4
  -1 -12   8 2049.33 419.259   2
  -1  12   8 1253.44 323.158   4
   1 -12   8 2076.44 410.564   2
   1 -12   8 1714.98 393.261   1
  -1 -12   8 1285.46 340.361   1
  -1 -12   9-281.168 223.355   1
   1 -12   9-283.594 202.297   2
  -1 -12   9-88.6234 211.650   2
   1 -12   9 169.462 178.493   1
  -1  12   9-228.790 195.214   4
   1  12   9-55.0267 192.888   4
   1 -12  10 2987.41 508.685   2
  -1 -12  10 2070.08 428.133   2
   1  12  10 3175.03 497.070   4
   1 -12  10 3538.09 571.657   1
  -1 -12  10 1945.20 451.375   1
  -1  12  10 2883.74 500.472   4
   1  12  11-479.333 229.066   4
  -1  12  11 149.507 161.301   4
   1 -12  11-100.947 217.446   1
  -1 -12  11 74.7502 230.138   1
   1  12  12 724.651 291.020   4
  -1  13  -8 2619.70 518.390   4
   1 -13  -8 2860.46 526.525   3
  -1  13  -7 3457.48 574.999   4
   1 -13  -7 2909.28 495.895   3
  -1 -13  -7 2925.11 497.710   3
   1  13  -7 3489.86 574.054   4
  -1 -13  -6 1139.70 264.304   2
   1 -13  -6 886.613 284.195   3
  -1  13  -6 262.892 160.922   4
   1  13  -6 965.082 323.986   4
  -1 -13  -6 490.155 269.110   3
   1  13  -5 2729.12 504.648   4
  -1 -13  -5 2582.33 394.764   2
  -1  13  -5 2811.71 509.087   4
   1 -13  -5 2109.72 408.425   3
  -1  13  -4 1390.96 356.904   4
   1  13  -4 1504.05 402.959   4
  -1 -13  -4 1324.07 300.426   2
   1 -13  -4 1448.63 346.679   3
  -1  13  -3 4613.67 624.903   4
   1 -13  -3 4012.86 521.401   3
  -1 -13  -3 4617.37 534.815   2
   1  13  -3 4169.28 615.166   4
  -1  13  -2 5860.44 696.122   4
  -1 -13  -2 6038.41 616.134   2
   1  13  -2 5460.82 687.036   4
   1  13  -1 2095.61 426.704   4
  -1  13  -1 1297.18 369.790   4
  -1 -13  -1 1331.19 314.201   2
  -1 -13   0 2720.26 438.916   2
  -1  13   0 2151.94 436.759   4
   1  13   0 2402.75 458.642   4
   1 -13   0 2540.09 419.638   2
  -1  13   1 2145.59 451.092   4
   1 -13   1 2162.00 394.964   2
   1  13   1 1246.10 348.707   4
  -1 -13   1 2098.74 410.148   2
   1  13   2 5017.45 647.613   4
   1 -13   2 5678.81 628.965   2
  -1 -13   2 5283.64 606.019   2
  -1  13   2 6021.04 716.407   4
  -1  13   3 4506.70 618.173   4
   1 -13   3 5491.15 642.627   2
  -1 -13   3 4071.00 544.592   2
   1  13   3 4506.09 608.941   4
   1 -13   4 1501.87 346.032   2
   1  13   4 1857.97 406.185   4
  -1 -13   4 772.790 279.057   2
  -1  13   4 1084.46 302.696   4
   1 -13   5 2803.96 471.918   2
  -1  13   5 3359.21 551.226   4
  -1 -13   5 2460.60 459.146   2
   1  13   5 2521.13 466.912   4
   1 -13   6 729.078 290.606   2
  -1 -13   6 1285.06 361.754   2
  -1 -13   6 1113.25 279.204   1
   1  13   6 704.916 265.383   4
  -1  13   6 934.139 306.847   4
   1 -13   7 2068.60 418.977   2
  -1  13   7 2462.49 467.933   4
   1 -13   7 2983.63 477.297   1
  -1 -13   7 2069.03 412.984   1
   1  13   7 3102.38 507.755   4
  -1 -13   7 3151.18 552.698   2
  -1  13   8 2260.58 450.361   4
   1 -13   8 1445.10 360.521   1
   1  13   8 2793.09 471.725   4
  -1 -13   8 2559.77 465.175   1
   1 -13   9 1568.24 391.657   1
  -1 -13   9 1014.98 326.825   1
   1  13   9 610.798 282.240   4
   1  13  10 1740.12 400.823   4
  -1 -14  -5 906.089 281.560   2
   1 -14  -5 1181.29 330.033   3
  -1 -14  -4 582.385 266.920   2
   1 -14  -4 864.204 266.824   3
   1  14  -3 2647.57 521.804   4
  -1  14  -3 2517.20 499.884   4
  -1 -14  -3 1910.17 381.620   2
   1 -14  -3 1268.65 350.814   3
   1 -14  -3 1951.63 383.345   2
   1 -14  -2 3696.40 523.788   2
  -1  14  -2 3584.92 603.038   4
   1  14  -2 5112.76 700.918   4
  -1 -14  -2 4511.38 559.256   2
   1 -14  -2 3555.40 505.662   3
  -1  14  -1 25.4761 231.116   4
   1  14  -1-84.0266 160.993   4
   1 -14  -1 42.6383 129.489   2
  -1 -14  -1 302.494 221.612   2
  -1  14   0 1027.94 347.752   4
   1  14   0 748.100 250.976   4
  -1 -14   0 1702.54 372.777   2
   1 -14   0 1074.57 312.529   2
   1  14   1-317.046 285.517   4
  -1 -14   1 162.329 171.179   2
  -1  14   1 184.352 216.561   4
   1 -14   1 160.333 216.711   2
  -1 -14   2 4728.53 610.804   2
   1  14   2 4047.95 620.534   4
   1 -14   2 3705.96 551.476   2
  -1  14   2 3939.46 616.775   4
  -1  14   3 2201.40 490.555   4
   1 -14   3 2796.77 478.519   2
   1  14   3 2752.88 528.905   4
  -1 -14   3 2206.24 462.035   2
   1  14   4 1513.64 405.423   4
   1  14   5 975.287 313.970   4
   1 -15  -2 701.373 259.385   3
   1 -15  -1-270.183 214.080   3
   2   0  -5 156083. 3425.44   2
  -2   0  -5 147234. 3312.01   3
  -2   0  -4 1337.66 123.078   3
   2   0  -4 1503.76 159.673   2
  -2   0  -4 1188.64 153.971   1
   2   0  -3 169492. 3678.42   2
   2   0  -2 30170.7 826.530   2
   2   0  -1 59544.7 1372.22   2
  -2   0  -1 57314.4 1339.68   2
  -2   0   0 28497.7 758.328   2
   2   0   0 29059.1 743.623   2
  -2   0   1 59654.3 1429.35   2
   2   0   1 61652.5 1372.56   2
   2   0   2 30565.0 735.556   2
  -2   0   2 28667.2 824.209   2
  -2   0   3 163856. 3612.33   2
   2   0   3 167349. 3439.29   2
  -2   0   4 1352.32 144.630   2
  -2   0   5 142107. 3201.17   2
   2   0   6 13455.6 384.863   2
  -2   0   6 13583.8 556.993   2
   2   0   7 83799.3 2052.46   3
   2   0   7 82711.8 1836.67   2
  -2   0   7 84751.5 2089.59   2
  -2   0   8 9374.19 481.451   2
   2   0   8 9717.03 321.357   2
  -2   0   9 35613.6 1135.96   2
   2   0   9 35869.6 860.067   2
  -2   0   9 33888.7 1204.47   1
   2   0  10 108.225 37.3641   2
  -2   0  10 169.392 84.0270   2
  -2   0  10 39.1961 97.3544   1
  -2   0  11 18190.3 779.916   2
   2   0  11 18921.5 524.667   2
  -2   0  11 18341.9 890.095   1
  -2   0  12 1900.60 287.757   1
  -2   0  12 1979.34 247.730   2
  -2   0  13 21123.6 1045.23   1
  -2   0  13 21546.4 911.488   2
  -2   0  14 10359.9 618.871   2
  -2   0  14 9979.16 722.872   1
  -2   0  15 9182.22 722.498   1
  -2   0  16 548.026 211.161   1
  -2   0  17 7814.37 714.194   1
  -2   0  18 797.196 276.782   1
  -2  -1  -8-7.37309 53.5319   4
  -2  -1  -7 5702.74 390.872   3
  -2  -1  -7 6312.09 317.294   4
  -2  -1  -6 165.742 52.9165   4
  -2  -1  -6 126.338 65.1422   3
  -2  -1  -5 24811.1 667.350   4
   2  -1  -5 24873.6 776.646   2
  -2  -1  -5 22791.1 789.390   3
  -2  -1  -5 24903.2 828.569   1
  -2   1  -4 15860.2 485.217   4
   2  -1  -4 16053.6 604.360   4
  -2  -1  -4 18637.0 480.401   4
   2   1  -4 19259.9 737.703   2
  -2   1  -4 18158.2 680.372   1
   2  -1  -4 15879.5 577.076   2
  -2   1  -3 7876.61 267.069   4
   2   1  -3 9056.61 443.750   2
   2  -1  -3 7729.77 361.628   4
  -2   1  -3 9470.79 426.787   1
   2  -1  -3 7628.69 348.580   2
  -2  -1  -3 8183.70 244.020   2
  -2  -1  -3 8183.21 244.190   4
   2  -1  -2 2229.04 170.108   2
  -2   1  -2 2133.62 122.718   4
   2  -1  -2 2418.66 172.793   4
  -2  -1  -2 2612.06 131.844   2
   2   1  -2 2568.86 210.380   2
  -2   1  -1 21097.0 556.487   4
   2  -1  -1 20752.8 604.444   4
   2   1  -1 22163.6 677.157   2
   2  -1  -1 20743.4 638.895   2
  -2  -1  -1 21118.8 588.845   2
   2  -1   0 5698.82 268.208   2
   2   1   0 5241.85 259.046   2
  -2   1   0 5550.02 231.225   4
  -2  -1   0 5283.27 259.276   2
   2  -1   0 5102.90 226.606   4
   2  -1   1 20800.8 545.808   4
  -2  -1   1 20494.9 656.227   2
  -2   1   1 19301.8 629.874   2
  -2   1   1 21228.8 612.060   4
   2   1   1 21234.1 588.116   2
  -2   1   2 2394.26 182.845   2
   2  -1   2 2172.22 115.246   4
  -2  -1   2 2057.39 188.117   2
   2   1   2 2186.68 128.750   2
  -2  -1   3 7891.45 403.467   2
  -2   1   3 7628.58 360.440   2
   2   1   3 8020.99 235.806   4
   2   1   3 8090.47 254.599   2
  -2   1   4 15501.2 570.698   2
  -2  -1   4 15648.4 619.060   2
   2  -1   4 15346.7 440.628   3
  -2   1   5 23390.0 778.242   2
   2  -1   5 24957.2 683.091   3
  -2  -1   5 24189.8 845.894   2
   2  -1   6 237.870 56.5738   2
   2  -1   6 330.195 67.4531   3
  -2  -1   6 130.684 59.7056   2
  -2   1   6 225.546 78.0178   2
  -2   1   7 6132.90 361.494   2
   2  -1   7 5767.42 327.721   3
  -2  -1   7 6114.25 392.674   2
   2  -1   7 6234.75 288.436   2
   2  -1   8 68.3370 37.6042   2
  -2  -1   8 136.784 69.2603   2
   2  -1   8 141.261 114.965   1
  -2   1   8 52.3594 64.1645   2
  -2  -1   9 6623.97 427.625   2
   2  -1   9 6526.24 347.272   2
   2  -1   9 5919.62 474.674   1
  -2  -1   9 5896.50 451.604   1
  -2   1   9 7164.30 444.708   1
  -2   1   9 6038.47 392.046   2
  -2  -1  10 316.102 148.620   1
   2  -1  10 365.078 83.7322   2
  -2   1  10 318.000 98.0322   1
  -2  -1  10 404.094 121.178   2
   2  -1  10 265.286 117.696   1
  -2   1  10 413.935 107.396   2
  -2   1  11 3788.76 326.243   2
  -2  -1  11 3554.28 323.250   2
  -2   1  11 3889.09 368.713   1
   2  -1  11 3496.07 396.455   1
  -2  -1  11 3735.58 399.593   1
   2  -1  11 4045.93 254.775   2
  -2   1  12 676.258 155.666   2
  -2  -1  12 453.134 142.356   2
  -2  -1  12 754.788 207.139   1
  -2   1  12 749.001 181.416   1
   2  -1  12 548.859 90.4739   2
  -2   1  13 1471.88 257.929   1
  -2   1  13 1691.55 242.396   2
  -2  -1  13 1504.51 298.349   1
  -2  -1  13 2128.63 270.168   2
  -2   1  14 24.5555 80.7518   2
  -2  -1  14 138.462 165.057   1
  -2   1  14-33.0737 121.133   1
  -2  -1  14 22.2908 99.9243   2
  -2  -1  15 63.8079 127.834   1
  -2   1  15-31.9631 119.633   1
  -2  -1  15 125.080 122.338   2
  -2  -1  16-25.0534 151.996   1
  -2   1  16 104.846 112.663   1
  -2   1  17 1744.59 314.187   1
  -2  -1  17 1084.65 284.925   1
  -2  -1  18 789.518 293.836   1
  -2  -1  19 1018.85 311.566   1
  -2  -2  -8-58.1251 75.6124   3
  -2  -2  -7 5411.22 405.036   3
  -2  -2  -7 6447.23 341.362   4
  -2  -2  -6 324.189 77.3433   4
  -2  -2  -6 495.555 102.665   1
  -2  -2  -6 335.019 100.221   3
  -2  -2  -5 929.490 107.007   4
  -2   2  -5 537.329 90.3137   4
  -2  -2  -5 678.094 136.826   3
   2  -2  -5 794.204 118.904   2
   2  -2  -4 28.2819 40.3478   2
  -2  -2  -4-25.2656 43.3351   4
  -2   2  -4-33.8292 41.7399   4
  -2  -2  -4 53.0593 23.1717   2
   2   2  -3 195.179 94.6579   2
  -2   2  -3 165.995 55.1259   4
   2  -2  -3 204.965 67.0723   2
  -2  -2  -3 304.507 57.1986   4
  -2   2  -3 236.464 81.9719   1
  -2  -2  -3 159.698 48.4101   2
   2  -2  -3 55.8576 42.1569   4
   2  -2  -2 8812.75 394.913   4
  -2   2  -2 9307.41 426.001   1
  -2  -2  -2 8694.32 374.507   2
   2   2  -2 8192.21 454.067   2
  -2  -2  -2 8852.79 308.378   4
  -2   2  -2 8004.92 339.522   4
   2  -2  -2 8726.08 401.452   2
  -2   2  -1 13181.9 462.394   4
   2  -2  -1 13747.2 503.874   4
   2  -2  -1 13019.6 506.866   2
  -2  -2  -1 12409.0 511.915   2
   2   2  -1 13033.0 553.501   2
  -2   2   0 18450.9 588.832   4
   2  -2   0 19611.3 599.229   4
  -2  -2   0 16432.5 654.869   2
  -2   2   0 17810.8 513.347   3
   2   2   0 17523.5 635.592   2
   2   2   1 13358.1 418.858   4
  -2  -2   1 12616.3 570.044   2
   2  -2   1 12553.1 344.151   3
  -2   2   1 13248.2 451.351   3
   2   2   1 13014.0 472.375   2
  -2   2   1 12438.4 479.226   4
   2  -2   1 13132.5 446.838   4
  -2   2   2 8640.44 389.907   4
   2   2   2 7876.93 300.697   4
  -2  -2   2 7304.29 441.394   2
   2   2   2 8625.06 325.205   2
  -2   2   2 9057.26 389.557   3
   2  -2   2 8583.61 326.789   4
   2   2   3 130.185 45.5322   4
  -2   2   3 319.325 88.2153   3
   2  -2   3 206.504 51.1838   4
   2   2   3 186.382 40.4286   2
  -2   2   3 110.438 70.2181   4
  -2  -2   3 124.089 80.6517   2
  -2   2   4 9.39467 67.8143   4
  -2  -2   4 23.1299 65.8362   2
   2   2   4 25.6827 33.1163   4
  -2   2   4-25.2525 62.4069   2
   2   2   5 416.459 96.5126   4
  -2   2   5 650.363 110.150   2
   2  -2   5 422.061 130.638   1
  -2  -2   5 661.701 190.935   2
  -2   2   6 418.494 109.031   2
  -2  -2   6 372.483 116.595   2
   2  -2   6 324.708 114.007   1
  -2   2   7 5155.39 343.771   2
  -2  -2   7 5313.91 398.992   2
   2  -2   7 5543.80 436.437   1
   2  -2   7 5702.07 312.818   2
   2  -2   7 5900.97 320.436   3
  -2  -2   8 217.332 126.455   2
   2  -2   8 142.188 119.595   1
  -2   2   8-54.1602 69.9585   2
   2  -2   8-6.58993 51.6038   3
   2  -2   8 134.821 65.0709   2
   2  -2   9 486.686 156.927   1
  -2   2   9 654.682 139.537   2
  -2  -2   9 950.169 199.037   1
  -2  -2   9 989.154 181.871   2
   2  -2   9 948.549 141.622   2
  -2   2   9 1132.15 168.109   1
   2  -2  10 1642.91 275.535   1
   2  -2  10 1801.11 202.383   2
  -2   2  10 1355.88 186.446   2
  -2  -2  10 1953.94 282.998   1
  -2  -2  10 1794.89 243.932   2
  -2   2  10 1797.78 227.436   1
  -2   2  11 272.069 115.865   1
  -2   2  11 249.940 98.2689   2
   2  -2  11 78.9177 135.783   1
   2  -2  11 83.1832 76.3855   2
  -2  -2  11 149.195 132.529   1
  -2  -2  11 126.688 78.4299   2
   2  -2  12 37.2171 135.380   1
  -2   2  12 74.4566 90.7868   1
  -2   2  12 211.433 113.260   2
   2  -2  12 165.811 91.4006   2
  -2  -2  12 68.6779 116.484   1
  -2  -2  12 394.069 140.822   2
  -2  -2  13 379.582 176.576   1
   2  -2  13-102.742 128.110   1
  -2   2  13 379.527 136.504   2
  -2  -2  13-22.6522 93.3712   2
  -2   2  13 185.255 145.853   1
  -2  -2  14 2496.42 312.311   2
  -2  -2  14 2376.97 373.367   1
  -2   2  14 2031.47 276.518   2
  -2   2  14 2117.48 299.591   1
  -2  -2  15-27.4047 104.923   2
  -2  -2  15-36.0131 175.070   1
  -2   2  15 188.968 131.152   1
  -2  -2  16-128.914 174.480   1
  -2  -2  17 427.103 230.943   1
  -2  -2  18-311.524 194.471   1
  -2  -2  19 216.290 177.726   1
  -2  -3 -10 2204.53 320.984   3
  -2  -3  -9 550.101 157.303   3
  -2  -3  -8 916.799 189.139   3
  -2   3  -7 6461.25 394.210   4
  -2  -3  -7 6782.64 375.933   1
  -2  -3  -7 6762.21 473.696   3
  -2  -3  -6 860.070 123.882   4
  -2  -3  -6 840.322 128.914   1
  -2  -3  -6 847.924 78.6770   2
  -2   3  -6 1026.24 146.272   4
  -2  -3  -6 848.173 177.220   3
  -2  -3  -5 1720.04 162.248   4
  -2  -3  -5 1667.77 121.799   2
  -2   3  -5 1832.15 183.588   4
  -2  -3  -4 26124.0 728.284   2
  -2  -3  -4 27301.1 803.710   4
  -2   3  -4 23981.0 796.291   4
  -2   3  -3 5262.50 300.754   4
   2  -3  -3 5515.55 339.039   2
  -2  -3  -3 5165.95 271.939   4
  -2  -3  -3 5152.84 272.594   2
  -2  -3  -2 32499.4 879.297   4
   2  -3  -2 31132.4 991.922   4
  -2   3  -2 30447.8 930.030   4
   2  -3  -2 30417.8 944.096   3
  -2   3  -2 32624.7 979.345   1
  -2  -3  -2 32327.8 927.289   2
   2   3  -1 3305.40 235.130   4
   2  -3  -1 3437.38 257.845   4
  -2   3  -1 3071.45 233.063   4
   2  -3  -1 3275.28 219.444   3
  -2   3  -1 3680.60 244.216   1
   2   3  -1 3370.60 265.788   2
  -2  -3  -1 3515.05 255.612   2
  -2  -3  -1 3595.45 221.066   4
   2  -3   0 34070.2 990.272   4
  -2   3   0 33732.9 999.909   4
   2   3   0 32135.8 939.121   4
   2   3   0 36181.8 1024.13   2
  -2  -3   0 36105.0 1075.04   2
   2  -3   0 31999.2 885.234   3
   2   3   1 3507.99 221.493   4
  -2   3   1 3645.01 269.629   4
  -2  -3   1 3484.00 292.681   2
   2   3   1 3949.24 244.180   2
   2  -3   1 3469.75 235.182   4
  -2   3   2 30661.6 928.871   3
  -2   3   2 29869.3 959.679   4
  -2  -3   2 30597.8 1078.74   2
   2   3   2 30788.7 872.937   4
   2  -3   2 31070.8 885.744   4
   2   3   3 5362.90 285.435   4
  -2   3   3 5407.40 350.249   4
   2  -3   3 5360.59 293.473   4
  -2  -3   3 5000.96 400.297   2
   2  -3   4 25745.1 932.654   1
  -2   3   4 25031.7 890.111   4
  -2  -3   4 25739.1 1024.42   2
   2   3   4 24174.2 751.796   4
   2  -3   5 1542.37 219.971   1
   2   3   5 1572.13 159.520   4
  -2   3   5 1790.38 215.475   4
  -2  -3   5 1767.02 246.874   2
  -2   3   6 1124.80 190.281   4
   2   3   6 1235.28 147.730   4
   2  -3   6 946.949 183.527   1
  -2  -3   6 916.295 178.618   2
   2  -3   7 6632.34 496.098   1
   2  -3   7 5854.33 365.464   2
  -2  -3   7 6602.38 495.300   2
   2   3   7 6411.75 368.523   4
   2  -3   8 1053.10 155.438   2
  -2   3   8 823.475 123.598   1
  -2  -3   8 631.588 159.939   2
   2  -3   8 597.084 160.411   1
  -2  -3   9 679.315 193.041   1
   2  -3   9 437.015 165.310   1
  -2   3   9 487.803 112.200   1
  -2  -3   9 421.666 157.585   2
   2  -3   9 516.868 141.464   2
  -2  -3  10 2040.08 307.117   1
  -2  -3  10 1621.11 243.872   2
   2  -3  10 2100.90 233.138   2
   2  -3  10 2288.41 359.409   1
  -2   3  10 2156.68 225.913   1
   2  -3  11 4097.11 481.535   1
  -2  -3  11 4936.18 495.141   1
   2  -3  11 4858.14 386.703   2
  -2   3  11 4286.73 346.615   1
  -2  -3  11 4999.97 442.873   2
  -2  -3  12 5475.81 532.125   1
   2  -3  12 4440.53 526.348   1
  -2  -3  12 5454.47 468.362   2
  -2   3  12 5649.99 423.883   1
   2  -3  12 5343.69 436.131   2
  -2   3  13 28.7339 85.4928   1
   2  -3  13 1.54477 96.5795   2
   2  -3  13 88.4953 140.624   1
  -2  -3  13-44.0674 93.8543   2
  -2  -3  14 428.331 190.883   1
   2  -3  14 527.958 253.973   1
  -2   3  14 531.338 166.257   1
  -2  -3  14 193.621 116.105   2
  -2  -3  15 12.1356 150.107   1
   2  -3  15 314.905 219.652   1
  -2  -3  15 191.818 111.708   2
  -2  -3  16 1586.23 375.262   1
  -2  -3  17 1106.71 323.323   1
  -2  -3  18 1052.60 322.812   1
  -2   4 -11 12856.5 753.976   4
  -2  -4 -11 12776.7 846.594   3
  -2  -4 -10 7120.26 595.868   3
  -2   4 -10 8249.28 567.795   4
  -2   4  -9 9027.76 570.036   4
  -2  -4  -9 9807.27 666.834   3
  -2  -4  -8 6803.55 525.790   3
  -2  -4  -8 6523.37 234.382   2
  -2  -4  -8 6830.50 226.105   2
  -2   4  -8 7034.24 466.962   4
  -2   4  -7 8171.77 483.705   4
  -2  -4  -7 7909.87 549.861   3
  -2  -4  -7 8333.22 405.503   1
  -2  -4  -7 7869.80 292.852   2
  -2   4  -6 267.423 87.0467   4
  -2  -4  -6 288.804 73.4616   1
  -2  -4  -6 414.954 73.2298   2
  -2   4  -5 9492.50 490.462   4
  -2  -4  -5 9900.11 383.800   2
  -2  -4  -4 18153.4 667.591   4
   2  -4  -4 16103.2 739.789   3
  -2   4  -4 16754.3 682.091   4
  -2  -4  -4 17830.6 588.618   2
  -2  -4  -3 67861.8 1644.35   4
  -2  -4  -3 62377.9 1581.92   2
  -2   4  -3 59719.3 1677.36   4
   2  -4  -3 63964.1 1744.02   3
   2   4  -2 14091.6 604.136   4
  -2  -4  -2 14784.4 562.084   4
  -2  -4  -2 13894.0 557.892   2
   2  -4  -2 13954.1 592.133   3
  -2   4  -2 13952.4 606.725   4
   2   4  -1 31677.9 1018.43   4
   2  -4  -1 33373.7 997.761   3
  -2   4  -1 32419.0 973.764   1
  -2  -4  -1 33304.5 1027.53   2
  -2   4  -1 32279.1 1047.78   4
  -2  -4  -1 36093.7 1006.35   4
  -2   4   0 14928.2 646.873   4
  -2   4   0 15672.8 553.757   1
  -2  -4   0 15182.4 640.396   2
   2   4   0 14425.6 588.083   4
  -2   4   1 32456.0 890.440   1
   2   4   1 31312.0 984.559   4
  -2   4   1 32629.5 1066.01   4
  -2  -4   1 32722.5 1080.81   2
  -2   4   2 13665.8 619.499   4
  -2  -4   2 13909.1 662.471   2
   2   4   2 12857.3 543.165   4
   2   4   3 62970.0 1610.74   4
   2  -4   3 61652.3 1712.89   1
  -2   4   3 58877.6 1712.65   4
  -2  -4   3 62974.8 1835.19   2
  -2   4   4 17378.7 752.210   4
   2   4   4 17772.8 662.103   4
  -2  -4   4 16944.3 818.886   2
   2  -4   4 16098.1 745.888   1
   2   4   5 9166.71 457.111   4
  -2   4   5 10115.3 558.817   4
   2  -4   5 9886.91 580.865   1
  -2  -4   5 10052.1 638.387   2
   2   4   6 370.979 99.3762   4
   2  -4   6 201.043 118.239   1
  -2   4   6 612.284 157.182   4
  -2  -4   6 225.324 143.024   2
  -2   4   7 7874.07 328.415   1
  -2  -4   7 7581.56 582.870   2
   2  -4   7 7359.82 450.486   2
   2  -4   7 7939.57 582.131   1
   2   4   7 8183.02 441.215   4
  -2   4   7 8601.41 555.509   4
  -2  -4   8 6644.39 521.971   1
   2   4   8 5892.72 471.109   4
  -2   4   8 7663.58 348.841   1
   2  -4   8 6700.92 562.794   1
   2  -4   8 7340.30 459.032   2
  -2  -4   8 7280.74 571.196   2
  -2  -4   9 8233.01 614.194   1
   2  -4   9 9564.91 535.184   2
   2  -4   9 9161.14 688.807   1
  -2  -4   9 8850.02 643.000   2
  -2   4   9 9741.67 431.718   1
  -2  -4  10 8031.74 600.407   2
  -2  -4  10 6618.44 573.006   1
  -2   4  10 7904.42 414.046   1
   2  -4  10 7942.48 664.806   1
   2  -4  10 8601.76 531.579   2
  -2  -4  11 12170.3 763.900   2
   2  -4  11 12096.1 867.490   1
   2  -4  11 14491.1 734.046   2
  -2   4  11 13981.8 610.391   1
  -2  -4  11 13282.3 850.610   1
  -2  -4  12 905.157 257.954   1
   2  -4  12 693.046 156.499   2
   2  -4  12 900.036 251.950   1
  -2  -4  12 926.501 224.785   2
  -2   4  12 845.253 155.849   1
  -2  -4  13 8697.61 739.208   1
   2  -4  13 10520.2 688.457   2
   2  -4  13 9386.38 814.144   1
  -2  -4  13 9688.05 687.282   2
  -2  -4  14 2147.07 392.980   1
  -2  -4  14 1967.19 313.059   2
   2  -4  14 2094.87 384.566   1
   2  -4  15 2113.38 410.522   1
  -2  -4  15 2566.51 356.273   2
  -2  -4  15 2578.74 441.525   1
  -2  -4  16 960.405 233.754   2
  -2  -4  16-45.3511 144.234   1
  -2  -4  17-25.8866 195.756   1
  -2  -4  18-249.170 274.237   1
  -2   5 -14 3806.50 473.225   4
  -2   5 -13 1758.21 316.673   4
  -2   5 -12 9551.41 710.047   4
  -2   5 -11 1788.92 289.160   4
  -2  -5 -11 2049.46 362.505   3
  -2   5 -10 14959.9 822.591   4
  -2  -5 -10 14141.9 878.938   3
  -2   5  -9 1341.36 235.298   4
  -2  -5  -9 1351.21 253.861   3
  -2  -5  -9 1625.64 116.968   2
  -2  -5  -8 12378.9 763.818   3
  -2  -5  -8 13098.7 462.203   2
  -2  -5  -8 12769.6 438.739   2
  -2  -5  -8 12937.5 504.846   1
  -2   5  -8 12668.8 696.882   4
  -2  -5  -7 4316.71 428.422   3
  -2   5  -7 4719.65 390.480   4
  -2  -5  -7 5275.79 290.089   1
  -2  -5  -7 4687.23 254.923   2
   2  -5  -6 24483.7 1069.37   3
  -2   5  -6 23585.6 936.799   4
  -2  -5  -6 23721.7 733.978   2
   2  -5  -5 20695.5 920.760   3
  -2  -5  -5 19905.9 675.063   2
  -2   5  -5 19749.1 820.664   4
   2   5  -4 37557.4 1273.49   4
  -2  -5  -4 38375.0 1097.37   2
   2  -5  -4 40416.5 1329.97   3
  -2   5  -4 36410.4 1233.40   4
   2   5  -3 6439.41 435.337   4
  -2   5  -3 6600.57 442.767   4
  -2  -5  -3 7026.25 382.840   2
   2  -5  -3 7046.65 453.788   3
   2   5  -2 45593.2 1358.86   4
   2  -5  -2 43288.0 1314.71   3
  -2  -5  -2 41238.7 1233.60   2
  -2   5  -2 39765.0 1318.38   4
   2  -5  -1 7725.58 431.880   3
   2   5  -1 6676.85 425.031   4
  -2  -5  -1 7798.17 440.040   2
  -2   5  -1 6696.84 439.375   4
  -2   5  -1 7107.42 378.743   1
  -2   5   0 18101.1 619.001   1
   2   5   0 18819.8 749.044   4
  -2   5   0 16235.6 745.227   4
  -2  -5   0 17500.3 732.258   2
  -2   5   1 7671.88 487.494   4
   2   5   1 7684.06 447.606   4
  -2  -5   1 7679.23 475.644   2
  -2   5   1 8033.27 345.349   1
  -2   5   2 41439.8 1366.53   4
  -2   5   2 42929.9 1055.15   1
  -2  -5   2 42978.5 1383.72   2
   2   5   2 40126.6 1271.01   4
   2  -5   3 6218.64 434.661   1
  -2   5   3 7597.10 276.988   1
  -2  -5   3 7040.57 492.036   2
  -2   5   3 6082.75 448.392   4
   2   5   3 6869.68 418.325   4
   2   5   4 36355.2 1185.81   4
  -2   5   4 38288.8 1305.98   4
  -2   5   4 39105.2 894.869   1
   2  -5   4 36396.8 1293.21   1
  -2  -5   4 36731.3 1353.03   2
   2   5   5 19273.0 773.332   4
  -2   5   5 18548.1 848.559   4
   2  -5   5 20463.4 915.740   1
  -2  -5   5 19507.2 943.007   2
  -2   5   6 23538.0 579.961   1
   2   5   6 23442.2 887.104   4
   2  -5   6 22775.8 1039.85   1
  -2  -5   6 24381.4 1109.83   2
  -2   5   6 25883.0 1022.70   4
  -2   5   7 4779.05 453.311   4
   2  -5   7 5749.13 510.575   1
   2  -5   7 4709.29 386.305   2
  -2  -5   7 4379.13 463.385   2
  -2   5   7 5203.39 207.288   1
   2   5   7 5169.80 377.734   4
  -2   5   8 13981.5 774.775   4
  -2  -5   8 11937.1 748.485   1
  -2  -5   8 13775.7 857.773   2
   2   5   8 12665.6 655.851   4
   2  -5   8 13287.8 827.557   1
   2  -5   8 13515.6 685.306   2
  -2   5   8 13485.2 428.379   1
   2   5   9 2112.85 252.490   4
  -2  -5   9 1816.60 291.715   2
  -2   5   9 1890.80 289.116   4
   2  -5   9 1754.94 248.745   2
  -2   5   9 1756.76 144.686   1
  -2  -5   9 1444.70 270.498   1
   2  -5   9 2058.36 339.968   1
  -2  -5  10 13836.5 876.541   1
   2  -5  10 12964.4 896.731   1
  -2   5  10 13858.6 513.580   1
   2  -5  10 14552.4 752.300   2
  -2  -5  10 14260.9 887.919   2
  -2  -5  11 1387.35 281.073   1
   2  -5  11 1386.67 298.375   1
  -2  -5  11 1403.49 286.735   2
   2  -5  11 969.338 205.579   2
  -2  -5  12 9848.38 724.067   2
   2  -5  12 10004.3 826.924   1
   2  -5  12 9980.43 670.612   2
  -2  -5  12 9659.96 773.595   1
  -2  -5  13 2266.97 386.565   1
   2  -5  13 2115.24 411.139   1
   2  -5  13 1389.70 249.494   2
  -2  -5  13 2105.27 337.444   2
   2  -5  14 3161.06 503.497   1
  -2  -5  14 4333.25 485.859   2
  -2  -5  14 3247.64 485.831   1
   2  -5  15 1686.97 431.787   1
  -2  -5  15 2098.37 418.549   1
  -2  -5  15 1915.20 334.207   2
  -2  -5  16 6540.72 731.483   1
   2  -5  16 5334.95 703.318   1
  -2  -5  16 6064.50 583.949   2
  -2  -5  17 841.312 308.446   1
  -2   6 -14 64.2022 140.206   4
  -2   6 -13 2910.41 430.607   4
  -2   6 -12 1655.35 327.704   4
  -2  -6 -12 1155.66 298.254   3
  -2   6 -11 1828.98 306.499   4
  -2  -6 -11 2413.80 387.468   3
  -2   6 -10 210.877 134.486   4
  -2  -6 -10 163.673 147.828   3
  -2   6  -9 390.517 152.084   4
  -2  -6  -9 511.710 175.128   3
  -2   6  -8 1735.59 264.767   4
  -2  -6  -8 1826.09 300.640   3
  -2  -6  -8 1850.35 171.631   2
  -2  -6  -7 203.011 75.3253   2
  -2   6  -7 283.353 135.446   4
  -2  -6  -7 152.320 55.4331   1
   2  -6  -7 376.077 190.977   3
  -2  -6  -7 160.176 148.899   3
   2   6  -6 4411.72 416.142   4
  -2   6  -6 4418.00 391.965   4
  -2  -6  -6 4333.57 292.010   2
   2  -6  -6 4109.79 428.221   3
  -2   6  -5 388.659 133.922   4
   2   6  -5 459.664 153.799   4
   2  -6  -5 309.895 128.433   3
  -2  -6  -5 365.680 103.462   2
  -2  -6  -4 55.4777 67.3214   2
   2   6  -4 207.876 152.945   4
   2  -6  -4-14.5282 100.925   3
  -2   6  -4 25.1696 84.5591   4
   2  -6  -3 2798.98 308.082   3
  -2  -6  -3 2744.92 258.653   2
   2   6  -3 2964.51 314.574   4
  -2   6  -3 2983.12 315.303   4
  -2   6  -2 3087.34 323.127   4
   2   6  -2 3588.89 331.907   4
  -2  -6  -2 3139.04 286.102   2
   2  -6  -2 3660.97 332.108   3
   2   6  -1 487.466 145.470   4
  -2   6  -1 519.273 159.748   4
  -2  -6  -1 733.264 158.434   2
  -2  -6   0 1948.17 250.762   2
  -2   6   0 1763.12 260.890   4
  -2   6   0 1815.37 175.563   1
   2   6   0 2325.91 269.027   4
  -2   6   1 423.192 145.621   4
  -2  -6   1 576.761 162.226   2
  -2   6   1 452.621 83.7027   1
   2   6   1 515.829 141.167   4
  -2   6   2 3250.12 341.268   4
  -2   6   2 3087.42 191.673   1
  -2  -6   2 3164.85 327.898   2
   2   6   2 3426.35 322.722   4
   2  -6   3 2547.49 279.152   1
  -2   6   3 2415.98 304.846   4
  -2  -6   3 2720.25 318.792   2
   2   6   3 3002.52 299.852   4
  -2   6   3 3216.45 165.695   1
   2   6   4 207.479 111.596   4
   2  -6   4 120.633 104.037   1
  -2  -6   4 125.442 99.3208   2
  -2   6   4-61.9759 97.6971   4
  -2   6   4 15.5253 17.1297   1
  -2  -6   5 250.966 112.482   2
   2  -6   5 382.189 153.233   1
  -2   6   5 170.539 117.630   4
   2   6   5 339.726 123.480   4
   2  -6   6 4092.26 426.296   1
  -2  -6   6 3881.57 433.849   2
   2   6   6 4214.07 364.226   4
  -2   6   6 4843.24 440.771   4
   2  -6   7 115.724 111.916   1
  -2  -6   7 106.356 107.295   2
  -2   6   7 190.952 111.501   4
   2  -6   7 242.428 130.526   2
  -2  -6   7 383.032 173.022   1
   2   6   7 96.3136 97.2355   4
  -2   6   8 1673.99 276.998   4
   2   6   8 2004.32 262.036   4
   2  -6   8 1971.72 319.372   1
  -2  -6   8 1479.50 289.376   2
   2  -6   8 1990.09 281.634   2
  -2  -6   8 1732.28 302.784   1
   2   6   9 222.366 129.379   4
  -2   6   9 606.153 219.016   4
  -2  -6   9-57.9067 164.655   2
   2  -6   9 87.8528 142.387   1
   2  -6   9 425.731 173.435   2
  -2  -6   9 130.552 135.791   1
   2  -6  10 437.849 175.730   2
  -2  -6  10-146.239 156.572   2
  -2  -6  10 221.662 155.455   1
  -2   6  10 279.883 168.425   4
   2   6  10 209.500 164.385   4
   2  -6  10 142.601 149.423   1
   2  -6  11 2014.72 291.682   2
   2  -6  11 2071.65 392.691   1
  -2  -6  11 2381.13 399.630   1
  -2  -6  11 2226.02 382.807   2
  -2  -6  12 1348.80 291.081   2
  -2  -6  12 1217.60 292.269   1
   2  -6  12 1388.42 269.249   2
   2  -6  12 1158.99 304.393   1
   2  -6  13 1633.58 376.517   1
   2  -6  13 2642.90 378.917   2
  -2  -6  13 2697.00 448.046   1
  -2  -6  13 2078.10 364.527   2
   2  -6  14 146.288 148.760   1
   2  -6  14-29.3432 165.729   2
  -2  -6  14-40.1598 135.058   2
  -2  -6  14-102.086 173.737   1
   2  -6  15 235.547 213.477   1
  -2  -6  15 693.508 239.004   2
  -2  -6  15 186.756 229.711   1
  -2  -6  16 429.785 179.479   2
  -2  -6  16 113.942 193.665   1
   2  -6  16 2.42872 194.823   1
  -2   7 -14 338.317 241.206   4
  -2   7 -13-90.2940 149.531   4
  -2  -7 -13 8.57634 170.526   3
  -2   7 -12 1265.20 298.812   4
  -2  -7 -12 1649.14 356.790   3
  -2   7 -11 343.193 187.644   4
  -2  -7 -11 108.423 130.713   3
  -2   7 -10 218.402 184.587   4
   2   7 -10 36.8137 151.059   4
  -2  -7 -10 249.684 131.640   3
  -2   7  -9 1002.34 231.864   4
   2   7  -9 1250.27 280.786   4
  -2  -7  -9 794.104 228.948   3
  -2   7  -8 427.280 161.620   4
  -2  -7  -8 633.812 120.535   2
   2   7  -8 519.223 172.527   4
   2  -7  -8 548.212 185.178   3
  -2  -7  -8 727.961 251.659   3
  -2   7  -7 1810.85 295.204   4
   2   7  -7 1690.56 296.918   4
   2  -7  -7 1890.90 308.044   3
  -2  -7  -7 1484.42 297.050   3
  -2  -7  -7 2069.79 216.203   2
  -2  -7  -6 962.069 156.224   2
   2   7  -6 689.877 188.224   4
   2  -7  -6 722.473 202.940   3
  -2   7  -6 879.303 202.324   4
  -2   7  -5 2585.24 326.665   4
   2  -7  -5 2547.91 336.466   3
  -2  -7  -5 2146.34 242.725   2
   2   7  -5 2446.44 327.484   4
  -2  -7  -4 825.584 158.279   2
   2   7  -4 855.686 209.255   4
   2  -7  -4 918.957 201.160   3
  -2   7  -4 362.945 157.492   4
  -2  -7  -3 257.688 103.673   2
   2   7  -3 110.802 113.089   4
  -2   7  -3 73.2193 116.447   4
   2  -7  -3 19.1688 97.0668   3
   2   7  -2 2945.09 332.683   4
   2  -7  -2 3217.26 336.512   3
  -2  -7  -2 3140.72 308.762   2
  -2   7  -2 3247.93 356.857   4
   2   7  -1 236.129 115.179   4
  -2  -7  -1 247.553 115.019   2
  -2   7  -1 79.0621 115.030   4
  -2  -7   0 636.777 158.111   2
  -2   7   0 620.384 183.980   4
   2   7   0 437.940 145.795   4
  -2   7   1 384.170 146.478   4
  -2  -7   1 282.254 125.761   2
  -2   7   1 302.025 72.1963   1
   2   7   1 463.148 153.851   4
  -2   7   2 3091.90 362.275   4
  -2  -7   2 3091.53 354.999   2
   2   7   2 3200.07 348.056   4
  -2   7   3 209.430 127.202   4
   2  -7   3 12.8668 73.8539   1
   2   7   3 107.339 81.7397   4
  -2  -7   3-2.63576 108.221   2
  -2   7   4 965.936 222.052   4
   2   7   4 607.022 155.569   4
   2  -7   4 736.154 185.317   1
  -2  -7   4 904.430 205.679   2
   2   7   5 2461.66 307.250   4
   2  -7   5 2560.62 328.663   1
  -2  -7   5 2312.30 334.178   2
  -2   7   5 2746.60 341.891   4
  -2   7   6 1150.28 224.969   4
   2  -7   6 824.740 214.936   1
  -2  -7   6 997.071 252.359   2
  -2  -7   6 1040.82 226.451   1
   2   7   6 1402.13 227.950   4
  -2   7   7 2045.51 307.639   4
  -2  -7   7 1647.16 305.151   2
   2  -7   7 2075.68 333.430   1
  -2  -7   7 2020.95 322.279   1
   2  -7   7 1765.17 276.309   2
   2   7   7 1630.53 255.846   4
   2  -7   8 536.702 191.642   2
  -2  -7   8 400.368 132.837   2
  -2   7   8 722.841 228.320   4
   2  -7   8 665.334 216.494   1
  -2  -7   8 719.934 235.810   1
   2   7   8 616.624 170.931   4
   2  -7   9 972.880 237.960   2
  -2  -7   9 641.624 225.870   2
   2  -7   9 733.349 233.556   1
   2   7   9 830.966 196.821   4
  -2  -7   9 1034.85 276.707   1
  -2   7   9 596.909 226.370   4
  -2   7  10 228.681 195.844   4
  -2  -7  10 240.135 163.327   1
   2  -7  10 225.718 152.592   2
   2  -7  10 177.147 185.982   1
  -2  -7  10 162.114 167.233   2
   2   7  10 237.737 150.954   4
   2  -7  11 119.592 204.203   1
   2   7  11 433.205 203.415   4
  -2  -7  11 218.927 186.224   1
  -2  -7  11 149.823 163.285   2
   2  -7  11 432.737 175.602   2
   2  -7  12 582.498 244.202   1
   2  -7  12 1155.58 261.333   2
  -2  -7  12 1229.45 320.843   2
  -2  -7  12 920.386 274.935   1
   2  -7  13 215.109 205.327   1
   2  -7  13 122.067 137.821   2
  -2  -7  13 183.955 182.049   1
  -2  -7  13-15.3686 143.904   2
   2  -7  14 122.973 231.107   1
   2  -7  14-378.428 215.895   2
  -2  -7  14 124.742 176.811   2
  -2  -7  14 321.360 220.979   1
   2  -7  15 75.6919 203.036   1
  -2  -7  15-113.704 143.516   2
  -2  -7  15-208.112 225.351   1
  -2  -7  16 19.4739 141.392   2
   2   8 -15 425.633 247.178   4
  -2   8 -14 1538.15 339.526   4
   2   8 -14 1597.00 368.945   4
  -2   8 -13 703.435 255.469   4
   2   8 -13 792.018 307.806   4
  -2   8 -12 834.776 247.000   4
  -2  -8 -12 905.132 291.151   3
   2   8 -12 1491.09 350.173   4
  -2   8 -11 463.771 213.826   4
   2   8 -11 276.206 189.651   4
  -2  -8 -11 287.732 165.311   3
  -2   8 -10 1252.08 286.296   4
   2   8 -10 1302.66 302.812   4
  -2  -8 -10 1374.03 323.356   3
  -2   8  -9 1081.38 239.360   4
   2   8  -9 587.283 229.754   4
   2  -8  -9 1192.53 321.861   3
  -2  -8  -9 1890.53 363.437   3
   2   8  -8 5259.83 537.855   4
   2  -8  -8 5868.99 602.784   3
  -2  -8  -8 4848.41 535.912   3
  -2   8  -8 6069.37 561.255   4
  -2  -8  -8 5097.97 360.017   2
  -2  -8  -7 367.485 111.093   2
  -2   8  -7 116.763 118.745   4
   2   8  -7 207.103 121.396   4
   2  -8  -7 309.342 185.233   3
  -2  -8  -6 96.4432 66.9929   2
  -2   8  -6 301.672 180.709   4
   2   8  -6 101.964 127.075   4
   2  -8  -6 182.439 128.209   3
  -2   8  -5 1289.60 252.986   4
   2   8  -5 1311.93 256.037   4
  -2  -8  -5 1234.32 197.221   2
   2  -8  -5 1370.73 281.058   3
  -2  -8  -4 1170.95 200.494   2
   2   8  -4 533.175 166.409   4
   2  -8  -4 493.556 161.559   3
  -2   8  -4 641.862 181.985   4
   2  -8  -3 4076.25 408.050   3
   2   8  -3 3584.26 404.512   4
  -2  -8  -3 4037.98 367.028   2
  -2   8  -3 4007.81 438.282   4
   2  -8  -2 4362.73 411.839   3
  -2  -8  -2 4737.42 403.352   2
  -2   8  -2 4299.06 446.407   4
   2   8  -2 4461.99 449.399   4
  -2  -8  -1 458.628 152.789   2
   2   8  -1 326.195 152.020   4
  -2   8  -1 138.430 124.787   4
  -2   8   0 12952.9 803.565   4
  -2  -8   0 12765.4 732.467   2
   2   8   0 12624.1 767.891   4
   2   8   1 192.704 133.659   4
  -2  -8   1 190.523 142.642   2
  -2   8   1 139.429 124.194   4
  -2   8   2 4607.88 470.904   4
   2   8   2 3395.21 377.049   4
  -2  -8   2 4801.74 457.799   2
   2   8   3 4135.38 420.013   4
   2  -8   3 3282.05 353.320   1
  -2  -8   3 4241.71 444.430   2
  -2   8   3 4309.64 468.702   4
  -2   8   4 982.368 230.027   4
   2  -8   4 815.022 202.236   1
  -2  -8   4 793.779 203.101   1
   2   8   4 632.955 183.304   4
  -2  -8   4 767.452 216.661   2
  -2  -8   5 1255.44 269.094   2
   2  -8   5 1096.99 211.908   1
   2   8   5 906.466 193.100   4
  -2   8   5 1001.28 244.435   4
  -2  -8   5 1274.88 256.916   1
   2   8   6 383.972 148.822   4
   2  -8   6 150.283 112.252   1
  -2  -8   6 104.261 165.387   2
  -2  -8   6 311.378 163.401   1
  -2   8   6 428.192 167.484   4
  -2   8   7 324.248 158.178   4
   2  -8   7 200.874 113.059   2
   2   8   7 346.635 141.984   4
   2  -8   7 54.1133 128.305   1
  -2  -8   7 194.923 178.605   2
  -2  -8   7 159.458 149.192   1
   2   8   8 5680.15 506.628   4
  -2   8   8 5565.71 551.944   4
   2  -8   8 5745.37 596.409   1
  -2  -8   8 4759.74 540.242   1
   2  -8   8 6291.25 545.793   2
  -2  -8   8 5244.58 564.204   2
  -2  -8   9 1476.43 313.010   1
   2  -8   9 1101.74 252.343   2
   2   8   9 991.283 220.057   4
   2  -8   9 816.137 265.127   1
  -2  -8   9 638.808 199.060   2
  -2   8   9 997.288 246.332   4
  -2   8  10 1581.96 334.348   4
   2  -8  10 1106.02 249.913   2
  -2  -8  10 1078.09 298.088   2
   2  -8  10 1229.31 325.728   1
   2   8  10 1406.60 280.054   4
  -2  -8  10 784.806 257.581   1
   2   8  11 268.737 182.111   4
   2  -8  11 125.815 163.480   1
   2  -8  11 229.312 130.095   2
  -2  -8  11 245.505 160.166   2
  -2   8  11 544.751 243.101   4
  -2  -8  11 542.288 224.693   1
   2  -8  12 817.139 280.159   1
   2  -8  12 670.302 214.249   2
  -2  -8  12 643.664 276.487   2
  -2  -8  12 956.987 292.536   1
   2   8  12 922.789 256.762   4
  -2  -8  13 222.510 185.486   1
   2  -8  13 427.789 254.448   1
  -2  -8  13 739.537 298.969   2
   2  -8  13 312.311 142.755   2
  -2  -8  14 1603.50 404.517   1
   2  -8  14 1078.67 315.131   1
   2  -8  14 1525.70 347.180   2
  -2  -8  14 1010.95 303.123   2
  -2  -8  15-103.992 144.325   2
  -2  -8  16 144.634 160.473   2
  -2   9 -14 4227.05 620.431   4
   2   9 -14 5151.19 676.075   4
  -2  -9 -14 4265.86 631.773   3
  -2   9 -13 1126.75 352.088   4
   2   9 -13 552.715 291.554   4
  -2  -9 -13 1109.38 369.544   3
   2   9 -12 10389.0 899.184   4
  -2  -9 -12 10166.6 918.666   3
  -2   9 -12 11301.9 939.581   4
  -2   9 -11 4025.21 551.482   4
   2   9 -11 3395.29 503.851   4
  -2  -9 -11 3030.51 478.878   3
  -2  -9 -10 9947.46 854.367   3
  -2   9 -10 10421.3 828.266   4
   2   9 -10 9039.03 795.868   4
  -2   9  -9 1852.41 366.805   4
   2   9  -9 1690.31 349.534   4
   2  -9  -9 1869.17 375.644   3
  -2  -9  -9 1828.55 367.850   3
  -2   9  -8 14996.2 974.469   4
   2  -9  -8 16430.9 1051.16   3
  -2  -9  -8 13633.4 990.596   3
   2   9  -8 13083.0 918.174   4
  -2  -9  -7 1866.06 243.386   2
  -2   9  -7 2075.06 353.751   4
   2   9  -7 1734.36 328.681   4
   2  -9  -7 1326.47 301.912   3
  -2   9  -6 21677.6 1157.07   4
   2   9  -6 20020.4 1111.09   4
   2  -9  -6 21833.1 1171.55   3
  -2  -9  -6 22504.1 936.246   2
   2   9  -5 3485.05 433.357   4
   2  -9  -5 3070.23 415.020   3
  -2  -9  -5 3745.23 367.886   2
  -2   9  -5 3209.34 436.279   4
   2  -9  -4 23588.6 1179.79   3
  -2  -9  -4 27822.5 1102.47   2
  -2   9  -4 28279.5 1308.25   4
   2   9  -4 24642.9 1221.52   4
   2   9  -3 5348.68 536.946   4
   2  -9  -3 5760.85 513.404   3
  -2  -9  -3 5594.87 469.846   2
  -2   9  -3 4519.23 502.038   4
   2  -9  -2 24720.7 1119.73   3
  -2   9  -2 23408.7 1192.18   4
  -2  -9  -2 24628.7 1086.13   2
   2   9  -2 27746.8 1258.80   4
  -2   9  -1 7425.69 629.906   4
  -2  -9  -1 7085.35 550.644   2
   2   9  -1 5618.40 548.801   4
  -2   9   0 22904.7 1162.55   4
   2   9   0 23508.1 1159.38   4
  -2  -9   0 21636.0 1042.84   2
  -2  -9   1 7032.16 504.605   1
  -2  -9   1 7371.75 588.428   2
  -2   9   1 7279.08 616.105   4
   2   9   1 6590.22 581.214   4
  -2  -9   2 25372.6 1081.47   1
  -2   9   2 25483.7 1249.46   4
  -2  -9   2 25252.0 1180.05   2
   2   9   2 23670.7 1162.56   4
  -2   9   3 5155.55 529.433   4
  -2  -9   3 6158.52 510.534   1
   2  -9   3 4959.80 440.804   1
  -2  -9   3 5164.54 531.097   2
   2   9   3 5884.20 553.754   4
  -2  -9   4 29187.4 1260.17   1
   2   9   4 31355.4 1327.29   4
   2  -9   4 26824.0 1197.94   1
  -2  -9   4 27235.5 1301.80   2
  -2   9   4 24798.6 1260.58   4
  -2  -9   5 3346.02 421.039   1
  -2  -9   5 3809.14 469.431   2
   2   9   5 3968.37 442.547   4
   2  -9   5 3988.44 454.707   1
  -2   9   5 3687.70 463.219   4
   2   9   6 22525.0 1103.87   4
  -2   9   6 23675.0 1198.78   4
   2  -9   6 21710.1 1156.26   1
   2  -9   6 21220.4 1101.15   2
  -2  -9   6 21440.8 1190.91   2
  -2  -9   6 22359.6 1156.65   1
  -2   9   7 1773.71 314.541   4
   2   9   7 1950.98 319.131   4
   2  -9   7 2523.02 402.950   1
  -2  -9   7 1916.03 356.923   2
   2  -9   7 1858.04 307.207   2
  -2  -9   7 2030.16 353.611   1
  -2   9   8 15070.1 958.208   4
  -2  -9   8 15432.8 1003.37   1
   2  -9   8 15138.4 1016.51   1
   2   9   8 16359.2 921.604   4
   2  -9   8 14981.9 916.875   2
  -2  -9   8 13528.2 995.699   2
  -2   9   9 1642.99 322.951   4
   2  -9   9 1519.62 311.173   2
   2  -9   9 1463.94 341.252   1
  -2  -9   9 1759.17 364.849   2
   2   9   9 1918.43 323.228   4
  -2  -9   9 1527.67 340.100   1
  -2   9  10 9996.96 786.730   4
   2  -9  10 9541.59 854.191   1
   2  -9  10 9996.66 768.946   2
  -2  -9  10 8478.50 815.939   2
   2   9  10 9682.12 725.227   4
  -2  -9  10 9318.78 822.377   1
  -2   9  11 3567.93 558.101   4
   2  -9  11 3356.80 551.559   1
   2  -9  11 3864.91 489.990   2
  -2  -9  11 2950.93 473.906   2
  -2  -9  11 3220.10 513.149   1
   2   9  11 3543.34 444.636   4
   2   9  12 10563.6 836.855   4
  -2  -9  12 11505.6 993.917   2
   2  -9  12 10955.7 991.614   1
   2  -9  12 10684.9 834.788   2
  -2   9  12 11582.3 906.904   4
  -2  -9  12 10872.8 943.756   1
   2  -9  13 629.782 299.885   1
  -2  -9  13 569.280 296.256   1
   2  -9  13 335.289 196.757   2
  -2  -9  13 838.375 317.960   2
   2  -9  14 5194.39 708.079   1
   2  -9  14 3171.52 497.025   2
  -2  -9  14 3894.28 582.417   2
  -2  -9  15 1508.87 372.185   2
  -2  10 -14 59.5267 182.298   4
  -2  10 -13 1663.39 409.415   4
   2  10 -13 826.750 316.397   4
  -2  10 -12 300.057 169.073   4
   2  10 -12 232.263 225.691   4
  -2 -10 -12 667.914 322.300   3
  -2 -10 -11 840.307 304.780   3
  -2  10 -11 934.854 302.092   4
   2  10 -11 526.291 235.645   4
  -2  10 -10 134.573 157.796   4
   2  10 -10 312.625 214.535   4
  -2 -10 -10 514.737 233.526   3
  -2  10  -9 774.059 255.971   4
   2  10  -9 694.525 271.027   4
   2 -10  -9 977.783 322.034   3
  -2 -10  -9 608.749 249.676   3
  -2  10  -8 719.319 266.099   4
   2  10  -8 472.801 202.081   4
   2 -10  -8 1137.48 327.052   3
  -2 -10  -8 888.475 290.827   3
   2  10  -7 3306.39 465.999   4
   2 -10  -7 2822.15 441.040   3
  -2  10  -7 3411.35 491.345   4
  -2 -10  -7 2578.83 311.181   2
   2  10  -6 3964.05 503.872   4
   2 -10  -6 3468.33 461.546   3
  -2 -10  -6 4310.18 406.894   2
  -2  10  -6 4174.12 522.127   4
   2 -10  -5 928.680 262.946   3
  -2  10  -5 1278.35 279.657   4
   2  10  -5 904.016 251.695   4
  -2 -10  -5 1310.67 241.439   2
   2  10  -4 9079.12 744.320   4
   2 -10  -4 8612.36 687.043   3
  -2 -10  -4 8766.61 616.425   2
  -2  10  -4 8625.10 723.611   4
  -2 -10  -3 381.496 157.793   2
  -2  10  -3 576.268 218.836   4
   2  10  -3 551.996 237.029   4
   2 -10  -3 291.649 159.457   3
  -2 -10  -2 598.218 198.462   2
  -2  10  -2 716.953 247.619   4
   2  10  -2 185.428 168.385   4
   2 -10  -2 661.019 195.444   3
  -2 -10  -1 9528.77 551.387   1
   2  10  -1 10273.2 789.719   4
  -2 -10  -1 9817.76 690.252   2
  -2  10  -1 10468.5 808.923   4
  -2 -10   0 319.352 170.016   2
  -2  10   0 64.3782 147.716   4
   2  10   0 56.7898 160.546   4
  -2 -10   0-28.4477 87.9128   1
  -2 -10   1 9385.58 616.980   1
  -2  10   1 10576.3 817.729   4
  -2 -10   1 10643.0 747.398   2
   2  10   1 10043.2 760.632   4
  -2  10   2 451.141 206.491   4
   2  10   2 825.824 228.745   4
  -2 -10   2 1004.63 267.362   2
  -2 -10   2 390.761 145.974   1
   2  10   3 137.600 165.682   4
  -2 -10   3 260.777 159.737   2
  -2 -10   3 226.092 137.601   1
  -2  10   4 8968.53 743.466   4
   2 -10   4 8006.93 616.798   1
  -2 -10   4 6303.88 579.391   1
   2  10   4 8225.82 686.190   4
  -2 -10   4 7320.87 664.827   2
   2 -10   5 1440.68 279.735   1
  -2  10   5 913.056 254.645   4
   2  10   5 942.333 241.389   4
  -2 -10   5 1213.26 268.216   1
  -2 -10   5 909.794 284.543   2
   2  10   6 4901.23 516.585   4
   2 -10   6 3630.65 464.440   1
   2 -10   6 3544.13 453.806   2
  -2  10   6 3185.83 453.060   4
  -2 -10   6 3367.95 456.862   2
  -2 -10   6 4833.98 539.725   1
  -2 -10   7 2852.96 450.701   2
  -2  10   7 3162.74 448.023   4
   2 -10   7 3460.44 471.868   1
  -2 -10   7 2684.49 423.263   1
   2 -10   7 3180.50 424.757   2
   2  10   7 3300.00 439.306   4
  -2  10   8 940.732 257.878   4
   2 -10   8 775.109 243.675   2
   2 -10   8 710.039 239.871   1
  -2 -10   8 838.312 253.099   1
   2  10   8 835.364 232.252   4
  -2 -10   8 1124.58 299.391   2
   2  10   9 638.523 217.816   4
  -2 -10   9 759.371 301.132   2
   2 -10   9 762.992 234.663   2
   2 -10   9 740.711 270.920   1
  -2 -10   9 471.918 214.364   1
  -2  10   9 433.758 233.596   4
  -2  10  10 287.445 193.330   4
   2  10  10 417.819 190.453   4
   2 -10  10 520.620 247.815   1
   2 -10  10 628.275 232.854   2
  -2 -10  10-141.389 252.218   2
  -2 -10  10 984.527 323.846   1
  -2  10  11 1327.82 319.398   4
   2 -10  11 806.179 285.855   1
   2 -10  11 980.163 282.877   2
  -2 -10  11 906.944 321.536   2
   2  10  11 665.654 243.305   4
  -2 -10  11 322.782 191.379   1
   2  10  12 360.976 194.217   4
   2 -10  12 281.421 262.378   1
  -2 -10  12 242.530 215.676   1
  -2 -10  12-53.4002 253.325   2
   2 -10  12 288.170 213.702   2
  -2  10  12 270.820 257.013   4
   2 -10  13 1230.11 378.851   1
   2 -10  13 1274.96 309.210   2
  -2 -10  13 1035.81 338.236   2
   2 -10  14-89.6841 203.931   2
  -2 -10  14 217.687 273.959   2
  -2  11 -13-273.723 287.678   4
  -2  11 -12 1013.29 328.534   4
  -2  11 -11 329.773 246.225   4
   2  11 -11 375.229 264.559   4
  -2 -11 -11 67.3146 182.017   3
  -2  11 -10 676.009 289.611   4
   2  11 -10 473.562 218.139   4
   2 -11 -10 728.638 297.342   3
  -2 -11 -10 884.776 265.283   3
  -2  11  -9-128.391 207.566   4
   2  11  -9 436.956 231.754   4
   2 -11  -9 468.105 217.924   3
  -2 -11  -9 409.197 201.198   3
  -2  11  -8 1152.45 329.663   4
   2  11  -8 1362.62 357.055   4
   2 -11  -8 940.812 302.564   3
  -2 -11  -8 942.093 309.753   3
   2  11  -7 1131.45 284.916   4
   2 -11  -7 1331.91 322.626   3
  -2 -11  -7 1019.90 312.090   3
  -2  11  -7 1579.57 352.269   4
   2  11  -6 3692.10 525.238   4
   2 -11  -6 3901.83 516.537   3
  -2 -11  -6 3959.34 419.191   2
  -2  11  -6 3188.70 492.661   4
  -2 -11  -5 267.322 153.607   2
   2 -11  -5 1112.96 297.738   3
  -2  11  -5 538.143 201.721   4
   2  11  -5 850.199 271.250   4
  -2 -11  -4 1527.08 269.601   2
   2  11  -4 1051.47 291.986   4
  -2  11  -4 1093.99 310.336   4
   2 -11  -4 1237.26 285.358   3
  -2 -11  -3 815.116 208.721   2
   2  11  -3 365.752 175.024   4
   2 -11  -3 900.822 232.798   3
  -2  11  -3 383.029 177.766   4
  -2 -11  -2 1999.27 315.330   2
   2  11  -2 1737.29 363.397   4
   2 -11  -2 1936.64 333.395   3
  -2  11  -2 1233.45 291.001   4
  -2  11  -1 1082.47 282.933   4
  -2 -11  -1 1483.72 305.416   2
   2  11  -1 1290.83 309.000   4
  -2  11   0 1093.88 320.590   4
  -2 -11   0 1083.09 261.204   2
   2  11   0 867.880 263.013   4
   2  11   1 833.629 248.904   4
  -2  11   1 1193.33 312.892   4
  -2 -11   1 1166.93 282.863   2
  -2 -11   1 1160.08 229.171   1
  -2  11   2 1636.95 353.941   4
   2  11   2 1708.33 363.211   4
  -2 -11   2 2211.68 370.495   2
  -2 -11   2 1400.54 267.443   1
   2  11   3 205.133 161.552   4
  -2 -11   3-32.9880 178.543   2
  -2 -11   3 558.155 187.860   1
  -2  11   3 682.261 267.220   4
  -2 -11   4 1167.08 290.446   2
  -2 -11   4 1671.76 325.914   1
   2  11   4 1883.68 361.565   4
  -2  11   4 2177.95 404.375   4
   2  11   5 576.716 223.121   4
  -2 -11   5 703.514 269.506   2
   2 -11   5 282.407 156.508   2
  -2 -11   5 1050.54 275.502   1
  -2  11   5 217.479 148.571   4
  -2 -11   6 3128.11 483.211   2
  -2  11   6 3330.80 494.099   4
   2 -11   6 3425.15 460.958   2
   2  11   6 3882.71 497.345   4
   2 -11   6 3975.52 500.385   1
  -2 -11   6 3437.04 471.849   1
   2  11   7 1185.69 302.049   4
   2 -11   7 1746.24 352.235   2
  -2 -11   7 1162.38 309.255   1
   2 -11   7 1695.55 354.044   1
  -2  11   7 1173.60 316.334   4
  -2 -11   7 1320.31 339.786   2
  -2 -11   8 1034.14 306.188   1
   2  11   8 1242.50 289.092   4
  -2  11   8 696.557 264.871   4
   2 -11   8 685.398 271.904   1
  -2 -11   8 876.791 270.734   2
   2 -11   8 1307.86 329.548   2
  -2 -11   9 416.273 288.906   1
  -2  11   9 539.304 231.774   4
   2 -11   9 191.667 162.203   1
  -2 -11   9-383.167 258.365   2
   2  11   9 245.806 165.327   4
   2 -11   9 418.053 203.774   2
   2 -11  10 1253.06 350.442   1
  -2 -11  10 286.876 205.666   2
   2 -11  10 1003.17 300.669   2
  -2 -11  10 763.811 284.289   1
  -2  11  10 676.554 265.256   4
   2  11  10 631.089 215.563   4
   2 -11  11 291.848 225.801   2
  -2 -11  11-410.455 346.352   2
   2 -11  11 82.7631 183.300   1
  -2  11  11 434.815 280.349   4
   2  11  11 35.8373 168.600   4
  -2 -11  11 323.799 206.636   1
  -2  11  12 1017.79 308.690   4
   2  11  12 1220.91 323.451   4
   2 -11  12 958.824 302.024   2
  -2 -11  12 948.798 375.824   2
   2 -11  12 1486.18 402.116   1
   2 -11  13-88.2782 209.466   2
  -2  12 -11 1353.48 385.012   4
   2 -12 -10 737.995 254.786   3
  -2  12 -10-87.8159 201.667   4
  -2  12  -9 223.181 231.969   4
   2  12  -9 23.6485 189.499   4
   2 -12  -9 385.629 245.372   3
  -2 -12  -9 664.812 328.161   3
   2  12  -8 1022.78 297.166   4
   2 -12  -8 1570.13 382.842   3
  -2 -12  -8 1155.11 348.290   3
  -2  12  -8 1466.57 418.895   4
   2  12  -7 2355.87 454.361   4
  -2  12  -7 2268.71 443.391   4
   2 -12  -7 2595.00 448.606   3
  -2 -12  -7 2124.49 436.991   3
  -2  12  -6 1047.33 296.928   4
   2  12  -6 1498.70 382.256   4
  -2 -12  -6 795.228 235.252   2
   2 -12  -6 523.307 210.019   3
  -2 -12  -5 2355.89 350.318   2
  -2  12  -5 1361.59 357.103   4
   2  12  -5 1707.26 408.877   4
   2 -12  -5 1532.10 336.663   3
   2  12  -4 1744.17 382.494   4
   2 -12  -4 1608.58 349.125   3
  -2 -12  -4 1606.88 298.600   2
  -2  12  -4 1233.83 331.117   4
  -2 -12  -3 1905.35 349.177   2
  -2  12  -3 2778.21 490.224   4
   2  12  -3 2550.93 453.260   4
   2 -12  -3 2298.31 369.568   3
  -2 -12  -2 1847.99 335.165   2
   2 -12  -2 2008.41 366.221   3
  -2  12  -2 1792.04 398.525   4
   2  12  -2 2507.86 426.217   4
  -2  12  -1 50.5720 143.278   4
  -2 -12  -1 8.73166 154.095   2
   2  12  -1 135.769 206.704   4
   2 -12  -1-90.9197 144.615   3
  -2  12   0 422.967 181.813   4
  -2 -12   0 850.198 276.577   2
   2  12   0 649.539 278.348   4
  -2 -12   1 444.812 203.876   2
  -2  12   1 139.126 150.938   4
   2  12   1 395.519 211.897   4
  -2  12   2 2405.33 457.756   4
   2  12   2 2541.34 455.398   4
  -2 -12   2 2200.68 394.433   2
  -2  12   3 2589.20 445.858   4
   2  12   3 3019.07 477.914   4
  -2 -12   3 2057.07 331.934   1
  -2 -12   3 2925.32 470.425   2
   2  12   4 1411.44 321.017   4
  -2 -12   4 1115.21 315.853   2
  -2 -12   4 1613.23 310.013   1
  -2  12   4 1385.77 350.900   4
   2 -12   4 1731.89 371.237   2
  -2  12   5 1653.69 369.195   4
   2  12   5 1971.88 399.225   4
  -2 -12   5 1049.59 292.818   2
  -2 -12   5 1820.13 360.432   1
   2 -12   5 2107.18 399.926   2
   2  12   6 1314.84 341.123   4
  -2  12   6 700.424 267.355   4
   2 -12   6 905.395 285.465   2
  -2 -12   6 1555.47 359.481   1
  -2 -12   6 640.906 259.124   2
   2  12   7 2981.43 453.941   4
  -2 -12   7 3326.51 514.057   1
  -2 -12   7 2260.42 456.535   2
  -2  12   7 3297.48 517.055   4
   2 -12   7 2499.22 439.004   2
  -2  12   8 889.412 314.619   4
   2  12   8 1183.92 306.701   4
   2 -12   8 1289.82 329.399   2
  -2 -12   8 890.980 274.712   1
  -2 -12   8 726.053 283.037   2
  -2 -12   9 359.413 237.980   1
   2 -12   9 476.572 225.592   2
  -2 -12   9 13.1700 216.833   2
   2 -12   9 365.952 234.865   1
   2  12   9 637.062 273.263   4
  -2  12   9 466.815 246.087   4
  -2 -12  10 44.3757 189.579   1
  -2  12  10 240.664 227.043   4
   2 -12  10 333.925 208.480   2
   2  12  10 737.855 268.153   4
   2 -12  10 190.237 166.250   1
   2  12  11 1874.81 370.879   4
  -2  13  -8 2748.24 521.469   4
   2 -13  -8 3532.68 564.271   3
  -2  13  -7 505.519 272.485   4
   2 -13  -7 177.497 185.009   3
  -2 -13  -7 497.970 295.869   3
  -2  13  -6 4697.02 667.996   4
   2  13  -6 3667.34 570.764   4
   2 -13  -6 4433.73 581.924   3
  -2 -13  -5 623.879 182.221   2
  -2  13  -5 727.606 328.125   4
   2  13  -5 783.835 316.325   4
   2 -13  -5 385.005 230.356   3
  -2  13  -4 3529.93 585.546   4
   2  13  -4 4117.73 616.243   4
   2 -13  -4 2863.24 460.362   3
  -2 -13  -4 4004.38 497.655   2
  -2 -13  -3 506.162 208.603   2
   2  13  -3 392.537 192.878   4
  -2  13  -3 96.7003 202.977   4
   2 -13  -3 249.834 156.210   3
  -2  13  -2 7737.45 819.887   4
   2 -13  -2 7021.34 687.833   3
  -2 -13  -2 7714.53 707.825   2
   2  13  -2 7234.50 789.751   4
  -2  13  -1 4897.57 661.357   4
   2 -13  -1 5672.05 581.049   3
  -2 -13  -1 5187.65 598.861   2
   2  13  -1 6812.63 738.343   4
  -2 -13   0 6093.26 650.305   2
  -2  13   0 6510.52 737.657   4
   2  13   0 6837.61 752.245   4
   2  13   1 6181.21 697.113   4
  -2  13   1 5931.90 718.493   4
  -2 -13   1 5176.99 608.147   2
  -2 -13   2 7609.88 757.691   2
  -2  13   2 7831.95 831.347   4
   2  13   2 8452.69 836.658   4
  -2 -13   3 259.059 199.084   2
  -2  13   3 222.236 223.845   4
   2  13   3 357.669 219.750   4
   2 -13   3 612.703 241.037   2
  -2 -13   4 3021.21 489.835   2
   2 -13   4 3578.82 508.829   2
  -2  13   4 3305.39 546.507   4
   2  13   4 4187.95 587.026   4
  -2  13   5 400.213 209.045   4
   2  13   5 343.008 204.206   4
  -2 -13   5 577.344 258.234   2
   2 -13   5 882.179 294.350   2
   2 -13   6 4534.83 606.859   2
   2  13   6 3725.47 551.307   4
  -2 -13   6 4135.66 607.046   2
  -2 -13   6 4632.34 584.685   1
  -2  13   6 4214.22 616.299   4
  -2 -13   7 696.068 283.445   1
  -2  13   7 708.645 247.993   4
   2  13   7 798.082 309.678   4
   2 -13   7 554.861 277.320   2
   2  13   8 3724.15 546.700   4
  -2 -13   8 2519.60 476.736   1
   2  13   9 1899.07 400.791   4
  -2 -13   9 1979.21 438.465   1
   2  13  10 1736.40 388.307   4
   2 -14  -6 2972.39 510.626   3
   2 -14  -5 4787.95 611.208   3
   2 -14  -4 1771.78 372.710   3
  -2 -14  -4 1754.79 364.810   2
  -2 -14  -3 3493.48 503.032   2
   2 -14  -3 2848.78 446.961   3
  -2 -14  -2 1115.94 300.782   2
  -2  14  -2 1205.47 349.267   4
   2  14  -2 329.399 185.058   4
   2 -14  -2 545.212 249.095   3
  -2 -14  -1 4308.44 573.805   2
   2  14  -1 4033.05 614.559   4
  -2  14  -1 3721.51 589.857   4
   2 -14  -1 3705.34 509.323   3
  -2  14   0 3200.81 623.182   4
   2  14   0 2925.25 543.246   4
   2 -14   0 2143.56 390.507   3
  -2 -14   0 3112.32 488.362   2
  -2  14   1 4323.24 657.103   4
   2  14   1 3515.85 575.562   4
  -2 -14   1 4344.25 596.186   2
   2 -14   1 4004.84 544.422   2
   2  14   2 1371.57 391.760   4
   2 -14   2 875.070 305.180   2
  -2 -14   2 940.901 300.357   2
   2  14   3 4639.64 666.577   4
  -2 -14   3 3938.46 581.152   2
   2  14   4 1940.49 445.423   4
   2  14   5 5975.36 730.783   4
   2  14   6 2854.22 506.176   4
   2 -15  -3 1681.72 381.671   3
   2 -15  -2 552.365 247.495   3
   2 -15  -1-209.021 209.527   3
  -3   0  -9 8.49295 46.0479   4
  -3   0  -8-1.06691 40.8748   4
  -3   0  -7-44.2054 36.1972   4
  -3   0  -6-17.4607 30.1654   4
  -3   0  -6-13.4059 48.0145   3
  -3   0  -5 8.68582 17.0250   4
  -3   0  -5 57.2086 37.8589   3
  -3   0  -2 37.8377 34.8438   2
   3   0  -2-41.1538 41.2934   2
   3   0  -1-7.52125 38.7210   2
  -3   0  -1 2.19550 44.4555   2
  -3   0   0 47.0515 48.3969   2
   3   0   0-16.5571 31.0865   2
   3   0   1 6.89470 25.1543   4
  -3   0   1 121.528 51.7449   2
   3   0   1 5.80375 30.6743   2
  -3   0   2 66.9123 60.8156   2
   3   0   2 3.42114 32.5629   2
   3   0   3-0.56383 24.1254   2
  -3   0   3 17.2989 55.9140   2
   3   0   4 18.7903 32.5907   2
  -3   0   4 165.857 80.8626   2
  -3   0   5-1.10578 57.8767   2
   3   0   5 14.5006 23.8516   2
   3   0   6-9.65934 20.2381   2
  -3   0   6 76.7028 73.5190   2
  -3   0   7 111.280 88.3123   2
   3   0   7 5.70035 20.5118   2
   3   0   7 5.10327 18.5370   2
   3   0   8 17.1310 18.3219   2
   3   0   8-19.2148 19.2380   2
  -3   0   8 111.573 80.9191   2
   3   0   9-1.48456 16.3060   2
   3   0   9-12.1041 14.6645   2
  -3   0   9-20.3319 83.7026   2
  -3   0  10-19.2497 85.0191   2
  -3   0  11 214.638 130.215   2
  -3   0  11 12.6186 105.080   1
  -3   0  12-66.7766 90.6986   2
  -3   0  12 0.21956 102.007   1
  -3   0  13 11.8106 122.716   1
  -3   0  13 25.9459 106.682   2
  -3   0  14 140.278 148.181   2
  -3   0  14-132.350 140.065   1
  -3   0  15 207.142 147.437   2
  -3   0  15 293.100 173.468   1
  -3   0  16 310.974 193.254   1
  -3   0  17-152.500 187.472   1
  -3   0  18-178.330 175.670   1
  -3  -1  -9 919.806 127.888   4
  -3  -1  -8 6504.47 432.961   3
  -3  -1  -8 6019.41 309.179   4
  -3  -1  -7 10653.6 393.798   4
  -3  -1  -7 10616.3 533.433   3
  -3   1  -6 16096.3 509.599   4
  -3  -1  -6 16654.9 485.583   4
  -3  -1  -6 16533.4 652.908   3
  -3  -1  -5 8908.38 278.262   4
  -3   1  -5 8899.80 309.566   4
  -3  -1  -4 105620. 2250.21   2
  -3   1  -4 102899. 2225.05   4
  -3  -1  -3 1179.59 106.234   2
  -3   1  -3 1122.73 87.8821   4
   3  -1  -3 1112.12 134.689   4
   3  -1  -2 53185.7 1366.93   2
   3   1  -2 55953.6 1427.06   2
   3  -1  -2 49603.9 1319.31   4
  -3   1  -2 50834.1 1183.88   4
  -3  -1  -2 53012.9 1268.68   2
   3  -1  -1 5373.33 301.180   2
   3  -1  -1 4874.35 258.365   4
  -3   1  -1 4742.40 219.206   4
   3   1  -1 5090.22 298.759   2
  -3  -1  -1 5129.27 266.845   2
   3  -1   0 22012.1 710.200   2
  -3   1   0 20961.0 716.306   2
  -3   1   0 21671.5 637.790   4
   3  -1   0 20769.3 628.542   4
   3   1   0 22040.6 690.884   2
  -3  -1   0 23730.4 719.213   2
   3  -1   1 5137.54 286.217   2
  -3   1   1 5012.02 307.769   2
   3  -1   1 5102.54 233.177   4
   3   1   1 5259.08 266.495   2
  -3  -1   1 5561.03 318.459   2
   3   1   2 53143.2 1131.70   4
   3   1   2 52761.5 1258.39   2
   3  -1   2 52217.7 1186.87   4
  -3   1   2 48959.1 1392.24   2
   3  -1   2 51063.1 1320.70   2
  -3  -1   2 52823.7 1430.71   2
   3  -1   3 1067.97 81.3435   4
   3  -1   3 1114.47 123.799   2
  -3   1   3 1161.43 155.640   2
  -3  -1   3 998.188 152.765   2
   3   1   3 1192.45 102.684   2
  -3   1   4 102895. 2511.32   2
   3   1   4 103996. 2227.92   2
  -3  -1   4 105576. 2564.57   2
  -3   1   5 8992.40 469.123   2
   3   1   5 8604.57 268.634   2
  -3  -1   5 8487.26 482.599   2
  -3   1   6 15056.8 662.933   2
  -3  -1   6 15785.0 695.230   2
  -3   1   7 10242.3 536.790   2
  -3  -1   7 10340.5 561.189   2
  -3  -1   8 5311.70 408.034   2
  -3   1   8 5829.76 406.673   2
   3  -1   8 6139.82 288.661   2
  -3   1   9 1250.50 199.158   2
   3  -1   9 1116.25 123.005   2
  -3  -1   9 1060.16 193.747   2
  -3   1  10 18624.1 834.868   2
   3  -1  10 19982.3 666.342   2
  -3  -1  10 18628.5 850.015   2
  -3   1  11 2761.02 310.400   2
  -3   1  11 1976.77 268.533   1
  -3  -1  11 1758.73 285.618   1
   3  -1  11 1876.51 170.208   2
  -3  -1  11 1838.37 260.525   2
  -3   1  12 11188.4 690.469   1
  -3  -1  12 11936.8 766.935   1
  -3  -1  12 11901.3 684.416   2
  -3   1  12 11639.8 673.023   2
  -3   1  13 210.252 109.536   1
  -3   1  13 81.4737 102.208   2
  -3  -1  13 244.226 122.469   2
  -3  -1  13 448.857 191.189   1
  -3   1  14 12250.8 734.141   2
  -3   1  14 10440.5 722.525   1
  -3  -1  14 11646.2 820.825   1
  -3  -1  14 11190.8 699.937   2
  -3  -1  15 1179.95 239.071   2
  -3   1  15 1058.17 254.382   1
  -3  -1  15 969.459 278.707   1
  -3   1  16 2626.50 383.597   1
  -3  -1  16 2410.59 408.527   1
  -3  -1  17 191.640 165.335   1
  -3   1  17 309.614 179.393   1
  -3  -1  18 1587.52 342.013   1
  -3  -1  19 842.995 285.400   1
  -3  -2  -9 7808.52 409.643   4
  -3  -2  -9 8991.81 570.969   3
  -3   2  -8 17702.6 665.562   4
  -3  -2  -8 18225.2 639.919   4
  -3  -2  -8 17295.8 803.060   3
  -3   2  -7 12745.9 511.552   4
  -3  -2  -7 13358.9 485.228   4
  -3  -2  -7 11887.8 615.225   3
  -3  -2  -6 11602.2 571.881   3
  -3   2  -6 11889.5 464.335   4
  -3  -2  -6 12891.0 435.786   4
  -3  -2  -5 1136.17 79.8762   2
  -3   2  -5 1118.99 121.435   4
  -3  -2  -5 1178.99 105.715   4
  -3   2  -4 23012.6 693.107   4
  -3  -2  -4 24008.2 630.443   2
  -3  -2  -4 24019.5 618.131   4
  -3  -2  -3 7674.27 318.338   2
  -3   2  -3 7289.81 322.648   4
  -3  -2  -2 4841.93 273.078   2
   3  -2  -2 4738.79 297.199   4
  -3   2  -2 4451.12 247.789   4
   3  -2  -1 44916.0 1246.29   2
  -3   2  -1 42575.1 1127.59   4
  -3   2  -1 43366.5 1001.15   3
   3   2  -1 43044.7 1320.24   2
   3  -2  -1 44379.5 1193.51   4
  -3  -2  -1 43859.9 1208.66   2
   3  -2   0 9323.32 440.227   2
  -3   2   0 8688.74 386.400   4
   3   2   0 9497.23 473.670   2
  -3   2   0 9357.63 348.570   3
  -3  -2   0 8153.81 437.992   2
   3  -2   0 8790.50 395.504   4
   3   2   1 43572.3 1052.97   4
   3  -2   1 43317.6 1104.93   4
   3   2   1 44205.3 1224.30   2
  -3   2   1 42093.5 1156.07   4
  -3  -2   1 37136.4 1232.78   2
  -3   2   2 3984.41 280.250   4
   3   2   2 4274.85 275.018   2
  -3  -2   2 3770.67 318.378   2
   3  -2   2 4440.97 232.436   4
   3   2   2 4458.32 205.855   4
  -3  -2   3 6836.71 448.066   2
   3   2   3 7396.12 338.309   2
  -3   2   3 7257.24 418.630   2
  -3   2   3 7786.85 426.098   4
   3   2   3 7586.37 273.040   4
   3  -2   3 8221.44 316.783   4
   3   2   4 22422.2 597.897   4
  -3   2   4 22086.8 825.927   2
   3   2   4 23355.5 631.331   2
  -3  -2   4 21953.9 898.987   2
  -3   2   5 939.401 152.410   2
  -3  -2   5 902.031 184.118   2
   3   2   5 1145.52 79.9975   2
   3   2   5 916.574 100.405   4
  -3   2   6 10897.5 560.136   2
  -3  -2   6 11138.8 621.178   2
  -3   2   7 12099.6 609.867   2
  -3  -2   7 12160.5 663.462   2
   3  -2   7 12317.0 446.560   3
  -3   2   8 16466.6 749.156   2
   3  -2   8 16903.9 602.884   3
   3  -2   8 17210.6 627.435   2
  -3  -2   8 17225.5 819.596   2
  -3  -2   9 7127.08 509.481   2
   3  -2   9 7919.29 405.411   3
  -3   2   9 7618.55 495.166   2
   3  -2   9 7791.05 397.639   2
   3  -2  10 1648.73 183.125   2
  -3   2  10 1834.62 243.767   2
  -3  -2  10 2013.24 267.610   2
  -3   2  11 4294.98 377.487   1
  -3   2  11 3723.72 369.390   2
  -3  -2  11 4354.51 451.909   1
   3  -2  11 4258.87 315.608   2
  -3  -2  11 4883.88 427.027   2
  -3  -2  12 623.331 183.929   2
  -3   2  12 235.059 109.427   2
  -3  -2  12 383.979 171.462   1
   3  -2  12 327.149 97.9671   2
  -3   2  12 611.735 154.852   1
  -3  -2  13 560.502 168.143   2
  -3   2  13 407.845 137.696   2
  -3  -2  13 468.410 180.680   1
  -3   2  13 496.904 146.390   1
  -3   2  14 5792.50 502.406   2
  -3  -2  14 6093.25 606.537   1
  -3  -2  14 5961.77 513.430   2
  -3   2  14 5911.40 505.946   1
  -3   2  15 213.330 134.091   1
  -3  -2  15 448.373 192.901   1
  -3  -2  15 298.721 171.602   2
  -3  -2  16 1044.21 273.161   1
  -3  -2  17 1099.75 305.281   1
  -3  -2  18 1644.37 390.304   1
  -3  -2  19 301.087 228.815   1
  -3   3 -12 2255.75 296.416   4
  -3   3 -11 1148.84 201.050   4
  -3   3 -10 5852.06 431.645   4
  -3  -3 -10 6415.69 527.655   3
  -3   3  -9 29.9321 63.0373   4
  -3  -3  -9 47.0883 98.7793   3
  -3   3  -8 12406.5 580.772   4
  -3  -3  -8 12026.4 676.097   3
  -3  -3  -8 12863.6 539.445   4
  -3  -3  -7 11601.0 635.982   3
  -3   3  -7 11632.0 525.814   4
  -3  -3  -7 11496.8 486.193   4
  -3  -3  -6 16680.6 431.724   2
  -3  -3  -6 18039.5 604.879   4
  -3   3  -6 16087.2 625.708   4
  -3   3  -5 7677.64 393.208   4
  -3  -3  -5 8235.48 311.980   2
  -3  -3  -5 8180.70 361.521   4
  -3  -3  -4 22070.4 648.823   4
  -3  -3  -4 21209.6 665.169   2
  -3   3  -4 20204.2 711.947   4
  -3  -3  -3 1365.73 129.496   4
  -3   3  -3 1274.53 150.736   4
  -3  -3  -3 1525.44 170.989   2
  -3  -3  -2 22685.4 819.587   2
  -3   3  -2 24083.0 785.896   4
  -3  -3  -1 4276.25 326.904   2
  -3   3  -1 4024.83 278.346   4
  -3  -3   0 2825.14 282.603   2
   3  -3   0 2249.00 205.982   4
   3   3   0 2069.08 221.982   2
   3   3   0 2179.13 188.419   4
  -3   3   0 2216.13 213.762   4
  -3  -3   1 4242.91 360.330   2
  -3   3   1 4272.46 298.661   4
   3   3   1 4030.43 247.330   4
  -3   3   1 4496.71 269.957   3
   3  -3   1 3936.70 266.020   4
   3   3   1 4498.00 301.442   2
   3  -3   2 23364.1 747.074   4
  -3   3   2 23643.5 845.066   4
  -3  -3   2 22094.6 948.194   2
  -3   3   2 25708.1 819.086   3
   3   3   2 24158.6 774.000   2
   3   3   2 23958.6 720.167   4
  -3   3   3 1339.15 184.643   4
  -3  -3   3 1488.79 237.186   2
   3  -3   3 1528.32 149.910   4
   3   3   3 1297.73 130.760   2
   3   3   3 1220.04 127.002   4
   3  -3   4 22163.5 693.508   4
   3   3   4 21867.5 625.654   2
  -3   3   4 21755.1 849.459   4
  -3  -3   4 20156.9 925.140   2
   3   3   4 19572.0 642.194   4
  -3  -3   5 7134.63 511.450   2
  -3   3   5 7556.17 489.728   4
   3  -3   5 6550.58 213.202   3
   3   3   5 7420.51 327.984   4
   3   3   6 17741.1 591.302   4
   3  -3   6 16976.3 485.995   3
  -3  -3   6 15747.2 822.576   2
   3   3   7 11412.0 488.254   4
  -3  -3   7 12096.4 700.770   2
   3  -3   7 12116.8 423.317   3
   3  -3   8 12483.1 478.632   3
  -3  -3   8 12432.7 719.819   2
   3  -3   9 99.9627 80.6884   2
   3  -3   9 89.5340 52.9991   3
  -3  -3   9-41.0962 90.7078   2
  -3   3  10 6226.75 407.851   1
  -3  -3  10 5410.52 483.749   2
   3  -3  10 5965.90 392.599   2
   3  -3  11 937.101 161.382   2
  -3  -3  11 817.113 237.353   1
  -3  -3  11 890.402 191.224   2
  -3   3  11 1055.04 182.812   1
  -3  -3  12 2687.48 393.163   1
   3  -3  12 2238.22 260.948   2
  -3  -3  12 2966.16 362.877   2
  -3   3  12 3146.64 325.587   1
  -3  -3  13-65.2092 143.294   1
  -3   3  13 270.621 111.774   1
  -3  -3  13 117.248 109.185   2
  -3  -3  14 892.011 262.138   1
  -3   3  14 1153.67 214.029   1
  -3  -3  14 802.049 213.951   2
  -3  -3  15 256.548 200.788   1
  -3  -3  15 514.396 168.882   2
  -3  -3  16 568.326 220.488   1
  -3  -3  16 1028.95 256.795   2
  -3  -3  17 39.4420 174.932   1
  -3  -3  18 935.780 311.009   1
  -3   4 -13 6196.01 551.670   4
  -3   4 -12 896.100 224.723   4
  -3   4 -11 994.549 204.343   4
  -3  -4 -11 572.553 214.656   3
  -3   4 -10 500.435 146.557   4
  -3  -4 -10 649.465 201.093   3
  -3  -4  -9 4552.58 449.391   3
  -3   4  -9 5329.49 404.190   4
  -3  -4  -8 5627.35 483.685   3
  -3   4  -8 5971.22 409.061   4
  -3   4  -7 5351.16 375.815   4
  -3  -4  -7 5667.28 224.337   2
  -3  -4  -7 4981.44 423.611   3
  -3   4  -6 18762.3 741.568   4
  -3  -4  -6 18268.7 587.880   2
  -3  -4  -6 18519.5 685.146   4
  -3  -4  -5 42724.9 1145.18   2
  -3   4  -5 39316.6 1220.40   4
  -3  -4  -5 38031.5 1131.55   4
  -3  -4  -4 5136.25 338.966   2
  -3   4  -4 5520.21 367.162   4
  -3  -4  -4 6168.04 327.826   4
  -3  -4  -3 10059.8 436.613   4
  -3   4  -3 9423.67 490.031   4
  -3  -4  -3 9443.67 504.741   2
  -3  -4  -2 8839.21 405.294   4
  -3  -4  -2 8078.16 487.995   2
  -3   4  -2 7598.52 440.938   4
   3   4  -1 7638.54 420.086   4
  -3  -4  -1 6670.27 462.675   2
   3  -4  -1 7784.69 394.049   3
  -3   4  -1 7036.33 429.917   4
   3   4   0 2668.75 234.867   4
  -3  -4   0 2794.38 300.518   2
   3  -4   0 2634.89 201.429   3
  -3   4   0 2665.48 256.308   4
   3  -4   1 6927.90 312.090   3
  -3  -4   1 7570.82 532.920   2
  -3   4   1 7981.27 459.593   4
   3   4   1 7115.79 383.454   4
   3  -4   2 8429.44 315.658   3
   3   4   2 8249.29 417.701   2
  -3  -4   2 7919.82 560.498   2
  -3   4   2 8090.70 482.519   4
   3   4   2 8536.45 415.800   4
   3   4   3 9524.86 440.195   4
  -3  -4   3 9783.54 650.003   2
  -3   4   3 8936.91 523.507   4
  -3   4   4 5651.37 415.380   4
  -3  -4   4 5281.48 481.559   2
   3   4   4 5741.90 330.889   4
  -3   4   5 43582.6 1404.06   4
  -3  -4   5 42933.9 1550.74   2
   3   4   5 38563.9 1145.66   4
   3   4   6 17606.7 664.296   4
  -3   4   6 18224.3 884.682   4
  -3  -4   6 19578.5 971.959   2
  -3   4   7 4249.16 492.988   4
   3   4   7 5695.91 345.009   4
  -3  -4   7 6396.26 535.627   2
   3   4   8 6704.77 397.366   4
  -3  -4   8 6419.36 542.876   2
   3  -4   9 5650.34 335.087   3
   3  -4   9 6066.15 412.132   2
  -3  -4   9 5383.02 505.828   2
   3  -4  10 810.008 165.145   2
  -3  -4  10 669.447 203.609   2
  -3   4  10 643.230 133.476   1
  -3   4  11 781.556 138.530   1
  -3  -4  11 592.589 214.547   1
   3  -4  11 944.671 185.676   2
  -3  -4  11 745.704 213.756   2
   3  -4  12 552.873 146.486   2
  -3   4  12 983.405 168.930   1
  -3  -4  12 685.266 214.591   1
  -3  -4  12 1089.15 248.566   2
  -3  -4  13 5507.28 533.221   2
  -3  -4  13 6170.74 625.302   1
  -3  -4  14 2375.96 347.922   2
  -3  -4  14 2197.75 397.017   1
  -3  -4  15 2659.08 459.205   1
  -3  -4  15 3016.97 405.333   2
  -3  -4  16 2795.87 471.883   1
  -3  -4  16 1919.68 337.107   2
  -3  -4  17 150.988 174.665   1
  -3   5 -13 226.851 197.690   4
  -3   5 -12 1120.21 256.157   4
  -3  -5 -12 795.034 256.265   3
  -3   5 -11 1092.87 242.240   4
  -3  -5 -11 1297.05 287.011   3
  -3  -5 -10 7357.38 617.916   3
  -3   5 -10 8376.28 578.313   4
  -3   5  -9 1914.43 275.492   4
  -3  -5  -9 1609.22 283.598   3
  -3   5  -8 5219.90 417.905   4
  -3  -5  -8 5293.38 243.996   2
  -3  -5  -8 4238.93 437.873   3
  -3  -5  -7 1898.11 171.973   2
  -3   5  -7 1773.08 236.337   4
  -3  -5  -6 9539.43 446.167   2
  -3   5  -6 9125.47 544.042   4
  -3   5  -5 833.727 163.414   4
  -3  -5  -5 617.473 115.737   2
  -3  -5  -4 55874.9 1566.65   2
  -3   5  -4 56901.3 1664.85   4
   3   5  -3 11231.5 602.009   4
   3  -5  -3 11910.0 615.651   3
  -3   5  -3 12284.6 614.378   4
  -3  -5  -3 11782.0 582.777   2
   3   5  -2 3512.84 314.601   4
   3  -5  -2 3669.24 307.945   3
  -3  -5  -2 3881.03 332.582   2
  -3   5  -2 3511.88 320.724   4
  -3   5  -1 40.0926 76.7368   4
   3   5  -1 131.648 85.7102   4
   3  -5  -1 16.7613 67.1326   3
  -3   5   0 1137.62 197.400   4
  -3  -5   0 1098.49 190.356   2
   3   5   0 1231.60 177.479   4
   3  -5   0 1118.89 152.487   3
  -3   5   1-12.5244 45.7881   1
  -3   5   1 90.6711 86.6435   4
   3   5   1 96.8161 69.3042   4
   3  -5   1 36.0229 47.2929   3
  -3  -5   2 3509.57 366.921   2
  -3   5   2 3534.65 335.811   4
   3   5   2 3749.42 301.238   4
   3   5   3 10964.9 539.385   4
  -3  -5   3 11987.9 742.597   2
  -3   5   3 12676.5 666.067   4
  -3  -5   4 59012.3 2000.29   2
  -3   5   4 59799.8 1810.59   4
   3   5   4 58398.2 1629.58   4
  -3   5   5 579.279 169.463   4
   3   5   5 827.632 147.506   4
  -3  -5   5 709.040 206.773   2
  -3   5   6 9940.21 625.766   4
   3   5   6 9649.10 500.265   4
  -3  -5   6 8820.70 676.912   2
  -3   5   7 1554.80 289.287   4
   3   5   7 1929.95 215.940   4
  -3  -5   7 1810.85 316.195   2
  -3  -5   8 4817.79 507.364   2
   3   5   8 5837.46 391.368   4
  -3   5   8 3712.35 487.407   4
  -3   5   9 2151.81 184.353   1
   3   5   9 1575.44 263.325   4
   3  -5   9 1793.46 239.235   2
  -3  -5   9 2311.73 359.718   2
  -3  -5  10 7623.79 645.936   1
   3  -5  10 7760.22 529.197   2
  -3  -5  10 7796.34 650.463   2
  -3   5  10 8718.03 409.780   1
   3  -5  11 753.886 169.536   2
  -3  -5  11 861.644 231.941   1
  -3  -5  11 888.844 241.406   2
   3  -5  12 890.598 192.208   2
  -3  -5  12 1081.79 270.634   2
  -3  -5  12 1158.76 270.718   1
  -3  -5  13-8.95755 163.425   1
   3  -5  13 93.1356 113.437   2
  -3  -5  13-12.3847 138.984   2
  -3  -5  14 2997.47 419.856   2
  -3  -5  14 3254.31 493.441   1
  -3  -5  15 1685.11 375.203   1
  -3  -5  15 1280.62 292.499   2
  -3  -5  16 1152.99 344.951   1
  -3  -5  16 1006.22 260.286   2
  -3  -5  17 399.018 269.114   1
  -3   6 -13 2641.85 401.622   4
  -3  -6 -13 2620.82 439.927   3
  -3   6 -12 188.728 159.988   4
  -3  -6 -12-2.29131 148.285   3
  -3   6 -11 3208.66 401.440   4
  -3  -6 -11 2326.58 375.616   3
  -3   6 -10 552.818 171.304   4
  -3  -6 -10 330.800 165.191   3
  -3   6  -9 2613.94 338.651   4
  -3  -6  -9 1608.42 296.268   3
  -3   6  -8 1310.62 234.203   4
  -3  -6  -8 875.856 124.477   2
  -3  -6  -8 1053.92 236.197   3
  -3  -6  -7 20473.6 729.911   2
  -3   6  -7 21619.1 961.611   4
  -3   6  -6 104.353 90.4173   4
  -3  -6  -6 58.9951 51.9580   2
   3   6  -5 15399.1 796.945   4
  -3   6  -5 15238.6 776.706   4
   3  -6  -5 15426.8 829.121   3
  -3  -6  -5 15399.7 654.629   2
  -3   6  -4 270.982 122.238   4
  -3  -6  -4 348.550 111.014   2
   3   6  -4 274.251 113.445   4
   3  -6  -4 371.657 137.221   3
   3   6  -3 5273.80 427.891   4
   3  -6  -3 5546.94 434.435   3
  -3  -6  -3 5550.50 398.847   2
  -3   6  -3 4934.75 420.276   4
   3   6  -2 3252.93 330.751   4
   3  -6  -2 3175.81 308.539   3
  -3   6  -2 2768.89 310.390   4
  -3  -6  -2 2900.04 303.406   2
   3  -6  -1 18690.1 770.809   3
   3   6  -1 18004.2 810.982   4
  -3  -6  -1 17707.0 825.193   2
  -3   6  -1 18494.4 867.446   4
  -3   6   0 2245.88 286.586   4
  -3  -6   0 2388.08 293.887   2
   3   6   0 2355.08 267.363   4
   3  -6   0 2636.25 248.311   3
   3   6   1 19299.3 828.424   4
   3  -6   1 19429.0 716.990   3
  -3   6   1 17996.8 666.600   1
  -3  -6   1 17872.6 892.129   2
  -3   6   1 18052.6 872.865   4
   3   6   2 3320.63 318.742   4
  -3   6   2 3104.73 226.004   1
  -3  -6   2 3252.96 385.716   2
  -3   6   2 2908.61 335.768   4
  -3   6   3 6158.82 491.722   4
  -3  -6   3 5261.67 494.422   2
  -3   6   3 6242.91 311.317   1
   3   6   3 5728.09 418.638   4
  -3   6   4 154.234 119.892   4
   3   6   4 297.129 115.956   4
  -3  -6   4 75.7494 175.329   2
  -3   6   4 288.349 62.3770   1
  -3  -6   5 14554.2 911.530   2
  -3   6   5 13245.7 771.947   4
   3   6   5 16945.7 740.910   4
  -3   6   6 40.5862 114.209   4
   3   6   6-39.8440 72.2323   4
  -3  -6   6-155.078 184.960   2
  -3  -6   7 23418.0 1211.70   2
  -3   6   7 22133.9 1074.55   4
   3   6   7 21563.3 893.465   4
  -3   6   8 1149.50 296.570   4
   3   6   8 1315.33 204.990   4
  -3   6   8 1266.21 103.667   1
  -3  -6   8 1161.24 275.452   2
  -3   6   9 2276.12 360.901   4
   3   6   9 2190.85 282.054   4
   3  -6   9 1828.38 274.012   2
  -3  -6   9 2236.77 353.936   1
  -3  -6   9 2079.61 360.634   2
   3   6  10 350.157 149.608   4
   3  -6  10 527.394 173.600   2
  -3  -6  10 458.696 171.430   2
  -3  -6  10 271.943 126.244   1
  -3  -6  11 3079.24 454.044   1
   3  -6  11 2917.53 350.910   2
  -3  -6  11 2567.40 404.263   2
   3  -6  12-45.1937 94.9062   2
  -3  -6  12 85.2230 151.043   2
  -3  -6  13 1623.88 366.261   1
   3  -6  13 2757.03 373.617   2
  -3  -6  13 2067.99 371.436   2
  -3  -6  14 372.586 191.891   2
  -3  -6  14-123.943 162.958   1
  -3  -6  15 3577.98 553.701   1
  -3  -6  15 3822.23 506.563   2
  -3  -6  16 222.634 236.467   1
  -3  -6  16-248.731 215.379   2
  -3  -7 -14 357.483 235.569   3
  -3   7 -13 2063.76 369.438   4
  -3  -7 -13 2017.01 367.918   3
  -3   7 -12 1457.93 296.318   4
  -3  -7 -12 2018.56 382.802   3
  -3   7 -11 3964.21 469.437   4
  -3  -7 -11 4349.20 531.979   3
  -3   7 -10 405.372 160.748   4
  -3  -7 -10 617.001 232.972   3
  -3  -7  -9 7464.22 663.488   3
  -3   7  -9 7443.00 607.587   4
  -3   7  -8 2217.23 333.711   4
   3   7  -8 3238.78 418.551   4
  -3  -7  -8 3269.33 423.314   3
  -3   7  -7 2924.30 359.812   4
   3   7  -7 3043.35 383.918   4
  -3  -7  -7 3046.97 261.168   2
  -3  -7  -6-20.3900 71.7276   2
   3   7  -6-62.2663 102.854   4
   3  -7  -6-17.5539 126.448   3
   3  -7  -5 18464.6 962.084   3
   3   7  -5 17150.2 901.825   4
  -3  -7  -5 17945.8 762.223   2
  -3   7  -5 17557.2 906.063   4
  -3  -7  -4 94.4361 79.2385   2
  -3   7  -4 324.612 118.264   4
   3   7  -4 335.276 129.359   4
   3  -7  -4 368.786 150.534   3
   3   7  -3 14179.4 791.241   4
   3  -7  -3 17372.5 841.452   3
  -3  -7  -3 15288.6 741.891   2
  -3   7  -3 14310.0 797.254   4
   3   7  -2 6503.27 497.617   4
   3  -7  -2 6437.02 473.142   3
  -3  -7  -2 6158.41 465.731   2
  -3   7  -2 5672.84 487.449   4
   3  -7  -1 7857.49 513.901   3
  -3  -7  -1 8132.77 550.597   2
  -3   7  -1 9060.07 618.042   4
   3   7  -1 8970.68 586.113   4
   3  -7   0 18469.0 789.217   3
  -3   7   0 18524.6 929.057   4
  -3  -7   0 17866.5 886.217   2
   3   7   0 18159.6 867.483   4
  -3   7   1 8736.44 621.621   4
  -3  -7   1 8211.79 601.827   2
   3   7   1 8936.42 585.195   4
  -3   7   2 6392.45 335.553   1
  -3   7   2 6269.77 530.541   4
  -3  -7   2 5729.45 513.147   2
   3   7   2 6295.63 482.307   4
  -3   7   3 14757.6 522.000   1
   3   7   3 16546.2 787.879   4
  -3  -7   3 15023.5 877.595   2
  -3   7   3 15008.8 836.842   4
  -3   7   4 291.073 60.8962   1
  -3   7   4 337.913 140.840   4
   3   7   4 354.976 139.873   4
  -3  -7   4 164.417 149.644   2
  -3  -7   5 16805.1 1010.41   2
  -3   7   5 17737.8 490.756   1
  -3   7   5 17516.8 941.976   4
   3   7   5 19157.4 871.730   4
  -3   7   6-107.441 132.096   4
   3   7   6 281.797 134.648   4
  -3  -7   6 71.8708 134.581   2
  -3   7   7 2448.68 348.403   4
   3   7   7 3410.08 348.723   4
  -3  -7   7 2723.16 419.649   2
  -3   7   8 2424.40 368.371   4
   3   7   8 2833.02 325.397   4
  -3  -7   8 2493.07 399.340   2
  -3  -7   9 6609.91 629.003   1
   3  -7   9 7522.36 572.278   2
  -3   7   9 7083.35 631.997   4
  -3  -7   9 7417.10 710.608   2
   3   7   9 7229.94 529.566   4
  -3   7  10 235.436 207.784   4
   3   7  10 681.043 176.778   4
   3  -7  10 558.156 191.206   2
  -3  -7  10 473.757 210.229   1
  -3  -7  10 372.118 176.520   2
   3   7  11 5654.85 485.109   4
  -3  -7  11 4184.33 542.418   2
  -3  -7  11 4825.10 573.986   1
   3  -7  11 4458.86 463.864   2
   3  -7  12 1468.21 279.354   2
  -3  -7  12 1770.39 378.329   1
  -3  -7  12 1862.49 367.902   2
  -3  -7  13 1922.30 377.067   2
   3  -7  13 1913.08 320.071   2
  -3  -7  13 1684.20 405.226   1
  -3  -7  14 713.368 275.562   2
  -3  -7  14 243.387 199.752   1
  -3  -7  15 2421.60 489.390   1
  -3  -7  15 2337.16 417.123   2
  -3  -7  16 1016.77 318.728   2
  -3  -7  17 3042.16 474.569   2
   3   8 -14 1167.08 343.617   4
  -3  -8 -14 992.217 312.039   3
  -3   8 -13 3228.84 494.085   4
   3   8 -13 3068.99 499.995   4
  -3  -8 -13 3273.88 505.136   3
  -3   8 -12-25.4273 128.516   4
   3   8 -12 373.604 257.218   4
  -3  -8 -12-158.841 220.840   3
   3   8 -11 6977.27 682.246   4
  -3  -8 -11 6209.72 666.988   3
  -3   8 -11 7557.95 692.205   4
  -3   8 -10 1695.06 303.721   4
   3   8 -10 1776.64 352.764   4
  -3  -8 -10 1470.96 331.504   3
   3   8  -9 9246.12 740.638   4
  -3  -8  -9 9360.90 783.770   3
  -3   8  -9 9135.10 724.448   4
  -3   8  -8 4816.74 507.876   4
   3   8  -8 4175.36 489.020   4
  -3  -8  -8 3914.89 507.727   3
   3   8  -7 3335.36 437.834   4
   3  -8  -7 4708.25 540.869   3
  -3  -8  -7 4102.22 335.928   2
  -3   8  -7 3930.39 450.507   4
   3   8  -6 2687.95 362.390   4
   3  -8  -6 2731.28 396.237   3
  -3  -8  -6 2814.82 287.706   2
  -3   8  -6 3056.03 386.106   4
  -3   8  -5 17437.4 954.370   4
   3  -8  -5 18425.1 991.217   3
   3   8  -5 17628.0 961.218   4
  -3  -8  -5 17055.5 789.312   2
  -3   8  -4 6189.33 549.320   4
   3  -8  -4 7676.70 595.164   3
  -3  -8  -4 6807.22 489.028   2
   3   8  -4 7053.78 575.091   4
   3  -8  -3 22942.6 1046.97   3
  -3  -8  -3 21316.5 952.664   2
  -3   8  -3 22829.7 1093.61   4
   3   8  -3 21866.0 1058.85   4
  -3   8  -2 1791.31 299.323   4
  -3  -8  -2 2042.17 276.615   2
   3   8  -2 1918.72 303.163   4
   3  -8  -2 1947.54 272.489   3
   3  -8  -1 12833.4 703.865   3
  -3  -8  -1 12307.1 736.630   2
  -3   8  -1 12893.3 809.762   4
   3   8  -1 13628.8 790.371   4
  -3   8   0 334.393 138.939   4
  -3  -8   0 215.912 110.474   2
   3   8   0 570.028 159.542   4
   3  -8   0 383.839 122.844   3
  -3   8   1 12475.8 799.201   4
  -3  -8   1 11130.6 741.205   2
   3   8   1 12465.3 754.144   4
  -3   8   2 2155.23 335.415   4
   3   8   2 1776.46 281.918   4
  -3  -8   2 1598.80 282.323   2
  -3   8   2 1964.49 181.116   1
  -3   8   3 23009.0 700.913   1
  -3   8   3 21498.1 1103.82   4
  -3  -8   3 21943.9 1134.28   2
   3   8   3 24424.1 1068.92   4
  -3  -8   4 6332.13 594.700   2
   3   8   4 6542.46 531.428   4
  -3   8   4 6373.28 569.140   4
  -3   8   5 15429.8 930.549   4
  -3  -8   5 18166.7 1062.57   2
   3   8   5 16731.8 871.032   4
  -3   8   6 2437.38 372.348   4
   3   8   6 3127.54 359.260   4
  -3  -8   6 2105.26 367.950   2
  -3  -8   7 4215.67 542.380   2
  -3   8   7 3484.68 444.533   4
  -3  -8   7 3739.17 456.803   1
   3   8   7 4309.65 425.637   4
  -3  -8   8 3799.26 482.539   1
  -3   8   8 4629.03 498.521   4
  -3  -8   8 3357.98 483.025   2
   3  -8   8 4157.83 444.986   2
   3   8   8 3563.85 400.075   4
  -3  -8   9 9530.06 795.211   1
   3   8   9 10531.6 684.498   4
  -3   8   9 8109.00 755.818   4
  -3  -8   9 9114.83 820.605   2
   3  -8   9 8674.64 665.526   2
  -3   8  10 2223.61 396.070   4
   3   8  10 2381.33 332.084   4
   3  -8  10 1747.29 323.164   2
  -3  -8  10 1316.18 323.815   2
  -3  -8  10 2245.78 411.185   1
  -3  -8  11 7308.35 740.345   2
   3  -8  11 7241.56 613.987   2
  -3   8  11 4625.12 697.288   4
   3   8  11 7118.50 645.502   4
  -3  -8  11 6602.50 698.880   1
   3  -8  12 138.953 128.571   2
  -3  -8  12-123.498 149.380   2
   3  -8  13 2736.63 397.727   2
  -3  -8  13 3020.43 504.962   2
  -3  -8  13 4368.84 622.631   1
  -3  -8  14 1378.93 379.462   1
  -3  -8  14 961.232 270.899   2
  -3  -8  15 2586.55 454.105   2
  -3  -8  16 1257.74 341.935   2
  -3  -9 -14-166.646 198.357   3
  -3   9 -13 153.844 188.530   4
   3   9 -13-135.839 197.689   4
  -3  -9 -13 395.436 285.469   3
  -3   9 -12-82.6095 181.318   4
   3   9 -12 158.090 182.396   4
  -3  -9 -12-126.560 248.627   3
  -3   9 -11 778.585 276.784   4
   3   9 -11 876.458 322.274   4
  -3  -9 -11 886.704 278.899   3
  -3   9 -10-197.281 194.678   4
   3   9 -10-71.7829 153.200   4
  -3  -9 -10-229.644 200.671   3
  -3   9  -9 508.572 205.688   4
   3   9  -9 209.010 154.313   4
  -3  -9  -9 331.067 188.075   3
  -3   9  -8-55.4267 132.732   4
   3   9  -8 392.354 197.653   4
  -3  -9  -8-56.7725 175.216   3
  -3   9  -7 1463.52 294.293   4
   3   9  -7 1482.25 307.010   4
   3  -9  -7 1420.31 321.196   3
  -3  -9  -6 1431.46 218.217   2
  -3   9  -6 1999.18 361.865   4
   3   9  -6 1231.83 269.686   4
   3  -9  -6 2035.73 351.288   3
  -3  -9  -5-31.6376 100.979   2
  -3   9  -5 226.444 176.267   4
   3   9  -5 83.7709 131.956   4
   3  -9  -5-67.2055 138.281   3
  -3  -9  -4 1663.52 259.400   2
  -3   9  -4 1563.63 310.621   4
   3   9  -4 1157.41 247.156   4
   3  -9  -4 1603.35 284.968   3
  -3   9  -3 51.6587 136.049   4
  -3  -9  -3-66.3933 105.236   2
   3   9  -3-134.286 159.241   4
   3  -9  -3 30.5250 118.927   3
  -3  -9  -2-85.9398 150.678   2
  -3   9  -2 163.870 175.189   4
   3   9  -2 420.992 184.533   4
   3  -9  -2 61.2190 96.4718   3
  -3   9  -1 92.0855 132.790   4
  -3  -9  -1 36.2289 113.452   2
   3   9  -1 51.7756 110.144   4
  -3   9   0 754.240 244.055   4
  -3  -9   0 659.844 202.635   2
   3   9   0 883.723 229.788   4
   3  -9   0 702.574 178.360   3
  -3   9   1 32.1662 162.627   4
  -3  -9   1 407.802 205.940   2
   3   9   1 54.1019 116.939   4
   3   9   2 148.823 145.190   4
  -3  -9   2 169.089 128.025   2
  -3   9   2-85.5175 160.798   4
  -3   9   3 62.8467 187.992   4
   3   9   3 12.3542 158.244   4
  -3  -9   3 273.323 179.549   2
  -3   9   4 1184.69 292.591   4
   3   9   4 921.074 213.581   4
  -3  -9   4 1142.01 281.619   2
  -3   9   5-140.627 169.456   4
  -3  -9   5-42.8221 167.612   2
   3   9   5 141.676 114.529   4
  -3  -9   6 1518.66 318.355   2
  -3   9   6 1715.43 342.234   4
  -3  -9   6 2075.29 355.341   1
   3   9   6 2060.74 314.653   4
  -3   9   7 1305.05 294.361   4
   3   9   7 1821.12 304.407   4
  -3  -9   7 1541.47 348.952   2
  -3  -9   7 1575.36 319.495   1
  -3  -9   8-10.6464 134.109   1
  -3   9   8 128.510 138.782   4
   3  -9   8-54.7387 122.093   2
  -3  -9   8 102.868 170.356   2
   3   9   8 18.2272 133.693   4
  -3   9   9 433.020 214.920   4
   3   9   9 358.419 162.425   4
   3  -9   9 231.936 165.332   2
  -3  -9   9 146.798 146.054   2
  -3  -9   9 491.516 223.217   1
  -3   9  10 329.030 231.556   4
   3   9  10 207.003 161.309   4
   3  -9  10 27.5367 166.133   2
  -3  -9  10 24.6047 220.259   1
  -3  -9  10 358.615 227.364   2
  -3   9  11 592.876 275.291   4
  -3  -9  11 812.647 303.338   1
  -3  -9  11 949.107 325.075   2
   3   9  11 380.667 184.832   4
   3  -9  11 731.876 241.237   2
   3  -9  12 468.776 215.916   2
  -3  -9  12 178.903 181.110   2
   3  -9  13-70.0309 150.971   2
  -3  -9  13 6.00565 236.408   1
   3  -9  14 225.325 189.686   2
  -3  -9  14 485.423 257.025   2
  -3  -9  15 113.532 237.033   2
  -3  10 -12-305.887 266.954   4
   3  10 -12-129.152 180.705   4
  -3 -10 -12-54.6223 145.544   3
  -3  10 -11 2041.37 427.872   4
   3  10 -11 2330.64 424.983   4
  -3 -10 -11 2514.55 442.513   3
  -3  10 -10 364.940 178.568   4
   3  10 -10 135.641 182.315   4
  -3 -10 -10 119.835 209.861   3
  -3  10  -9 3359.14 500.410   4
   3  10  -9 2838.49 447.812   4
  -3 -10  -9 2573.44 466.881   3
  -3  10  -8 5.31836 158.867   4
   3  10  -8 76.1499 162.877   4
   3 -10  -8-64.8579 160.474   3
  -3 -10  -8-163.943 189.926   3
  -3  10  -7 3986.28 511.792   4
   3  10  -7 3137.90 461.680   4
   3 -10  -7 3931.73 516.086   3
  -3 -10  -6 1236.35 223.001   2
  -3  10  -6 1119.27 289.997   4
   3  10  -6 1153.77 293.753   4
   3 -10  -6 1360.77 284.629   3
  -3  10  -5 9893.52 796.616   4
   3 -10  -5 12127.4 844.788   3
  -3 -10  -5 9617.17 648.402   2
   3  10  -5 9529.88 767.219   4
  -3 -10  -4 938.629 221.258   2
  -3  10  -4 906.730 275.176   4
   3  10  -4 807.069 235.939   4
   3 -10  -4 659.116 215.490   3
  -3  10  -3 4039.52 492.666   4
   3 -10  -3 4690.45 491.742   3
  -3 -10  -3 4415.11 450.523   2
   3  10  -3 4950.07 542.262   4
  -3  10  -2 171.681 188.853   4
  -3 -10  -2-74.0151 106.902   2
   3  10  -2 138.364 141.557   4
   3 -10  -2-11.5022 119.427   3
   3 -10  -1 7100.35 571.332   3
  -3 -10  -1 7907.51 646.899   2
  -3  10  -1 7505.42 692.969   4
   3  10  -1 8465.56 702.654   4
  -3  10   0 45.0400 148.385   4
  -3 -10   0 141.449 144.895   2
   3  10   0 37.5158 116.385   4
   3 -10   0-11.3785 103.758   3
  -3 -10   1 7198.78 637.742   2
  -3  10   1 7812.58 710.459   4
   3  10   1 7762.24 674.226   4
  -3  10   2 87.6417 147.064   4
   3  10   2 3.94913 154.356   4
  -3 -10   2-58.4056 134.161   2
  -3 -10   3 4497.53 472.456   1
  -3 -10   3 4628.45 541.155   2
  -3  10   3 4682.92 551.454   4
   3  10   3 4219.27 496.653   4
  -3  10   4 1099.37 297.414   4
   3  10   4 974.458 249.123   4
  -3 -10   4 1117.38 293.101   2
  -3 -10   4 882.986 238.071   1
  -3 -10   5 10891.8 811.509   1
  -3 -10   5 9785.27 833.138   2
  -3  10   5 10752.8 846.578   4
   3  10   5 10437.8 759.081   4
  -3  10   6 1136.23 276.623   4
   3  10   6 1309.95 287.867   4
  -3 -10   6 1693.66 337.497   1
  -3 -10   6 1126.95 305.151   2
  -3  10   7 3520.15 480.805   4
   3  10   7 3456.15 433.698   4
  -3 -10   7 3630.37 519.803   2
  -3 -10   7 4195.53 528.602   1
  -3  10   8 358.224 246.037   4
   3 -10   8 116.973 127.489   2
  -3 -10   8-184.192 240.298   2
  -3 -10   8 129.189 173.126   1
   3  10   8 146.780 146.070   4
  -3  10   9 2813.39 455.136   4
   3  10   9 3098.35 421.402   4
   3 -10   9 2826.99 418.950   2
  -3 -10   9 3114.15 488.319   1
  -3 -10   9 2235.04 428.757   2
  -3  10  10 238.904 193.410   4
   3 -10  10 9.81931 131.471   2
  -3 -10  10-144.651 221.460   2
  -3 -10  10-266.549 195.488   1
  -3  10  11 2306.78 456.839   4
   3  10  11 1824.86 345.141   4
   3 -10  11 2114.66 376.797   2
  -3 -10  11 2205.35 453.075   2
  -3 -10  11 2043.36 425.086   1
   3 -10  12 183.154 175.924   2
  -3  10  12-85.0546 202.552   4
  -3 -10  12-71.0746 210.245   2
  -3 -10  12-64.6871 212.891   1
   3 -10  13 1843.76 376.021   2
  -3 -10  13 2473.56 494.701   2
   3 -10  14 112.580 193.310   2
  -3  11 -12 406.451 291.991   4
  -3  11 -11-9.82217 175.455   4
  -3  11 -10 324.879 226.029   4
   3  11 -10-65.6808 188.749   4
  -3 -11 -10 214.920 231.988   3
  -3  11  -9 1447.05 373.489   4
   3  11  -9 1904.72 405.337   4
  -3 -11  -9 1523.35 337.754   3
  -3  11  -8 3043.17 495.995   4
   3  11  -8 1845.70 390.946   4
   3 -11  -8 1808.92 406.692   3
  -3 -11  -8 2532.99 458.081   3
   3  11  -7 4742.58 599.629   4
   3 -11  -7 5856.71 656.384   3
  -3  11  -7 6016.23 666.724   4
  -3  11  -6 2052.45 424.184   4
   3  11  -6 2617.59 445.982   4
   3 -11  -6 3441.73 482.564   3
  -3  11  -5 4379.40 563.969   4
   3  11  -5 4916.40 584.416   4
   3 -11  -5 4099.26 508.879   3
  -3 -11  -5 4060.51 440.759   2
  -3  11  -4 3281.89 486.219   4
   3  11  -4 3212.31 474.459   4
   3 -11  -4 3708.67 476.628   3
  -3 -11  -4 3925.59 438.268   2
  -3  11  -3 483.617 225.536   4
  -3 -11  -3 374.089 164.413   2
   3  11  -3 882.807 288.319   4
   3 -11  -3 943.613 264.616   3
  -3  11  -2 2842.68 451.291   4
  -3 -11  -2 2941.64 401.651   2
   3  11  -2 3249.43 455.745   4
   3 -11  -2 2870.35 393.207   3
  -3  11  -1 3140.72 489.675   4
   3  11  -1 2828.62 449.758   4
   3 -11  -1 1845.35 305.179   3
  -3 -11  -1 2567.80 396.482   2
  -3  11   0 8.53730 167.025   4
  -3 -11   0 97.1254 125.471   2
   3  11   0 344.062 198.675   4
   3 -11   0 383.112 160.896   3
   3  11   1 2221.98 390.377   4
  -3 -11   1 2423.44 412.704   2
  -3  11   1 2695.37 445.051   4
   3 -11   1 2634.66 342.645   3
  -3 -11   1 2490.97 336.461   1
  -3  11   2 3356.41 501.424   4
   3  11   2 3301.66 467.254   4
  -3 -11   2 2707.60 431.135   2
  -3 -11   2 3206.54 400.013   1
  -3  11   3 368.923 197.599   4
  -3 -11   3 540.353 214.432   1
   3  11   3 585.374 210.727   4
  -3 -11   3 696.296 228.279   2
  -3  11   4 4411.67 563.233   4
   3  11   4 3317.04 459.065   4
  -3 -11   4 3320.18 503.569   2
  -3 -11   4 3694.09 465.040   1
  -3  11   5 4292.82 560.291   4
   3  11   5 4945.37 558.517   4
  -3 -11   5 3880.93 541.672   2
  -3 -11   5 4284.15 523.900   1
  -3  11   6 2791.14 448.775   4
   3  11   6 2750.71 435.940   4
  -3 -11   6 1462.68 347.621   2
  -3 -11   6 2808.53 455.271   1
  -3  11   7 4239.30 572.388   4
  -3 -11   7 4454.25 623.199   2
   3 -11   7 5373.75 604.531   2
   3  11   7 5495.33 586.614   4
  -3 -11   7 4997.62 606.295   1
  -3 -11   8 2334.61 441.208   1
  -3  11   8 2523.93 449.468   4
  -3 -11   8 2493.64 500.342   2
   3 -11   8 2386.17 407.918   2
   3  11   8 2291.62 375.143   4
  -3  11   9 1383.99 333.374   4
   3  11   9 2148.85 376.975   4
   3 -11   9 1684.63 353.666   2
  -3 -11   9 1507.64 361.139   1
  -3 -11   9 784.555 242.959   2
  -3  11  10 211.672 194.449   4
   3  11  10 313.153 184.119   4
   3 -11  10 360.954 225.236   2
  -3 -11  10-68.5025 203.115   2
  -3 -11  10 341.567 218.620   1
  -3  11  11 369.793 272.950   4
   3 -11  11-94.2554 156.130   2
  -3 -11  11-246.560 279.838   2
  -3 -11  11 136.710 274.772   1
   3 -11  12-257.451 199.387   2
   3 -11  13 562.662 264.696   2
  -3  12 -11 4195.63 661.065   4
  -3  12 -10 374.535 240.628   4
  -3  12  -9 3382.10 566.123   4
  -3  12  -8 124.314 199.768   4
   3  12  -8-351.424 276.757   4
   3 -12  -8-98.7710 164.906   3
  -3 -12  -8-337.388 245.067   3
  -3  12  -7 1747.08 420.112   4
   3  12  -7 2323.13 454.680   4
   3 -12  -7 2214.68 438.168   3
  -3  12  -6 1291.06 339.572   4
   3  12  -6 1190.52 326.490   4
   3 -12  -6 1020.88 303.921   3
  -3  12  -5 2166.63 421.719   4
  -3 -12  -5 2554.81 363.609   2
   3  12  -5 2715.17 473.120   4
   3 -12  -5 2030.84 398.043   3
  -3  12  -4 1085.47 339.900   4
  -3 -12  -4 434.066 189.628   2
   3  12  -4 546.878 263.090   4
   3 -12  -3 6172.99 618.208   3
  -3 -12  -3 6459.18 626.347   2
  -3  12  -3 7234.31 744.623   4
   3  12  -3 7189.38 752.804   4
  -3  12  -2 1109.75 301.864   4
  -3 -12  -2 1073.89 283.700   2
   3  12  -2 913.158 298.542   4
   3 -12  -2 818.889 246.152   3
  -3  12  -1 4199.50 572.240   4
  -3 -12  -1 4229.47 522.870   2
   3  12  -1 5276.20 629.152   4
   3 -12  -1 4542.16 507.039   3
  -3  12   0 310.992 212.706   4
   3  12   0 407.432 215.265   4
  -3 -12   0 153.839 152.075   2
   3 -12   0 337.672 189.574   3
  -3  12   1 3963.54 552.330   4
   3  12   1 4142.43 561.795   4
  -3 -12   1 3954.37 526.718   2
   3 -12   1 4421.05 466.070   3
  -3  12   2 1091.55 321.625   4
   3  12   2 697.873 237.042   4
  -3 -12   2 924.196 312.129   2
  -3 -12   3 6637.67 614.858   1
  -3 -12   3 7325.28 746.575   2
  -3  12   3 7213.59 765.232   4
   3  12   3 7295.36 723.946   4
  -3  12   4 1052.26 342.466   4
  -3 -12   4 1101.95 293.653   1
   3  12   4 704.482 246.970   4
  -3 -12   4 720.594 298.668   2
  -3 -12   5 2455.65 415.784   1
  -3  12   5 2345.92 457.454   4
   3  12   5 2729.28 441.258   4
  -3 -12   5 2042.70 418.660   2
  -3  12   6 611.847 248.691   4
   3  12   6 1157.95 318.717   4
  -3 -12   6 979.373 337.331   2
   3 -12   6 1356.27 324.870   2
  -3 -12   6 904.097 275.629   1
  -3  12   7 2316.56 443.712   4
   3 -12   7 1920.10 392.134   2
   3  12   7 2421.03 424.066   4
  -3 -12   7 1670.73 390.559   2
  -3 -12   7 2113.01 417.518   1
  -3  12   8 97.1497 189.031   4
   3  12   8-302.229 176.592   4
   3 -12   8 412.703 234.463   2
  -3 -12   8-410.634 341.065   2
  -3 -12   8-103.276 191.801   1
  -3  12   9 2104.46 419.458   4
   3  12   9 2959.42 461.087   4
   3 -12   9 2669.10 454.497   2
  -3 -12   9 2898.74 517.574   1
   3  12  10 494.328 209.944   4
   3 -12  10 562.235 243.635   2
  -3 -12  10 30.8796 195.755   1
  -3  13  -8 1499.91 397.445   4
   3 -13  -8 2562.86 476.473   3
  -3  13  -7 2515.96 520.639   4
   3 -13  -7 2151.23 452.410   3
  -3  13  -6 3690.29 596.174   4
   3  13  -6 3430.94 565.451   4
   3 -13  -6 3212.82 512.768   3
  -3  13  -5 1421.94 375.283   4
   3  13  -5 1953.15 428.589   4
   3 -13  -5 1155.56 318.786   3
  -3  13  -4 4361.34 636.166   4
  -3 -13  -4 4270.03 525.775   2
   3  13  -4 5627.90 703.387   4
   3 -13  -4 4436.43 568.980   3
  -3  13  -3 175.686 201.649   4
  -3 -13  -3 20.7652 131.900   2
   3  13  -3-70.8776 205.275   4
   3 -13  -3-116.005 197.806   3
  -3  13  -2 2837.44 498.449   4
  -3 -13  -2 2884.75 454.630   2
   3  13  -2 3732.80 571.592   4
   3 -13  -2 2613.30 413.706   3
  -3  13  -1 844.847 319.902   4
   3  13  -1 700.463 301.645   4
  -3 -13  -1 882.256 265.616   2
   3 -13  -1 498.267 208.874   3
   3 -13   0 12123.6 854.936   3
  -3 -13   0 11871.6 937.557   2
   3  13   0 12103.9 996.684   4
  -3  13   0 12149.3 1036.07   4
  -3  13   1 666.765 336.419   4
   3  13   1 988.848 331.090   4
  -3 -13   1 635.561 232.374   2
  -3  13   2 2801.28 501.853   4
   3  13   2 2912.31 491.491   4
  -3 -13   2 1887.11 392.463   2
  -3  13   3-38.4717 188.745   4
   3  13   3-59.4261 157.208   4
  -3 -13   3-2.99796 179.452   2
  -3  13   4 5285.16 676.491   4
   3  13   4 5503.62 652.405   4
  -3 -13   4 4685.03 647.827   2
  -3 -13   5 1610.08 383.799   2
  -3  13   5 1203.79 329.356   4
   3  13   5 1186.13 306.849   4
   3 -13   5 1628.75 356.057   2
  -3  13   6 3638.89 540.328   4
   3 -13   6 3334.29 511.263   2
   3  13   6 2767.21 483.758   4
  -3 -13   6 2654.96 520.953   2
  -3 -13   6 3946.87 549.482   1
   3  13   7 3441.32 517.186   4
  -3 -13   7 1821.31 402.382   1
   3  13   8 1888.01 411.220   4
  -3 -13   8 1781.30 423.256   1
   3  13   9-203.463 180.449   4
  -3 -13   9-7.45486 201.069   1
   3 -14  -6 636.558 279.939   3
   3 -14  -5 1587.34 360.883   3
   3 -14  -4 190.234 191.334   3
  -3 -14  -3 720.750 281.653   2
   3 -14  -3 66.3357 134.104   3
  -3 -14  -2-124.364 220.546   2
   3 -14  -2 306.058 208.097   3
   3  14  -1 1191.26 343.216   4
  -3 -14  -1 859.948 250.249   2
   3  14   0-19.7839 225.572   4
  -3 -14   0 373.134 259.179   2
   3  14   1 820.207 319.594   4
  -3 -14   1 992.305 286.604   2
   3  14   2 173.062 211.917   4
  -3 -14   2-76.3783 208.821   2
   3  14   3-21.2444 173.692   4
   3  14   4-37.6463 214.126   4
   3  14   5 2008.73 452.127   4
   3  14   6 855.909 311.957   4
   3  14   7 575.469 298.952   4
  -4   0  -9 896.439 107.695   4
  -4   0  -8 32573.4 833.455   4
  -4   0  -7 14367.7 403.204   4
  -4   0  -7 15806.1 415.262   4
  -4   0  -7 15921.9 618.786   3
  -4   0  -6 41568.4 1143.81   3
  -4   0  -2 54041.2 1430.90   2
  -4   0  -1 9415.37 451.877   2
  -4   0   0 57252.5 1529.26   2
   4   0   0 55983.6 1363.57   4
  -4   0   1 9590.30 477.673   2
   4   0   1 8870.23 323.308   4
   4   0   1 9263.30 405.594   2
  -4   0   2 56000.9 1547.38   2
   4   0   2 56079.7 1382.24   2
   4   0   2 53578.3 1216.27   4
  -4   0   3 26453.1 957.811   2
   4   0   3 27572.4 790.514   2
   4   0   4 30851.7 849.746   2
  -4   0   4 31118.7 1075.42   2
   4   0   5 7763.28 322.219   2
  -4   0   5 7266.09 465.072   2
   4   0   6 41271.5 1025.70   2
  -4   0   6 40135.3 1342.31   2
   4   0   7 15087.6 462.309   2
  -4   0   7 14802.3 729.585   2
  -4   0   8 29740.5 1132.46   2
   4   0   8 29644.8 746.500   2
  -4   0   9 310.832 122.843   2
   4   0   9 638.533 62.4835   2
   4   0   9 627.503 67.7710   2
  -4   0  10 11036.4 666.369   2
  -4   0  11 16018.8 840.419   2
  -4   0  12 4782.19 459.314   2
  -4   0  13 731.696 212.962   2
  -4   0  13 610.389 190.525   1
  -4   0  14 13273.8 856.049   1
  -4   0  14 11829.3 773.761   2
  -4   0  15 229.876 146.162   1
  -4   0  15-53.5188 107.631   2
  -4   0  16 9192.53 762.368   1
  -4   0  17 1735.12 347.925   1
  -4   1 -10 6414.11 354.641   4
  -4  -1  -9 3273.98 320.139   3
  -4   1  -9 3019.30 213.888   4
  -4  -1  -9 2671.01 185.406   4
  -4  -1  -8 19670.9 555.617   4
  -4  -1  -8 19355.9 799.792   3
  -4   1  -8 18862.1 595.099   4
  -4  -1  -7 6546.32 405.050   3
  -4  -1  -7 6279.85 214.861   4
  -4   1  -7 6629.81 269.910   4
  -4  -1  -6 12235.5 545.656   3
  -4   1  -6 12542.5 386.879   4
  -4   1  -5 6163.97 225.530   4
  -4   1  -5 6689.11 265.217   3
  -4   1  -4 28729.0 676.791   4
  -4  -1  -4 27081.4 805.411   2
  -4   1  -4 27439.4 696.870   3
  -4  -1  -3 6890.19 334.495   2
  -4   1  -3 6596.85 240.891   4
  -4  -1  -2 10767.2 461.063   2
  -4   1  -2 11247.7 379.027   4
   4  -1  -1 1745.46 159.724   4
  -4   1  -1 1461.23 179.604   2
  -4  -1  -1 2059.57 194.242   2
  -4   1   0 57944.8 1595.04   2
   4  -1   0 58140.6 1439.76   4
  -4  -1   0 59428.0 1568.46   2
  -4   1   1 1698.82 195.716   2
   4  -1   1 1777.55 144.248   4
   4   1   1 2054.94 179.598   2
  -4  -1   1 2028.63 215.807   2
   4  -1   2 11275.1 484.583   2
  -4   1   2 12125.4 577.860   2
   4  -1   2 11403.0 382.890   4
   4   1   2 11044.1 446.298   2
  -4  -1   2 11683.2 565.908   2
   4   1   3 6726.50 315.689   2
  -4   1   3 6962.43 437.571   2
   4  -1   3 7391.90 363.739   2
  -4  -1   3 7491.98 454.172   2
   4  -1   3 6412.26 239.658   4
  -4   1   4 29111.5 1025.65   2
   4  -1   4 27473.3 856.438   2
  -4  -1   4 28033.8 1041.27   2
   4   1   4 29296.2 787.006   2
  -4   1   5 5556.21 414.974   2
   4  -1   5 5799.08 308.971   2
   4   1   5 6133.42 261.582   2
  -4  -1   5 6181.66 441.135   2
  -4   1   6 12325.2 646.447   2
   4  -1   6 12514.1 484.139   2
  -4  -1   6 12847.8 667.778   2
   4   1   6 12630.9 395.145   2
  -4   1   7 6384.78 464.012   2
   4  -1   7 6391.36 313.032   2
  -4  -1   7 6313.60 465.863   2
   4   1   7 6183.88 224.327   2
  -4   1   8 18589.3 844.147   2
   4  -1   8 17517.6 589.394   2
  -4  -1   8 18562.2 859.780   2
   4  -1   9 2222.94 172.729   2
  -4   1   9 2544.02 305.685   2
   4  -1   9 2745.83 191.742   2
  -4  -1   9 2729.79 334.009   2
  -4   1  10 5836.14 475.541   2
  -4  -1  10 6157.94 496.848   2
   4  -1  10 6574.79 317.303   2
  -4   1  11 224.887 130.551   2
  -4  -1  11 483.059 166.369   2
  -4   1  12 1010.95 216.725   2
  -4  -1  12 1121.93 236.498   2
  -4   1  13 111.291 124.495   2
  -4  -1  13 363.410 208.075   1
  -4   1  13 157.985 146.804   1
  -4  -1  13 144.349 163.804   2
  -4  -1  14 7907.84 623.803   2
  -4   1  14 8502.96 652.412   1
  -4  -1  14 8536.61 710.579   1
  -4   1  14 8550.89 653.202   2
  -4   1  15 1428.85 278.751   1
  -4  -1  15 1660.59 307.786   2
  -4  -1  15 1652.99 336.373   1
  -4   1  15 1498.27 276.344   2
  -4  -1  16 576.422 211.099   2
  -4   1  16 358.211 136.266   1
  -4  -1  17 1464.22 358.445   1
  -4  -1  18 1496.89 359.024   1
  -4  -1  19 114.436 165.910   1
  -4   2 -11 83.2994 84.7213   4
  -4   2 -10 716.050 131.893   4
  -4  -2 -10 799.535 183.992   3
  -4  -2  -9 39.4195 41.7964   4
  -4   2  -9-36.4045 47.2667   4
  -4  -2  -9-105.909 112.791   3
  -4  -2  -8 484.352 76.8024   4
  -4   2  -8 303.405 72.5874   4
  -4  -2  -8 501.064 143.925   3
  -4  -2  -7 812.258 87.0905   4
  -4   2  -7 919.641 120.036   4
  -4  -2  -7 584.583 135.597   3
  -4   2  -6 177.804 54.5597   4
  -4  -2  -6 157.626 34.3786   4
  -4   2  -5 199.704 61.4453   4
  -4  -2  -5 105.553 48.6158   2
  -4  -2  -4 2729.43 189.032   2
  -4   2  -4 3124.56 200.085   4
  -4   2  -3 268.310 68.0955   4
  -4  -2  -3 149.311 61.5684   2
  -4   2  -2 528.749 91.3225   4
  -4  -2  -2 675.006 110.297   2
  -4  -2  -1 1322.74 167.275   2
  -4   2  -1 1554.22 155.044   4
   4  -2  -1 1732.89 179.143   4
   4  -2   0 6625.95 354.140   4
  -4   2   0 6382.26 342.757   4
  -4  -2   0 7249.16 421.019   2
   4   2   1 1316.74 171.693   2
  -4  -2   1 1311.64 190.117   2
  -4   2   1 1581.85 182.110   4
   4  -2   1 1705.03 160.377   4
  -4   2   2 579.958 118.963   4
   4  -2   2 630.636 93.4680   4
   4   2   2 612.941 81.2602   4
   4   2   2 628.621 109.237   2
  -4   2   2 397.785 109.952   2
  -4  -2   2 446.842 122.494   2
   4   2   3 185.595 40.3243   4
   4  -2   3 242.119 52.7171   4
   4   2   3 302.725 83.0232   2
  -4   2   3 119.010 83.6583   2
  -4  -2   3 5.76374 88.8200   2
   4  -2   4 2653.30 171.121   4
   4   2   4 2836.53 210.166   2
  -4   2   4 2394.72 265.352   2
   4   2   4 2874.91 137.933   4
  -4  -2   4 2815.79 310.232   2
   4   2   5 4.72569 24.9446   4
   4   2   5 53.8272 32.1182   2
  -4   2   5 224.359 102.867   2
  -4  -2   5 162.119 92.6540   2
   4   2   6 108.593 32.4631   2
  -4   2   6 92.9149 71.4432   2
  -4  -2   6 57.7495 102.105   2
  -4   2   7 894.048 171.731   2
  -4  -2   7 693.711 180.186   2
  -4   2   8 85.8229 88.0962   2
  -4  -2   8 396.399 141.257   2
  -4   2   9-157.248 117.790   2
  -4  -2   9-113.840 112.054   2
   4  -2  10 835.373 128.871   2
  -4   2  10 812.705 195.961   2
  -4  -2  10 830.566 201.289   2
   4  -2  11-49.2930 61.1224   2
  -4   2  11-107.334 103.217   2
  -4  -2  11 194.914 135.867   2
  -4   2  12 543.436 182.056   2
  -4  -2  12 451.584 182.986   2
  -4   2  13 104.137 98.0537   1
  -4  -2  13 28.6299 117.910   1
  -4   2  13 206.388 113.644   2
  -4  -2  13 30.5012 157.564   2
  -4   2  14 1407.57 256.803   1
  -4   2  14 1866.60 320.169   2
  -4  -2  14 1672.73 293.531   2
  -4  -2  14 2353.01 407.457   1
  -4  -2  15 1073.10 303.477   1
  -4   2  15 746.027 212.477   2
  -4   2  15 1047.34 235.291   1
  -4  -2  15 687.517 218.898   2
  -4  -2  16 358.725 175.660   2
  -4  -2  16 578.436 254.859   1
  -4  -2  17-31.6165 187.581   1
  -4  -2  18 60.1522 184.522   1
  -4   3 -11 28.5066 67.7304   4
  -4  -3 -11 107.791 119.975   3
  -4   3 -10 419.806 116.303   4
  -4  -3 -10 436.303 140.383   3
  -4   3  -9 6853.63 404.712   4
  -4  -3  -9 5336.72 463.199   3
  -4  -3  -8 6373.96 483.691   3
  -4  -3  -8 7259.85 346.174   4
  -4   3  -8 6657.74 384.474   4
  -4   3  -7 7528.74 411.541   4
  -4  -3  -7 8199.79 351.692   4
  -4  -3  -6 5203.63 229.043   2
  -4   3  -6 4973.71 315.469   4
  -4  -3  -6 5698.25 263.143   4
  -4  -3  -5 17163.7 522.684   4
  -4   3  -5 15728.9 609.724   4
  -4  -3  -5 16383.0 533.949   2
  -4   3  -4 2635.38 219.746   4
  -4  -3  -4 2818.64 207.948   2
  -4  -3  -3 8347.71 420.952   2
  -4   3  -3 8913.83 427.578   4
  -4   3  -2 3093.63 246.968   4
  -4  -3  -2 3205.78 267.896   2
  -4   3  -1 173.396 82.7908   4
  -4  -3  -1 151.921 94.9007   2
  -4   3  -1 176.716 50.0850   3
  -4   3   0 6997.69 330.752   3
  -4   3   0 7466.93 408.845   4
  -4  -3   0 6564.90 447.606   2
  -4   3   1 83.4590 59.1344   4
   4  -3   1 140.578 61.2870   4
   4   3   1 174.154 69.1087   4
  -4   3   1 87.3469 50.3077   3
  -4  -3   1 54.7421 92.9917   2
  -4  -3   2 2498.17 298.253   2
   4   3   2 3056.49 262.180   2
  -4   3   2 2960.29 276.490   4
   4  -3   2 3159.55 235.432   4
   4   3   2 3014.51 204.161   4
  -4  -3   3 7673.22 545.375   2
   4   3   3 8600.59 417.792   2
  -4   3   3 8364.64 495.927   4
   4   3   3 8098.20 348.755   4
   4  -3   3 7600.04 367.020   4
   4  -3   4 2495.37 198.567   4
   4   3   4 2757.12 181.133   4
  -4  -3   4 2410.94 304.534   2
   4   3   4 2684.32 201.207   2
  -4   3   4 2683.26 286.880   4
   4   3   5 17152.0 541.812   2
   4   3   5 16671.7 529.318   4
  -4  -3   5 15141.3 821.380   2
  -4  -3   6 5030.07 453.023   2
   4   3   6 5672.88 272.939   4
  -4   3   7 7750.53 530.428   2
  -4  -3   7 7232.13 561.278   2
  -4   3   8 7433.17 525.528   2
  -4  -3   8 6846.28 553.907   2
  -4   3   9 6146.32 500.524   2
  -4  -3   9 5488.33 501.809   2
   4  -3  10 316.788 105.550   2
  -4   3  10 247.947 115.895   2
  -4  -3  10 249.057 122.977   2
   4  -3  11 75.8595 78.5215   2
  -4   3  11 25.1474 97.2450   2
  -4  -3  11 19.0623 119.272   2
  -4   3  12 82.7635 113.948   1
  -4   3  12 13.9753 114.068   2
  -4  -3  12 33.3642 127.625   2
  -4  -3  13 327.435 234.553   1
  -4   3  13 611.957 171.324   1
  -4  -3  13 156.604 148.171   2
  -4  -3  14 4555.39 562.737   1
  -4  -3  14 4394.32 481.909   2
  -4  -3  15 3729.50 531.751   1
  -4  -3  15 2685.33 391.168   2
  -4  -3  16 441.605 201.657   2
  -4  -3  16 629.721 238.580   1
  -4  -3  17 2632.89 489.923   1
  -4  -3  18-91.7672 167.577   1
  -4  -4 -12 56.3849 162.296   3
  -4  -4 -11 9352.84 699.653   3
  -4   4 -11 10555.2 613.179   4
  -4   4 -10 278.647 112.331   4
  -4  -4 -10 37.0118 122.850   3
  -4  -4  -9 3120.18 368.450   3
  -4   4  -9 2938.23 285.255   4
  -4  -4  -8 11936.1 714.325   3
  -4   4  -8 12083.6 604.078   4
  -4   4  -7 8606.73 479.260   4
  -4  -4  -7 8459.07 399.875   4
  -4  -4  -7 8068.05 287.617   2
  -4   4  -6 16585.9 692.195   4
  -4  -4  -6 16007.3 529.116   2
  -4  -4  -6 16619.8 593.518   4
  -4  -4  -5 20316.1 677.878   4
  -4  -4  -5 20680.6 694.513   2
  -4   4  -5 20135.5 785.263   4
  -4  -4  -4 3720.51 279.000   2
  -4  -4  -4 3616.41 242.847   4
  -4   4  -4 3921.22 308.127   4
  -4  -4  -3 12389.5 586.485   2
  -4   4  -3 11909.8 573.917   4
  -4   4  -2 662.804 152.713   4
  -4  -4  -2 619.240 145.236   2
  -4   4  -1 25746.7 940.246   4
  -4  -4  -1 26803.6 1037.13   2
   4   4   0 4583.19 316.606   4
  -4  -4   0 5155.21 429.177   2
  -4   4   0 4918.12 360.060   4
  -4   4   1 26829.6 878.608   3
   4   4   1 26015.4 862.763   4
  -4   4   1 25680.7 966.913   4
  -4  -4   1 26648.9 1101.34   2
  -4   4   2 663.451 140.489   4
   4   4   2 532.278 98.1461   4
  -4  -4   2 841.661 189.120   2
  -4  -4   3 11711.6 724.908   2
  -4   4   3 10819.3 604.048   4
   4   4   3 12850.4 515.618   4
  -4   4   4 3550.60 351.590   4
  -4  -4   4 3356.78 383.554   2
   4   4   4 3715.22 254.785   2
   4   4   4 3483.89 242.844   4
  -4   4   5 21275.5 938.698   4
  -4  -4   5 18391.2 967.319   2
   4   4   5 19806.4 687.461   4
  -4   4   6 17061.8 855.782   4
   4   4   6 17503.1 627.797   4
  -4  -4   6 16739.0 920.838   2
  -4  -4   7 8758.25 652.633   2
   4   4   7 9141.57 427.875   4
   4   4   8 12762.0 556.898   4
  -4  -4   8 12934.3 812.682   2
  -4  -4   9 2837.11 382.417   2
   4  -4  10 302.390 125.748   2
  -4  -4  10 217.954 133.625   2
   4  -4  11 10148.2 571.917   2
  -4  -4  11 8977.36 687.655   2
   4  -4  12 231.635 110.198   2
  -4  -4  12 125.104 152.932   1
  -4   4  12 143.541 93.8133   1
  -4  -4  12 91.6704 109.793   2
  -4  -4  13 4042.34 534.562   1
  -4  -4  13 3776.91 454.566   2
  -4  -4  14 1001.74 312.119   1
  -4  -4  14 935.014 251.727   2
  -4  -4  15 670.537 236.552   1
  -4  -4  15 940.408 240.867   2
  -4  -4  16 1334.71 297.642   2
  -4  -4  16 286.545 246.550   1
  -4  -4  17 1342.55 370.270   1
  -4  -5 -13 437.499 211.167   3
  -4  -5 -12 5003.59 543.290   3
  -4   5 -11 1211.46 228.569   4
  -4  -5 -11 1386.33 299.017   3
  -4  -5 -10 9377.69 689.931   3
  -4   5 -10 8607.83 570.833   4
  -4   5  -9 2386.70 292.442   4
  -4  -5  -9 2167.65 326.100   3
  -4   5  -8 13626.8 700.834   4
  -4  -5  -7 2615.57 188.448   2
  -4   5  -7 2702.28 299.578   4
  -4  -5  -6 6028.79 335.697   2
  -4   5  -6 5970.94 434.522   4
  -4  -5  -5 11649.0 539.878   2
  -4   5  -5 11632.8 611.380   4
  -4   5  -4 15428.8 719.906   4
  -4  -5  -4 16331.7 711.709   2
  -4  -5  -3 10434.5 591.114   2
  -4   5  -3 10402.0 582.416   4
   4   5  -2 34240.6 1168.49   4
  -4  -5  -2 34364.3 1254.44   2
  -4   5  -2 33375.8 1183.38   4
  -4   5  -1 114.399 95.3134   4
   4   5  -1 168.647 91.1321   4
  -4  -5  -1 251.317 117.996   2
  -4  -5   0 18147.4 911.637   2
  -4   5   0 16657.4 789.498   4
   4   5   0 18311.3 746.786   4
  -4   5   1 294.157 133.745   4
   4   5   1 110.801 63.8250   4
  -4  -5   1 383.817 157.368   2
  -4   5   2 31045.5 1178.29   4
  -4  -5   2 33436.3 1372.87   2
   4   5   2 32877.8 1068.95   4
   4  -5   3 9935.11 347.490   3
  -4   5   3 8895.11 580.041   4
  -4  -5   3 9435.20 691.201   2
   4   5   3 10120.7 504.637   4
  -4  -5   4 15288.8 899.597   2
   4  -5   4 14585.8 403.505   3
  -4   5   4 13937.1 756.131   4
   4   5   4 14655.4 622.630   4
   4   5   5 11906.6 548.169   4
  -4   5   5 11328.6 689.598   4
  -4  -5   5 11457.2 778.803   2
  -4   5   6 6600.92 530.683   4
  -4  -5   6 6413.81 582.002   2
   4   5   6 6157.26 385.765   4
  -4   5   7 2534.71 357.156   4
  -4  -5   7 2663.02 379.192   2
   4   5   7 2645.99 248.309   4
   4   5   8 15463.3 656.246   4
  -4  -5   8 14022.3 893.967   2
  -4  -5   9 2788.83 399.676   2
   4   5   9 1776.28 259.646   4
   4  -5  10 8395.50 547.955   2
  -4  -5  10 8860.64 698.902   2
   4  -5  11 1444.50 231.898   2
  -4  -5  11 1629.92 321.361   2
  -4  -5  12 5230.33 594.361   1
   4  -5  12 4942.98 428.536   2
  -4  -5  12 5484.28 578.439   2
  -4  -5  13 382.850 212.903   1
  -4  -5  13 280.023 160.347   2
  -4  -5  14 1565.20 374.888   1
  -4  -5  14 1540.06 304.439   2
  -4  -5  15 2125.00 431.804   1
  -4  -5  15 1167.43 276.119   2
  -4  -5  16 884.736 254.327   2
  -4  -5  16 1279.98 372.784   1
  -4  -5  17 2017.85 378.720   2
  -4  -6 -14 4319.05 567.941   3
  -4  -6 -13 343.968 170.098   3
  -4  -6 -12 144.662 154.122   3
  -4   6 -11 751.949 199.337   4
  -4  -6 -11 972.376 259.893   3
  -4   6 -10 63.0767 97.0509   4
  -4  -6 -10 157.223 162.673   3
  -4  -6  -9 4757.33 515.514   3
  -4   6  -9 5149.98 467.896   4
  -4   6  -8 12889.1 738.092   4
  -4  -6  -7 3273.48 250.267   2
  -4   6  -7 3133.80 353.784   4
  -4  -6  -6 24731.1 901.130   2
  -4   6  -6 25655.6 1058.54   4
  -4  -6  -5 7814.00 492.019   2
  -4   6  -5 8814.58 569.744   4
   4   6  -4 6275.42 491.770   4
  -4  -6  -4 5877.92 441.969   2
  -4   6  -4 6184.91 472.741   4
   4   6  -3 5123.88 430.491   4
  -4  -6  -3 5575.55 445.482   2
  -4   6  -3 5501.32 445.365   4
  -4   6  -2 858.407 186.318   4
  -4  -6  -2 808.316 185.350   2
   4   6  -2 723.092 185.788   4
  -4  -6  -1 3562.97 388.795   2
   4  -6  -1 3320.84 308.172   3
  -4   6  -1 4064.78 389.852   4
   4   6  -1 3599.28 348.860   4
  -4   6   0 4998.65 439.702   4
   4  -6   0 4904.59 339.633   3
  -4  -6   0 4965.26 477.314   2
   4   6   0 4488.27 371.830   4
   4   6   1 3770.11 340.934   4
   4  -6   1 3924.55 284.089   3
  -4  -6   1 3839.56 438.721   2
  -4   6   1 3886.16 383.800   4
  -4   6   2 814.199 198.363   4
   4   6   2 876.554 181.618   4
  -4  -6   2 990.404 228.329   2
   4  -6   2 893.667 125.355   3
  -4   6   3 4796.44 449.105   4
   4  -6   3 5908.35 299.842   3
   4   6   3 5675.59 406.950   4
  -4  -6   3 5161.88 545.119   2
   4  -6   4 6490.90 290.803   3
  -4  -6   4 6569.60 599.624   2
  -4   6   4 5258.29 472.491   4
   4   6   4 5690.07 405.294   4
   4  -6   5 9618.45 344.379   3
  -4   6   5 8900.66 633.704   4
  -4  -6   5 8088.96 693.219   2
   4   6   5 8497.65 505.822   4
  -4   6   6 25039.3 1162.46   4
  -4  -6   6 26227.5 1318.51   2
   4   6   6 26963.7 988.822   4
   4   6   7 3193.79 305.747   4
  -4   6   7 3968.95 436.789   4
  -4  -6   7 3536.02 470.049   2
  -4   6   8 11930.3 829.910   4
   4   6   8 14416.7 676.951   4
  -4  -6   8 12817.3 892.381   2
   4   6   9 5683.73 436.564   4
  -4  -6   9 4781.36 540.949   2
   4   6  10 319.338 129.649   4
   4  -6  10 276.405 138.730   2
  -4  -6  10-7.34371 137.686   2
   4  -6  11 690.498 184.599   2
  -4  -6  11 807.777 270.761   1
  -4  -6  11 639.234 228.757   2
   4  -6  12 122.051 124.485   2
  -4  -6  12 333.099 204.305   2
  -4  -6  12 119.814 185.822   1
  -4  -6  13 266.800 203.586   2
  -4  -6  13 761.882 307.756   1
  -4  -6  14 4504.16 620.720   1
  -4  -6  14 3936.16 513.115   2
  -4  -6  15 2393.77 466.712   1
  -4  -6  15 2272.21 406.864   2
  -4  -6  16 2135.65 378.907   2
  -4  -6  17 253.144 193.705   2
  -4  -7 -14 772.850 287.905   3
  -4  -7 -13 713.763 260.149   3
  -4  -7 -12 102.208 158.811   3
  -4   7 -11 92.2248 126.851   4
  -4  -7 -11-133.700 175.799   3
  -4   7 -10 404.541 203.262   4
  -4  -7 -10 211.263 153.940   3
  -4   7  -9 1945.09 315.084   4
  -4  -7  -9 1912.51 344.024   3
  -4   7  -8 1069.01 215.655   4
  -4   7  -7 3105.63 377.465   4
  -4  -7  -7 2814.34 272.691   2
  -4   7  -6 135.043 126.918   4
  -4  -7  -6 159.635 81.5139   2
   4   7  -6 188.867 173.380   4
  -4   7  -5 1145.55 221.517   4
  -4  -7  -5 830.700 171.729   2
   4   7  -5 854.301 201.340   4
  -4   7  -4-257.964 152.510   4
  -4  -7  -4-21.5299 95.0238   2
   4   7  -4 55.1836 125.399   4
  -4   7  -3 20.6752 104.784   4
  -4  -7  -3 27.7207 105.575   2
   4   7  -3-78.0663 121.690   4
   4  -7  -3 211.146 149.102   3
  -4   7  -2 891.558 196.698   4
  -4  -7  -2 808.451 180.867   2
   4   7  -2 1201.68 237.034   4
   4  -7  -2 1101.54 209.156   3
  -4   7  -1 4043.52 417.251   4
  -4  -7  -1 3259.36 387.435   2
   4  -7  -1 4649.31 382.087   3
   4   7  -1 3863.92 385.007   4
  -4   7   0 387.895 167.786   4
   4   7   0 697.275 168.671   4
  -4  -7   0 133.456 148.172   2
   4  -7   0 472.765 114.936   3
   4  -7   1 4754.61 345.037   3
  -4  -7   1 4259.86 472.529   2
  -4   7   1 3855.91 420.225   4
   4   7   1 4904.88 431.130   4
  -4   7   2 1164.24 241.241   4
   4   7   2 1314.27 226.935   4
  -4  -7   2 1196.65 270.347   2
   4  -7   2 1400.45 173.800   3
  -4   7   3 37.1393 112.642   4
   4   7   3-26.8507 75.8297   4
  -4   7   3 70.2147 51.2349   1
  -4  -7   3 43.6620 166.055   2
   4  -7   3 12.6558 47.6105   3
  -4   7   4 119.669 136.410   4
  -4   7   4 13.3372 42.6157   1
   4   7   4 66.3846 81.7652   4
   4  -7   4 34.8649 58.4014   3
  -4   7   5 983.250 256.923   4
   4   7   5 1501.84 233.534   4
  -4  -7   5 930.365 279.250   2
  -4   7   6 235.752 168.261   4
   4   7   6 149.504 125.236   4
  -4  -7   6 284.935 210.060   2
  -4   7   7 2941.90 404.944   4
  -4  -7   7 3524.38 483.503   2
   4   7   7 3486.10 343.842   4
  -4   7   8 1112.56 280.737   4
   4   7   8 998.606 196.463   4
  -4  -7   8 1661.27 355.924   2
  -4   7   9 1498.71 386.551   4
   4   7   9 2160.25 277.735   4
  -4  -7   9 1669.27 343.460   2
   4   7  10 280.390 134.566   4
   4  -7  10 651.756 204.245   2
  -4  -7  10 528.486 221.375   2
   4  -7  11 202.974 161.197   2
  -4  -7  11 186.431 204.320   1
  -4  -7  11 75.2496 174.728   2
  -4  -7  12-142.767 229.471   1
   4  -7  12 404.087 163.407   2
  -4  -7  12 115.904 170.322   2
   4  -7  13 671.135 205.044   2
  -4  -7  13 1134.65 307.571   1
  -4  -7  13 869.099 259.194   2
  -4  -7  14 541.419 245.844   1
  -4  -7  14 646.415 243.810   2
  -4  -7  15 667.066 270.904   2
  -4  -7  16 268.680 215.614   2
  -4  -8 -15 417.761 256.219   3
  -4  -8 -14 875.054 301.171   3
  -4  -8 -13 1205.68 329.275   3
  -4  -8 -12-129.782 203.453   3
  -4   8 -11 2195.00 391.679   4
   4   8 -11 1921.88 376.221   4
  -4  -8 -11 2194.52 403.979   3
  -4   8 -10 18.8307 126.342   4
  -4  -8 -10 73.0296 163.769   3
  -4   8  -9 3959.86 467.113   4
   4   8  -9 3326.50 457.731   4
  -4  -8  -9 3541.60 469.577   3
  -4   8  -8 2010.08 328.421   4
   4   8  -8 2890.21 427.069   4
  -4   8  -7 2016.17 335.294   4
   4   8  -7 2138.54 345.100   4
   4   8  -6 10919.3 765.421   4
  -4  -8  -6 9996.07 607.624   2
  -4   8  -6 11214.6 760.357   4
   4   8  -5 18011.7 988.753   4
  -4  -8  -5 16521.2 833.770   2
  -4   8  -5 18388.8 978.486   4
  -4   8  -4 1761.27 308.909   4
  -4  -8  -4 1607.14 256.600   2
   4   8  -4 959.543 226.384   4
   4  -8  -4 1810.65 306.956   3
  -4  -8  -3 5541.28 487.929   2
   4  -8  -3 7432.65 565.570   3
  -4   8  -3 6069.71 545.208   4
   4   8  -3 5490.63 505.851   4
  -4   8  -2 48.7719 136.051   4
  -4  -8  -2-98.6746 177.034   2
   4   8  -2 308.396 139.561   4
   4  -8  -2 408.131 162.904   3
  -4  -8  -1 3877.56 431.266   2
   4  -8  -1 4847.26 417.207   3
  -4   8  -1 4659.38 474.548   4
   4   8  -1 4385.86 448.690   4
  -4   8   0 698.921 216.308   4
   4   8   0 764.502 217.306   4
  -4  -8   0 519.875 177.284   2
   4  -8   0 819.609 178.070   3
  -4  -8   1 4297.74 477.513   2
   4  -8   1 4901.24 385.379   3
  -4   8   1 4824.40 496.954   4
   4   8   1 4574.65 455.167   4
  -4   8   2 35.3405 126.364   4
   4   8   2 204.461 138.569   4
  -4  -8   2 174.655 135.068   2
   4  -8   2 246.092 107.886   3
  -4  -8   3 4969.55 558.189   2
   4  -8   3 7114.50 424.777   3
  -4   8   3 5767.04 554.193   4
   4   8   3 6564.95 524.470   4
  -4   8   4 1398.57 279.208   4
   4   8   4 1666.70 262.179   4
  -4  -8   4 1454.52 337.583   2
   4  -8   4 1837.62 200.031   3
  -4  -8   5 18777.0 1171.59   2
  -4   8   5 18012.2 1036.00   4
   4   8   5 19797.0 945.731   4
  -4  -8   6 11411.3 907.274   2
  -4   8   6 10188.5 751.646   4
   4   8   6 10792.4 681.537   4
  -4   8   7 2039.22 347.795   4
   4   8   7 2065.40 294.105   4
  -4  -8   7 1567.96 348.805   2
  -4   8   8 2354.90 381.196   4
   4   8   8 2195.25 302.439   4
  -4  -8   8 1518.54 355.037   2
  -4   8   9 3307.74 487.267   4
   4   8   9 4111.35 419.345   4
  -4  -8   9 3319.99 509.342   2
  -4   8  10 349.376 210.729   4
   4   8  10 506.680 156.034   4
   4  -8  10 39.5295 127.545   2
  -4  -8  10-13.8555 138.370   1
  -4  -8  10 181.567 177.891   2
   4  -8  11 2251.97 346.908   2
  -4  -8  11 2828.28 470.279   1
  -4  -8  11 2069.98 418.248   2
   4  -8  12 261.640 185.842   2
  -4  -8  12 496.611 251.876   2
  -4  -8  12 217.267 215.370   1
   4  -8  13 957.117 257.036   2
  -4  -8  13 1391.89 391.907   1
  -4  -8  13 1036.38 280.492   2
  -4  -8  14 1409.33 358.797   2
  -4  -8  14 1280.43 394.795   1
  -4  -8  15 1457.75 364.474   2
   4   9 -13 1181.63 323.447   4
  -4  -9 -13 1329.89 383.588   3
   4   9 -12 5066.65 628.348   4
  -4  -9 -12 6310.66 708.562   3
  -4   9 -11 940.414 283.929   4
   4   9 -11 1558.79 368.569   4
  -4  -9 -11 1296.05 332.690   3
  -4   9 -10 3665.83 492.196   4
   4   9 -10 3305.09 486.059   4
  -4  -9 -10 3098.73 487.251   3
  -4   9  -9 1800.04 339.793   4
   4   9  -9 1340.96 307.477   4
  -4  -9  -9 2253.10 421.350   3
   4   9  -8 7130.91 663.754   4
  -4   9  -8 7006.89 658.658   4
   4   9  -7 4983.41 554.228   4
  -4   9  -7 6991.52 640.600   4
  -4   9  -6 9612.85 745.931   4
  -4  -9  -6 8935.75 595.667   2
   4   9  -6 9175.38 734.042   4
   4  -9  -5 6404.39 600.305   3
  -4   9  -5 6153.84 581.397   4
  -4  -9  -5 5161.71 461.238   2
   4   9  -5 4757.52 522.200   4
   4  -9  -4 8540.30 661.089   3
  -4  -9  -4 6590.15 543.140   2
  -4   9  -4 6839.69 624.241   4
   4   9  -4 7157.67 622.155   4
  -4   9  -3 3347.03 437.525   4
  -4  -9  -3 2289.44 330.281   2
   4   9  -3 3320.58 429.602   4
   4  -9  -3 3651.45 427.280   3
   4  -9  -2 21875.4 1037.03   3
  -4  -9  -2 19278.6 1036.35   2
  -4   9  -2 20938.3 1134.70   4
   4   9  -2 20584.4 1084.90   4
   4  -9  -1 5066.30 451.508   3
  -4  -9  -1 5081.21 516.165   2
  -4   9  -1 4957.52 533.565   4
   4   9  -1 5401.52 532.293   4
   4  -9   0 5460.46 457.240   3
  -4  -9   0 4546.76 502.922   2
  -4   9   0 5311.79 542.236   4
   4   9   0 4583.04 483.449   4
   4  -9   1 5252.88 431.831   3
  -4  -9   1 4775.05 533.587   2
  -4   9   1 5287.58 564.694   4
   4   9   1 5196.99 516.020   4
  -4  -9   2 19480.2 1153.67   2
   4  -9   2 22050.5 909.057   3
  -4   9   2 18407.5 1081.44   4
   4   9   2 19868.8 1033.94   4
  -4   9   3 3001.64 431.129   4
   4   9   3 2580.44 360.486   4
  -4  -9   3 3207.36 463.720   2
   4  -9   3 3761.01 332.855   3
   4  -9   4 7539.40 456.772   3
  -4  -9   4 7243.50 717.060   2
  -4   9   4 5625.90 587.794   4
   4   9   4 7428.38 592.536   4
  -4   9   5 5694.69 591.083   4
  -4  -9   5 5385.24 626.258   2
   4   9   5 5773.62 522.522   4
   4   9   6 11262.1 738.722   4
  -4  -9   6 10512.4 906.846   2
  -4   9   6 10324.3 803.578   4
  -4  -9   7 6299.99 705.520   2
  -4   9   7 7000.80 663.227   4
   4   9   7 7008.78 575.984   4
  -4  -9   8 7175.06 709.419   1
   4   9   8 6632.83 564.760   4
  -4   9   8 7219.56 676.399   4
  -4  -9   8 6522.73 730.547   2
  -4   9   9 2060.23 394.342   4
   4   9   9 2129.08 337.312   4
  -4  -9   9 1844.22 368.649   1
  -4  -9   9 2292.32 450.768   2
   4  -9   9 1676.49 317.398   2
  -4   9  10 3712.96 515.520   4
   4  -9  10 2870.62 401.043   2
  -4  -9  10 3599.32 534.682   1
  -4  -9  10 2560.28 462.452   2
   4  -9  11 1185.37 283.861   2
  -4  -9  11 582.892 217.361   2
  -4  -9  11 983.021 328.345   1
  -4   9  11 912.103 326.520   4
  -4  -9  12 6134.41 742.273   1
   4  -9  12 5797.19 586.674   2
  -4  -9  12 5946.99 702.697   2
  -4  -9  13 1365.57 387.265   1
   4  -9  13 1477.98 318.248   2
  -4  -9  13 1162.21 331.421   2
  -4  -9  14 1010.83 333.143   2
  -4 -10 -12 25.5693 163.171   3
  -4  10 -11 267.080 214.304   4
   4  10 -11 604.592 273.084   4
  -4 -10 -11-9.68315 172.557   3
  -4  10 -10 920.288 302.657   4
   4  10 -10 984.348 276.096   4
  -4 -10 -10 572.878 243.133   3
   4  10  -9 5794.63 653.707   4
  -4 -10  -9 5932.18 665.342   3
  -4  10  -9 5496.16 633.875   4
  -4  10  -8-105.039 150.031   4
   4  10  -8 91.4683 148.268   4
  -4  10  -7 1932.01 360.572   4
   4  10  -7 1557.26 326.702   4
  -4  10  -6 1088.49 277.404   4
   4  10  -6 864.915 260.462   4
  -4  10  -5 2665.16 414.576   4
  -4 -10  -5 2075.13 307.956   2
   4  10  -5 2587.47 395.459   4
   4 -10  -5 2867.20 413.098   3
  -4  10  -4 2.27305 158.413   4
  -4 -10  -4-40.8099 155.009   2
   4  10  -4 113.692 182.674   4
   4 -10  -4-42.3311 136.672   3
  -4  10  -3 2149.02 385.157   4
  -4 -10  -3 1556.07 289.819   2
   4  10  -3 1976.90 367.670   4
   4 -10  -3 1721.00 313.651   3
  -4  10  -2-16.1459 201.481   4
  -4 -10  -2 188.869 124.576   2
   4 -10  -2 216.888 137.512   3
   4 -10  -1 10039.1 689.148   3
  -4 -10  -1 10193.9 773.498   2
  -4  10  -1 10868.6 836.036   4
   4  10  -1 10208.1 791.152   4
  -4  10   0 48.0290 186.846   4
   4  10   0 67.0130 164.676   4
  -4 -10   0 91.3394 160.793   2
   4 -10   0 312.703 143.820   3
   4 -10   1 10879.8 671.346   3
  -4 -10   1 9302.04 780.053   2
  -4  10   1 11218.7 858.372   4
   4  10   1 10537.3 785.378   4
  -4  10   2 217.851 197.098   4
   4  10   2 116.871 143.106   4
  -4 -10   2-123.827 204.935   2
   4 -10   2 347.712 156.222   3
  -4  10   3 2435.79 409.619   4
   4  10   3 1251.32 264.932   4
  -4 -10   3 1851.69 369.362   2
   4 -10   3 1900.15 259.473   3
  -4  10   4 51.8008 136.203   4
   4  10   4 135.322 125.365   4
  -4 -10   4 9.67642 194.387   2
  -4  10   5 2443.82 405.215   4
   4  10   5 2365.97 365.918   4
  -4 -10   5 2295.53 447.468   2
  -4  10   6 840.428 274.451   4
   4  10   6 669.396 215.217   4
  -4 -10   6 484.208 223.139   2
  -4  10   7 1289.54 318.295   4
   4  10   7 2147.10 343.496   4
  -4 -10   7 1449.99 381.369   2
  -4 -10   7 2128.43 392.873   1
  -4  10   8 283.154 187.265   4
   4  10   8 69.3596 137.778   4
  -4 -10   8-230.137 219.448   2
  -4 -10   8-3.03390 144.662   1
  -4 -10   9 5397.37 661.193   1
  -4 -10   9 5212.22 686.596   2
   4 -10   9 5060.11 562.702   2
  -4  10   9 4938.27 651.241   4
   4  10   9 5855.44 560.650   4
  -4  10  10 535.415 289.888   4
   4 -10  10 1081.00 280.448   2
  -4 -10  10 1283.44 386.658   2
  -4 -10  10 1219.09 369.266   1
   4 -10  11 351.171 210.350   2
  -4 -10  11 584.822 305.461   1
  -4  10  11 177.916 194.073   4
  -4 -10  11-148.742 211.628   2
  -4 -10  12-369.040 290.941   1
   4 -10  12-148.547 145.417   2
  -4 -10  12-328.356 246.190   2
   4 -10  13 2034.78 396.585   2
  -4  11 -11 265.324 217.541   4
  -4  11 -10 564.410 260.802   4
   4  11 -10 327.031 243.928   4
  -4 -11 -10 101.068 189.878   3
  -4  11  -9 353.661 247.182   4
   4  11  -9 216.198 200.567   4
  -4 -11  -9 499.311 267.924   3
  -4  11  -8-5.13288 158.601   4
   4  11  -8-138.760 173.064   4
  -4  11  -7-127.373 154.700   4
   4  11  -7-262.169 245.943   4
  -4  11  -6 2681.10 458.000   4
   4  11  -6 1972.34 384.556   4
   4 -11  -6 2616.73 433.855   3
  -4  11  -5 2124.57 404.377   4
  -4 -11  -5 1945.02 317.818   2
   4  11  -5 2344.73 416.317   4
   4 -11  -5 2686.48 442.268   3
  -4  11  -4 969.060 301.493   4
  -4 -11  -4 660.412 199.676   2
   4  11  -4 593.445 233.776   4
   4 -11  -4 527.546 212.971   3
  -4  11  -3 1028.85 304.142   4
  -4 -11  -3 1035.39 251.792   2
   4  11  -3 750.734 241.745   4
   4 -11  -3 1285.35 284.042   3
  -4  11  -2 501.027 230.210   4
   4  11  -2 344.625 233.204   4
  -4 -11  -2 441.280 191.681   2
   4 -11  -2 366.311 148.913   3
  -4  11  -1 625.454 238.260   4
   4  11  -1 1217.79 320.759   4
  -4 -11  -1 342.220 168.385   2
   4 -11  -1 617.530 205.757   3
  -4  11   0 388.799 216.841   4
   4  11   0 787.238 281.989   4
  -4 -11   0 362.927 194.814   2
   4 -11   0 358.365 145.380   3
  -4  11   1 619.821 253.381   4
   4  11   1 435.648 210.199   4
  -4 -11   1 159.197 186.747   2
   4 -11   1 659.277 198.146   3
  -4  11   2 329.876 251.832   4
   4  11   2 498.253 207.358   4
  -4 -11   2-51.3586 207.629   2
  -4  11   3 1147.88 319.461   4
   4  11   3 324.710 143.889   4
  -4 -11   3 820.159 272.711   2
  -4  11   4 418.090 235.064   4
   4  11   4 561.962 204.100   4
  -4 -11   4 855.900 306.315   2
  -4  11   5 2482.77 429.931   4
   4  11   5 1973.31 371.059   4
  -4 -11   5 2170.31 442.409   2
  -4 -11   5 1634.42 348.012   1
  -4  11   6 1855.24 401.177   4
   4  11   6 2075.87 365.438   4
  -4 -11   6 1960.99 437.947   2
  -4 -11   6 2427.56 431.290   1
  -4  11   7 125.871 189.991   4
   4  11   7 418.819 193.312   4
  -4 -11   7 298.689 215.568   1
  -4 -11   7-148.972 254.439   2
  -4  11   8 294.037 207.005   4
   4  11   8-135.362 142.924   4
   4 -11   8-123.405 200.716   2
  -4 -11   8 253.066 180.777   1
  -4  11   9 344.764 220.388   4
  -4 -11   9 261.128 249.253   2
  -4 -11   9 652.317 290.151   1
   4 -11   9 120.955 158.962   2
  -4  11  10-7.59430 171.896   4
   4 -11  10 949.513 313.952   2
  -4 -11  10 511.276 238.651   1
  -4 -11  10 441.652 264.378   2
   4 -11  11 821.718 287.813   2
   4 -11  12 342.344 222.268   2
  -4  12 -10 4770.39 696.875   4
  -4  12  -9 2117.14 468.965   4
  -4  12  -8 2879.82 546.309   4
   4  12  -8 2416.46 449.335   4
  -4  12  -7 1846.73 432.561   4
   4  12  -7 912.733 298.531   4
  -4  12  -6 1697.73 407.156   4
   4  12  -6 2228.28 455.419   4
   4 -12  -6 2648.00 448.128   3
  -4  12  -5 2367.41 448.530   4
   4  12  -5 2857.35 484.066   4
   4 -12  -5 3561.67 505.514   3
   4 -12  -4 6626.08 671.591   3
  -4 -12  -4 5309.75 568.401   2
  -4  12  -4 6370.72 712.252   4
   4  12  -4 6669.14 727.928   4
  -4  12  -3 684.488 269.363   4
   4  12  -3 640.203 229.738   4
  -4 -12  -3 450.909 186.713   2
   4 -12  -3 615.124 238.602   3
  -4  12  -2 5026.28 637.652   4
   4  12  -2 4810.90 614.488   4
  -4 -12  -2 3860.27 508.752   2
   4 -12  -2 4901.89 539.707   3
  -4  12  -1 4314.00 594.747   4
   4  12  -1 4646.97 596.237   4
  -4 -12  -1 3709.32 509.413   2
   4 -12  -1 4288.19 488.647   3
  -4  12   0 5226.16 652.016   4
   4  12   0 5479.40 634.887   4
  -4 -12   0 5043.21 607.493   2
   4 -12   0 5309.71 531.980   3
  -4  12   1 4499.91 598.982   4
   4  12   1 4706.95 577.813   4
  -4 -12   1 4068.63 554.308   2
  -4  12   2 4706.36 608.132   4
  -4 -12   2 4077.12 560.985   2
   4  12   2 5362.79 621.890   4
  -4  12   3 928.122 298.113   4
   4  12   3 631.621 237.497   4
  -4 -12   3-75.4521 235.962   2
  -4 -12   3 629.728 226.001   1
  -4 -12   4 5522.86 609.598   1
  -4 -12   4 5549.81 709.690   2
  -4  12   4 7222.68 753.689   4
   4  12   4 5409.98 615.115   4
  -4  12   5 1868.48 388.668   4
   4  12   5 2344.58 411.917   4
  -4 -12   5 2909.86 528.479   2
  -4 -12   5 2534.74 432.003   1
  -4  12   6 1807.40 421.295   4
   4  12   6 2514.08 424.242   4
  -4 -12   6 1923.96 473.432   2
  -4 -12   6 3173.15 498.665   1
  -4  12   7 1612.71 416.500   4
   4  12   7 1285.24 321.700   4
  -4 -12   7 1329.54 407.456   2
  -4 -12   7 947.670 302.565   1
   4 -12   7 949.953 283.207   2
  -4  12   8 3188.42 529.567   4
   4 -12   8 2303.55 429.383   2
   4  12   8 2355.10 408.604   4
  -4 -12   8 2309.71 463.940   1
  -4 -12   9 622.881 301.621   1
   4 -12   9 761.926 284.900   2
  -4  13  -8 1449.09 413.275   4
  -4  13  -7 1358.72 389.797   4
  -4  13  -6 2979.58 535.958   4
   4 -13  -6 2885.57 496.962   3
  -4  13  -5 734.722 317.908   4
   4 -13  -5 536.687 214.572   3
  -4  13  -4 4395.72 632.021   4
   4  13  -4 4396.76 631.851   4
   4 -13  -4 4388.47 564.030   3
  -4  13  -3 142.241 190.616   4
   4  13  -3 113.377 175.262   4
  -4 -13  -3 145.993 158.876   2
   4 -13  -3 363.050 163.502   3
  -4  13  -2 2351.94 490.912   4
   4  13  -2 2524.70 463.182   4
  -4 -13  -2 2927.39 458.986   2
   4 -13  -2 3722.71 475.827   3
  -4  13  -1 1000.30 305.253   4
   4  13  -1 708.530 247.277   4
  -4 -13  -1 924.514 267.414   2
  -4  13   0 1840.21 433.150   4
   4  13   0 1479.65 361.087   4
  -4 -13   0 1376.43 316.796   2
  -4  13   1 1125.43 338.941   4
   4  13   1 895.343 287.803   4
  -4 -13   1 728.873 246.023   2
  -4  13   2 2201.53 460.528   4
   4  13   2 2942.82 480.815   4
  -4 -13   2 2267.32 426.800   2
  -4  13   3 495.920 275.840   4
   4  13   3 59.6124 189.754   4
  -4 -13   3-276.644 308.150   2
  -4  13   4 3877.71 576.820   4
   4  13   4 2871.41 483.381   4
  -4 -13   4 3521.78 593.970   2
   4  13   5 1085.82 310.944   4
  -4 -13   5 280.109 263.614   2
  -4 -13   6 2725.17 478.945   1
   4  13   6 2607.06 450.526   4
   4  13   7 806.450 275.695   4
  -4 -13   7 1245.57 357.320   1
  -4 -13   8 1452.71 404.244   1
   4 -14  -6 650.874 265.902   3
   4 -14  -5 1276.03 344.219   3
   4 -14  -4 1805.58 406.022   3
  -4 -14  -3 4318.55 567.192   2
  -4 -14  -2 1866.40 401.151   2
  -4 -14  -1 2387.95 439.081   2
   4  14   0 1197.37 371.016   4
  -4 -14   0 913.494 299.526   2
   4  14   1 2355.71 477.952   4
  -4 -14   1 2419.16 461.070   2
   4  14   2 1749.66 439.692   4
   4  14   3 5472.73 701.002   4
   4  14   4 2790.33 490.107   4
   4  14   5 534.187 228.242   4
   4  14   6 160.252 207.807   4
  -5   0  -8 23.0435 67.0749   3
  -5   0  -7-18.1240 49.6801   3
  -5   0  -6 35.6976 46.3906   3
  -5   0  -3-61.5496 67.4673   2
  -5   0  -2 30.4979 60.8619   2
   5   0  -1 6.75775 43.6883   4
  -5   0  -1 19.5171 82.8054   2
   5   0   0 63.1207 60.8816   4
  -5   0   0 46.2152 93.5300   2
   5   0   1 23.8407 37.7039   4
  -5   0   1 78.1040 77.8496   2
  -5   0   2 61.6743 101.316   2
   5   0   2 2.32693 29.3931   4
  -5   0   3-34.8509 81.4304   2
   5   0   3 8.84522 14.2856   4
  -5   0   4 30.0936 94.7216   2
   5   0   4-10.9818 39.3139   2
  -5   0   5 19.3679 93.8895   2
   5   0   5-24.4706 35.6910   2
  -5   0   6-32.9401 87.2505   2
   5   0   6-26.9815 38.1924   2
  -5   0   7 4.83662 88.2990   2
   5   0   7 65.0225 41.5130   2
  -5   0   8-43.0311 103.520   2
   5   0   8 28.0292 35.7611   2
  -5   0   9 129.623 129.630   2
  -5   0  10 108.056 129.661   2
  -5   0  11 601.754 219.319   2
  -5   0  12 75.0857 123.217   2
  -5   0  13 239.881 172.731   2
  -5   0  14-40.0206 130.086   2
  -5   0  14 25.7789 116.516   1
  -5   0  15 195.423 174.818   1
  -5   0  15 417.426 212.320   2
  -5   0  16 303.431 184.849   2
  -5   0  16-68.8957 139.089   1
  -5   0  17-468.112 241.015   1
  -5  -1  -9 4938.18 387.712   3
  -5   1  -8 36.7069 28.7042   4
  -5   1  -8 146.124 32.4024   4
  -5  -1  -8 54.2453 63.8745   3
  -5  -1  -7 27401.5 950.908   3
  -5   1  -6 182.657 45.9792   3
  -5   1  -5 8763.49 325.467   3
  -5  -1  -4 51.2533 51.2418   2
  -5  -1  -3 2873.21 247.196   2
  -5  -1  -2 578.152 125.323   2
  -5  -1  -1 12203.8 576.281   2
  -5   1  -1 11102.6 577.481   2
  -5   1   0 8049.97 491.356   2
  -5  -1   0 9075.28 503.985   2
   5  -1   0 8734.03 402.840   4
   5  -1   1 11626.5 458.964   4
  -5   1   1 11421.4 611.318   2
  -5  -1   1 12859.2 626.240   2
   5  -1   2 475.490 70.7812   4
  -5   1   2 280.978 115.904   2
  -5  -1   2 677.266 165.866   2
   5   1   3 2289.59 110.807   4
  -5   1   3 2680.22 298.128   2
   5   1   3 2328.76 110.507   4
   5  -1   3 2666.19 154.359   4
  -5  -1   3 2885.91 314.910   2
  -5   1   4 82.7162 102.077   2
   5  -1   4 38.8612 19.8356   4
   5   1   4 12.7843 37.9501   2
  -5  -1   4 78.7313 96.2832   2
  -5   1   5 8237.61 552.355   2
   5   1   5 8746.32 376.858   2
  -5  -1   5 7844.11 552.352   2
  -5   1   6 213.582 106.122   2
   5  -1   6 244.214 73.8179   2
   5   1   6 244.363 62.9844   2
  -5  -1   6 143.449 135.082   2
  -5   1   7 28429.2 1169.38   2
   5  -1   7 28168.8 873.656   2
   5   1   7 28482.2 775.616   2
  -5  -1   7 29660.1 1202.27   2
  -5   1   8 216.748 127.440   2
   5  -1   8 94.0248 47.5138   2
   5   1   8 215.972 46.0091   2
  -5  -1   8 144.557 130.685   2
  -5   1   9 4727.51 461.020   2
  -5  -1   9 4819.72 458.705   2
   5  -1  10 168.908 57.3254   2
  -5   1  10 171.219 151.143   2
  -5  -1  10 453.449 175.942   2
  -5   1  11 3319.28 400.638   2
  -5  -1  11 2323.29 349.184   2
  -5  -1  12 15.5653 116.623   2
  -5   1  12 444.182 164.500   2
  -5  -1  13-49.5020 138.754   2
  -5   1  13-59.9709 138.174   2
  -5  -1  14-47.4310 138.989   2
  -5   1  14-8.26665 114.421   2
  -5   1  14 70.8709 141.708   1
  -5  -1  14-19.3328 130.101   1
  -5  -1  15 1075.66 254.133   2
  -5   1  15 604.168 235.160   2
  -5  -1  15 1000.15 298.994   1
  -5   1  15 812.838 246.249   1
  -5  -1  16 842.689 263.302   2
  -5   1  16 719.589 239.332   1
  -5  -1  16 1148.61 317.877   1
  -5  -1  17 4218.88 561.878   1
  -5  -1  18 183.787 207.211   1
  -5  -2 -11 10056.7 667.205   3
  -5  -2 -10 557.336 172.655   3
  -5   2  -9 9902.61 422.415   4
  -5  -2  -9 10150.0 601.965   3
  -5   2  -8 1046.01 116.970   4
  -5  -2  -8 1018.89 184.436   3
  -5   2  -7 29425.9 813.952   4
  -5   2  -6 4031.63 219.972   4
  -5  -2  -5 22793.0 741.558   2
  -5   2  -5 23258.2 667.107   4
  -5  -2  -4 12900.5 531.775   2
  -5   2  -4 12846.6 452.043   4
  -5  -2  -3 31352.1 981.610   2
  -5   2  -3 31109.4 871.555   4
  -5   2  -2 373.054 83.6523   4
  -5  -2  -2 286.659 97.4252   2
  -5   2  -1 28145.2 884.755   4
  -5  -2  -1 30079.8 1017.79   2
   5  -2   0 5482.98 343.279   4
  -5   2   0 5993.23 351.777   4
  -5  -2   0 6043.98 419.090   2
   5  -2   1 27980.9 887.964   4
  -5  -2   1 28510.9 1064.64   2
   5  -2   2 275.684 73.1404   4
   5   2   2 300.012 61.1686   4
  -5   2   2 483.056 134.338   2
  -5  -2   2 288.521 127.778   2
  -5   2   3 28870.9 1122.48   2
  -5  -2   3 29675.8 1155.44   2
   5  -2   3 30516.4 830.766   4
   5   2   3 28522.2 736.439   4
  -5   2   4 12330.6 691.719   2
   5   2   4 12993.2 544.363   2
   5   2   4 12718.0 347.380   4
  -5  -2   4 11209.9 683.940   2
   5  -2   4 12929.1 432.793   4
  -5   2   5 21213.1 960.524   2
   5   2   5 22388.2 750.213   2
  -5  -2   5 21008.3 985.338   2
  -5   2   6 3774.13 382.736   2
   5   2   6 3392.14 230.724   2
  -5  -2   6 4303.54 420.325   2
  -5   2   7 25932.2 1121.56   2
   5   2   7 27882.7 747.576   2
  -5  -2   7 27128.3 1178.61   2
  -5   2   8 829.208 179.966   2
  -5  -2   8 944.681 210.455   2
  -5   2   9 10270.4 690.800   2
  -5  -2   9 10052.0 697.882   2
  -5   2  10 518.649 173.410   2
  -5  -2  10 427.472 170.925   2
  -5   2  11 7152.49 598.586   2
  -5  -2  11 8064.97 630.921   2
  -5   2  12 57.5898 102.434   2
  -5  -2  12 54.4810 114.198   2
  -5   2  13 6548.27 593.808   2
  -5  -2  13 6286.77 587.384   2
  -5  -2  14 312.448 212.725   1
  -5   2  14 328.016 180.132   2
  -5   2  14 584.548 208.067   1
  -5  -2  14 414.505 167.984   2
  -5  -2  15 5417.62 630.493   1
  -5   2  15 4555.56 515.210   2
  -5  -2  15 5684.90 569.785   2
  -5  -2  16 964.978 270.312   2
  -5  -2  16 1355.59 361.830   1
  -5  -2  17 4027.24 578.814   1
  -5  -2  18-13.8605 188.753   1
  -5  -3 -12 3772.51 436.144   3
  -5  -3 -11 4456.92 453.768   3
  -5  -3 -10 6636.68 532.728   3
  -5   3  -9 512.405 135.125   4
  -5  -3  -9 468.601 150.359   3
  -5  -3  -8 4935.35 416.685   3
  -5   3  -8 5704.15 343.762   4
  -5   3  -7 2870.70 235.199   4
  -5  -3  -6 6814.84 323.350   2
  -5   3  -6 7077.69 371.633   4
  -5   3  -5 1990.08 189.289   4
  -5  -3  -5 2036.97 180.005   2
  -5   3  -4 23389.2 784.818   4
  -5  -3  -4 22944.5 783.992   2
  -5   3  -3 5779.92 338.753   4
  -5  -3  -3 6133.08 373.575   2
  -5   3  -2 18134.6 691.655   4
  -5   3  -2 19295.8 525.428   3
  -5  -3  -2 18334.8 755.610   2
  -5   3  -1 12630.4 452.482   3
  -5   3  -1 11668.5 540.135   4
  -5  -3  -1 11377.0 603.238   2
  -5   3   0 11670.3 478.125   3
  -5   3   0 11029.2 532.462   4
  -5  -3   0 10641.9 617.100   2
   5   3   1 12294.6 494.051   4
  -5   3   1 11871.5 536.496   3
  -5   3   1 12390.9 591.357   4
  -5  -3   1 9784.95 618.879   2
  -5   3   2 19432.6 796.276   4
  -5  -3   2 14786.7 819.137   2
   5  -3   2 18674.7 682.394   4
   5   3   2 18438.9 613.761   4
  -5   3   3 6347.27 442.355   4
  -5  -3   3 4344.99 427.475   2
   5   3   3 5215.28 269.417   4
   5  -3   3 5558.40 317.996   4
   5   3   4 22447.2 796.105   2
   5   3   4 21939.0 633.647   4
  -5  -3   4 18019.8 956.152   2
   5  -3   4 22242.9 706.835   4
  -5  -3   5 1660.30 264.145   2
   5   3   5 2441.32 200.033   2
   5   3   5 2361.98 150.304   4
  -5   3   6 6162.73 497.435   2
   5   3   6 7034.25 316.323   2
   5   3   6 5014.99 252.019   4
  -5  -3   6 6114.52 532.200   2
  -5   3   7 2579.63 341.828   2
  -5  -3   7 2699.15 366.867   2
  -5   3   8 4637.71 455.037   2
  -5  -3   8 5212.80 497.953   2
  -5   3   9 415.622 159.154   2
  -5  -3   9 436.266 185.139   2
  -5   3  10 5968.48 540.408   2
  -5  -3  10 6635.07 587.509   2
  -5   3  11 4701.53 498.583   2
   5  -3  11 5313.96 366.861   2
  -5  -3  11 4416.90 482.519   2
  -5   3  12 2933.03 394.972   2
  -5  -3  12 3284.67 426.648   2
  -5  -3  13 649.039 198.295   2
  -5   3  13 432.094 184.342   2
  -5  -3  14 2136.73 415.360   1
  -5  -3  14 2174.73 364.248   2
  -5  -3  15 1807.90 390.072   1
  -5  -3  15 1176.79 276.001   2
  -5  -3  16 1688.20 406.521   1
  -5  -3  16 1913.07 349.055   2
  -5  -3  17 512.298 230.128   2
  -5  -3  17 438.173 265.367   1
  -5  -4 -13 842.082 245.457   3
  -5  -4 -12 2010.53 347.512   3
  -5  -4 -11 505.673 188.970   3
  -5  -4 -10 2203.80 322.341   3
  -5   4  -9 157.611 95.2833   4
  -5  -4  -9 43.8651 107.635   3
  -5   4  -8 15885.7 696.409   4
  -5   4  -7 3535.39 299.006   4
  -5  -4  -7 3568.14 208.366   2
  -5   4  -6 11636.6 559.919   4
  -5  -4  -6 11207.0 452.783   2
  -5   4  -5 2109.85 228.210   4
  -5  -4  -5 1809.77 182.692   2
  -5   4  -4 2079.36 233.028   4
  -5  -4  -4 2061.01 209.455   2
  -5   4  -3 2663.52 256.889   4
  -5  -4  -3 2505.37 258.092   2
  -5   4  -2 6289.19 411.874   4
  -5  -4  -2 6644.90 465.447   2
  -5   4  -1 575.105 130.518   4
  -5  -4  -1 805.217 174.759   2
   5   4   0 41543.4 1229.40   4
  -5   4   0 41299.7 1154.62   3
  -5   4   0 38391.4 1285.35   4
  -5  -4   0 39579.8 1417.21   2
  -5   4   1 500.516 125.289   4
   5   4   1 675.865 126.036   4
  -5  -4   1 362.706 145.935   2
  -5   4   2 6948.82 476.748   4
  -5  -4   2 6249.41 530.919   2
   5   4   2 6801.07 369.832   4
  -5   4   3 1979.80 268.680   4
  -5  -4   3 2523.58 344.204   2
   5   4   3 2349.06 202.668   4
  -5   4   4 2051.52 282.198   4
  -5  -4   4 2268.94 321.921   2
   5   4   4 2040.76 181.684   4
  -5  -4   5 2303.06 351.914   2
   5   4   5 2124.22 193.561   2
  -5   4   5 2150.10 300.192   4
   5   4   5 1954.93 178.045   4
   5   4   6 12257.1 470.490   4
  -5  -4   6 10366.7 744.629   2
   5   4   7 3964.78 245.350   4
  -5  -4   7 3531.38 445.637   2
  -5  -4   8 14637.5 910.208   2
  -5  -4   9 332.517 144.561   2
  -5  -4  10 2379.19 367.008   2
   5  -4  11 369.078 117.464   2
  -5  -4  11 145.436 154.606   2
  -5  -4  12 1636.68 315.628   2
  -5  -4  13 645.305 243.163   2
  -5  -4  14 3071.55 494.902   1
  -5  -4  14 2287.54 393.304   2
  -5  -4  15 1135.67 286.882   2
  -5  -4  15 1100.50 346.371   1
  -5  -4  16 1138.65 336.136   1
  -5  -4  16 790.606 237.297   2
  -5  -4  17 661.471 245.925   2
  -5  -5 -13 327.874 217.724   3
  -5  -5 -12 728.682 250.487   3
  -5  -5 -11 1805.13 318.637   3
  -5  -5 -10 40.3714 111.759   3
  -5  -5  -9 2556.62 359.532   3
  -5   5  -9 3466.72 333.831   4
  -5   5  -8 1056.98 191.757   4
  -5   5  -7 1582.90 234.097   4
  -5  -5  -7 1494.46 144.580   2
  -5   5  -6 2568.88 281.902   4
  -5  -5  -6 2653.37 219.270   2
  -5   5  -5 1799.19 234.420   4
  -5  -5  -5 1775.04 204.206   2
  -5   5  -4 53.6368 74.9530   4
  -5  -5  -4 238.756 91.3197   2
  -5   5  -3 1053.83 194.523   4
  -5  -5  -3 1091.35 191.163   2
  -5   5  -2 554.520 149.908   4
  -5  -5  -2 510.066 142.253   2
   5   5  -1 9751.99 546.495   4
  -5   5  -1 8808.66 547.294   4
  -5  -5  -1 9907.98 633.041   2
  -5   5   0 402.648 109.416   4
   5   5   0 624.233 134.602   4
  -5  -5   0 469.618 171.883   2
  -5   5   1 9735.44 592.364   4
  -5  -5   1 10021.4 674.406   2
   5   5   1 9076.34 497.699   4
  -5   5   2 621.234 180.173   4
   5   5   2 427.398 109.768   4
  -5  -5   2 1097.09 247.523   2
  -5   5   3 900.606 207.248   4
   5   5   3 1101.93 164.820   4
  -5  -5   3 893.971 241.438   2
  -5   5   4 173.427 132.301   4
   5   5   4 46.4977 62.4301   4
  -5  -5   4 119.396 131.307   2
  -5   5   5 2065.15 319.837   4
  -5  -5   5 2220.72 371.863   2
   5   5   5 1769.57 200.876   4
  -5   5   6 3291.33 390.175   4
  -5  -5   6 3249.86 440.455   2
   5   5   6 2697.10 245.793   4
   5   5   7 1906.51 194.316   4
  -5  -5   7 1756.29 323.618   2
   5   5   8 1567.04 181.316   4
  -5  -5   8 1704.02 349.643   2
  -5  -5   9 3081.07 428.761   2
   5   5   9 2040.57 236.408   4
  -5  -5  10-102.960 180.577   2
   5  -5  11 1658.97 245.437   2
  -5  -5  11 1984.78 368.486   2
  -5  -5  12 770.251 220.574   2
  -5  -5  13 507.758 204.005   2
  -5  -5  13 951.969 317.507   1
  -5  -5  14 653.341 303.310   1
  -5  -5  14 552.997 224.334   2
  -5  -5  15 99.6111 142.359   2
  -5  -5  15 345.762 220.658   1
  -5  -5  16 628.588 247.726   2
  -5  -5  17 2780.86 458.711   2
  -5  -6 -14 1337.86 325.408   3
  -5  -6 -13 520.028 216.437   3
  -5  -6 -12 2572.72 408.715   3
  -5  -6 -11 2314.42 366.913   3
  -5  -6 -10 1524.06 308.410   3
  -5  -6  -9 3429.95 428.837   3
  -5   6  -9 3229.84 362.568   4
  -5   6  -8 2579.43 319.210   4
  -5   6  -7 2787.12 320.992   4
  -5   6  -6 1172.82 216.976   4
  -5  -6  -6 1471.50 188.140   2
  -5  -6  -5 2754.85 270.009   2
  -5   6  -5 3162.14 346.265   4
  -5   6  -4 1052.93 192.952   4
  -5  -6  -4 1290.44 209.980   2
   5   6  -3 3849.61 384.615   4
  -5  -6  -3 4217.20 386.956   2
  -5   6  -3 3703.41 375.501   4
   5   6  -2 11661.8 659.805   4
  -5  -6  -2 12220.9 714.255   2
  -5   6  -2 11143.1 672.250   4
   5   6  -1 8557.43 546.782   4
  -5  -6  -1 10174.1 667.796   2
  -5   6  -1 9516.04 614.759   4
  -5   6   0 2689.71 329.106   4
  -5  -6   0 4460.04 451.518   2
   5   6   0 2906.50 303.105   4
  -5   6   1 8999.88 605.767   4
  -5  -6   1 9088.32 684.159   2
   5   6   1 8589.72 526.630   4
  -5   6   2 12271.1 734.744   4
  -5  -6   2 12315.7 817.286   2
   5   6   2 11983.7 630.139   4
  -5  -6   3 4474.17 486.237   2
  -5   6   3 3988.92 413.090   4
   5   6   3 3823.42 331.402   4
  -5   6   4 1012.74 219.865   4
   5   6   4 882.497 160.529   4
  -5  -6   4 1095.40 258.023   2
  -5   6   5 2928.14 387.786   4
  -5  -6   5 2612.05 395.096   2
   5   6   5 3019.71 286.604   4
  -5   6   6 1365.92 274.014   4
   5   6   6 1182.08 185.382   4
  -5  -6   6 1943.12 364.569   2
  -5   6   7 2638.30 383.157   4
  -5  -6   7 3053.77 446.363   2
   5   6   7 3080.51 289.138   4
  -5  -6   8 2750.55 417.623   2
   5   6   8 3616.94 315.751   4
  -5  -6   9 3141.73 461.540   2
  -5  -6  10 1486.03 328.562   2
   5  -6  11 2450.24 318.590   2
  -5  -6  11 2023.34 375.452   2
   5  -6  12 2564.60 336.611   2
  -5  -6  12 2663.81 433.844   2
  -5  -6  13 1086.37 340.121   1
  -5  -6  13 887.918 263.604   2
  -5  -6  14 761.070 292.260   1
  -5  -6  14 1670.38 354.675   2
  -5  -6  15 110.622 245.936   1
  -5  -6  15 230.156 148.454   2
  -5  -6  16 84.7484 174.487   2
  -5  -7 -15-109.859 202.051   3
  -5  -7 -14 4903.87 622.344   3
  -5  -7 -13 694.820 281.058   3
  -5  -7 -12 8292.60 749.854   3
  -5  -7 -11 655.712 256.871   3
  -5  -7 -10 6264.39 625.882   3
  -5   7  -9-52.0771 114.973   4
  -5   7  -8 18274.7 945.913   4
  -5   7  -7 1070.22 219.253   4
  -5  -7  -6 28185.2 1017.66   2
  -5   7  -6 30298.8 1250.74   4
   5   7  -5 6285.13 545.792   4
  -5  -7  -5 6302.38 453.423   2
  -5   7  -5 6667.36 537.782   4
   5   7  -4 23671.2 1101.44   4
  -5  -7  -4 24555.9 1042.74   2
  -5   7  -4 25746.3 1142.87   4
  -5   7  -3 106.012 118.142   4
   5   7  -3 187.847 113.099   4
  -5  -7  -3 286.817 141.700   2
  -5  -7  -2 29314.5 1258.48   2
  -5   7  -2 28584.7 1230.37   4
   5   7  -2 29219.7 1201.44   4
  -5   7  -1 679.004 175.162   4
   5   7  -1 530.554 167.716   4
  -5  -7  -1 555.468 194.639   2
  -5  -7   0 19486.9 1057.65   2
  -5   7   0 19216.7 981.612   4
   5   7   0 19238.2 901.838   4
  -5   7   1 635.240 204.426   4
   5   7   1 540.222 161.204   4
  -5  -7   1 219.846 156.483   2
  -5   7   2 28785.4 1275.19   4
  -5  -7   2 31966.5 1439.12   2
   5   7   2 28255.2 1133.80   4
  -5   7   3 110.638 161.375   4
   5   7   3 76.2284 80.2635   4
  -5  -7   3 44.3313 145.065   2
  -5   7   4 25592.0 1210.61   4
  -5  -7   4 26345.9 1346.98   2
   5   7   4 25512.3 1025.07   4
  -5   7   5 6630.76 588.546   4
  -5  -7   5 7052.15 668.651   2
   5   7   5 6157.78 461.700   4
   5   7   6 29228.0 1120.98   4
  -5   7   6 29786.2 1356.37   4
  -5  -7   6 30946.7 1502.35   2
  -5   7   7 1106.58 282.142   4
   5   7   7 1057.54 192.110   4
  -5  -7   7 1170.61 295.062   2
  -5   7   8 17599.2 1070.44   4
   5   7   8 18457.8 838.699   4
  -5  -7   8 18658.7 1146.54   2
  -5  -7   9 221.346 199.482   2
  -5  -7  10 6350.72 664.106   2
   5  -7  11 487.252 181.040   2
  -5  -7  11 819.209 268.791   2
  -5  -7  12 7672.27 788.870   1
   5  -7  12 8909.35 654.099   2
  -5  -7  12 8598.50 787.100   2
  -5  -7  13 1553.80 418.449   1
  -5  -7  13 569.894 235.019   2
  -5  -7  14 6110.93 750.541   1
  -5  -7  14 5091.28 616.507   2
  -5  -7  15 485.596 257.964   2
  -5  -8 -14-233.814 253.199   3
  -5  -8 -13 305.579 193.850   3
  -5  -8 -12 1328.22 307.686   3
  -5  -8 -11 266.028 180.373   3
  -5  -8 -10 2935.38 462.569   3
  -5   8  -9-114.172 132.524   4
   5   8  -9 245.052 180.034   4
   5   8  -8 7618.63 671.275   4
  -5   8  -8 9179.28 690.369   4
  -5   8  -7 510.179 180.677   4
   5   8  -7 183.780 152.670   4
   5   8  -6 10881.9 780.266   4
  -5   8  -6 12709.6 813.324   4
  -5   8  -5-197.101 147.942   4
   5   8  -5 60.7326 123.532   4
  -5  -8  -5-42.3333 92.4771   2
   5   8  -4 4764.36 490.632   4
  -5  -8  -4 4771.59 454.574   2
  -5   8  -4 5153.45 513.262   4
  -5   8  -3 272.298 208.615   4
   5   8  -3 51.0255 101.802   4
  -5  -8  -3-77.2777 162.007   2
  -5  -8  -2 9524.87 707.107   2
  -5   8  -2 9907.15 720.745   4
   5   8  -2 9268.98 657.382   4
  -5   8  -1 304.641 194.046   4
   5   8  -1 100.961 114.766   4
  -5  -8  -1 219.693 160.397   2
  -5  -8   0 3903.97 474.225   2
  -5   8   0 4912.46 514.008   4
   5   8   0 4165.91 427.977   4
  -5   8   1 299.243 181.884   4
   5   8   1 353.789 156.846   4
  -5  -8   1 160.614 147.930   2
   5  -8   2 10711.2 542.743   3
  -5  -8   2 9390.12 777.873   2
  -5   8   2 9697.00 730.767   4
   5   8   2 10059.1 666.629   4
  -5   8   3-16.3229 149.617   4
   5   8   3 93.0595 114.578   4
  -5  -8   3 155.746 153.316   2
   5  -8   3 3.06756 64.7854   3
  -5  -8   4 5758.64 628.368   2
  -5   8   4 5892.04 572.933   4
   5   8   4 4968.89 451.625   4
  -5   8   5 18.7496 134.940   4
   5   8   5-139.833 121.720   4
  -5  -8   5 109.238 148.380   2
  -5   8   6 13179.5 894.271   4
  -5  -8   6 11737.9 928.606   2
   5   8   6 11786.5 704.387   4
  -5   8   7 568.395 234.498   4
   5   8   7 477.808 155.685   4
  -5  -8   7 380.049 223.596   2
  -5   8   8 8910.36 766.142   4
   5   8   8 8467.73 580.529   4
  -5  -8   8 7423.67 730.545   2
  -5   8   9 123.082 196.531   4
  -5  -8   9 54.1874 156.833   2
  -5  -8  10 2448.38 448.226   2
   5  -8  11 197.665 172.938   2
  -5  -8  11 213.698 227.031   1
  -5  -8  11 260.361 201.475   2
   5  -8  12 1531.32 291.887   2
  -5  -8  12 2054.64 419.635   2
  -5  -8  12 1353.00 356.391   1
  -5  -8  13 52.0004 189.273   1
  -5  -8  13 550.573 258.864   2
  -5  -8  14 477.833 237.886   2
  -5  -9 -13 55.4887 198.527   3
   5   9 -12-104.206 170.476   4
  -5  -9 -12 561.652 264.307   3
   5   9 -11 1344.86 344.021   4
  -5  -9 -11 1135.22 330.136   3
   5   9 -10 148.068 164.450   4
  -5  -9 -10 411.705 208.125   3
  -5   9  -9 1612.42 313.520   4
   5   9  -9 1426.87 336.570   4
  -5   9  -8 83.8058 145.413   4
   5   9  -8 95.1581 205.076   4
  -5   9  -7 3709.96 475.560   4
   5   9  -7 3298.92 457.033   4
  -5   9  -6 283.873 121.576   4
   5   9  -6-136.945 156.279   4
  -5   9  -5 526.240 216.820   4
   5   9  -5 365.699 162.421   4
  -5  -9  -5 723.552 205.919   2
  -5   9  -4-168.645 176.187   4
   5   9  -4 304.820 183.877   4
  -5  -9  -4-62.9073 100.748   2
  -5   9  -3 3207.05 431.920   4
   5   9  -3 3429.42 422.886   4
  -5  -9  -3 2648.88 372.112   2
  -5   9  -2 413.437 227.288   4
   5   9  -2 590.370 192.888   4
  -5  -9  -2-13.9636 159.475   2
  -5   9  -1 444.421 198.881   4
   5   9  -1 544.683 190.099   4
  -5  -9  -1 239.855 173.384   2
  -5   9   0 1414.50 315.441   4
   5   9   0 1432.06 285.724   4
  -5  -9   0 925.677 251.988   2
   5  -9   0 1047.52 216.557   3
  -5   9   1 6.15871 150.319   4
   5   9   1 138.133 104.238   4
  -5  -9   1 413.786 209.225   2
   5  -9   1 201.966 105.224   3
  -5   9   2 359.071 180.952   4
   5   9   2 508.869 147.810   4
  -5  -9   2 566.275 209.597   2
   5  -9   2 568.396 148.015   3
  -5   9   3 3471.32 465.352   4
  -5  -9   3 3108.62 490.386   2
   5   9   3 3597.94 417.784   4
  -5   9   4-15.1998 133.790   4
   5   9   4 107.130 131.419   4
  -5  -9   4-0.37923 213.439   2
  -5   9   5 468.523 235.209   4
   5   9   5 411.812 172.111   4
  -5  -9   5 366.716 200.561   2
  -5   9   6 278.207 209.799   4
   5   9   6 211.987 136.125   4
  -5  -9   6-139.054 242.027   2
  -5   9   7 2830.97 442.006   4
   5   9   7 3273.17 387.606   4
  -5  -9   7 3102.50 495.851   2
  -5   9   8 489.582 251.334   4
  -5  -9   8 162.505 214.935   2
  -5   9   9 1920.74 399.671   4
  -5  -9   9 1482.70 356.211   2
  -5   9  10 1042.05 304.601   4
  -5  -9  10 416.792 230.970   1
  -5  -9  10 680.402 307.212   2
   5  -9  10 648.469 215.242   2
   5  -9  11 1154.26 280.600   2
  -5  -9  11 1592.17 440.151   1
  -5  -9  12 92.6543 200.224   1
   5  -9  12 255.919 140.891   2
  -5 -10 -11 87.2494 162.137   3
   5  10 -10 2497.49 464.657   4
  -5 -10 -10 2154.73 454.602   3
  -5  10  -9 466.194 251.828   4
   5  10  -9 443.371 203.133   4
   5  10  -8 4937.93 592.747   4
  -5  10  -8 6079.15 644.366   4
  -5  10  -7-158.457 177.772   4
   5  10  -7-191.622 204.105   4
  -5  10  -6 2627.48 435.456   4
   5  10  -6 2146.48 384.021   4
  -5  10  -5 413.340 214.790   4
   5  10  -5 634.938 233.929   4
  -5  10  -4 3814.67 510.483   4
   5  10  -4 4061.37 507.695   4
  -5 -10  -4 3017.15 401.314   2
  -5  10  -3 201.408 185.818   4
   5  10  -3 192.392 157.243   4
  -5 -10  -3 162.608 155.536   2
  -5  10  -2 7152.36 688.415   4
  -5 -10  -2 6595.26 646.657   2
   5  10  -2 7189.14 660.210   4
  -5  10  -1 210.537 142.201   4
   5  10  -1 359.771 180.016   4
  -5 -10  -1 250.186 178.801   2
   5 -10  -1 552.862 196.371   3
  -5  10   0 1981.17 385.737   4
   5  10   0 2294.03 377.565   4
  -5 -10   0 1516.04 313.972   2
   5 -10   0 1743.84 288.858   3
  -5  10   1 648.535 242.366   4
   5  10   1 516.887 217.138   4
  -5 -10   1 502.179 194.175   2
  -5 -10   2 7238.51 745.778   2
  -5  10   2 7538.48 708.119   4
   5  10   2 6669.77 611.206   4
  -5  10   3 53.5485 138.997   4
   5  10   3 274.360 144.762   4
  -5 -10   3-186.113 185.151   2
  -5  10   4 3398.91 482.375   4
   5  10   4 2790.83 384.096   4
  -5 -10   4 3017.48 495.876   2
  -5  10   5 537.745 233.819   4
   5  10   5 307.319 167.741   4
  -5 -10   5 201.646 184.013   2
  -5  10   6 1940.24 386.017   4
   5  10   6 2786.54 385.247   4
  -5 -10   6 3143.66 533.031   2
  -5  10   7 99.9701 186.643   4
   5  10   7-99.1599 133.946   4
  -5 -10   7 71.7005 196.071   2
  -5  10   8 6228.92 698.387   4
  -5 -10   8 6009.51 721.742   2
  -5  10   9 789.828 291.350   4
  -5 -10   9 752.770 275.513   1
  -5 -10   9 425.122 263.579   2
  -5  10  10 2383.18 461.841   4
   5 -10  10 2251.33 386.630   2
  -5 -10  10 3252.41 545.891   2
  -5 -10  10 2521.68 488.588   1
  -5 -10  11 127.975 209.448   1
   5 -10  11 93.6524 186.650   2
  -5 -10  11 15.4224 150.397   2
   5 -10  12 1065.91 280.507   2
  -5  11  -9 1007.11 358.982   4
   5  11  -9 1138.11 358.102   4
  -5 -11  -9 1304.94 394.088   3
   5  11  -8 4777.99 599.823   4
  -5  11  -8 5473.25 646.591   4
  -5  11  -7 1568.51 349.363   4
   5  11  -7 2214.23 406.791   4
  -5  11  -6 4937.65 607.417   4
   5  11  -6 4723.81 580.000   4
  -5  11  -5 205.315 180.854   4
   5  11  -5 48.4468 186.242   4
  -5 -11  -4 5626.96 581.632   2
  -5  11  -4 6192.83 672.043   4
   5  11  -4 5680.61 622.001   4
  -5  11  -3 1190.48 330.987   4
   5  11  -3 888.752 300.604   4
  -5 -11  -3 681.393 196.287   2
   5 -11  -2 13458.5 886.475   3
  -5 -11  -2 10106.1 837.328   2
  -5  11  -2 11500.8 934.669   4
   5  11  -2 13203.8 963.253   4
  -5  11  -1 1394.95 358.741   4
   5  11  -1 1752.26 380.500   4
  -5 -11  -1 1262.20 323.470   2
   5 -11  -1 1484.40 288.564   3
  -5 -11   0 7865.56 775.715   2
  -5  11   0 9237.75 829.919   4
   5  11   0 9966.48 804.102   4
  -5  11   1 900.914 297.450   4
   5  11   1 1104.79 318.081   4
  -5 -11   1 1193.06 324.215   2
  -5 -11   2 12514.9 1026.81   2
  -5  11   2 12176.9 958.960   4
   5  11   2 12025.9 881.808   4
  -5  11   3 705.543 267.985   4
   5  11   3 1263.86 307.643   4
  -5 -11   3 810.054 272.402   2
  -5 -11   4 5059.88 678.295   2
  -5  11   4 6279.95 697.707   4
   5  11   4 5785.34 597.644   4
  -5  11   5 219.896 190.304   4
   5  11   5 288.645 200.497   4
  -5 -11   5-41.7979 228.459   2
  -5  11   6 5234.47 638.836   4
  -5 -11   6 5307.76 700.653   2
   5  11   6 5038.11 554.429   4
  -5  11   7 1983.19 419.089   4
  -5 -11   7 2407.47 462.646   1
   5  11   7 2158.19 371.072   4
  -5 -11   7 2632.42 508.969   2
  -5  11   8 4662.97 616.778   4
  -5 -11   8 4923.76 647.412   1
  -5 -11   8 5462.70 716.670   2
  -5  11   9 951.859 346.758   4
  -5 -11   9 1087.91 330.569   1
  -5 -11   9 371.915 232.915   2
   5 -11   9 1065.44 300.777   2
   5 -11  10 4133.88 542.717   2
  -5 -11  10 5030.18 705.672   1
   5 -11  11 1517.96 366.894   2
   5 -11  12 3440.12 513.641   2
  -5  12  -8 215.988 233.078   4
  -5  12  -7 3117.60 528.666   4
   5  12  -7 2113.48 421.243   4
  -5  12  -6 2822.77 505.386   4
   5  12  -6 3052.58 517.755   4
  -5  12  -5 4006.96 569.455   4
   5  12  -5 5258.44 642.480   4
  -5  12  -4 430.224 186.260   4
   5  12  -4 741.625 279.674   4
  -5  12  -3 2505.68 473.578   4
  -5 -12  -3 2130.34 376.704   2
  -5  12  -2 1040.21 304.078   4
   5  12  -2 817.905 276.705   4
  -5 -12  -2 135.558 180.723   2
  -5  12  -1 3133.83 505.403   4
   5  12  -1 2588.71 458.563   4
  -5 -12  -1 2669.25 472.576   2
  -5  12   0 486.888 283.280   4
   5  12   0 435.302 249.642   4
  -5 -12   0 436.442 235.216   2
  -5  12   1 3418.41 536.253   4
   5  12   1 2360.13 416.760   4
  -5 -12   1 2458.24 455.327   2
  -5  12   2 1052.91 343.709   4
   5  12   2 1012.59 297.748   4
  -5 -12   2 175.416 233.440   2
  -5  12   3 3369.92 525.385   4
   5  12   3 3191.89 473.328   4
  -5 -12   3 3171.53 557.506   2
  -5  12   4 704.929 245.628   4
   5  12   4 764.371 265.935   4
  -5 -12   4 352.082 188.461   2
  -5  12   5 2841.64 512.804   4
   5  12   5 3611.03 510.474   4
  -5 -12   5 3583.27 509.213   1
  -5 -12   5 3937.37 624.436   2
  -5  12   6 2259.37 465.536   4
  -5 -12   6 2350.85 438.309   1
   5  12   6 3100.28 462.916   4
  -5 -12   6 2966.43 581.273   2
  -5 -12   7 2481.34 462.696   1
  -5 -12   8 44.1260 221.025   1
  -5  13  -7 2135.14 441.171   4
  -5  13  -6-198.723 207.157   4
  -5  13  -5 1847.95 414.129   4
  -5  13  -4 152.616 233.025   4
   5  13  -4 1017.63 360.332   4
  -5  13  -3 1642.33 405.290   4
   5  13  -3 2173.40 440.971   4
  -5 -13  -3 1967.77 389.803   2
  -5  13  -2 431.383 233.326   4
   5  13  -2 314.458 221.572   4
  -5 -13  -2 398.041 222.708   2
  -5  13  -1 1048.96 327.636   4
   5  13  -1 1123.91 305.589   4
  -5 -13  -1 368.090 193.249   2
  -5  13   0 178.469 216.827   4
   5  13   0-119.322 193.767   4
  -5 -13   0 68.4171 179.583   2
   5  13   1 886.681 311.042   4
  -5 -13   1 670.219 267.298   2
  -5  13   2 540.297 287.322   4
   5  13   2 722.284 279.767   4
  -5 -13   2 471.505 260.800   2
  -5  13   3 2738.47 522.304   4
   5  13   3 1726.74 370.480   4
  -5 -13   3 1897.80 418.380   2
   5  13   4 295.471 184.276   4
   5  13   5 1599.90 370.301   4
  -5 -13   6-207.966 176.600   1
  -5 -13   7 1996.93 430.396   1
  -5 -14  -2 425.098 215.190   2
  -5 -14  -1-291.138 250.960   2
   5  14   1-140.081 227.791   4
   5  14   2-114.920 213.982   4
   5  14   3 460.443 220.733   4
   5  14   4 1638.65 399.697   4
  -6   0  -8 9552.20 477.250   3
  -6   0  -7 9114.93 440.214   3
  -6   0  -3 193.822 91.6162   2
  -6   0  -2 5343.51 403.679   2
  -6   0  -1 5913.19 433.688   2
  -6   0   0 25751.2 1021.50   2
   6   0   0 23675.4 791.941   4
  -6   0   1 6988.44 504.145   2
   6   0   1 6414.54 323.154   4
  -6   0   2 4205.35 408.438   2
   6   0   2 5284.95 261.615   4
  -6   0   3 391.443 154.774   2
   6   0   3 344.771 54.7227   4
  -6   0   4 2615.54 334.396   2
  -6   0   5 2749.27 345.921   2
  -6   0   6 3772.83 423.196   2
  -6   0   7 8076.10 621.382   2
   6   0   7 8519.57 395.498   2
  -6   0   8 9374.22 687.600   2
  -6   0   9 244.262 174.018   2
  -6   0  10 4163.03 478.463   2
  -6   0  11 2661.87 384.970   2
  -6   0  12-122.179 165.208   2
  -6   0  13 470.638 203.329   2
  -6   0  14 2091.90 382.581   2
  -6   0  15 40.2232 149.473   1
  -6   0  15 244.806 158.838   2
  -6   0  16 563.472 265.027   2
  -6   0  16 592.096 250.634   1
  -6   0  17 311.634 255.972   1
  -6  -1 -10 10140.3 595.959   3
  -6  -1  -9 3402.85 321.820   3
  -6  -1  -8 4989.30 369.577   3
  -6   1  -6 13478.0 458.120   3
  -6  -1  -4 9899.41 521.534   2
  -6  -1  -3 18405.7 773.809   2
  -6  -1  -2 20867.1 851.316   2
  -6  -1  -1 15542.9 732.356   2
  -6   1  -1 14482.6 732.897   2
  -6  -1   0 15723.0 760.812   2
  -6   1   0 15369.8 775.102   2
  -6  -1   1 16121.0 789.173   2
  -6   1   1 14473.1 768.026   2
   6  -1   1 15442.9 586.721   4
  -6  -1   2 22829.2 990.355   2
  -6   1   2 21692.4 971.620   2
   6   1   2 19918.9 620.305   4
   6  -1   2 21107.4 677.710   4
  -6   1   3 18093.7 898.490   2
   6   1   3 18331.2 503.869   4
   6  -1   3 18612.2 564.493   4
  -6  -1   3 17103.4 875.358   2
  -6   1   4 11886.0 713.515   2
   6  -1   4 10480.2 322.438   4
  -6  -1   4 11320.9 704.515   2
  -6   1   5 12331.3 751.522   2
  -6  -1   5 12905.2 775.461   2
  -6   1   6 12505.0 775.741   2
   6   1   6 12424.8 515.610   2
  -6  -1   6 12717.6 777.729   2
  -6   1   7 7877.30 609.197   2
   6   1   7 7424.07 359.286   2
  -6  -1   7 6644.76 573.986   2
  -6   1   8 4718.47 474.339   2
  -6  -1   8 4257.34 469.588   2
  -6  -1   9 2736.79 389.434   2
  -6   1   9 3092.25 398.234   2
  -6   1  10 9489.38 718.818   2
  -6  -1  10 7533.63 639.903   2
  -6  -1  11 7317.59 642.059   2
  -6   1  11 7252.47 641.224   2
  -6  -1  12 7206.72 650.848   2
  -6   1  12 7478.66 659.379   2
  -6  -1  13 3820.67 477.403   2
  -6   1  13 3748.24 475.297   2
  -6  -1  14 928.054 270.504   2
  -6   1  14 922.304 264.091   2
  -6   1  15 1314.95 313.899   1
  -6  -1  15 1004.82 282.545   2
  -6   1  15 555.094 224.164   2
  -6  -1  15 1036.14 283.776   1
  -6  -1  16 2152.20 397.399   2
  -6   1  16 2539.48 421.026   2
  -6  -1  16 2122.13 408.802   1
  -6  -1  17 1009.99 323.952   1
  -6  -1  18 510.222 264.604   1
  -6  -2 -11 115.127 121.391   3
  -6  -2 -10 256.915 140.162   3
  -6  -2  -9 1755.31 245.880   3
  -6  -2  -8 23.2967 84.8639   3
  -6   2  -6 492.383 66.3436   4
  -6  -2  -5 3831.46 289.445   2
  -6   2  -5 3860.96 211.170   4
  -6   2  -4 265.626 73.6333   4
  -6  -2  -4 299.556 94.9996   2
  -6  -2  -3 383.744 107.697   2
  -6   2  -3 386.492 81.6220   4
  -6  -2  -2 40.6310 83.6484   2
  -6  -2  -1 3537.23 333.468   2
  -6  -2   0 985.846 198.626   2
  -6  -2   1 3673.90 372.504   2
   6  -2   2 23.6444 47.1379   4
  -6   2   2-4.10195 112.646   2
  -6  -2   2 89.7534 135.372   2
   6  -2   3 331.050 78.5205   4
   6   2   3 495.287 68.0032   4
  -6   2   3 484.312 174.681   2
  -6  -2   3 597.355 193.565   2
   6  -2   4 270.599 59.1106   4
  -6   2   4 235.446 133.922   2
  -6  -2   4 240.305 132.372   2
  -6   2   5 4062.67 426.386   2
  -6  -2   5 3176.19 396.290   2
  -6  -2   6 837.861 223.940   2
  -6   2   6 615.714 181.779   2
   6   2   6 455.284 105.603   2
  -6   2   7 2891.23 375.558   2
   6   2   7 2966.35 228.468   2
  -6  -2   7 2807.78 379.174   2
  -6   2   8-98.9782 148.091   2
  -6  -2   8-23.3729 130.364   2
  -6   2   9 1741.78 297.870   2
  -6  -2   9 2027.21 345.615   2
  -6   2  10 256.027 148.553   2
  -6  -2  10-60.0913 119.504   2
  -6   2  11-127.906 128.556   2
  -6  -2  11 0.57197 129.002   2
  -6   2  12 108.255 137.092   2
  -6  -2  12 267.678 184.577   2
  -6   2  13 1359.25 317.418   2
  -6  -2  13 795.980 238.359   2
  -6  -2  14-269.122 200.278   2
  -6   2  14 24.2568 132.262   2
  -6  -2  15 23.2951 163.477   2
  -6  -2  15 269.426 262.954   1
  -6   2  15 111.584 140.220   2
  -6  -2  16 65.8206 148.427   2
  -6  -2  16-181.059 144.865   1
  -6  -2  17 396.513 200.486   2
  -6  -2  17 261.104 232.519   1
  -6  -3 -12 8682.09 666.757   3
  -6  -3 -11 3896.52 425.781   3
  -6  -3 -10 15964.4 852.962   3
  -6  -3  -9-14.0320 95.1528   3
  -6  -3  -7 2008.22 181.777   2
  -6   3  -7 2331.30 191.819   4
  -6  -3  -6 8507.97 423.082   2
  -6   3  -6 8412.41 394.910   4
  -6  -3  -5 2465.49 227.973   2
  -6   3  -5 2042.21 189.993   4
  -6  -3  -4 19800.7 771.774   2
  -6   3  -4 20470.9 703.146   4
  -6   3  -3 7879.83 407.793   4
  -6  -3  -3 7472.86 456.429   2
  -6   3  -2 12259.2 423.912   3
  -6   3  -2 12544.3 551.322   4
  -6  -3  -2 12750.5 645.524   2
  -6   3  -1 2944.61 213.511   3
  -6   3  -1 2672.15 257.041   4
  -6  -3  -1 2916.05 313.166   2
  -6   3   0 39540.5 1161.49   3
  -6   3   0 40673.4 1261.28   4
  -6  -3   0 36492.1 1363.71   2
  -6   3   1 2745.62 281.691   4
  -6  -3   1 2633.91 320.129   2
   6   3   2 12441.9 483.587   4
  -6  -3   2 9921.60 672.633   2
  -6  -3   3 5901.64 517.413   2
   6  -3   3 7876.47 404.700   4
   6   3   3 7242.29 329.786   4
   6   3   4 19802.6 582.110   4
  -6  -3   4 16703.8 958.401   2
   6  -3   4 19922.4 666.415   4
   6  -3   5 2171.94 175.279   4
  -6  -3   5 1868.35 289.054   2
   6   3   5 2361.77 133.073   4
  -6   3   6 7131.10 588.421   2
   6   3   6 7975.08 409.516   2
  -6  -3   6 7128.75 608.606   2
  -6   3   7 2105.76 336.662   2
  -6  -3   7 2135.04 344.590   2
  -6   3   8 5006.36 512.130   2
  -6  -3   8 4365.35 486.807   2
  -6   3   9-77.4016 143.115   2
  -6  -3   9 57.2828 136.759   2
  -6   3  10 13297.4 882.767   2
  -6  -3  10 15264.0 954.188   2
  -6   3  11 3916.30 468.245   2
  -6  -3  11 3899.70 492.062   2
  -6   3  12 8356.35 711.653   2
  -6  -3  12 7762.35 693.142   2
  -6   3  13 2791.29 423.563   2
  -6  -3  13 2765.40 438.532   2
  -6  -3  14 2001.55 368.638   2
  -6  -3  15 16.0891 186.004   1
  -6  -3  15 508.249 241.078   2
  -6  -3  16 1342.95 361.213   2
  -6  -3  16 1309.99 378.033   1
  -6  -3  17-95.4268 212.609   2
  -6  -4 -13 93.5322 160.092   3
  -6  -4 -12 253.266 170.480   3
  -6  -4 -11 604.768 195.822   3
  -6  -4 -10 1884.57 301.039   3
  -6  -4  -9 568.224 171.814   3
  -6   4  -7 5354.36 359.348   4
  -6  -4  -6 13944.4 578.643   2
  -6   4  -6 15982.5 657.716   4
  -6   4  -5 214.064 84.9471   4
  -6  -4  -5 344.979 97.0775   2
  -6   4  -4 4575.52 335.675   4
  -6  -4  -4 5124.74 361.386   2
  -6   4  -3 419.740 109.520   4
  -6  -4  -3 736.112 149.031   2
  -6   4  -2 4080.04 324.873   4
  -6  -4  -2 4025.22 362.385   2
  -6   4  -1-84.2376 86.9992   4
  -6   4  -1 79.8642 43.6725   3
  -6  -4  -1 38.3241 78.9160   2
  -6   4   0 13695.5 573.850   3
  -6   4   0 13931.1 676.688   4
  -6  -4   0 13820.4 772.689   2
  -6   4   1-9.91639 95.7887   4
   6   4   1 59.6073 69.6219   4
  -6  -4   1 130.297 135.091   2
  -6   4   2 4163.01 387.283   4
  -6  -4   2 3684.32 417.831   2
   6   4   2 4121.14 284.854   4
  -6   4   3 814.234 205.712   4
   6   4   3 732.369 123.470   4
  -6  -4   3 627.379 183.457   2
  -6  -4   4 4411.09 482.626   2
   6   4   4 5144.47 294.430   4
   6   4   5 151.860 51.8642   4
  -6  -4   5 52.4811 131.751   2
   6   4   6 16092.2 526.495   4
  -6  -4   6 14039.9 912.075   2
  -6  -4   7 4482.07 512.022   2
  -6  -4   8 11368.9 824.801   2
  -6  -4   9 488.014 224.460   2
  -6  -4  10 1324.77 302.103   2
  -6  -4  11 266.692 148.794   2
  -6  -4  12 206.045 188.281   2
  -6  -4  13 171.547 152.532   2
  -6  -4  14 2866.70 446.368   2
  -6  -4  15 511.104 272.234   1
  -6  -4  15 173.575 185.646   2
  -6  -4  16 612.482 269.051   2
  -6  -4  17-137.938 173.325   2
  -6  -5 -13 427.232 172.680   3
  -6  -5 -12 249.767 168.984   3
  -6  -5 -11 3190.24 418.311   3
  -6  -5 -10 851.426 252.148   3
  -6   5  -7 2924.86 299.704   4
  -6   5  -6 998.064 175.984   4
  -6  -5  -6 1126.33 158.953   2
  -6   5  -5 6914.54 466.522   4
  -6  -5  -5 6189.47 394.602   2
  -6   5  -4-79.3443 95.8308   4
  -6  -5  -4 57.3812 83.6927   2
  -6   5  -3 8074.53 512.501   4
  -6  -5  -3 8806.64 543.581   2
  -6   5  -2 323.250 129.554   4
  -6  -5  -2 569.941 160.622   2
   6   5  -1 9169.95 543.285   4
  -6   5  -1 8504.41 545.403   4
  -6  -5  -1 9180.45 613.091   2
  -6   5   0 64.1516 105.007   4
   6   5   0 159.077 91.9729   4
  -6  -5   0 162.812 109.093   2
  -6   5   1 8802.30 579.063   4
  -6  -5   1 8555.92 648.445   2
   6   5   1 8936.25 498.301   4
  -6   5   2 380.092 144.217   4
   6   5   2 473.112 112.178   4
  -6  -5   2 682.087 199.240   2
  -6   5   3 8311.94 596.053   4
  -6  -5   3 7191.98 623.542   2
   6   5   3 8129.29 444.640   4
  -6   5   4 3.74580 109.752   4
   6   5   4 50.3585 52.2933   4
  -6  -5   4-85.2459 125.084   2
  -6   5   5 7103.22 600.286   4
   6   5   5 7691.09 408.776   4
  -6  -5   5 7147.63 648.784   2
   6   5   6 1263.66 159.353   4
  -6  -5   6 2122.54 376.654   2
  -6  -5   7 2962.86 440.773   2
  -6  -5   8 419.224 232.241   2
  -6  -5   9 6624.86 646.507   2
  -6  -5  10 741.917 222.084   2
  -6  -5  11 3407.80 475.862   2
  -6  -5  12-112.853 168.667   2
  -6  -5  13 399.006 200.551   2
  -6  -5  14 319.566 212.653   1
  -6  -5  14 87.9070 175.503   2
  -6  -5  15 40.6302 179.934   2
  -6  -5  15 1061.97 350.959   1
  -6  -5  16 135.135 192.930   2
  -6  -6 -14 80.4450 165.340   3
  -6  -6 -13 3762.19 515.651   3
  -6  -6 -12 4051.23 506.873   3
  -6  -6 -11 6789.13 641.929   3
  -6  -6 -10 2163.62 367.762   3
  -6   6  -7 1346.00 236.341   4
  -6   6  -6 116.383 87.4438   4
  -6  -6  -6 113.179 60.6936   2
  -6   6  -5 5179.78 446.067   4
  -6  -6  -5 5277.12 385.806   2
  -6   6  -4 4827.84 432.916   4
  -6  -6  -4 4708.05 385.403   2
   6   6  -3 8067.61 570.762   4
  -6   6  -3 7988.25 562.079   4
  -6  -6  -3 7764.03 546.069   2
   6   6  -2 7172.19 526.574   4
  -6   6  -2 8041.85 566.338   4
  -6  -6  -2 8604.74 592.787   2
   6   6  -1 18844.7 866.029   4
  -6   6  -1 17895.7 894.217   4
  -6  -6  -1 18584.9 941.797   2
  -6   6   0 23.0433 107.988   4
   6   6   0 424.133 145.873   4
  -6  -6   0 332.389 155.233   2
  -6   6   1 16112.2 876.680   4
  -6  -6   1 19267.6 1017.79   2
   6   6   1 17951.7 796.139   4
  -6   6   2 7588.86 584.812   4
  -6  -6   2 7846.45 647.167   2
   6   6   2 6989.82 459.601   4
  -6   6   3 8166.59 615.097   4
  -6  -6   3 8061.65 683.256   2
   6   6   3 7365.73 470.752   4
  -6  -6   4 4106.74 503.347   2
  -6   6   4 4523.60 474.559   4
   6   6   4 4693.96 357.062   4
  -6   6   5 4819.77 495.586   4
  -6  -6   5 5372.54 579.965   2
   6   6   5 5308.17 381.074   4
  -6   6   6 287.407 175.708   4
   6   6   6 246.632 88.3101   4
  -6  -6   6 115.010 163.884   2
  -6  -6   7 1394.06 307.520   2
  -6  -6   8-130.744 152.416   2
  -6  -6   9 8211.70 758.356   2
  -6  -6  10 1577.12 336.373   2
  -6  -6  11 7112.21 711.256   2
  -6  -6  12 4227.85 539.963   2
  -6  -6  13 4830.80 607.399   2
  -6  -6  14 98.2647 172.587   2
  -6  -6  14 317.629 295.820   1
  -6  -6  15 1610.84 381.308   2
  -6  -7 -14 605.917 252.584   3
  -6  -7 -13-127.632 204.928   3
  -6  -7 -12 1793.48 359.752   3
  -6  -7 -11 1723.03 363.252   3
  -6  -7 -10 996.801 265.457   3
  -6   7  -7 166.443 131.579   4
  -6   7  -6 4261.10 435.323   4
  -6   7  -5 51.3231 113.111   4
   6   7  -5-28.4531 123.993   4
  -6  -7  -5 168.026 125.782   2
   6   7  -4 4709.72 471.249   4
  -6   7  -4 4028.65 428.257   4
  -6  -7  -4 4609.79 397.683   2
  -6   7  -3 1024.14 238.899   4
   6   7  -3 791.752 202.727   4
  -6  -7  -3 922.903 211.892   2
  -6   7  -2 394.859 158.014   4
   6   7  -2 652.825 183.201   4
  -6  -7  -2 569.124 181.704   2
  -6   7  -1 219.926 162.151   4
   6   7  -1 227.643 132.205   4
  -6  -7  -1-25.3995 122.299   2
  -6   7   0 4373.04 456.613   4
  -6  -7   0 4124.97 464.191   2
   6   7   0 4293.37 404.192   4
  -6   7   1-36.9233 152.769   4
   6   7   1-187.398 131.859   4
  -6  -7   1 38.6383 125.227   2
  -6   7   2 51.7297 133.346   4
   6   7   2 279.666 129.840   4
  -6  -7   2 551.217 215.517   2
  -6   7   3 606.596 208.147   4
   6   7   3 821.654 155.960   4
  -6  -7   3 825.167 250.603   2
  -6  -7   4 4291.17 528.783   2
  -6   7   4 4831.53 514.529   4
   6   7   4 4028.81 362.062   4
  -6   7   5 39.7734 174.699   4
   6   7   5 104.680 102.659   4
  -6  -7   5 329.136 228.735   2
  -6   7   6 3767.18 504.327   4
  -6  -7   6 4138.36 528.613   2
   6   7   6 3917.01 358.745   4
  -6   7   7 251.240 203.503   4
  -6  -7   7 420.539 224.109   2
  -6  -7   8 1255.69 335.045   2
  -6  -7   9 51.4743 161.338   2
  -6  -7  10 1135.63 317.242   2
  -6  -7  11 2863.72 479.514   2
  -6  -7  12 1051.56 305.059   2
  -6  -7  13-116.738 253.318   1
  -6  -7  13-355.522 225.173   2
  -6  -7  14 659.893 246.063   2
  -6  -8 -14 371.542 206.638   3
  -6  -8 -13 1273.42 340.874   3
  -6  -8 -12 712.124 283.661   3
  -6  -8 -11 4207.62 552.938   3
  -6  -8 -10 1067.96 280.150   3
   6   8  -8 1224.09 313.796   4
  -6   8  -7 2182.64 346.427   4
   6   8  -7 2824.39 410.365   4
  -6   8  -6 499.657 171.439   4
   6   8  -6 533.846 191.971   4
  -6   8  -5 7.30200 168.332   4
   6   8  -5 154.064 124.740   4
  -6  -8  -5 310.071 121.989   2
   6   8  -4 3810.91 438.773   4
  -6  -8  -4 3783.61 396.648   2
  -6   8  -4 4604.59 484.549   4
  -6  -8  -3 6935.07 555.765   2
  -6   8  -3 8082.12 643.021   4
   6   8  -3 7263.84 605.711   4
  -6  -8  -2 4349.67 454.742   2
  -6   8  -2 4787.84 495.039   4
   6   8  -2 4588.97 471.078   4
  -6  -8  -1 10128.1 743.350   2
  -6   8  -1 10266.9 741.860   4
   6   8  -1 10314.4 693.986   4
  -6   8   0 428.609 181.840   4
   6   8   0 478.259 155.799   4
  -6  -8   0 709.904 233.437   2
  -6   8   1 9703.18 739.098   4
  -6  -8   1 11384.1 831.592   2
   6   8   1 10046.7 672.971   4
  -6  -8   2 4496.57 525.061   2
  -6   8   2 4529.55 498.540   4
   6   8   2 4652.58 445.645   4
  -6   8   3 7074.59 642.242   4
  -6  -8   3 8416.66 747.954   2
   6   8   3 6791.67 525.933   4
  -6  -8   4 3934.84 521.040   2
  -6   8   4 4132.79 494.697   4
   6   8   4 3697.85 371.019   4
  -6   8   5 421.273 191.452   4
   6   8   5-93.5091 140.132   4
  -6  -8   5 580.386 208.371   2
  -6   8   6 623.628 236.733   4
   6   8   6 502.116 167.269   4
  -6  -8   6 586.727 233.031   2
  -6   8   7 1810.75 370.553   4
  -6  -8   7 2029.05 390.919   2
  -6   8   8 1221.23 322.874   4
  -6  -8   8 1078.98 306.932   2
  -6  -8   9 4704.36 613.433   2
  -6  -8  10 1477.86 358.606   2
  -6  -8  11 4833.15 635.385   2
  -6  -8  12 763.282 275.545   2
  -6  -8  13 2259.13 464.111   2
  -6  -9 -12 99.1253 158.085   3
   6   9 -11 408.273 225.339   4
  -6  -9 -11 136.772 164.915   3
   6   9 -10 439.515 232.426   4
  -6  -9 -10 1052.01 329.586   3
   6   9  -9 4137.43 537.705   4
   6   9  -8 96.5043 177.552   4
   6   9  -7 3462.72 486.285   4
  -6   9  -7 4540.53 517.196   4
  -6   9  -6 369.326 192.992   4
   6   9  -6 488.730 203.773   4
   6   9  -5 5961.91 593.921   4
  -6   9  -5 6332.54 603.044   4
  -6   9  -4-66.0501 130.562   4
  -6  -9  -4-1.34780 90.4300   2
  -6   9  -3 3069.47 438.513   4
   6   9  -3 2337.34 364.572   4
  -6  -9  -3 2311.94 339.861   2
  -6   9  -2 857.204 228.593   4
   6   9  -2 1184.94 261.727   4
  -6  -9  -2 962.187 248.931   2
  -6  -9  -1 6121.46 602.282   2
  -6   9  -1 5276.83 564.153   4
   6   9  -1 6090.94 563.419   4
  -6   9   0-111.541 151.806   4
   6   9   0 114.026 122.916   4
  -6  -9   0-163.414 152.668   2
  -6   9   1 6142.45 609.030   4
  -6  -9   1 5476.73 596.325   2
   6   9   1 5719.15 534.976   4
  -6   9   2 783.766 238.620   4
   6   9   2 1097.67 231.973   4
  -6  -9   2 1129.90 304.450   2
  -6   9   3 2380.66 395.060   4
   6   9   3 2196.56 310.923   4
  -6  -9   3 2479.15 423.021   2
  -6   9   4 124.084 158.520   4
   6   9   4 57.6556 108.238   4
  -6  -9   4 11.9781 188.845   2
  -6   9   5 6110.35 646.200   4
  -6  -9   5 6994.89 721.390   2
   6   9   5 5952.79 523.664   4
  -6   9   6 423.973 202.712   4
   6   9   6 208.851 135.235   4
  -6  -9   6 511.300 242.661   2
  -6   9   7 3977.49 552.430   4
  -6  -9   7 3974.41 574.813   2
  -6   9   8-128.423 167.177   4
  -6  -9   8 107.740 211.681   2
  -6   9   9 2990.94 533.928   4
  -6  -9   9 3731.04 559.201   2
  -6  -9  10 1482.62 367.823   2
  -6  -9  11 798.085 330.163   2
   6  -9  11 243.708 178.591   2
  -6 -10 -10 1243.34 374.380   3
   6  10  -9 269.154 193.621   4
   6  10  -8 1786.71 372.048   4
  -6  10  -7 3272.51 464.115   4
   6  10  -7 2522.22 421.872   4
  -6  10  -6 2688.60 433.003   4
   6  10  -6 2107.90 389.520   4
  -6  10  -5 4013.68 522.429   4
   6  10  -5 3644.48 489.373   4
  -6  10  -4 1161.43 296.871   4
   6  10  -4 1098.17 284.647   4
  -6 -10  -4 1120.96 241.515   2
  -6  10  -3 2722.03 450.907   4
   6  10  -3 2338.48 388.367   4
  -6 -10  -3 1663.02 314.155   2
  -6  10  -2 3461.89 474.914   4
   6  10  -2 2847.63 427.827   4
  -6 -10  -2 3204.48 428.468   2
  -6  10  -1 354.071 221.048   4
   6  10  -1 393.517 183.746   4
  -6 -10  -1 201.502 189.652   2
   6  10   0 4604.95 520.402   4
  -6 -10   0 4403.11 548.247   2
  -6  10   0 4582.41 558.872   4
  -6  10   1 477.083 253.094   4
   6  10   1 352.186 199.251   4
  -6 -10   1 434.318 266.585   2
  -6  10   2 3362.71 491.759   4
   6  10   2 2965.93 409.086   4
  -6 -10   2 3467.43 505.759   2
  -6  10   3 2641.17 451.586   4
   6  10   3 2099.58 340.810   4
  -6 -10   3 2690.79 468.021   2
  -6  10   4 1194.56 316.713   4
   6  10   4 1112.90 265.850   4
  -6 -10   4 1284.74 328.378   2
  -6  10   5 3482.24 514.985   4
   6  10   5 3493.80 432.764   4
  -6 -10   5 3650.01 548.373   2
  -6  10   6 2839.40 473.341   4
  -6 -10   6 2771.39 467.484   2
  -6  10   7 3344.19 543.931   4
  -6 -10   7 3518.63 542.843   2
  -6  10   8 1938.15 388.315   4
  -6 -10   8 1073.47 310.524   2
  -6  10   9 423.499 231.676   4
  -6 -10   9-186.485 261.415   2
   6 -10  11 603.076 243.463   2
   6 -10  12 1795.43 351.642   2
   6  11  -8 2452.35 452.127   4
  -6  11  -7 2727.07 464.960   4
   6  11  -7 1625.69 374.862   4
  -6  11  -6-321.655 239.649   4
   6  11  -6 176.439 208.145   4
  -6  11  -5 1230.97 328.366   4
   6  11  -5 1206.33 311.514   4
  -6  11  -4 3980.68 544.022   4
   6  11  -4 2693.83 442.911   4
  -6  11  -3 2705.73 446.551   4
   6  11  -3 2369.85 431.323   4
  -6 -11  -3 2176.53 383.065   2
  -6  11  -2 2492.12 450.297   4
   6  11  -2 1661.53 335.071   4
  -6 -11  -2 2564.64 434.635   2
  -6  11  -1 677.898 272.138   4
   6  11  -1 691.476 242.628   4
  -6 -11  -1 942.674 289.689   2
  -6  11   0 2749.01 479.122   4
   6  11   0 2028.46 366.662   4
  -6 -11   0 2024.69 408.267   2
  -6  11   1 1071.38 316.565   4
   6  11   1 1194.37 285.090   4
  -6 -11   1 457.314 234.251   2
  -6  11   2 1610.61 353.270   4
   6  11   2 1754.38 348.268   4
  -6 -11   2 1578.32 374.164   2
  -6  11   3 1570.48 357.744   4
   6  11   3 1885.95 334.668   4
  -6 -11   3 2511.56 481.811   2
  -6  11   4 3258.22 495.011   4
   6  11   4 3032.43 421.834   4
  -6 -11   4 3661.28 578.417   2
  -6  11   5 1063.99 303.047   4
   6  11   5 811.693 227.319   4
  -6 -11   5 1022.49 337.467   2
  -6  11   6 358.117 251.913   4
  -6 -11   6 53.7455 241.387   2
  -6  11   7 2893.70 515.897   4
  -6 -11   7 2328.13 476.613   2
  -6 -11   9 659.040 297.530   1
   6 -11  10 1791.24 362.067   2
  -6  12  -7 4515.66 613.830   4
  -6  12  -6 793.190 313.559   4
   6  12  -6 848.791 314.428   4
   6  12  -5 5804.42 694.984   4
  -6  12  -5 6325.71 724.907   4
  -6  12  -4 287.769 221.374   4
   6  12  -4 309.995 221.924   4
   6  12  -3 5365.53 648.355   4
  -6  12  -3 5801.92 704.779   4
  -6  12  -2 2084.02 437.591   4
   6  12  -2 1379.90 348.771   4
  -6 -12  -2 1163.67 311.770   2
  -6  12  -1 4031.12 575.391   4
   6  12  -1 3811.20 556.084   4
  -6 -12  -1 3944.91 560.561   2
  -6  12   0 546.762 262.134   4
   6  12   0 499.499 206.581   4
  -6 -12   0 576.887 248.809   2
  -6  12   1 3035.65 507.961   4
   6  12   1 3762.71 528.583   4
  -6 -12   1 3298.83 532.201   2
  -6  12   2 1426.62 353.492   4
   6  12   2 1336.37 310.065   4
  -6 -12   2 935.818 286.276   2
  -6  12   3 5384.88 666.772   4
   6  12   3 4398.59 564.617   4
  -6 -12   3 4887.62 676.153   2
  -6  12   4 400.666 241.523   4
   6  12   4 126.481 165.567   4
  -6 -12   4 288.949 235.311   2
  -6  12   5 6272.50 737.723   4
  -6 -12   5 7024.27 820.113   2
  -6 -12   7 4092.10 590.100   1
  -6  13  -6-105.546 201.404   4
  -6  13  -5 2827.09 547.192   4
  -6  13  -4-149.710 235.172   4
  -6  13  -3 931.309 312.118   4
   6  13  -3 1043.72 361.146   4
  -6  13  -2 752.191 305.850   4
   6  13  -2 967.776 306.998   4
  -6 -13  -2 213.612 177.542   2
  -6  13  -1 957.929 316.456   4
   6  13  -1 686.397 269.498   4
  -6 -13  -1 500.328 213.474   2
  -6  13   0 535.578 302.963   4
   6  13   0 116.443 207.501   4
  -6 -13   0 374.917 258.731   2
   6  13   1 547.577 235.203   4
  -6 -13   1 210.819 212.210   2
   6  13   2 318.793 187.100   4
  -6 -13   2 243.662 184.667   2
   6  13   3 1041.37 328.459   4
  -6 -13   6 36.8806 181.958   1
  -7   0  -7-5.58823 51.7198   3
  -7   0  -3-206.250 142.782   2
  -7   0  -2-53.4937 97.8871   2
  -7   0  -1-62.9974 115.609   2
  -7   0   0 37.5752 104.764   2
   7   0   1-52.9196 58.7582   4
  -7   0   1 199.543 139.584   2
   7   0   2-22.4177 41.4996   4
  -7   0   2-124.957 134.841   2
  -7   0   3 134.298 111.313   2
   7   0   3-6.46719 30.3831   4
  -7   0   4 54.3368 105.111   2
  -7   0   5-86.6756 135.142   2
  -7   0   6-140.679 171.780   2
  -7   0   7-104.770 144.119   2
  -7   0   8 178.399 161.615   2
  -7   0   9 228.820 178.188   2
  -7   0  10 134.846 172.061   2
  -7   0  11 2.28815 182.355   2
  -7   0  12-127.701 149.549   2
  -7   0  13-52.2933 138.030   2
  -7   0  14 176.375 203.262   2
  -7   0  15 204.761 192.247   2
  -7   0  16-93.3775 173.653   2
  -7   0  16 37.8350 188.888   1
  -7   0  17-567.863 295.254   2
  -7  -1  -8-97.6560 78.2569   3
  -7  -1  -4 7909.41 508.029   2
  -7  -1  -3 297.972 111.231   2
  -7  -1  -2 10399.2 621.497   2
  -7  -1  -1 213.188 122.160   2
  -7   1  -1 135.676 97.1798   2
  -7  -1   0 215.390 143.147   2
  -7   1   0 404.638 166.811   2
   7   1   1 52.2861 52.1187   4
  -7  -1   1 90.6622 129.116   2
  -7   1   1 75.6954 128.631   2
  -7  -1   2 11198.2 717.901   2
  -7   1   2 9730.85 681.035   2
   7   1   2 9916.00 408.423   4
   7  -1   2 10429.4 463.206   4
  -7  -1   3 469.818 176.027   2
   7   1   3 413.169 66.2875   4
   7  -1   3 382.187 71.3252   4
  -7   1   3 94.2095 122.329   2
  -7  -1   4 7881.52 633.049   2
  -7   1   4 7312.09 603.311   2
   7  -1   4 7152.60 262.618   4
  -7  -1   5 421.045 160.959   2
  -7   1   5 209.545 142.555   2
  -7  -1   6 804.825 222.416   2
  -7   1   6 1313.56 278.573   2
  -7  -1   7 4842.59 524.780   2
  -7   1   7 5464.91 549.177   2
  -7  -1   8-169.704 171.007   2
  -7   1   8-55.2174 135.273   2
  -7  -1   9 229.512 167.749   2
  -7   1   9-82.4682 170.889   2
  -7  -1  10 6819.59 670.786   2
  -7   1  10 6477.75 638.801   2
  -7  -1  11 1926.54 372.767   2
  -7   1  11 2433.60 409.430   2
  -7  -1  12 2863.30 448.976   2
  -7   1  12 3553.75 483.724   2
  -7  -1  13 199.682 175.353   2
  -7   1  13-39.5659 142.302   2
  -7  -1  14 558.990 234.792   2
  -7   1  14 308.687 175.153   2
  -7  -1  15 114.912 159.082   2
  -7   1  15-266.213 230.815   2
  -7  -1  16 561.074 248.409   2
  -7   1  16 504.960 224.945   2
  -7  -1  16 197.487 181.205   1
  -7  -1  17 300.192 203.104   2
  -7  -1  17 743.326 302.062   1
  -7  -2  -9 1029.23 167.474   3
  -7  -2  -5 1779.53 217.277   2
  -7  -2  -4 21576.6 889.262   2
  -7  -2  -3 6060.98 444.736   2
  -7  -2  -2 28429.3 1123.29   2
  -7  -2  -1 2248.50 293.331   2
  -7  -2   0 51209.3 1724.74   2
  -7  -2   1 2551.22 344.258   2
  -7   2   2 28538.5 1247.16   2
   7  -2   2 27721.3 918.263   4
  -7  -2   2 28204.7 1246.19   2
  -7   2   3 6083.84 541.118   2
   7   2   3 4583.61 260.357   4
   7  -2   3 5976.11 325.262   4
  -7  -2   3 6373.18 564.193   2
   7   2   3 6155.87 263.367   4
  -7   2   4 19179.0 1044.81   2
   7  -2   4 20094.6 620.134   4
  -7  -2   4 21473.1 1099.25   2
  -7   2   5 2014.65 334.735   2
  -7  -2   5 2151.02 348.201   2
  -7   2   6 13735.8 880.380   2
  -7  -2   6 12872.7 869.137   2
  -7   2   7 1334.88 290.623   2
  -7  -2   7 1531.69 322.243   2
  -7   2   8 6024.76 604.411   2
  -7  -2   8 6205.86 611.886   2
  -7   2   9 1663.35 344.232   2
  -7  -2   9 1807.94 349.664   2
  -7   2  10 20647.3 1167.79   2
  -7  -2  10 20287.5 1177.32   2
  -7  -2  11 1000.27 281.402   2
  -7   2  11 1111.66 291.694   2
  -7   2  12 11265.8 874.767   2
  -7  -2  12 11412.8 888.616   2
  -7  -2  13 1608.86 353.043   2
  -7   2  13 1042.34 304.953   2
  -7  -2  14 2956.87 468.497   2
  -7   2  14 3169.94 501.413   2
  -7  -2  15 519.442 268.621   2
  -7   2  15-66.5938 183.533   2
  -7  -2  16 1838.31 407.719   2
  -7   2  16 1474.63 346.601   2
  -7  -2  16 1460.30 367.866   1
  -7  -2  17 361.880 237.960   2
  -7  -3 -10 1011.65 234.172   3
  -7  -3  -9 10289.9 660.803   3
  -7  -3  -6 1420.17 183.544   2
  -7  -3  -5 9447.27 532.110   2
  -7   3  -5 10465.2 447.059   4
  -7   3  -4 58.2665 74.9692   4
  -7  -3  -4 132.805 88.4273   2
  -7  -3  -3 16129.3 759.323   2
  -7   3  -3 14471.0 629.196   4
  -7   3  -2 744.456 102.072   3
  -7   3  -2 616.082 135.751   4
  -7  -3  -2 695.343 172.260   2
  -7  -3  -1 10806.0 659.501   2
  -7  -3   0 1745.97 276.317   2
  -7  -3   1 11956.7 754.977   2
   7   3   2 807.519 118.514   4
  -7  -3   2 589.588 199.205   2
  -7  -3   3 13959.0 875.112   2
   7   3   3 14127.6 501.182   4
   7   3   4-6.11148 30.0656   4
   7  -3   4 68.8275 49.0570   4
  -7  -3   4 68.5383 124.801   2
  -7  -3   5 8053.75 681.308   2
  -7   3   6 1468.27 303.193   2
  -7  -3   6 984.382 250.944   2
  -7   3   7 4729.46 520.419   2
  -7  -3   7 4735.13 534.782   2
  -7   3   8 178.724 163.948   2
  -7  -3   8 129.839 135.771   2
  -7   3   9 9909.86 793.833   2
  -7  -3   9 10716.6 835.774   2
  -7   3  10 1194.54 280.259   2
  -7  -3  10 1134.20 284.915   2
  -7   3  11 2594.23 417.654   2
  -7  -3  11 2037.06 381.061   2
  -7   3  12 606.853 261.035   2
  -7  -3  12 31.1105 131.001   2
  -7  -3  13 1506.39 334.601   2
  -7  -3  14 153.768 194.358   2
  -7  -3  15 737.844 294.916   2
  -7  -3  16 44.8601 164.297   2
  -7  -4 -11 533.322 198.431   3
  -7  -4 -10 3173.63 387.705   3
  -7  -4  -6 673.832 136.252   2
  -7  -4  -5 1075.47 178.705   2
  -7   4  -5 930.754 154.647   4
  -7   4  -4 680.139 127.196   4
  -7  -4  -4 783.705 158.159   2
  -7   4  -3 569.382 133.594   4
  -7  -4  -3 859.108 176.253   2
  -7   4  -2 30.3183 86.4373   4
  -7  -4  -2 52.0324 92.7096   2
  -7   4  -1 1607.39 220.813   4
  -7  -4  -1 1452.72 231.295   2
  -7   4   0 11517.0 637.562   4
  -7  -4   0 11068.0 712.354   2
   7   4   1 1995.69 219.610   4
  -7   4   1 1502.21 237.290   4
  -7  -4   1 1552.84 285.758   2
   7   4   2 44.0400 62.5270   4
  -7  -4   2-74.0982 125.533   2
   7   4   3 1100.60 141.823   4
  -7  -4   3 1068.76 264.904   2
   7   4   4 805.455 113.802   4
  -7  -4   4 572.499 201.883   2
   7   4   5 942.876 110.069   4
  -7  -4   5 775.361 234.059   2
  -7  -4   6 924.295 281.051   2
  -7  -4   7 1024.75 288.245   2
  -7  -4   8-76.0565 118.702   2
  -7  -4   9 1200.28 302.293   2
  -7  -4  10 3597.72 493.486   2
  -7  -4  11-24.2309 133.020   2
  -7  -4  12 318.495 210.794   2
  -7  -4  13 1024.83 304.086   2
  -7  -4  14 274.980 168.779   2
  -7  -4  15-231.041 206.847   2
  -7  -5 -11 620.818 180.183   3
  -7  -5 -10 280.942 144.151   3
  -7   5  -5 1223.75 203.456   4
  -7  -5  -5 1287.16 192.032   2
  -7   5  -4 4319.05 364.956   4
  -7  -5  -4 3776.04 343.313   2
  -7   5  -3 168.042 110.446   4
  -7  -5  -3 382.714 127.531   2
  -7   5  -2 681.526 166.964   4
  -7  -5  -2 930.387 205.706   2
   7   5  -1 3397.63 338.315   4
  -7   5  -1 3861.62 368.169   4
  -7  -5  -1 3959.90 404.991   2
  -7   5   0 29.3445 101.232   4
   7   5   0 55.8199 103.551   4
  -7  -5   0 115.924 109.312   2
  -7  -5   1 3729.91 429.627   2
  -7   5   1 4564.07 425.641   4
   7   5   1 3825.70 327.640   4
  -7   5   2 715.468 174.783   4
   7   5   2 848.345 147.257   4
  -7  -5   2 520.368 171.196   2
  -7   5   3 365.527 187.792   4
   7   5   3 351.985 109.505   4
  -7  -5   3 340.546 180.978   2
  -7  -5   4 3322.48 463.289   2
   7   5   4 3918.83 287.382   4
   7   5   5 1150.05 150.095   4
  -7  -5   5 1288.32 300.216   2
  -7  -5   6 1868.46 371.217   2
  -7  -5   7 1090.54 305.258   2
  -7  -5   8 1284.20 310.604   2
  -7  -5   9 1252.36 311.408   2
  -7  -5  10 557.872 249.100   2
  -7  -5  11 780.594 262.280   2
  -7  -5  12 204.572 148.132   2
  -7  -5  13 2576.79 449.498   2
  -7  -5  14 1122.02 322.542   2
  -7  -5  15-72.9157 185.378   2
  -7  -6 -12 1500.65 310.883   3
  -7  -6 -11 235.559 162.181   3
  -7  -6 -10 1862.06 333.442   3
  -7   6  -5 293.079 121.449   4
  -7  -6  -5 512.473 143.068   2
  -7   6  -4 9090.17 594.585   4
  -7  -6  -4 8922.33 557.019   2
  -7   6  -3 1440.94 238.759   4
  -7  -6  -3 1668.57 246.502   2
  -7   6  -2 2153.18 290.042   4
   7   6  -2 1924.16 285.544   4
  -7  -6  -2 2213.20 313.692   2
  -7   6  -1 180.256 106.798   4
   7   6  -1 134.298 109.311   4
  -7  -6  -1 143.129 125.770   2
  -7   6   0 6992.87 556.141   4
  -7  -6   0 7295.47 613.054   2
   7   6   0 7766.02 523.712   4
  -7   6   1 171.683 137.392   4
   7   6   1 3.97080 83.8782   4
  -7  -6   1 216.426 200.250   2
  -7   6   2 1967.97 305.933   4
   7   6   2 2131.03 262.238   4
  -7  -6   2 2445.12 383.557   2
  -7   6   3 1469.96 290.871   4
   7   6   3 1077.52 184.528   4
  -7  -6   3 1527.87 318.527   2
  -7   6   4 9132.00 711.617   4
  -7  -6   4 9030.61 774.701   2
   7   6   4 9171.81 511.694   4
  -7  -6   5 827.112 289.784   2
  -7   6   5 826.643 227.826   4
  -7  -6   6 5859.58 650.516   2
  -7  -6   7 542.365 257.369   2
  -7  -6   8 1420.37 355.482   2
  -7  -6   9 299.586 227.299   2
  -7  -6  10 1690.94 360.179   2
  -7  -6  11 681.423 296.137   2
  -7  -6  12 1475.67 365.986   2
  -7  -6  13 665.111 321.474   2
  -7  -6  14 1029.11 310.602   2
  -7  -7 -13 6497.40 693.907   3
  -7  -7 -12 695.773 261.237   3
  -7  -7 -11 10708.4 857.324   3
  -7  -7 -10 1561.63 325.862   3
   7   7  -5 13193.3 834.609   4
  -7   7  -5 12890.2 773.108   4
   7   7  -4 3593.91 416.113   4
  -7   7  -4 3539.56 394.346   4
  -7  -7  -4 3100.25 342.224   2
   7   7  -3 20509.7 1023.66   4
  -7   7  -3 19988.5 1002.58   4
  -7  -7  -3 19557.7 942.715   2
  -7   7  -2 2620.77 345.272   4
   7   7  -2 2189.37 317.236   4
  -7  -7  -2 2410.56 340.427   2
  -7   7  -1 37096.6 1455.64   4
  -7  -7  -1 34933.2 1450.99   2
   7   7  -1 34609.5 1350.10   4
  -7   7   0 1414.90 257.676   4
   7   7   0 1213.77 223.122   4
  -7  -7   0 1479.68 319.636   2
  -7   7   1 36406.0 1467.90   4
  -7  -7   1 33648.8 1521.33   2
   7   7   1 35063.1 1302.46   4
  -7   7   2 2210.18 358.917   4
   7   7   2 2509.57 300.947   4
  -7  -7   2 2616.05 424.678   2
  -7   7   3 20550.4 1082.51   4
  -7  -7   3 18367.3 1120.57   2
   7   7   3 17690.4 842.485   4
  -7   7   4 3383.11 448.981   4
  -7  -7   4 3868.15 517.924   2
   7   7   4 3530.57 335.018   4
  -7   7   5 13326.6 908.030   4
  -7  -7   5 13062.6 961.404   2
  -7  -7   6 4686.78 593.791   2
  -7   7   6 4573.65 570.287   4
  -7  -7   7 12410.2 974.708   2
  -7  -7   8 2425.12 456.297   2
  -7  -7   9 14911.7 1080.95   2
  -7  -7  10 2228.34 458.053   2
  -7  -7  11 13340.9 1026.09   2
  -7  -7  12 953.211 325.821   2
  -7  -8 -13-85.2159 168.980   3
  -7  -8 -12-15.0251 190.000   3
  -7  -8 -11 217.198 166.725   3
  -7  -8 -10 491.723 248.460   3
   7   8  -8 790.643 267.019   4
   7   8  -7 62.6133 154.830   4
   7   8  -6 449.214 230.927   4
  -7   8  -5 550.782 208.542   4
   7   8  -5 483.433 222.523   4
  -7   8  -4-8.87510 118.263   4
   7   8  -4-71.7714 115.339   4
  -7  -8  -4 207.823 144.623   2
  -7   8  -3 1797.13 310.832   4
   7   8  -3 2051.34 331.772   4
  -7  -8  -3 1700.13 288.257   2
  -7   8  -2-32.0954 146.664   4
   7   8  -2-44.2773 102.547   4
  -7  -8  -2 215.119 129.037   2
  -7   8  -1 533.303 159.928   4
   7   8  -1 384.607 164.036   4
  -7  -8  -1 548.317 211.701   2
  -7   8   0 480.118 168.168   4
   7   8   0 332.579 152.363   4
  -7  -8   0 414.956 201.356   2
  -7   8   1 239.506 178.317   4
   7   8   1 464.553 184.375   4
  -7  -8   1 597.197 208.871   2
  -7   8   2-29.2404 153.372   4
   7   8   2 130.827 132.462   4
  -7  -8   2 341.867 181.710   2
  -7   8   3 1742.58 340.843   4
   7   8   3 2041.71 289.592   4
  -7  -8   3 1936.28 392.287   2
  -7   8   4 62.1779 163.530   4
   7   8   4-109.101 125.424   4
  -7  -8   4 373.040 246.195   2
  -7   8   5 126.987 150.845   4
  -7  -8   5 181.930 185.022   2
  -7   8   6-15.8919 148.287   4
  -7  -8   6 407.972 242.405   2
  -7   8   7 373.479 245.046   4
  -7  -8   7 929.071 313.182   2
  -7  -8   8 752.965 327.917   2
  -7  -8   9 162.839 195.391   2
  -7  -8  10 302.189 232.973   2
  -7  -8  11 844.904 322.626   2
  -7  -9 -12-92.4164 158.172   3
  -7  -9 -11-62.8416 190.834   3
   7   9 -10 326.792 207.107   4
  -7  -9 -10-118.759 180.507   3
   7   9  -9 221.089 176.110   4
   7   9  -8 867.046 259.629   4
   7   9  -7 230.308 192.951   4
   7   9  -6 1184.08 308.275   4
  -7   9  -5 1543.27 292.467   4
   7   9  -5 1179.15 299.515   4
  -7   9  -4 86.2270 145.181   4
   7   9  -4 49.2149 142.056   4
  -7   9  -3 95.5321 145.326   4
   7   9  -3 70.2531 157.005   4
  -7  -9  -3 164.181 153.039   2
  -7   9  -2 32.6403 155.852   4
   7   9  -2-53.6515 147.913   4
  -7  -9  -2 143.010 139.892   2
  -7   9  -1-72.7988 155.883   4
   7   9  -1-175.968 142.898   4
  -7  -9  -1 83.5761 141.298   2
  -7   9   0 537.559 210.576   4
   7   9   0 740.839 216.599   4
  -7  -9   0 1012.62 281.015   2
  -7   9   1-40.4072 199.979   4
   7   9   1 78.6625 135.123   4
  -7  -9   1 131.465 155.188   2
  -7   9   2-137.657 170.835   4
   7   9   2-23.4985 103.582   4
  -7  -9   2-67.2258 160.849   2
  -7   9   3 327.163 161.364   4
   7   9   3 224.887 134.949   4
  -7  -9   3-30.6124 153.353   2
  -7   9   4 421.530 248.391   4
  -7  -9   4 324.897 188.244   2
  -7   9   5 1111.47 318.855   4
  -7  -9   5 757.129 295.165   2
  -7   9   6 1233.74 313.303   4
  -7  -9   6 1367.32 360.245   2
  -7   9   7 73.3730 186.574   4
  -7  -9   7 52.6463 176.734   2
  -7  -9   8 602.785 266.382   2
  -7   9   8 650.931 286.284   4
  -7  -9   9 545.461 288.158   2
  -7  -9  10 649.129 318.938   2
   7  10  -8-125.442 218.433   4
   7  10  -7 68.8405 130.920   4
   7  10  -6 637.463 243.872   4
  -7  10  -5 217.131 195.629   4
   7  10  -5-197.341 169.441   4
  -7  10  -4 247.446 136.494   4
   7  10  -4 309.738 176.009   4
  -7  10  -3 108.764 154.805   4
   7  10  -3 202.387 159.701   4
  -7 -10  -3 266.123 180.886   2
  -7  10  -2 144.026 203.109   4
   7  10  -2-20.5251 133.601   4
  -7 -10  -2-9.74535 126.225   2
  -7  10  -1 808.130 281.342   4
   7  10  -1 737.238 229.001   4
  -7 -10  -1 782.772 229.138   2
  -7  10   0 485.116 231.124   4
   7  10   0 193.803 187.337   4
  -7 -10   0 303.071 186.375   2
  -7  10   1 502.712 193.746   4
   7  10   1 660.390 199.226   4
  -7 -10   1 982.199 294.188   2
  -7  10   2-103.411 149.019   4
   7  10   2 269.192 180.994   4
  -7 -10   2 181.399 202.011   2
  -7  10   3-91.8114 175.096   4
   7  10   3-67.1806 148.750   4
  -7 -10   3-118.418 167.932   2
  -7  10   4 141.599 183.247   4
  -7 -10   4 444.609 266.679   2
  -7  10   5 267.058 204.594   4
  -7 -10   5-36.7568 158.804   2
  -7  10   6 392.711 237.018   4
  -7 -10   6 989.462 336.353   2
  -7  10   7 123.203 183.618   4
  -7 -10   7 287.704 255.980   2
  -7  10   8 503.318 298.464   4
  -7 -10   8 398.189 281.803   2
   7  11  -7 2233.05 428.125   4
   7  11  -6 105.654 155.256   4
  -7  11  -5 7988.71 776.171   4
   7  11  -5 6593.43 704.232   4
  -7  11  -4 1472.15 352.129   4
   7  11  -4 2181.05 429.093   4
  -7  11  -3 9571.83 855.294   4
   7  11  -3 10416.7 859.173   4
  -7  11  -2 2316.07 440.607   4
   7  11  -2 2364.34 433.041   4
  -7 -11  -2 1965.36 372.356   2
  -7  11  -1 7540.60 748.160   4
  -7 -11  -1 7308.87 691.319   2
   7  11  -1 7070.92 701.522   4
  -7  11   0 2171.37 416.653   4
   7  11   0 2151.35 391.474   4
  -7 -11   0 2122.89 397.348   2
  -7  11   1 7502.52 759.646   4
  -7 -11   1 7293.99 734.076   2
   7  11   1 7632.95 692.561   4
  -7  11   2 2268.12 441.128   4
   7  11   2 2804.39 415.698   4
  -7 -11   2 2674.84 476.309   2
  -7  11   3 9187.41 845.393   4
  -7 -11   3 8710.80 837.475   2
  -7  11   4 1343.73 338.638   4
  -7 -11   4 1270.04 375.573   2
  -7  11   5 6266.09 719.987   4
  -7 -11   5 6724.57 769.043   2
  -7  11   6 910.979 313.796   4
  -7 -11   6 1268.88 388.185   2
  -7  12  -5 599.988 294.483   4
  -7  12  -4 3398.31 538.642   4
   7  12  -4 3200.28 517.334   4
  -7  12  -3 736.015 298.045   4
   7  12  -3 1004.92 322.595   4
  -7  12  -2 3684.08 562.038   4
   7  12  -2 3559.45 531.083   4
  -7 -12  -2 3385.95 493.506   2
  -7  12  -1 629.144 265.070   4
   7  12  -1 354.348 202.485   4
  -7 -12  -1 500.204 193.065   2
  -7  12   0 5968.59 705.216   4
   7  12   0 5634.97 651.000   4
  -7 -12   0 6423.26 691.730   2
  -7  12   1 278.890 199.857   4
  -7 -12   1 290.433 245.564   2
  -7  12   2 3143.02 525.324   4
   7  12   2 3189.57 478.527   4
  -7 -12   2 3181.05 514.627   2
  -7  12   3 730.681 321.962   4
  -7 -12   3 115.356 154.483   2
   7  13  -1-409.489 261.655   4
  -7 -13  -1-320.482 257.233   2
   7  13   0 3872.36 557.080   4
  -7 -13   0 2899.23 487.797   2
   7  13   1 38.7947 165.111   4
  -8   0  -2 3053.21 359.528   2
  -8   0  -1 2467.88 329.185   2
  -8   0   0 884.221 220.455   2
  -8   0   1 2595.75 370.401   2
  -8   0   2 3380.21 441.768   2
  -8   0   3-183.391 175.146   2
  -8   0   4 3347.64 454.928   2
  -8   0   5 1455.59 308.737   2
  -8   0   6 1946.85 381.224   2
  -8   0   7 186.708 220.290   2
  -8   0   8 306.705 172.989   2
  -8   0   9 855.846 266.496   2
  -8   0  10 88.5081 147.947   2
  -8   0  11 1295.99 339.772   2
  -8   0  12 2053.95 406.757   2
  -8   0  13 496.557 209.732   2
  -8   0  14 599.705 257.236   2
  -8   0  15-367.273 270.280   2
  -8   0  16-149.077 202.637   2
  -8  -1  -4-150.579 125.340   2
  -8  -1  -3 20385.1 965.859   2
  -8  -1  -2 3444.79 389.447   2
  -8  -1  -1 15032.4 861.241   2
  -8  -1   0 5880.42 533.892   2
  -8   1   0 5981.78 543.636   2
  -8  -1   1 15329.6 910.761   2
  -8   1   1 13993.1 884.736   2
  -8  -1   2 3590.08 440.399   2
  -8   1   2 3715.89 447.011   2
  -8  -1   3 22166.7 1186.32   2
  -8   1   3 21057.1 1144.23   2
  -8  -1   4 74.5536 125.694   2
  -8   1   4-26.4085 139.418   2
  -8  -1   5 5496.01 598.487   2
  -8   1   5 5847.83 588.738   2
  -8  -1   6 3029.68 447.203   2
  -8   1   6 2984.26 444.748   2
  -8  -1   7 9556.60 813.555   2
  -8   1   7 9943.09 815.371   2
  -8  -1   8 1545.96 339.559   2
  -8   1   8 1751.60 371.206   2
  -8  -1   9 7228.06 720.854   2
  -8   1   9 6596.68 685.920   2
  -8  -1  10 747.006 243.990   2
  -8   1  10 537.448 178.956   2
  -8  -1  11 7032.35 729.620   2
  -8   1  11 5847.95 661.957   2
  -8  -1  12 207.381 207.874   2
  -8   1  12 538.166 234.162   2
  -8  -1  13 3658.55 543.603   2
  -8   1  13 3075.50 476.637   2
  -8  -1  14 156.837 193.625   2
  -8   1  14 681.383 270.164   2
  -8  -1  15 2637.51 492.583   2
  -8   1  15 1253.95 288.948   2
  -8   1  16 219.778 208.457   2
  -8  -2  -5 249.717 118.841   2
  -8  -2  -4 282.190 97.4726   2
  -8  -2  -3-0.79540 124.014   2
  -8  -2  -2 4759.35 451.303   2
  -8  -2  -1 958.886 228.224   2
  -8  -2   0 12262.5 791.940   2
  -8  -2   1 1039.55 242.809   2
  -8  -2   2 4990.52 534.652   2
  -8   2   2 4441.77 505.648   2
  -8  -2   3 80.3536 157.748   2
   8   2   3 149.402 50.7098   4
  -8   2   3-28.7022 155.524   2
  -8  -2   4 430.878 238.452   2
  -8   2   4 325.070 192.022   2
  -8  -2   5 135.863 170.668   2
  -8   2   5 37.8603 168.702   2
  -8  -2   6 801.607 265.094   2
  -8   2   6 1167.71 287.801   2
  -8  -2   7 1676.22 372.267   2
  -8   2   7 1966.31 379.045   2
  -8  -2   8 1065.35 299.875   2
  -8   2   8 1374.94 309.566   2
  -8  -2   9 1038.66 292.787   2
  -8   2   9 1642.14 346.046   2
  -8  -2  10 474.231 213.796   2
  -8   2  10 710.926 263.226   2
  -8  -2  11 367.023 236.214   2
  -8   2  11 24.1074 165.601   2
  -8  -2  12 3139.70 498.318   2
  -8   2  12 2136.27 390.927   2
  -8  -2  13 88.6931 196.629   2
  -8   2  13-204.719 223.086   2
  -8  -2  14 3031.08 512.601   2
  -8   2  14 1755.37 402.467   2
  -8  -2  15 627.995 266.761   2
  -8   2  15-8.88539 202.903   2
  -8   2  16 63.0681 201.545   2
  -8  -3  -5 4631.37 398.164   2
  -8  -3  -4 1146.76 206.101   2
  -8  -3  -3 20228.4 947.096   2
  -8  -3  -2 87.0252 98.9764   2
  -8  -3  -1 15300.5 862.318   2
  -8  -3   0 8457.77 651.312   2
  -8  -3   1 13949.1 883.903   2
   8   3   2 332.003 90.5902   4
  -8  -3   2 221.716 174.307   2
   8   3   3 19198.3 626.157   4
  -8  -3   3 19156.3 1104.50   2
  -8  -3   4 806.466 251.225   2
  -8  -3   5 3088.27 454.573   2
  -8  -3   6-198.681 217.122   2
  -8   3   7 5135.92 576.089   2
  -8  -3   7 5154.22 584.950   2
  -8   3   8 392.552 192.006   2
  -8  -3   8 134.018 147.844   2
  -8   3   9 8421.31 774.143   2
  -8  -3   9 8585.35 786.364   2
  -8   3  10 256.057 239.215   2
  -8  -3  10 249.111 199.858   2
  -8   3  11 6502.31 704.827   2
  -8  -3  11 5662.86 667.141   2
  -8  -3  12 58.8895 208.570   2
  -8  -3  13 4566.33 613.928   2
  -8  -3  14-239.810 220.433   2
  -8  -4  -5 49.9303 83.3843   2
  -8  -4  -4 1345.59 225.002   2
  -8  -4  -3 4639.51 425.934   2
  -8   4  -3 5686.07 400.680   4
  -8   4  -2 1736.07 230.408   4
  -8  -4  -2 1554.62 270.301   2
  -8  -4  -1 8.79001 101.627   2
  -8  -4   0 9265.97 684.684   2
   8   4   1 98.0508 79.6581   4
  -8  -4   1 25.6549 112.575   2
   8   4   2 1534.56 178.365   4
  -8  -4   2 953.155 255.474   2
  -8  -4   3 4793.43 542.251   2
   8   4   3 4798.97 303.566   4
  -8  -4   4 1027.18 265.904   2
  -8  -4   5-184.592 166.067   2
  -8  -4   6 4037.22 530.370   2
  -8  -4   7 232.313 160.077   2
  -8  -4   8 289.314 181.359   2
  -8  -4   9 193.932 195.722   2
  -8  -4  10 222.262 229.963   2
  -8  -4  11 1490.64 351.637   2
  -8  -4  12 412.131 210.077   2
  -8  -4  13-37.2556 188.438   2
  -8  -4  14 50.9732 197.238   2
  -8  -5  -5 2391.41 277.901   2
  -8  -5  -4 2286.26 282.406   2
  -8   5  -3 1206.03 207.624   4
  -8  -5  -3 1432.73 243.075   2
  -8   5  -2 789.372 178.363   4
  -8  -5  -2 896.276 198.892   2
  -8   5  -1 2174.45 305.431   4
   8   5  -1 1849.48 251.236   4
  -8  -5  -1 2080.27 321.841   2
  -8   5   0 96.3596 133.417   4
   8   5   0 208.502 102.728   4
  -8  -5   0 107.538 136.634   2
  -8   5   1 2598.43 336.464   4
   8   5   1 2217.20 248.696   4
  -8  -5   1 2066.00 356.457   2
   8   5   2 870.709 149.830   4
  -8  -5   2 720.995 209.752   2
   8   5   3 1059.16 160.418   4
  -8  -5   3 1058.74 264.619   2
  -8  -5   4 2225.98 393.551   2
  -8  -5   5 1698.05 345.294   2
  -8  -5   6 2352.81 436.364   2
  -8  -5   7 1724.54 369.515   2
  -8  -5   8 132.470 193.922   2
  -8  -5   9 1263.71 346.322   2
  -8  -5  10 118.189 209.276   2
  -8  -5  11-292.835 245.469   2
  -8  -5  12 143.580 217.532   2
  -8  -5  13 963.179 307.062   2
  -8  -6 -10 5752.53 589.642   3
  -8  -6  -4 10195.1 620.667   2
  -8   6  -3 198.624 128.756   4
  -8  -6  -3-1.62794 86.6102   2
   8   6  -2 18454.9 915.735   4
  -8   6  -2 17796.0 893.977   4
  -8  -6  -2 18190.0 945.794   2
   8   6  -1 3862.82 377.991   4
  -8   6  -1 3114.64 361.944   4
  -8  -6  -1 2995.42 388.528   2
  -8   6   0 9681.59 674.783   4
  -8  -6   0 9712.71 720.716   2
   8   6   0 9222.26 586.882   4
  -8   6   1 2591.48 360.944   4
  -8  -6   1 2972.71 424.213   2
   8   6   1 3036.52 309.088   4
  -8   6   2 18786.2 1014.62   4
  -8  -6   2 17488.8 1077.25   2
   8   6   2 19313.3 822.371   4
  -8   6   3 256.040 192.842   4
  -8  -6   3 22.3248 179.154   2
  -8  -6   4 11704.4 905.255   2
  -8  -6   5 1542.44 373.132   2
  -8  -6   6 8532.97 793.667   2
  -8  -6   7 1856.27 386.917   2
  -8  -6   8 11016.5 934.479   2
  -8  -6   9 2541.85 454.587   2
  -8  -6  10 6607.04 729.197   2
  -8  -6  11 188.270 257.061   2
  -8  -6  12 5019.86 639.632   2
  -8  -7 -11 1272.25 330.827   3
   8   7  -4-2.34017 127.464   4
  -8  -7  -4 113.943 87.5157   2
  -8   7  -3 3137.32 379.064   4
   8   7  -3 2447.47 353.431   4
  -8  -7  -3 2337.11 314.803   2
  -8   7  -2 768.070 202.347   4
   8   7  -2 533.157 185.618   4
  -8  -7  -2 741.246 218.848   2
  -8   7  -1 2077.07 323.862   4
   8   7  -1 1806.58 284.117   4
  -8  -7  -1 2493.88 354.062   2
  -8   7   0 910.198 232.846   4
   8   7   0 656.284 189.981   4
  -8  -7   0 1016.69 260.662   2
  -8   7   1 2156.14 350.178   4
   8   7   1 2305.07 306.198   4
  -8  -7   1 2512.45 405.585   2
  -8   7   2 814.207 244.602   4
   8   7   2 675.751 180.102   4
  -8  -7   2 818.973 276.008   2
  -8   7   3 2662.78 406.709   4
  -8  -7   3 3184.44 466.051   2
  -8   7   4 34.0373 153.714   4
  -8  -7   4 58.1877 167.112   2
  -8  -7   5 60.2360 169.888   2
  -8   7   5 314.495 217.237   4
  -8  -7   6 557.144 309.427   2
  -8  -7   7 1219.44 342.083   2
  -8  -7   8 128.718 226.492   2
  -8  -7   9 1714.08 380.878   2
  -8  -7  10 348.095 258.763   2
  -8  -7  11 1500.93 390.778   2
  -8  -8 -11 397.639 240.150   3
   8   8  -8 4227.21 531.369   4
   8   8  -7 928.016 288.410   4
   8   8  -6 11055.3 832.679   4
   8   8  -5 40.4942 121.740   4
   8   8  -4 5245.40 540.448   4
  -8   8  -3 268.375 124.093   4
   8   8  -3 726.547 224.471   4
  -8  -8  -3 374.021 142.884   2
  -8   8  -2 7591.39 644.566   4
  -8  -8  -2 7964.70 628.234   2
   8   8  -2 7794.49 631.122   4
  -8   8  -1 215.342 164.663   4
   8   8  -1 418.625 144.609   4
  -8  -8  -1 742.123 233.869   2
  -8   8   0 8226.38 683.233   4
  -8  -8   0 6646.47 623.337   2
   8   8   0 6942.69 560.259   4
  -8   8   1 317.626 159.963   4
   8   8   1 648.184 197.457   4
  -8  -8   1 263.130 163.620   2
  -8   8   2 8725.71 733.893   4
  -8  -8   2 7392.82 715.576   2
   8   8   2 7798.12 580.165   4
  -8   8   3 522.866 231.943   4
  -8  -8   3 39.5056 153.750   2
  -8   8   4 6626.11 667.622   4
  -8  -8   4 5495.66 647.237   2
  -8   8   5 733.315 278.067   4
  -8  -8   5 56.7430 178.802   2
  -8   8   6 13698.2 998.066   4
  -8  -8   6 11181.3 957.411   2
  -8  -8   7 1134.45 342.323   2
  -8  -8   8 5966.44 712.049   2
  -8  -8   9 238.501 216.542   2
   8   9  -9 834.538 239.991   4
   8   9  -8 362.054 225.210   4
   8   9  -7 67.1201 148.778   4
   8   9  -6 609.484 224.084   4
   8   9  -5 2055.55 375.000   4
   8   9  -4 1767.24 324.010   4
  -8   9  -3 39.7382 164.863   4
   8   9  -3 130.864 141.199   4
  -8  -9  -3 310.399 148.540   2
  -8   9  -2 518.031 172.286   4
   8   9  -2 468.503 179.289   4
  -8  -9  -2 242.712 141.059   2
  -8   9  -1 137.288 148.804   4
   8   9  -1-54.8848 149.015   4
  -8  -9  -1 59.0965 112.707   2
  -8   9   0-81.2427 174.162   4
   8   9   0 300.806 171.964   4
  -8   9   1-57.0422 145.642   4
   8   9   1 518.269 197.880   4
  -8  -9   1 155.079 173.906   2
  -8   9   2 531.866 259.922   4
  -8  -9   2 1090.52 312.883   2
  -8   9   3 269.791 221.162   4
  -8  -9   3 517.857 235.232   2
  -8   9   4 2349.42 433.246   4
  -8  -9   4 2021.64 433.086   2
  -8   9   5 2419.84 449.611   4
  -8  -9   5 2064.60 439.640   2
  -8   9   6 210.681 231.092   4
  -8  -9   6 1244.62 370.568   2
  -8  -9   7 110.699 195.891   2
  -8   9   7 137.192 203.160   4
  -8  -9   8 392.818 266.610   2
   8  10  -7-164.306 233.311   4
   8  10  -6 932.763 290.068   4
   8  10  -5 529.547 252.028   4
   8  10  -4 1854.73 341.970   4
  -8  10  -3-233.553 162.443   4
   8  10  -3 69.6665 157.883   4
  -8  10  -2 9524.09 803.653   4
  -8 -10  -2 7941.92 673.941   2
   8  10  -2 7887.00 696.714   4
  -8  10  -1 686.224 247.817   4
   8  10  -1 400.768 219.803   4
  -8 -10  -1 562.481 235.836   2
  -8  10   0 4021.54 536.026   4
   8  10   0 3925.53 479.334   4
  -8 -10   0 4131.99 520.365   2
  -8  10   1 658.128 281.853   4
   8  10   1 188.798 156.751   4
  -8 -10   1 392.139 228.557   2
  -8  10   2 8598.00 800.173   4
  -8 -10   2 7292.15 742.120   2
  -8  10   3 242.384 179.891   4
  -8 -10   3 449.244 234.912   2
  -8  10   4 2355.25 457.139   4
  -8 -10   4 2265.83 441.348   2
  -8  10   5 296.037 203.692   4
  -8 -10   5 438.551 207.721   2
  -8  10   6 1432.95 390.355   4
  -8 -10   6 1600.37 397.685   2
   8  11  -5 1297.33 349.901   4
   8  11  -4 353.060 189.368   4
  -8  11  -3 673.142 254.905   4
   8  11  -3 652.100 245.995   4
  -8  11  -2-130.901 230.031   4
   8  11  -2 202.009 184.069   4
  -8  11  -1 1430.29 358.497   4
   8  11  -1 2040.28 374.849   4
  -8 -11  -1 1694.98 337.076   2
  -8  11   0 2571.52 473.546   4
   8  11   0 2095.17 391.552   4
  -8 -11   0 2836.62 470.039   2
  -8  11   1 1832.56 400.817   4
  -8 -11   1 2073.18 408.099   2
  -8  11   2 267.866 179.897   4
  -8 -11   2 738.977 268.854   2
  -8  11   3 1565.93 374.436   4
  -8 -11   3 1868.38 404.299   2
  -8  11   4 663.216 293.048   4
  -8 -11   4 498.871 292.013   2
   8  12  -3 236.082 160.894   4
  -8  12  -2 6736.80 751.458   4
   8  12  -2 6165.01 696.979   4
  -8  12  -1 100.586 184.975   4
   8  12  -1 93.3567 150.393   4
  -8 -12  -1 473.595 214.379   2
  -8  12   0 8621.18 879.603   4
  -8 -12   0 8833.72 818.736   2
  -8 -12   1 701.656 276.476   2
  -9   0  -2 89.8780 115.196   2
  -9   0  -1-112.045 145.794   2
  -9   0   0 114.400 185.311   2
  -9   0   1-146.786 181.284   2
  -9   0   2 32.3760 183.458   2
  -9   0   3-69.5063 168.728   2
  -9   0   4 402.569 225.449   2
  -9   0   5 199.335 219.734   2
  -9   0   6-121.235 168.392   2
  -9   0   7 245.097 181.563   2
  -9   0   8-259.480 246.604   2
  -9   0   9 44.0762 142.317   2
  -9   0  10-34.7813 197.187   2
  -9   0  11-42.0374 203.069   2
  -9   0  12 20.1922 195.219   2
  -9   0  13 136.559 181.586   2
  -9   0  14 78.1056 172.828   2
  -9  -1  -3-82.1029 104.211   2
  -9  -1  -2 172.669 110.126   2
  -9  -1  -1 1696.68 312.453   2
  -9  -1   0 298.757 209.831   2
  -9   1   0-28.4122 160.538   2
  -9  -1   1 2239.18 382.173   2
  -9   1   1 1133.97 285.438   2
  -9  -1   2 174.895 203.072   2
  -9   1   2 576.874 236.415   2
  -9  -1   3 245.021 166.653   2
  -9   1   3 113.510 158.209   2
  -9  -1   4 1218.16 320.415   2
  -9   1   4 1210.95 304.444   2
  -9  -1   5 658.898 259.789   2
  -9   1   5 607.762 249.795   2
  -9  -1   6 55.0906 169.183   2
  -9   1   6 297.106 179.829   2
  -9  -1   7 512.523 226.140   2
  -9   1   7 262.602 219.374   2
  -9  -1   8 2009.24 387.223   2
  -9   1   8 2025.09 418.776   2
  -9  -1   9-359.002 272.315   2
  -9   1   9 195.977 212.750   2
  -9  -1  10 241.066 232.258   2
  -9   1  10 727.323 292.395   2
  -9  -1  11 4.91399 224.389   2
  -9   1  11 281.947 280.385   2
  -9  -1  12 275.365 235.762   2
  -9   1  12-166.248 199.510   2
  -9  -1  13 240.550 212.184   2
  -9   1  13 47.7207 224.344   2
  -9   1  14-53.4004 211.627   2
  -9  -2  -5 3480.68 361.252   2
  -9  -2  -4 10666.0 695.335   2
  -9  -2  -3 13706.7 821.232   2
  -9  -2  -2 10355.1 735.449   2
  -9  -2  -1 11971.5 813.466   2
  -9  -2   0 25751.4 1281.04   2
  -9  -2   1 12039.7 868.630   2
  -9  -2   2 10825.1 847.193   2
  -9  -2   3 14471.6 1013.66   2
  -9   2   3 13403.2 969.685   2
  -9  -2   4 9498.19 839.248   2
  -9   2   4 9433.74 819.311   2
  -9  -2   5 3743.44 533.492   2
  -9   2   5 3288.41 493.829   2
  -9  -2   6 7629.52 769.156   2
  -9   2   6 8288.75 793.936   2
  -9  -2   7 13463.9 1049.75   2
  -9   2   7 13901.2 1040.94   2
  -9  -2   8 7484.42 794.548   2
  -9   2   8 7761.39 805.045   2
  -9  -2   9 6263.26 751.663   2
  -9   2   9 5964.41 701.976   2
  -9  -2  10 3854.46 576.636   2
  -9   2  10 4278.64 619.003   2
  -9  -2  11 2743.29 490.319   2
  -9   2  11 1972.16 411.173   2
  -9  -2  12 1820.82 413.835   2
  -9   2  12 2589.01 480.707   2
  -9  -2  13 2682.23 501.937   2
  -9   2  13 1901.57 425.761   2
  -9   2  14 5424.67 706.611   2
  -9  -3  -5 4892.88 444.398   2
  -9  -3  -4 2914.20 355.640   2
  -9  -3  -3 4946.14 473.944   2
  -9  -3  -2 1647.18 286.373   2
  -9  -3  -1 47.6049 116.749   2
  -9  -3   0 8228.65 689.268   2
  -9  -3   1 182.935 197.314   2
  -9  -3   2 1415.91 323.696   2
  -9  -3   3 4626.50 567.737   2
  -9  -3   4 2044.38 394.262   2
  -9  -3   5 4807.16 596.348   2
  -9  -3   6 2459.42 439.978   2
  -9  -3   7 1461.00 340.533   2
  -9  -3   8 363.432 163.927   2
  -9  -3   9 483.660 201.146   2
  -9  -3  10 1044.23 322.337   2
  -9  -3  11-45.7623 253.177   2
  -9  -3  12 1500.74 396.166   2
  -9  -4  -4 38.6232 117.526   2
  -9  -4  -3 553.392 211.026   2
  -9  -4  -2 636.636 198.787   2
  -9  -4  -1 1161.54 254.987   2
  -9  -4   0 1426.33 277.969   2
   9   4   1 1213.34 178.831   4
  -9  -4   1 1010.86 263.586   2
  -9  -4   2 28.7831 166.949   2
  -9  -4   3 467.181 193.301   2
  -9  -4   4 248.445 189.080   2
  -9  -4   5 158.380 179.380   2
  -9  -4   6 1010.73 305.958   2
  -9  -4   7 849.574 232.656   2
  -9  -4   8 202.868 190.524   2
  -9  -4   9 825.606 259.094   2
  -9  -4  10 332.133 276.506   2
  -9  -4  11 271.138 215.339   2
  -9  -4  12-6.94692 184.417   2
  -9  -5  -4 860.666 196.556   2
  -9  -5  -3-83.1392 122.843   2
  -9  -5  -2 1578.99 285.432   2
   9   5  -1 1624.65 253.100   4
  -9  -5  -1 1633.51 292.704   2
   9   5   0 217.189 117.484   4
  -9  -5   0 214.402 120.023   2
   9   5   1 996.968 178.311   4
  -9  -5   1 1381.38 292.356   2
  -9  -5   2 1223.34 296.934   2
  -9  -5   3 149.049 166.870   2
  -9  -5   4 824.840 268.188   2
  -9  -5   5 669.004 258.479   2
  -9  -5   6-206.973 163.673   2
  -9  -5   7-9.19839 195.786   2
  -9  -5   8 2549.24 466.756   2
  -9  -5   9 217.240 209.349   2
  -9  -5  10-30.0145 181.544   2
  -9  -5  11 124.933 173.575   2
  -9  -6  -3 1613.72 288.609   2
   9   6  -2 3816.93 404.695   4
  -9  -6  -2 4499.54 470.824   2
  -9   6  -1 909.868 224.440   4
   9   6  -1 947.374 198.935   4
  -9  -6  -1 702.287 217.353   2
  -9   6   0 2491.72 352.733   4
   9   6   0 1853.08 262.956   4
  -9  -6   0 2429.61 397.117   2
  -9   6   1 1082.90 257.458   4
  -9  -6   1 990.738 277.943   2
  -9  -6   2 4006.65 510.699   2
  -9  -6   3 1617.76 358.378   2
  -9  -6   4 420.126 219.173   2
  -9  -6   5 335.077 231.175   2
  -9  -6   6 483.886 234.293   2
  -9  -6   7 387.110 215.665   2
  -9  -6   8 1646.20 377.535   2
  -9  -6   9 2152.68 464.401   2
  -9  -6  10 2010.83 405.736   2
   9   7  -5 4876.94 527.591   4
   9   7  -4 7137.03 626.864   4
   9   7  -3 4395.56 476.941   4
  -9  -7  -3 4271.78 444.602   2
   9   7  -2 13001.5 804.521   4
  -9  -7  -2 11972.1 793.989   2
  -9   7  -1 7577.36 618.371   4
  -9  -7  -1 6459.90 594.955   2
   9   7  -1 7548.11 582.136   4
  -9   7   0 6304.92 572.990   4
  -9  -7   0 5899.38 588.772   2
   9   7   0 5598.32 479.176   4
  -9   7   1 7654.69 664.904   4
  -9  -7   1 8178.43 723.125   2
  -9   7   2 13200.9 899.009   4
  -9  -7   2 12665.1 938.903   2
  -9  -7   3 4053.38 535.384   2
  -9  -7   4 6882.61 729.426   2
  -9  -7   5 4423.01 597.346   2
  -9  -7   6 7536.24 790.374   2
  -9  -7   7 1894.06 450.620   2
  -9  -7   8 5232.34 686.746   2
  -9  -7   9 2936.78 525.755   2
   9   8  -8 274.952 204.332   4
   9   8  -7 1220.66 325.212   4
   9   8  -6 1024.66 281.877   4
   9   8  -5 444.525 233.417   4
   9   8  -4 115.325 144.650   4
   9   8  -3 374.447 169.936   4
   9   8  -2 253.077 164.365   4
  -9  -8  -2 110.070 149.990   2
  -9   8  -1-56.5777 158.445   4
   9   8  -1 141.705 132.440   4
  -9  -8  -1 93.1681 134.517   2
  -9   8   0 692.894 243.134   4
  -9  -8   0 650.553 224.666   2
  -9   8   1-95.0942 138.517   4
  -9  -8   1 269.457 197.510   2
  -9   8   2 379.583 208.925   4
  -9  -8   2 20.1689 150.900   2
  -9   8   3 775.892 266.686   4
  -9  -8   3 225.502 195.849   2
  -9  -8   4-198.013 174.775   2
  -9   8   4 422.079 229.950   4
  -9  -8   5 41.6310 188.734   2
  -9  -8   6 274.858 208.456   2
  -9  -8   7 903.020 309.262   2
   9   9  -7 227.261 173.558   4
   9   9  -6 24.4558 129.979   4
   9   9  -5 846.908 267.408   4
   9   9  -4 49.1993 150.052   4
   9   9  -3 362.559 193.945   4
   9   9  -2 192.416 126.908   4
  -9  -9  -2 616.171 204.577   2
  -9   9  -1-3.52087 144.236   4
   9   9  -1 182.801 171.045   4
  -9  -9  -1 57.0067 146.762   2
  -9   9   0 365.836 197.948   4
  -9  -9   0 213.996 165.590   2
  -9   9   1-126.088 150.102   4
  -9  -9   1-128.265 148.590   2
  -9   9   2 521.972 237.539   4
  -9  -9   2 428.728 235.703   2
  -9   9   3 513.761 241.970   4
  -9  -9   3 737.330 300.270   2
  -9   9   4 177.878 229.275   4
  -9  -9   4 249.987 210.972   2
  -9  -9   5 736.612 331.323   2
  -9   9   5 246.179 210.325   4
  -9  -9   6 217.945 205.719   2
   9  10  -6 224.508 163.104   4
   9  10  -5 222.946 207.353   4
   9  10  -4-400.351 214.704   4
   9  10  -3 270.794 196.247   4
   9  10  -2 91.3284 143.009   4
  -9  10  -1 760.625 289.015   4
  -9 -10  -1-77.2719 155.490   2
  -9  10   0 284.409 178.864   4
  -9 -10   0 450.154 229.110   2
  -9  10   1 118.093 167.994   4
  -9 -10   1-60.3517 164.638   2
  -9  10   2 198.938 241.831   4
  -9 -10   2 93.9400 166.373   2
  -9  10   3-436.499 264.939   4
  -9 -10   3 396.532 266.221   2
  -9  10   4 167.084 221.116   4
  -9 -10   4-15.8713 203.068   2
  -9  10   5 162.422 212.686   4
   9  11  -4 1228.97 328.720   4
   9  11  -3 1774.17 376.879   4
   9  11  -2 3137.67 471.003   4
  -9  11   0 2675.57 472.456   4
  -9 -11   0 2928.93 465.267   2
  -9  11   1 4978.97 641.574   4
  -9 -11   1 3779.92 541.367   2
  -9  11   2 2685.61 480.577   4
 -10   0  -1 1585.75 338.370   2
 -10   0   0 3214.33 461.511   2
 -10   0   1 1110.79 319.713   2
 -10   0   2 2676.29 454.312   2
 -10   0   3 458.609 227.523   2
 -10   0   4 7189.06 777.182   2
 -10   0   5 2589.13 495.839   2
 -10   0   6 1142.62 313.531   2
 -10   0   7-15.9534 225.359   2
 -10   0   8 1331.16 376.243   2
 -10   0   9 295.895 263.091   2
 -10   0  10 1453.27 407.474   2
 -10   0  11 540.836 271.524   2
 -10  -1  -3 472.169 188.349   2
 -10  -1  -2 4546.25 514.915   2
 -10  -1  -1 447.458 195.774   2
 -10  -1   0 9140.63 777.358   2
 -10  -1   1 530.342 251.071   2
 -10   1   1 210.220 141.975   2
 -10  -1   2 5386.94 647.509   2
 -10   1   2 4890.50 603.293   2
 -10  -1   3 976.281 348.055   2
 -10   1   3 456.764 203.063   2
 -10  -1   4 10263.7 934.827   2
 -10   1   4 10618.4 938.076   2
 -10  -1   5-134.175 273.387   2
 -10   1   5-22.1469 160.959   2
 -10  -1   6 6776.63 782.135   2
 -10   1   6 7172.91 804.374   2
 -10  -1   7 247.646 190.150   2
 -10   1   7 693.284 324.192   2
 -10  -1   8 3888.39 623.599   2
 -10   1   8 4939.90 676.680   2
 -10  -1   9 230.530 274.156   2
 -10   1   9 201.506 301.879   2
 -10  -1  10 3233.56 582.724   2
 -10   1  10 3559.92 581.807   2
 -10  -1  11-31.2780 190.718   2
 -10   1  11-165.968 211.677   2
 -10  -2  -4 1056.40 227.250   2
 -10  -2  -3 2544.28 369.614   2
 -10  -2  -2 1200.52 283.215   2
 -10  -2  -1 144.423 179.974   2
 -10  -2   0 1945.79 368.720   2
 -10  -2   1 422.616 221.811   2
 -10  -2   2 1031.99 306.470   2
 -10  -2   3 2517.78 463.956   2
 -10  -2   4 497.343 259.247   2
 -10   2   4 154.166 232.973   2
 -10  -2   5 4856.41 648.251   2
 -10   2   5 5384.33 670.666   2
 -10  -2   6-13.9279 203.143   2
 -10   2   6 70.6646 141.781   2
 -10  -2   7 1290.22 347.548   2
 -10   2   7 2185.76 468.098   2
 -10  -2   8 102.166 184.952   2
 -10   2   8-2.80821 226.784   2
 -10  -2   9 949.014 399.129   2
 -10   2   9 852.183 317.419   2
 -10  -2  10-17.9278 219.628   2
 -10   2  10 163.159 250.737   2
 -10  -2  11-321.445 334.517   2
 -10   2  11 356.698 268.928   2
 -10  -3  -4 12657.7 807.328   2
 -10  -3  -3 91.0510 148.968   2
 -10  -3  -2 5808.22 577.997   2
 -10  -3  -1 1120.48 298.622   2
 -10  -3   0 6952.53 675.188   2
 -10  -3   1 1642.82 363.376   2
 -10  -3   2 6022.23 669.705   2
 -10  -3   3-80.0149 170.331   2
 -10  -3   4 11281.9 978.425   2
 -10  -3   5 160.973 200.538   2
 -10  -3   6 7335.58 816.289   2
 -10  -3   7-235.782 279.114   2
 -10  -3   8 3238.81 589.526   2
 -10  -3   9-191.447 200.505   2
 -10  -3  10 2763.66 525.220   2
 -10  -4  -3 2934.74 383.983   2
 -10  -4  -2 943.785 255.197   2
 -10  -4  -1 307.908 200.765   2
 -10  -4   0 177.123 178.539   2
 -10  -4   1 599.799 260.792   2
 -10  -4   2 769.194 252.088   2
 -10  -4   3 3271.24 485.992   2
 -10  -4   4 825.580 281.509   2
 -10  -4   5 1220.85 305.027   2
 -10  -4   6-570.739 348.614   2
 -10  -4   7-186.737 298.979   2
 -10  -4   8 127.809 208.271   2
 -10  -4   9-4.46525 320.856   2
 -10  -4  10-568.269 380.960   2
 -10  -5  -3 546.059 184.836   2
 -10  -5  -2 941.497 253.222   2
 -10  -5  -1 1109.38 281.586   2
 -10  -5   0 2556.17 417.395   2
 -10  -5   1 808.047 227.854   2
 -10  -5   2 1069.33 317.742   2
 -10  -5   3 14.7241 165.165   2
 -10  -5   4 458.000 259.622   2
 -10  -5   5 1358.25 361.191   2
 -10  -5   6 117.260 248.075   2
 -10  -5   7 1131.62 372.893   2
 -10  -5   8 508.225 325.779   2
 -10  -5   9 201.721 205.775   2
  10   6  -3 3951.92 444.440   4
 -10  -6  -2 26.2676 130.029   2
  10   6  -2 198.044 146.819   4
 -10  -6  -1 10268.9 782.875   2
 -10  -6   0 452.561 204.232   2
 -10  -6   1 10976.0 872.029   2
 -10  -6   2-9.33774 164.215   2
 -10  -6   3 4257.07 574.169   2
 -10  -6   4 759.715 319.313   2
 -10  -6   5 9554.43 905.109   2
 -10  -6   6 43.0239 192.437   2
 -10  -6   7 6150.39 761.934   2
 -10  -6   8-210.064 203.465   2
  10   7  -5-40.4202 132.226   4
  10   7  -4 289.258 190.342   4
  10   7  -3 202.467 139.344   4
 -10  -7  -2 493.985 198.392   2
 -10  -7  -1 840.073 252.309   2
 -10  -7   0 3009.16 449.933   2
 -10  -7   1 629.749 240.209   2
 -10  -7   2 185.345 173.247   2
 -10  -7   3 1.19523 193.410   2
 -10  -7   4 158.191 226.919   2
 -10  -7   5 292.361 228.628   2
 -10  -7   6 1364.99 368.044   2
  10   8  -7 3548.55 503.343   4
  10   8  -6 497.971 234.076   4
  10   8  -5 4622.36 554.743   4
  10   8  -4 1019.45 268.385   4
  10   8  -3 1912.41 340.445   4
 -10  -8  -1 4726.76 536.252   2
 -10  -8   0 433.007 207.021   2
 -10   8   1 5503.70 596.084   4
 -10  -8   1 4378.36 558.086   2
 -10  -8   2 531.803 213.175   2
 -10  -8   3 2234.36 445.662   2
 -10  -8   4 1120.21 353.796   2
 -10  -8   5 6035.48 727.481   2
  10   9  -6 18.8386 163.510   4
  10   9  -5 645.618 220.363   4
  10   9  -4-2.73821 155.453   4
 -10  -9  -1 107.864 126.261   2
 -10  -9   0 279.190 185.489   2
 -10  -9   1 107.129 164.408   2
 -10   9   2 649.146 257.099   4
 -10  -9   2 338.437 175.608   2
 -10  -9   3 1129.90 339.212   2
  10  10  -5 3419.40 488.049   4
  10  10  -4-133.792 204.722   4
 -10 -10   0 2592.43 429.373   2
 -10 -10   1 2309.26 410.356   2
 -10  10   2 75.1882 177.213   4
 -10  10   3 3049.98 516.731   4
 -11   0   0 148.627 147.215   2
 -11   0   1 53.3731 203.828   2
 -11   0   2 354.000 237.466   2
 -11   0   3 29.5649 206.215   2
 -11   0   4 112.187 206.102   2
 -11   0   5 60.8842 245.358   2
 -11   0   6 91.6197 242.170   2
 -11   0   7-56.8666 167.878   2
 -11   0   8-78.5876 216.903   2
 -11   0   9-160.033 239.053   2
 -11  -1  -2 90.2472 155.031   2
 -11  -1  -1 150.673 167.192   2
 -11  -1   0 343.088 212.579   2
 -11  -1   1 2.49661 152.432   2
 -11  -1   2-12.8309 179.106   2
 -11   1   2-52.2931 202.742   2
 -11  -1   3 2299.79 469.528   2
 -11   1   3 1715.31 425.665   2
 -11  -1   4 172.729 204.174   2
 -11   1   4 185.723 172.718   2
 -11  -1   5 5745.51 761.879   2
 -11   1   5 6610.32 807.225   2
 -11  -1   6-103.720 237.107   2
 -11   1   6 298.295 320.878   2
 -11  -1   7 1993.53 502.844   2
 -11   1   7 1934.92 481.703   2
 -11  -1   8 302.157 201.387   2
 -11   1   8 183.702 240.294   2
 -11  -1   9 306.074 247.934   2
 -11   1   9 336.563 283.080   2
 -11  -2  -3 4050.50 502.882   2
 -11  -2  -2 655.319 246.646   2
 -11  -2  -1 9609.28 835.728   2
 -11  -2   0 339.452 244.200   2
 -11  -2   1 10879.9 936.438   2
 -11  -2   2 392.501 224.835   2
 -11  -2   3 4323.09 636.345   2
 -11  -2   4 4920.62 700.128   2
 -11  -2   5 7219.72 870.867   2
 -11  -2   6 3203.35 596.827   2
 -11   2   6 2807.04 541.517   2
 -11   2   7 7783.35 907.838   2
 -11  -2   7 5957.01 803.535   2
 -11  -2   8 358.898 290.458   2
 -11   2   8 963.270 392.030   2
 -11  -3  -3 275.983 169.845   2
 -11  -3  -2 5448.85 586.834   2
 -11  -3  -1 189.457 163.667   2
 -11  -3   0 5167.09 618.820   2
 -11  -3   1 129.215 163.771   2
 -11  -3   2 6976.46 774.605   2
 -11  -3   3-98.3286 259.975   2
 -11  -3   4 851.698 372.270   2
 -11  -3   5 31.0010 179.814   2
 -11  -3   6 514.768 223.687   2
 -11  -3   7 92.7729 269.348   2
 -11  -3   8 1202.82 401.315   2
 -11  -4  -2 19.2556 137.633   2
 -11  -4  -1-89.9152 163.902   2
 -11  -4   0-259.845 178.403   2
 -11  -4   1 6.07330 200.374   2
 -11  -4   2 745.790 309.454   2
 -11  -4   3 657.421 325.009   2
 -11  -4   4 2905.84 533.845   2
 -11  -4   5 154.177 234.854   2
 -11  -4   6 1476.67 435.512   2
 -11  -4   7 902.411 355.118   2
 -11  -5  -2 227.721 122.025   2
 -11  -5  -1-110.044 121.499   2
 -11  -5   0 1520.92 354.584   2
 -11  -5   1 202.344 205.101   2
 -11  -5   2 27.8764 154.614   2
 -11  -5   3 1564.32 363.827   2
 -11  -5   4 3.32553 192.790   2
 -11  -5   5 5419.93 724.860   2
 -11  -5   6 650.038 285.794   2
 -11  -6  -1 1650.65 338.621   2
 -11  -6   0-291.376 230.974   2
 -11  -6   1 1180.63 305.409   2
 -11  -6   2-48.9255 173.752   2
 -11  -6   3 2986.60 509.670   2
 -11  -6   4-126.948 201.783   2
 -11  -6   5 2789.21 522.778   2
  11   7  -6 3875.28 505.179   4
  11   7  -5 4530.91 528.240   4
 -11  -7  -1 784.111 275.373   2
 -11  -7   0 1169.68 308.354   2
 -11  -7   1 337.479 193.126   2
 -11  -7   2 6390.33 712.397   2
 -11  -7   3 3180.62 524.574   2
 -11  -7   4 10975.8 990.860   2
  11   8  -6 859.299 296.409   4
 -11  -8   0-104.123 192.007   2
 -11  -8   1 1009.67 322.723   2
 -11  -8   2 125.847 170.260   2
 -11  -9   0 722.029 220.722   2
 -12   0   1 7575.51 838.881   2
 -12   0   2 73.3275 220.139   2
 -12   0   3 3716.97 626.785   2
 -12   0   4 789.884 368.851   2
 -12   0   5 4087.43 700.411   2
 -12  -1  -1 1335.13 345.629   2
 -12  -1   0 277.797 236.826   2
 -12  -1   1 2539.77 509.631   2
 -12  -1   2 325.985 246.595   2
 -12  -1   3 1252.38 411.556   2
 -12  -1   4 586.511 334.127   2
 -12   1   4 1532.95 502.449   2
 -12  -1   5 2692.70 574.717   2
 -12   1   5 3930.29 679.905   2
 -12  -2  -2 2405.76 427.892   2
 -12  -2  -1 5.74487 162.305   2
 -12  -2   0 395.777 174.887   2
 -12  -2   1-211.558 272.975   2
 -12  -2   2 2257.26 476.812   2
 -12  -2   3 316.686 287.644   2
 -12  -2   4 346.434 268.698   2
 -12  -2   5 113.890 235.207   2
 -12  -3  -2 1161.57 299.643   2
 -12  -3  -1 1200.15 322.445   2
 -12  -3   0-123.465 185.051   2
 -12  -3   1 1926.48 444.965   2
 -12  -3   2 920.786 342.048   2
 -12  -3   3 4269.49 682.344   2
 -12  -3   4 1862.57 471.680   2
 -12  -3   5 2922.52 557.684   2
 -12  -4  -1 887.869 259.428   2
 -12  -4   0 392.885 266.242   2
 -12  -4   1 1542.02 398.703   2
 -12  -4   2-198.661 252.506   2
 -12  -4   3 1777.14 407.978   2
 -12  -4   4 231.760 243.103   2
 -12  -5  -1 105.281 181.322   2
 -12  -5   0 1431.41 376.373   2
 -12  -5   1 221.925 250.706   2
 -12  -5   2 1309.55 388.047   2
 -12  -5   3 317.311 304.085   2
 -12  -6   0 1708.02 387.413   2
 -12  -6   1 268.698 215.508   2
 -12  -6   2 4025.58 612.903   2
 -12  -7   0 103.869 161.292   2
 -12  -7   1-471.045 276.943   2
 -13  -1   0 4203.24 637.174   2
 -13  -1   1 363.369 225.651   2
 -13  -1   2 1543.46 457.613   2
 -13  -2  -1 1155.68 349.237   2
 -13  -2   0 3635.81 583.290   2
 -13  -2   1 610.054 270.794   2
 -13  -3  -1-8.95394 209.204   2
 -13  -3   0 1075.82 307.676   2
 -13  -3   1 167.307 214.502   2
 -13  -4   0 326.685 199.060   2
;
_shelx_hkl_checksum              94223
loop_
_space_group_symop_operation_xyz
'x, y, z'
'-x+1/2, -y, z+1/2'
'x+1/2, -y+1/2, -z+1/2'
'-x, y+1/2, -z'
'-x, -y, -z'
'x-1/2, y, -z-1/2'
'-x-1/2, y-1/2, z-1/2'
'x, -y-1/2, z'
loop_
_atom_site_label
_atom_site_type_symbol
_atom_site_fract_x
_atom_site_fract_y
_atom_site_fract_z
_atom_site_U_iso_or_equiv
_atom_site_adp_type
_atom_site_occupancy
_atom_site_site_symmetry_order
_atom_site_calc_flag
_atom_site_refinement_flags_posn
_atom_site_refinement_flags_adp
_atom_site_refinement_flags_occupancy
Br1 Br 0.18090(4) 0.7500 0.35998(3) 0.02840(14) Uani 1 2 d S T P
Mn1 Mn 0.12247(6) 0.7500 0.58124(4) 0.01456(15) Uani 1 2 d S T P
N11 N -0.0270(2) 0.65188(14) 0.56159(16) 0.0147(5) Uani 1 1 d . . .
O4 O 0.3433(2) 0.61939(14) 0.59960(18) 0.0321(5) Uani 1 1 d . . .
C14 C -0.1767(3) 0.53925(18) 0.5843(2) 0.0192(6) Uani 1 1 d . . .
H14 H -0.2168 0.4841 0.6105 0.023 Uiso 1 1 calc R U .
C3 C 0.2530(3) 0.66705(18) 0.5919(2) 0.0193(6) Uani 1 1 d . . .
N12 N -0.1386(2) 0.66862(14) 0.49570(16) 0.0164(5) Uani 1 1 d . . .
C13 C -0.2301(3) 0.60164(17) 0.5083(2) 0.0174(6) Uani 1 1 d . . .
C17 C -0.1452(4) 0.7500 0.4233(3) 0.0173(8) Uani 1 2 d S T P
H17A H -0.2289 0.7500 0.3782 0.021 Uiso 1 2 calc R U P
H17B H -0.0709 0.7500 0.3667 0.021 Uiso 1 2 calc R U P
C16 C 0.0436(3) 0.52732(18) 0.6980(2) 0.0222(6) Uani 1 1 d . . .
H16A H 0.1306 0.5234 0.6604 0.033 Uiso 1 1 calc R U .
H16B H 0.0124 0.4656 0.7173 0.033 Uiso 1 1 calc R U .
H16C H 0.0505 0.5636 0.7701 0.033 Uiso 1 1 calc R U .
C15 C -0.0519(3) 0.57194(17) 0.61608(19) 0.0161(6) Uani 1 1 d . . .
C18 C -0.3595(3) 0.6034(2) 0.4438(2) 0.0252(7) Uani 1 1 d . . .
H18A H -0.4107 0.6570 0.4686 0.038 Uiso 1 1 calc R U .
H18B H -0.4093 0.5475 0.4614 0.038 Uiso 1 1 calc R U .
H18C H -0.3428 0.6069 0.3591 0.038 Uiso 1 1 calc R U .
O2 O 0.0991(3) 0.7500 0.8382(2) 0.0325(8) Uani 1 2 d S T P
C1 C 0.1052(4) 0.7500 0.7377(3) 0.0187(8) Uani 1 2 d S T P
loop_
_atom_site_aniso_label
_atom_site_aniso_U_11
_atom_site_aniso_U_22
_atom_site_aniso_U_33
_atom_site_aniso_U_23
_atom_site_aniso_U_13
_atom_site_aniso_U_12
Br1 0.0283(3) 0.0404(3) 0.01652(17) 0.000 0.00670(16) 0.000
Mn1 0.0130(3) 0.0168(3) 0.0138(2) 0.000 -0.0002(2) 0.000
N11 0.0137(13) 0.0164(11) 0.0141(9) -0.0006(8) 0.0000(8) 0.0006(10)
O4 0.0205(13) 0.0267(12) 0.0491(12) -0.0010(9) -0.0022(10) 0.0065(10)
C14 0.0208(17) 0.0152(13) 0.0216(11) -0.0036(10) 0.0067(11) -0.0054(13)
C3 0.0170(17) 0.0189(15) 0.0220(12) -0.0021(10) 0.0012(11) -0.0042(13)
N12 0.0160(13) 0.0160(11) 0.0172(9) -0.0023(8) -0.0024(9) -0.0002(10)
C13 0.0156(15) 0.0185(13) 0.0182(11) -0.0072(10) 0.0013(10) -0.0021(13)
C17 0.019(2) 0.0190(19) 0.0136(14) 0.000 -0.0042(14) 0.000
C16 0.0241(17) 0.0214(14) 0.0212(12) 0.0056(10) 0.0044(11) 0.0015(13)
C15 0.0169(15) 0.0154(13) 0.0161(10) -0.0025(9) 0.0048(10) 0.0012(12)
C18 0.0204(17) 0.0260(16) 0.0291(13) -0.0060(11) -0.0045(12) -0.0047(14)
O2 0.049(2) 0.0317(16) 0.0166(12) 0.000 -0.0004(12) 0.000
C1 0.015(2) 0.0154(19) 0.0259(18) 0.000 -0.0040(15) 0.000
loop_
_atom_type_symbol
_atom_type_description
_atom_type_scat_dispersion_real
_atom_type_scat_dispersion_imag
_atom_type_scat_source
C C 0.0033 0.0016 'International Tables Vol C Tables 4.2.6.8 and 6.1.1.4'
H H 0.0000 0.0000 'International Tables Vol C Tables 4.2.6.8 and 6.1.1.4'
Br Br -0.2901 2.4595 'International Tables Vol C Tables 4.2.6.8 and 6.1.1.4'
Mn Mn 0.3368 0.7283 'International Tables Vol C Tables 4.2.6.8 and 6.1.1.4'
N N 0.0061 0.0033 'International Tables Vol C Tables 4.2.6.8 and 6.1.1.4'
O O 0.0106 0.0060 'International Tables Vol C Tables 4.2.6.8 and 6.1.1.4'
loop_
_geom_angle_atom_site_label_1
_geom_angle_atom_site_label_2
_geom_angle_atom_site_label_3
_geom_angle
_geom_angle_site_symmetry_1
_geom_angle_site_symmetry_3
C1 Mn1 C3 90.25(12) . 8_575
C1 Mn1 C3 90.25(12) . .
C3 Mn1 C3 84.83(17) 8_575 .
C1 Mn1 N11 92.06(10) . .
C3 Mn1 N11 177.56(10) 8_575 .
C3 Mn1 N11 94.38(10) . .
C1 Mn1 N11 92.06(10) . 8_575
C3 Mn1 N11 94.38(10) 8_575 8_575
C3 Mn1 N11 177.56(10) . 8_575
N11 Mn1 N11 86.32(11) . 8_575
C1 Mn1 Br1 172.39(13) . .
C3 Mn1 Br1 84.14(8) 8_575 .
C3 Mn1 Br1 84.14(8) . .
N11 Mn1 Br1 93.49(5) . .
N11 Mn1 Br1 93.49(5) 8_575 .
C15 N11 N12 104.6(2) . .
C15 N11 Mn1 132.77(17) . .
N12 N11 Mn1 121.87(15) . .
C13 C14 C15 107.0(2) . .
C13 C14 H14 126.5 . .
C15 C14 H14 126.5 . .
O4 C3 Mn1 174.8(2) . .
C13 N12 N11 112.0(2) . .
C13 N12 C17 128.4(2) . .
N11 N12 C17 119.6(2) . .
N12 C13 C14 106.1(2) . .
N12 C13 C18 122.1(2) . .
C14 C13 C18 131.8(3) . .
N12 C17 N12 110.3(3) . 8_575
N12 C17 H17A 109.6 . .
N12 C17 H17A 109.6 8_575 .
N12 C17 H17B 109.6 . .
N12 C17 H17B 109.6 8_575 .
H17A C17 H17B 108.1 . .
C15 C16 H16A 109.5 . .
C15 C16 H16B 109.5 . .
H16A C16 H16B 109.5 . .
C15 C16 H16C 109.5 . .
H16A C16 H16C 109.5 . .
H16B C16 H16C 109.5 . .
N11 C15 C14 110.2(2) . .
N11 C15 C16 123.1(2) . .
C14 C15 C16 126.7(2) . .
C13 C18 H18A 109.5 . .
C13 C18 H18B 109.5 . .
H18A C18 H18B 109.5 . .
C13 C18 H18C 109.5 . .
H18A C18 H18C 109.5 . .
H18B C18 H18C 109.5 . .
O2 C1 Mn1 177.5(4) . .
loop_
_geom_bond_atom_site_label_1
_geom_bond_atom_site_label_2
_geom_bond_distance
_geom_bond_site_symmetry_2
Br1 Mn1 2.5871(6) .
Mn1 C1 1.789(4) .
Mn1 C3 1.796(3) 8_575
Mn1 C3 1.796(3) .
Mn1 N11 2.095(2) .
Mn1 N11 2.095(2) 8_575
N11 C15 1.346(3) .
N11 N12 1.376(3) .
O4 C3 1.151(3) .
C14 C13 1.367(4) .
C14 C15 1.397(4) .
C14 H14 0.9500 .
N12 C13 1.354(3) .
N12 C17 1.448(3) .
C13 C18 1.500(4) .
C17 N12 1.448(3) 8_575
C17 H17A 0.9900 .
C17 H17B 0.9900 .
C16 C15 1.492(3) .
C16 H16A 0.9800 .
C16 H16B 0.9800 .
C16 H16C 0.9800 .
C18 H18A 0.9800 .
C18 H18B 0.9800 .
C18 H18C 0.9800 .
O2 C1 1.146(4) .
loop_
_geom_torsion_atom_site_label_1
_geom_torsion_atom_site_label_2
_geom_torsion_atom_site_label_3
_geom_torsion_atom_site_label_4
_geom_torsion
_geom_torsion_site_symmetry_4
C15 N11 N12 C13 0.0(2) .
Mn1 N11 N12 C13 -171.23(15) .
C15 N11 N12 C17 -179.2(2) .
Mn1 N11 N12 C17 9.6(3) .
N11 N12 C13 C14 -0.2(3) .
C17 N12 C13 C14 178.9(2) .
N11 N12 C13 C18 -178.9(2) .
C17 N12 C13 C18 0.2(4) .
C15 C14 C13 N12 0.3(3) .
C15 C14 C13 C18 178.9(2) .
C13 N12 C17 N12 118.3(3) 8_575
N11 N12 C17 N12 -62.6(4) 8_575
N12 N11 C15 C14 0.2(2) .
Mn1 N11 C15 C14 170.05(16) .
N12 N11 C15 C16 -179.8(2) .
Mn1 N11 C15 C16 -10.0(3) .
C13 C14 C15 N11 -0.4(3) .
C13 C14 C15 C16 179.7(2) .
