#------------------------------------------------------------------------------
#$Date: 2019-11-26 04:11:58 +0200 (Tue, 26 Nov 2019) $
#$Revision: 242581 $
#$URL: file:///home/coder/svn-repositories/cod/cif/4/13/26/4132634.cif $
#------------------------------------------------------------------------------
#
# This file is available in the Crystallography Open Database (COD),
# http://www.crystallography.net/
#
# All data on this site have been placed in the public domain by the
# contributors.
#
data_4132634
loop_
_publ_author_name
'Lee, Seungkyu'
'B\"urgi, Hans-Beat'
'Alshmimri, Sultan A.'
'Yaghi, Omar M.'
_publ_section_title
;
 Impact of Disordered Guest-Framework Interactions on the Crystallography
 of Metal-Organic Frameworks.
;
_journal_issue                   28
_journal_name_full               'Journal of the American Chemical Society'
_journal_page_first              8958
_journal_page_last               8964
_journal_paper_doi               10.1021/jacs.8b05271
_journal_volume                  140
_journal_year                    2018
_chemical_formula_moiety         '0.17(C792 H384 O192 Zr36)'
_chemical_formula_sum            'C132 H64 O27 Zr6'
_chemical_formula_weight         2629.15
_chemical_name_systematic        MOF-1004_100K_DMf
_space_group_crystal_system      cubic
_space_group_IT_number           223
_space_group_name_Hall           '-P 4n 2 3'
_space_group_name_H-M_alt        'P m -3 n'
_atom_sites_solution_hydrogens   mixed
_atom_sites_solution_primary     direct
_audit_creation_date             2018-04-23
_audit_creation_method
;
Olex2 1.2
(compiled 2017.08.10 svn.r3458 for OlexSys, GUI svn.r5381)
;
_cell_angle_alpha                90
_cell_angle_beta                 90
_cell_angle_gamma                90
_cell_formula_units_Z            6
_cell_length_a                   40.561(6)
_cell_length_b                   40.561(6)
_cell_length_c                   40.561(6)
_cell_measurement_reflns_used    6263
_cell_measurement_temperature    100.15
_cell_measurement_theta_max      19.90
_cell_measurement_theta_min      2.252
_cell_volume                     66731(17)
_computing_cell_refinement       'SAINT V8.38A (?, 2016)'
_computing_data_reduction        'SAINT V8.38A (?, 2016)'
_computing_molecular_graphics    'Olex2 (Dolomanov et al., 2009)'
_computing_publication_material  'Olex2 (Dolomanov et al., 2009)'
_computing_structure_refinement  'ShelXL (Sheldrick, 2015)'
_computing_structure_solution    'ShelXS (Sheldrick, 2008)'
_diffrn_ambient_temperature      100.15
_diffrn_detector_area_resol_mean 10.42
_diffrn_measured_fraction_theta_full 0.996
_diffrn_measured_fraction_theta_max 0.996
_diffrn_measurement_device_type  'Bruker Photon 2'
_diffrn_measurement_method       '\f and \w scans'
_diffrn_radiation_monochromator  'silicon 111'
_diffrn_radiation_type           synchrotron
_diffrn_radiation_wavelength     1.1271
_diffrn_reflns_av_R_equivalents  0.0714
_diffrn_reflns_av_unetI/netI     0.0260
_diffrn_reflns_Laue_measured_fraction_full 0.996
_diffrn_reflns_Laue_measured_fraction_max 0.996
_diffrn_reflns_limit_h_max       21
_diffrn_reflns_limit_h_min       -22
_diffrn_reflns_limit_k_max       22
_diffrn_reflns_limit_k_min       -22
_diffrn_reflns_limit_l_max       22
_diffrn_reflns_limit_l_min       -22
_diffrn_reflns_number            41442
_diffrn_reflns_point_group_measured_fraction_full 0.996
_diffrn_reflns_point_group_measured_fraction_max 0.996
_diffrn_reflns_theta_full        18.342
_diffrn_reflns_theta_max         18.342
_diffrn_reflns_theta_min         2.252
_diffrn_source
;
Advanced Light Source, station 11.3.1
;
_diffrn_standards_number         0
_exptl_absorpt_coefficient_mu    0.572
_exptl_absorpt_correction_T_max  0.7451
_exptl_absorpt_correction_T_min  0.6503
_exptl_absorpt_correction_type   multi-scan
_exptl_absorpt_process_details
'SADABS-2016/2 (Bruker,2016/2) was used for absorption correction. wR2(int) was 0.1447 before and 0.0603 after correction. The Ratio of minimum to maximum transmission is 0.8728. The \l/2 correction factor is Not present.'
_exptl_crystal_colour            clear
_exptl_crystal_colour_lustre     clear
_exptl_crystal_density_diffrn    0.393
_exptl_crystal_description       'The crystal has rhombic dodecahedron shape'
_exptl_crystal_F_000             7872
_exptl_crystal_preparation
'synthesized crystals were evacuated and charged with DMF.'
_exptl_crystal_recrystallization_method 'See supporting information'
_exptl_crystal_size_max          0.1
_exptl_crystal_size_mid          0.1
_exptl_crystal_size_min          0.1
_platon_squeeze_details
;
TITL 100K_plbg_135 in Pm-3n #223
CELL   40.5610   40.5610   40.5610     90.00     90.00     90.00
SPGR Pm-3n
# Solvent Accessible Volume =     54326
# Electrons Found in S.A.V. =      7846
# Note: Atoms in Void are Labelled as Cxxx and Qxxx for all Others
C101 1.000 0.181 0.390 !       1.05 eA-3
C102 0.500 0.140 0.125 !       0.91 eA-3
C103 0.852 0.328 0.503 !       0.87 eA-3
C104 0.250 0.250 0.250 !       0.80 eA-3
C105 0.500 0.998 0.078 !       0.79 eA-3
Q106 0.750 0.548 0.048 !       0.77 eA-3
C107 0.500 0.628 0.046 !       0.72 eA-3
C108 1.000 0.501 0.336 !       0.71 eA-3
C109 1.000 0.497 0.375 !       0.70 eA-3
C110 0.092 0.406 0.252 !       0.67 eA-3
C111 0.272 0.949 0.429 !       0.55 eA-3
C112 0.619 0.117 0.252 !       0.51 eA-3
C113 0.757 1.000 0.414 !       0.50 eA-3
;
_refine_diff_density_max         0.226
_refine_diff_density_min         -0.117
_refine_diff_density_rms         0.022
_refine_ls_extinction_method     none
_refine_ls_goodness_of_fit_ref   1.198
_refine_ls_hydrogen_treatment    constr
_refine_ls_matrix_type           full
_refine_ls_number_parameters     190
_refine_ls_number_reflns         1121
_refine_ls_number_restraints     143
_refine_ls_restrained_S_all      1.153
_refine_ls_R_factor_all          0.1146
_refine_ls_R_factor_gt           0.0660
_refine_ls_shift/su_max          0.000
_refine_ls_shift/su_mean         0.000
_refine_ls_structure_factor_coef Fsqd
_refine_ls_weighting_details
'w=1/[\s^2^(Fo^2^)+(0.1492P)^2^+144.6241P] where P=(Fo^2^+2Fc^2^)/3'
_refine_ls_weighting_scheme      calc
_refine_ls_wR_factor_gt          0.1853
_refine_ls_wR_factor_ref         0.2920
_reflns_Friedel_coverage         0.000
_reflns_number_gt                664
_reflns_number_total             1121
_reflns_threshold_expression     'I > 2\s(I)'
_iucr_refine_instructions_details
;
TITL 100K_plbg_135 in Pm-3n #223
    platon_sq.res
    created by SHELXL-2017/1 at 15:44:22 on 23-Apr-2018
REM reset to Pm-3n #223
CELL 1.1271 40.5611 40.5611 40.5611 90 90 90
ZERR 6 0.0063 0.0063 0.0063 0 0 0
LATT 1
SYMM 0.5-Y,0.5+X,0.5+Z
SYMM -X,-Y,+Z
SYMM 0.5+Y,0.5-X,0.5+Z
SYMM 0.5+X,0.5-Z,0.5+Y
SYMM +X,-Y,-Z
SYMM 0.5+X,0.5+Z,0.5-Y
SYMM 0.5+Z,0.5+Y,0.5-X
SYMM -X,+Y,-Z
SYMM 0.5-Z,0.5+Y,0.5+X
SYMM +Z,+X,+Y
SYMM +Y,+Z,+X
SYMM -Y,-Z,+X
SYMM +Z,-X,-Y
SYMM -Y,+Z,-X
SYMM -Z,-X,+Y
SYMM -Z,+X,-Y
SYMM +Y,-Z,-X
SYMM 0.5+Y,0.5+X,0.5-Z
SYMM 0.5-Y,0.5-X,0.5-Z
SYMM 0.5-X,0.5+Z,0.5+Y
SYMM 0.5-X,0.5-Z,0.5-Y
SYMM 0.5+Z,0.5-Y,0.5+X
SYMM 0.5-Z,0.5-Y,0.5-X
SFAC C H O Zr
DISP C 0.01 0.005 38.712
DISP H -0 0 0.642
DISP O 0.03 0.017 127.921
DISP Zr -0.683 1.321 9169.787
UNIT 792 384 162 36
EQIV $1 +X,1-Y,+Z
EQIV $2 -0.5+Y,0.5-X,0.5-Z
DFIX 1.47 C7 C8
DFIX 1.47 C13 C14
DFIX -1.2 C19 C20
DFIX 1.16 0.04 C14 C15
DFIX 1.47 0.04 C15 C16
DFIX 1.16 C8 C9
DFIX 1.47 C10 C9
DFIX 1.47 C9 C10
DFIX -1.3 C10 C11
DFIX 1.45 0.01 C1 C2
DFIX -2.1 Zr1_$2 O5
SADI C6 C8 C8 C5
SADI C4 C1 C1 C3
SADI C16 C17 C18 C19
SADI C12 C10 C11 C13
DANG 2.4 C17 C19
DANG 2.4 C12 C11
DANG 2.8 C12 C13
DANG 2.4 C17 C17_$1
DANG 2.4 C16 C18
DANG 2.8 C16 C19
DANG 2.4 C10 C13
DANG 2.4 O5 O5_$1
FLAT O5 C20 C19 O5_$1
FLAT 0.2 C11 C14 C15 C16
FLAT C16 C17 C18 C19
FLAT C12 C10 C11 C13
DELU C1 O3
DELU C8 C9
DELU O4 C1
DELU Zr2 O4
DELU Zr1 O3
DELU C1 C2
DELU Zr2 O1
DELU O5 Zr1
DELU C19 C20
SIMU 0.04 0.08 1.7 C4 C6 C7 C5 C3 C2
SIMU 0.04 0.08 1.7 C14 C15 C16 C17 C18 C19
SIMU 0.04 0.08 1.7 C1 C2
SIMU 0.04 0.08 1.7 C10 C11 C13 C12
RIGU C9 C8
ISOR O5
ISOR 0.05 0.1 C19 C20
EADP C9 C8

L.S. 5 0 188
PLAN  20
TEMP -173
BOND
ABIN
fmap 2 53
acta
REM <olex2.extras>
REM <HklSrc "%.\\platon_sq.hkl">
REM </olex2.extras>

WGHT    0.149200  144.624115
FVAR       0.02006
ZR1   4    0.043200    0.750000    0.456800    10.50000    0.30166    0.48342 =
         0.30166   -0.00814    0.01658   -0.00814
C20   1    0.245017    0.500000    0.103496    10.50000    0.44952    0.44995 =
         0.42806    0.00000    0.08575    0.00000
O4    3    0.031505    0.659992    0.469128    11.00000    0.32217    0.55593 =
         0.31602   -0.01506   -0.02805    0.02647
C14   1    0.189874    0.500000    0.263869    10.50000    0.62415    0.55432 =
         0.35380    0.00000    0.13121    0.00000
C11   1    0.161926    0.531415    0.306829    11.00000    0.74458    0.45498 =
         0.51508   -0.03403    0.23178   -0.03759
AFIX  43
H11   2    0.167229    0.551365    0.295764    11.00000   -1.20000
AFIX   0
C16   1    0.216262    0.500000    0.207156    10.50000    0.66895    0.44488 =
         0.33603    0.00000    0.10365    0.00000
C15   1    0.200590    0.500000    0.238687    10.50000    0.65182    0.50493 =
         0.36235    0.00000    0.09999    0.00000
C10   1    0.143546    0.530749    0.336001    11.00000    0.78958    0.46807 =
         0.55156   -0.01991    0.20283   -0.01959
C9    1    0.134348    0.561625    0.352668    11.00000    0.83161    0.61556 =
         0.41947   -0.05384    0.31250   -0.01204
ZR2   4    0.000000    0.688581    0.500000    10.25000    0.29309    0.46420 =
         0.36823    0.00000    0.00000    0.00000
O3    3    0.062678    0.705710    0.435703    11.00000    0.36266    0.45964 =
         0.26129    0.02830   -0.02464    0.01246
AFIX  66
C6    1    0.083797    0.594057    0.413966    11.00000    0.69627    0.58519 =
         0.51893    0.00203    0.15029    0.05999
AFIX  43
H6    2    0.081369    0.571051    0.417630    11.00000   -1.20000
AFIX  65
C7    1    0.104749    0.605365    0.389318    11.00000    0.68472    0.52708 =
         0.45736    0.00004    0.11728    0.09298
C5    1    0.108301    0.639025    0.383958    11.00000    0.65765    0.47579 =
         0.43871    0.03472    0.08785    0.02412
AFIX  43
H5    2    0.122621    0.646754    0.367112    11.00000   -1.20000
AFIX  65
C3    1    0.090902    0.661378    0.403245    11.00000    0.64225    0.49696 =
         0.43091    0.01005    0.08946    0.06040
AFIX  43
H3    2    0.093330    0.684383    0.399581    11.00000   -1.20000
AFIX  65
C2    1    0.069950    0.650070    0.427893    11.00000    0.63845    0.49584 =
         0.43362    0.01239    0.08990    0.10237
C4    1    0.066397    0.616410    0.433254    11.00000    0.68419    0.48305 =
         0.49170   -0.03786    0.13794    0.09235
AFIX  43
H4    2    0.052077    0.608681    0.450099    11.00000   -1.20000
AFIX   0
C1    1    0.052317    0.673055    0.449092    11.00000    0.54556    0.45392 =
         0.36393    0.10696    0.07219    0.12696
C12   1    0.135342    0.500000    0.351634    10.50000    0.78908    0.44673 =
         0.53365    0.00000    0.23440    0.00000
AFIX  43
H12   2    0.124460    0.499999    0.372374    10.50000   -1.20000
AFIX   0
C13   1    0.172101    0.500000    0.294942    10.50000    0.74183    0.46865 =
         0.49269    0.00000    0.22918    0.00000
C8    1    0.126039    0.581456    0.371619    11.00000    0.83161    0.61556 =
         0.41947   -0.05384    0.31250   -0.01204
O5    3    0.248250    0.468898    0.094716    11.00000    0.45851    0.35772 =
         0.49673    0.09186    0.06356    0.04219
C19   1    0.232021    0.500000    0.140856    10.50000    0.58727    0.41890 =
         0.38662    0.00000    0.04764    0.00000
C17   1    0.224619    0.529139    0.192349    11.00000    0.66928    0.41691 =
         0.35436   -0.03394    0.07462   -0.03491
AFIX  43
H17   2    0.224885    0.549224    0.204395    11.00000   -1.20000
AFIX   0
C18   1    0.232782    0.528300    0.158730    11.00000    0.63362    0.37609 =
         0.32455   -0.05277    0.05436   -0.04349
AFIX  43
H18   2    0.239055    0.548214    0.148116    11.00000   -1.20000
AFIX   0
O2    3    0.040398    0.714519    0.500000    10.50000    0.59908    0.36881 =
         0.25245    0.00000    0.00000    0.04276
O1    3    0.000000    0.726341    0.461663    10.50000    0.38789    0.54634 =
         0.24775   -0.02311    0.00000    0.00000
H2    2   10.064030   10.702280   10.500000    10.50000   -1.20000
HKLF 4




REM  100K_plbg_135 in Pm-3n #223
REM R1 =  0.0660 for     664 Fo > 4sig(Fo)  and  0.1146 for all    1121 data
REM    190 parameters refined using    143 restraints

END  
     
WGHT      0.1492    144.6575 

REM Highest difference peak  0.226,  deepest hole -0.117,  1-sigma level  0.022
Q1    1   0.0000  0.6976  0.5000  10.25000  0.05    0.23
Q2    1   0.0831  0.7066  0.5000  10.50000  0.05    0.11
Q3    1   0.2197  0.5000  0.0864  10.50000  0.05    0.07
Q4    1   0.2121  0.5000  0.0800  10.50000  0.05    0.07
Q5    1   0.0000  0.5000  0.5000  10.12500  0.05    0.07
Q6    1   0.1701  0.5000  0.3012  10.50000  0.05    0.07
Q7    1   0.0000  0.7234  0.4278  10.50000  0.05    0.06
Q8    1   0.0000  0.5000  0.4128  10.25000  0.05    0.06
Q9    1   0.0608  0.6126  0.5000  10.50000  0.05    0.06
Q10   1   0.1796  0.5000  0.3153  10.50000  0.05    0.06
Q11   1   0.1230  0.5000  0.1587  10.50000  0.05    0.06
Q12   1   0.0621  0.5000  0.2843  10.50000  0.05    0.06
Q13   1   0.0000  0.6179  0.3527  10.50000  0.05    0.06
Q14   1   0.0364  0.6539  0.4603  11.00000  0.05    0.05
Q15   1   0.3344  0.5000  0.4023  10.50000  0.05    0.05
Q16   1   0.1199  0.5610  0.5000  10.50000  0.05    0.05
Q17   1   0.4006  0.5000  0.4580  10.50000  0.05    0.05
Q18   1   0.2364  0.5000  0.5000  10.25000  0.05    0.05
Q19   1   0.1256  0.5000  0.3420  10.50000  0.05    0.05
Q20   1   0.2054  0.5000  0.1041  10.50000  0.05    0.05

  REM The information below was added by Olex2.
  REM
  REM R1 = 0.0660 for 664 Fo > 4sig(Fo) and 0.1146 for all 44533 data
  REM n/a parameters refined using n/a restraints
  REM Highest difference peak 0.23, deepest hole -0.12
  REM Mean Shift 0, Max Shift 0.000.

  REM +++ Tabular Listing of Refinement Information +++
  REM R1_all = 0.1146
  REM R1_gt = 0.0660
  REM wR_ref = 0.2920
  REM GOOF = 1.198
  REM Shift_max = 0.000
  REM Shift_mean = 0
  REM Reflections_all = 44533
  REM Reflections_gt = 664
  REM Parameters = n/a
  REM Hole = -0.12
  REM Peak = 0.23
  REM Flack = n/a

  
;
_cod_data_source_file            MOF-1004_100K_DMF.cif
_cod_data_source_block           MOF-1004_100K_DMF
_cod_original_cell_volume        66731(31)
_cod_database_code               4132634
_shelx_shelxl_version_number     2017/1
_shelx_space_group_comment
;
The symmetry employed for this shelxl refinement is uniquely defined
by the following loop, which should always be used as a source of
symmetry information in preference to the above space-group names.
They are only intended as comments.
;
_olex2_refinement_description
;
1. Fixed Uiso
 At 1.2 times of:
  All C(H) groups, All O(H) groups
2. Restrained distances
 C7-C8
 1.47 with sigma of 0.02
 C13-C14
 1.47 with sigma of 0.02
 C19-C20
 -1.2 with sigma of 0.02
 C14-C15
 1.16 with sigma of 0.04
 C15-C16
 1.47 with sigma of 0.04
 C8-C9
 1.16 with sigma of 0.02
 C10-C9
 1.47 with sigma of 0.02
 C9-C10
 1.47 with sigma of 0.02
 C10-C11
 -1.3 with sigma of 0.02
 C1-C2
 1.45 with sigma of 0.01
 Zr1_$2-O5
 -2.1 with sigma of 0.02
 C17-C19
 2.4 with sigma of 0.04
 C12-C11
 2.4 with sigma of 0.04
 C12-C13
 2.8 with sigma of 0.04
 C17-C17_$1
 2.4 with sigma of 0.04
 C16-C18
 2.4 with sigma of 0.04
 C16-C19
 2.8 with sigma of 0.04
 C10-C13
 2.4 with sigma of 0.04
 O5-O5_$1
 2.4 with sigma of 0.04
 C6-C8 \\sim C8-C5
 with sigma of 0.02
 C4-C1 \\sim C1-C3
 with sigma of 0.02
 C16-C17 \\sim C18-C19
 with sigma of 0.02
 C12-C10 \\sim C11-C13
 with sigma of 0.02
3. Restrained planarity
 O5, C20, C19, O5_$1
 with sigma of 0.1
 C11, C14, C15, C16
 with sigma of 0.2
 C16, C17, C18, C19
 with sigma of 0.1
 C12, C10, C11, C13
 with sigma of 0.1
4. Rigid bond restraints
 C1, O3
 with sigma for 1-2 distances of 0.01 and sigma for 1-3 distances of 0.01
 C8, C9
 with sigma for 1-2 distances of 0.01 and sigma for 1-3 distances of 0.01
 O4, C1
 with sigma for 1-2 distances of 0.01 and sigma for 1-3 distances of 0.01
 Zr2, O4
 with sigma for 1-2 distances of 0.01 and sigma for 1-3 distances of 0.01
 Zr1, O3
 with sigma for 1-2 distances of 0.01 and sigma for 1-3 distances of 0.01
 C1, C2
 with sigma for 1-2 distances of 0.01 and sigma for 1-3 distances of 0.01
 Zr2, O1
 with sigma for 1-2 distances of 0.01 and sigma for 1-3 distances of 0.01
 O5, Zr1
 with sigma for 1-2 distances of 0.01 and sigma for 1-3 distances of 0.01
 C19, C20
 with sigma for 1-2 distances of 0.01 and sigma for 1-3 distances of 0.01
5. Uiso/Uaniso restraints and constraints
C4 \\sim C6 \\sim C7 \\sim C5 \\sim C3 \\sim C2: within 1.7A with sigma of 0.04
and sigma for terminal atoms of 0.08
C14 \\sim C15 \\sim C16 \\sim C17 \\sim C18 \\sim C19: within 1.7A with sigma
of 0.04 and sigma for terminal atoms of 0.08
C1 \\sim C2: within 1.7A with sigma of 0.04 and sigma for terminal atoms of 0.08
C10 \\sim C11 \\sim C13 \\sim C12: within 1.7A with sigma of 0.04 and sigma for
terminal atoms of 0.08
Uanis(O5) \\sim Ueq: with sigma of 0.1 and sigma for terminal atoms of 0.2
Uanis(C19) \\sim Ueq, Uanis(C20) \\sim Ueq: with sigma of 0.05 and sigma for
terminal atoms of 0.1
Uanis(C9) = Uanis(C8)
6. Rigid body (RIGU) restrains
 C9, C8
 with sigma for 1-2 distances of 0.004 and sigma for 1-3 distances of 0.004
7. Others
 Fixed X: H2(0.06403)
 Fixed Y: H2(0.70228)
 Fixed Z: H2(0.5)
8.a Aromatic/amide H refined with riding coordinates:
 C11(H11), C6(H6), C5(H5), C3(H3), C4(H4), C12(H12), C17(H17), C18(H18)
8.b Fitted hexagon refined as free rotating group:
 C6(C7,C5,C3,C2,C4)
;
_shelx_fab_file
;
 0 2 2 542.80 0.00
 2 2 2 -488.12 0.00
 0 1 3 -160.47 0.00
 0 2 3 -467.24 0.00
 1 2 3 -9.58 0.00
 0 3 3 -70.28 0.00
 2 3 3 16.83 0.00
 0 0 4 572.07 0.00
 0 1 4 -171.80 0.00
 1 1 4 -76.72 0.00
 0 2 4 32.98 0.00
 1 2 4 69.80 0.00
 2 2 4 17.43 0.00
 0 3 4 459.93 0.00
 1 3 4 -67.98 0.00
 2 3 4 160.04 0.00
 3 3 4 7.93 0.00
 0 4 4 -676.72 0.00
 2 4 4 24.48 0.00
 4 4 4 352.45 0.00
 0 1 5 -90.97 0.00
 0 2 5 200.86 0.00
 1 2 5 -179.35 0.00
 0 3 5 143.39 0.00
 1 3 5 -126.02 0.00
 2 3 5 -1.03 0.00
 0 4 5 -21.99 0.00
 1 4 5 225.65 0.00
 2 4 5 -49.65 0.00
 3 4 5 -43.52 0.00
 0 5 5 276.59 0.00
 2 5 5 3.36 0.00
 4 5 5 -29.69 0.00
 0 0 6 228.07 0.00
 0 1 6 -6.66 0.00
 1 1 6 -72.17 0.00
 0 2 6 196.69 0.00
 1 2 6 -139.46 0.00
 2 2 6 46.77 0.00
 0 3 6 -81.08 0.00
 1 3 6 -28.71 0.00
 2 3 6 -193.48 0.00
 3 3 6 83.05 0.00
 0 4 6 -157.80 0.00
 1 4 6 61.98 0.00
 2 4 6 -75.10 0.00
 3 4 6 150.00 0.00
 4 4 6 -233.63 0.00
 0 5 6 -5.93 0.00
 1 5 6 3.22 0.00
 2 5 6 -75.09 0.00
 3 5 6 127.98 0.00
 4 5 6 -40.84 0.00
 5 5 6 118.44 0.00
 0 6 6 198.32 0.00
 2 6 6 -63.65 0.00
 4 6 6 -7.80 0.00
 6 6 6 -7.24 0.00
 0 1 7 33.40 0.00
 0 2 7 140.76 0.00
 1 2 7 92.04 0.00
 0 3 7 -121.22 0.00
 1 3 7 90.11 0.00
 2 3 7 -3.13 0.00
 0 4 7 11.17 0.00
 1 4 7 -24.11 0.00
 2 4 7 103.73 0.00
 3 4 7 123.19 0.00
 0 5 7 -79.54 0.00
 1 5 7 2.11 0.00
 2 5 7 7.71 0.00
 3 5 7 5.40 0.00
 4 5 7 -57.96 0.00
 0 6 7 112.30 0.00
 1 6 7 18.25 0.00
 2 6 7 -36.23 0.00
 3 6 7 -29.77 0.00
 4 6 7 -48.96 0.00
 5 6 7 -18.59 0.00
 0 7 7 -77.68 0.00
 2 7 7 -22.65 0.00
 4 7 7 59.09 0.00
 6 7 7 6.14 0.00
 0 0 8 595.38 0.00
 0 1 8 -96.84 0.00
 1 1 8 -93.92 0.00
 0 2 8 -44.22 0.00
 1 2 8 -2.46 0.00
 2 2 8 105.26 0.00
 0 3 8 -61.97 0.00
 1 3 8 54.11 0.00
 2 3 8 -31.91 0.00
 3 3 8 -19.23 0.00
 0 4 8 -187.23 0.00
 1 4 8 17.81 0.00
 2 4 8 -73.35 0.00
 3 4 8 99.91 0.00
 4 4 8 -7.83 0.00
 0 5 8 -2.35 0.00
 1 5 8 23.34 0.00
 2 5 8 -3.06 0.00
 3 5 8 27.29 0.00
 4 5 8 4.24 0.00
 5 5 8 9.06 0.00
 0 6 8 -22.70 0.00
 1 6 8 -24.62 0.00
 2 6 8 15.32 0.00
 3 6 8 43.19 0.00
 4 6 8 -45.96 0.00
 5 6 8 -8.41 0.00
 6 6 8 -2.98 0.00
 0 7 8 -81.38 0.00
 1 7 8 31.25 0.00
 2 7 8 -12.41 0.00
 3 7 8 1.21 0.00
 4 7 8 36.63 0.00
 5 7 8 -6.20 0.00
 6 7 8 13.07 0.00
 7 7 8 -24.32 0.00
 0 8 8 96.82 0.00
 2 8 8 -36.85 0.00
 4 8 8 -65.83 0.00
 6 8 8 31.37 0.00
 8 8 8 9.77 0.00
 0 1 9 -98.85 0.00
 0 2 9 -32.62 0.00
 1 2 9 65.11 0.00
 0 3 9 -54.31 0.00
 1 3 9 36.41 0.00
 2 3 9 -133.73 0.00
 0 4 9 -17.04 0.00
 1 4 9 153.23 0.00
 2 4 9 16.88 0.00
 3 4 9 -46.83 0.00
 0 5 9 4.38 0.00
 1 5 9 27.76 0.00
 2 5 9 33.78 0.00
 3 5 9 -82.25 0.00
 4 5 9 -35.46 0.00
 0 6 9 31.53 0.00
 1 6 9 8.91 0.00
 2 6 9 -17.77 0.00
 3 6 9 5.14 0.00
 4 6 9 36.54 0.00
 5 6 9 -2.26 0.00
 0 7 9 -47.52 0.00
 1 7 9 11.69 0.00
 2 7 9 11.50 0.00
 3 7 9 -11.74 0.00
 4 7 9 31.24 0.00
 5 7 9 -24.49 0.00
 6 7 9 1.70 0.00
 0 8 9 56.93 0.00
 1 8 9 -2.74 0.00
 2 8 9 26.37 0.00
 3 8 9 17.82 0.00
 4 8 9 0.98 0.00
 5 8 9 -29.32 0.00
 6 8 9 24.52 0.00
 7 8 9 -4.99 0.00
 0 9 9 -75.20 0.00
 2 9 9 -1.02 0.00
 4 9 9 22.18 0.00
 6 9 9 -4.52 0.00
 8 9 9 5.33 0.00
 0 0 10 24.68 0.00
 0 1 10 9.04 0.00
 1 1 10 -3.26 0.00
 0 2 10 -26.26 0.00
 1 2 10 9.85 0.00
 2 2 10 -2.73 0.00
 0 3 10 9.47 0.00
 1 3 10 -8.11 0.00
 2 3 10 -31.47 0.00
 3 3 10 5.05 0.00
 0 4 10 -37.22 0.00
 1 4 10 -45.43 0.00
 2 4 10 27.53 0.00
 3 4 10 46.14 0.00
 4 4 10 87.43 0.00
 0 5 10 -4.14 0.00
 1 5 10 11.21 0.00
 2 5 10 -48.18 0.00
 3 5 10 29.15 0.00
 4 5 10 -22.22 0.00
 5 5 10 47.02 0.00
 0 6 10 -70.62 0.00
 1 6 10 31.15 0.00
 2 6 10 -37.95 0.00
 3 6 10 -88.88 0.00
 4 6 10 0.71 0.00
 5 6 10 3.78 0.00
 6 6 10 24.02 0.00
 0 7 10 8.55 0.00
 1 7 10 16.88 0.00
 2 7 10 4.68 0.00
 3 7 10 -22.25 0.00
 4 7 10 9.99 0.00
 5 7 10 11.02 0.00
 6 7 10 2.01 0.00
 7 7 10 14.19 0.00
 0 8 10 -35.08 0.00
 1 8 10 -5.25 0.00
 2 8 10 -36.09 0.00
 3 8 10 -7.12 0.00
 4 8 10 4.43 0.00
 5 8 10 -31.55 0.00
 6 8 10 -2.23 0.00
 7 8 10 -6.68 0.00
 8 8 10 -41.63 0.00
 0 9 10 -40.96 0.00
 1 9 10 25.79 0.00
 2 9 10 6.44 0.00
 3 9 10 -1.56 0.00
 4 9 10 4.21 0.00
 5 9 10 -22.67 0.00
 6 9 10 -16.40 0.00
 7 9 10 10.13 0.00
 8 9 10 10.97 0.00
 9 9 10 -0.57 0.00
 0 10 10 32.74 0.00
 2 10 10 -17.69 0.00
 4 10 10 40.86 0.00
 6 10 10 25.52 0.00
 8 10 10 -2.88 0.00
 10 10 10 -28.31 0.00
 0 1 11 3.90 0.00
 0 2 11 54.23 0.00
 1 2 11 -14.87 0.00
 0 3 11 5.18 0.00
 1 3 11 -11.66 0.00
 2 3 11 31.79 0.00
 0 4 11 58.46 0.00
 1 4 11 -30.10 0.00
 2 4 11 7.05 0.00
 3 4 11 -15.38 0.00
 0 5 11 22.70 0.00
 1 5 11 -8.90 0.00
 2 5 11 -17.08 0.00
 3 5 11 5.00 0.00
 4 5 11 -7.41 0.00
 0 6 11 -7.45 0.00
 1 6 11 -13.29 0.00
 2 6 11 7.58 0.00
 3 6 11 25.93 0.00
 4 6 11 -4.61 0.00
 5 6 11 3.72 0.00
 0 7 11 19.70 0.00
 1 7 11 -8.68 0.00
 2 7 11 -22.71 0.00
 3 7 11 10.59 0.00
 4 7 11 8.72 0.00
 5 7 11 25.97 0.00
 6 7 11 -8.01 0.00
 0 8 11 37.27 0.00
 1 8 11 16.91 0.00
 2 8 11 5.28 0.00
 3 8 11 9.37 0.00
 4 8 11 -28.47 0.00
 5 8 11 19.11 0.00
 6 8 11 -5.61 0.00
 7 8 11 2.25 0.00
 0 9 11 17.03 0.00
 1 9 11 -17.00 0.00
 2 9 11 4.22 0.00
 3 9 11 -1.58 0.00
 4 9 11 17.78 0.00
 5 9 11 -16.23 0.00
 6 9 11 -1.97 0.00
 7 9 11 5.96 0.00
 8 9 11 5.48 0.00
 0 10 11 -22.65 0.00
 1 10 11 6.61 0.00
 2 10 11 -23.43 0.00
 3 10 11 5.02 0.00
 4 10 11 7.91 0.00
 5 10 11 17.32 0.00
 6 10 11 4.34 0.00
 7 10 11 4.56 0.00
 8 10 11 -8.02 0.00
 9 10 11 -8.46 0.00
 0 11 11 18.38 0.00
 2 11 11 12.75 0.00
 4 11 11 -5.29 0.00
 6 11 11 -0.03 0.00
 8 11 11 3.79 0.00
 10 11 11 -2.38 0.00
 0 0 12 50.25 0.00
 0 1 12 12.04 0.00
 1 1 12 -28.97 0.00
 0 2 12 43.88 0.00
 1 2 12 7.11 0.00
 2 2 12 17.33 0.00
 0 3 12 -2.80 0.00
 1 3 12 16.79 0.00
 2 3 12 -13.93 0.00
 3 3 12 -7.71 0.00
 0 4 12 -45.71 0.00
 1 4 12 -8.15 0.00
 2 4 12 10.20 0.00
 3 4 12 30.13 0.00
 4 4 12 6.35 0.00
 0 5 12 -1.90 0.00
 1 5 12 9.51 0.00
 2 5 12 -16.09 0.00
 3 5 12 -17.87 0.00
 4 5 12 -14.34 0.00
 5 5 12 -14.31 0.00
 0 6 12 -30.12 0.00
 1 6 12 1.33 0.00
 2 6 12 -0.19 0.00
 3 6 12 -3.26 0.00
 4 6 12 -24.11 0.00
 5 6 12 -19.69 0.00
 6 6 12 -12.55 0.00
 0 7 12 25.88 0.00
 1 7 12 -8.09 0.00
 2 7 12 -20.40 0.00
 3 7 12 9.51 0.00
 4 7 12 6.00 0.00
 5 7 12 -4.80 0.00
 6 7 12 21.49 0.00
 7 7 12 8.59 0.00
 0 8 12 30.12 0.00
 1 8 12 -9.35 0.00
 2 8 12 -18.52 0.00
 3 8 12 7.67 0.00
 4 8 12 11.45 0.00
 5 8 12 5.27 0.00
 6 8 12 -1.82 0.00
 7 8 12 -4.85 0.00
 8 8 12 5.64 0.00
 0 9 12 7.63 0.00
 1 9 12 -34.76 0.00
 2 9 12 1.71 0.00
 3 9 12 -11.26 0.00
 4 9 12 4.23 0.00
 5 9 12 -25.99 0.00
 6 9 12 -1.69 0.00
 7 9 12 -1.39 0.00
 8 9 12 2.69 0.00
 9 9 12 -3.71 0.00
 0 10 12 12.51 0.00
 1 10 12 4.75 0.00
 2 10 12 20.00 0.00
 3 10 12 -2.91 0.00
 4 10 12 -7.06 0.00
 5 10 12 0.25 0.00
 6 10 12 5.34 0.00
 7 10 12 2.08 0.00
 8 10 12 -12.70 0.00
 9 10 12 -3.69 0.00
 10 10 12 19.68 0.00
 0 11 12 -19.98 0.00
 1 11 12 -29.37 0.00
 2 11 12 -13.50 0.00
 3 11 12 -8.73 0.00
 4 11 12 9.32 0.00
 5 11 12 -10.32 0.00
 6 11 12 8.29 0.00
 7 11 12 1.97 0.00
 8 11 12 -15.01 0.00
 9 11 12 2.68 0.00
 10 11 12 21.02 0.00
 11 11 12 13.05 0.00
 0 12 12 35.87 0.00
 2 12 12 -25.90 0.00
 4 12 12 24.18 0.00
 6 12 12 2.38 0.00
 8 12 12 13.11 0.00
 10 12 12 -0.35 0.00
 12 12 12 57.62 0.00
 0 1 13 -30.24 0.00
 0 2 13 -17.77 0.00
 1 2 13 16.90 0.00
 0 3 13 -19.14 0.00
 1 3 13 -20.81 0.00
 2 3 13 3.94 0.00
 0 4 13 -1.31 0.00
 1 4 13 35.11 0.00
 2 4 13 13.01 0.00
 3 4 13 -8.38 0.00
 0 5 13 25.10 0.00
 1 5 13 4.07 0.00
 2 5 13 -5.52 0.00
 3 5 13 3.09 0.00
 4 5 13 -5.00 0.00
 0 6 13 -12.85 0.00
 1 6 13 -9.11 0.00
 2 6 13 18.40 0.00
 3 6 13 13.87 0.00
 4 6 13 12.94 0.00
 5 6 13 15.19 0.00
 0 7 13 1.96 0.00
 1 7 13 4.17 0.00
 2 7 13 -6.60 0.00
 3 7 13 -7.30 0.00
 4 7 13 17.59 0.00
 5 7 13 -1.60 0.00
 6 7 13 11.13 0.00
 0 8 13 21.90 0.00
 1 8 13 -14.14 0.00
 2 8 13 -7.53 0.00
 3 8 13 -16.36 0.00
 4 8 13 9.32 0.00
 5 8 13 -12.13 0.00
 6 8 13 -6.23 0.00
 7 8 13 -9.35 0.00
 0 9 13 16.81 0.00
 1 9 13 -23.06 0.00
 2 9 13 -6.87 0.00
 3 9 13 20.30 0.00
 4 9 13 27.50 0.00
 5 9 13 -21.15 0.00
 6 9 13 -4.96 0.00
 7 9 13 1.45 0.00
 8 9 13 -1.11 0.00
 0 10 13 22.37 0.00
 1 10 13 9.87 0.00
 2 10 13 -15.70 0.00
 3 10 13 10.69 0.00
 4 10 13 4.88 0.00
 5 10 13 7.58 0.00
 6 10 13 -0.45 0.00
 7 10 13 -2.01 0.00
 8 10 13 -11.19 0.00
 9 10 13 -20.84 0.00
 0 11 13 29.42 0.00
 1 11 13 -3.07 0.00
 2 11 13 -17.02 0.00
 3 11 13 9.93 0.00
 4 11 13 3.20 0.00
 5 11 13 -8.10 0.00
 6 11 13 -2.51 0.00
 7 11 13 -5.01 0.00
 8 11 13 -8.12 0.00
 9 11 13 3.99 0.00
 10 11 13 0.69 0.00
 0 12 13 13.00 0.00
 1 12 13 -12.76 0.00
 2 12 13 16.08 0.00
 3 12 13 -6.48 0.00
 4 12 13 -4.75 0.00
 5 12 13 -4.01 0.00
 6 12 13 -6.39 0.00
 7 12 13 22.01 0.00
 8 12 13 13.25 0.00
 9 12 13 5.10 0.00
 10 12 13 1.48 0.00
 11 12 13 -1.08 0.00
 0 13 13 17.72 0.00
 2 13 13 -18.52 0.00
 4 13 13 -0.80 0.00
 6 13 13 -4.67 0.00
 8 13 13 -17.29 0.00
 10 13 13 -14.07 0.00
 12 13 13 -4.42 0.00
 0 0 14 21.01 0.00
 0 1 14 -13.67 0.00
 1 1 14 -0.30 0.00
 0 2 14 19.63 0.00
 1 2 14 28.52 0.00
 2 2 14 -5.82 0.00
 0 3 14 26.44 0.00
 1 3 14 -5.99 0.00
 2 3 14 1.10 0.00
 3 3 14 -7.91 0.00
 0 4 14 -40.91 0.00
 1 4 14 -3.54 0.00
 2 4 14 -3.98 0.00
 3 4 14 0.17 0.00
 4 4 14 11.22 0.00
 0 5 14 34.29 0.00
 1 5 14 -14.95 0.00
 2 5 14 -5.35 0.00
 3 5 14 5.54 0.00
 4 5 14 -8.06 0.00
 5 5 14 3.78 0.00
 0 6 14 -13.30 0.00
 1 6 14 5.49 0.00
 2 6 14 -11.65 0.00
 3 6 14 -10.81 0.00
 4 6 14 -8.16 0.00
 5 6 14 -19.27 0.00
 6 6 14 -5.30 0.00
 0 7 14 -2.10 0.00
 1 7 14 8.02 0.00
 2 7 14 -6.69 0.00
 3 7 14 -0.01 0.00
 4 7 14 18.86 0.00
 5 7 14 -11.19 0.00
 6 7 14 19.98 0.00
 7 7 14 0.53 0.00
 0 8 14 29.48 0.00
 1 8 14 -1.63 0.00
 2 8 14 -8.23 0.00
 3 8 14 -5.50 0.00
 4 8 14 24.31 0.00
 5 8 14 2.85 0.00
 6 8 14 6.52 0.00
 7 8 14 5.58 0.00
 8 8 14 0.63 0.00
 0 9 14 22.48 0.00
 1 9 14 21.80 0.00
 2 9 14 -9.93 0.00
 3 9 14 17.37 0.00
 4 9 14 13.64 0.00
 5 9 14 -13.53 0.00
 6 9 14 -7.40 0.00
 7 9 14 3.41 0.00
 8 9 14 1.04 0.00
 9 9 14 41.81 0.00
 0 10 14 31.63 0.00
 1 10 14 -2.90 0.00
 2 10 14 -15.89 0.00
 3 10 14 -9.84 0.00
 4 10 14 14.47 0.00
 5 10 14 6.09 0.00
 6 10 14 6.87 0.00
 7 10 14 7.37 0.00
 8 10 14 -2.98 0.00
 9 10 14 2.39 0.00
 10 10 14 -25.55 0.00
 0 11 14 17.39 0.00
 1 11 14 6.11 0.00
 2 11 14 -13.55 0.00
 3 11 14 1.01 0.00
 4 11 14 11.17 0.00
 5 11 14 -9.83 0.00
 6 11 14 -2.60 0.00
 7 11 14 -11.32 0.00
 8 11 14 -11.91 0.00
 9 11 14 -0.35 0.00
 10 11 14 14.32 0.00
 11 11 14 2.37 0.00
 0 12 14 -16.23 0.00
 1 12 14 -20.36 0.00
 2 12 14 -6.21 0.00
 3 12 14 -1.01 0.00
 4 12 14 -3.86 0.00
 5 12 14 -12.37 0.00
 6 12 14 -7.41 0.00
 7 12 14 5.01 0.00
 8 12 14 -1.69 0.00
 9 12 14 21.20 0.00
 10 12 14 17.77 0.00
 11 12 14 -3.60 0.00
 12 12 14 -3.21 0.00
 0 13 14 6.42 0.00
 1 13 14 9.53 0.00
 2 13 14 -5.16 0.00
 3 13 14 8.55 0.00
 4 13 14 9.32 0.00
 5 13 14 1.61 0.00
 6 13 14 8.11 0.00
 7 13 14 -0.74 0.00
 8 13 14 2.33 0.00
 9 13 14 -12.47 0.00
 10 13 14 3.18 0.00
 11 13 14 -3.98 0.00
 12 13 14 2.85 0.00
 0 14 14 50.31 0.00
 2 14 14 4.93 0.00
 4 14 14 3.59 0.00
 6 14 14 -0.91 0.00
 8 14 14 5.81 0.00
 10 14 14 -6.97 0.00
 0 1 15 -21.93 0.00
 0 2 15 8.25 0.00
 1 2 15 14.09 0.00
 0 3 15 -17.82 0.00
 1 3 15 23.47 0.00
 2 3 15 -13.97 0.00
 0 4 15 -17.67 0.00
 1 4 15 4.81 0.00
 2 4 15 8.28 0.00
 3 4 15 -0.97 0.00
 0 5 15 -12.47 0.00
 1 5 15 11.20 0.00
 2 5 15 -4.94 0.00
 3 5 15 8.50 0.00
 4 5 15 1.64 0.00
 0 6 15 6.90 0.00
 1 6 15 2.17 0.00
 2 6 15 8.72 0.00
 3 6 15 7.73 0.00
 4 6 15 20.16 0.00
 5 6 15 3.54 0.00
 0 7 15 6.86 0.00
 1 7 15 10.30 0.00
 2 7 15 7.70 0.00
 3 7 15 -0.03 0.00
 4 7 15 13.76 0.00
 5 7 15 5.88 0.00
 6 7 15 9.68 0.00
 0 8 15 11.43 0.00
 1 8 15 -4.82 0.00
 2 8 15 -6.82 0.00
 3 8 15 -0.14 0.00
 4 8 15 8.79 0.00
 5 8 15 -7.35 0.00
 6 8 15 -4.69 0.00
 7 8 15 -8.20 0.00
 0 9 15 30.15 0.00
 1 9 15 -7.76 0.00
 2 9 15 -16.12 0.00
 3 9 15 1.13 0.00
 4 9 15 7.74 0.00
 5 9 15 -12.45 0.00
 6 9 15 -5.30 0.00
 7 9 15 -4.78 0.00
 8 9 15 -5.26 0.00
 0 10 15 9.22 0.00
 1 10 15 -3.03 0.00
 2 10 15 -16.21 0.00
 3 10 15 -19.16 0.00
 4 10 15 10.19 0.00
 5 10 15 -2.21 0.00
 6 10 15 1.45 0.00
 7 10 15 7.66 0.00
 8 10 15 -6.66 0.00
 9 10 15 -15.23 0.00
 0 11 15 8.43 0.00
 1 11 15 -3.98 0.00
 2 11 15 -6.51 0.00
 3 11 15 6.20 0.00
 4 11 15 -2.20 0.00
 5 11 15 -6.36 0.00
 6 11 15 -4.49 0.00
 7 11 15 -1.34 0.00
 8 11 15 8.76 0.00
 9 11 15 -4.63 0.00
 10 11 15 4.18 0.00
 0 12 15 30.55 0.00
 1 12 15 -13.00 0.00
 2 12 15 -8.65 0.00
 3 12 15 -8.09 0.00
 4 12 15 5.30 0.00
 5 12 15 -1.42 0.00
 6 12 15 1.84 0.00
 7 12 15 7.58 0.00
 8 12 15 8.03 0.00
 9 12 15 5.20 0.00
 10 12 15 8.90 0.00
 11 12 15 16.30 0.00
 0 13 15 8.16 0.00
 1 13 15 -0.65 0.00
 2 13 15 -9.46 0.00
 3 13 15 12.46 0.00
 4 13 15 5.28 0.00
 5 13 15 2.26 0.00
 6 13 15 13.82 0.00
 7 13 15 2.71 0.00
 8 13 15 0.67 0.00
 9 13 15 -2.79 0.00
 10 13 15 4.25 0.00
 0 14 15 7.02 0.00
 1 14 15 6.77 0.00
 2 14 15 -2.68 0.00
 3 14 15 1.58 0.00
 4 14 15 -6.51 0.00
 5 14 15 -4.48 0.00
 6 14 15 -12.96 0.00
 7 14 15 -1.27 0.00
 8 14 15 4.83 0.00
 9 14 15 -4.31 0.00
 0 15 15 1.63 0.00
 2 15 15 -2.84 0.00
 4 15 15 -7.08 0.00
 6 15 15 15.46 0.00
 0 0 16 56.09 0.00
 0 1 16 -7.02 0.00
 1 1 16 -18.24 0.00
 0 2 16 3.54 0.00
 1 2 16 1.44 0.00
 2 2 16 9.29 0.00
 0 3 16 5.67 0.00
 1 3 16 7.64 0.00
 2 3 16 -7.07 0.00
 3 3 16 12.82 0.00
 0 4 16 -1.39 0.00
 1 4 16 2.65 0.00
 2 4 16 -0.27 0.00
 3 4 16 -7.73 0.00
 4 4 16 -21.03 0.00
 0 5 16 -4.25 0.00
 1 5 16 3.40 0.00
 2 5 16 -2.97 0.00
 3 5 16 5.41 0.00
 4 5 16 -10.19 0.00
 5 5 16 12.58 0.00
 0 6 16 -3.90 0.00
 1 6 16 -8.40 0.00
 2 6 16 -2.42 0.00
 3 6 16 -2.16 0.00
 4 6 16 8.26 0.00
 5 6 16 -16.34 0.00
 6 6 16 -0.08 0.00
 0 7 16 10.13 0.00
 1 7 16 -0.39 0.00
 2 7 16 1.59 0.00
 3 7 16 -1.13 0.00
 4 7 16 1.85 0.00
 5 7 16 -2.94 0.00
 6 7 16 -1.06 0.00
 7 7 16 -6.98 0.00
 0 8 16 12.68 0.00
 1 8 16 -22.25 0.00
 2 8 16 3.13 0.00
 3 8 16 -0.39 0.00
 4 8 16 0.78 0.00
 5 8 16 -3.97 0.00
 6 8 16 -7.87 0.00
 7 8 16 2.28 0.00
 8 8 16 11.17 0.00
 0 9 16 3.54 0.00
 1 9 16 -0.22 0.00
 2 9 16 -2.64 0.00
 3 9 16 0.22 0.00
 4 9 16 -5.67 0.00
 5 9 16 2.74 0.00
 6 9 16 5.88 0.00
 7 9 16 -6.57 0.00
 8 9 16 9.80 0.00
 9 9 16 -2.26 0.00
 0 10 16 8.77 0.00
 1 10 16 14.07 0.00
 2 10 16 -0.70 0.00
 3 10 16 -3.77 0.00
 4 10 16 -0.74 0.00
 5 10 16 -4.95 0.00
 6 10 16 0.10 0.00
 7 10 16 7.13 0.00
 8 10 16 -0.45 0.00
 9 10 16 5.40 0.00
 10 10 16 17.29 0.00
 0 11 16 4.48 0.00
 1 11 16 -26.82 0.00
 2 11 16 -8.59 0.00
 3 11 16 1.37 0.00
 4 11 16 0.83 0.00
 5 11 16 -1.77 0.00
 6 11 16 -2.41 0.00
 7 11 16 -1.40 0.00
 8 11 16 6.13 0.00
 9 11 16 0.90 0.00
 10 11 16 -1.17 0.00
 11 11 16 11.84 0.00
 0 12 16 10.53 0.00
 1 12 16 13.86 0.00
 2 12 16 3.82 0.00
 3 12 16 6.31 0.00
 4 12 16 -11.05 0.00
 5 12 16 -2.90 0.00
 6 12 16 -0.74 0.00
 7 12 16 -2.58 0.00
 8 12 16 -3.51 0.00
 9 12 16 1.37 0.00
 10 12 16 -5.39 0.00
 0 13 16 3.03 0.00
 1 13 16 -6.81 0.00
 2 13 16 -5.90 0.00
 3 13 16 -9.31 0.00
 4 13 16 7.97 0.00
 5 13 16 16.09 0.00
 6 13 16 -1.85 0.00
 7 13 16 -3.79 0.00
 8 13 16 -5.25 0.00
 9 13 16 2.69 0.00
 0 14 16 -9.16 0.00
 1 14 16 -10.46 0.00
 2 14 16 3.87 0.00
 3 14 16 -0.96 0.00
 4 14 16 -6.31 0.00
 5 14 16 2.01 0.00
 6 14 16 2.69 0.00
 7 14 16 -2.22 0.00
 0 15 16 8.02 0.00
 1 15 16 0.34 0.00
 2 15 16 -2.35 0.00
 3 15 16 3.20 0.00
 4 15 16 -7.96 0.00
 5 15 16 -1.30 0.00
 0 16 16 -3.16 0.00
 0 1 17 9.75 0.00
 0 2 17 3.95 0.00
 1 2 17 -7.53 0.00
 0 3 17 12.19 0.00
 1 3 17 -7.36 0.00
 2 3 17 -11.15 0.00
 0 4 17 -4.72 0.00
 1 4 17 -11.49 0.00
 2 4 17 9.57 0.00
 3 4 17 4.19 0.00
 0 5 17 10.54 0.00
 1 5 17 -2.96 0.00
 2 5 17 -1.76 0.00
 3 5 17 1.91 0.00
 4 5 17 -1.79 0.00
 0 6 17 9.61 0.00
 1 6 17 6.14 0.00
 2 6 17 -10.94 0.00
 3 6 17 2.95 0.00
 4 6 17 2.52 0.00
 5 6 17 -1.10 0.00
 0 7 17 11.05 0.00
 1 7 17 -5.24 0.00
 2 7 17 -5.07 0.00
 3 7 17 -3.80 0.00
 4 7 17 -5.48 0.00
 5 7 17 -6.67 0.00
 6 7 17 -6.41 0.00
 0 8 17 6.28 0.00
 1 8 17 2.66 0.00
 2 8 17 -1.91 0.00
 3 8 17 4.70 0.00
 4 8 17 -1.47 0.00
 5 8 17 1.06 0.00
 6 8 17 2.99 0.00
 7 8 17 -3.31 0.00
 0 9 17 -1.79 0.00
 1 9 17 12.02 0.00
 2 9 17 -3.30 0.00
 3 9 17 6.78 0.00
 4 9 17 -1.27 0.00
 5 9 17 9.02 0.00
 6 9 17 3.81 0.00
 7 9 17 14.57 0.00
 8 9 17 3.18 0.00
 0 10 17 16.28 0.00
 1 10 17 4.40 0.00
 2 10 17 1.34 0.00
 3 10 17 -0.04 0.00
 4 10 17 -0.18 0.00
 5 10 17 3.19 0.00
 6 10 17 -2.36 0.00
 7 10 17 -1.00 0.00
 8 10 17 12.53 0.00
 9 10 17 -12.87 0.00
 0 11 17 1.85 0.00
 1 11 17 -2.75 0.00
 2 11 17 5.39 0.00
 3 11 17 -4.11 0.00
 4 11 17 -2.97 0.00
 5 11 17 -2.51 0.00
 6 11 17 -2.42 0.00
 7 11 17 5.88 0.00
 8 11 17 1.85 0.00
 9 11 17 -4.29 0.00
 10 11 17 1.25 0.00
 0 12 17 -5.14 0.00
 1 12 17 -8.26 0.00
 2 12 17 -6.37 0.00
 3 12 17 -5.52 0.00
 4 12 17 1.06 0.00
 5 12 17 6.92 0.00
 6 12 17 1.39 0.00
 7 12 17 4.26 0.00
 8 12 17 2.64 0.00
 0 13 17 15.65 0.00
 1 13 17 -4.10 0.00
 2 13 17 3.17 0.00
 3 13 17 -8.00 0.00
 4 13 17 6.71 0.00
 5 13 17 -7.48 0.00
 6 13 17 -0.46 0.00
 7 13 17 -3.34 0.00
 0 14 17 3.53 0.00
 1 14 17 -7.05 0.00
 2 14 17 3.75 0.00
 3 14 17 -5.82 0.00
 4 14 17 8.04 0.00
 5 14 17 -3.11 0.00
 0 0 18 10.20 0.00
 0 1 18 -15.01 0.00
 1 1 18 -5.87 0.00
 0 2 18 12.59 0.00
 1 2 18 1.44 0.00
 2 2 18 -17.71 0.00
 0 3 18 2.19 0.00
 1 3 18 -4.74 0.00
 2 3 18 7.25 0.00
 3 3 18 -16.78 0.00
 0 4 18 -2.97 0.00
 1 4 18 -10.30 0.00
 2 4 18 1.81 0.00
 3 4 18 -1.24 0.00
 4 4 18 -11.34 0.00
 0 5 18 2.08 0.00
 1 5 18 -6.83 0.00
 2 5 18 -3.92 0.00
 3 5 18 3.30 0.00
 4 5 18 9.19 0.00
 5 5 18 14.26 0.00
 0 6 18 4.17 0.00
 1 6 18 3.78 0.00
 2 6 18 0.12 0.00
 3 6 18 0.12 0.00
 4 6 18 10.16 0.00
 5 6 18 -6.31 0.00
 6 6 18 -9.76 0.00
 0 7 18 3.18 0.00
 1 7 18 -4.14 0.00
 2 7 18 -6.19 0.00
 3 7 18 4.72 0.00
 4 7 18 -3.23 0.00
 5 7 18 -1.71 0.00
 6 7 18 2.25 0.00
 7 7 18 5.02 0.00
 0 8 18 -0.47 0.00
 1 8 18 1.06 0.00
 2 8 18 -5.87 0.00
 3 8 18 -3.19 0.00
 4 8 18 -1.22 0.00
 5 8 18 4.09 0.00
 6 8 18 6.56 0.00
 7 8 18 -7.80 0.00
 8 8 18 -16.86 0.00
 0 9 18 7.05 0.00
 1 9 18 5.93 0.00
 2 9 18 2.41 0.00
 3 9 18 -14.47 0.00
 4 9 18 -0.71 0.00
 5 9 18 -10.80 0.00
 6 9 18 -3.29 0.00
 7 9 18 -1.64 0.00
 8 9 18 0.15 0.00
 9 9 18 8.12 0.00
 0 10 18 1.86 0.00
 1 10 18 -9.73 0.00
 2 10 18 -8.11 0.00
 3 10 18 -6.84 0.00
 4 10 18 6.16 0.00
 5 10 18 -1.97 0.00
 6 10 18 9.31 0.00
 7 10 18 11.13 0.00
 8 10 18 -4.72 0.00
 9 10 18 0.75 0.00
 0 11 18 -4.00 0.00
 1 11 18 1.38 0.00
 2 11 18 0.00 0.00
 3 11 18 0.92 0.00
 4 11 18 -5.55 0.00
 5 11 18 1.25 0.00
 6 11 18 -9.43 0.00
 7 11 18 -4.40 0.00
 8 11 18 2.87 0.00
 0 12 18 -2.21 0.00
 1 12 18 10.46 0.00
 2 12 18 -6.29 0.00
 3 12 18 -5.25 0.00
 4 12 18 -3.16 0.00
 5 12 18 1.18 0.00
 6 12 18 -8.45 0.00
 0 13 18 -6.02 0.00
 1 13 18 -3.51 0.00
 2 13 18 1.65 0.00
 3 13 18 -7.57 0.00
 4 13 18 0.21 0.00
 0 1 19 -1.60 0.00
 0 2 19 29.55 0.00
 1 2 19 -4.69 0.00
 0 3 19 4.97 0.00
 1 3 19 8.85 0.00
 2 3 19 -1.70 0.00
 0 4 19 -1.33 0.00
 1 4 19 6.43 0.00
 2 4 19 -10.35 0.00
 3 4 19 16.73 0.00
 0 5 19 -5.36 0.00
 1 5 19 -6.03 0.00
 2 5 19 -7.39 0.00
 3 5 19 -9.82 0.00
 4 5 19 -4.45 0.00
 0 6 19 -8.83 0.00
 1 6 19 -3.42 0.00
 2 6 19 1.36 0.00
 3 6 19 -1.33 0.00
 4 6 19 -7.49 0.00
 5 6 19 6.87 0.00
 0 7 19 -5.23 0.00
 1 7 19 -1.07 0.00
 2 7 19 -2.84 0.00
 3 7 19 -6.20 0.00
 4 7 19 4.64 0.00
 5 7 19 5.25 0.00
 6 7 19 -0.93 0.00
 0 8 19 12.95 0.00
 1 8 19 9.88 0.00
 2 8 19 3.41 0.00
 3 8 19 1.01 0.00
 4 8 19 4.97 0.00
 5 8 19 6.65 0.00
 6 8 19 0.77 0.00
 7 8 19 -1.14 0.00
 0 9 19 0.74 0.00
 1 9 19 10.88 0.00
 2 9 19 -1.50 0.00
 3 9 19 -0.62 0.00
 4 9 19 -6.23 0.00
 5 9 19 -0.25 0.00
 6 9 19 -2.31 0.00
 7 9 19 1.28 0.00
 8 9 19 5.18 0.00
 0 10 19 10.57 0.00
 1 10 19 4.02 0.00
 2 10 19 -4.94 0.00
 3 10 19 2.11 0.00
 4 10 19 6.61 0.00
 5 10 19 -1.01 0.00
 6 10 19 -2.26 0.00
 7 10 19 0.04 0.00
 0 11 19 -16.59 0.00
 1 11 19 -8.49 0.00
 2 11 19 5.04 0.00
 3 11 19 -1.90 0.00
 4 11 19 -5.62 0.00
 5 11 19 7.07 0.00
 0 12 19 15.84 0.00
 1 12 19 7.97 0.00
 2 12 19 2.83 0.00
 0 0 20 60.16 0.00
 0 1 20 3.22 0.00
 1 1 20 4.60 0.00
 0 2 20 -18.45 0.00
 1 2 20 -16.34 0.00
 2 2 20 -8.47 0.00
 0 3 20 2.43 0.00
 1 3 20 4.46 0.00
 2 3 20 -4.23 0.00
 3 3 20 14.13 0.00
 0 4 20 24.12 0.00
 1 4 20 -12.29 0.00
 2 4 20 -9.15 0.00
 3 4 20 -3.55 0.00
 4 4 20 -1.48 0.00
 0 5 20 6.31 0.00
 1 5 20 8.15 0.00
 2 5 20 7.52 0.00
 3 5 20 3.71 0.00
 4 5 20 8.56 0.00
 5 5 20 9.02 0.00
 0 6 20 2.97 0.00
 1 6 20 -3.12 0.00
 2 6 20 4.81 0.00
 3 6 20 9.05 0.00
 4 6 20 2.80 0.00
 5 6 20 -1.33 0.00
 6 6 20 4.44 0.00
 0 7 20 -7.99 0.00
 1 7 20 -1.81 0.00
 2 7 20 1.98 0.00
 3 7 20 4.36 0.00
 4 7 20 -9.56 0.00
 5 7 20 4.84 0.00
 6 7 20 0.10 0.00
 7 7 20 6.06 0.00
 0 8 20 -4.20 0.00
 1 8 20 -5.24 0.00
 2 8 20 -4.17 0.00
 3 8 20 -1.79 0.00
 4 8 20 0.55 0.00
 5 8 20 -0.31 0.00
 6 8 20 -0.74 0.00
 7 8 20 5.63 0.00
 0 9 20 -9.27 0.00
 1 9 20 -0.15 0.00
 2 9 20 3.54 0.00
 3 9 20 -0.78 0.00
 4 9 20 2.98 0.00
 5 9 20 -4.65 0.00
 0 10 20 3.64 0.00
 1 10 20 0.32 0.00
 2 10 20 4.29 0.00
 3 10 20 -0.51 0.00
 0 1 21 12.19 0.00
 0 2 21 19.11 0.00
 1 2 21 -8.85 0.00
 0 3 21 11.10 0.00
 1 3 21 -2.37 0.00
 2 3 21 -1.97 0.00
 0 4 21 6.98 0.00
 1 4 21 4.34 0.00
 2 4 21 -19.56 0.00
 3 4 21 10.70 0.00
 0 5 21 0.02 0.00
 1 5 21 3.72 0.00
 2 5 21 -9.24 0.00
 3 5 21 -3.34 0.00
 4 5 21 3.30 0.00
 0 6 21 3.26 0.00
 1 6 21 -7.09 0.00
 2 6 21 -0.47 0.00
 3 6 21 -3.02 0.00
 4 6 21 -0.36 0.00
 5 6 21 6.94 0.00
 0 7 21 2.94 0.00
 1 7 21 5.61 0.00
 2 7 21 8.32 0.00
 3 7 21 5.63 0.00
 4 7 21 10.99 0.00
 0 8 21 6.80 0.00
 1 8 21 -8.56 0.00
 2 8 21 -4.74 0.00
 0 0 22 -9.55 0.00
 0 1 22 8.70 0.00
 1 1 22 -20.10 0.00
 0 2 22 26.89 0.00
 1 2 22 10.54 0.00
 2 2 22 -19.24 0.00
 0 3 22 10.54 0.00
 1 3 22 2.94 0.00
 2 3 22 -7.86 0.00
 3 3 22 0.74 0.00
 0 4 22 0.57 0.00
 1 4 22 -4.87 0.00
 2 4 22 -3.37 0.00
 3 4 22 -1.16 0.00
 0 5 22 5.79 0.00
 1 5 22 -7.80 0.00
 2 5 22 -9.43 0.00
 0 1 1 -460.73 0.00
 0 0 2 -140.74 0.00
 0 1 2 638.06 0.00
 1 1 2 -0.99 0.00
 13 13 14 -14.73 0.00
 12 14 14 -9.74 0.00
 14 14 14 -21.43 0.00
 11 13 15 -2.77 0.00
 12 13 15 -7.16 0.00
 10 14 15 -9.62 0.00
 11 14 15 6.92 0.00
 12 14 15 0.64 0.00
 13 14 15 2.59 0.00
 8 15 15 10.55 0.00
 10 15 15 10.96 0.00
 12 15 15 -14.53 0.00
 14 15 15 2.57 0.00
 11 12 16 8.09 0.00
 12 12 16 -1.14 0.00
 10 13 16 13.77 0.00
 11 13 16 1.51 0.00
 12 13 16 14.29 0.00
 13 13 16 -5.61 0.00
 8 14 16 -3.93 0.00
 9 14 16 -10.53 0.00
 10 14 16 15.13 0.00
 11 14 16 6.61 0.00
 12 14 16 -0.09 0.00
 13 14 16 11.61 0.00
 14 14 16 -3.33 0.00
 6 15 16 29.58 0.00
 7 15 16 0.79 0.00
 8 15 16 -2.77 0.00
 9 15 16 4.85 0.00
 10 15 16 -9.36 0.00
 11 15 16 0.66 0.00
 12 15 16 7.37 0.00
 13 15 16 -0.82 0.00
 14 15 16 2.87 0.00
 15 15 16 3.01 0.00
 2 16 16 -16.46 0.00
 4 16 16 -3.65 0.00
 6 16 16 -8.85 0.00
 8 16 16 -2.25 0.00
 10 16 16 5.03 0.00
 12 16 16 -24.06 0.00
 14 16 16 2.00 0.00
 16 16 16 4.24 0.00
 9 12 17 0.29 0.00
 10 12 17 -13.29 0.00
 11 12 17 7.30 0.00
 8 13 17 -4.18 0.00
 9 13 17 10.23 0.00
 10 13 17 -1.87 0.00
 11 13 17 -7.35 0.00
 12 13 17 7.75 0.00
 6 14 17 -5.00 0.00
 7 14 17 8.93 0.00
 8 14 17 10.55 0.00
 9 14 17 -2.89 0.00
 10 14 17 16.73 0.00
 11 14 17 -5.91 0.00
 12 14 17 -1.35 0.00
 13 14 17 2.66 0.00
 0 15 17 -1.73 0.00
 1 15 17 9.28 0.00
 2 15 17 -2.42 0.00
 3 15 17 8.73 0.00
 4 15 17 -8.42 0.00
 5 15 17 -17.48 0.00
 6 15 17 5.71 0.00
 7 15 17 0.86 0.00
 8 15 17 -5.60 0.00
 9 15 17 -0.66 0.00
 10 15 17 -2.12 0.00
 11 15 17 2.57 0.00
 12 15 17 -1.04 0.00
 13 15 17 -8.35 0.00
 14 15 17 -1.47 0.00
 0 16 17 -31.63 0.00
 1 16 17 -0.17 0.00
 2 16 17 -12.73 0.00
 3 16 17 1.10 0.00
 4 16 17 13.17 0.00
 5 16 17 17.66 0.00
 6 16 17 5.19 0.00
 7 16 17 -9.99 0.00
 8 16 17 -11.54 0.00
 9 16 17 -10.00 0.00
 10 16 17 4.81 0.00
 11 16 17 -7.58 0.00
 12 16 17 7.60 0.00
 13 16 17 4.60 0.00
 14 16 17 9.89 0.00
 15 16 17 -3.65 0.00
 0 17 17 16.45 0.00
 2 17 17 6.41 0.00
 4 17 17 6.31 0.00
 6 17 17 7.47 0.00
 8 17 17 -1.13 0.00
 10 17 17 2.67 0.00
 12 17 17 15.24 0.00
 14 17 17 13.48 0.00
 16 17 17 -4.42 0.00
 10 10 18 0.58 0.00
 9 11 18 7.62 0.00
 10 11 18 3.00 0.00
 11 11 18 -0.14 0.00
 7 12 18 19.04 0.00
 8 12 18 -4.70 0.00
 9 12 18 4.98 0.00
 10 12 18 1.48 0.00
 11 12 18 2.98 0.00
 12 12 18 -6.26 0.00
 5 13 18 0.81 0.00
 6 13 18 25.31 0.00
 7 13 18 -8.58 0.00
 8 13 18 -8.49 0.00
 9 13 18 -13.92 0.00
 10 13 18 -3.49 0.00
 11 13 18 -5.63 0.00
 12 13 18 2.10 0.00
 13 13 18 -0.59 0.00
 0 14 18 7.30 0.00
 1 14 18 -8.13 0.00
 2 14 18 21.44 0.00
 3 14 18 20.44 0.00
 4 14 18 -13.27 0.00
 5 14 18 -1.04 0.00
 6 14 18 1.51 0.00
 7 14 18 -4.02 0.00
 8 14 18 0.86 0.00
 9 14 18 -24.20 0.00
 10 14 18 11.98 0.00
 11 14 18 -5.85 0.00
 12 14 18 -4.58 0.00
 13 14 18 -5.75 0.00
 14 14 18 0.49 0.00
 0 15 18 -5.32 0.00
 1 15 18 0.45 0.00
 2 15 18 -8.04 0.00
 3 15 18 -4.37 0.00
 4 15 18 4.21 0.00
 5 15 18 -2.98 0.00
 6 15 18 1.27 0.00
 7 15 18 4.43 0.00
 8 15 18 7.59 0.00
 9 15 18 -7.68 0.00
 10 15 18 -8.29 0.00
 11 15 18 5.65 0.00
 12 15 18 1.60 0.00
 13 15 18 -7.78 0.00
 14 15 18 6.77 0.00
 15 15 18 0.73 0.00
 0 16 18 22.29 0.00
 1 16 18 12.29 0.00
 2 16 18 19.95 0.00
 3 16 18 -5.30 0.00
 4 16 18 -11.18 0.00
 5 16 18 -10.31 0.00
 6 16 18 2.53 0.00
 7 16 18 10.04 0.00
 8 16 18 -2.55 0.00
 9 16 18 -0.68 0.00
 10 16 18 6.00 0.00
 11 16 18 3.92 0.00
 12 16 18 -3.80 0.00
 13 16 18 1.51 0.00
 14 16 18 5.64 0.00
 15 16 18 -1.55 0.00
 16 16 18 0.78 0.00
 0 17 18 -0.56 0.00
 1 17 18 -5.85 0.00
 2 17 18 6.16 0.00
 3 17 18 -3.21 0.00
 4 17 18 -10.36 0.00
 5 17 18 3.84 0.00
 6 17 18 4.93 0.00
 7 17 18 11.48 0.00
 8 17 18 -4.87 0.00
 9 17 18 8.39 0.00
 10 17 18 -4.19 0.00
 11 17 18 0.44 0.00
 12 17 18 -3.36 0.00
 13 17 18 3.64 0.00
 14 17 18 3.14 0.00
 15 17 18 3.36 0.00
 16 17 18 -0.02 0.00
 17 17 18 7.76 0.00
 0 18 18 1.28 0.00
 2 18 18 -0.46 0.00
 4 18 18 -4.79 0.00
 6 18 18 -6.67 0.00
 8 18 18 -1.15 0.00
 10 18 18 6.26 0.00
 12 18 18 -7.44 0.00
 14 18 18 -0.85 0.00
 16 18 18 -0.87 0.00
 18 18 18 -12.94 0.00
 8 10 19 9.11 0.00
 9 10 19 1.72 0.00
 6 11 19 -17.53 0.00
 7 11 19 -6.94 0.00
 8 11 19 9.17 0.00
 9 11 19 1.76 0.00
 10 11 19 -7.80 0.00
 3 12 19 1.46 0.00
 4 12 19 -5.66 0.00
 5 12 19 -6.05 0.00
 6 12 19 11.23 0.00
 7 12 19 -11.91 0.00
 8 12 19 -1.89 0.00
 9 12 19 4.50 0.00
 10 12 19 -7.60 0.00
 11 12 19 -4.43 0.00
 0 13 19 -3.74 0.00
 1 13 19 -7.89 0.00
 2 13 19 14.81 0.00
 3 13 19 -7.74 0.00
 4 13 19 19.70 0.00
 5 13 19 -10.54 0.00
 6 13 19 -0.45 0.00
 7 13 19 -11.62 0.00
 8 13 19 15.12 0.00
 9 13 19 -7.75 0.00
 10 13 19 4.92 0.00
 11 13 19 -8.17 0.00
 12 13 19 0.27 0.00
 0 14 19 -5.85 0.00
 1 14 19 -3.18 0.00
 2 14 19 -0.23 0.00
 3 14 19 3.15 0.00
 4 14 19 -15.16 0.00
 5 14 19 16.05 0.00
 6 14 19 0.06 0.00
 7 14 19 -5.75 0.00
 8 14 19 -12.16 0.00
 9 14 19 9.54 0.00
 10 14 19 -9.33 0.00
 11 14 19 2.40 0.00
 12 14 19 0.36 0.00
 13 14 19 5.61 0.00
 0 15 19 -21.84 0.00
 1 15 19 13.37 0.00
 2 15 19 -5.55 0.00
 3 15 19 3.35 0.00
 4 15 19 1.93 0.00
 5 15 19 13.88 0.00
 6 15 19 2.69 0.00
 7 15 19 5.32 0.00
 8 15 19 -8.41 0.00
 9 15 19 -2.81 0.00
 10 15 19 -8.71 0.00
 11 15 19 -0.94 0.00
 12 15 19 -9.59 0.00
 13 15 19 1.46 0.00
 14 15 19 1.59 0.00
 0 16 19 -2.85 0.00
 1 16 19 -3.94 0.00
 2 16 19 2.69 0.00
 3 16 19 6.61 0.00
 4 16 19 1.91 0.00
 5 16 19 0.93 0.00
 6 16 19 -4.63 0.00
 7 16 19 -10.29 0.00
 8 16 19 -2.17 0.00
 9 16 19 0.59 0.00
 10 16 19 2.99 0.00
 11 16 19 -2.96 0.00
 12 16 19 -1.34 0.00
 13 16 19 5.39 0.00
 14 16 19 -1.83 0.00
 15 16 19 6.54 0.00
 0 17 19 -4.57 0.00
 1 17 19 -5.23 0.00
 2 17 19 -0.25 0.00
 3 17 19 4.45 0.00
 4 17 19 -0.13 0.00
 5 17 19 -9.55 0.00
 6 17 19 2.24 0.00
 7 17 19 -0.18 0.00
 8 17 19 -5.78 0.00
 9 17 19 -4.43 0.00
 10 17 19 -1.95 0.00
 11 17 19 2.09 0.00
 12 17 19 -3.80 0.00
 13 17 19 0.46 0.00
 14 17 19 1.55 0.00
 15 17 19 4.06 0.00
 16 17 19 -5.76 0.00
 0 18 19 0.87 0.00
 1 18 19 4.93 0.00
 2 18 19 2.79 0.00
 3 18 19 1.20 0.00
 4 18 19 7.31 0.00
 5 18 19 2.50 0.00
 6 18 19 2.55 0.00
 7 18 19 -3.56 0.00
 8 18 19 7.45 0.00
 9 18 19 -10.48 0.00
 10 18 19 4.83 0.00
 11 18 19 -6.61 0.00
 12 18 19 3.44 0.00
 13 18 19 -3.96 0.00
 14 18 19 1.84 0.00
 15 18 19 -9.43 0.00
 16 18 19 -0.16 0.00
 17 18 19 -0.16 0.00
 0 19 19 -9.69 0.00
 2 19 19 10.66 0.00
 4 19 19 5.45 0.00
 6 19 19 -7.30 0.00
 8 19 19 -5.24 0.00
 10 19 19 -1.61 0.00
 12 19 19 -1.23 0.00
 14 19 19 9.16 0.00
 16 19 19 6.24 0.00
 18 19 19 -2.35 0.00
 8 8 20 -7.32 0.00
 6 9 20 -0.06 0.00
 7 9 20 -9.79 0.00
 8 9 20 11.31 0.00
 9 9 20 2.40 0.00
 4 10 20 -5.74 0.00
 5 10 20 5.99 0.00
 6 10 20 -12.30 0.00
 7 10 20 -2.84 0.00
 8 10 20 3.95 0.00
 9 10 20 11.60 0.00
 10 10 20 2.69 0.00
 0 11 20 11.97 0.00
 1 11 20 11.85 0.00
 2 11 20 -3.24 0.00
 3 11 20 -1.05 0.00
 4 11 20 8.57 0.00
 5 11 20 20.91 0.00
 6 11 20 -6.75 0.00
 7 11 20 -1.10 0.00
 8 11 20 8.65 0.00
 9 11 20 2.49 0.00
 10 11 20 6.52 0.00
 11 11 20 6.54 0.00
 0 12 20 18.58 0.00
 1 12 20 5.51 0.00
 2 12 20 10.03 0.00
 3 12 20 -14.76 0.00
 4 12 20 -0.60 0.00
 5 12 20 2.27 0.00
 6 12 20 9.08 0.00
 7 12 20 -3.71 0.00
 8 12 20 2.86 0.00
 9 12 20 8.64 0.00
 10 12 20 -6.56 0.00
 11 12 20 -0.66 0.00
 12 12 20 16.10 0.00
 0 13 20 -11.78 0.00
 1 13 20 12.30 0.00
 2 13 20 2.70 0.00
 3 13 20 9.24 0.00
 4 13 20 11.55 0.00
 5 13 20 3.47 0.00
 6 13 20 -9.67 0.00
 7 13 20 6.35 0.00
 8 13 20 -3.52 0.00
 9 13 20 -4.18 0.00
 10 13 20 4.74 0.00
 11 13 20 4.35 0.00
 12 13 20 -4.02 0.00
 13 13 20 3.06 0.00
 0 14 20 -9.67 0.00
 1 14 20 -2.26 0.00
 2 14 20 -6.88 0.00
 3 14 20 1.26 0.00
 4 14 20 -1.55 0.00
 5 14 20 0.91 0.00
 6 14 20 -0.98 0.00
 7 14 20 5.73 0.00
 8 14 20 6.86 0.00
 9 14 20 1.22 0.00
 10 14 20 -4.30 0.00
 11 14 20 1.11 0.00
 12 14 20 2.61 0.00
 13 14 20 -3.44 0.00
 14 14 20 -2.07 0.00
 0 15 20 9.09 0.00
 1 15 20 12.93 0.00
 2 15 20 4.68 0.00
 3 15 20 -3.16 0.00
 4 15 20 2.09 0.00
 5 15 20 3.57 0.00
 6 15 20 -1.56 0.00
 7 15 20 1.66 0.00
 8 15 20 -5.36 0.00
 9 15 20 -12.90 0.00
 10 15 20 -5.74 0.00
 11 15 20 0.32 0.00
 12 15 20 -3.04 0.00
 13 15 20 -1.02 0.00
 14 15 20 -1.17 0.00
 15 15 20 -6.53 0.00
 0 16 20 -0.73 0.00
 1 16 20 -3.38 0.00
 2 16 20 5.49 0.00
 3 16 20 -1.50 0.00
 4 16 20 -2.57 0.00
 5 16 20 -3.08 0.00
 6 16 20 -3.20 0.00
 7 16 20 1.34 0.00
 8 16 20 1.95 0.00
 9 16 20 -5.39 0.00
 10 16 20 8.38 0.00
 11 16 20 -5.70 0.00
 12 16 20 6.26 0.00
 13 16 20 0.39 0.00
 14 16 20 -0.99 0.00
 15 16 20 4.89 0.00
 16 16 20 1.75 0.00
 0 17 20 0.12 0.00
 1 17 20 -8.38 0.00
 2 17 20 1.33 0.00
 3 17 20 -1.69 0.00
 4 17 20 -5.23 0.00
 5 17 20 -3.46 0.00
 6 17 20 1.62 0.00
 7 17 20 3.70 0.00
 8 17 20 -0.39 0.00
 9 17 20 -5.31 0.00
 10 17 20 6.15 0.00
 11 17 20 0.16 0.00
 12 17 20 -2.98 0.00
 13 17 20 4.70 0.00
 14 17 20 8.70 0.00
 15 17 20 -1.25 0.00
 16 17 20 4.77 0.00
 17 17 20 -3.01 0.00
 0 18 20 4.63 0.00
 1 18 20 3.70 0.00
 2 18 20 -1.17 0.00
 3 18 20 3.72 0.00
 4 18 20 -8.30 0.00
 5 18 20 0.46 0.00
 6 18 20 -2.27 0.00
 7 18 20 1.18 0.00
 8 18 20 -1.91 0.00
 9 18 20 5.59 0.00
 10 18 20 1.05 0.00
 11 18 20 3.88 0.00
 12 18 20 2.08 0.00
 13 18 20 -5.12 0.00
 14 18 20 4.00 0.00
 15 18 20 0.28 0.00
 16 18 20 4.95 0.00
 17 18 20 -4.15 0.00
 18 18 20 2.97 0.00
 0 19 20 -3.04 0.00
 1 19 20 -4.35 0.00
 2 19 20 7.00 0.00
 3 19 20 -3.71 0.00
 4 19 20 0.58 0.00
 5 19 20 -7.09 0.00
 6 19 20 -3.26 0.00
 7 19 20 2.26 0.00
 8 19 20 2.01 0.00
 9 19 20 -2.79 0.00
 10 19 20 6.26 0.00
 11 19 20 3.36 0.00
 12 19 20 -2.10 0.00
 13 19 20 -0.27 0.00
 14 19 20 2.91 0.00
 15 19 20 -4.82 0.00
 16 19 20 0.13 0.00
 17 19 20 -2.93 0.00
 18 19 20 2.30 0.00
 19 19 20 -3.20 0.00
 0 20 20 3.73 0.00
 2 20 20 14.16 0.00
 4 20 20 -2.99 0.00
 6 20 20 2.20 0.00
 8 20 20 2.18 0.00
 10 20 20 7.69 0.00
 12 20 20 5.24 0.00
 14 20 20 -5.90 0.00
 16 20 20 -7.38 0.00
 18 20 20 -1.32 0.00
 20 20 20 0.28 0.00
 5 7 21 1.12 0.00
 6 7 21 -12.59 0.00
 3 8 21 5.12 0.00
 4 8 21 -6.30 0.00
 5 8 21 -8.44 0.00
 6 8 21 8.68 0.00
 7 8 21 2.58 0.00
 0 9 21 -22.69 0.00
 1 9 21 6.02 0.00
 2 9 21 13.32 0.00
 3 9 21 2.22 0.00
 4 9 21 -7.21 0.00
 5 9 21 13.77 0.00
 6 9 21 12.89 0.00
 7 9 21 -12.01 0.00
 8 9 21 6.17 0.00
 0 10 21 -20.99 0.00
 1 10 21 -16.38 0.00
 2 10 21 -0.92 0.00
 3 10 21 -5.47 0.00
 4 10 21 -19.28 0.00
 5 10 21 -0.06 0.00
 6 10 21 -8.56 0.00
 7 10 21 -2.40 0.00
 8 10 21 -11.10 0.00
 9 10 21 6.51 0.00
 0 11 21 2.32 0.00
 1 11 21 -3.60 0.00
 2 11 21 2.41 0.00
 3 11 21 7.96 0.00
 4 11 21 -6.75 0.00
 5 11 21 3.62 0.00
 6 11 21 -8.61 0.00
 7 11 21 5.35 0.00
 8 11 21 -2.96 0.00
 9 11 21 -6.32 0.00
 10 11 21 6.36 0.00
 0 12 21 -4.57 0.00
 1 12 21 -4.41 0.00
 2 12 21 0.87 0.00
 3 12 21 -3.88 0.00
 4 12 21 -12.63 0.00
 5 12 21 -8.99 0.00
 6 12 21 6.77 0.00
 7 12 21 2.09 0.00
 8 12 21 4.64 0.00
 9 12 21 -1.38 0.00
 10 12 21 -8.25 0.00
 11 12 21 -4.24 0.00
 0 13 21 -20.64 0.00
 1 13 21 -4.72 0.00
 2 13 21 14.34 0.00
 3 13 21 1.47 0.00
 4 13 21 -12.89 0.00
 5 13 21 -3.78 0.00
 6 13 21 5.47 0.00
 7 13 21 -10.78 0.00
 8 13 21 6.03 0.00
 9 13 21 -6.23 0.00
 10 13 21 3.13 0.00
 11 13 21 -0.82 0.00
 12 13 21 -11.10 0.00
 0 14 21 -6.12 0.00
 1 14 21 0.37 0.00
 2 14 21 0.93 0.00
 3 14 21 6.25 0.00
 4 14 21 -7.17 0.00
 5 14 21 3.21 0.00
 6 14 21 0.67 0.00
 7 14 21 -2.40 0.00
 8 14 21 4.39 0.00
 9 14 21 0.88 0.00
 10 14 21 5.95 0.00
 11 14 21 3.37 0.00
 12 14 21 -0.40 0.00
 13 14 21 -3.97 0.00
 0 15 21 -10.55 0.00
 1 15 21 0.12 0.00
 2 15 21 3.20 0.00
 3 15 21 -4.90 0.00
 4 15 21 -8.88 0.00
 5 15 21 -0.36 0.00
 6 15 21 -0.42 0.00
 7 15 21 -2.68 0.00
 8 15 21 -1.98 0.00
 9 15 21 7.52 0.00
 10 15 21 1.62 0.00
 11 15 21 5.28 0.00
 12 15 21 -2.53 0.00
 13 15 21 3.19 0.00
 14 15 21 5.34 0.00
 0 16 21 -1.74 0.00
 1 16 21 -8.80 0.00
 2 16 21 5.51 0.00
 3 16 21 1.00 0.00
 4 16 21 -2.89 0.00
 5 16 21 0.62 0.00
 6 16 21 3.26 0.00
 7 16 21 -0.95 0.00
 8 16 21 -3.22 0.00
 9 16 21 5.01 0.00
 10 16 21 6.69 0.00
 11 16 21 5.39 0.00
 12 16 21 2.01 0.00
 13 16 21 -1.89 0.00
 14 16 21 3.23 0.00
 15 16 21 4.04 0.00
 0 17 21 -11.26 0.00
 1 17 21 0.23 0.00
 2 17 21 -2.43 0.00
 3 17 21 2.28 0.00
 4 17 21 -3.63 0.00
 5 17 21 4.15 0.00
 6 17 21 0.38 0.00
 7 17 21 2.21 0.00
 8 17 21 5.21 0.00
 9 17 21 -2.68 0.00
 10 17 21 0.72 0.00
 11 17 21 6.25 0.00
 12 17 21 -3.97 0.00
 13 17 21 0.25 0.00
 14 17 21 -1.23 0.00
 15 17 21 -0.71 0.00
 16 17 21 -4.87 0.00
 0 18 21 -7.24 0.00
 1 18 21 0.92 0.00
 2 18 21 -0.77 0.00
 3 18 21 2.63 0.00
 4 18 21 -7.93 0.00
 5 18 21 2.98 0.00
 6 18 21 4.40 0.00
 7 18 21 -0.23 0.00
 8 18 21 -5.98 0.00
 9 18 21 5.34 0.00
 10 18 21 -1.23 0.00
 11 18 21 2.25 0.00
 12 18 21 -4.13 0.00
 13 18 21 1.66 0.00
 14 18 21 0.44 0.00
 15 18 21 -0.62 0.00
 16 18 21 -8.11 0.00
 17 18 21 -2.92 0.00
 0 19 21 0.95 0.00
 1 19 21 -0.89 0.00
 2 19 21 2.61 0.00
 3 19 21 0.31 0.00
 4 19 21 6.00 0.00
 5 19 21 0.87 0.00
 6 19 21 2.30 0.00
 7 19 21 2.35 0.00
 8 19 21 3.41 0.00
 9 19 21 -3.61 0.00
 10 19 21 -1.49 0.00
 11 19 21 0.28 0.00
 12 19 21 -2.41 0.00
 13 19 21 6.33 0.00
 14 19 21 -0.69 0.00
 15 19 21 -0.14 0.00
 16 19 21 3.90 0.00
 17 19 21 -2.96 0.00
 18 19 21 3.21 0.00
 0 20 21 1.62 0.00
 1 20 21 -1.07 0.00
 2 20 21 2.34 0.00
 3 20 21 3.40 0.00
 4 20 21 -4.63 0.00
 5 20 21 -2.10 0.00
 6 20 21 -4.96 0.00
 7 20 21 2.00 0.00
 8 20 21 3.78 0.00
 9 20 21 2.76 0.00
 10 20 21 3.02 0.00
 11 20 21 -0.95 0.00
 12 20 21 -1.76 0.00
 13 20 21 -0.51 0.00
 14 20 21 -4.37 0.00
 15 20 21 -1.71 0.00
 16 20 21 0.85 0.00
 17 20 21 0.11 0.00
 18 20 21 3.40 0.00
 19 20 21 1.15 0.00
 0 21 21 -13.09 0.00
 2 21 21 -7.41 0.00
 4 21 21 -4.02 0.00
 6 21 21 -0.41 0.00
 8 21 21 2.66 0.00
 10 21 21 1.01 0.00
 12 21 21 -2.67 0.00
 14 21 21 4.99 0.00
 16 21 21 -0.63 0.00
 18 21 21 1.26 0.00
 20 21 21 2.41 0.00
 4 4 22 -2.20 0.00
 3 5 22 4.10 0.00
 4 5 22 -4.95 0.00
 5 5 22 2.65 0.00
 0 6 22 19.90 0.00
 1 6 22 -4.65 0.00
 2 6 22 -2.93 0.00
 3 6 22 -6.27 0.00
 4 6 22 -9.31 0.00
 5 6 22 -7.72 0.00
 6 6 22 6.49 0.00
 0 7 22 -4.19 0.00
 1 7 22 1.90 0.00
 2 7 22 5.72 0.00
 3 7 22 -0.51 0.00
 4 7 22 -16.46 0.00
 5 7 22 13.22 0.00
 6 7 22 -8.41 0.00
 7 7 22 -8.41 0.00
 0 8 22 -21.59 0.00
 1 8 22 0.08 0.00
 2 8 22 1.82 0.00
 3 8 22 9.88 0.00
 4 8 22 6.77 0.00
 5 8 22 11.42 0.00
 6 8 22 5.51 0.00
 7 8 22 -7.59 0.00
 8 8 22 -16.81 0.00
 0 9 22 3.78 0.00
 1 9 22 3.04 0.00
 2 9 22 -6.85 0.00
 3 9 22 -11.56 0.00
 4 9 22 -1.83 0.00
 5 9 22 -6.64 0.00
 6 9 22 -4.29 0.00
 7 9 22 1.75 0.00
 8 9 22 -5.07 0.00
 9 9 22 -0.43 0.00
 0 10 22 16.18 0.00
 1 10 22 3.69 0.00
 2 10 22 0.44 0.00
 3 10 22 0.52 0.00
 4 10 22 -10.16 0.00
 5 10 22 7.25 0.00
 6 10 22 1.98 0.00
 7 10 22 -2.03 0.00
 8 10 22 3.70 0.00
 9 10 22 1.74 0.00
 10 10 22 -1.56 0.00
 0 11 22 -4.94 0.00
 1 11 22 -0.13 0.00
 2 11 22 12.45 0.00
 3 11 22 -9.23 0.00
 4 11 22 5.56 0.00
 5 11 22 -3.04 0.00
 6 11 22 -1.28 0.00
 7 11 22 -7.88 0.00
 8 11 22 -3.80 0.00
 9 11 22 -1.65 0.00
 10 11 22 7.47 0.00
 11 11 22 -0.88 0.00
 0 12 22 6.55 0.00
 1 12 22 0.68 0.00
 2 12 22 10.12 0.00
 3 12 22 -2.29 0.00
 4 12 22 3.58 0.00
 5 12 22 -0.50 0.00
 6 12 22 -1.93 0.00
 7 12 22 0.42 0.00
 8 12 22 5.01 0.00
 9 12 22 -2.07 0.00
 10 12 22 6.55 0.00
 11 12 22 -6.39 0.00
 12 12 22 3.86 0.00
 0 13 22 -7.40 0.00
 1 13 22 1.70 0.00
 2 13 22 -0.95 0.00
 3 13 22 3.61 0.00
 4 13 22 2.84 0.00
 5 13 22 7.99 0.00
 6 13 22 2.80 0.00
 7 13 22 6.74 0.00
 8 13 22 8.18 0.00
 9 13 22 -2.42 0.00
 10 13 22 -5.00 0.00
 11 13 22 -1.82 0.00
 12 13 22 4.12 0.00
 13 13 22 3.66 0.00
 0 14 22 -2.55 0.00
 1 14 22 10.98 0.00
 2 14 22 -3.55 0.00
 3 14 22 5.15 0.00
 4 14 22 -18.55 0.00
 5 14 22 2.29 0.00
 6 14 22 -15.26 0.00
 7 14 22 4.55 0.00
 8 14 22 -3.63 0.00
 9 14 22 6.06 0.00
 10 14 22 -7.99 0.00
 11 14 22 7.06 0.00
 12 14 22 -1.40 0.00
 13 14 22 2.42 0.00
 14 14 22 -5.86 0.00
 0 15 22 -4.96 0.00
 1 15 22 -2.45 0.00
 2 15 22 0.28 0.00
 3 15 22 -2.78 0.00
 4 15 22 0.78 0.00
 5 15 22 9.72 0.00
 6 15 22 0.97 0.00
 7 15 22 3.86 0.00
 8 15 22 -0.67 0.00
 9 15 22 -0.37 0.00
 10 15 22 -5.72 0.00
 11 15 22 -2.19 0.00
 12 15 22 1.84 0.00
 13 15 22 5.79 0.00
 14 15 22 -1.69 0.00
 15 15 22 2.33 0.00
 0 16 22 7.09 0.00
 1 16 22 -2.85 0.00
 2 16 22 4.72 0.00
 3 16 22 -1.16 0.00
 4 16 22 -4.10 0.00
 5 16 22 -7.65 0.00
 6 16 22 -6.26 0.00
 7 16 22 -0.60 0.00
 8 16 22 11.14 0.00
 9 16 22 -3.63 0.00
 10 16 22 3.39 0.00
 11 16 22 -5.70 0.00
 12 16 22 -2.91 0.00
 13 16 22 -3.52 0.00
 14 16 22 -6.39 0.00
 15 16 22 -2.81 0.00
 16 16 22 -8.26 0.00
 0 17 22 -4.58 0.00
 1 17 22 -0.25 0.00
 2 17 22 -3.12 0.00
 3 17 22 -1.23 0.00
 4 17 22 -6.18 0.00
 5 17 22 -2.11 0.00
 6 17 22 -5.41 0.00
 7 17 22 1.27 0.00
 8 17 22 0.28 0.00
 9 17 22 -2.00 0.00
 10 17 22 -8.24 0.00
 11 17 22 -4.47 0.00
 12 17 22 -2.22 0.00
 13 17 22 -8.01 0.00
 14 17 22 -0.97 0.00
 15 17 22 1.56 0.00
 16 17 22 0.29 0.00
 17 17 22 3.40 0.00
 0 18 22 13.13 0.00
 1 18 22 4.32 0.00
 2 18 22 2.08 0.00
 3 18 22 2.62 0.00
 4 18 22 -2.20 0.00
 5 18 22 -3.64 0.00
 6 18 22 0.58 0.00
 7 18 22 1.16 0.00
 8 18 22 1.13 0.00
 9 18 22 1.48 0.00
 10 18 22 6.90 0.00
 11 18 22 3.50 0.00
 12 18 22 7.87 0.00
 13 18 22 -4.46 0.00
 14 18 22 2.45 0.00
 15 18 22 -0.36 0.00
 16 18 22 -0.43 0.00
 17 18 22 -3.56 0.00
 18 18 22 6.27 0.00
 0 19 22 5.18 0.00
 1 19 22 -7.44 0.00
 2 19 22 5.16 0.00
 3 19 22 -3.66 0.00
 4 19 22 7.67 0.00
 5 19 22 -3.20 0.00
 6 19 22 1.64 0.00
 7 19 22 -5.69 0.00
 8 19 22 0.84 0.00
 9 19 22 -9.77 0.00
 10 19 22 -1.00 0.00
 11 19 22 -1.83 0.00
 12 19 22 5.12 0.00
 13 19 22 0.25 0.00
 14 19 22 4.40 0.00
 15 19 22 -1.00 0.00
 16 19 22 3.51 0.00
 17 19 22 -1.17 0.00
 18 19 22 4.72 0.00
 19 19 22 1.81 0.00
 0 20 22 1.36 0.00
 1 20 22 -6.05 0.00
 2 20 22 -0.34 0.00
 3 20 22 0.77 0.00
 4 20 22 -0.40 0.00
 5 20 22 -3.05 0.00
 6 20 22 -1.71 0.00
 7 20 22 -0.22 0.00
 8 20 22 2.74 0.00
 9 20 22 1.91 0.00
 10 20 22 1.38 0.00
 11 20 22 -0.82 0.00
 12 20 22 6.07 0.00
 13 20 22 1.04 0.00
 14 20 22 0.14 0.00
 15 20 22 2.52 0.00
 16 20 22 2.11 0.00
 17 20 22 2.47 0.00
 18 20 22 4.59 0.00
 19 20 22 1.26 0.00
 20 20 22 3.13 0.00
 0 21 22 -0.93 0.00
 1 21 22 1.63 0.00
 2 21 22 -2.76 0.00
 3 21 22 3.49 0.00
 4 21 22 -1.61 0.00
 5 21 22 0.78 0.00
 6 21 22 0.58 0.00
 7 21 22 2.93 0.00
 8 21 22 0.47 0.00
 9 21 22 -3.68 0.00
 10 21 22 1.06 0.00
 11 21 22 2.13 0.00
 12 21 22 0.45 0.00
 13 21 22 -1.55 0.00
 14 21 22 0.51 0.00
 15 21 22 -2.16 0.00
 16 21 22 0.17 0.00
 17 21 22 -2.75 0.00
 18 21 22 -0.17 0.00
 19 21 22 -0.75 0.00
 20 21 22 -1.77 0.00
 21 21 22 -3.22 0.00
 0 22 22 9.17 0.00
 2 22 22 -0.55 0.00
 4 22 22 -2.57 0.00
 6 22 22 -5.76 0.00
 8 22 22 4.49 0.00
 10 22 22 -5.48 0.00
 12 22 22 3.82 0.00
 14 22 22 -3.18 0.00
 16 22 22 -3.46 0.00
 18 22 22 3.66 0.00
 20 22 22 2.67 0.00
 22 22 22 1.02 0.00
 0 1 23 23.28 0.00
 0 2 23 -1.79 0.00
 1 2 23 -20.59 0.00
 0 3 23 5.31 0.00
 1 3 23 -14.22 0.00
 2 3 23 -8.04 0.00
 0 4 23 -15.82 0.00
 1 4 23 9.44 0.00
 2 4 23 -14.44 0.00
 3 4 23 -2.46 0.00
 0 5 23 14.74 0.00
 1 5 23 -1.98 0.00
 2 5 23 2.66 0.00
 3 5 23 12.59 0.00
 4 5 23 10.68 0.00
 0 6 23 11.03 0.00
 1 6 23 -9.64 0.00
 2 6 23 9.12 0.00
 3 6 23 -3.81 0.00
 4 6 23 9.78 0.00
 5 6 23 9.09 0.00
 0 7 23 12.57 0.00
 1 7 23 3.23 0.00
 2 7 23 -12.92 0.00
 3 7 23 2.34 0.00
 4 7 23 -3.57 0.00
 5 7 23 -3.84 0.00
 6 7 23 6.64 0.00
 0 8 23 -5.11 0.00
 1 8 23 -5.91 0.00
 2 8 23 12.83 0.00
 3 8 23 -19.85 0.00
 4 8 23 -5.96 0.00
 5 8 23 -0.63 0.00
 6 8 23 -2.38 0.00
 7 8 23 -13.39 0.00
 0 9 23 2.35 0.00
 1 9 23 -6.51 0.00
 2 9 23 -8.67 0.00
 3 9 23 13.19 0.00
 4 9 23 -5.80 0.00
 5 9 23 -0.81 0.00
 6 9 23 2.91 0.00
 7 9 23 -4.91 0.00
 8 9 23 -6.56 0.00
 0 10 23 -4.51 0.00
 1 10 23 9.25 0.00
 2 10 23 4.95 0.00
 3 10 23 7.73 0.00
 4 10 23 2.23 0.00
 5 10 23 1.07 0.00
 6 10 23 -6.21 0.00
 7 10 23 5.88 0.00
 8 10 23 -9.13 0.00
 9 10 23 2.91 0.00
 0 11 23 4.61 0.00
 1 11 23 -1.02 0.00
 2 11 23 3.89 0.00
 3 11 23 6.24 0.00
 4 11 23 -2.72 0.00
 5 11 23 0.81 0.00
 6 11 23 3.20 0.00
 7 11 23 2.20 0.00
 8 11 23 -5.10 0.00
 9 11 23 9.73 0.00
 10 11 23 1.06 0.00
 0 12 23 -3.14 0.00
 1 12 23 -3.18 0.00
 2 12 23 1.65 0.00
 3 12 23 -4.34 0.00
 4 12 23 -6.77 0.00
 5 12 23 6.70 0.00
 6 12 23 -1.79 0.00
 7 12 23 4.77 0.00
 8 12 23 -3.64 0.00
 9 12 23 3.45 0.00
 10 12 23 3.67 0.00
 11 12 23 2.12 0.00
 0 13 23 -18.05 0.00
 1 13 23 -1.99 0.00
 2 13 23 -4.64 0.00
 3 13 23 4.91 0.00
 4 13 23 -8.00 0.00
 5 13 23 1.25 0.00
 6 13 23 -1.62 0.00
 7 13 23 0.75 0.00
 8 13 23 -8.49 0.00
 9 13 23 6.17 0.00
 10 13 23 -0.25 0.00
 11 13 23 -0.10 0.00
 12 13 23 -3.99 0.00
 0 14 23 -2.64 0.00
 1 14 23 -2.43 0.00
 2 14 23 3.22 0.00
 3 14 23 -4.20 0.00
 4 14 23 -7.82 0.00
 5 14 23 0.70 0.00
 6 14 23 -3.96 0.00
 7 14 23 3.43 0.00
 8 14 23 1.45 0.00
 9 14 23 0.15 0.00
 10 14 23 5.27 0.00
 11 14 23 0.29 0.00
 12 14 23 -0.33 0.00
 13 14 23 -1.99 0.00
 0 15 23 -1.78 0.00
 1 15 23 -0.04 0.00
 2 15 23 7.69 0.00
 3 15 23 3.34 0.00
 4 15 23 6.02 0.00
 5 15 23 -11.02 0.00
 6 15 23 17.76 0.00
 7 15 23 3.11 0.00
 8 15 23 -3.63 0.00
 9 15 23 -4.52 0.00
 10 15 23 2.52 0.00
 11 15 23 -2.79 0.00
 12 15 23 1.34 0.00
 13 15 23 -3.97 0.00
 14 15 23 4.08 0.00
 0 16 23 -9.96 0.00
 1 16 23 -2.53 0.00
 2 16 23 8.49 0.00
 3 16 23 0.76 0.00
 4 16 23 2.00 0.00
 5 16 23 6.25 0.00
 6 16 23 -0.85 0.00
 7 16 23 2.31 0.00
 8 16 23 3.69 0.00
 9 16 23 -8.71 0.00
 10 16 23 8.21 0.00
 11 16 23 -0.74 0.00
 12 16 23 2.88 0.00
 13 16 23 -2.26 0.00
 14 16 23 1.43 0.00
 15 16 23 -0.59 0.00
 0 17 23 -6.84 0.00
 1 17 23 0.03 0.00
 2 17 23 2.18 0.00
 3 17 23 3.74 0.00
 4 17 23 -5.33 0.00
 5 17 23 2.83 0.00
 6 17 23 2.27 0.00
 7 17 23 5.41 0.00
 8 17 23 -3.41 0.00
 9 17 23 0.37 0.00
 10 17 23 -2.02 0.00
 11 17 23 1.97 0.00
 12 17 23 6.74 0.00
 13 17 23 -0.47 0.00
 14 17 23 6.28 0.00
 15 17 23 3.26 0.00
 16 17 23 1.24 0.00
 0 18 23 -4.25 0.00
 1 18 23 -1.04 0.00
 2 18 23 5.43 0.00
 3 18 23 -3.23 0.00
 4 18 23 -4.04 0.00
 5 18 23 -4.58 0.00
 6 18 23 -0.42 0.00
 7 18 23 6.90 0.00
 8 18 23 -2.74 0.00
 9 18 23 -2.84 0.00
 10 18 23 2.75 0.00
 11 18 23 -1.70 0.00
 12 18 23 -2.41 0.00
 13 18 23 -1.13 0.00
 14 18 23 -0.36 0.00
 15 18 23 2.92 0.00
 16 18 23 -2.82 0.00
 17 18 23 -1.14 0.00
 0 19 23 -2.09 0.00
 1 19 23 -2.06 0.00
 2 19 23 1.57 0.00
 3 19 23 2.42 0.00
 4 19 23 0.89 0.00
 5 19 23 -1.38 0.00
 6 19 23 -1.56 0.00
 7 19 23 2.58 0.00
 8 19 23 -3.23 0.00
 9 19 23 2.50 0.00
 10 19 23 -0.23 0.00
 11 19 23 -1.41 0.00
 12 19 23 -2.88 0.00
 13 19 23 0.67 0.00
 14 19 23 -3.83 0.00
 15 19 23 1.99 0.00
 16 19 23 -0.41 0.00
 17 19 23 2.15 0.00
 18 19 23 0.21 0.00
 0 20 23 -5.68 0.00
 1 20 23 4.29 0.00
 2 20 23 -1.51 0.00
 3 20 23 1.40 0.00
 4 20 23 -5.66 0.00
 5 20 23 -3.75 0.00
 6 20 23 -0.47 0.00
 7 20 23 6.07 0.00
 8 20 23 -1.29 0.00
 9 20 23 2.63 0.00
 10 20 23 -2.51 0.00
 11 20 23 1.53 0.00
 12 20 23 -1.45 0.00
 13 20 23 -1.53 0.00
 14 20 23 -5.14 0.00
 15 20 23 -1.46 0.00
 16 20 23 -5.19 0.00
 17 20 23 2.12 0.00
 18 20 23 -1.50 0.00
 19 20 23 -2.97 0.00
 0 21 23 -2.66 0.00
 1 21 23 4.22 0.00
 2 21 23 2.82 0.00
 3 21 23 1.46 0.00
 4 21 23 1.49 0.00
 5 21 23 3.62 0.00
 6 21 23 -1.73 0.00
 7 21 23 1.54 0.00
 8 21 23 -1.79 0.00
 9 21 23 -0.98 0.00
 10 21 23 -3.73 0.00
 11 21 23 -1.34 0.00
 12 21 23 -1.95 0.00
 13 21 23 -1.42 0.00
 14 21 23 -1.56 0.00
 15 21 23 -1.05 0.00
 16 21 23 -0.13 0.00
 17 21 23 -0.93 0.00
 18 21 23 -3.57 0.00
 19 21 23 1.29 0.00
 20 21 23 -0.37 0.00
 0 22 23 5.48 0.00
 1 22 23 0.52 0.00
 2 22 23 -2.37 0.00
 3 22 23 1.60 0.00
 4 22 23 -2.06 0.00
 5 22 23 -0.67 0.00
 6 22 23 -1.70 0.00
 7 22 23 3.76 0.00
 8 22 23 -2.97 0.00
 9 22 23 1.29 0.00
 10 22 23 -0.20 0.00
 11 22 23 1.68 0.00
 12 22 23 1.53 0.00
 13 22 23 4.12 0.00
 14 22 23 -1.72 0.00
 15 22 23 4.10 0.00
 16 22 23 -2.11 0.00
 17 22 23 2.91 0.00
 18 22 23 1.69 0.00
 19 22 23 1.08 0.00
 20 22 23 0.31 0.00
 21 22 23 -0.81 0.00
 0 23 23 -2.58 0.00
 2 23 23 -2.21 0.00
 4 23 23 1.31 0.00
 6 23 23 -4.17 0.00
 8 23 23 1.13 0.00
 10 23 23 3.68 0.00
 12 23 23 3.72 0.00
 14 23 23 -3.40 0.00
 16 23 23 1.77 0.00
 18 23 23 0.39 0.00
 20 23 23 -3.08 0.00
 22 23 23 0.72 0.00
 0 0 0 0.00 0.00
# SQUEEZE RESULTS (Version = 91117)
# Note: Data are Listed for all Voids in the P1 Unit Cell
# i.e. Centre of Gravity, Solvent Accessible Volume,
# Recovered number of Electrons in the Void and
# Details about the Squeezed Material
;
_platon_squeeze_void_probe_radius 1.20
_olex2_exptl_crystal_mounting_method
'The prepared crystal was mounted on the goniometer with mineral oil'
_olex2_submission_original_sample_id MOF-1004_100K_DMF
_olex2_submission_special_instructions 'No special instructions were received'
loop_
_space_group_symop_operation_xyz
'x, y, z'
'-y+1/2, x+1/2, z+1/2'
'-x, -y, z'
'y+1/2, -x+1/2, z+1/2'
'x+1/2, -z+1/2, y+1/2'
'x, -y, -z'
'x+1/2, z+1/2, -y+1/2'
'z+1/2, y+1/2, -x+1/2'
'-x, y, -z'
'-z+1/2, y+1/2, x+1/2'
'z, x, y'
'y, z, x'
'-y, -z, x'
'z, -x, -y'
'-y, z, -x'
'-z, -x, y'
'-z, x, -y'
'y, -z, -x'
'y+1/2, x+1/2, -z+1/2'
'-y+1/2, -x+1/2, -z+1/2'
'-x+1/2, z+1/2, y+1/2'
'-x+1/2, -z+1/2, -y+1/2'
'z+1/2, -y+1/2, x+1/2'
'-z+1/2, -y+1/2, -x+1/2'
'-x, -y, -z'
'y-1/2, -x-1/2, -z-1/2'
'x, y, -z'
'-y-1/2, x-1/2, -z-1/2'
'-x-1/2, z-1/2, -y-1/2'
'-x, y, z'
'-x-1/2, -z-1/2, y-1/2'
'-z-1/2, -y-1/2, x-1/2'
'x, -y, z'
'z-1/2, -y-1/2, -x-1/2'
'-z, -x, -y'
'-y, -z, -x'
'y, z, -x'
'-z, x, y'
'y, -z, x'
'z, x, -y'
'z, -x, y'
'-y, z, x'
'-y-1/2, -x-1/2, z-1/2'
'y-1/2, x-1/2, z-1/2'
'x-1/2, -z-1/2, -y-1/2'
'x-1/2, z-1/2, y-1/2'
'-z-1/2, y-1/2, -x-1/2'
'z-1/2, y-1/2, x-1/2'
loop_
_atom_site_label
_atom_site_type_symbol
_atom_site_fract_x
_atom_site_fract_y
_atom_site_fract_z
_atom_site_U_iso_or_equiv
_atom_site_adp_type
_atom_site_occupancy
_atom_site_site_symmetry_order
_atom_site_calc_flag
_atom_site_refinement_flags_posn
_atom_site_refinement_flags_adp
_atom_site_refinement_flags_occupancy
Zr1 Zr 0.04320(12) 0.750000 0.45680(12) 0.362(4) Uani 1 2 d DS TU P
C20 C 0.2450(13) 0.500000 0.103(3) 0.44(4) Uani 1 2 d DS TU P
O4 O 0.0315(6) 0.6600(7) 0.4691(6) 0.398(13) Uani 1 1 d . U .
C14 C 0.1899(14) 0.500000 0.2639(12) 0.51(3) Uani 1 2 d DS TU P
C11 C 0.1619(10) 0.5314(7) 0.3068(9) 0.57(2) Uani 1 1 d D U .
H11 H 0.167229 0.551365 0.295764 0.686 Uiso 1 1 calc R . .
C16 C 0.2163(16) 0.500000 0.2072(9) 0.48(2) Uani 1 2 d DS TU P
C15 C 0.2006(13) 0.500000 0.2387(12) 0.51(2) Uani 1 2 d DS TU P
C10 C 0.1435(12) 0.5307(7) 0.3360(11) 0.60(2) Uani 1 1 d D U .
C9 C 0.134(2) 0.5616(13) 0.3527(15) 0.62(2) Uani 1 1 d D U .
Zr2 Zr 0.000000 0.6886(3) 0.500000 0.375(6) Uani 1 4 d S TU P
O3 O 0.0627(6) 0.7057(7) 0.4357(5) 0.361(10) Uani 1 1 d . U .
C6 C 0.0838(8) 0.5941(5) 0.4140(8) 0.60(2) Uani 1 1 d D U .
H6 H 0.081369 0.571051 0.417630 0.720 Uiso 1 1 calc R . .
C7 C 0.1047(7) 0.6054(8) 0.3893(7) 0.56(2) Uani 1 1 d DG U .
C5 C 0.1083(6) 0.6390(8) 0.3840(6) 0.524(19) Uani 1 1 d DG U .
H5 H 0.122621 0.646754 0.367112 0.629 Uiso 1 1 calc R . .
C3 C 0.0909(8) 0.6614(6) 0.4032(7) 0.523(19) Uani 1 1 d DG U .
H3 H 0.093330 0.684383 0.399581 0.628 Uiso 1 1 calc R . .
C2 C 0.0699(7) 0.6501(6) 0.4279(6) 0.523(19) Uani 1 1 d DG U .
C4 C 0.0664(7) 0.6164(7) 0.4333(6) 0.553(19) Uani 1 1 d DG U .
H4 H 0.052077 0.608681 0.450099 0.664 Uiso 1 1 calc R . .
C1 C 0.0523(14) 0.6731(10) 0.4491(11) 0.45(2) Uani 1 1 d D U .
C12 C 0.1353(16) 0.500000 0.3516(12) 0.59(3) Uani 1 2 d DS TU P
H12 H 0.124460 0.499999 0.372374 0.708 Uiso 1 2 calc RS T P
C13 C 0.1721(18) 0.500000 0.2949(14) 0.57(3) Uani 1 2 d DS TU P
C8 C 0.126(2) 0.5815(12) 0.3716(15) 0.62(2) Uani 1 1 d D U .
O5 O 0.2482(6) 0.4689(5) 0.0947(10) 0.438(17) Uani 1 1 d D U .
C19 C 0.2320(16) 0.500000 0.1409(10) 0.46(3) Uani 1 2 d DS TU P
C17 C 0.2246(9) 0.5291(4) 0.1923(8) 0.480(18) Uani 1 1 d D U .
H17 H 0.224885 0.549224 0.204395 0.576 Uiso 1 1 calc R . .
C18 C 0.2328(8) 0.5283(6) 0.1587(7) 0.445(17) Uani 1 1 d D U .
H18 H 0.239055 0.548214 0.148116 0.534 Uiso 1 1 calc R . .
O2 O 0.0404(13) 0.7145(9) 0.500000 0.407(19) Uani 1 2 d S T P
O1 O 0.000000 0.7263(13) 0.4617(8) 0.394(16) Uani 1 2 d S TU P
H2 H 0.064030 0.702280 0.500000 0.473 Uiso 1 2 d RS T P
loop_
_atom_site_aniso_label
_atom_site_aniso_U_11
_atom_site_aniso_U_22
_atom_site_aniso_U_33
_atom_site_aniso_U_23
_atom_site_aniso_U_13
_atom_site_aniso_U_12
Zr1 0.302(6) 0.483(12) 0.302(6) -0.008(6) 0.017(7) -0.008(6)
C20 0.45(6) 0.45(7) 0.43(5) 0.000 0.09(5) 0.000
O4 0.32(2) 0.56(4) 0.32(3) -0.02(2) -0.028(17) 0.03(2)
C14 0.62(6) 0.55(5) 0.35(6) 0.000 0.13(6) 0.000
C11 0.74(5) 0.45(4) 0.52(5) -0.03(3) 0.23(4) -0.04(3)
C16 0.67(5) 0.44(4) 0.34(5) 0.000 0.10(4) 0.000
C15 0.65(5) 0.50(4) 0.36(6) 0.000 0.10(5) 0.000
C10 0.79(6) 0.47(5) 0.55(6) -0.02(3) 0.20(4) -0.02(3)
C9 0.83(7) 0.62(7) 0.42(8) -0.05(5) 0.31(5) -0.01(7)
Zr2 0.293(11) 0.464(16) 0.368(17) 0.000 0.000 0.000
O3 0.36(3) 0.46(3) 0.26(2) 0.03(2) -0.02(2) 0.01(3)
C6 0.70(5) 0.59(4) 0.52(5) 0.00(4) 0.15(4) 0.06(4)
C7 0.68(5) 0.53(4) 0.46(4) 0.00(4) 0.12(3) 0.09(4)
C5 0.66(4) 0.48(4) 0.44(4) 0.03(4) 0.09(3) 0.02(4)
C3 0.64(5) 0.50(4) 0.43(4) 0.01(3) 0.09(3) 0.06(4)
C2 0.64(4) 0.50(4) 0.43(4) 0.01(4) 0.09(3) 0.10(4)
C4 0.68(4) 0.48(4) 0.49(4) -0.04(4) 0.14(3) 0.09(4)
C1 0.55(5) 0.45(4) 0.36(5) 0.11(4) 0.07(3) 0.13(4)
C12 0.79(6) 0.45(6) 0.53(6) 0.000 0.23(5) 0.000
C13 0.74(6) 0.47(7) 0.49(6) 0.000 0.23(5) 0.000
C8 0.83(7) 0.62(7) 0.42(8) -0.05(5) 0.31(5) -0.01(7)
O5 0.46(3) 0.36(3) 0.50(5) 0.09(5) 0.06(4) 0.04(3)
C19 0.59(4) 0.42(5) 0.39(4) 0.000 0.05(4) 0.000
C17 0.67(4) 0.42(3) 0.35(4) -0.03(3) 0.07(4) -0.03(3)
C18 0.63(3) 0.38(3) 0.32(4) -0.05(3) 0.05(4) -0.04(3)
O2 0.60(9) 0.37(5) 0.25(4) 0.000 0.000 0.04(5)
O1 0.39(5) 0.55(7) 0.25(4) -0.02(2) 0.000 0.000
loop_
_atom_type_symbol
_atom_type_description
_atom_type_scat_dispersion_real
_atom_type_scat_dispersion_imag
_atom_type_scat_source
C C 0.0100 0.0050 'International Tables Vol C Tables 4.2.6.8 and 6.1.1.4'
H H 0.0000 0.0000 'International Tables Vol C Tables 4.2.6.8 and 6.1.1.4'
O O 0.0300 0.0170 'International Tables Vol C Tables 4.2.6.8 and 6.1.1.4'
Zr Zr -0.6830 1.3210 'International Tables Vol C Tables 4.2.6.8 and 6.1.1.4'
loop_
_geom_angle_atom_site_label_1
_geom_angle_atom_site_label_2
_geom_angle_atom_site_label_3
_geom_angle
_geom_angle_site_symmetry_1
_geom_angle_site_symmetry_3
Zr1 Zr1 Zr1 89.997(1) 27_556 30
Zr1 Zr1 Zr2 60.09(11) 30 32_676
Zr1 Zr1 Zr2 60.09(11) 27_556 .
Zr1 Zr1 Zr2 60.09(11) 30 .
Zr1 Zr1 Zr2 60.09(11) 27_556 32_676
Zr2 Zr1 Zr2 90.3(4) 32_676 .
O3 Zr1 Zr1 113.6(6) 24_565 30
O3 Zr1 Zr1 113.6(6) . 27_556
O3 Zr1 Zr1 111.7(6) . 30
O3 Zr1 Zr1 111.7(6) 24_565 27_556
O3 Zr1 Zr2 77.8(6) 24_565 32_676
O3 Zr1 Zr2 77.8(6) . .
O3 Zr1 Zr2 168.0(7) . 32_676
O3 Zr1 Zr2 168.0(7) 24_565 .
O3 Zr1 O3 114.1(12) . 24_565
O3 Zr1 O5 70.6(8) . 28_666
O3 Zr1 O5 76.1(8) . 41_565
O3 Zr1 O5 76.1(8) 24_565 28_666
O3 Zr1 O5 70.6(9) 24_565 41_565
O3 Zr1 O2 146.8(12) 24_565 .
O3 Zr1 O2 78.2(9) . .
O3 Zr1 O2 78.2(9) 24_565 34_576
O3 Zr1 O2 146.8(12) . 34_576
O5 Zr1 Zr1 166.6(6) 41_565 30
O5 Zr1 Zr1 166.6(6) 28_666 27_556
O5 Zr1 Zr1 76.8(7) 28_666 30
O5 Zr1 Zr1 76.8(7) 41_565 27_556
O5 Zr1 Zr2 110.4(6) 41_565 32_676
O5 Zr1 Zr2 113.2(7) 41_565 .
O5 Zr1 Zr2 110.4(6) 28_666 .
O5 Zr1 Zr2 113.2(7) 28_666 32_676
O5 Zr1 O5 116.5(13) 41_565 28_666
O5 Zr1 O2 135.9(11) 41_565 34_576
O5 Zr1 O2 135.9(11) 28_666 .
O5 Zr1 O2 83.9(15) 28_666 34_576
O5 Zr1 O2 83.9(15) 41_565 .
O2 Zr1 Zr1 87.1(13) 34_576 27_556
O2 Zr1 Zr1 87.1(13) . 30
O2 Zr1 Zr1 39.5(7) 34_576 30
O2 Zr1 Zr1 39.5(7) . 27_556
O2 Zr1 Zr2 30.8(13) . .
O2 Zr1 Zr2 92.3(7) 34_576 .
O2 Zr1 Zr2 30.8(13) 34_576 32_676
O2 Zr1 Zr2 92.3(7) . 32_676
O2 Zr1 O2 109(2) 34_576 .
O1 Zr1 Zr1 29.2(13) . 30
O1 Zr1 Zr1 84.4(9) . 27_556
O1 Zr1 Zr1 84.4(9) 32_676 30
O1 Zr1 Zr1 29.2(13) 32_676 27_556
O1 Zr1 Zr2 81.6(12) . 32_676
O1 Zr1 Zr2 34.6(12) 32_676 32_676
O1 Zr1 Zr2 34.6(12) . .
O1 Zr1 Zr2 81.6(12) 32_676 .
O1 Zr1 O3 141.8(14) 32_676 .
O1 Zr1 O3 87.7(14) . .
O1 Zr1 O3 141.8(14) . 24_565
O1 Zr1 O3 87.7(14) 32_676 24_565
O1 Zr1 O5 83.1(12) . 28_666
O1 Zr1 O5 147.4(14) 32_676 28_666
O1 Zr1 O5 83.1(12) 32_676 41_565
O1 Zr1 O5 147.4(14) . 41_565
O1 Zr1 O2 67.9(12) 32_676 .
O1 Zr1 O2 65.0(12) . .
O1 Zr1 O2 67.9(12) . 34_576
O1 Zr1 O2 65.0(12) 32_676 34_576
O1 Zr1 O1 93.3(19) 32_676 .
O5 C20 O5 147(10) . 33_565
O5 C20 C19 107(7) 33_565 .
O5 C20 C19 107(7) . .
C1 O4 Zr2 123(3) . .
C15 C14 C13 173(7) . .
C10 C11 C13 115(3) . .
C17 C16 C15 120.2(16) . .
C17 C16 C15 120.2(16) 33_565 .
C17 C16 C17 119(3) 33_565 .
C14 C15 C16 177(6) . .
C11 C10 C9 120(3) . .
C11 C10 C12 121(3) . .
C12 C10 C9 118(4) . .
C8 C9 C10 165(8) . .
Zr1 Zr2 Zr1 59.8(2) 9_556 30
Zr1 Zr2 Zr1 89.7(4) 9_556 .
Zr1 Zr2 Zr1 59.8(2) 27_556 .
Zr1 Zr2 Zr1 59.8(2) 30 .
Zr1 Zr2 Zr1 89.7(4) 27_556 30
Zr1 Zr2 Zr1 59.8(2) 27_556 9_556
O4 Zr2 Zr1 167.8(8) 30 27_556
O4 Zr2 Zr1 78.1(6) 9_556 9_556
O4 Zr2 Zr1 167.8(8) 27_556 30
O4 Zr2 Zr1 78.1(6) 30 30
O4 Zr2 Zr1 112.3(7) . 27_556
O4 Zr2 Zr1 113.1(7) 9_556 27_556
O4 Zr2 Zr1 78.1(7) 27_556 27_556
O4 Zr2 Zr1 112.3(7) 27_556 .
O4 Zr2 Zr1 113.1(7) . 30
O4 Zr2 Zr1 113.1(7) 27_556 9_556
O4 Zr2 Zr1 78.1(7) . .
O4 Zr2 Zr1 112.3(7) 9_556 30
O4 Zr2 Zr1 112.3(7) 30 9_556
O4 Zr2 Zr1 113.1(7) 30 .
O4 Zr2 Zr1 167.8(8) 9_556 .
O4 Zr2 Zr1 167.8(8) . 9_556
O4 Zr2 O4 71.9(14) . 27_556
O4 Zr2 O4 73.7(14) 9_556 27_556
O4 Zr2 O4 71.9(14) 30 9_556
O4 Zr2 O4 114.1(14) 30 27_556
O4 Zr2 O4 73.7(14) . 30
O4 Zr2 O4 114.1(14) . 9_556
O4 Zr2 O1 87.9(10) . .
O4 Zr2 O1 87.9(10) 30 .
O4 Zr2 O1 87.9(10) 27_556 27_556
O4 Zr2 O1 143.1(7) 9_556 .
O4 Zr2 O1 143.1(7) 27_556 .
O4 Zr2 O1 143.1(7) . 27_556
O4 Zr2 O1 143.1(7) 30 27_556
O4 Zr2 O1 87.9(10) 9_556 27_556
O2 Zr2 Zr1 92.1(11) . 9_556
O2 Zr2 Zr1 36.6(6) . .
O2 Zr2 Zr1 36.6(6) 30 30
O2 Zr2 Zr1 36.6(6) . 27_556
O2 Zr2 Zr1 36.6(6) 30 9_556
O2 Zr2 Zr1 92.1(11) . 30
O2 Zr2 Zr1 92.1(11) 30 27_556
O2 Zr2 Zr1 92.1(11) 30 .
O2 Zr2 O4 143.0(7) . 9_556
O2 Zr2 O4 143.0(7) 30 .
O2 Zr2 O4 77.9(10) 30 30
O2 Zr2 O4 77.8(10) . 27_556
O2 Zr2 O4 143.0(7) . 30
O2 Zr2 O4 77.9(10) 30 9_556
O2 Zr2 O4 143.0(7) 30 27_556
O2 Zr2 O4 77.8(10) . .
O2 Zr2 O2 115(2) 30 .
O2 Zr2 O1 67.7(9) . .
O2 Zr2 O1 67.7(9) . 27_556
O2 Zr2 O1 67.7(9) 30 .
O2 Zr2 O1 67.7(9) 30 27_556
O1 Zr2 Zr1 31.5(3) . 30
O1 Zr2 Zr1 31.5(3) 27_556 27_556
O1 Zr2 Zr1 81.8(10) . 27_556
O1 Zr2 Zr1 81.8(10) 27_556 30
O1 Zr2 Zr1 81.8(10) . 9_556
O1 Zr2 Zr1 31.5(3) 27_556 9_556
O1 Zr2 Zr1 81.8(10) 27_556 .
O1 Zr2 Zr1 31.5(3) . .
O1 Zr2 O1 91(2) 27_556 .
C1 O3 Zr1 119.7(17) . .
C7 C6 C4 120.0 . .
C6 C7 C5 120.0 . .
C6 C7 C8 119.2(10) . .
C5 C7 C8 120.4(10) . .
C7 C5 C3 120.0 . .
C5 C3 C2 120.0 . .
C3 C2 C1 120.9(10) . .
C4 C2 C3 120.0 . .
C4 C2 C1 119.1(10) . .
C2 C4 C6 120.0 . .
O4 C1 O3 141(3) . .
O4 C1 C2 116(3) . .
C2 C1 O3 102(2) . .
C10 C12 C10 120(4) 33_565 .
C11 C13 C14 116(2) . .
C11 C13 C14 116(2) 33_565 .
C11 C13 C11 127(4) . 33_565
C9 C8 C7 160(10) . .
C20 O5 Zr1 119(7) . 26_566
C18 C19 C20 120(2) 33_565 .
C18 C19 C20 120(2) . .
C18 C19 C18 115(4) 33_565 .
C16 C17 C18 118(2) . .
C19 C18 C17 122(3) . .
Zr1 O2 Zr1 101.0(15) 27_556 .
Zr2 O2 Zr1 112.6(17) . 27_556
Zr2 O2 Zr1 112.6(17) . .
Zr1 O1 Zr1 122(3) 30 .
Zr1 O1 Zr2 113.9(11) . .
Zr1 O1 Zr2 113.9(11) 30 .
loop_
_geom_bond_atom_site_label_1
_geom_bond_atom_site_label_2
_geom_bond_distance
_geom_bond_site_symmetry_2
Zr1 Zr1 3.504(9) 27_556
Zr1 Zr1 3.504(9) 30
Zr1 Zr2 3.514(10) 32_676
Zr1 Zr2 3.514(10) .
Zr1 O3 2.14(3) 24_565
Zr1 O3 2.14(3) .
Zr1 O5 2.15(4) 41_565
Zr1 O5 2.15(4) 28_666
Zr1 O2 2.27(2) 34_576
Zr1 O2 2.27(2) .
Zr1 O1 2.01(3) .
Zr1 O1 2.01(3) 32_676
C20 O5 1.32(5) .
C20 O5 1.32(5) 33_565
C20 C19 1.60(13) .
O4 Zr2 2.13(3) .
O4 C1 1.29(4) .
C14 C15 1.11(4) .
C14 C13 1.45(2) .
C11 C10 1.40(5) .
C11 C13 1.42(3) .
C16 C15 1.43(4) .
C16 C17 1.37(2) .
C16 C17 1.37(2) 33_565
C10 C9 1.471(16) .
C10 C12 1.44(3) .
C9 C8 1.16(2) .
Zr2 O2 1.95(5) 30
Zr2 O2 1.95(5) .
Zr2 O1 2.18(5) 27_556
Zr2 O1 2.18(5) .
O3 C1 1.49(4) .
C6 C7 1.3900 .
C6 C4 1.3900 .
C7 C5 1.3900 .
C7 C8 1.48(2) .
C5 C3 1.3900 .
C3 C2 1.3900 .
C2 C4 1.3900 .
C2 C1 1.456(12) .
C19 C18 1.36(2) .
C19 C18 1.36(2) 33_565
C17 C18 1.40(3) .
loop_
_platon_squeeze_void_nr
_platon_squeeze_void_average_x
_platon_squeeze_void_average_y
_platon_squeeze_void_average_z
_platon_squeeze_void_volume
_platon_squeeze_void_count_electrons
_platon_squeeze_void_content
1 -0.003 -0.011 -0.004 54276 8028 ' '
loop_
_refln_index_h
_refln_index_k
_refln_index_l
_refln_F_squared_meas
_refln_F_squared_sigma
0 2 -2 177.86 12.72
-2 0 2 159.1 12.72
-2 -2 -1 -0.13 0.05
-2 -2 1 0.01 0.06
-2 -1 -2 -0.03 0.03
-2 -1 2 -0.04 0.06
-2 1 -2 0.08 0.05
-2 1 2 0.01 0.04
-2 2 -1 -0.09 0.05
-2 2 1 -0.1 0.05
-1 -2 2 -0.17 0.07
-1 2 -2 -0.1 0.06
-1 2 2 -0.16 0.05
1 -2 -2 -0.15 0.04
1 -2 2 -0.17 0.07
1 2 -2 -0.13 0.06
1 2 2 -0.15 0.05
2 -2 -1 -0.06 0.05
2 -2 1 -0.03 0.06
2 -1 -2 -0.02 0.04
2 1 -2 0.03 0.06
2 1 2 0.01 0.04
2 2 -1 -0.11 0.06
2 2 1 -0.05 0.06
-2 2 -2 967.61 71.1
-2 -2 2 993.34 71.04
2 2 -2 892.94 71.02
2 2 2 1000 71.09
-2 2 2 988.7 71.01
2 -2 -2 795.34 71.02
-2 -2 -2 943.29 71.07
0 -3 -1 123.68 9.54
-1 0 3 120.6 9.54
1 0 -3 121.45 9.54
0 3 1 130.03 9.54
0 3 -1 129.93 9.54
0 1 3 124.05 9.54
1 -3 0 126.95 9.54
0 -3 1 128.8 9.54
0 1 -3 123.74 9.54
-1 -3 0 129.7 9.54
-1 3 0 129.28 9.54
0 -1 3 128.03 9.54
1 3 0 126.33 9.54
1 3 -1 0.07 0.08
-3 -1 -1 -0.03 0.04
-3 -1 1 -0.13 0.06
-3 1 -1 -0.11 0.03
-3 1 1 -0.1 0.04
-1 -3 -1 -0.03 0.06
-1 -3 1 0.04 0.07
-1 -1 -3 -0.06 0.04
-1 -1 3 0.05 0.06
-1 1 -3 0.05 0.06
-1 1 3 -0.1 0.05
-1 3 -1 0.07 0.08
-1 3 1 -0.06 0.06
1 -3 -1 -0.05 0.06
1 -3 1 0.01 0.07
1 -1 -3 -0.02 0.05
1 -1 3 -0.02 0.05
1 1 -3 0.03 0.07
1 1 3 -0.03 0.04
3 -1 -1 0.02 0.04
3 1 -1 -0.03 0.06
1 3 1 -0.04 0.06
2 3 0 495.54 36.59
0 2 -3 511.73 36.62
0 2 3 465.4 36.56
3 2 0 468.99 36.53
2 0 -3 476.71 36.51
2 0 3 486.85 36.63
-2 0 3 493.85 36.51
0 -3 2 488.64 36.6
0 -2 3 471.56 36.58
0 3 -2 496.36 36.6
0 3 2 466.88 36.58
-2 -3 0 468.62 36.57
-3 2 0 487.15 36.53
-3 -2 0 479.85 36.54
-3 2 -1 111.39 8.45
-3 -2 1 112.37 8.45
3 1 -2 111.71 8.45
2 -3 1 113.07 8.45
-3 1 2 108.93 8.45
-2 -3 -1 116.98 8.45
2 3 -1 113.79 8.45
3 -2 -1 108.26 8.45
3 2 1 113.11 8.45
1 2 -3 111.95 8.45
1 -3 -2 107.54 8.45
2 -1 -3 109.08 8.45
-1 -2 -3 105.66 8.45
1 3 2 112.39 8.45
-2 1 -3 113.73 8.45
-2 3 1 112.92 8.45
-1 3 -2 115.66 8.45
-2 -1 3 112.78 8.45
-1 2 3 108.64 8.45
-1 -3 2 112.73 8.45
1 -2 3 114.7 8.45
1 2 3 108.68 8.45
1 -2 -3 106.81 8.45
-2 -3 1 115.58 8.45
2 -3 -1 111.73 8.45
3 2 -1 112.21 8.45
-2 -1 -3 107.71 8.44
3 -1 -2 110.16 8.45
2 1 -3 110.98 8.45
-2 3 -1 114.6 8.45
-2 1 3 107.82 8.45
-1 -3 -2 113.46 8.45
-1 -2 3 113.67 8.45
-3 1 -2 111.29 8.44
-1 3 2 111.99 8.45
-3 2 1 111.4 8.45
1 3 -2 115.73 8.45
2 3 1 116.17 8.45
2 -1 3 112.28 8.45
-1 2 -3 115.9 8.45
-3 -1 2 112.43 8.45
-3 -2 -1 113.24 8.45
3 -2 1 110.42 8.45
1 -3 2 112.07 8.45
3 -2 2 0.06 0.06
3 2 -2 0 0.08
3 2 2 0 0.05
3 -2 -2 -0.01 0.05
2 3 -2 0.04 0.09
2 3 2 0.02 0.07
2 2 3 0.05 0.05
-3 -2 -2 0.04 0.05
-3 -2 2 0.04 0.08
-3 2 -2 -0.02 0.06
-3 2 2 0.02 0.06
-2 -3 -2 0.06 0.06
-2 -3 2 -0.13 0.09
-2 -2 -3 0.04 0.05
-2 -2 3 -0.02 0.09
-2 2 -3 0.05 0.07
-2 2 3 0.01 0.06
-2 3 -2 0.07 0.08
-2 3 2 0.01 0.07
2 -3 -2 0.05 0.07
2 -3 2 0.02 0.07
2 -2 -3 0.01 0.06
2 -2 3 0 0.07
2 2 -3 0.01 0.08
0 -3 3 86.64 6.37
-3 -3 0 84.62 6.37
-3 3 0 86.03 6.37
0 -3 -3 81.49 6.36
3 3 0 84.24 6.37
3 0 -3 82.5 6.37
0 3 -3 87.78 6.37
0 3 3 82.94 6.36
3 -3 0 82.29 6.36
3 -1 3 0.01 0.06
3 1 -3 -0.11 0.08
3 1 3 -0.04 0.04
3 3 -1 -0.05 0.1
3 3 1 -0.09 0.07
3 -1 -3 0.03 0.06
-1 3 -3 -0.04 0.09
-1 3 3 -0.13 0.07
1 -3 -3 -0.05 0.06
1 -3 3 -0.02 0.09
1 3 -3 0.03 0.09
1 3 3 -0.07 0.07
3 -3 -1 -0.14 0.07
3 -3 1 -0.12 0.07
-3 3 1 0.02 0.07
-1 -3 -3 -0.06 0.06
-1 -3 3 -0.2 0.1
-3 3 -1 -0.03 0.07
-3 -3 1 -0.08 0.09
-3 -1 -3 -0.02 0.03
-3 -1 3 -0.08 0.08
-3 1 -3 -0.02 0.05
-3 1 3 0.1 0.06
-3 -3 -2 16.02 1.17
-3 -3 2 15.27 1.19
-3 -2 -3 14.99 1.16
-3 -2 3 14.96 1.18
-3 2 -3 15.57 1.17
-3 2 3 14.98 1.17
-3 3 -2 14.92 1.18
-3 3 2 15.66 1.17
-2 -3 -3 14.67 1.17
-2 -3 3 15.67 1.19
-2 3 -3 15.82 1.18
-2 3 3 14.88 1.18
2 -3 -3 14.7 1.17
2 -3 3 15.72 1.18
2 3 -3 14.83 1.19
2 3 3 15.45 1.17
3 -3 -2 14.99 1.17
3 -3 2 15.29 1.17
3 -2 -3 15.14 1.17
3 -2 3 15.79 1.17
3 2 -3 15.44 1.18
3 2 3 15.83 1.17
3 3 -2 15.39 1.18
3 3 2 15.85 1.17
-3 3 -3 0.02 0.09
-3 -3 -3 0.01 0.07
-3 -3 3 0.06 0.1
3 3 -3 0.05 0.11
3 3 3 -0.08 0.07
-3 3 3 -0.05 0.08
3 -3 -3 -0.08 0.08
3 -3 3 -0.06 0.09
0 4 0 662.72 50.24
4 0 0 644 50.13
0 -4 0 657.87 50.24
0 0 -4 690.8 50.26
0 0 4 661.81 50.24
-4 1 0 -0.03 0.04
-1 0 -4 0.11 0.07
-1 0 4 0 0.08
0 -4 -1 -0.1 0.08
0 -4 1 -0.05 0.09
4 -1 0 0.02 0.04
4 1 0 -0.09 0.06
-4 -1 0 0.05 0.06
1 -4 0 0.21 0.08
1 4 0 -0.04 0.1
-4 0 1 0.12 0.06
-1 -4 0 -0.13 0.08
-1 4 0 -0.15 0.09
0 -1 -4 -0.03 0.05
0 -1 4 -0.14 0.08
0 1 -4 -0.15 0.09
0 1 4 0.01 0.05
-4 0 -1 0.02 0.03
-4 0 -1 0.05 0.03
1 0 -4 0 0.08
1 0 4 0.09 0.07
0 4 -1 0.04 0.1
0 4 1 -0.06 0.09
1 4 -1 69.11 4.97
1 4 1 68.9 4.97
-1 -4 -1 67.68 4.97
1 1 4 64.06 4.97
1 1 -4 66.8 4.97
1 -1 4 66.77 4.97
-1 4 1 67.54 4.97
1 -4 -1 66.29 4.97
1 -4 1 67.54 4.97
1 -1 -4 63.64 4.97
-4 1 1 63.73 4.96
-1 -4 1 66.91 4.97
-1 -1 -4 60.83 4.96
-1 -1 4 67.11 4.97
-1 1 -4 66.47 4.97
-1 1 4 65.04 4.97
-1 4 -1 68.68 4.97
4 1 -1 65.37 4.97
4 1 1 59.59 4.96
-4 -1 -1 65.39 4.96
-4 -1 1 64.74 4.97
-4 1 -1 64.92 4.96
4 -1 -1 65.33 4.96
0 2 -4 21.12 1.64
2 4 0 21.84 1.64
0 2 4 20.22 1.63
2 -4 0 21.89 1.63
0 -4 -2 20.88 1.63
0 -4 2 22 1.64
0 4 -2 21.25 1.64
0 4 2 21.25 1.63
2 0 4 22.29 1.63
4 -2 0 20.12 1.62
4 2 0 21.69 1.63
-4 2 0 21.11 1.62
-2 0 -4 21.85 1.63
-2 0 4 21.56 1.63
-2 -4 0 21.76 1.64
-2 4 0 22.95 1.63
0 -2 -4 19.88 1.63
0 -2 4 21.26 1.64
-4 0 2 21.7 1.63
-4 -2 0 21.74 1.63
-4 -2 1 143.9 10.62
2 1 4 131.46 10.61
-2 -4 -1 142.9 10.62
1 4 2 145.78 10.62
4 -2 -1 138.41 10.61
1 2 -4 138.7 10.62
1 -2 4 144.33 10.62
-2 4 1 140.06 10.62
-1 -4 2 145.12 10.62
-1 2 4 135.65 10.62
4 2 1 141.42 10.61
4 1 -2 140.02 10.62
-2 -1 4 142.66 10.62
-2 1 -4 138.19 10.62
-4 1 2 141.39 10.62
2 -4 1 140.16 10.62
-1 4 -2 147.4 10.62
1 -4 -2 139.71 10.62
2 4 -1 143.4 10.62
-4 2 -1 140.34 10.61
1 -4 2 140.09 10.62
2 -1 4 142.6 10.62
2 1 -4 140.37 10.62
4 -2 1 134.68 10.61
4 2 -1 142.75 10.62
1 4 -2 143.65 10.62
-4 -2 -1 141.72 10.61
-4 2 1 138.82 10.62
-4 -1 2 143.65 10.62
-4 1 -2 141.04 10.61
-2 1 4 136 10.62
-2 -4 1 143.13 10.62
-2 4 -1 141.9 10.62
-1 4 2 139.41 10.62
-1 -2 4 141.82 10.62
-1 2 -4 145.13 10.62
1 -2 -4 135.9 10.62
-2 -1 -4 134.36 10.61
2 -4 -1 140.92 10.62
-1 -4 -2 141.46 10.62
2 4 1 143.16 10.62
4 -1 -2 137.3 10.61
1 2 4 137.11 10.62
2 2 4 14.38 1.13
-2 4 -2 15.44 1.15
2 4 2 15.37 1.15
-2 2 -4 15.24 1.14
4 -2 -2 14.59 1.14
4 -2 2 14.66 1.13
4 2 -2 15.19 1.15
4 2 2 14.97 1.13
2 4 -2 14.98 1.16
2 -2 4 14.75 1.14
-2 2 4 14.61 1.14
-4 2 -2 14.57 1.13
-4 2 2 14.52 1.14
-2 -4 -2 14.98 1.14
-2 -4 2 15.11 1.16
-2 -2 -4 14.12 1.13
-2 -2 4 15.26 1.15
-4 -2 -2 15.23 1.13
-4 -2 2 14.5 1.15
2 -4 -2 14.81 1.14
2 -4 2 14.91 1.15
2 2 -4 15.08 1.15
-2 4 2 14.73 1.15
3 4 0 -0.08 0.1
3 0 4 -0.05 0.06
-3 -4 0 -0.04 0.09
-3 4 0 -0.06 0.09
0 -3 -4 -0.11 0.07
3 -4 0 -0.07 0.08
0 3 -4 -0.17 0.1
0 3 4 -0.13 0.08
-4 3 0 -0.02 0.07
-3 0 4 0 0.09
0 -4 -3 -0.12 0.08
0 -4 3 0.05 0.11
0 4 -3 -0.07 0.11
0 4 3 -0.12 0.08
3 0 -4 0.01 0.09
4 -3 0 -0.15 0.07
4 3 0 -0.14 0.09
0 -3 4 -0.02 0.1
-4 0 3 0.2 0.09
-4 -3 0 -0.03 0.09
4 1 -3 14.16 1.11
1 -3 4 14.27 1.11
1 -4 -3 14.38 1.1
-1 3 4 14.8 1.1
1 4 3 14.2 1.1
-3 4 1 14.45 1.1
-3 1 -4 14.37 1.1
-4 3 -1 13.91 1.1
4 3 1 14.52 1.1
1 3 -4 14.23 1.12
-4 1 3 13.68 1.09
-1 -4 3 14.26 1.12
-1 4 -3 13.71 1.11
3 -4 1 14.61 1.1
3 4 -1 14.18 1.12
4 -3 -1 14.02 1.09
-3 -1 4 14.5 1.11
-3 -4 -1 14.85 1.1
-4 -3 1 14.56 1.11
-4 -1 -3 13.64 1.08
3 1 4 14.43 1.09
-1 -3 -4 14.27 1.1
-3 -4 1 15.14 1.11
-3 4 -1 14.69 1.11
4 -3 1 14.32 1.09
-1 -3 4 13.97 1.12
-4 1 -3 14.57 1.09
1 -4 3 14.23 1.11
1 4 -3 13.76 1.12
-4 -3 -1 14.7 1.1
-3 1 4 14.43 1.1
1 -3 -4 13.85 1.1
3 -1 4 14.76 1.1
-1 -4 -3 13.93 1.1
4 3 -1 14.42 1.11
3 1 -4 15.05 1.11
-4 -1 3 14.76 1.11
-3 -1 -4 14.23 1.09
1 3 4 13.93 1.1
-1 3 -4 13.95 1.11
3 -4 -1 13.86 1.1
-4 3 1 13.68 1.1
3 4 1 14.81 1.11
-1 4 3 14.45 1.1
-3 2 -4 57.03 4.3
4 -2 3 55.71 4.3
-3 -2 4 57.85 4.31
-4 -3 2 58.34 4.31
-4 3 -2 57.3 4.3
2 4 3 56.83 4.3
-3 4 2 56.34 4.3
-2 -3 -4 55.98 4.3
3 2 4 56.76 4.3
-2 3 4 57.12 4.3
-2 -4 3 58.43 4.31
3 -4 2 57.39 4.3
-3 -4 -2 56.7 4.3
4 -3 -2 55.41 4.3
-2 4 -3 58.03 4.31
4 3 2 57.64 4.3
2 -3 4 57.68 4.3
3 -2 -4 56.45 4.3
2 3 -4 57.78 4.31
-4 2 3 57.81 4.3
2 -4 -3 54.69 4.3
-4 -2 -3 55.77 4.29
3 4 -2 56.47 4.31
4 2 -3 57.41 4.31
-3 -2 -4 53.42 4.3
2 -3 -4 55.33 4.3
-3 2 4 54.74 4.3
2 -4 3 57.13 4.3
2 3 4 55.74 4.3
3 -4 -2 56.37 4.3
4 -3 2 56.2 4.3
4 -2 -3 55.77 4.3
-2 -3 4 58.08 4.31
-4 -2 3 58.27 4.31
3 -2 4 56.52 4.3
-2 -4 -3 56.15 4.3
-2 3 -4 58.07 4.3
-3 4 -2 59.02 4.3
3 2 -4 56.35 4.31
-4 2 -3 57.11 4.3
4 3 -2 57.27 4.31
-3 -4 2 56.75 4.31
-4 -3 -2 57.44 4.3
2 4 -3 57.85 4.31
-4 3 2 56.94 4.3
4 2 3 56.71 4.3
-2 4 3 57.73 4.3
3 4 2 57.99 4.3
-3 4 3 8.38 0.66
3 -4 -3 7.8 0.65
3 -4 3 8.22 0.66
3 -3 -4 7.63 0.65
3 -3 4 8.27 0.66
3 3 -4 8.11 0.68
3 3 4 7.95 0.64
3 4 -3 8.53 0.68
3 4 3 8.31 0.65
4 -3 -3 7.8 0.64
4 -3 3 7.95 0.65
4 3 -3 8.5 0.67
4 3 3 8.56 0.64
-4 -3 -3 8.39 0.64
-4 -3 3 8.04 0.68
-4 3 -3 8.51 0.65
-4 3 3 8.3 0.65
-3 -4 -3 7.89 0.64
-3 -4 3 7.52 0.68
-3 -3 -4 7.61 0.64
-3 -3 4 8.28 0.68
-3 3 -4 7.73 0.66
-3 3 4 8.27 0.65
-3 4 -3 8 0.67
4 4 0 132.94 9.88
0 4 -4 133.48 9.88
0 4 4 129.84 9.88
4 -4 0 129.43 9.88
4 0 4 124.51 9.87
0 -4 -4 128.28 9.88
0 -4 4 134.24 9.88
-4 -4 0 134.69 9.88
-4 0 4 127.68 9.88
-4 4 0 133.09 9.88
-4 -4 -1 -0.16 0.1
-4 -4 1 -0.19 0.11
-4 -1 4 -0.06 0.1
-4 1 -4 -0.14 0.06
-4 1 4 -0.06 0.08
-4 4 -1 -0.01 0.1
4 1 4 0 0.05
4 4 -1 -0.02 0.11
4 4 1 0 0.1
4 -1 4 0.07 0.07
4 1 -4 -0.07 0.11
1 4 -4 -0.1 0.12
1 4 4 -0.23 0.09
4 -4 -1 -0.04 0.09
4 -4 1 -0.12 0.09
1 -4 4 -0.1 0.12
-1 -4 4 -0.24 0.12
-1 4 -4 -0.15 0.12
-1 4 4 -0.18 0.09
1 -4 -4 -0.1 0.09
-1 -4 -4 -0.07 0.08
-4 4 1 0.16 0.1
-2 -4 -4 16.07 1.26
-2 -4 4 15.88 1.27
-2 4 -4 16.61 1.27
-4 4 -2 16.49 1.26
-4 4 2 16.65 1.26
-4 -4 -2 16.32 1.26
-4 -4 2 17.02 1.28
-4 -2 -4 15.66 1.24
-4 -2 4 16.57 1.28
-4 2 -4 17.01 1.25
-4 2 4 15.48 1.26
4 2 -4 16.64 1.27
4 2 4 15.91 1.25
4 4 -2 16.16 1.27
4 4 2 16.85 1.26
-2 4 4 15.9 1.26
2 -4 -4 15.98 1.26
2 -4 4 17.05 1.27
2 4 -4 17.02 1.28
2 4 4 15.89 1.26
4 -4 -2 16.37 1.26
4 -4 2 16.31 1.26
4 -2 -4 16.38 1.25
4 -2 4 16.6 1.25
-4 4 3 -0.04 0.1
-3 -4 -4 -0.05 0.09
-3 -4 4 0.02 0.15
-3 4 -4 0.04 0.12
-3 4 4 0.08 0.11
3 -4 -4 -0.09 0.1
3 -4 4 -0.04 0.11
3 4 -4 -0.18 0.13
3 4 4 -0.09 0.09
4 -4 -3 -0.02 0.1
4 -4 3 -0.01 0.1
4 -3 -4 -0.08 0.09
4 -3 4 -0.11 0.1
4 3 -4 -0.02 0.14
4 3 4 -0.04 0.08
4 4 -3 0.11 0.13
4 4 3 0.04 0.1
-4 -4 -3 -0.02 0.09
-4 -4 3 -0.06 0.13
-4 -3 -4 -0.02 0.07
-4 -3 4 -0.13 0.13
-4 3 -4 0.09 0.11
-4 3 4 0.04 0.11
-4 4 -3 0.08 0.11
-4 -4 -4 4.5 0.43
-4 -4 4 5.55 0.51
-4 4 -4 5.49 0.47
-4 4 4 4.91 0.46
4 -4 -4 4.65 0.45
4 -4 4 5.17 0.46
4 4 -4 5.53 0.5
4 4 4 4.64 0.44
0 -5 0 -0.11 0.1
0 0 -5 -0.01 0.09
-5 0 0 0 0.06
-5 0 0 0.01 0.04
0 0 5 0.11 0.08
0 5 0 0.12 0.11
0 -1 5 16.33 1.25
0 1 -5 15.79 1.25
0 5 1 17.22 1.25
-5 0 -1 15.91 1.23
-5 0 -1 16.17 1.23
-5 0 1 16.28 1.24
-1 -5 0 16.5 1.25
0 1 5 15.54 1.24
1 -5 0 16.64 1.25
1 5 0 16.75 1.26
-5 -1 0 16.55 1.24
-5 1 0 16.06 1.23
-1 0 -5 16.02 1.24
-1 0 5 15.96 1.25
0 -5 -1 16.45 1.25
0 -5 1 16.57 1.25
5 -1 0 16.01 1.23
5 1 0 15.99 1.24
-1 5 0 16.62 1.26
0 5 -1 16.07 1.26
1 0 -5 15.48 1.25
1 0 5 15.82 1.25
-1 1 5 -0.05 0.07
1 -5 1 -0.07 0.1
1 -1 5 0.09 0.09
1 1 -5 -0.12 0.11
1 1 5 -0.04 0.06
1 5 -1 -0.03 0.1
1 5 1 -0.05 0.1
-1 5 -1 -0.13 0.11
-1 -1 5 -0.03 0.1
-1 1 -5 -0.03 0.09
-5 1 -1 -0.03 0.05
-5 1 1 -0.01 0.06
-1 5 1 -0.11 0.1
5 -1 -1 -0.06 0.05
5 -1 1 0.05 0.04
5 1 -1 0 0.08
5 1 1 0.02 0.05
-1 -5 1 0.12 0.12
-5 -1 1 -0.1 0.07
-1 -5 -1 0.05 0.1
-5 -1 -1 0.16 0.06
1 -5 -1 -0.05 0.1
0 5 2 55.24 4.14
0 -5 2 55.58 4.14
2 -5 0 57.56 4.14
2 5 0 55.71 4.14
0 5 -2 54.52 4.14
0 -5 -2 53.1 4.14
-5 0 2 53.22 4.14
-2 -5 0 55.74 4.14
-2 5 0 55.8 4.14
0 -2 -5 52.49 4.13
0 -2 5 55.17 4.14
0 2 -5 56.14 4.14
0 2 5 52.05 4.13
5 2 0 55.82 4.13
-5 -2 0 55.63 4.13
-2 0 5 54.9 4.14
2 0 5 54.85 4.13
5 -2 0 52.7 4.13
-5 2 0 54.06 4.13
-2 0 -5 53.94 4.13
2 0 -5 53.78 4.14
-1 2 5 11.41 0.93
2 -5 1 11.92 0.94
-2 1 -5 12.4 0.93
5 -2 -1 12.19 0.92
1 2 -5 12.1 0.95
1 5 2 11.83 0.94
-2 -5 -1 11.91 0.94
-5 2 -1 11.65 0.92
1 -5 -2 11.98 0.94
-2 -1 5 12.64 0.95
2 5 -1 12.88 0.95
-5 -2 1 11.62 0.93
-5 -1 -2 11.61 0.91
1 -2 5 12.07 0.94
-5 1 2 12.39 0.92
-1 -5 2 11.82 0.95
2 1 5 12.22 0.92
-2 5 1 11.82 0.94
-1 -2 -5 11.98 0.92
5 2 1 12.41 0.92
5 1 -2 12.24 0.93
-1 5 -2 11.67 0.95
2 -1 5 12.69 0.93
-1 2 -5 11.89 0.94
2 1 -5 12.02 0.95
-5 -2 -1 11.91 0.92
-1 -5 -2 11.84 0.94
1 -5 2 12.7 0.95
-1 -2 5 11.94 0.95
2 5 1 12.07 0.94
5 -2 1 11.57 0.92
2 -5 -1 11.82 0.94
-1 5 2 11.69 0.94
1 5 -2 11.41 0.95
-5 2 1 11.15 0.92
-5 -1 2 12.03 0.94
-2 1 5 12.07 0.93
5 2 -1 12.25 0.93
-2 -5 1 12.26 0.95
-2 5 -1 12.5 0.95
1 2 5 11.63 0.92
1 -2 -5 11.75 0.93
-5 1 -2 12.08 0.91
2 -2 5 -0.06 0.1
2 2 5 0 0.07
-2 2 -5 -0.09 0.1
-2 2 5 -0.07 0.09
-5 2 2 -0.16 0.07
-2 5 2 0.01 0.1
2 5 -2 -0.05 0.12
2 5 2 -0.05 0.11
-5 2 -2 -0.13 0.06
-2 -2 -5 -0.06 0.06
-2 -2 5 0.1 0.13
-2 5 -2 -0.02 0.12
-5 -2 -2 -0.04 0.06
2 -5 -2 -0.04 0.1
2 -5 2 0.01 0.11
2 -2 -5 -0.04 0.08
2 2 -5 -0.13 0.12
5 -2 -2 0 0.07
5 -2 2 0.01 0.06
5 2 -2 -0.02 0.1
5 2 2 0.02 0.06
-2 -5 2 -0.04 0.13
-5 -2 2 -0.01 0.09
-2 -5 -2 -0.04 0.1
3 0 -5 3.45 0.4
0 5 -3 4.5 0.41
-3 0 5 3.75 0.4
0 5 3 4.41 0.37
3 5 0 3.92 0.39
-3 5 0 3.72 0.38
0 -3 -5 4.12 0.35
-5 3 0 3.93 0.34
5 -3 0 3.81 0.34
5 3 0 4.05 0.36
0 -3 5 3.91 0.4
3 0 5 3.94 0.35
-5 0 3 3.6 0.37
-5 -3 0 3.52 0.36
0 -5 -3 3.78 0.37
0 -5 3 3.73 0.41
0 3 5 4.01 0.36
0 3 -5 4.13 0.39
-3 -5 0 3.92 0.4
3 -5 0 3.92 0.37
-5 -3 1 0.05 0.11
-3 -5 -1 0.2 0.11
1 -3 5 0.29 0.12
1 3 -5 0.35 0.13
5 -3 -1 0.17 0.08
-1 -5 3 0.15 0.13
1 -5 -3 0.33 0.1
-3 5 1 0.28 0.11
3 1 5 0.23 0.06
-5 3 -1 0.18 0.08
-1 -3 -5 0.27 0.08
-3 1 -5 0.28 0.09
-1 5 -3 0.22 0.13
-3 -1 5 0.18 0.12
3 -5 1 0.23 0.1
5 1 -3 0.19 0.1
-5 1 3 0.16 0.08
1 5 3 0.37 0.11
5 3 1 0.22 0.09
3 5 -1 0.31 0.13
-1 3 5 0.34 0.1
-5 1 -3 0.3 0.06
5 -3 1 0.2 0.08
-3 -5 1 0.3 0.12
-1 5 3 0.3 0.12
-5 -3 -1 0.26 0.09
-1 -5 -3 0.29 0.1
1 -3 -5 0.38 0.09
-3 5 -1 0.3 0.12
-5 -1 3 0.18 0.1
1 3 5 0.3 0.09
3 -5 -1 0.22 0.1
3 5 1 0.35 0.12
1 5 -3 0.19 0.14
3 -1 5 0.2 0.09
3 1 -5 0.2 0.12
-1 -3 5 0.36 0.13
-1 3 -5 0.35 0.12
5 3 -1 0.26 0.11
-3 1 5 0.33 0.09
1 -5 3 0.2 0.12
-5 3 1 0.24 0.09
-3 1 5 0.26 0.12
-5 -2 -3 0.68 0.07
-5 3 -2 0.71 0.1
5 2 -3 0.71 0.13
5 -2 3 0.7 0.09
-3 -2 5 0.56 0.13
-3 2 -5 0.58 0.11
2 -3 5 0.74 0.13
2 -5 -3 0.58 0.11
-2 -5 3 0.5 0.15
3 -2 -5 0.68 0.1
2 3 -5 0.38 0.14
-2 3 5 0.56 0.11
3 2 5 0.77 0.09
5 -3 -2 0.77 0.1
3 5 -2 0.74 0.15
-2 -3 -5 0.62 0.09
5 3 2 0.69 0.1
-5 2 3 0.52 0.1
2 5 3 0.75 0.13
-3 -5 -2 0.62 0.12
-3 5 2 0.57 0.12
-2 5 -3 0.65 0.14
3 -5 2 0.66 0.13
-5 -3 2 0.67 0.13
-2 -3 5 0.61 0.14
-5 3 2 0.5 0.1
-3 -2 -5 0.54 0.08
2 -5 3 0.41 0.13
2 5 -3 0.66 0.15
2 3 5 0.57 0.1
3 -5 -2 0.67 0.12
-5 -2 3 0.51 0.12
-5 2 -3 0.62 0.09
-2 3 -5 0.63 0.13
-3 -5 2 0.89 0.15
-3 5 -2 0.63 0.14
5 2 3 0.71 0.08
2 -3 -5 0.57 0.1
-3 2 5 0.58 0.1
3 2 -5 0.68 0.14
-2 5 3 0.54 0.12
-5 -3 -2 0.69 0.1
3 5 2 0.69 0.12
5 -2 -3 0.56 0.1
5 -3 2 0.52 0.09
-2 -5 -3 0.47 0.11
3 -2 5 0.64 0.12
5 3 -2 0.67 0.12
5 -3 -3 -0.07 0.08
-5 3 3 -0.09 0.09
-5 3 -3 0.15 0.1
-3 -5 3 0.06 0.15
-3 3 5 -0.16 0.1
3 3 -5 -0.11 0.14
5 -3 3 0.02 0.09
5 3 -3 -0.05 0.13
3 5 3 -0.03 0.11
-5 -3 -3 -0.05 0.07
-3 -5 -3 -0.06 0.1
3 -3 -5 -0.08 0.09
3 3 5 -0.08 0.09
3 5 -3 0.05 0.14
3 -5 3 0.09 0.12
-3 -3 -5 -0.05 0.08
-3 -3 5 -0.18 0.14
-3 3 -5 -0.06 0.11
-3 5 -3 -0.1 0.12
-3 5 3 0.06 0.12
3 -5 -3 0.04 0.1
-5 -3 3 0.21 0.13
5 3 3 0.06 0.08
3 -3 5 -0.01 0.12
0 5 -4 4.69 0.49
0 5 4 4.7 0.45
-4 -5 0 5.28 0.47
-5 4 0 4.83 0.44
-5 -4 0 5.11 0.46
0 -4 -5 4.69 0.44
0 -4 5 4.83 0.49
0 4 -5 4.69 0.5
0 4 5 4.98 0.44
4 -5 0 4.92 0.45
4 5 0 5 0.47
-5 0 4 4.96 0.47
5 -4 0 5.14 0.43
-4 0 5 5.03 0.47
0 -5 -4 4.68 0.44
0 -5 4 5.02 0.5
4 0 5 5.28 0.42
-4 5 0 5.15 0.47
5 4 0 5.17 0.46
5 4 1 19.11 1.45
-1 -4 -5 18.89 1.44
-4 5 1 19.02 1.45
1 -4 5 19.27 1.46
1 4 -5 19.03 1.47
-5 -4 1 19.35 1.45
-1 5 -4 18.89 1.46
5 -1 4 17.03 1.43
-5 1 4 19.26 1.45
5 -4 -1 18.55 1.44
-5 4 -1 18.31 1.44
4 1 5 18.64 1.43
4 5 -1 18.6 1.46
1 -5 -4 18.68 1.45
-4 1 -5 19.18 1.44
-4 -5 -1 18.67 1.45
1 5 4 18.96 1.45
4 -5 1 19.06 1.45
-1 -5 4 18.6 1.46
-5 1 4 17.98 1.44
-1 4 5 18.62 1.45
5 1 -4 18.86 1.45
-4 -1 5 19.13 1.46
4 -5 -1 18.39 1.45
-5 -4 -1 19.44 1.45
-5 4 1 18.14 1.44
-4 1 5 18.9 1.45
-1 -5 -4 18.39 1.44
-5 -1 4 19.31 1.46
-1 5 4 18.82 1.45
-5 1 -4 18.73 1.43
1 -5 4 18.73 1.46
1 5 -4 19.61 1.47
-4 -5 1 19.1 1.46
4 -1 5 19.6 1.44
-1 4 -5 19.09 1.46
-1 -4 5 19.02 1.46
5 -4 1 18.65 1.44
5 4 -1 19.94 1.45
-4 1 5 18.28 1.44
1 4 5 19.36 1.45
4 1 -5 19.07 1.46
-4 5 -1 19.94 1.45
5 1 4 16.43 1.42
4 5 1 19.03 1.45
1 -4 -5 18.01 1.44
4 -2 -5 11.4 0.87
4 2 5 10.76 0.86
-4 5 2 11.19 0.89
5 -2 4 11.08 0.86
2 5 4 10.86 0.88
4 5 -2 11.27 0.92
-4 -2 5 10.94 0.9
-4 2 -5 11.27 0.87
-2 -5 4 11.03 0.91
2 -5 -4 10.92 0.88
-2 -4 -5 11.03 0.87
2 -4 5 11.02 0.89
-5 4 -2 11.47 0.88
4 -5 2 11.16 0.88
-2 5 -4 11.26 0.91
5 2 -4 10.74 0.89
-5 -2 -4 10.85 0.85
5 -4 -2 10.81 0.87
-5 -4 2 11.34 0.89
2 4 -5 11.06 0.91
5 4 2 10.49 0.88
-2 4 5 11.06 0.88
-4 -5 -2 11.13 0.88
-5 2 4 11.31 0.88
-5 -4 -2 11.13 0.87
2 4 5 11.21 0.87
5 4 -2 10.9 0.89
5 -4 2 11.25 0.87
2 -4 -5 10.84 0.87
5 2 4 11.36 0.85
-4 -5 2 10.97 0.91
4 -5 -2 11.12 0.87
-4 2 5 10.8 0.87
4 5 2 11.15 0.89
-5 4 2 11.1 0.87
-5 2 -4 11.47 0.87
5 -2 -4 11.54 0.87
-2 4 -5 11 0.89
-5 -2 4 11.03 0.9
-4 -2 -5 10.92 0.85
-4 5 -2 11.64 0.89
4 -2 5 11.57 0.87
4 2 -5 11.32 0.9
-2 -4 5 10.63 0.91
-2 -5 -4 10.72 0.87
-2 5 4 11.21 0.89
2 -5 4 11.54 0.89
2 5 -4 10.6 0.91
-5 -3 -4 0.11 0.07
4 -5 3 0.16 0.12
3 5 4 0.25 0.12
5 -3 4 -0.01 0.1
-5 -4 3 0.06 0.14
-5 4 -3 0.13 0.11
-4 -3 5 0.2 0.15
-4 3 -5 0.14 0.11
-3 -5 4 0.15 0.16
3 -5 -4 0.08 0.12
4 -3 -5 0.08 0.11
-4 5 3 0.06 0.12
5 -4 -3 0.25 0.1
4 3 5 -0.01 0.09
-5 3 4 0.21 0.11
-4 -5 -3 0.11 0.11
5 4 3 0.01 0.1
-3 -4 -5 0.1 0.1
5 3 -4 0.18 0.14
4 5 -3 0.17 0.15
3 -4 5 0.06 0.13
3 4 -5 0.14 0.14
-3 5 -4 -0.07 0.14
-3 4 5 0.14 0.11
5 -3 -4 0.14 0.1
3 -4 -5 -0.03 0.11
5 3 4 0.13 0.08
4 -5 -3 0.17 0.12
-5 3 -4 0.04 0.1
-5 -3 4 0.09 0.15
-4 5 -3 0.06 0.14
-3 -4 5 0.17 0.16
-3 4 -5 0.12 0.13
4 5 3 0.18 0.12
-5 -4 -3 0.07 0.1
-5 4 3 0.26 0.12
-4 -3 -5 0.03 0.08
-4 3 5 0.1 0.11
-3 -5 -4 0.09 0.11
3 4 5 0.02 0.1
-4 -5 3 0.17 0.15
3 -5 4 0.11 0.13
3 5 -4 0.15 0.15
4 -3 5 0.18 0.12
4 3 -5 0.1 0.14
5 -4 3 0.09 0.11
5 4 -3 0.14 0.14
-3 5 4 0.15 0.12
-5 4 -4 -0.12 0.13
-5 -4 -4 -0.11 0.09
-5 -4 4 -0.15 0.16
-4 -4 -5 -0.04 0.09
-4 -4 5 0.01 0.16
-4 4 -5 -0.08 0.14
-4 4 5 0.05 0.13
-4 5 -4 -0.26 0.14
5 -4 4 -0.21 0.12
5 4 -4 -0.1 0.15
5 4 4 0.03 0.11
4 5 -4 -0.07 0.17
4 5 4 -0.1 0.12
5 -4 -4 -0.17 0.11
4 -5 -4 -0.09 0.11
4 -5 4 -0.22 0.14
4 -4 -5 0.04 0.11
4 -4 5 -0.06 0.13
4 4 -5 -0.21 0.17
4 4 5 -0.14 0.1
-4 5 4 -0.04 0.13
-5 4 4 -0.11 0.12
-4 -5 -4 -0.17 0.11
-4 -5 4 -0.03 0.17
5 0 5 16.24 1.18
5 0 5 14.88 1.17
5 5 0 15.94 1.21
-5 5 0 15.42 1.21
0 5 5 15.44 1.2
-5 -5 0 15.57 1.21
-5 0 5 15.74 1.21
5 -5 0 14.76 1.2
0 -5 -5 15.27 1.2
0 -5 5 14.98 1.22
0 5 -5 15.42 1.22
5 -1 5 -0.13 0.09
5 -5 1 0 0.11
-5 1 5 -0.06 0.1
-5 5 -1 -0.1 0.12
-5 5 1 -0.02 0.11
-1 -5 -5 -0.1 0.11
-1 -5 5 -0.08 0.15
-5 -5 -1 -0.1 0.12
-5 -5 1 0 0.14
-5 -1 5 0.01 0.13
-5 1 -5 0 0.08
-5 1 5 -0.04 0.12
-1 5 -5 0.09 0.15
-1 5 5 -0.08 0.13
1 -5 -5 -0.13 0.1
1 -5 5 -0.05 0.15
1 5 -5 0.1 0.16
1 5 5 -0.11 0.12
5 -5 -1 0.04 0.11
5 1 -5 -0.08 0.12
5 1 5 -0.05 0.07
5 1 5 -0.03 0.06
5 5 -1 0.07 0.14
5 5 1 -0.01 0.13
-5 -2 5 32.04 2.44
-5 -2 -5 30.51 2.41
-5 -5 -2 33.48 2.43
-5 -5 2 31.52 2.44
-5 5 2 31.72 2.43
-2 -5 -5 31.03 2.42
-2 -5 5 31.62 2.45
-2 5 -5 32.4 2.44
-2 5 5 32.09 2.43
2 -5 -5 30.9 2.43
2 -5 5 32.44 2.44
2 5 -5 32.6 2.45
2 5 5 31.65 2.43
5 -5 -2 31.06 2.43
5 -5 2 32.52 2.43
5 -2 -5 31.15 2.42
5 -2 5 31.94 2.42
5 2 -5 31.45 2.44
5 2 5 31.38 2.41
5 5 -2 32.15 2.44
5 5 2 32.03 2.43
-5 5 -2 33.07 2.43
-5 2 -5 32.17 2.42
-5 2 5 32.36 2.43
5 5 3 -0.05 0.12
3 5 -5 -0.11 0.16
3 5 5 -0.22 0.11
5 -5 -3 -0.03 0.11
5 -5 3 -0.07 0.13
5 -3 -5 0.04 0.11
5 -3 5 -0.06 0.11
5 3 -5 -0.09 0.15
5 3 5 0.02 0.09
5 5 -3 -0.08 0.16
-5 3 5 -0.05 0.12
-5 5 -3 -0.02 0.13
-5 5 3 -0.22 0.12
-3 -5 -5 -0.02 0.11
-3 -5 5 -0.04 0.17
-3 5 -5 0.03 0.15
-3 5 5 0.04 0.14
3 -5 -5 -0.02 0.12
3 -5 5 -0.06 0.15
-5 -5 -3 -0.09 0.12
-5 -5 3 -0.22 0.16
-5 -3 -5 -0.01 0.08
-5 -3 5 0.15 0.15
-5 3 -5 -0.2 0.11
5 5 -4 4.21 0.48
4 5 -5 3.38 0.48
4 5 5 3.49 0.4
5 -5 -4 3.62 0.41
5 -5 4 3.6 0.41
5 -4 -5 4.32 0.39
5 -4 5 3.86 0.41
5 4 -5 3.36 0.47
5 4 5 3.73 0.38
-5 4 -5 3.83 0.42
-5 4 5 4.2 0.4
-5 5 -4 3.2 0.42
-5 5 4 4.02 0.41
-4 -5 -5 3.77 0.37
-4 -5 5 3.71 0.48
-4 5 -5 3.54 0.44
-4 5 5 3.51 0.41
4 -5 -5 4.03 0.39
4 -5 5 3.51 0.43
-5 -5 -4 3.2 0.37
-5 -5 4 3.47 0.48
-5 -4 -5 3.74 0.35
-5 -4 5 2.72 0.34
5 5 4 3.58 0.4
-5 5 5 -0.09 0.15
-5 5 -5 -0.12 0.14
5 5 5 0.21 0.13
5 -5 -5 0.05 0.13
5 -5 5 0 0.14
5 5 -5 -0.02 0.18
-5 -5 -5 0.11 0.11
-5 -5 5 0.28 0.19
0 -6 0 26.6 2.01
0 0 6 26.87 2.01
0 6 0 26.25 2.02
-6 0 0 26.73 2
-6 0 0 25.34 1.99
0 0 -6 26.3 2.01
-6 0 1 19.91 1.53
0 -6 -1 19.96 1.55
0 -6 1 20.01 1.55
0 6 -1 20.31 1.56
0 6 1 20.08 1.55
1 0 -6 20 1.55
1 0 6 20.3 1.55
6 -1 0 20.19 1.53
1 6 0 20.39 1.56
-6 0 -1 20.21 1.53
-6 0 -1 20.09 1.52
-6 0 1 19.94 1.54
-6 1 0 20.29 1.53
-1 0 -6 20.77 1.55
-1 0 6 19.55 1.55
0 1 -6 20.09 1.55
0 1 6 20.13 1.54
0 1 6 19.72 1.53
1 -6 0 19.77 1.55
-1 6 0 20.51 1.56
-1 -6 0 19.69 1.55
6 1 0 19.91 1.53
-6 -1 0 20.74 1.53
0 -1 6 20.45 1.55
-6 1 1 2.59 0.25
6 -1 1 2.5 0.22
6 1 -1 2.69 0.28
6 1 1 2.59 0.24
1 6 -1 2.55 0.36
1 1 -6 2.43 0.33
1 6 1 2.47 0.34
-1 6 -1 2.52 0.35
-1 6 1 2.61 0.34
-1 -6 -1 2.68 0.33
-1 -6 1 2.43 0.34
-1 -1 6 2.62 0.34
-1 1 -6 2.59 0.31
-1 1 6 2.44 0.32
-1 1 6 2.24 0.28
-6 -1 -1 2.66 0.25
1 -6 -1 2.49 0.32
1 -1 6 2.69 0.31
1 1 6 2.74 0.29
1 1 6 2.44 0.26
1 -6 1 2.64 0.34
-6 1 -1 2.5 0.23
-6 -1 1 2.71 0.28
2 6 0 9.72 0.81
2 -6 0 9.58 0.8
-2 0 -6 9.82 0.78
-2 0 6 9.37 0.8
0 2 -6 9.92 0.8
0 2 6 10.15 0.78
0 6 2 9.51 0.8
2 0 -6 9.66 0.81
2 0 6 9.66 0.79
6 -2 0 9.67 0.76
6 2 0 10.55 0.78
-6 -2 0 9.97 0.77
-6 2 0 10.19 0.77
0 -6 -2 9.88 0.79
0 -6 2 9.84 0.81
0 6 -2 10.08 0.81
0 -2 6 10.02 0.8
-6 0 2 10.28 0.78
-2 -6 0 10.26 0.81
-2 6 0 9.15 0.81
0 -2 -6 9.45 0.77
-2 -1 6 -0.05 0.11
-2 1 -6 0.03 0.11
1 6 2 0.01 0.13
2 1 6 0.02 0.09
2 1 6 -0.1 0.07
6 -2 -1 0.02 0.07
-6 2 -1 0.15 0.07
2 -6 1 -0.03 0.11
-6 -1 -2 -0.03 0.05
-1 2 6 0.01 0.09
-1 6 -2 0.03 0.14
-2 6 1 -0.08 0.12
-2 -6 -1 -0.06 0.12
2 6 -1 0.08 0.14
-1 -6 2 0.03 0.13
6 1 -2 -0.07 0.1
6 2 1 0.03 0.08
1 -2 6 0 0.11
-6 1 2 -0.05 0.08
1 -6 -2 0.02 0.11
-6 -2 1 -0.09 0.09
1 2 -6 -0.05 0.12
-1 -2 -6 0 0.08
6 2 -1 0.04 0.1
2 -6 -1 0.04 0.11
-6 -1 2 -0.12 0.1
-6 1 -2 -0.03 0.05
2 -1 6 0.02 0.1
2 1 -6 -0.1 0.13
1 -2 -6 0.02 0.09
-2 1 6 -0.08 0.12
-6 -2 -1 -0.04 0.07
1 2 6 -0.05 0.08
-6 2 1 0.01 0.08
-1 6 2 0.13 0.13
1 -6 2 -0.17 0.13
1 6 -2 0.04 0.14
6 -2 1 -0.03 0.06
-2 -6 1 -0.01 0.13
-2 6 -1 0.07 0.14
2 6 1 0.03 0.13
-1 -2 6 -0.19 0.14
-1 2 -6 -0.01 0.11
-2 1 6 -0.01 0.09
-1 -6 -2 -0.02 0.12
-2 -2 6 3.84 0.42
2 -6 2 3.54 0.39
-2 2 -6 4.37 0.38
2 -2 -6 3.74 0.35
2 2 6 3.19 0.33
2 6 -2 4 0.43
2 6 2 3.66 0.42
2 -2 6 3.97 0.39
-6 -2 -2 3.39 0.32
-6 2 2 3.18 0.34
-2 -6 -2 3.6 0.38
-2 -6 2 3.71 0.42
-2 -2 -6 3.36 0.33
6 2 -2 4.07 0.38
-6 2 -2 3.05 0.32
2 2 -6 4.09 0.41
-2 2 6 3.56 0.36
-2 6 -2 4.01 0.41
-6 -2 2 4.17 0.37
6 2 2 3.83 0.32
6 -2 -2 3.73 0.34
-2 6 2 3.85 0.4
2 -6 -2 3.73 0.38
6 -2 2 3.41 0.31
0 -3 6 6.89 0.59
0 3 6 6.46 0.56
0 -3 -6 6.72 0.54
-6 -3 0 6.61 0.55
-6 3 0 6.61 0.54
-3 0 6 6.53 0.59
0 -6 -3 6.55 0.57
0 -6 3 7.19 0.59
0 6 -3 6.61 0.6
0 6 3 6.75 0.59
3 0 -6 6.57 0.59
3 0 6 6.23 0.55
6 -3 0 6.37 0.54
6 3 0 6.56 0.56
-6 0 3 6.69 0.56
0 3 -6 6.23 0.59
3 -6 0 6.92 0.57
-3 6 0 6.59 0.58
-3 -6 0 6.42 0.58
3 6 0 6.35 0.58
-3 -1 6 0.51 0.15
-6 3 -1 0.53 0.1
3 -6 1 0.53 0.13
-3 1 -6 0.68 0.11
-6 1 3 0.34 0.09
-1 -3 -6 0.61 0.1
3 6 -1 0.53 0.16
1 -3 6 0.59 0.14
3 1 6 0.33 0.09
6 3 1 0.62 0.11
-3 6 1 0.52 0.14
-1 6 -3 0.58 0.16
-1 3 6 0.51 0.11
1 3 -6 0.51 0.14
-6 -3 1 0.51 0.12
-3 -6 -1 0.56 0.14
6 1 -3 0.63 0.13
1 6 3 0.39 0.13
3 1 6 0.52 0.1
1 -6 -3 0.57 0.13
6 -3 -1 0.47 0.09
-1 -6 3 0.61 0.16
-6 1 -3 1.04 0.13
-1 3 -6 0.49 0.13
3 -1 6 0.44 0.11
-6 3 1 0.33 0.1
3 6 1 0.6 0.15
-3 -6 1 0.66 0.15
-3 1 6 0.67 0.11
-6 -1 3 0.45 0.12
3 1 -6 0.76 0.15
1 -3 -6 0.29 0.11
6 3 -1 0.55 0.12
-3 6 -1 0.63 0.14
-1 -3 6 0.43 0.14
1 6 -3 0.55 0.16
-1 -6 -3 0.52 0.13
1 3 6 0.44 0.11
3 -6 -1 0.56 0.13
-6 -3 -1 0.49 0.11
1 -6 3 0.54 0.14
-3 1 6 0.4 0.14
-1 6 3 0.66 0.14
6 -3 1 0.47 0.09
-3 6 2 2.73 0.36
-2 6 -3 3.11 0.39
-3 -2 6 2.69 0.39
-3 -6 -2 3.13 0.36
-2 -6 3 2.56 0.4
-6 -2 -3 2.98 0.25
-2 3 6 2.97 0.33
6 -3 -2 2.99 0.29
3 2 6 2.85 0.29
6 -2 3 2.95 0.27
6 2 -3 2.55 0.36
-3 2 -6 2.78 0.33
6 3 2 2.71 0.3
2 6 3 2.86 0.35
2 -3 6 3.17 0.38
-2 -3 -6 2.93 0.3
3 -6 2 3.11 0.36
3 6 -2 2.76 0.39
2 3 -6 2.81 0.39
-6 2 3 2.58 0.31
2 -6 -3 2.85 0.34
-6 3 -2 2.68 0.29
-6 -3 2 2.79 0.35
3 -2 -6 3.03 0.32
-3 -6 2 3.06 0.4
-6 -2 3 2.43 0.36
-6 3 2 2.9 0.31
6 2 3 2.61 0.26
-6 -3 -2 2.97 0.29
-6 2 -3 3.03 0.28
-2 -3 6 2.69 0.4
-2 3 -6 3.08 0.36
6 3 -2 2.93 0.37
-2 -6 -3 2.73 0.33
-2 6 3 3.29 0.36
2 -6 3 3.01 0.38
2 6 -3 2.98 0.42
-3 6 -2 2.99 0.4
3 -2 6 3.05 0.34
3 2 -6 2.96 0.39
6 -2 -3 3.24 0.3
6 -3 2 2.88 0.29
2 3 6 3.04 0.31
3 6 2 2.44 0.37
2 -3 -6 2.98 0.32
-3 2 6 2.79 0.33
3 -6 -2 3.09 0.35
-3 -2 -6 2.78 0.28
6 -3 3 2.71 0.29
6 3 -3 2.95 0.38
6 3 3 2.61 0.29
-3 6 -3 2.71 0.37
-3 -6 -3 2.98 0.35
-3 -3 -6 3 0.28
-3 -3 6 2.62 0.4
6 -3 -3 2.95 0.31
3 -6 -3 2.82 0.36
-3 -6 3 2.22 0.28
3 -3 -6 3 0.32
3 -3 6 2.9 0.36
3 3 -6 2.2 0.27
3 3 6 2.74 0.3
3 6 -3 2.03 0.27
-3 3 6 2.42 0.33
-6 3 3 2.42 0.3
-3 6 3 3.13 0.37
-6 -3 -3 2.98 0.28
-6 -3 3 2.91 0.37
-6 3 -3 3.03 0.3
3 -6 3 3 0.38
3 6 3 3.02 0.36
-3 3 -6 3.19 0.35
-6 -4 0 77.14 5.39
0 -4 -6 66.57 5.39
-4 6 0 71.55 5.39
0 -6 -4 71.23 5.39
-6 4 0 72.02 5.39
-4 -6 0 73.18 5.39
-6 0 4 68.77 5.39
4 6 0 72.22 5.39
0 -4 6 71.78 5.4
0 4 -6 71.84 5.4
-4 0 6 69.3 5.4
0 -6 4 71.26 5.4
0 6 -4 71.9 5.4
0 6 4 71.7 5.39
4 0 6 68.8 5.38
6 -4 0 69.78 5.38
6 4 0 72.14 5.39
0 4 6 73.47 5.39
4 -6 0 68.67 5.39
-4 -1 6 17.11 1.32
1 4 -6 16.3 1.32
-4 1 -6 16.42 1.29
1 -6 -4 17.26 1.3
-1 -6 4 16.88 1.32
1 -4 6 16.36 1.32
4 6 -1 17.19 1.32
1 6 4 16.47 1.3
4 -6 1 16.98 1.3
-1 4 6 16.56 1.3
-1 -4 -6 16.35 1.29
-4 6 1 17.46 1.31
-6 -4 1 16.89 1.31
-6 4 -1 17.66 1.29
6 4 1 16.42 1.3
6 1 -4 16.65 1.3
4 1 6 15.73 1.28
4 1 6 16.53 1.28
6 -4 -1 17.02 1.29
-1 6 -4 17.29 1.32
-6 1 4 16.81 1.3
-6 1 4 16.57 1.28
-4 -6 -1 17.09 1.3
-6 1 -4 16.58 1.27
-4 6 -1 16.56 1.31
-6 -1 4 16.46 1.31
6 -4 1 16.79 1.29
-4 -6 1 17.44 1.31
-1 -4 6 16.93 1.32
-1 4 -6 16.73 1.32
-4 1 6 16.45 1.29
-6 -4 -1 16.59 1.3
4 -6 -1 16.74 1.3
-6 4 1 16.8 1.29
-1 6 4 17.03 1.31
4 6 1 16.75 1.31
-4 1 6 16.16 1.31
1 -4 -6 16.02 1.29
6 4 -1 17.27 1.31
1 -6 4 16.72 1.31
1 6 -4 16.15 1.32
4 -1 6 16.49 1.29
4 1 -6 16.92 1.31
-1 -6 -4 15.89 1.3
1 4 6 16.83 1.3
6 2 -4 5.25 0.52
6 -2 4 5.21 0.43
2 4 -6 4.49 0.53
-6 -2 -4 4.99 0.4
-6 2 4 5.11 0.46
-2 4 6 4.55 0.47
2 -6 -4 4.98 0.47
-2 -6 4 5.66 0.54
2 6 4 5.13 0.48
4 -2 -6 5.36 0.46
-4 6 2 5.02 0.49
4 6 -2 4.8 0.52
-4 -6 -2 5.49 0.49
6 -4 -2 4.83 0.46
4 2 6 5.13 0.43
4 -6 2 5.31 0.49
-6 -4 2 5.58 0.51
-6 4 -2 5.72 0.46
-4 -2 6 5.23 0.52
-4 2 -6 5.41 0.46
-2 -4 -6 4.96 0.46
-2 6 -4 5.04 0.52
2 -4 6 5.15 0.51
6 4 2 5.31 0.46
6 2 4 5.28 0.42
6 -2 -4 4.71 0.44
-6 -2 4 5.29 0.5
-4 2 6 4.99 0.47
4 -2 6 5.33 0.47
-4 -2 -6 4.99 0.42
2 6 -4 5.22 0.55
-6 2 -4 4.99 0.44
-2 6 4 4.88 0.49
-4 -6 2 4.62 0.51
-2 -6 -4 4.68 0.47
-6 -4 -2 5.04 0.46
4 6 2 4.88 0.5
-2 -4 6 5.45 0.53
-4 6 -2 5.4 0.49
2 -6 4 4.99 0.52
-6 4 2 4.7 0.45
2 4 6 5.02 0.46
4 -6 -2 5.28 0.47
4 2 -6 5.02 0.53
-2 4 -6 4.82 0.5
6 4 -2 4.67 0.51
2 -4 -6 4.96 0.47
6 -4 2 4.86 0.45
-4 -6 -3 10.91 0.86
6 3 -4 10.3 0.88
-4 6 3 10.48 0.87
-3 -4 -6 10.4 0.84
6 -3 4 10.89 0.84
-3 6 -4 10.51 0.88
-6 -3 -4 10.7 0.82
-4 -3 6 10.73 0.89
4 3 6 10.97 0.84
-6 -4 3 10.72 0.89
3 -4 6 10.41 0.87
3 4 -6 10.11 0.89
6 4 3 11.46 0.84
4 6 -3 10.58 0.9
4 -3 -6 10.57 0.85
6 -4 -3 10.34 0.85
-3 4 6 10.26 0.86
-6 3 4 10.48 0.85
-6 4 -3 11.14 0.85
4 -6 3 10.43 0.87
-4 3 -6 10.57 0.86
3 6 4 10.19 0.87
3 -6 -4 10.47 0.86
-3 -6 4 10.41 0.89
4 6 3 10.29 0.87
-3 6 4 9.91 0.87
-4 3 6 10.88 0.86
3 4 6 10.34 0.84
4 -6 -3 10.64 0.86
3 -4 -6 10.21 0.85
-4 6 -3 10.58 0.88
6 -3 -4 10.71 0.85
-3 -4 6 10.31 0.9
-3 4 -6 10.78 0.87
-4 -6 3 10.44 0.89
-4 -3 -6 10.5 0.83
-3 -6 -4 10.37 0.86
-6 3 -4 11.05 0.84
-6 -3 4 10.78 0.89
3 -6 4 10.55 0.88
3 6 -4 10.74 0.9
6 3 4 11.12 0.83
4 3 -6 10.13 0.89
4 -3 6 10.37 0.86
-6 -4 -3 10.86 0.84
6 -4 3 10.95 0.84
6 4 -3 10.6 0.87
-6 4 3 10.3 0.86
-6 -4 4 73.51 5.67
6 4 -4 73 5.67
-6 -4 -4 74.76 5.65
4 -4 6 75.33 5.66
4 4 -6 73.6 5.67
4 4 6 74.31 5.65
4 6 -4 73.39 5.67
4 6 4 76.41 5.66
6 -4 -4 74.77 5.65
6 -4 4 76.43 5.65
6 4 4 77.02 5.65
-6 4 4 77.7 5.66
-6 4 -4 75.21 5.66
-4 -6 -4 74.67 5.66
-4 -6 4 75.43 5.67
-4 -4 -6 72.61 5.65
-4 -4 6 74 5.67
-4 6 -4 73.74 5.66
4 -4 -6 74.08 5.66
4 -6 -4 75.65 5.66
4 -6 4 74.64 5.66
-4 6 4 74.64 5.66
-4 4 6 75.51 5.66
-4 4 -6 73.66 5.66
6 0 5 20.85 1.82
-6 -5 0 24.46 1.85
6 -5 0 24.18 1.84
-5 0 6 25.07 1.86
0 6 -5 24.61 1.87
0 6 5 23.89 1.85
-6 5 0 23.57 1.85
0 -5 -6 24.09 1.84
0 -5 6 23.9 1.86
0 5 -6 24.58 1.87
0 5 6 24.41 1.85
5 -6 0 24.11 1.85
0 -6 5 24.46 1.87
5 0 6 24.6 1.83
5 6 0 23.38 1.86
0 -6 -5 23.43 1.84
-5 -6 0 24.43 1.86
6 5 0 24.35 1.85
-5 6 0 25.38 1.85
-6 0 5 23.89 1.86
-5 -1 6 0.41 0.17
-1 6 -5 0.55 0.18
-1 -6 5 0.67 0.18
6 5 1 0.45 0.14
5 -6 1 0.67 0.14
-6 1 5 0.61 0.15
-6 1 5 0.51 0.12
-5 -6 -1 0.56 0.15
1 -6 -5 0.38 0.14
-5 1 -6 0.73 0.11
1 5 -6 0.38 0.17
6 -5 -1 0.52 0.12
-6 -5 1 0.69 0.17
-5 6 1 0.47 0.16
5 1 6 0.6 0.1
5 1 6 0.5 0.08
6 1 -5 0.29 0.17
-1 5 6 0.53 0.15
1 -5 6 0.49 0.18
1 6 5 0.55 0.15
6 -1 5 0.72 0.09
5 6 -1 0.51 0.18
-6 5 -1 0.46 0.14
-1 -5 -6 0.69 0.13
-5 6 -1 0.33 0.15
5 -6 -1 0.45 0.14
-1 -5 6 0.42 0.18
1 6 -5 0.24 0.17
-5 1 6 0.36 0.12
-1 5 -6 0.17 0.17
-1 -6 -5 0.63 0.14
6 -5 1 0.54 0.13
6 5 -1 0.33 0.15
1 -6 5 0.5 0.18
5 6 1 0.45 0.16
-6 -5 -1 0.44 0.14
1 -5 -6 0.47 0.14
-5 -6 1 0.61 0.17
-5 1 6 0.49 0.15
1 5 6 0.31 0.13
5 -1 6 0.63 0.11
5 1 -6 0.4 0.16
-6 5 1 0.46 0.14
-1 6 5 0.63 0.16
-6 -1 5 0.73 0.16
6 1 5 0.67 0.08
6 1 5 0.49 0.07
-6 1 -5 0.53 0.08
-2 -5 -6 -0.1 0.11
-5 -2 6 -0.1 0.16
-5 6 2 0.02 0.15
-2 5 6 0.09 0.15
-2 -6 5 0.11 0.18
-2 6 -5 0.01 0.17
6 -2 5 0.07 0.09
5 -6 2 -0.17 0.14
6 5 2 -0.08 0.13
2 5 -6 -0.06 0.18
5 6 -2 0.19 0.18
6 2 -5 0.06 0.15
-5 2 -6 0.08 0.11
2 -5 6 -0.04 0.16
-6 -2 -5 0.01 0.06
-6 2 5 0.24 0.12
2 6 5 0.07 0.13
5 2 6 0.02 0.09
2 -6 -5 -0.25 0.13
-5 -6 -2 0.11 0.14
-6 -5 2 -0.09 0.16
6 -5 -2 0.02 0.12
-6 5 -2 -0.04 0.13
-5 6 -2 0.01 0.15
2 -6 5 -0.08 0.17
6 5 -2 0.04 0.15
5 -6 -2 0.06 0.13
-6 5 2 -0.03 0.13
-5 -2 -6 0.04 0.07
-2 -6 -5 -0.1 0.13
2 5 6 -0.1 0.13
-5 2 6 -0.1 0.13
2 6 -5 -0.16 0.19
-2 6 5 0.08 0.15
5 6 2 0.03 0.15
5 -2 6 -0.11 0.11
5 2 -6 -0.02 0.16
6 2 5 0.05 0.07
6 -5 2 -0.06 0.12
-6 2 -5 0.01 0.1
-6 -2 5 -0.11 0.15
-6 -5 -2 -0.1 0.12
-5 -6 2 0.12 0.17
-2 -5 6 -0.15 0.18
2 -5 -6 -0.03 0.12
-2 5 -6 -0.04 0.17
6 -3 5 0.09 0.11
5 6 -3 0.14 0.18
-3 6 -5 -0.07 0.17
-5 3 -6 0.17 0.13
6 5 3 0.05 0.13
3 -5 6 0.03 0.17
3 5 -6 0.11 0.18
5 -6 3 0.23 0.14
-6 5 -3 0.02 0.14
-5 -3 6 0.08 0.18
-3 -5 -6 0.08 0.12
-3 -6 5 -0.11 0.18
3 -6 -5 0.16 0.13
3 6 5 0.15 0.14
5 -3 -6 0.2 0.12
5 3 6 0 0.1
6 -5 -3 0.21 0.12
-3 5 6 0.09 0.14
-5 6 3 -0.01 0.16
6 3 -5 0.09 0.15
-6 -3 -5 0.13 0.08
-6 3 5 0.06 0.12
-5 -6 -3 -0.01 0.14
-6 -5 3 0.05 0.16
3 -6 5 0.09 0.16
-3 6 5 -0.08 0.15
5 3 -6 0.04 0.17
3 -5 -6 0.05 0.13
5 -3 6 0.02 0.13
3 5 6 -0.06 0.13
5 -6 -3 -0.05 0.14
-6 5 3 0.36 0.15
-5 -6 3 0.13 0.17
-5 6 -3 0.09 0.15
-6 -5 -3 0.06 0.12
-5 3 6 -0.08 0.14
-3 -5 6 0.01 0.19
3 6 -5 -0.09 0.19
6 3 5 0.07 0.1
-5 -3 -6 0.18 0.09
6 -3 -5 0.19 0.12
-3 -6 -5 0.02 0.13
5 6 3 0.08 0.15
-6 3 -5 0.09 0.12
6 -5 3 0.13 0.13
6 5 -3 0.12 0.17
-6 -3 5 0.02 0.17
-3 5 -6 0.01 0.16
4 5 -6 16.01 1.31
-5 6 4 17.17 1.28
-4 -5 -6 16.36 1.26
-5 4 -6 15.58 1.28
4 -5 6 16.58 1.29
-4 6 -5 16.11 1.29
5 6 -4 15 1.31
5 -6 4 16.34 1.29
4 6 5 16.03 1.28
6 -4 5 17.2 1.27
6 4 -5 16.53 1.3
6 5 4 16.27 1.27
-6 -5 4 16.29 1.31
-6 5 -4 16.73 1.28
-5 -4 6 15.8 1.31
-6 4 5 16.46 1.28
-4 -6 5 16 1.32
4 -6 -5 15.85 1.27
-5 -6 -4 16.71 1.27
5 -4 -6 16.08 1.28
5 4 6 15.91 1.26
6 -5 -4 16.57 1.27
-4 5 6 17.33 1.29
-6 -4 -5 16.41 1.25
4 -6 5 15.8 1.28
-6 5 4 17.01 1.28
5 -4 6 16.17 1.28
-6 4 -5 16.33 1.28
-4 -6 -5 17.04 1.27
-5 -6 4 14.69 1.31
-5 6 -4 16.29 1.29
-5 -4 -6 15.67 1.25
-4 -5 6 16.57 1.32
4 -5 -6 15.96 1.27
-4 5 -6 16.94 1.3
5 -6 -4 15.99 1.27
5 6 4 16.61 1.29
-5 4 6 16.17 1.28
6 4 5 17.37 1.26
-4 6 5 16.07 1.29
-6 -4 5 14.28 1.31
-6 -5 -4 16.71 1.26
5 4 -6 16.33 1.31
6 -4 -5 17.03 1.28
6 -5 4 16.22 1.28
6 5 -4 16.24 1.3
4 6 -5 15.13 1.32
4 5 6 16.4 1.27
-6 -5 -5 0.09 0.12
-6 -5 5 0.34 0.22
-6 5 -5 0.08 0.16
-6 5 5 0.11 0.16
-5 -6 -5 0.16 0.13
-5 -6 5 0.05 0.21
-5 -5 -6 0.05 0.12
-5 -5 6 0.42 0.19
-5 5 -6 0.39 0.17
-5 5 6 0.17 0.15
-5 6 -5 0.19 0.17
-5 6 5 0.15 0.16
5 -6 -5 0 0.14
5 -6 5 0.2 0.17
5 -5 -6 0.1 0.14
5 -5 6 0.2 0.15
5 5 -6 0.07 0.2
5 5 6 0.22 0.14
5 6 -5 -0.01 0.19
5 6 5 0.15 0.15
6 -5 -5 0.21 0.14
6 -5 5 0.03 0.15
6 5 -5 0.13 0.19
6 5 5 0.09 0.13
-6 0 6 167.67 12.77
0 6 -6 170.54 12.77
0 6 6 165.38 12.76
6 -6 0 167.43 12.76
6 0 6 171.35 12.75
6 0 6 159.61 12.75
6 6 0 173.9 12.76
-6 6 0 172.5 12.76
0 -6 -6 164.01 12.76
0 -6 6 169.44 12.77
-6 -6 0 176.66 12.76
-6 1 6 0.2 0.13
-6 -6 1 0.1 0.18
-6 -1 6 0.28 0.17
-6 1 -6 0.23 0.09
-6 1 6 0.26 0.17
-6 -6 -1 0.2 0.15
6 1 6 0.18 0.07
6 6 -1 0.21 0.18
6 6 1 -0.07 0.16
6 1 -6 0.16 0.18
6 1 6 0.18 0.09
-6 6 -1 0.32 0.16
-6 6 1 0.32 0.15
-1 -6 -6 0.18 0.14
-1 -6 6 0.54 0.2
-1 6 -6 -0.12 0.19
-1 6 6 0.34 0.16
1 -6 -6 0.17 0.14
1 -6 6 0.1 0.18
1 6 -6 0.09 0.19
1 6 6 0.24 0.16
6 -6 -1 0.1 0.14
6 -6 1 0.17 0.14
6 -1 6 0.09 0.11
6 6 2 1.23 0.18
6 6 -2 1.23 0.21
6 2 -6 1.49 0.2
6 2 6 1.62 0.21
-6 -6 -2 1.1 0.18
-6 -6 2 1.11 0.21
-6 -2 -6 1.72 0.18
-6 -2 6 0.99 0.2
-6 2 -6 0.97 0.15
-6 2 6 1.37 0.17
-6 6 -2 1.17 0.19
-6 6 2 1.4 0.19
-2 -6 -6 1.27 0.17
-2 -6 6 1.21 0.23
-2 6 -6 0.94 0.21
-2 6 6 1.4 0.2
2 -6 -6 1.21 0.17
2 -6 6 1.2 0.21
2 6 -6 1.24 0.24
2 6 6 1.13 0.18
6 -6 -2 1.33 0.17
6 -6 2 1.22 0.18
6 -2 6 1.06 0.15
3 -6 -6 -0.04 0.15
3 -6 6 -0.08 0.18
-3 6 -6 0.11 0.19
-3 6 6 0 0.16
-3 -6 6 -0.01 0.21
-6 6 -3 -0.05 0.16
-6 6 3 0.05 0.16
-3 -6 -6 -0.1 0.13
-6 3 -6 0.03 0.13
-6 3 6 0.02 0.14
6 -6 -3 -0.07 0.14
6 -6 3 -0.06 0.14
6 -3 -6 -0.12 0.12
6 -3 6 -0.16 0.13
6 3 -6 -0.14 0.18
6 3 6 -0.08 0.1
6 6 -3 0.02 0.18
6 6 3 -0.05 0.15
-6 -6 -3 0.04 0.14
-6 -6 3 -0.11 0.19
-6 -3 -6 -0.05 0.09
-6 -3 6 -0.07 0.18
3 6 -6 -0.21 0.18
3 6 6 -0.17 0.14
6 6 -4 11.35 1.02
6 6 4 12.64 0.99
-6 -6 -4 12.1 0.98
-6 -6 4 12.53 1.03
-6 -4 -6 12.21 0.95
-6 -4 6 10.09 1.05
-4 -6 -6 12.58 0.97
-4 -6 6 12.52 1.05
-4 6 -6 12.51 1.02
-4 6 6 12.48 1
4 -6 -6 12.22 0.99
4 -6 6 12.25 1.01
4 6 -6 11.41 1.04
4 6 6 12.55 0.99
6 -6 -4 12.28 0.98
6 -6 4 12.29 0.99
6 -4 -6 11.8 0.98
6 -4 6 12.42 0.98
6 4 -6 12.15 1.03
6 4 6 12.83 0.96
-6 4 -6 12.64 0.99
-6 4 6 11.88 0.99
-6 6 -4 12.02 1
-6 6 4 11.9 0.99
6 6 -5 0.02 0.2
6 6 5 -0.05 0.16
5 6 -6 -0.16 0.19
5 6 6 -0.08 0.15
6 -6 -5 -0.12 0.14
6 -6 5 0.1 0.16
6 -5 -6 -0.1 0.13
6 -5 6 -0.18 0.15
6 5 -6 -0.09 0.2
6 5 6 0.13 0.14
-6 5 -6 0.05 0.16
-6 5 6 -0.03 0.15
-6 6 -5 0.14 0.17
-6 6 5 -0.09 0.16
-5 -6 -6 -0.33 0.13
-5 -6 6 -0.14 0.21
-5 6 -6 -0.4 0.18
-5 6 6 -0.17 0.16
5 -6 -6 -0.07 0.14
5 -6 6 0.04 0.17
-6 -6 -5 0.11 0.13
-6 -6 5 -0.22 0.21
-6 -5 -6 -0.08 0.11
-6 -5 6 0.17 0.19
6 -6 -6 47.14 3.62
-6 6 6 46.97 3.62
-6 -6 6 46.88 3.64
-6 6 -6 49.69 3.63
6 -6 6 48.37 3.63
6 6 -6 48.56 3.64
6 6 6 46.71 3.62
-6 -6 -6 46.58 3.61
0 -7 0 -0.02 0.13
-7 0 0 -0.01 0.06
0 0 7 -0.1 0.13
0 7 0 -0.05 0.16
-7 0 0 -0.02 0.09
0 0 -7 -0.12 0.13
-7 -1 0 3.52 0.33
-1 -7 0 3.16 0.41
-7 0 1 3.21 0.3
1 0 -7 3.17 0.4
1 0 7 3.33 0.39
7 1 0 3.1 0.32
-7 1 0 3.29 0.31
-1 0 7 3.56 0.4
0 -7 -1 3.22 0.4
0 -7 1 3.23 0.42
0 7 -1 3.1 0.43
0 7 1 3.61 0.42
-7 0 -1 3.52 0.3
-7 0 -1 3.4 0.28
-7 0 1 3.32 0.35
1 7 0 3.26 0.43
0 1 7 3.57 0.34
1 -7 0 3.19 0.4
-1 7 0 3.29 0.42
0 -1 7 3.42 0.41
0 1 -7 3.81 0.39
0 1 7 3.37 0.37
-1 1 7 -0.06 0.13
-1 1 7 -0.02 0.1
-1 7 -1 -0.24 0.15
-1 7 1 -0.16 0.15
1 -7 -1 0.04 0.13
1 -7 1 -0.31 0.15
-1 1 -7 -0.11 0.12
-1 -7 -1 -0.05 0.14
-1 -7 1 0.05 0.15
-1 -1 7 -0.18 0.14
-7 -1 -1 0.02 0.08
1 -1 7 -0.14 0.14
1 1 -7 -0.05 0.13
1 1 7 -0.04 0.11
1 1 7 0.01 0.09
1 7 -1 -0.16 0.16
1 7 1 0.01 0.15
7 -1 1 -0.09 0.05
7 1 -1 -0.04 0.1
7 1 1 -0.1 0.07
-7 -1 1 0 0.1
-7 1 -1 -0.05 0.07
-7 1 1 -0.13 0.08
2 7 0 0.02 0.15
7 2 0 0.07 0.1
-7 0 -2 0.12 0.05
-7 0 -2 0.1 0.04
-7 0 2 0.04 0.11
-7 0 2 0.21 0.08
-2 -7 0 0.28 0.14
-2 7 0 0.01 0.16
0 -2 -7 0.08 0.09
0 -2 7 0.26 0.15
0 2 -7 0.24 0.14
0 2 7 0.05 0.1
2 -7 0 -0.15 0.15
0 -7 2 0.03 0.15
0 7 -2 0.13 0.16
7 -2 0 -0.03 0.07
0 7 2 -0.13 0.14
-7 2 0 0.14 0.08
-7 -2 0 0.16 0.1
0 -7 -2 0.1 0.14
2 0 7 0.35 0.12
-2 0 7 0.09 0.14
-2 -1 7 -0.09 0.14
7 -1 2 0.08 0.05
2 -7 1 -0.06 0.15
2 1 7 0.03 0.09
2 1 7 0 0.11
-1 -2 -7 0.11 0.09
1 7 2 -0.07 0.14
-1 -7 2 -0.07 0.16
1 -2 7 0.03 0.13
-7 1 2 0.16 0.09
-2 -7 -1 -0.03 0.15
2 7 -1 -0.03 0.15
-7 -1 -2 -0.04 0.06
-1 2 7 0.06 0.11
7 1 -2 -0.12 0.11
1 -7 -2 0.05 0.12
-2 1 -7 -0.02 0.12
-7 -2 1 -0.01 0.11
-7 2 -1 0.08 0.08
-2 7 1 -0.04 0.15
1 2 -7 0.05 0.14
7 2 1 0.12 0.08
7 -2 -1 0 0.08
-1 7 -2 -0.16 0.16
7 -2 1 0.03 0.07
-7 2 1 0.28 0.09
-7 -1 2 -0.11 0.11
1 -2 -7 0.11 0.11
-2 7 -1 0.1 0.17
1 2 7 0.14 0.1
2 -7 -1 -0.04 0.14
-2 1 7 0.04 0.1
-1 -7 -2 0.04 0.14
-7 1 -2 0.06 0.06
7 2 -1 -0.03 0.11
-1 7 2 0.1 0.15
1 -7 2 -0.06 0.15
1 7 -2 0.14 0.17
-7 -2 -1 -0.03 0.09
2 -1 7 0.14 0.12
2 1 -7 -0.14 0.13
2 7 1 -0.05 0.15
-1 -2 7 0.1 0.14
-1 2 -7 -0.03 0.13
-2 -7 1 0.12 0.15
-2 1 7 0.07 0.13
-2 -2 7 0.06 0.16
-2 -7 -2 -0.22 0.14
-2 -7 2 0.05 0.16
-2 -2 -7 -0.11 0.09
2 2 -7 -0.33 0.15
2 2 7 -0.06 0.09
2 7 -2 -0.14 0.17
2 7 2 -0.2 0.15
7 -2 -2 -0.02 0.09
7 2 -2 -0.04 0.12
7 2 2 -0.09 0.07
-7 -2 2 -0.12 0.11
-7 2 -2 -0.04 0.08
-7 2 2 0.16 0.09
-2 7 2 0.03 0.15
2 -7 -2 -0.26 0.14
2 -7 2 -0.14 0.15
2 -2 7 -0.23 0.13
-7 -2 -2 -0.16 0.07
-2 2 7 -0.08 0.11
-2 7 -2 0.05 0.16
-2 2 -7 -0.16 0.12
7 -2 2 -0.07 0.06
0 -7 -3 9.5 0.83
-7 0 3 9.77 0.82
-3 -7 0 9.65 0.84
3 -7 0 10.26 0.83
3 7 0 10.36 0.85
0 -7 3 10.56 0.86
0 7 -3 9.82 0.86
0 7 3 10.16 0.84
3 0 7 9.64 0.81
7 -3 0 10.42 0.8
7 3 0 10.84 0.81
-7 -3 0 10.6 0.81
0 3 -7 9.53 0.84
0 3 7 10.01 0.81
-7 3 0 11.05 0.8
-3 7 0 10.35 0.84
0 -3 -7 9.51 0.81
0 -3 7 10.3 0.85
-3 0 7 9.51 0.85
-3 -1 7 0.96 0.18
-3 -7 -1 1 0.18
-3 7 1 1.14 0.18
3 1 7 1.11 0.15
7 1 -3 1.1 0.16
3 1 7 1.16 0.13
1 7 3 1.34 0.19
-7 3 -1 0.87 0.13
7 -3 -1 1.15 0.13
3 7 -1 1.19 0.19
7 3 1 1.22 0.14
-3 1 -7 1.17 0.15
-1 3 7 1.41 0.15
-7 1 3 1.11 0.14
-7 -3 1 1.27 0.15
-7 1 3 1.16 0.15
-1 -3 -7 1.22 0.14
3 -7 1 1.2 0.18
1 3 -7 0.98 0.18
-1 -7 3 1.02 0.21
-1 7 -3 1.28 0.2
1 -3 7 1.31 0.18
1 -7 -3 1.28 0.17
3 -7 -1 1.1 0.17
3 7 1 1.18 0.19
1 -7 3 1.07 0.19
1 7 -3 1.37 0.2
-1 -3 7 1.26 0.2
-3 -7 1 0.96 0.19
-7 3 1 0.97 0.14
-3 7 -1 0.96 0.19
-1 -7 -3 1.2 0.17
7 -3 1 1.15 0.13
-1 7 3 1.35 0.19
3 1 -7 1.08 0.17
-1 3 -7 1.09 0.17
-3 1 7 0.96 0.17
3 -1 7 0.98 0.16
1 3 7 1.28 0.15
1 -3 -7 1.24 0.15
-7 1 -3 1.43 0.15
7 3 -1 1.18 0.16
-3 1 7 1.24 0.14
-7 -1 3 1.15 0.16
-7 -3 -1 1.3 0.14
3 -7 2 0.23 0.15
7 -3 -2 0.42 0.1
2 3 -7 0.33 0.16
-2 7 -3 0.12 0.17
7 -2 3 0.42 0.07
7 2 -3 0.23 0.14
3 2 7 0.47 0.1
3 7 -2 0.21 0.18
-2 -3 -7 0.49 0.11
-3 2 -7 0.41 0.12
2 -3 7 0.16 0.15
2 7 3 0.28 0.16
7 3 2 0.32 0.11
-3 -2 7 0.24 0.17
-3 -7 -2 0.17 0.15
-7 -2 -3 0.28 0.07
-3 7 2 0.31 0.16
-2 -7 3 0.27 0.18
-7 2 3 0.35 0.11
-7 -3 2 0.29 0.14
-7 3 -2 0.21 0.1
2 -7 -3 0.25 0.15
-2 3 7 0.35 0.14
3 -2 7 0.44 0.14
2 7 -3 0.17 0.17
-3 -7 2 0.34 0.18
-2 7 3 0.29 0.15
-2 -3 7 0.19 0.15
-2 -7 -3 0.15 0.14
7 -2 -3 0.16 0.1
-7 -2 3 0.59 0.14
-7 2 -3 0.32 0.09
-2 3 -7 0.42 0.15
2 3 7 0.42 0.11
2 -3 -7 0.25 0.12
-3 7 -2 0.1 0.17
3 -7 -2 0.09 0.14
-7 -3 -2 0.38 0.1
3 2 -7 0.2 0.16
7 2 3 0.34 0.07
7 -3 2 0.25 0.09
7 3 -2 0.27 0.13
3 7 2 0.12 0.16
-7 3 2 0.23 0.11
-3 2 7 0.43 0.14
2 -7 3 0.11 0.16
-3 -2 -7 0.34 0.09
7 3 3 -0.14 0.09
-3 7 -3 -0.17 0.18
-3 7 3 -0.15 0.16
3 -7 -3 -0.02 0.14
-3 -3 7 0.19 0.18
7 -3 -3 0.05 0.11
7 -3 3 -0.07 0.09
7 3 -3 -0.06 0.14
-7 -3 -3 -0.06 0.09
-7 -3 3 -0.23 0.14
-7 3 -3 0.01 0.1
-3 -3 -7 -0.05 0.1
-7 3 3 -0.14 0.11
-3 -7 -3 -0.16 0.14
3 -7 3 -0.17 0.15
3 -3 7 -0.17 0.15
3 3 -7 -0.06 0.17
-3 3 -7 -0.26 0.14
-3 3 7 0.07 0.14
3 7 3 -0.06 0.16
3 3 7 -0.12 0.1
-3 -7 3 -0.17 0.18
3 -3 -7 0.06 0.13
3 7 -3 -0.12 0.19
0 -4 -7 -0.15 0.12
0 -4 7 0.05 0.17
-4 7 0 -0.08 0.16
-7 0 4 -0.05 0.14
4 0 7 0.13 0.11
4 7 0 -0.31 0.17
0 4 7 -0.1 0.12
-4 -7 0 -0.02 0.16
7 -4 0 -0.24 0.11
7 4 0 -0.06 0.13
0 -7 4 -0.2 0.17
4 -7 0 -0.02 0.14
-7 -4 0 -0.04 0.14
-7 4 0 -0.13 0.11
-4 0 7 -0.09 0.16
0 -7 -4 -0.15 0.14
0 4 -7 -0.09 0.15
0 7 -4 -0.16 0.17
0 7 4 -0.04 0.15
-7 1 4 8.79 0.69
-4 1 -7 7.7 0.69
7 -4 -1 8.88 0.68
1 -7 -4 8.65 0.71
-1 -7 4 7.99 0.76
7 4 1 8.29 0.7
-1 -4 -7 8.61 0.69
-4 7 1 7.86 0.73
-7 -4 1 7.96 0.71
-1 4 7 8.95 0.7
7 1 -4 7.88 0.71
-7 1 4 7.7 0.71
1 -4 7 8.2 0.74
-4 -7 -1 7.83 0.72
4 1 7 8.87 0.67
-1 7 -4 8.04 0.77
4 1 7 7.38 0.68
-7 4 -1 8.57 0.68
4 -7 1 8.31 0.73
4 7 -1 8.32 0.75
-4 -1 7 7.58 0.75
1 4 -7 7.99 0.75
1 7 4 8.84 0.72
-7 -1 4 7.97 0.72
7 -4 1 8.63 0.68
-4 -7 1 8.25 0.75
-4 7 -1 8.02 0.73
1 -4 -7 8.74 0.69
1 4 7 9.23 0.71
-1 -4 7 8.74 0.76
4 -7 -1 8.7 0.72
-7 -4 -1 8.84 0.7
1 -7 4 8.56 0.75
1 7 -4 7.67 0.77
-1 7 4 8.91 0.72
-7 4 1 8.75 0.69
-4 1 7 8.39 0.73
-4 1 7 8.76 0.69
-1 -7 -4 8.39 0.71
7 4 -1 7.89 0.72
-1 4 -7 8.47 0.73
4 -1 7 7.71 0.69
4 1 -7 7.79 0.74
4 7 1 8.13 0.74
-2 -4 -7 0.3 0.12
4 2 7 0.69 0.1
-7 4 -2 0.43 0.12
-7 2 4 0.47 0.12
-4 7 2 0.45 0.18
7 -2 4 0.46 0.09
7 2 -4 0.41 0.16
-4 -7 -2 0.64 0.16
4 -7 2 0.61 0.16
2 -4 7 0.46 0.17
2 4 -7 0.18 0.18
-2 -7 4 0.13 0.2
-2 7 -4 0.29 0.19
2 -7 -4 0.49 0.17
4 7 -2 0.51 0.19
7 4 2 0.56 0.13
-7 -2 -4 0.52 0.07
-4 2 -7 0.43 0.13
-7 -4 2 0.33 0.16
2 7 4 0.42 0.16
-4 -2 7 0.63 0.17
7 -4 -2 0.56 0.12
-2 4 7 0.4 0.15
-7 2 -4 0.29 0.1
-7 -4 -2 0.4 0.12
7 -4 2 0.47 0.11
-2 -4 7 0.41 0.2
-2 -7 -4 0.15 0.15
-4 2 7 0.77 0.14
2 -4 -7 0.64 0.13
2 4 7 0.45 0.13
4 2 -7 0.31 0.18
2 -7 4 0.39 0.18
4 7 2 0.61 0.17
7 -2 -4 0.85 0.12
-4 -7 2 0.5 0.18
-2 7 4 0.55 0.17
-7 -2 4 0.16 0.16
2 7 -4 0.46 0.2
4 -7 -2 0.5 0.15
-2 4 -7 0.11 0.16
-7 4 2 0.43 0.13
-4 7 -2 0.7 0.17
4 -2 7 0.52 0.14
7 2 4 0.53 0.08
7 4 -2 0.34 0.15
7 3 -4 39.33 3.03
-3 4 7 40.01 3.02
7 -3 4 40.19 3.01
-7 4 -3 39.12 3.01
3 4 -7 38.89 3.04
4 3 7 40.51 3.01
-4 7 3 39.84 3.03
-3 -4 -7 38.59 3.01
-7 -4 3 39.63 3.03
3 -4 7 39.46 3.03
-7 -3 -4 38.49 3
-3 -7 4 38.55 3.04
-4 -7 -3 40.99 3.02
4 -7 3 39.32 3.03
4 7 -3 38.92 3.04
-3 7 -4 38.34 3.03
3 -7 -4 39.16 3.02
7 4 3 38.88 3.01
-4 3 -7 39.47 3.02
4 -3 -7 41.05 3.02
3 7 4 39.65 3.03
-4 -3 7 38.99 3.04
7 -4 -3 39.86 3.01
-7 3 4 40.88 3.01
3 -4 -7 40.25 3.02
7 4 -3 40.26 3.03
-7 -4 -3 40.88 3.01
7 -3 -4 40.17 3.01
4 -7 -3 40.03 3.02
-7 -3 4 39.57 3.03
-4 3 7 38.34 3.02
-4 7 -3 39.82 3.03
3 4 7 39.01 3.01
7 -4 3 39.62 3.01
-3 -4 7 39.04 3.04
-3 4 -7 39.05 3.03
-4 -3 -7 40.04 3.01
-3 -7 -4 38.77 3.02
4 7 3 40.25 3.03
-3 7 4 40.35 3.03
4 3 -7 39.21 3.03
7 3 4 40.85 3
-7 3 -4 39.71 3.01
-7 4 3 39.87 3.02
3 7 -4 39.75 3.04
3 -7 4 39.25 3.03
-4 -7 3 40.58 3.03
4 -3 7 40.15 3.02
7 4 4 -0.15 0.12
4 -4 7 -0.15 0.16
-4 7 4 -0.13 0.17
7 -4 4 -0.16 0.12
-7 -4 -4 -0.21 0.1
-7 -4 4 0 0.18
7 4 -4 -0.08 0.17
-4 -7 4 -0.04 0.18
-4 -4 -7 0.01 0.11
-4 -4 7 -0.49 0.18
-4 4 -7 -0.28 0.15
-4 4 7 -0.32 0.15
-7 4 4 -0.06 0.13
4 -7 4 -0.23 0.18
4 -4 -7 -0.14 0.13
4 4 -7 -0.05 0.2
-4 7 -4 -0.3 0.18
4 4 7 -0.14 0.12
4 7 -4 -0.07 0.2
4 7 4 -0.39 0.16
7 -4 -4 -0.22 0.12
4 -7 -4 -0.33 0.14
-7 4 -4 -0.26 0.13
-4 -7 -4 -0.25 0.14
7 5 0 48.95 3.76
7 -5 0 47.78 3.75
-7 0 5 49.43 3.77
5 -7 0 49.74 3.76
0 -5 -7 47.17 3.75
0 -5 7 50.42 3.78
0 5 -7 48.92 3.77
-7 -5 0 49.89 3.76
-7 5 0 50.69 3.75
-5 0 7 50.72 3.77
5 0 7 48.96 3.75
0 -7 -5 48.99 3.76
0 -7 5 49.9 3.77
0 7 -5 48.03 3.77
0 5 7 49.73 3.76
5 7 0 49.79 3.77
5 0 7 49.61 3.74
0 7 5 48.7 3.76
-5 -7 0 51.72 3.77
-5 7 0 50.64 3.77
-1 7 -5 1.14 0.23
-1 -7 5 1.23 0.24
5 1 7 1.66 0.22
1 -5 7 1.17 0.22
1 5 -7 1.29 0.22
-7 5 -1 1.51 0.18
5 -7 1 1.49 0.2
5 7 -1 1.37 0.22
7 -1 5 1.16 0.15
-1 -5 -7 1.33 0.17
1 -7 -5 1.55 0.2
7 5 1 1.57 0.19
-7 1 5 1.26 0.17
-5 -7 -1 1.79 0.21
-7 -5 1 1.66 0.2
1 7 5 1.22 0.19
7 1 -5 1.31 0.19
-1 5 7 1.27 0.19
7 -5 -1 2.04 0.29
-7 1 5 1.45 0.2
-5 7 1 1.4 0.21
5 1 7 1.49 0.16
-5 -1 7 1.27 0.23
-5 1 -7 1.61 0.16
-5 -7 1 1.39 0.22
1 -7 5 1.52 0.23
-5 1 7 1.02 0.21
5 -7 -1 1 0.19
-1 -7 -5 1.25 0.18
7 -5 1 1.34 0.17
-7 -1 5 1.77 0.21
-1 -5 7 1.33 0.23
1 7 -5 1.39 0.25
5 1 -7 1.01 0.21
5 7 1 1.67 0.21
7 5 -1 1.4 0.2
-7 5 1 1.37 0.18
-5 7 -1 1.36 0.21
5 -1 7 1.49 0.17
-1 7 5 1.49 0.22
-5 1 7 1.7 0.18
-1 5 -7 1.29 0.22
1 5 7 1.31 0.18
-7 1 -5 1.74 0.18
1 -5 -7 1.59 0.18
-7 -5 -1 1.81 0.19
-2 -7 5 3.68 0.49
5 2 7 3.57 0.33
2 -7 -5 3.17 0.41
2 5 -7 2.73 0.32
-2 5 7 3.29 0.42
-7 -5 2 3.32 0.44
-7 2 5 3.44 0.39
-5 -2 7 2.74 0.32
7 2 -5 3.71 0.46
5 7 -2 3.57 0.5
-7 -2 -5 3.3 0.27
-5 -7 -2 2.92 0.42
-2 7 -5 2.5 0.32
7 5 2 2.96 0.4
-5 2 -7 3.36 0.37
7 -2 5 3.61 0.32
2 7 5 3.73 0.43
2 -5 7 3.44 0.49
-7 5 -2 3.64 0.4
7 -5 -2 3.19 0.37
-5 7 2 3.35 0.43
-2 -5 -7 3.19 0.38
5 -7 2 3.32 0.43
-7 -5 -2 3.02 0.38
-7 5 2 3.24 0.37
2 -7 5 3.52 0.46
2 -5 -7 3.45 0.39
-7 -2 5 4.09 0.47
7 5 -2 3.34 0.45
-2 -5 7 2.38 0.32
-5 -7 2 3.1 0.47
-5 7 -2 3.64 0.45
7 -5 2 3.35 0.37
-2 5 -7 2.96 0.46
-5 2 7 3.14 0.41
2 5 7 3.17 0.39
-2 7 5 3.14 0.44
-2 -7 -5 3.2 0.39
7 2 5 2.97 0.3
5 2 -7 3.52 0.47
5 -7 -2 3.26 0.4
2 7 -5 3.76 0.5
-7 2 -5 3.3 0.33
5 -2 7 3.15 0.39
5 7 2 2.89 0.45
7 5 3 11.22 0.93
7 -3 5 11.91 0.91
-7 -3 -5 11.62 0.88
-5 3 -7 11.5 0.93
-3 7 -5 11.08 0.96
3 -5 7 10.9 0.96
7 3 -5 11.47 0.96
-7 -5 3 11.27 0.96
5 -7 3 11.12 0.94
-5 -3 7 10.92 0.98
5 7 -3 12.01 0.98
5 -3 -7 12.14 0.93
-5 -7 -3 11.03 0.94
3 5 -7 10.68 0.98
-7 5 -3 10.88 0.93
3 7 5 11.59 0.95
-5 7 3 11.68 0.95
5 3 7 11.57 0.9
7 -5 -3 11.4 0.92
3 -7 -5 11.28 0.94
-3 -7 5 11.26 0.98
-7 3 5 12.07 0.93
-3 5 7 12.07 0.94
-3 -5 -7 11.08 0.91
5 7 3 11.88 0.95
3 -5 -7 11.03 0.92
-3 5 -7 11.8 0.97
-5 -3 -7 11.11 0.89
5 -7 -3 11.34 0.93
-3 7 5 11.49 0.96
-7 -5 -3 11.75 0.92
-7 -3 5 11.12 0.97
3 5 7 11.59 0.92
-5 -7 3 10.22 0.98
-7 5 3 11.74 0.92
7 -5 3 11.09 0.92
7 3 5 11.37 0.89
7 5 -3 11.76 0.97
3 -7 5 10.78 0.95
-5 3 7 11.5 0.93
5 3 -7 11.09 0.97
-7 3 -5 11.87 0.91
-5 7 -3 12.52 0.96
-3 -5 7 11.45 0.98
-3 -7 -5 10.87 0.93
3 7 -5 11.1 0.99
5 -3 7 11.78 0.94
7 -3 -5 11.87 0.92
4 5 -7 0.18 0.21
7 -5 -4 0.22 0.14
7 4 -5 0.05 0.19
-4 5 7 0.16 0.15
5 4 7 0.16 0.12
-5 -7 -4 0.13 0.15
-5 4 -7 0.14 0.15
5 -4 -7 0.02 0.15
4 7 5 0.05 0.17
-4 7 -5 0.08 0.19
-7 5 -4 -0.05 0.15
4 -7 -5 0.16 0.15
5 7 -4 0.05 0.21
-5 -4 7 0.02 0.2
-7 -4 -5 0.08 0.1
-4 -7 5 0.12 0.2
7 -4 5 0.2 0.13
7 5 4 0.15 0.14
5 -7 4 0.2 0.17
4 -5 7 0.02 0.17
-7 -5 4 0.03 0.19
-7 4 5 0.1 0.15
-5 7 4 0.09 0.17
-4 -5 -7 -0.05 0.12
7 4 5 0.05 0.12
-5 7 -4 0.01 0.17
-5 -7 4 0.19 0.19
-7 -4 5 0.15 0.2
-4 -7 -5 0.31 0.15
-7 5 4 0.33 0.16
7 -5 4 -0.12 0.14
7 5 -4 -0.01 0.18
-7 -5 -4 0.05 0.12
-5 -4 -7 0.04 0.1
5 4 -7 -0.03 0.2
-4 -5 7 0.17 0.2
-4 7 5 -0.06 0.18
-4 5 -7 0.17 0.17
7 -4 -5 0 0.13
4 -5 -7 0.05 0.13
4 7 -5 0.37 0.21
5 7 4 -0.1 0.17
4 5 7 0.16 0.14
5 -7 -4 0.22 0.17
-5 4 7 -0.04 0.16
5 -4 7 0.16 0.16
4 -7 5 0.18 0.18
-7 4 -5 0.09 0.14
7 5 5 -0.05 0.13
5 -5 -7 -0.08 0.14
5 -7 -5 0.19 0.14
7 5 -5 0.04 0.18
-5 7 5 -0.24 0.17
-7 5 -5 0.2 0.16
-7 -5 -5 0.02 0.12
-7 -5 5 -0.11 0.2
5 -7 5 -0.04 0.17
-5 5 -7 -0.08 0.17
7 -5 -5 0.07 0.13
7 -5 5 0.07 0.14
-5 7 -5 0.06 0.19
-5 -5 -7 0.07 0.11
-5 -5 7 -0.03 0.21
-5 -7 -5 -0.12 0.14
-5 5 7 0.02 0.16
5 -5 7 0.2 0.17
5 5 -7 0.27 0.21
5 5 7 0.02 0.14
5 7 -5 0.13 0.21
5 7 5 -0.08 0.17
-7 5 5 0.01 0.16
-5 -7 5 -0.09 0.23
7 0 6 63.8 4.82
7 -6 0 64.34 4.83
-6 7 0 63.05 4.84
0 -7 6 66.39 4.86
0 7 -6 63.95 4.85
0 7 6 63.77 4.84
6 0 7 64.2 4.83
6 0 7 61.15 4.82
-7 -6 0 64.9 4.84
7 6 0 64.52 4.84
6 -7 0 63.42 4.84
-6 0 7 63.09 4.85
0 -7 -6 58.49 4.84
-7 0 6 62.82 4.85
-6 -7 0 64.76 4.84
-7 6 0 66.07 4.84
0 6 -7 64.03 4.85
7 0 6 61.35 4.82
6 7 0 65.31 4.84
0 6 7 67.51 4.84
0 -6 7 65.82 4.85
0 -6 -7 61 4.84
-1 6 7 1.18 0.2
-6 7 1 1.72 0.22
7 -6 -1 1.25 0.18
-1 -6 -7 1.45 0.19
1 6 -7 1.06 0.23
-7 6 -1 1.41 0.2
-7 1 6 1.41 0.18
7 6 1 1.5 0.21
-7 1 6 1.71 0.22
-7 -6 1 1.16 0.22
-1 -7 6 1.41 0.25
-6 -1 7 1.61 0.23
-6 1 -7 2.06 0.27
7 -1 6 1.69 0.24
6 1 7 1.49 0.16
7 1 -6 1.15 0.21
6 1 7 1.7 0.22
1 -6 7 1.5 0.24
-1 7 -6 1.21 0.25
-6 -7 -1 1.69 0.22
6 7 -1 1.2 0.23
1 7 6 1.64 0.22
1 -7 -6 1.33 0.2
6 -7 1 1.34 0.19
-6 -7 1 1.63 0.22
-1 7 6 1.4 0.22
1 6 7 1.47 0.2
7 -6 1 1.58 0.19
-7 6 1 1.72 0.19
-1 6 -7 1.25 0.23
-7 -6 -1 1.57 0.21
7 6 -1 1.46 0.21
-7 -1 6 1.61 0.22
7 1 6 2.09 0.21
6 7 1 1.4 0.22
-1 -7 -6 1.44 0.19
-6 1 7 1.01 0.21
7 1 6 2.17 0.19
-1 -6 7 1.58 0.24
6 -7 -1 1.55 0.19
-6 1 7 1.44 0.18
1 -7 6 1.29 0.24
1 7 -6 1.41 0.26
6 -1 7 1.28 0.17
6 1 -7 1.49 0.22
-7 1 -6 1.32 0.14
1 -6 -7 1.39 0.2
-6 7 -1 1.72 0.21
2 -7 -6 25.35 2.01
-6 7 2 25.87 2.01
2 7 6 25.66 2.01
-2 -7 6 25.92 2.04
-6 -2 7 27.27 2.03
-2 -6 -7 26.02 2
-7 2 6 25.51 2
-6 -7 -2 26.21 2.01
-6 2 -7 26.35 1.99
-2 7 -6 25.82 2.03
-2 6 7 25.82 2.01
2 -6 7 25.3 2.02
2 6 -7 26.34 2.04
6 -7 2 26.03 2.01
7 -2 6 27.1 1.99
7 6 2 27.02 2.01
-7 -6 2 25.51 2.02
7 -6 -2 25.71 2
-7 6 -2 24.71 2.01
7 2 -6 26.4 2.02
6 7 -2 28.21 2.04
6 2 7 25.27 1.98
6 -2 7 26.69 2
-2 6 -7 27.25 2.03
2 -7 6 26.9 2.03
2 -6 -7 25.39 2
-2 7 6 25.17 2.01
2 6 7 25.29 2
6 -7 -2 25.66 2.01
-6 -7 2 26.45 2.02
-7 -6 -2 26.42 2.01
6 7 2 27.4 2.02
-7 6 2 26.35 2.01
-7 2 -6 26.02 1.99
2 7 -6 26.5 2.04
-2 -6 7 26.93 2.04
-2 -7 -6 24.64 2.01
7 -6 2 24.62 2
7 6 -2 26.16 2.02
-7 -2 6 25.47 2.02
6 2 -7 25.96 2.03
7 2 6 25.1 1.98
-6 7 -2 27.1 2.02
-6 2 7 26.54 2.01
-6 -7 -3 11.61 0.88
-3 -6 -7 10.6 0.86
7 -6 -3 11.03 0.87
6 -7 3 9.92 0.89
-6 3 -7 10.53 0.87
-3 7 -6 10.06 0.92
7 6 3 11.24 0.89
-6 7 3 11.52 0.9
-7 -3 -6 10.45 0.83
3 -7 -6 10.42 0.88
3 6 -7 10.03 0.94
6 7 -3 9.62 0.92
7 3 -6 10.74 0.91
-3 6 7 10.39 0.89
3 -6 7 10.83 0.93
-7 3 6 11.16 0.89
6 3 7 10.81 0.85
-6 -3 7 10.57 0.94
-7 -6 3 8.84 0.92
-3 -7 6 10.87 0.95
-7 6 -3 11.21 0.88
3 7 6 10.59 0.9
7 -3 6 10.44 0.86
6 -3 -7 11.22 0.87
-3 6 -7 10.73 0.93
-6 7 -3 10.26 0.91
-7 -6 -3 11.25 0.88
7 6 -3 10.23 0.93
-6 3 7 10.93 0.88
-7 6 3 10.62 0.89
-6 -7 3 10.51 0.93
6 3 -7 10.52 0.92
-3 -7 -6 10.12 0.88
7 -6 3 11.31 0.87
3 7 -6 10.72 0.95
3 6 7 10.97 0.88
-7 -3 6 9.78 0.92
6 -3 7 11.09 0.87
-3 -6 7 11.26 0.95
6 -7 -3 9.59 0.88
7 3 6 10.64 0.84
-6 -3 -7 11.06 0.84
-7 3 -6 10.45 0.86
7 -3 -6 10.86 0.87
3 -6 -7 10.61 0.87
6 7 3 10.66 0.91
3 -7 6 10.79 0.91
-3 7 6 10.43 0.9
4 6 -7 29.14 2.37
-7 4 6 31.61 2.35
-7 6 -4 30.67 2.36
-4 -6 -7 29.16 2.34
-4 6 7 32.03 2.36
6 7 -4 29.54 2.37
4 7 6 30.94 2.36
6 -4 -7 30.73 2.35
6 4 7 30.82 2.34
7 -6 -4 30.32 2.35
-4 7 -6 30.82 2.37
4 -7 -6 29.17 2.35
-6 -7 -4 30.78 2.35
-6 4 -7 31.64 2.35
7 -4 6 30.3 2.34
7 6 4 31.08 2.35
-4 -7 6 30.69 2.38
-6 7 4 31.32 2.36
-6 -4 7 31.31 2.38
-7 -6 4 30.72 2.37
-7 -4 -6 29.4 2.33
4 -6 7 30.79 2.36
6 -7 4 30.09 2.36
7 4 -6 30.86 2.37
4 6 7 30.48 2.35
6 7 4 30.92 2.36
-4 6 -7 30.47 2.37
6 -7 -4 30.43 2.35
4 -6 -7 30.87 2.35
7 -6 4 30.51 2.35
-4 7 6 31.39 2.36
-7 6 4 31.27 2.35
-6 -7 4 31.52 2.37
-4 -6 7 29.47 2.38
-4 -7 -6 29.18 2.35
4 -7 6 30.19 2.37
7 6 -4 30.59 2.38
7 4 6 30.55 2.34
4 7 -6 30.92 2.38
6 -4 7 31.7 2.35
6 4 -7 31.05 2.37
-7 -4 6 31.25 2.38
-7 4 -6 31.73 2.35
-6 4 7 31.92 2.35
-6 7 -4 31.36 2.36
-6 -4 -7 29.9 2.33
7 -4 -6 30.87 2.35
-7 -6 -4 30.42 2.35
-5 -6 -7 8.44 0.72
-6 7 5 8.94 0.77
-7 5 6 9.1 0.74
6 5 7 8.06 0.72
7 6 5 8.92 0.74
7 5 -6 10.09 0.81
-6 -7 -5 8.67 0.74
-7 -5 -6 8.29 0.7
-7 6 -5 9.62 0.76
-6 5 -7 8.89 0.76
-5 7 -6 7.76 0.78
5 -7 -6 8.64 0.75
-5 6 7 7.97 0.76
5 7 6 8.88 0.75
6 -5 -7 8.22 0.74
-7 -6 5 8.43 0.83
7 -6 -5 7.94 0.73
6 7 -5 8.01 0.8
7 -5 6 8.48 0.73
-5 -7 6 8 0.81
-6 -5 7 8.31 0.82
5 -6 7 8.98 0.76
5 6 -7 9.98 0.81
6 -7 5 8.96 0.76
6 5 -7 9.66 0.8
-5 -7 -6 8.32 0.73
-5 7 6 8.16 0.76
-6 7 -5 8.92 0.77
-5 -6 7 8.15 0.82
-5 6 -7 8.77 0.79
-7 5 -6 8.09 0.75
-7 -6 -5 8.67 0.72
-6 -7 5 8.41 0.83
-7 -5 6 9.67 0.82
7 6 -5 8.18 0.79
5 7 -6 8.62 0.81
5 -6 -7 8.02 0.74
-7 6 5 8.67 0.75
-6 -5 -7 8.45 0.7
5 6 7 8.53 0.74
6 -7 -5 8.08 0.74
-6 5 7 9.31 0.75
7 -6 5 9.34 0.75
6 7 5 8.93 0.75
7 -5 -6 8.68 0.73
7 5 6 7.75 0.72
5 -7 6 8.28 0.77
6 -5 7 8.39 0.75
-6 -7 6 0.04 0.2
-6 -6 7 0 0.21
-6 6 -7 0.24 0.19
-6 6 7 -0.01 0.18
-6 -6 -7 -0.03 0.12
-7 6 -6 0.08 0.16
-7 6 6 0.56 0.17
-6 -7 -6 -0.05 0.14
6 7 -6 0.08 0.21
6 7 6 0 0.16
7 -6 -6 0.13 0.13
7 -6 6 0.04 0.16
7 6 -6 0.15 0.22
7 6 6 -0.07 0.15
6 -7 -6 0.02 0.14
6 -7 6 0.5 0.17
6 -6 -7 -0.05 0.14
6 -6 7 0.06 0.17
6 6 -7 -0.15 0.21
6 6 7 0 0.14
-7 -6 -6 -0.1 0.12
-7 -6 6 0.15 0.21
-6 7 6 0.21 0.17
-6 7 -6 -0.14 0.17
-7 0 7 72.57 5.7
0 -7 -7 71.73 5.69
0 -7 7 73.39 5.7
0 7 -7 75.56 5.71
0 7 7 75.81 5.7
7 -7 0 75.77 5.69
7 0 7 76.44 5.68
7 0 7 74.1 5.67
-7 7 0 76.7 5.7
-7 -7 0 76.53 5.7
7 7 0 77.54 5.7
-7 -7 -1 -0.47 0.17
-7 -7 1 0.2 0.19
-7 -1 7 -0.07 0.19
-7 1 -7 0.11 0.1
-7 1 7 0.06 0.17
-7 1 7 -0.03 0.15
-7 7 -1 -0.08 0.18
-7 7 1 0.24 0.18
-1 -7 -7 -0.07 0.15
-1 -7 7 -0.09 0.22
-1 7 -7 -0.21 0.21
-1 7 7 -0.28 0.17
1 -7 -7 -0.23 0.16
1 -7 7 -0.4 0.2
1 7 -7 -0.34 0.21
1 7 7 -0.29 0.18
7 -7 -1 -0.31 0.16
7 -7 1 -0.13 0.16
7 -1 7 -0.18 0.12
7 1 -7 0.26 0.19
7 1 7 0.02 0.09
7 1 7 -0.01 0.08
7 7 -1 -0.12 0.2
7 7 1 -0.11 0.18
-2 7 -7 0.11 0.21
-2 -7 7 0.04 0.21
-7 7 2 0.36 0.17
-2 -7 -7 0.19 0.2
2 7 7 0.21 0.18
7 -7 -2 0.36 0.15
7 -7 2 0.04 0.15
7 -2 7 0.35 0.13
7 2 -7 0.43 0.19
7 2 7 0.3 0.1
7 7 -2 0.26 0.2
7 7 2 0.58 0.18
-7 -2 7 0.8 0.19
-7 2 -7 0.37 0.11
-2 7 7 0.14 0.17
2 -7 -7 0.31 0.16
2 -7 7 0.13 0.21
2 7 -7 0.17 0.21
-7 2 7 0.24 0.18
-7 7 -2 0.07 0.18
-7 -7 -2 0.16 0.17
-7 -7 2 0.1 0.2
7 3 7 -0.1 0.11
7 7 -3 -0.03 0.2
7 -3 7 0.01 0.13
7 3 -7 -0.36 0.2
7 -7 -3 0.06 0.15
7 -7 3 -0.12 0.16
7 -3 -7 -0.27 0.14
3 -7 7 0.07 0.2
3 7 -7 0.14 0.21
3 7 7 0.06 0.16
-7 7 3 0.02 0.17
-3 -7 -7 0.04 0.15
-3 -7 7 0.29 0.23
-3 7 -7 0.1 0.2
-3 7 7 -0.04 0.19
3 -7 -7 0.01 0.15
-7 -3 -7 -0.08 0.09
-7 -3 7 -0.26 0.19
-7 3 -7 -0.03 0.12
-7 3 7 -0.13 0.16
-7 7 -3 -0.13 0.17
-7 -7 -3 -0.28 0.16
-7 -7 3 -0.12 0.2
7 7 3 -0.03 0.18
-7 4 -7 3.87 0.48
-7 4 7 4.49 0.51
-7 7 -4 5.03 0.52
-7 7 4 3.96 0.51
-4 -7 -7 3.98 0.47
-4 7 -7 3.78 0.55
-4 7 7 5.34 0.52
4 -7 -7 4.09 0.49
4 -7 7 3.77 0.55
4 7 7 4.56 0.51
7 -7 -4 5.45 0.49
7 -7 4 4.48 0.49
7 -4 -7 4.68 0.47
7 -4 7 4.92 0.47
7 4 7 4.29 0.44
7 7 -4 4.23 0.57
7 7 4 3.79 0.52
-7 -7 -4 5.48 0.48
-7 -7 4 4.37 0.57
-7 -4 -7 5.05 0.41
-7 -4 7 5.63 0.59
-7 5 7 -0.06 0.16
-7 5 -7 -0.19 0.16
-7 7 5 -0.12 0.17
-5 -7 -7 -0.11 0.13
-5 -7 7 -0.24 0.23
-5 7 -7 0.08 0.19
-5 7 7 -0.05 0.17
5 -7 -7 -0.19 0.15
5 -7 7 -0.19 0.19
5 7 -7 0.08 0.21
5 7 7 -0.11 0.16
7 -7 -5 0 0.15
-7 7 -5 -0.17 0.18
7 -5 -7 0.11 0.14
7 -5 7 -0.08 0.15
7 5 -7 -0.34 0.22
7 5 7 -0.2 0.13
7 7 -5 0 0.22
7 7 5 -0.16 0.16
-7 -7 -5 -0.26 0.13
-7 -7 5 -0.15 0.2
-7 -5 -7 -0.16 0.1
-7 -5 7 -0.12 0.2
7 -7 5 -0.32 0.16
7 -7 6 1.55 0.22
7 -6 -7 2.79 0.33
7 -6 7 1.75 0.22
7 6 -7 1.42 0.25
7 6 7 1.66 0.2
7 7 -6 1.42 0.25
7 7 6 1.56 0.21
-7 -7 -6 1.57 0.19
-7 -7 6 1.54 0.26
-7 -6 -7 2.15 0.3
-7 -6 7 1.33 0.25
-7 6 -7 1.71 0.22
-7 6 7 1.54 0.22
-7 7 -6 1.9 0.23
-7 7 6 1.6 0.21
-6 -7 -7 2.27 0.32
-6 -7 7 1.58 0.27
-6 7 -7 1.36 0.23
-6 7 7 1.69 0.22
6 -7 -7 1.77 0.21
6 -7 7 1.37 0.22
6 7 -7 1.77 0.27
6 7 7 1.68 0.21
7 -7 -6 1.51 0.19
-7 -7 -7 -0.17 0.13
-7 -7 7 -0.04 0.22
-7 7 -7 0.06 0.19
-7 7 7 -0.03 0.18
7 -7 -7 -0.17 0.14
7 -7 7 -0.18 0.16
7 7 -7 -0.15 0.21
7 7 7 -0.08 0.16
-8 0 0 220.27 16.56
-8 0 0 214.93 16.56
0 -8 0 225.35 16.57
0 8 0 222.84 16.58
0 0 8 213.97 16.57
-8 1 0 24.43 1.85
0 -8 1 25.12 1.88
0 8 -1 25.23 1.89
0 8 1 25.49 1.89
1 0 8 24.33 1.88
8 1 0 22.26 1.85
-1 0 8 24.56 1.88
0 -8 -1 23.94 1.88
-8 0 -1 23.3 1.85
-8 0 -1 24.69 1.84
-8 0 1 24.06 1.86
-8 -1 0 23.29 1.85
0 1 -8 22.83 1.87
0 1 8 22.82 1.87
-1 8 0 25.55 1.88
0 1 8 23.74 1.86
1 -8 0 25.55 1.88
-8 0 1 25.15 1.85
-1 -8 0 25.07 1.88
1 8 0 26.45 1.89
0 -1 8 22.69 1.88
-1 1 8 25.83 1.95
-1 8 -1 24.97 1.98
1 -8 1 24.72 1.97
1 -1 8 26.13 1.97
1 1 8 25 1.96
1 8 1 25.49 1.97
8 1 -1 24.75 1.95
-1 8 1 25.71 1.98
-8 1 -1 25.23 1.93
1 -8 -1 26.43 1.97
-1 -8 -1 25.07 1.97
-1 -8 1 24.98 1.97
-1 -1 8 25.47 1.97
-1 1 -8 26.33 1.96
-1 1 8 26.22 1.97
-8 -1 -1 25.19 1.94
-8 -1 1 25.99 1.95
-8 1 1 24.36 1.94
1 1 8 25.67 1.95
1 8 -1 26.58 1.98
0 2 -8 0.12 0.15
0 2 8 0.04 0.12
-8 -2 0 -0.04 0.11
-8 2 0 0.04 0.1
-2 0 8 0.07 0.17
0 -8 -2 0.26 0.17
2 0 8 0.1 0.14
-8 0 -2 -0.01 0.07
-8 0 -2 0.12 0.06
-8 0 2 -0.03 0.12
-8 0 2 -0.05 0.09
-2 -8 0 0.02 0.17
-2 8 0 -0.16 0.17
0 -2 8 -0.03 0.16
2 -8 0 -0.1 0.17
2 8 0 -0.01 0.17
0 8 2 0.22 0.17
8 -2 0 0.05 0.08
8 2 0 0.03 0.1
0 -8 2 0.05 0.19
0 8 -2 0.06 0.18
2 1 8 0.23 0.1
8 1 -2 0.16 0.12
-1 2 8 0.29 0.13
1 -2 8 0.04 0.16
1 2 -8 0.02 0.16
-1 -8 2 -0.18 0.19
8 2 1 0.11 0.1
1 -8 -2 0.11 0.16
2 -8 1 0.29 0.17
2 8 -1 0.24 0.18
-8 1 2 0.31 0.1
-2 -8 -1 0.19 0.16
-8 -1 -2 0.26 0.08
-8 1 2 0.22 0.12
-8 -2 1 0.41 0.13
-8 2 -1 0.28 0.09
2 1 8 0.16 0.13
-2 -1 8 0.13 0.16
-2 1 -8 0.2 0.13
-2 8 1 0.08 0.18
-1 8 -2 0.05 0.18
1 8 2 0.03 0.18
8 -2 -1 0.15 0.09
-8 2 1 0.17 0.1
-2 1 8 0.26 0.17
-1 8 2 0.01 0.18
1 -8 2 0.04 0.17
1 8 -2 -0.09 0.19
-1 -8 -2 0.18 0.16
2 1 -8 0.05 0.16
8 -2 1 0.07 0.07
8 2 -1 0.07 0.12
1 2 8 0.13 0.11
2 -8 -1 0.26 0.16
-8 -1 2 0.29 0.13
-8 1 -2 0.19 0.07
-2 1 8 0.21 0.12
2 -1 8 0.17 0.14
-8 -2 -1 0.13 0.11
-1 -2 8 -0.06 0.16
-1 2 -8 0.1 0.15
-2 -8 1 0.11 0.18
2 8 1 0.3 0.18
-2 8 -1 0.2 0.18
2 8 -2 76.3 5.62
2 8 2 75.88 5.62
8 -2 2 71.73 5.6
8 2 -2 72.61 5.61
8 2 2 73.39 5.6
-8 -2 -2 75.24 5.6
-8 -2 2 74.46 5.61
-8 2 -2 75.11 5.6
-8 2 2 74.97 5.6
-2 -8 -2 76.17 5.62
8 -2 -2 73.88 5.6
-2 8 2 74.13 5.62
2 -8 -2 75.14 5.61
2 -8 2 73.36 5.62
2 -2 8 74.48 5.62
2 2 -8 72.07 5.62
2 2 8 73.03 5.61
-2 -8 2 74.35 5.62
-2 -2 8 73.74 5.62
-2 2 -8 72 5.61
-2 2 8 73.73 5.61
-2 8 -2 74.79 5.62
3 0 8 3.63 0.44
8 -3 0 4.52 0.38
-8 0 3 3.58 0.44
-8 0 3 4.23 0.39
-3 -8 0 3.49 0.49
-3 8 0 3.5 0.5
0 -3 -8 4.59 0.42
0 -3 8 3.43 0.5
-8 -3 0 4.23 0.42
-8 3 0 5.27 0.4
-3 0 8 3.69 0.51
0 -8 -3 4.5 0.47
0 -8 3 4.03 0.51
0 8 -3 4.42 0.52
0 8 3 3.84 0.52
0 3 8 4.28 0.42
3 -8 0 3.78 0.5
0 3 -8 3.75 0.48
3 8 0 3.55 0.51
8 3 0 3.83 0.42
3 1 8 0.76 0.12
8 3 1 0.66 0.12
-1 -8 3 0.53 0.19
-1 -3 -8 0.7 0.13
-3 8 1 0.55 0.18
1 8 3 0.49 0.19
-8 1 3 0.55 0.14
8 1 -3 0.64 0.15
-8 3 -1 0.72 0.12
3 8 -1 0.63 0.21
-8 1 3 0.66 0.13
-3 -8 -1 0.92 0.19
-3 1 -8 0.58 0.14
-8 -3 1 0.53 0.15
-1 3 8 0.5 0.14
3 -8 1 0.69 0.18
1 -8 -3 0.75 0.18
-3 -1 8 0.99 0.19
1 -3 8 0.66 0.18
3 1 8 0.65 0.14
8 -3 -1 0.56 0.12
-1 8 -3 0.39 0.2
1 3 -8 0.42 0.19
-3 1 8 0.61 0.18
-3 8 -1 0.39 0.2
-1 3 -8 0.54 0.17
3 1 -8 0.69 0.2
-3 -8 1 0.77 0.2
1 -8 3 0.4 0.18
-1 -3 8 0.47 0.17
-1 -8 -3 0.58 0.16
-3 1 8 0.84 0.13
1 8 -3 0.68 0.21
8 3 -1 0.77 0.14
-8 3 1 0.69 0.13
3 -8 -1 0.54 0.16
-8 1 -3 0.73 0.08
-8 -1 3 0.55 0.14
8 -3 1 0.63 0.11
1 -3 -8 0.66 0.14
3 -1 8 0.6 0.15
-1 8 3 0.51 0.18
-8 -3 -1 0.84 0.13
3 8 1 0.62 0.2
1 3 8 0.7 0.13
2 -8 -3 3.19 0.41
-2 3 8 2.82 0.36
8 3 2 3.5 0.3
3 -8 2 2.03 0.26
3 2 8 2.35 0.31
8 -3 -2 2.72 0.32
8 2 -3 2.67 0.38
-2 8 -3 3.22 0.44
2 8 3 3.58 0.42
-3 2 -8 3 0.38
2 -3 8 2.86 0.41
-2 -8 3 3.47 0.47
-8 -2 -3 2.89 0.25
-8 -3 2 3.14 0.39
8 -2 3 2.75 0.24
-3 -2 8 1.87 0.26
-8 3 -2 2.4 0.3
-3 -8 -2 1.84 0.26
3 8 -2 2.23 0.29
-3 8 2 1.97 0.27
-2 -3 -8 2.77 0.32
-8 2 3 2.87 0.33
2 3 -8 3.09 0.45
-3 2 8 1.95 0.24
8 -2 -3 2.6 0.31
-2 3 -8 3.83 0.42
8 2 3 2.48 0.24
3 -8 -2 1.83 0.26
-8 -3 -2 2.63 0.31
-2 8 3 2.14 0.27
2 3 8 3.01 0.34
-8 3 2 3.04 0.32
3 2 -8 1.83 0.26
8 -3 2 2.91 0.28
3 8 2 3.02 0.43
3 -2 8 2 0.25
8 3 -2 3.61 0.38
2 -3 -8 3.11 0.34
-8 2 -3 2.81 0.26
-2 -3 8 2.37 0.28
-3 -8 2 1.63 0.27
-3 8 -2 1.87 0.27
-2 -8 -3 2.17 0.26
2 -8 3 3.33 0.44
2 8 -3 1.98 0.28
-8 -2 3 2.2 0.25
3 -3 8 0.54 0.17
3 3 -8 0.33 0.19
3 3 8 0.52 0.13
3 8 -3 0.4 0.2
3 8 3 0.48 0.2
-3 3 -8 0.51 0.16
-3 3 8 0.32 0.15
8 3 3 0.49 0.11
3 -3 -8 0.35 0.15
3 -8 -3 0.4 0.17
3 -8 3 0.29 0.18
-8 3 3 0.33 0.13
-3 -8 -3 0.12 0.17
-3 -8 3 0.27 0.2
-3 8 -3 0.44 0.2
-3 8 3 0.35 0.19
-3 -3 -8 0.36 0.12
-8 -3 -3 0.55 0.1
-3 -3 8 0.56 0.2
-8 3 -3 0.47 0.11
8 -3 -3 0.48 0.12
8 -3 3 0.39 0.1
-8 -3 3 0.28 0.16
8 3 -3 0.62 0.16
0 4 8 63.65 4.78
0 -8 4 63.97 4.8
-8 0 4 61.1 4.77
-4 -8 0 64.27 4.79
-4 8 0 63.27 4.79
-8 4 0 63.82 4.78
-4 0 8 63.13 4.79
0 -8 -4 61.11 4.78
4 -8 0 63.81 4.79
8 -4 0 62.19 4.77
8 4 0 63.95 4.78
-8 -4 0 66.3 4.78
0 -4 -8 59.21 4.78
0 -4 8 62.28 4.79
0 8 4 62.98 4.79
4 8 0 64.28 4.79
4 0 8 62.77 4.78
0 4 -8 64.12 4.79
-8 0 4 63.21 4.78
0 8 -4 62.08 4.79
-1 -4 -8 -0.06 0.13
-4 8 1 -0.04 0.19
-8 -4 1 -0.16 0.15
8 -4 -1 -0.09 0.11
-1 -8 4 0.11 0.19
-1 8 -4 0.26 0.21
8 4 1 -0.01 0.13
1 -8 -4 0.11 0.17
4 8 -1 -0.01 0.2
1 8 4 -0.11 0.18
-4 -1 8 -0.04 0.18
1 4 -8 -0.01 0.19
4 1 8 0.15 0.11
-8 1 4 0.15 0.15
-8 1 4 0.06 0.12
-4 -8 -1 0 0.18
1 -4 8 -0.01 0.19
-8 4 -1 -0.07 0.12
8 1 -4 0.04 0.15
-1 4 8 0.01 0.16
4 1 8 0.15 0.13
4 -8 1 0.11 0.18
-4 1 -8 0.11 0.13
1 4 8 -0.01 0.14
1 8 -4 -0.15 0.21
-8 -1 4 0.11 0.15
-8 4 1 -0.09 0.13
1 -4 -8 -0.34 0.14
-1 -4 8 -0.19 0.2
4 1 -8 0.02 0.18
-8 -4 -1 0.27 0.14
-4 8 -1 0.16 0.18
-1 -8 -4 -0.23 0.18
8 -4 1 0.15 0.11
8 4 -1 -0.22 0.15
-1 8 4 -0.07 0.18
4 -1 8 0.08 0.14
1 -8 4 -0.11 0.2
-4 1 8 0.14 0.17
-4 -8 1 0.28 0.19
4 8 1 0.19 0.19
-1 4 -8 -0.15 0.18
4 -8 -1 -0.1 0.17
-4 1 8 0.14 0.13
4 2 8 28.56 2.2
8 2 -4 28.59 2.22
-8 2 4 27.89 2.2
-2 -8 4 29.17 2.24
-8 -4 2 28.6 2.22
2 -4 8 28.85 2.23
2 4 -8 28.56 2.24
-2 8 -4 28.4 2.24
4 -8 2 29.93 2.23
-2 4 8 28.18 2.22
2 8 4 29.11 2.23
8 4 2 28.88 2.21
-8 4 -2 28.14 2.2
-4 -8 -2 30.78 2.22
-4 -2 8 29.52 2.24
-4 2 -8 28.85 2.21
-4 8 2 29.77 2.23
-2 -4 -8 28.83 2.21
4 8 -2 28.9 2.24
8 -4 -2 27.96 2.21
8 -2 4 28.82 2.19
2 -8 -4 28.16 2.22
-2 -4 8 28.3 2.24
2 4 8 28.31 2.21
-8 2 -4 28.46 2.19
2 -8 4 29.55 2.24
-4 -8 2 26.69 2.25
2 -4 -8 28.96 2.21
8 -4 2 27.85 2.2
-2 4 -8 28.18 2.23
-4 2 8 28.74 2.24
-4 2 8 29.31 2.22
2 8 -4 30.3 2.25
-8 -4 -2 29.37 2.2
4 2 -8 29.71 2.24
4 -2 8 30.63 2.22
4 -8 -2 28.64 2.22
-8 4 2 28.78 2.21
-2 8 4 30.65 2.23
-4 8 -2 29.43 2.23
-8 -2 4 28.41 2.22
4 8 2 29.41 2.23
-2 -8 -4 28.16 2.23
8 4 -2 29.2 2.22
-3 -4 -8 29.27 2.16
8 3 -4 27.04 2.18
4 8 -3 28.57 2.2
-4 -8 -3 29.57 2.17
8 -3 4 27.71 2.14
-8 -4 3 27.05 2.18
-8 4 -3 28.46 2.16
4 3 8 28.87 2.15
8 -4 -3 28 2.16
-3 4 8 28.31 2.17
3 -4 8 27.79 2.18
-4 3 -8 28.94 2.17
4 -3 -8 30.26 2.16
-8 3 4 28.94 2.16
-3 -8 4 27.41 2.2
-3 8 -4 28.81 2.2
3 -8 -4 27.77 2.17
3 8 4 29.6 2.18
-4 -3 8 28.19 2.2
8 4 3 27.59 2.15
3 4 -8 28.65 2.2
-8 -3 -4 27.91 2.14
-4 8 3 28.32 2.18
4 -8 3 28.22 2.19
-3 8 4 28.56 2.18
3 4 8 27.84 2.16
8 -3 -4 29.04 2.16
4 -8 -3 28.78 2.17
-4 8 -3 29.1 2.19
-3 4 -8 27.98 2.18
-8 -3 4 27.24 2.18
8 3 4 26.49 2.14
-4 -3 -8 28.79 2.15
-3 -8 -4 27.93 2.17
-4 -8 3 26.97 2.19
-8 3 -4 28.03 2.15
8 -4 3 27.49 2.15
-4 3 8 28.71 2.17
-8 4 3 28.06 2.16
3 8 -4 26.76 2.19
-8 -4 -3 28.8 2.15
4 8 3 29.84 2.18
8 4 -3 26.47 2.17
-3 -4 8 27.26 2.2
4 3 -8 27.95 2.19
4 -3 8 28.04 2.17
3 -8 4 28.8 2.18
4 8 4 16.66 1.29
-8 4 4 15.77 1.26
-4 -8 -4 13.98 1.26
-4 -4 -8 15.33 1.24
-4 -4 8 17.06 1.32
8 4 -4 15.94 1.29
8 4 4 15.98 1.24
4 8 -4 16.21 1.32
4 -8 4 15.81 1.28
-4 -8 4 15.76 1.31
8 -4 4 15.78 1.24
-4 8 4 16.19 1.28
-4 4 -8 16.64 1.28
-4 4 8 16.27 1.27
-4 8 -4 15.84 1.29
-8 4 -4 16.6 1.25
4 4 8 15.35 1.25
-8 -4 4 14.73 1.29
4 4 -8 16.47 1.3
4 -8 -4 16.65 1.28
8 -4 -4 16.67 1.25
4 -4 -8 16.56 1.26
4 -4 8 16.16 1.28
-8 -4 -4 15.48 1.23
0 5 8 2.11 0.24
-5 -8 0 1.84 0.25
0 5 -8 1.8 0.26
-8 -5 0 3.13 0.4
-8 0 5 1.62 0.24
0 -5 8 1.85 0.27
-8 0 5 2.52 0.32
-5 0 8 1.99 0.26
0 -8 -5 2.07 0.25
0 -8 5 2.1 0.27
0 8 -5 1.97 0.28
5 0 8 3.15 0.35
5 -8 0 2.83 0.39
5 8 0 1.88 0.27
8 -5 0 2.53 0.33
-5 8 0 2.04 0.26
0 -5 -8 2.97 0.34
5 0 8 2.32 0.27
8 5 0 3.41 0.4
0 8 5 2.05 0.25
-8 5 0 2.39 0.34
1 -8 -5 7.03 0.69
-5 -1 8 8.17 0.74
1 8 5 7.9 0.72
1 -5 8 7.39 0.73
1 5 -8 8.44 0.74
8 5 1 7.54 0.68
-5 1 -8 7.52 0.64
-1 5 8 7.79 0.68
5 1 8 7.64 0.65
-1 -5 -8 7.95 0.66
-8 -5 1 7.35 0.68
5 1 8 7.77 0.62
5 8 -1 7.27 0.74
-5 -8 -1 6.97 0.69
-1 -8 5 7.42 0.75
-1 8 -5 7.04 0.74
8 -5 -1 7.15 0.64
-8 5 -1 7.36 0.65
5 -8 1 6.9 0.69
-8 1 5 7.21 0.7
-5 8 1 7.22 0.71
-8 1 5 7.7 0.64
8 1 -5 8.18 0.7
8 -5 1 7.19 0.64
-8 5 1 7.14 0.66
5 8 1 7.98 0.72
-1 -8 -5 7.49 0.68
1 5 8 7.99 0.66
-8 -1 5 7.2 0.7
-8 -5 -1 7.2 0.67
-5 8 -1 7.1 0.72
-1 8 5 7.12 0.7
-5 1 8 8.48 0.72
1 -8 5 7.95 0.75
5 -8 -1 7.19 0.68
-5 1 8 8.37 0.66
5 -1 8 7.51 0.66
5 1 -8 8.1 0.71
8 5 -1 7.55 0.7
-1 5 -8 7.31 0.71
-1 -5 8 7.48 0.74
1 8 -5 7.71 0.76
1 -5 -8 7.57 0.66
-5 -8 1 7.59 0.74
2 5 -8 0.78 0.21
8 2 -5 0.58 0.18
-5 8 2 0.49 0.2
-2 -5 -8 0.63 0.15
2 -8 -5 0.79 0.17
8 -2 5 0.82 0.1
-8 -5 2 0.93 0.19
-2 -8 5 0.61 0.23
5 8 -2 0.77 0.23
5 2 8 0.66 0.12
-2 5 8 0.59 0.16
2 8 5 0.54 0.19
8 -5 -2 0.57 0.14
-2 8 -5 0.75 0.22
-8 5 -2 0.7 0.15
-5 2 -8 0.67 0.14
-8 2 5 0.6 0.14
2 -5 8 0.91 0.21
8 5 2 0.9 0.16
-5 -8 -2 0.59 0.18
5 -8 2 0.64 0.19
-5 -2 8 0.6 0.2
5 2 -8 0.51 0.22
2 5 8 0.53 0.16
-5 -8 2 0.73 0.22
2 -8 5 0.71 0.21
5 -8 -2 0.78 0.17
-2 5 -8 0.56 0.2
2 -5 -8 0.82 0.16
8 5 -2 0.89 0.18
8 -5 2 0.7 0.14
2 8 -5 0.77 0.23
-8 5 2 0.68 0.16
-5 2 8 0.59 0.18
-2 -5 8 0.88 0.23
-2 -8 -5 0.53 0.18
5 8 2 0.47 0.2
5 -2 8 0.78 0.16
-8 -5 -2 0.9 0.16
-2 8 5 0.6 0.21
-5 2 8 0.93 0.18
-8 -2 5 0.53 0.18
-8 2 -5 0.82 0.11
-5 8 -2 0.63 0.21
-3 -8 5 4.98 0.61
-5 8 3 3.91 0.53
-8 -3 -5 5.07 0.4
-8 3 5 4.01 0.48
8 -3 5 4.43 0.43
3 -5 8 4.73 0.56
-8 5 -3 4.04 0.49
8 3 -5 4.58 0.53
5 -3 -8 4.62 0.49
-3 5 8 5.6 0.5
-3 8 -5 5.56 0.6
-5 -8 -3 4.45 0.53
8 -5 -3 4.51 0.46
-8 -5 3 4.48 0.54
-3 -5 -8 4.84 0.47
5 8 -3 4.29 0.59
-5 -3 8 4.54 0.6
-5 3 -8 4.74 0.5
3 8 5 5.57 0.53
3 5 -8 5.03 0.59
3 -8 -5 4.78 0.51
8 5 3 4.66 0.49
5 3 8 4.72 0.45
5 -8 3 4.61 0.54
3 -8 5 5.69 0.55
5 3 -8 5 0.57
-8 -3 5 4.34 0.59
-8 3 -5 5.18 0.45
5 -8 -3 4.37 0.53
-5 -8 3 4.38 0.58
-3 -8 -5 4.45 0.53
-3 5 -8 5.01 0.56
3 -5 -8 4.65 0.5
-3 8 5 4.35 0.55
3 5 8 4.67 0.49
-5 -3 -8 4.39 0.43
5 8 3 5 0.55
8 -3 -5 4.61 0.48
-5 3 8 4.26 0.5
-8 -5 -3 4.16 0.46
8 3 5 4.75 0.42
-8 5 3 4.81 0.47
8 5 -3 4.61 0.53
-3 -5 8 5.87 0.59
3 8 -5 4.43 0.61
8 -5 3 5.71 0.46
5 -3 8 4.43 0.52
-5 8 -3 4.76 0.57
8 5 4 5.55 0.53
5 4 8 5.44 0.52
8 -5 -4 6.33 0.55
-4 8 -5 6.27 0.65
5 -4 -8 5.9 0.55
4 -5 8 6.39 0.6
4 5 -8 5.37 0.64
-5 -8 -4 5.57 0.55
4 8 5 6.27 0.61
5 -8 4 5.39 0.59
-5 -4 8 6.2 0.66
-8 -4 -5 6.35 0.49
-4 -8 5 5.95 0.65
-8 -5 4 5.13 0.63
-4 -5 -8 5.38 0.52
-5 8 4 5.59 0.6
-4 5 8 5.64 0.56
-8 4 5 6.39 0.56
-8 5 -4 5.85 0.54
-5 4 -8 5.81 0.57
4 -8 -5 5.8 0.57
8 -4 5 5.5 0.51
5 8 -4 5.26 0.63
8 4 -5 5.45 0.62
-5 4 8 5.7 0.55
-4 -5 8 5.64 0.66
-5 -8 4 5.39 0.65
-8 -4 5 5.34 0.63
-8 4 -5 5.93 0.53
-8 -5 -4 5.49 0.52
4 -8 5 5.34 0.62
-4 5 -8 6.52 0.61
4 8 -5 5.11 0.65
-8 5 4 5.87 0.56
5 4 -8 5.83 0.62
8 -5 4 5.68 0.53
-5 8 -4 5.79 0.59
8 5 -4 5.5 0.62
8 4 5 5.48 0.51
4 5 8 5.61 0.54
-4 -8 -5 5.41 0.57
5 -8 -4 5.94 0.56
-5 -4 -8 5.7 0.5
-4 8 5 5.65 0.6
5 8 4 5.8 0.6
8 -4 -5 5.96 0.53
4 -5 -8 6.06 0.56
5 -4 8 5.72 0.57
-5 -8 5 2.08 0.28
-5 -8 -5 1.96 0.24
-8 -5 -5 2.76 0.31
5 -8 5 3.17 0.44
-5 -5 -8 2.19 0.31
-8 5 -5 2.68 0.38
-8 5 5 2.68 0.38
-5 -5 8 1.96 0.28
-5 5 -8 3.01 0.43
-5 5 8 2.77 0.39
5 -5 -8 2.28 0.24
8 -5 5 2.65 0.35
-5 8 -5 1.97 0.27
-5 8 5 2.39 0.27
8 5 -5 1.94 0.27
5 5 -8 2.16 0.28
5 5 8 2.89 0.37
8 5 5 1.99 0.22
5 8 5 2.16 0.26
8 -5 -5 1.96 0.22
-8 -5 5 2.03 0.27
5 8 -5 2.05 0.29
5 -8 -5 2.92 0.39
5 -5 8 2.22 0.25
6 8 0 9.35 0.85
6 0 8 9.5 0.78
8 -6 0 9.64 0.79
8 6 0 9.42 0.83
-8 6 0 9.68 0.82
0 -6 -8 9.54 0.79
0 -8 6 9.25 0.87
-6 0 8 8.24 0.86
6 0 8 9.23 0.75
6 -8 0 10.19 0.83
0 -8 -6 10.26 0.81
-8 0 6 8.95 0.84
-8 0 6 9.46 0.79
-6 -8 0 7.27 0.86
0 6 8 10.28 0.82
0 8 -6 8.99 0.89
0 8 6 9.76 0.85
0 6 -8 10.78 0.87
0 -6 8 10.4 0.88
-8 -6 0 9.89 0.82
-6 8 0 9.71 0.84
8 -1 6 2.61 0.27
1 6 -8 2.01 0.28
-6 1 -8 3.26 0.33
8 -6 -1 3.15 0.38
-1 6 8 3.24 0.44
-8 6 -1 2.97 0.41
-8 -6 1 3.56 0.46
-6 -1 8 1.73 0.28
-1 -6 -8 2.72 0.36
8 6 1 2.22 0.26
1 -6 8 1.91 0.28
-1 -8 6 2.07 0.3
-6 -8 -1 3.28 0.46
-1 8 -6 2.12 0.29
6 1 8 2.58 0.28
6 -8 1 3.96 0.4
-6 8 1 3.44 0.44
-8 1 6 2.55 0.35
6 8 -1 2.17 0.29
-8 1 6 3.45 0.46
6 1 8 3.47 0.33
8 1 -6 2.01 0.27
1 -8 -6 3.15 0.41
1 8 6 2.39 0.27
-1 8 6 2.3 0.28
6 1 -8 2 0.28
-8 -1 6 3.74 0.46
-6 1 8 1.62 0.24
1 6 8 2.11 0.26
-8 -6 -1 3.02 0.43
1 -8 6 2.48 0.3
1 8 -6 2.39 0.31
-6 8 -1 3.74 0.45
-8 6 1 3.65 0.4
-1 6 -8 2.35 0.29
-1 -8 -6 3.29 0.43
6 -1 8 3.13 0.36
-1 -6 8 2.67 0.31
8 -6 1 2.75 0.36
8 6 -1 1.91 0.27
1 -6 -8 2.76 0.38
-6 -8 1 1.91 0.31
-6 1 8 2 0.28
6 -8 -1 3.12 0.41
6 8 1 3.37 0.48
-6 -8 -2 1.43 0.19
6 8 -2 0.69 0.22
-2 6 8 0.77 0.2
-2 -6 -8 0.53 0.16
6 2 8 1.95 0.26
-6 2 -8 1.25 0.15
-8 6 -2 0.87 0.18
-6 8 2 0.75 0.21
-6 -2 8 1.01 0.22
-8 -6 2 0.98 0.2
2 8 6 0.74 0.21
8 6 2 0.56 0.17
-2 8 -6 0.58 0.23
-8 2 6 1.22 0.19
8 -6 -2 0.7 0.16
2 -8 -6 0.78 0.19
-2 -8 6 0.8 0.24
6 -8 2 0.97 0.18
2 -6 8 1.07 0.22
2 6 -8 0.73 0.22
8 2 -6 0.64 0.19
8 -2 6 0.53 0.12
6 2 8 1.04 0.12
6 8 2 1.12 0.21
6 -8 -2 0.69 0.17
-2 6 -8 0.51 0.21
2 8 -6 0.64 0.24
2 -8 6 0.95 0.22
-8 6 2 0.67 0.18
8 6 -2 0.6 0.2
-8 -6 -2 0.89 0.17
-6 8 -2 0.78 0.2
-2 -6 8 0.64 0.23
-2 -8 -6 0.5 0.18
6 -2 8 1.06 0.16
-6 -8 2 0.93 0.22
8 -6 2 0.79 0.16
2 6 8 0.8 0.17
8 2 6 0.76 0.11
-2 8 6 0.83 0.2
2 -6 -8 0.69 0.18
-6 2 8 0.96 0.2
-8 2 -6 1.05 0.12
6 2 -8 0.64 0.21
-8 6 -3 31.9 2.38
3 -6 8 33.1 2.4
8 6 3 31.36 2.38
8 -3 6 30.32 2.36
-3 -6 -8 30.43 2.38
-6 -3 8 30.92 2.42
-6 3 -8 32.37 2.38
-3 6 8 32.3 2.39
3 -8 -6 30.54 2.39
3 6 -8 31.48 2.41
8 3 -6 30.71 2.4
-6 8 3 31.71 2.4
6 8 -3 31.51 2.41
-6 -8 -3 30.51 2.39
3 8 6 30.67 2.39
6 3 8 29.98 2.36
8 -6 -3 29.7 2.38
-8 -6 3 30.31 2.42
-8 3 6 30.88 2.38
-8 -3 -6 28.4 2.35
6 -8 3 30.87 2.39
-3 8 -6 32.1 2.41
-3 -8 6 33.16 2.41
-6 8 -3 30.63 2.4
-8 6 3 32.5 2.39
-6 -3 -8 29.44 2.36
3 8 -6 31.64 2.42
6 -3 8 31.93 2.38
8 -3 -6 30.57 2.37
-6 -8 3 32.83 2.41
8 -6 3 31.98 2.38
-3 8 6 32.3 2.4
-8 -3 6 32.09 2.41
6 8 3 31.69 2.4
3 -6 -8 30 2.38
-3 -6 8 32.34 2.41
6 -8 -3 30.47 2.38
6 3 -8 29.95 2.41
8 3 6 31.32 2.36
3 6 8 29.99 2.38
-6 3 8 29 2.38
-8 -6 -3 30.79 2.38
8 6 -3 31.15 2.4
-8 3 -6 31.36 2.37
3 -8 6 32.15 2.41
-3 -8 -6 28.59 2.38
-3 6 -8 32.04 2.4
6 -4 -8 0.34 0.15
6 4 8 -0.04 0.12
6 -8 4 0.18 0.17
-4 6 8 0.04 0.17
6 8 -4 -0.06 0.22
-8 -6 4 0.14 0.2
-4 8 -6 -0.2 0.2
-6 -4 8 -0.05 0.19
-6 -8 -4 0.09 0.17
4 -6 8 0.02 0.2
-8 4 6 0.23 0.15
8 6 4 -0.01 0.16
4 8 6 -0.34 0.18
-6 4 -8 -0.07 0.14
-4 -8 6 0.1 0.2
-8 -4 -6 0.14 0.09
8 4 -6 -0.05 0.19
8 -6 -4 -0.18 0.14
-6 8 4 -0.17 0.18
-4 -6 -8 -0.24 0.13
4 -8 -6 0.05 0.15
8 -4 6 -0.22 0.13
4 6 -8 -0.31 0.22
-8 6 -4 -0.01 0.16
-6 -8 4 0.06 0.21
-6 8 -4 0.03 0.19
-8 -4 6 0 0.19
-4 -6 8 0.1 0.22
-4 6 -8 0.17 0.19
4 -6 -8 -0.11 0.14
-8 -6 -4 0.03 0.14
6 -4 8 -0.18 0.16
-8 6 4 -0.06 0.16
-6 -4 -8 0 0.1
-6 4 8 -0.09 0.15
-4 -8 -6 -0.04 0.15
6 8 4 -0.07 0.18
-4 8 6 0.17 0.2
8 -4 -6 0.19 0.13
8 -6 4 0.15 0.15
-8 4 -6 0.04 0.14
6 4 -8 0.1 0.21
8 4 6 -0.18 0.12
4 6 8 -0.24 0.15
6 -8 -4 -0.24 0.16
4 -8 6 -0.09 0.2
4 8 -6 -0.09 0.22
8 6 -4 -0.19 0.18
5 6 -8 10.41 0.95
-6 5 -8 10.08 0.91
5 8 6 11.24 0.92
-5 -8 6 10.72 0.96
-5 6 8 11.19 0.91
6 5 8 10.74 0.87
8 -6 -5 10.23 0.88
8 -5 6 10.78 0.88
8 5 -6 10.29 0.94
8 6 5 11.11 0.89
5 -6 8 10.24 0.91
-8 -5 -6 11.01 0.85
6 8 -5 10.09 0.96
-8 5 6 11.42 0.9
-6 -8 -5 10.35 0.89
6 -5 -8 11.51 0.89
-5 8 -6 10.47 0.93
6 -8 5 11.37 0.92
5 -8 -6 10.72 0.89
-8 6 -5 10.76 0.9
-6 -5 8 9.75 0.96
-5 -6 -8 10.54 0.87
-8 -6 5 10.66 0.95
-6 8 5 10.51 0.92
-5 -8 -6 11.75 0.89
5 8 -6 11.16 0.97
6 -8 -5 10.62 0.89
6 8 5 11.44 0.91
8 -5 -6 10.87 0.88
-6 -8 5 10.3 0.94
8 5 6 10.19 0.87
6 5 -8 10.58 0.95
8 6 -5 10.67 0.96
-8 -5 6 10.68 0.95
-6 5 8 10.62 0.9
-5 -6 8 10.36 0.96
-6 8 -5 11.05 0.93
-5 6 -8 10.75 0.92
6 -5 8 10.41 0.9
5 -6 -8 10.73 0.88
-8 -6 -5 10.85 0.87
5 6 8 10.52 0.88
8 -6 5 10.67 0.89
-8 6 5 11.21 0.9
5 -8 6 11.48 0.93
-8 5 -6 11.45 0.89
-5 8 6 10.99 0.91
-6 -5 -8 10.3 0.85
-6 -8 6 -0.01 0.24
-8 -6 -6 0.38 0.12
-6 -6 -8 0.25 0.12
-8 -6 6 0.35 0.23
8 -6 -6 0.29 0.14
-6 -8 -6 0.32 0.15
-6 -6 8 0.28 0.21
-8 6 6 0.31 0.17
8 -6 6 0.22 0.16
8 6 -6 0.29 0.2
8 6 6 0.26 0.15
6 -6 -8 0.36 0.15
6 -6 8 0.24 0.17
-6 6 8 0.59 0.17
-6 8 -6 0.15 0.2
-8 6 -6 0.49 0.17
6 8 -6 0.34 0.21
6 8 6 0.42 0.17
6 6 -8 0.4 0.2
6 6 8 0.03 0.15
6 -8 -6 0.24 0.16
-6 6 -8 0.43 0.18
-6 8 6 0.08 0.18
6 -8 6 0.26 0.18
-8 0 7 140.23 10.61
8 0 7 141.62 10.59
8 0 7 132.9 10.59
0 -7 -8 134.82 10.6
0 -7 8 142.82 10.62
8 -7 0 138.01 10.6
8 7 0 142.26 10.61
0 8 7 138.03 10.61
-7 8 0 141.92 10.61
0 7 8 139.84 10.61
7 -8 0 137.8 10.61
7 0 8 134.47 10.59
7 0 8 143.69 10.6
0 -8 -7 138.81 10.61
-8 0 7 137.36 10.6
-8 7 0 141.5 10.61
-7 0 8 141.71 10.62
0 7 -8 144.76 10.62
0 -8 7 144.18 10.62
0 8 -7 141.22 10.62
7 8 0 143.58 10.61
-8 -7 0 144.52 10.61
-7 -8 0 141.67 10.61
-7 1 -8 11.23 0.89
8 1 -7 10.94 0.98
-7 -1 8 11.03 0.98
-1 -8 7 12.93 0.99
-7 8 1 10.78 0.96
1 8 7 9.53 0.95
7 8 -1 10.38 0.98
7 1 8 10.93 0.88
-1 7 8 13.62 0.95
-8 -7 1 10.05 0.96
-8 1 7 11.22 0.97
7 1 8 10.89 0.87
-8 7 -1 9.92 0.94
8 -7 -1 10.87 0.92
-1 8 -7 11.27 1.01
-8 1 7 11.64 0.91
-1 -7 -8 13.65 0.92
7 -8 1 10.53 0.92
8 -1 7 10.39 0.88
8 7 1 10.56 0.96
1 7 -8 10.55 0.99
1 -7 8 12.54 0.98
-7 -8 -1 11.21 0.95
-8 -1 7 10.86 0.97
7 -1 8 10.64 0.9
-1 -8 -7 10.83 0.94
-7 1 8 11.17 0.96
7 -8 -1 11.29 0.92
7 8 1 10.68 0.96
-7 8 -1 10.97 0.95
1 8 -7 12.72 1
-1 -7 8 12.52 0.99
-1 7 -8 11.33 0.99
1 -7 -8 13.54 0.94
8 7 -1 10.69 0.96
-7 -8 1 8.97 0.98
7 1 -8 10.68 0.97
-7 1 8 10.88 0.92
1 7 8 12.94 0.95
-8 7 1 10.41 0.94
1 -8 7 10.07 0.98
8 1 7 10.94 0.86
8 -7 1 11.66 0.92
-8 -7 -1 10.65 0.94
8 1 7 10.26 0.87
-1 8 7 13.24 0.96
2 8 7 0.5 0.19
7 2 8 1.17 0.13
-2 -8 7 0.84 0.25
-8 7 -2 0.59 0.2
-2 7 8 0.8 0.2
-8 -7 2 1.25 0.22
7 -8 2 0.85 0.18
7 8 -2 0.82 0.23
-2 -7 -8 0.4 0.16
8 2 -7 0.77 0.21
2 -7 8 0.55 0.22
-7 -8 -2 0.81 0.2
-2 8 -7 0.57 0.24
7 2 8 0.66 0.12
-8 2 7 0.57 0.17
2 7 -8 0.46 0.23
-7 -2 8 0.81 0.22
-7 2 -8 0.93 0.14
8 7 2 0.66 0.2
8 -7 -2 1.16 0.18
2 -8 -7 0.59 0.16
-7 8 2 0.46 0.2
-8 2 7 0.71 0.2
8 -2 7 1.13 0.14
-2 -8 -7 1.03 0.18
8 -7 2 0.79 0.17
-2 8 7 0.53 0.21
-8 2 -7 1.24 0.13
-8 -2 7 0.7 0.21
-2 7 -8 0.42 0.22
2 7 8 0.66 0.2
-7 2 8 0.63 0.17
-7 -8 2 0.63 0.23
2 -8 7 0.38 0.23
2 8 -7 0.67 0.24
-8 7 2 0.58 0.19
8 7 -2 0.86 0.21
7 -8 -2 0.41 0.17
-7 8 -2 1.02 0.21
7 -2 8 1.04 0.16
7 2 -8 0.77 0.2
-8 -7 -2 0.66 0.19
-2 -7 8 0.71 0.24
7 8 2 0.84 0.21
2 -7 -8 0.68 0.17
8 2 7 1.14 0.11
8 2 7 0.95 0.11
-7 2 8 0.84 0.2
8 7 3 8.37 0.75
-7 -3 8 8.78 0.81
3 -7 8 7.66 0.78
8 3 -7 8.6 0.8
3 -8 -7 8.62 0.73
-3 -7 -8 8.04 0.72
-7 3 -8 8.29 0.71
3 7 -8 8.29 0.82
8 -7 -3 10.2 0.73
7 -8 3 8.36 0.75
7 8 -3 8.31 0.79
7 3 8 7.57 0.68
-8 -7 3 7.95 0.79
8 -3 7 8.17 0.7
-8 -3 -7 8.04 0.66
-7 8 3 7.95 0.76
-3 -8 7 7.65 0.82
-8 7 -3 8.4 0.76
-7 -8 -3 8.12 0.74
-3 7 8 8.27 0.75
3 8 7 9.33 0.74
-8 3 7 7.84 0.73
-3 8 -7 9.16 0.8
3 7 8 7.93 0.75
-3 -7 8 8.33 0.82
-7 8 -3 9.45 0.77
8 -7 3 7.6 0.72
8 7 -3 9.66 0.8
-3 8 7 8.8 0.76
-3 7 -8 7.02 0.78
7 8 3 8.8 0.76
3 -8 7 10.3 0.8
-8 7 3 9.94 0.74
-8 -3 7 7.78 0.82
-8 3 -7 8.23 0.7
3 8 -7 8.29 0.82
7 -8 -3 9.76 0.73
7 -3 8 7.73 0.72
7 3 -8 9.45 0.79
-8 -7 -3 8.07 0.73
8 3 7 8.74 0.68
-7 -3 -8 8 0.67
3 -7 -8 8.01 0.72
-7 3 8 8.72 0.73
-3 -8 -7 7.81 0.73
-7 -8 3 8.1 0.79
-7 -8 -4 1.95 0.23
-8 4 7 1.53 0.22
-8 -4 -7 1.97 0.25
4 -7 8 2.16 0.26
4 7 -8 2.12 0.28
7 -4 -8 1.52 0.21
-4 -8 7 1.98 0.29
8 -7 -4 2.25 0.23
-7 8 4 1.83 0.24
-4 -7 -8 2.32 0.33
-4 8 -7 2.21 0.27
-8 -7 4 2.08 0.28
7 4 8 2.64 0.31
8 -4 7 1.8 0.21
-4 7 8 2.15 0.24
7 8 -4 2.01 0.27
-8 7 -4 1.78 0.24
4 8 7 2.21 0.24
7 -8 4 2.08 0.24
4 -8 -7 2.12 0.23
-7 4 -8 1.71 0.22
8 4 -7 1.54 0.25
8 7 4 1.81 0.24
-7 -4 8 2.15 0.28
-8 4 -7 2.21 0.21
7 8 4 2.11 0.25
4 8 -7 1.84 0.27
8 4 7 2.18 0.31
8 -7 4 1.91 0.23
7 4 -8 1.36 0.26
4 -7 -8 2.16 0.23
-7 -4 -8 1.8 0.26
7 -4 8 2.1 0.22
4 7 8 2.37 0.23
-7 4 8 1.96 0.23
-4 -8 -7 2.27 0.22
-7 -8 4 1.63 0.27
-7 8 -4 1.9 0.25
8 7 -4 1.76 0.26
8 -4 -7 1.67 0.21
-8 7 4 1.98 0.24
-4 8 7 1.97 0.25
7 -8 -4 1.86 0.23
-8 -4 7 1.68 0.28
-8 -7 -4 2.51 0.36
-4 -7 8 2.49 0.3
-4 7 -8 1.98 0.26
5 -7 8 3.41 0.52
7 -5 -8 4.19 0.45
-7 8 5 4.18 0.5
-5 -7 -8 3.93 0.45
-8 -7 5 4.92 0.58
-7 -8 -5 4.09 0.44
-5 7 8 3.93 0.49
7 5 8 4.2 0.43
8 -7 -5 4.44 0.46
8 7 5 4.85 0.48
8 -5 7 4.57 0.46
-8 7 -5 4.72 0.5
-7 -5 8 4.08 0.57
-7 5 -8 3.82 0.48
8 5 -7 3.92 0.54
-5 8 -7 4.11 0.56
-8 5 7 4.85 0.49
5 7 -8 3.86 0.57
5 8 7 3.57 0.49
-8 -5 -7 4.17 0.39
7 -8 5 4.98 0.49
5 -8 -7 3.75 0.47
7 8 5 4.07 0.5
8 -5 -7 4.2 0.45
-7 8 -5 3.93 0.52
7 -8 -5 4.01 0.45
-8 7 5 4.53 0.48
-5 -8 -7 4.06 0.45
8 7 -5 4.6 0.56
-7 5 8 3.91 0.48
8 -7 5 3.41 0.46
5 -8 7 3.37 0.53
-7 -5 -8 3.24 0.39
-8 -5 7 4.21 0.57
5 -7 -8 4.29 0.46
-5 -7 8 3.05 0.4
5 7 8 3.63 0.47
-8 -7 -5 4.52 0.44
-7 -8 5 4.03 0.56
7 -5 8 4.41 0.47
-5 7 -8 3.32 0.53
-8 5 -7 4.11 0.48
-5 8 7 4.1 0.5
7 5 -8 3.63 0.54
8 5 7 3.89 0.44
-7 -6 8 2.47 0.32
-7 -8 -6 3 0.4
6 8 7 3.19 0.45
-6 8 -7 4.44 0.49
-8 -7 6 2.38 0.33
-7 6 -8 3.08 0.45
8 -7 -6 3.29 0.4
-8 7 -6 3.23 0.46
7 -8 6 3.64 0.47
7 8 -6 2.28 0.33
7 6 8 3.21 0.39
-6 -8 7 1.91 0.32
8 7 6 2.9 0.42
6 -8 -7 3.43 0.41
7 -6 -8 3.54 0.41
8 -6 7 3.08 0.41
-7 8 6 3.67 0.44
-6 -7 -8 3.19 0.37
-8 6 7 3.38 0.44
-6 7 8 3.32 0.44
8 6 -7 2.46 0.32
6 7 -8 2.61 0.34
-8 -6 -7 2.82 0.34
6 -7 8 3.54 0.48
-7 -8 6 2.39 0.33
-6 7 -8 2.35 0.3
-7 8 -6 3.36 0.48
-6 -7 8 2.81 0.34
6 -7 -8 3.66 0.4
-8 -7 -6 2.66 0.37
7 -6 8 3.29 0.45
7 6 -8 2.17 0.31
-8 -6 7 4.02 0.52
-8 6 -7 3.36 0.45
8 7 -6 2.07 0.31
-8 7 6 3.94 0.43
-7 -6 -8 3.38 0.34
-7 6 8 3.06 0.42
6 -8 7 3.91 0.47
6 8 -7 2.1 0.32
-6 8 7 3.26 0.45
-6 -8 -7 3.67 0.39
8 -7 6 3.43 0.42
8 6 7 2.91 0.38
8 -6 -7 3.62 0.39
7 8 6 3.31 0.44
6 7 8 3.28 0.44
7 -8 -6 3.03 0.41
-7 -8 7 2.25 0.29
-7 -7 -8 2.83 0.34
-7 -7 8 2.12 0.3
-7 7 -8 2.01 0.27
-8 7 7 3.4 0.41
-7 -8 -7 2.69 0.35
-8 -7 -7 3.5 0.34
-8 -7 7 2.22 0.29
-8 7 -7 2.28 0.27
7 8 7 3.51 0.4
8 -7 -7 2.96 0.37
8 -7 7 2.24 0.25
8 7 -7 2.5 0.3
8 7 7 2.73 0.4
7 7 8 2.79 0.39
7 8 -7 1.77 0.29
7 7 -8 1.98 0.29
-7 7 8 2.93 0.42
-7 8 -7 2.2 0.28
-7 8 7 2.17 0.27
7 -8 -7 2.91 0.4
7 -8 7 1.92 0.26
7 -7 -8 2.93 0.37
7 -7 8 2.1 0.27
8 8 0 14.3 1.16
0 -8 8 14.43 1.17
0 8 -8 12.77 1.17
-8 -8 0 14.62 1.15
-8 0 8 13 1.16
-8 0 8 13.8 1.11
-8 8 0 13.77 1.14
0 -8 -8 13.32 1.11
8 -8 0 15.65 1.11
8 0 8 13.18 1.08
8 0 8 13.6 1.06
0 8 8 13.24 1.14
8 8 1 -0.2 0.2
8 -8 1 -0.21 0.16
-8 8 1 -0.11 0.19
-1 -8 -8 -0.31 0.16
8 1 8 0.05 0.09
8 8 -1 0.01 0.22
8 -1 8 -0.24 0.12
8 1 -8 0.12 0.21
8 1 8 0.23 0.1
-8 -8 -1 -0.05 0.19
-8 -8 1 -0.07 0.21
-8 -1 8 0.21 0.22
-8 1 8 -0.08 0.19
-8 1 8 0.32 0.15
-8 8 -1 -0.09 0.19
1 8 8 -0.33 0.19
8 -8 -1 -0.07 0.17
-1 -8 8 -0.24 0.24
-1 8 -8 -0.63 0.24
-1 8 8 -0.01 0.19
1 -8 -8 -0.21 0.17
1 -8 8 -0.4 0.23
1 8 -8 -0.21 0.23
-8 -8 -2 70.13 5.22
-8 -8 2 68.93 5.23
-8 -2 8 69.3 5.23
-8 2 -8 67.31 5.2
-8 2 8 68.55 5.23
-8 2 8 68.43 5.22
-8 8 -2 69.72 5.22
-8 8 2 69.78 5.22
-2 -8 -8 68.28 5.21
-2 -8 8 70 5.24
-2 8 -8 70.07 5.24
-2 8 8 69.94 5.22
2 -8 -8 69.25 5.22
2 -8 8 68.45 5.23
2 8 -8 68.64 5.24
2 8 8 70.59 5.22
8 -8 -2 66.27 5.21
8 -8 2 66.38 5.22
8 -2 8 68.44 5.21
8 2 -8 67.97 5.23
8 2 8 66.48 5.2
8 2 8 67.21 5.2
8 8 -2 69.64 5.23
8 8 2 71.66 5.23
-3 8 -8 -0.28 0.22
3 -8 8 -0.34 0.2
3 8 -8 -0.55 0.24
3 8 8 -0.42 0.17
8 -8 -3 -0.33 0.16
8 -8 3 0.01 0.17
8 3 -8 -0.21 0.2
8 3 8 -0.25 0.11
8 8 -3 -0.48 0.2
8 8 3 -0.41 0.18
-3 8 8 -0.43 0.18
3 -8 -8 -0.1 0.16
-3 -8 8 -0.32 0.23
-8 3 -8 -0.17 0.12
-8 3 8 0.08 0.16
-8 8 -3 -0.1 0.19
-8 8 3 -0.18 0.19
-3 -8 -8 -0.2 0.15
-8 -8 -3 -0.16 0.17
-8 -8 3 -0.26 0.21
-8 -3 8 0.07 0.21
-8 4 8 46.59 3.58
-8 -4 8 46.69 3.6
-8 4 -8 48.56 3.58
8 -8 -4 46.44 3.58
8 -8 4 46.62 3.58
8 -4 -8 48.8 3.58
8 -4 8 46.27 3.58
8 4 -8 48.64 3.61
8 4 8 46.43 3.57
8 8 -4 46.22 3.6
8 8 4 48.24 3.59
-8 -8 -4 45.86 3.58
-8 -8 4 45.73 3.6
-8 -4 -8 45.58 3.56
-8 8 4 47.09 3.59
-4 -8 -8 47.72 3.58
-4 -8 8 48.28 3.61
-4 8 -8 49.18 3.61
-4 8 8 47.45 3.59
4 -8 -8 46.86 3.58
4 -8 8 45.65 3.59
4 8 -8 47.3 3.61
4 8 8 47.3 3.59
-8 8 -4 45.84 3.59
8 -5 8 -0.26 0.16
8 5 -8 0.07 0.21
8 5 8 -0.21 0.14
8 -5 -8 0.07 0.14
8 -8 5 0.06 0.17
8 -8 -5 -0.16 0.16
-8 -5 -8 0.04 0.1
-8 -5 8 -0.27 0.2
-8 5 -8 -0.18 0.16
-8 5 8 0.25 0.17
-8 8 -5 0.03 0.18
-8 8 5 -0.2 0.19
-5 -8 -8 -0.21 0.15
-5 -8 8 0 0.23
-5 8 -8 -0.23 0.21
-5 8 8 0.49 0.18
5 -8 -8 -0.03 0.15
5 -8 8 -0.58 0.2
5 8 -8 -0.14 0.21
5 8 8 -0.24 0.17
-8 -8 -5 -0.07 0.15
-8 -8 5 -0.16 0.22
8 8 -5 -0.21 0.22
8 8 5 -0.03 0.18
-8 -8 6 5.54 0.64
-8 -6 -8 5.29 0.5
-8 -6 8 5.01 0.65
-8 6 -8 5.95 0.57
-8 6 8 5.33 0.57
-8 8 -6 6 0.63
-8 8 6 5.91 0.58
-6 -8 -8 5.79 0.53
-6 -8 8 5.31 0.67
-6 8 -8 6.05 0.64
-6 8 8 5.4 0.59
6 -8 -8 5.22 0.56
6 -8 8 5.63 0.63
6 8 -8 4.63 0.65
6 8 8 5.08 0.57
8 -8 -6 5.64 0.54
8 -8 6 5.88 0.59
8 -6 -8 6.15 0.55
8 -6 8 6.1 0.57
8 6 -8 5.27 0.65
8 6 8 5.84 0.55
8 8 -6 5.76 0.63
8 8 6 5.59 0.57
-8 -8 -6 5.93 0.54
-8 7 -8 0.17 0.19
-8 7 8 -0.15 0.16
-8 -8 7 -0.01 0.21
-8 -7 -8 -0.24 0.12
-8 -7 8 0.08 0.21
-8 -8 -7 -0.01 0.14
-7 8 -8 -0.27 0.2
-7 8 8 -0.19 0.18
7 -8 -8 -0.24 0.14
7 -8 8 -0.04 0.19
7 8 -8 -0.35 0.2
7 8 8 -0.09 0.17
8 -8 -7 -0.14 0.15
8 -8 7 -0.37 0.17
8 -7 -8 -0.15 0.14
8 -7 8 0.07 0.17
8 7 -8 -0.1 0.2
8 7 8 -0.1 0.16
8 8 -7 0.02 0.22
8 8 7 -0.24 0.17
-7 -8 8 -0.34 0.23
-8 8 -7 -0.12 0.19
-8 8 7 -0.13 0.18
-7 -8 -8 -0.12 0.13
8 -8 -8 2.6 0.36
8 -8 8 1.78 0.24
8 8 -8 1.51 0.27
8 8 8 1.69 0.23
-8 8 8 1.7 0.23
-8 -8 -8 2.25 0.32
-8 8 -8 1.64 0.25
-8 -8 8 1.93 0.28
0 0 9 -0.06 0.16
0 -9 0 0.45 0.19
-9 0 0 0 0.1
-9 0 0 0.08 0.09
0 9 0 0.19 0.19
0 1 9 0.1 0.16
1 -9 0 -0.02 0.19
1 9 0 0.02 0.21
-9 1 0 0.11 0.1
0 1 9 0.09 0.12
-1 0 9 -0.2 0.17
0 -9 -1 -0.05 0.18
0 -9 1 -0.07 0.19
0 9 -1 -0.11 0.21
0 9 1 -0.11 0.2
1 0 9 -0.09 0.16
0 1 -9 -0.15 0.17
-9 0 1 -0.01 0.13
-9 0 1 0 0.09
-1 -9 0 -0.2 0.18
-1 9 0 -0.39 0.19
-9 -1 0 0.03 0.12
0 -1 9 0.29 0.16
-9 1 0 0.15 0.09
-9 0 -1 -0.12 0.09
-9 0 -1 -0.06 0.08
1 1 9 -0.07 0.14
1 1 9 0.01 0.12
1 9 -1 -0.28 0.21
1 9 1 -0.18 0.2
-1 1 -9 -0.18 0.16
-1 1 9 0.03 0.13
-1 9 -1 -0.32 0.21
-1 9 1 -0.3 0.21
1 -9 -1 -0.21 0.17
1 -9 1 -0.1 0.18
1 -1 9 -0.12 0.16
1 1 -9 0.13 0.18
-1 -9 1 -0.26 0.18
-1 -1 9 0.11 0.17
-9 1 1 0.1 0.1
-1 1 9 -0.13 0.16
-9 1 1 -0.04 0.11
-9 1 -1 -0.06 0.08
-1 -9 -1 0 0.19
-9 -1 1 0.25 0.12
-9 -1 -1 -0.03 0.1
9 -2 0 45.1 3.35
2 0 9 43.8 3.37
0 9 -2 44.34 3.39
-9 0 -2 44.27 3.35
0 -9 -2 44.99 3.38
0 -9 2 43.25 3.38
2 -9 0 44.55 3.38
0 9 2 45.56 3.39
-9 0 2 44.33 3.37
-9 0 2 45.06 3.36
-2 -9 0 44.77 3.38
-2 9 0 44.33 3.39
-9 -2 0 44.95 3.36
-9 2 0 45.02 3.36
-2 0 9 43.05 3.38
0 -2 9 43 3.38
0 2 -9 43.6 3.38
0 2 9 43.89 3.38
0 2 9 45.65 3.37
-9 0 -2 42.85 3.35
2 9 0 44.7 3.39
9 2 0 43.42 3.36
1 2 -9 -0.1 0.18
2 -9 1 0.13 0.17
-9 -2 1 0.03 0.14
-9 2 -1 0.09 0.1
-2 9 1 0.12 0.19
9 -2 -1 -0.25 0.1
9 2 1 -0.16 0.1
-9 1 2 -0.09 0.11
-2 -9 -1 0.11 0.18
1 -9 -2 -0.11 0.17
-1 2 9 0.07 0.14
-9 -1 -2 0.08 0.09
-9 1 2 0.15 0.13
2 1 9 0.03 0.11
-1 2 9 -0.1 0.16
2 9 -1 -0.13 0.2
-2 -1 9 -0.16 0.16
2 1 9 -0.03 0.15
-1 9 -2 0.03 0.21
1 -2 9 -0.23 0.18
-2 1 -9 0.07 0.15
1 9 2 -0.22 0.2
-1 -9 2 -0.02 0.19
-2 9 -1 0.01 0.19
9 2 -1 -0.18 0.13
-1 -2 9 -0.04 0.18
-9 -1 2 0.08 0.14
-1 -9 -2 -0.12 0.18
-1 2 -9 -0.12 0.16
1 2 9 -0.1 0.15
1 2 9 -0.05 0.13
2 -9 -1 0.14 0.17
2 9 1 -0.21 0.2
1 -9 2 -0.27 0.2
1 9 -2 -0.09 0.19
-2 1 9 -0.06 0.16
-9 2 1 -0.23 0.11
-2 -9 1 -0.04 0.2
-9 1 -2 -0.13 0.08
-1 9 2 -0.24 0.18
-2 1 9 -0.16 0.13
9 -2 1 -0.09 0.08
2 -1 9 0 0.16
2 1 -9 -0.06 0.17
-9 -2 -1 -0.16 0.12
-2 9 -2 -0.12 0.2
-2 -2 9 -0.24 0.18
-2 2 -9 -0.06 0.17
-2 2 9 -0.2 0.16
-2 -9 -2 -0.08 0.18
-2 -9 2 -0.17 0.2
-2 2 9 -0.05 0.15
-9 -2 -2 -0.13 0.1
-9 -2 2 -0.17 0.14
-2 9 2 -0.22 0.21
2 -9 -2 0.06 0.18
2 -9 2 -0.42 0.2
2 -2 9 -0.21 0.16
2 2 -9 -0.34 0.17
2 2 9 -0.02 0.15
2 2 9 -0.1 0.12
2 9 -2 -0.1 0.2
2 9 2 -0.26 0.19
9 -2 2 -0.14 0.07
9 2 -2 -0.06 0.14
9 2 2 -0.2 0.09
-9 2 -2 -0.15 0.09
-9 2 2 -0.17 0.12
0 9 -3 0.37 0.22
0 9 3 0.37 0.2
3 0 9 0.21 0.16
9 -3 0 0.16 0.1
9 3 0 0.26 0.13
0 3 9 0.23 0.15
0 -9 -3 0.16 0.17
0 -9 3 0.29 0.22
3 -9 0 0.05 0.19
3 9 0 0.15 0.21
-9 -3 0 0.09 0.14
-9 3 0 0.28 0.12
-3 0 9 0.02 0.2
-9 0 3 0.33 0.15
-9 0 3 0.14 0.12
0 -3 -9 0.13 0.13
0 -3 9 0.27 0.18
0 3 -9 0.23 0.19
-3 -9 0 0.19 0.2
-3 9 0 0.14 0.19
-3 -1 9 3.53 0.51
9 1 -3 3.78 0.44
-3 1 -9 3.59 0.44
1 -9 -3 4.21 0.47
-1 9 -3 4.1 0.52
-3 -9 -1 3.42 0.47
3 -9 1 3.71 0.48
-1 3 9 3.44 0.42
-9 -3 1 2.87 0.41
-9 3 -1 4.26 0.37
3 9 -1 3.8 0.52
3 1 9 4.11 0.42
-9 1 3 3.95 0.39
9 3 1 3.43 0.38
-1 -3 -9 3.51 0.4
1 -3 9 2.49 0.33
-1 -9 3 3.39 0.51
-9 1 3 3.86 0.42
3 1 9 3.57 0.37
9 -3 -1 3.46 0.37
1 3 -9 3.37 0.49
-3 9 1 3.89 0.5
1 9 3 3.97 0.49
-3 1 9 3.54 0.4
-9 -1 3 3.23 0.43
-1 -9 -3 2.46 0.32
1 3 9 3.41 0.41
3 -9 -1 3.44 0.46
1 9 -3 2.67 0.35
-9 3 1 4.32 0.37
-9 1 -3 3.69 0.3
-3 1 9 4.03 0.49
9 -3 1 3.59 0.34
9 3 -1 3.55 0.41
-3 -9 1 2.39 0.33
-1 -3 9 3.86 0.51
-1 3 -9 4.06 0.48
3 1 -9 3.58 0.49
-1 9 3 3.77 0.5
-9 -3 -1 3.82 0.37
1 -9 3 3.34 0.51
3 -1 9 3.95 0.45
1 -3 -9 3.4 0.4
-3 9 -1 3.31 0.51
3 9 1 2.34 0.34
-2 -9 3 37.82 2.88
-2 -3 -9 37.23 2.85
2 -9 -3 36.63 2.87
-3 -9 -2 37.47 2.87
-9 3 -2 36.74 2.84
9 2 -3 37.79 2.86
-9 -3 2 37.55 2.86
3 -9 2 38.77 2.88
-3 -2 9 40 2.88
-3 2 -9 38.14 2.86
9 -2 3 36.4 2.83
3 2 9 37.92 2.86
3 2 9 36.62 2.85
-2 9 -3 37.87 2.88
2 3 -9 38.57 2.88
-2 3 9 37.54 2.86
-9 2 3 37.77 2.85
-3 9 2 38.19 2.88
9 3 2 37.95 2.84
9 -3 -2 37.91 2.85
-9 -2 -3 36.64 2.84
3 9 -2 36.92 2.88
2 -3 9 37.2 2.87
2 9 3 38.34 2.88
2 -9 3 36.27 2.87
-9 3 2 36.81 2.85
3 -2 9 38.52 2.87
3 2 -9 38.3 2.88
-3 2 9 39.29 2.87
-9 -3 -2 36.37 2.84
-2 -3 9 38.22 2.88
-2 3 -9 37.56 2.87
2 9 -3 37 2.88
3 9 2 37.33 2.88
-2 -9 -3 35.13 2.87
-9 2 -3 36.25 2.84
2 -3 -9 36.98 2.85
-9 -2 3 37.55 2.86
9 2 3 37.38 2.83
-3 -9 2 37.33 2.88
2 3 9 36.54 2.85
-3 9 -2 36.51 2.88
9 3 -2 38.81 2.86
-3 2 9 38.26 2.86
3 -9 -2 37.72 2.87
9 -3 2 36.22 2.84
-2 9 3 37.61 2.88
-9 3 3 -0.13 0.13
-9 -3 3 0.01 0.16
-9 3 -3 -0.03 0.11
-9 -3 -3 0.11 0.1
9 -3 3 -0.07 0.09
3 3 9 0.03 0.13
3 9 -3 0.14 0.2
3 9 3 0.13 0.2
9 -3 -3 0.01 0.12
3 -3 -9 -0.08 0.14
3 -3 9 -0.1 0.18
3 3 -9 -0.01 0.2
-3 -9 3 -0.17 0.21
-3 -3 -9 -0.07 0.12
-3 -3 9 -0.07 0.21
-3 3 -9 -0.05 0.16
-3 3 9 0.21 0.15
-3 9 -3 0 0.21
3 -9 -3 -0.14 0.18
9 3 -3 -0.07 0.16
9 3 3 0.16 0.1
-3 -9 -3 -0.01 0.18
-3 9 3 -0.13 0.2
3 -9 3 0.12 0.2
4 -9 0 0.76 0.19
4 0 9 0.73 0.15
4 9 0 0.45 0.21
-4 9 0 0.69 0.22
0 -4 -9 0.31 0.15
0 -4 9 0.17 0.22
0 9 -4 0.3 0.22
0 9 4 0.47 0.2
0 4 9 0.25 0.16
-9 4 0 0.54 0.14
-9 0 4 0.63 0.17
-9 0 4 0.52 0.13
-4 -9 0 0.57 0.21
-9 -4 0 0.62 0.15
0 -9 4 0.51 0.22
-4 0 9 0.92 0.22
0 -9 -4 0.49 0.19
0 4 -9 0.43 0.2
9 -4 0 0.59 0.13
9 4 0 0.52 0.15
1 9 4 51.08 3.85
9 1 -4 52.97 3.84
4 1 9 51.28 3.84
4 1 9 50.26 3.83
9 -4 -1 50.77 3.83
-1 4 9 52.31 3.84
-9 1 4 50.63 3.84
-1 -9 4 49.25 3.86
-1 9 -4 50.16 3.86
-4 9 1 49.85 3.85
4 -9 1 50.24 3.85
4 9 -1 49.3 3.86
-9 -4 1 50.57 3.84
-9 4 -1 49.13 3.83
-4 1 -9 51.15 3.83
1 -9 -4 48.98 3.84
9 4 1 50.55 3.83
-4 -1 9 52.27 3.86
1 4 -9 49.8 3.85
1 -4 9 51.51 3.85
-4 -9 -1 49.76 3.85
-9 1 4 50.61 3.83
-1 -4 -9 46.35 3.84
1 -9 4 50.44 3.85
4 1 -9 52.23 3.85
-4 -9 1 48.71 3.85
-4 9 -1 49.63 3.85
-1 4 -9 50.67 3.85
9 4 -1 51.52 3.84
1 -4 -9 50.18 3.83
1 9 -4 49.7 3.86
-1 9 4 50.65 3.85
-9 4 1 49.07 3.83
4 -9 -1 48.9 3.84
1 4 9 50.05 3.84
-9 -4 -1 50.47 3.83
9 -4 1 50.31 3.82
4 9 1 50.19 3.85
-9 -1 4 51.06 3.84
-4 1 9 51.76 3.83
-1 -9 -4 51.06 3.85
-4 1 9 53.46 3.85
4 -1 9 51.44 3.84
-1 -4 9 51.16 3.86
9 2 -4 5.83 0.61
-2 -9 4 5.9 0.65
-4 -2 9 6.34 0.64
-2 9 -4 6.19 0.65
-4 2 -9 6.14 0.59
-2 -4 -9 5.63 0.55
4 9 -2 6.84 0.69
9 -2 4 5.86 0.48
-4 -9 -2 6.12 0.62
2 9 4 5.76 0.63
-9 4 -2 5.85 0.54
-4 9 2 7.22 0.64
-9 -4 2 5.95 0.6
4 2 9 6.93 0.57
9 -4 -2 6.1 0.55
2 -4 9 6.41 0.64
9 4 2 6.38 0.55
2 4 -9 6.21 0.64
4 -9 2 6.11 0.62
2 -9 -4 6.39 0.6
-2 4 9 5.72 0.58
-9 2 4 6.07 0.55
4 2 9 5.72 0.53
-4 2 9 5.22 0.58
-9 -2 4 6.02 0.6
9 -4 2 5.94 0.52
2 -4 -9 5.89 0.56
-2 4 -9 6.37 0.61
-4 9 -2 6.26 0.65
4 9 2 6.41 0.66
9 4 -2 6.27 0.59
2 4 9 5.7 0.57
4 -9 -2 5.9 0.61
2 -9 4 5.31 0.63
-2 -9 -4 5.65 0.6
2 9 -4 5.26 0.67
-4 -9 2 6.23 0.65
4 -2 9 6.68 0.59
4 2 -9 7.06 0.64
-4 2 9 6.08 0.62
-9 2 -4 6.47 0.5
-9 4 2 5.81 0.56
-2 9 4 5.79 0.64
-9 -4 -2 6.37 0.55
-2 -4 9 5.45 0.67
9 3 -4 0.18 0.18
-4 9 3 0.1 0.21
-9 3 4 0.34 0.14
9 -3 4 0.21 0.09
-3 4 9 0.66 0.16
-4 -3 9 0.31 0.22
3 -4 9 0.12 0.19
3 4 -9 0.39 0.21
-3 -4 -9 0.33 0.13
3 -9 -4 0.15 0.17
3 9 4 0.18 0.19
4 -9 3 0.05 0.19
4 9 -3 -0.13 0.22
-9 -3 -4 0.2 0.08
-3 9 -4 0.17 0.21
-3 -9 4 0.17 0.21
9 4 3 0.03 0.13
9 -4 -3 0.49 0.13
-9 4 -3 0.19 0.13
-4 3 -9 0.07 0.15
4 3 9 0.21 0.13
-9 -4 3 0.02 0.17
-4 -9 -3 0.39 0.19
-3 4 -9 0.17 0.18
9 3 4 0.18 0.1
4 3 -9 0.14 0.21
-9 3 -4 0.29 0.11
-4 9 -3 0.21 0.2
-9 -4 -3 0.11 0.12
-9 4 3 0.23 0.14
-4 -3 -9 0.07 0.11
3 -4 -9 0.18 0.14
-4 3 9 0.19 0.16
-3 -9 -4 0.14 0.17
9 -3 -4 0.24 0.13
4 -3 9 0.09 0.17
-3 9 4 0.08 0.2
-3 -4 9 0.3 0.2
3 4 9 0.23 0.14
9 -4 3 0.26 0.11
9 4 -3 0.39 0.17
-4 -9 3 0 0.21
4 9 3 0.07 0.2
-9 -3 4 -0.18 0.17
3 -9 4 0.17 0.2
4 -9 -3 0.1 0.16
3 9 -4 0.25 0.23
4 -4 -9 0.31 0.14
4 4 -9 -0.02 0.2
4 4 9 -0.11 0.13
4 -9 4 0.01 0.19
-4 -4 -9 0.1 0.12
-4 -9 -4 -0.13 0.17
4 -4 9 0.23 0.18
9 4 4 0.03 0.12
-9 4 4 -0.07 0.13
-4 -9 4 -0.14 0.22
4 9 -4 -0.13 0.22
4 9 4 0.06 0.2
9 -4 -4 0.5 0.13
9 -4 4 -0.07 0.11
9 4 -4 -0.07 0.17
-9 -4 -4 -0.09 0.1
-9 -4 4 -0.2 0.19
-9 4 -4 0.08 0.13
-4 9 -4 -0.05 0.2
-4 -4 9 -0.04 0.2
-4 4 -9 0.04 0.16
4 -9 -4 0.38 0.18
-4 9 4 0.02 0.2
0 5 9 0.24 0.16
-9 0 5 0.32 0.23
9 5 0 0.62 0.16
0 9 -5 0.13 0.22
0 9 5 0.48 0.21
-5 -9 0 0.53 0.21
0 -5 9 0.31 0.21
0 5 -9 0.59 0.21
-9 0 5 0.51 0.13
-9 -5 0 0.66 0.18
-9 5 0 0.45 0.14
-5 0 9 0.77 0.23
0 -9 -5 0.54 0.18
0 -9 5 0.54 0.23
5 0 9 0.7 0.11
5 -9 0 0.55 0.18
5 0 9 0.63 0.15
9 -5 0 0.59 0.13
5 9 0 0.51 0.22
-5 9 0 0.33 0.2
0 -5 -9 0.57 0.15
1 9 5 0.23 0.19
1 -5 9 0.01 0.2
9 1 -5 -0.23 0.18
-9 -5 1 0 0.17
-5 9 1 0.57 0.21
-1 9 -5 0.32 0.21
1 -9 -5 -0.13 0.18
-1 -5 -9 -0.03 0.14
5 9 -1 -0.12 0.22
5 -9 1 -0.06 0.18
-9 5 -1 -0.1 0.13
9 -5 -1 -0.12 0.13
5 1 9 0.24 0.11
1 5 -9 -0.02 0.19
5 1 9 -0.14 0.14
-9 1 5 -0.43 0.17
-5 1 -9 -0.13 0.13
-5 -1 9 0.11 0.19
-9 1 5 -0.16 0.13
-1 5 9 -0.16 0.16
-5 -9 -1 -0.36 0.19
9 5 1 -0.12 0.15
-1 -9 5 -0.06 0.21
1 5 9 -0.06 0.16
1 9 -5 0 0.24
5 -9 -1 -0.01 0.18
5 1 -9 0.05 0.19
5 9 1 0 0.2
9 5 -1 -0.1 0.16
1 -5 -9 -0.23 0.14
-9 -5 -1 0.32 0.15
1 -9 5 -0.17 0.21
-9 5 1 -0.09 0.14
5 -1 9 -0.15 0.15
-1 -5 9 0.05 0.2
-1 9 5 0.08 0.2
-5 -9 1 -0.24 0.2
-5 1 9 0.25 0.16
9 -5 1 -0.11 0.12
-1 -9 -5 -0.16 0.18
-5 9 -1 -0.38 0.2
-5 1 9 0.49 0.17
-1 5 -9 -0.06 0.2
5 9 -2 9.83 0.82
2 -9 -5 8.71 0.78
-2 9 -5 8.48 0.83
-9 -5 2 9.47 0.79
-2 5 9 8.84 0.77
2 -5 9 8.39 0.81
2 5 -9 9.04 0.83
-5 9 2 8.98 0.81
-2 -5 -9 8.17 0.74
-9 2 5 8.58 0.79
-9 2 5 8.39 0.74
-5 -9 -2 8.67 0.8
5 2 9 9.4 0.74
5 -9 2 9.02 0.81
-5 2 -9 9.93 0.76
9 5 2 8.89 0.76
-9 5 -2 9.03 0.75
-5 -2 9 9.44 0.84
9 2 -5 9.22 0.8
5 2 9 9.48 0.72
9 -5 -2 8.53 0.74
2 9 5 8.92 0.81
9 -2 5 8.46 0.69
-2 -9 5 7.64 0.83
-2 -9 -5 8.61 0.78
-9 -5 -2 9.41 0.75
-5 2 9 8.75 0.8
-5 -9 2 9.58 0.82
-2 9 5 9.18 0.8
2 -9 5 8.94 0.82
-9 5 2 8.56 0.76
2 -5 -9 8.94 0.76
5 2 -9 9.03 0.81
9 -5 2 8.59 0.73
5 -9 -2 8.98 0.78
5 9 2 9.02 0.82
-2 5 -9 8.76 0.82
5 -2 9 9.47 0.77
9 5 -2 9.95 0.79
-2 -5 9 8.45 0.84
2 9 -5 8.51 0.85
-5 9 -2 8.67 0.83
-9 -2 5 8.18 0.84
-9 2 -5 9.04 0.7
-5 2 9 8.42 0.76
2 5 9 9.04 0.77
-5 -9 -3 12.68 1.05
-9 5 -3 12.09 1.03
9 5 3 12.82 1.03
-3 -9 5 12.55 1.1
-9 -3 -5 13.26 0.99
-9 3 5 12.62 1.03
-3 5 9 13.55 1.05
3 5 -9 13.11 1.09
9 -5 -3 13.41 1.02
5 -9 3 13.33 1.07
5 9 -3 12.7 1.09
3 -5 9 12.97 1.07
-5 9 3 13.06 1.09
-9 -5 3 13.19 1.07
5 3 9 12.67 1.01
3 -9 -5 12.75 1.05
-3 -5 -9 13.35 1.02
-5 -3 9 11.83 1.1
-5 3 -9 13.23 1.04
3 9 5 13.07 1.07
9 -3 5 12.61 1
9 3 -5 12.7 1.08
-3 9 -5 13.15 1.09
-9 -5 -3 12.73 1.02
5 -3 9 12.31 1.05
-5 3 9 13.06 1.04
-3 9 5 12.62 1.06
-3 -5 9 12.82 1.11
-3 5 -9 13.35 1.08
3 -5 -9 13.71 1.04
3 5 9 13.03 1.03
5 -9 -3 13.23 1.05
5 9 3 12.54 1.06
9 -3 -5 13.54 1.03
9 -5 3 11.97 1.02
5 3 -9 12.32 1.08
-3 -9 -5 13.11 1.05
9 5 -3 12.86 1.07
-9 5 3 13.25 1.04
-9 3 -5 13.02 1.01
-9 -3 5 11.25 1.06
-5 9 -3 12.89 1.09
-5 -3 -9 12.74 1.01
3 9 -5 12.95 1.11
9 3 5 12.24 0.99
-5 -9 3 12.93 1.08
3 -9 5 12.8 1.08
-5 -4 9 0.55 0.22
5 -4 -9 0.45 0.15
4 -9 -5 0.47 0.17
4 9 5 0.27 0.19
5 9 -4 0.52 0.23
-5 9 4 0.38 0.18
-4 -9 5 0.53 0.23
5 -9 4 0.52 0.2
-4 -5 -9 0.52 0.13
9 5 4 0.22 0.15
-9 4 5 0.36 0.15
9 4 -5 0.4 0.19
9 -4 5 0.31 0.12
4 -5 9 0.18 0.19
4 5 -9 0.62 0.23
-5 -9 -4 0.61 0.18
-4 5 9 0.14 0.17
-5 4 -9 0.7 0.17
-4 9 -5 0.35 0.22
-9 -5 4 0.53 0.2
-9 5 -4 0.54 0.15
-9 -4 -5 0.32 0.1
9 -5 -4 0.35 0.14
5 4 9 0.47 0.14
4 5 9 0.5 0.15
-5 4 9 0.35 0.16
5 -4 9 0.39 0.18
4 -9 5 0.79 0.21
4 9 -5 0.66 0.24
-5 9 -4 0.51 0.21
-9 5 4 0.18 0.15
-4 -5 9 0.6 0.22
5 4 -9 0.58 0.21
5 9 4 0.2 0.2
-9 -5 -4 0.39 0.13
-4 -9 -5 0.35 0.17
5 -9 -4 0.55 0.16
-9 4 -5 0.51 0.14
-4 9 5 0.69 0.2
9 -5 4 0.36 0.13
-5 -9 4 0.18 0.22
9 5 -4 0.61 0.19
-9 -4 5 0.7 0.2
9 -4 -5 0.59 0.14
9 4 5 0.29 0.12
-4 5 -9 0.5 0.18
4 -5 -9 0.53 0.16
-5 -4 -9 0.51 0.12
-9 5 5 -0.15 0.15
-5 -9 -5 -0.1 0.16
-9 5 -5 -0.08 0.15
-5 9 -5 -0.19 0.2
-5 9 5 -0.22 0.2
5 9 -5 -0.16 0.22
-9 -5 -5 -0.16 0.11
-5 -5 9 -0.03 0.23
-5 5 -9 -0.28 0.16
-5 5 9 -0.04 0.17
5 -5 -9 0.01 0.15
5 5 -9 -0.05 0.19
5 -5 9 0.07 0.18
5 9 5 0.04 0.2
9 -5 -5 -0.09 0.14
9 -5 5 -0.04 0.13
-9 -5 5 -0.17 0.19
5 -9 -5 -0.27 0.15
5 -9 5 -0.04 0.19
-5 -9 5 -0.12 0.22
-5 -5 -9 -0.24 0.11
9 5 5 0.06 0.13
9 5 -5 -0.14 0.19
5 5 9 -0.02 0.13
-9 0 6 1.17 0.22
-9 -6 0 1.55 0.23
9 6 0 1.52 0.22
0 -6 9 2.04 0.26
0 6 -9 1.51 0.25
-6 0 9 1.25 0.24
0 9 6 1.94 0.24
6 0 9 1.66 0.19
6 0 9 1.66 0.16
9 -6 0 1.62 0.19
0 -9 -6 1.81 0.22
0 -9 6 1.66 0.26
-9 0 6 1.54 0.19
6 -9 0 1.86 0.22
-6 9 0 1.05 0.24
0 -6 -9 1.74 0.2
0 6 9 1.85 0.21
-9 6 0 1.35 0.2
0 9 -6 1.32 0.26
-6 -9 0 1.33 0.24
6 9 0 0.94 0.25
9 -6 -1 3.6 0.41
9 6 1 3.71 0.49
6 9 -1 4 0.55
-6 9 1 3.87 0.51
-1 -6 -9 4.09 0.43
-1 6 9 4.2 0.48
-6 1 -9 4.45 0.41
1 -6 9 3.2 0.37
-1 -9 6 3.04 0.38
-9 1 6 3.76 0.41
1 -9 -6 4.11 0.47
1 9 6 4.74 0.51
-9 -6 1 3.92 0.5
-9 6 -1 4.18 0.45
1 6 -9 2.89 0.37
-6 -9 -1 4.24 0.53
6 1 9 4.26 0.37
-1 9 -6 4.06 0.58
-6 -1 9 3.73 0.55
6 1 9 3.59 0.41
6 -9 1 4.36 0.47
-9 1 6 3.5 0.5
9 6 -1 3.9 0.51
6 1 -9 2.93 0.36
9 -6 1 3.8 0.42
6 -1 9 4.31 0.44
-6 9 -1 3.49 0.52
-6 -9 1 4.08 0.55
-9 -1 6 3.36 0.51
6 9 1 5 0.55
-1 -6 9 3.88 0.55
-9 6 1 3.42 0.45
1 -9 6 4.49 0.55
-6 1 9 4 0.53
-6 1 9 4.47 0.44
1 -6 -9 4.09 0.43
1 9 -6 2.83 0.38
1 6 9 4.06 0.46
-1 6 -9 3.69 0.55
-9 -6 -1 3.9 0.47
-1 -9 -6 4.23 0.47
6 -9 -1 3.4 0.48
-1 9 6 3.96 0.5
2 -6 9 14.03 1.18
6 2 9 13.93 1.1
-2 9 -6 14.35 1.18
-9 2 6 13.88 1.11
-2 -6 -9 13.37 1.12
6 -9 2 13.76 1.14
-9 6 -2 14.11 1.12
2 9 6 14.05 1.16
2 -9 -6 13.36 1.13
-6 2 -9 14.07 1.12
2 6 -9 13.78 1.18
-6 -9 -2 14.16 1.15
6 9 -2 13.8 1.17
-9 2 6 13.57 1.14
-9 -6 2 14.69 1.15
6 2 9 13.77 1.09
9 -6 -2 14.66 1.12
9 6 2 14.15 1.13
-6 -2 9 14.71 1.18
-6 9 2 13.63 1.15
-2 -9 6 13.09 1.18
9 -2 6 13.8 1.08
9 2 -6 13.74 1.16
-2 6 9 14.52 1.14
-6 2 9 14.06 1.15
2 9 -6 13.03 1.19
-6 2 9 14.01 1.13
-9 -6 -2 14.56 1.12
9 -6 2 13.86 1.11
-2 9 6 13.52 1.15
2 -6 -9 13.86 1.12
6 -2 9 14.69 1.13
2 -9 6 14.79 1.19
2 6 9 13.76 1.12
6 -9 -2 14.65 1.14
-2 6 -9 13.82 1.16
-9 -2 6 14.12 1.15
-6 9 -2 14.87 1.16
-2 -9 -6 13.95 1.13
-9 6 2 14.04 1.13
-2 -6 9 13.51 1.18
-9 2 -6 14.04 1.08
-6 -9 2 14.92 1.18
9 6 -2 14.09 1.15
6 9 2 14.21 1.16
6 3 9 11.78 0.97
9 -6 -3 13.88 0.99
3 -6 9 12.73 1.04
-6 3 -9 12.79 1
3 6 -9 12.69 1.06
6 9 -3 13.56 1.06
-6 -9 -3 11.65 1.02
-9 6 -3 12.12 1
-9 3 6 12.27 0.99
-6 9 3 11.12 1.03
-3 -6 -9 11.63 0.99
9 3 -6 11.92 1.03
-9 -6 3 13.85 1.04
-6 -3 9 11.49 1.07
-9 -3 -6 10.64 0.94
-3 -9 6 11.7 1.07
9 -3 6 11.48 0.96
-3 6 9 12.02 1.01
9 6 3 13.61 1
3 9 6 11.69 1.04
6 -9 3 12.39 1.02
-3 9 -6 12.81 1.07
3 -9 -6 12.08 1.01
-9 3 -6 12.55 0.97
-6 3 9 12.04 1
-3 6 -9 14.35 1.05
3 -6 -9 11.59 0.99
-9 -6 -3 11.34 0.99
3 6 9 13.07 1
6 9 3 11.8 1.03
9 6 -3 13.33 1.03
-9 -3 6 15.02 1.05
-3 -9 -6 13.01 1.01
-6 -9 3 12.1 1.05
-9 6 3 12.27 1
6 -3 9 12.7 1.01
6 3 -9 11.93 1.05
-3 -6 9 12.01 1.07
3 -9 6 12.5 1.06
9 -6 3 12.24 0.99
6 -9 -3 10.99 1.01
-6 9 -3 14.18 1.05
9 3 6 11.29 0.95
3 9 -6 11.53 1.07
-3 9 6 12.03 1.04
-6 9 4 0.39 0.19
6 9 -4 0.07 0.22
-9 6 -4 0.33 0.16
-6 -9 -4 0.14 0.17
-9 -6 4 0.41 0.22
4 6 -9 0.56 0.22
4 -9 -6 0.24 0.17
9 4 -6 0.39 0.19
4 9 6 0.37 0.19
6 -4 -9 0.27 0.14
9 -4 6 0.3 0.13
-4 -9 6 0.19 0.22
-6 -4 9 0.12 0.2
9 -6 -4 0.06 0.14
-4 9 -6 0.35 0.21
9 6 4 0.49 0.15
6 -9 4 0.09 0.18
-9 4 6 0.38 0.16
-9 -4 -6 0.33 0.09
-4 -6 -9 0.41 0.13
4 -6 9 0.34 0.19
-4 6 9 0.09 0.17
6 4 9 0.23 0.13
-6 4 -9 0.4 0.16
6 9 4 0.32 0.2
-6 9 -4 0.59 0.21
-6 -4 -9 0.36 0.11
-6 4 9 0.24 0.17
-4 -9 -6 0.57 0.17
9 -6 4 0.28 0.14
-4 9 6 0.86 0.2
-9 6 4 0.32 0.17
4 9 -6 0.37 0.25
6 -4 9 0.37 0.17
9 4 6 0.24 0.12
6 4 -9 0.22 0.21
4 -9 6 0.13 0.21
-9 -4 6 0.32 0.21
9 6 -4 0.18 0.2
-4 -6 9 0 0.21
4 6 9 0.51 0.16
6 -9 -4 0.49 0.18
4 -6 -9 0.3 0.16
-4 6 -9 0.22 0.19
-6 -9 4 0.45 0.21
-9 -6 -4 0.49 0.14
-9 4 -6 0.17 0.14
9 -4 -6 0.42 0.14
6 -5 -9 0.52 0.15
9 -5 6 0.44 0.14
-9 5 6 0.6 0.16
-5 -9 6 0.56 0.23
-5 -6 -9 0.45 0.13
6 -9 5 0.46 0.2
-9 -5 -6 0.6 0.12
-6 -9 -5 0.64 0.16
-6 5 -9 0.96 0.17
-6 9 5 0.64 0.2
9 6 5 0.65 0.16
-5 6 9 0.75 0.18
-9 6 -5 0.42 0.17
5 -6 9 0.72 0.21
5 6 -9 0.36 0.21
-6 -5 9 0.94 0.22
5 9 6 0.63 0.2
9 -6 -5 0.48 0.15
9 5 -6 0.77 0.21
-5 9 -6 0.56 0.22
-9 -6 5 0.61 0.21
6 9 -5 0.52 0.24
6 5 9 0.57 0.15
5 -9 -6 0.64 0.16
9 5 6 0.42 0.14
5 9 -6 0.43 0.23
-5 -6 9 0.43 0.22
-6 -9 5 0.62 0.24
-9 -6 -5 0.62 0.13
5 -9 6 0.24 0.2
5 -6 -9 0.55 0.17
-9 6 5 0.49 0.17
-6 -5 -9 0.62 0.12
5 6 9 0.66 0.16
-6 5 9 0.53 0.18
-5 -9 -6 0.37 0.17
-9 5 -6 0.52 0.16
-6 9 -5 0.46 0.22
6 9 5 0.57 0.2
9 6 -5 0.56 0.21
6 -9 -5 0.67 0.17
-9 -5 6 0.51 0.21
6 5 -9 0.82 0.23
-5 6 -9 0.43 0.19
9 -6 5 0.44 0.15
9 -5 -6 0.42 0.14
6 -5 9 0.78 0.19
-5 9 6 0.52 0.2
6 9 6 0.04 0.19
6 -9 -6 -0.24 0.14
-9 6 6 -0.07 0.16
6 9 -6 -0.07 0.22
6 -9 6 -0.06 0.18
-6 9 -6 -0.14 0.21
6 -6 9 -0.23 0.17
6 6 -9 -0.08 0.22
6 6 9 -0.14 0.15
-6 -9 6 -0.03 0.22
-6 6 9 -0.14 0.16
-6 6 -9 -0.15 0.18
6 -6 -9 -0.12 0.14
-6 -6 -9 0.05 0.11
-9 -6 -6 -0.34 0.11
9 -6 -6 -0.02 0.14
-6 -9 -6 -0.27 0.15
-9 -6 6 -0.06 0.21
-6 9 6 -0.16 0.18
-9 6 -6 -0.03 0.16
-6 -6 9 -0.06 0.22
9 -6 6 -0.37 0.14
9 6 6 -0.2 0.15
9 6 -6 -0.24 0.19
0 -9 7 30.33 2.45
0 7 -9 32.57 2.46
0 9 7 31.38 2.44
0 7 9 32.9 2.44
-9 7 0 31.94 2.43
-7 0 9 30.97 2.45
-7 0 9 31.12 2.42
9 7 0 33.82 2.44
-9 0 7 30.2 2.42
7 0 9 31.59 2.41
-7 9 0 31.02 2.45
0 -7 -9 31.23 2.42
0 -7 9 32.36 2.46
-9 -7 0 32.72 2.44
-7 -9 0 31.89 2.45
7 -9 0 31.22 2.43
0 -9 -7 32.3 2.43
9 -7 0 31.69 2.42
7 9 0 32.3 2.45
0 9 -7 29.97 2.46
-9 0 7 31.03 2.45
7 0 9 30.31 2.4
7 1 9 1.68 0.17
-9 -7 1 1.56 0.25
-9 7 -1 1.54 0.23
9 7 1 1.71 0.23
7 9 -1 1.76 0.27
9 -7 -1 1.72 0.21
-1 7 9 1.88 0.24
-7 9 1 1.7 0.25
-9 1 7 2.71 0.37
1 9 7 1.78 0.25
7 -9 1 1.79 0.23
1 -7 9 1.59 0.27
-7 -1 9 2.25 0.27
-1 9 -7 1.31 0.3
-9 1 7 2.01 0.24
-1 -9 7 1.74 0.29
7 1 9 1.84 0.19
-1 -7 -9 2.05 0.22
9 -1 7 1.52 0.23
1 -9 -7 1.93 0.23
-7 -9 -1 1.72 0.25
1 7 -9 1.43 0.26
9 7 -1 1.59 0.24
9 -7 1 1.37 0.21
-7 1 9 1.95 0.25
-7 1 9 2.67 0.37
1 -9 7 1.34 0.28
-7 9 -1 1.4 0.26
-9 -1 7 1.52 0.24
-1 -9 -7 1.91 0.23
-9 -7 -1 1.87 0.24
7 1 -9 2.32 0.26
-9 7 1 1.66 0.22
1 7 9 1.68 0.23
7 -9 -1 1.94 0.23
-7 -9 1 1.6 0.26
1 -7 -9 1.88 0.21
-1 7 -9 1.61 0.26
-1 9 7 1.53 0.25
-1 -7 9 1.77 0.27
7 -1 9 1.47 0.2
1 9 -7 1.81 0.28
7 9 1 1.59 0.26
-9 -7 2 8.29 0.8
7 2 9 7.99 0.69
-7 -2 9 8.3 0.83
9 2 -7 7.83 0.81
2 7 -9 9.3 0.82
7 9 -2 7.81 0.8
9 -7 -2 8.8 0.74
-7 9 2 8.38 0.78
-2 -7 -9 7.8 0.73
9 -2 7 8.48 0.69
9 7 2 7.65 0.77
7 2 9 8.35 0.71
-2 -9 7 9.09 0.84
2 9 7 10.08 0.8
7 -9 2 9.85 0.76
-2 7 9 8.64 0.78
-9 2 7 7.97 0.77
-2 9 -7 9.54 0.82
2 -9 -7 8.96 0.76
-9 2 7 8.27 0.74
-9 7 -2 7.86 0.76
2 -7 9 9.24 0.8
-7 2 -9 8.95 0.72
-7 -9 -2 8.95 0.78
9 -7 2 7.77 0.73
-9 2 -7 8.35 0.69
9 2 7 8.55 0.68
-7 9 -2 9.01 0.78
-9 -7 -2 7.72 0.75
2 -9 7 9.05 0.81
2 9 -7 8.27 0.84
9 7 -2 9.98 0.8
7 2 -9 8.64 0.81
7 9 2 8.38 0.8
-7 2 9 8.08 0.79
7 -2 9 8.78 0.74
-9 -2 7 8.5 0.8
-7 -9 2 8.31 0.8
-2 7 -9 10.14 0.8
-2 -7 9 8.55 0.84
2 -7 -9 8.36 0.74
-9 7 2 9.88 0.77
-2 9 7 9.56 0.79
-2 -9 -7 9.2 0.76
-7 2 9 8.43 0.75
9 2 7 8.11 0.67
2 7 9 8.31 0.75
7 -9 -2 8.42 0.77
9 7 3 0.41 0.18
-7 -3 9 0.45 0.23
-3 -9 7 0.12 0.23
9 3 -7 0.57 0.2
-3 7 9 0.45 0.18
-7 9 3 0.21 0.19
3 -7 9 0.47 0.21
-9 -3 -7 0.61 0.08
-9 -7 3 0.4 0.2
9 -7 -3 0.31 0.15
-3 9 -7 -0.02 0.22
-9 3 7 0.62 0.16
3 7 -9 0.22 0.21
7 -9 3 0.42 0.19
-7 -9 -3 0.49 0.18
3 9 7 0.39 0.19
7 3 9 0.34 0.12
-9 7 -3 0.19 0.17
9 -3 7 0.11 0.12
7 9 -3 0.13 0.23
-3 -7 -9 0.56 0.15
3 -9 -7 0.39 0.16
-7 3 -9 0.74 0.14
7 -3 9 0.23 0.16
-9 7 3 0.41 0.18
3 7 9 0.25 0.17
7 9 3 0.15 0.2
-3 -9 -7 0.24 0.17
7 3 -9 0.54 0.21
-3 -7 9 0.37 0.23
3 9 -7 0.2 0.23
9 3 7 0.35 0.11
7 -9 -3 0.28 0.17
-7 3 9 0.9 0.18
9 7 -3 0.4 0.21
-3 9 7 0.21 0.2
-7 -9 3 0.51 0.23
-7 9 -3 0.3 0.21
-9 -3 7 0.49 0.21
3 -7 -9 0.28 0.16
-3 7 -9 0.1 0.21
-9 -7 -3 0.6 0.16
9 -7 3 0.47 0.15
-9 3 -7 0.43 0.12
3 -9 7 0.22 0.22
4 7 -9 0.16 0.23
-9 -4 -7 0.02 0.08
9 7 4 0.02 0.17
7 9 -4 0.08 0.23
-9 4 7 0.02 0.16
4 -7 9 0.21 0.21
4 -9 -7 0.22 0.16
9 -7 -4 0.21 0.14
4 9 7 -0.06 0.19
-7 -9 -4 -0.13 0.17
7 -9 4 -0.06 0.19
-4 7 9 0.12 0.18
-4 -7 -9 -0.03 0.14
-7 9 4 0.2 0.2
-7 -4 9 0.24 0.22
9 -4 7 0.23 0.13
9 4 -7 0.11 0.19
-4 -9 7 0.07 0.22
-4 9 -7 0.32 0.23
-9 -7 4 0.33 0.22
7 -4 -9 0.11 0.15
-7 4 -9 0.09 0.15
7 4 9 0.33 0.13
-9 7 -4 -0.02 0.17
-4 -9 -7 0.29 0.16
7 4 -9 0.1 0.21
9 -7 4 0.14 0.15
-9 -7 -4 0.05 0.15
-7 4 9 0.13 0.17
4 9 -7 -0.02 0.23
4 -7 -9 0.39 0.16
-7 -9 4 0.24 0.23
9 -4 -7 -0.03 0.14
-4 -7 9 0.1 0.23
-9 4 -7 0.2 0.14
4 -9 7 0.2 0.21
-7 9 -4 -0.2 0.2
-4 9 7 0.14 0.21
4 7 9 0.34 0.17
9 4 7 0.32 0.12
-9 -4 7 -0.11 0.21
7 -4 9 0.17 0.16
7 9 4 -0.05 0.19
-7 -4 -9 -0.01 0.1
-4 7 -9 0.25 0.21
9 7 -4 0.14 0.19
-9 7 4 0.15 0.17
7 -9 -4 0.16 0.17
5 7 -9 -0.18 0.23
5 -7 9 -0.12 0.19
9 7 5 -0.14 0.16
9 -7 -5 -0.15 0.14
-5 -9 7 -0.05 0.22
-5 9 -7 -0.06 0.21
-9 5 7 -0.14 0.16
-9 -5 -7 -0.06 0.1
-5 7 9 -0.16 0.17
-7 -5 9 -0.07 0.21
-9 7 -5 -0.03 0.17
-5 -7 -9 -0.19 0.13
5 9 7 -0.08 0.18
9 -5 7 0.02 0.14
-7 -9 -5 -0.11 0.15
5 -9 -7 0 0.16
-9 -7 5 -0.01 0.2
7 -9 5 0.04 0.17
7 5 9 -0.29 0.13
7 9 -5 -0.02 0.22
-7 5 -9 -0.03 0.16
9 5 -7 -0.05 0.2
7 -5 -9 -0.1 0.13
-7 9 5 -0.03 0.18
-9 5 -7 -0.05 0.16
-5 -9 -7 -0.1 0.15
-7 5 9 -0.23 0.16
5 9 -7 0.01 0.23
5 -7 -9 -0.18 0.14
9 -5 -7 -0.11 0.15
-7 9 -5 -0.01 0.19
-9 -7 -5 0.12 0.13
-9 -5 7 0.08 0.21
-9 7 5 -0.11 0.17
-7 -5 -9 0 0.11
-5 -7 9 -0.07 0.23
7 9 5 -0.31 0.19
5 7 9 -0.16 0.16
9 -7 5 -0.17 0.15
7 -5 9 -0.24 0.16
7 5 -9 -0.02 0.2
-5 7 -9 -0.22 0.19
5 -9 7 -0.16 0.2
7 -9 -5 -0.15 0.15
9 7 -5 0.08 0.2
-7 -9 5 -0.15 0.22
9 5 7 -0.07 0.13
-5 9 7 0 0.19
-9 -6 -7 0.36 0.12
7 -6 -9 0.4 0.16
6 9 7 0.47 0.19
-7 -9 -6 0.36 0.16
-9 7 -6 0.35 0.19
7 -9 6 0.3 0.19
7 6 9 0.13 0.15
-6 -7 -9 0.5 0.13
-9 -7 6 0.48 0.23
9 -6 7 0.22 0.16
9 -7 -6 0.42 0.15
-6 9 -7 0.32 0.21
-9 6 7 0.38 0.18
6 -9 -7 0.66 0.17
6 -7 9 0.33 0.19
-6 -9 7 0.38 0.23
-6 7 9 0.37 0.18
9 7 6 0.27 0.17
-7 -6 9 0.25 0.23
7 9 -6 0.39 0.23
6 7 -9 0.45 0.21
9 6 -7 0.09 0.22
-7 6 -9 0.09 0.18
-7 9 6 0.34 0.19
-6 7 -9 0.51 0.19
6 -9 7 0.3 0.19
7 -6 9 0.44 0.18
-7 -6 -9 0.43 0.12
-7 9 -6 0.41 0.21
-6 9 7 0.51 0.2
6 9 -7 0.38 0.23
-9 7 6 0.34 0.17
-7 6 9 0.24 0.18
7 -9 -6 0.38 0.15
-9 -6 7 0.4 0.21
-6 -7 9 0.53 0.24
9 -6 -7 0.55 0.16
-6 -9 -7 0.42 0.16
7 6 -9 0.24 0.22
-7 -9 6 0.3 0.22
-9 6 -7 0.31 0.17
9 7 -6 0.47 0.22
9 -7 6 0.41 0.16
9 6 7 0.48 0.15
7 9 6 0.31 0.19
6 7 9 0.23 0.16
-9 -7 -6 0.29 0.14
6 -7 -9 0.5 0.16
-9 7 7 -0.07 0.17
-7 -9 7 -0.26 0.22
9 7 -7 -0.22 0.2
7 9 -7 -0.34 0.24
7 7 9 -0.15 0.16
7 7 -9 -0.11 0.21
-7 -9 -7 -0.03 0.15
7 -9 -7 -0.11 0.15
-7 7 9 0.01 0.19
-7 -7 -9 -0.05 0.12
7 -7 9 -0.05 0.18
-9 7 -7 -0.15 0.18
-7 9 -7 -0.19 0.19
9 7 7 -0.03 0.16
9 -7 -7 -0.19 0.13
-9 -7 -7 -0.07 0.12
-9 -7 7 0.16 0.22
7 9 7 -0.04 0.19
-7 9 7 -0.05 0.19
-7 -7 9 0 0.22
-7 7 -9 -0.21 0.18
7 -7 -9 -0.07 0.14
9 -7 7 0.02 0.17
7 -9 7 -0.2 0.18
-8 9 0 94.74 7.03
0 9 -8 92.86 7.04
-9 -8 0 93.94 7.03
-9 8 0 94.58 7.03
-8 0 9 91.84 7.04
-8 0 9 90.41 7.02
0 -9 -8 93.87 7.02
9 8 0 94.97 7.03
8 -9 0 91.21 7.02
0 -9 8 94.45 7.04
-9 0 8 89.2 7.02
8 0 9 92.07 7.01
8 0 9 89.23 7
9 0 8 88.55 7
9 0 8 93.29 7
0 -8 -9 92.52 7.02
0 8 9 92.72 7.02
-9 0 8 91.57 7.03
-8 -9 0 94.65 7.03
0 9 8 93.1 7.03
0 8 -9 91.48 7.04
0 -8 9 95.68 7.04
9 -8 0 93.51 7.02
8 9 0 95.38 7.03
-8 9 1 2.59 0.31
1 8 -9 2.8 0.34
-1 9 -8 2.63 0.34
8 1 9 3.06 0.31
-9 1 8 3.75 0.51
-9 8 -1 3.77 0.48
-1 8 9 2.46 0.3
8 1 9 3.95 0.36
-1 -8 -9 2.47 0.28
1 -9 -8 2.99 0.43
9 8 1 3.73 0.53
9 -1 8 3.13 0.34
-1 -9 8 2.55 0.35
-8 -9 -1 3.77 0.5
-8 -1 9 2.34 0.32
-9 1 8 4.02 0.41
1 -8 9 2.11 0.33
8 -9 1 3.66 0.47
8 9 -1 2.66 0.33
-9 -8 1 2.44 0.31
1 9 8 3.25 0.48
9 -8 -1 3.27 0.4
8 9 1 2.34 0.32
9 -8 1 3.97 0.42
-9 8 1 3.94 0.46
-9 -8 -1 3.43 0.49
1 9 -8 2.75 0.34
8 -1 9 3.43 0.37
-8 1 9 3.85 0.44
-1 -9 -8 2.15 0.29
-8 -9 1 2.38 0.32
-8 9 -1 2.52 0.31
-9 -1 8 4.26 0.56
1 -8 -9 2.72 0.29
1 -9 8 2.89 0.34
-1 9 8 4.06 0.5
1 8 9 2.77 0.31
8 -9 -1 3.48 0.46
-1 -8 9 2.23 0.34
9 8 -1 2.5 0.31
-1 8 -9 2.61 0.34
9 1 8 3.24 0.28
-8 1 9 3.58 0.51
8 2 9 1.83 0.24
9 8 2 1.26 0.22
9 -8 -2 1.48 0.21
9 2 -8 1.22 0.23
-8 -2 9 1.26 0.26
-8 2 -9 1.62 0.17
-9 -8 2 1.26 0.25
-2 -9 8 1.12 0.27
-9 2 8 1.56 0.23
-9 2 8 1.53 0.2
-8 -9 -2 1.06 0.23
-8 9 2 1.43 0.23
-2 -8 -9 1.51 0.19
-2 8 9 1.37 0.23
2 -8 9 1.2 0.27
-9 8 -2 1.34 0.23
2 -9 -8 1.42 0.2
9 -2 8 1.24 0.17
2 9 8 0.98 0.22
8 2 9 1.45 0.16
8 -9 2 1.21 0.2
8 9 -2 1.17 0.26
-2 9 -8 0.89 0.26
2 8 -9 0.91 0.27
-2 -8 9 1.35 0.28
8 -9 -2 1.37 0.2
-8 2 9 1.36 0.2
-2 -9 -8 1.21 0.21
9 2 8 1.47 0.14
9 -8 2 1.51 0.2
-9 -2 8 1.03 0.24
9 8 -2 1.27 0.24
-8 2 9 1.19 0.23
2 8 9 1.63 0.23
-8 9 -2 1.12 0.24
-9 8 2 1.61 0.21
-2 8 -9 1.8 0.26
-9 -8 -2 1 0.22
-9 2 -8 1.87 0.26
-2 9 8 1.31 0.25
2 -9 8 0.9 0.26
2 9 -8 1.28 0.26
8 -2 9 1.8 0.19
8 2 -9 2.06 0.25
2 -8 -9 1.29 0.2
8 9 2 1.04 0.23
9 2 8 1.15 0.14
-8 -9 2 1.38 0.25
3 -9 -8 8.38 0.73
-9 8 -3 9.35 0.77
8 3 9 7.25 0.68
-8 -3 9 7.89 0.83
-8 9 3 8.1 0.77
9 8 3 8.98 0.77
3 9 8 7.79 0.77
9 3 -8 8.71 0.78
-3 9 -8 7.47 0.83
-9 3 8 8.38 0.79
-9 3 8 8.75 0.72
-8 3 -9 8.96 0.71
9 -3 8 7.77 0.7
3 -8 9 9.6 0.83
9 -8 -3 7.72 0.72
-3 8 9 8.08 0.76
-8 -9 -3 7.55 0.75
-3 -9 8 8.13 0.82
-9 -8 3 7.67 0.79
3 8 -9 8.14 0.82
8 -9 3 7.91 0.75
-3 -8 -9 8.23 0.72
8 9 -3 8.57 0.82
8 9 3 7.57 0.76
3 8 9 8.46 0.76
9 8 -3 8.41 0.81
-8 -9 3 8.34 0.81
-3 9 8 8.98 0.77
9 -8 3 8.59 0.73
3 -9 8 8.35 0.79
3 9 -8 8.86 0.84
-8 9 -3 8.52 0.78
8 -3 9 8.78 0.72
-3 8 -9 8.73 0.81
-8 3 9 7.83 0.73
-9 -8 -3 9.05 0.74
-3 -8 9 7.34 0.85
8 -9 -3 8.53 0.75
-8 3 9 8.63 0.79
9 3 8 7.56 0.67
-9 8 3 8.44 0.75
-9 3 -8 8.35 0.69
8 3 -9 8.21 0.81
3 -8 -9 8.35 0.73
-9 -3 8 9.32 0.81
-3 -9 -8 7.55 0.72
9 -4 8 8.71 0.75
-8 9 4 8.75 0.81
-4 -8 -9 9.27 0.76
-8 4 -9 10.29 0.77
4 -8 9 9.61 0.84
-4 -9 8 7.78 0.87
-4 9 -8 7.56 0.84
4 -9 -8 8.31 0.78
-9 -4 -8 8.3 0.71
4 9 8 7.9 0.82
-9 4 8 11.02 0.77
-8 -9 -4 8.56 0.79
4 8 -9 9.23 0.85
8 -9 4 8.23 0.8
8 9 -4 9.13 0.84
-9 8 -4 9.18 0.81
-9 -8 4 8.29 0.82
-4 8 9 8.79 0.8
-8 -4 9 8.66 0.85
9 -8 -4 8.47 0.77
9 4 -8 9.4 0.83
9 8 4 9.18 0.8
8 4 9 9.97 0.74
-4 -8 9 8.1 0.88
9 -8 4 9.06 0.79
9 8 -4 8.83 0.85
-4 9 8 8.43 0.8
4 -8 -9 8.59 0.78
-8 -4 -9 9.53 0.71
9 4 8 8.83 0.73
-4 8 -9 9.23 0.84
-8 4 9 9.86 0.78
-8 9 -4 8.11 0.82
4 -9 8 8.1 0.82
4 8 9 9.8 0.79
-4 -9 -8 8.1 0.77
8 -4 9 10.58 0.77
9 -4 -8 10.09 0.76
-9 -8 -4 8.44 0.78
-9 4 -8 7.93 0.75
8 4 -9 8.75 0.84
-9 8 4 8.93 0.82
8 -9 -4 9.48 0.77
4 9 -8 7.69 0.86
-8 -9 4 9.31 0.85
8 9 4 7.6 0.8
-9 -4 8 8.81 0.83
5 9 8 1.7 0.23
8 -5 -9 1.83 0.21
8 5 9 1.68 0.19
8 -9 5 1.7 0.23
9 -5 8 1.62 0.2
8 9 -5 1.46 0.27
-8 9 5 1.76 0.24
-9 -8 5 1.02 0.27
9 5 -8 1.85 0.26
-5 8 9 1.65 0.23
-9 -5 -8 1.64 0.25
9 8 5 1.38 0.23
-8 5 -9 1.89 0.22
-9 5 8 1.53 0.22
-8 -9 -5 1.68 0.21
5 -8 9 1.71 0.25
-5 9 -8 1.17 0.26
-5 -8 -9 2.32 0.33
9 -8 -5 1.43 0.2
-5 -9 8 2.18 0.3
5 -9 -8 1.47 0.2
5 8 -9 0.91 0.26
-8 -5 9 1.15 0.25
-9 8 -5 1.58 0.23
9 -5 -8 2.5 0.34
5 9 -8 1.83 0.29
-8 -9 5 1.68 0.27
8 5 -9 1.5 0.25
-9 -5 8 1.56 0.26
5 -9 8 1.63 0.25
5 8 9 1.76 0.22
-9 5 -8 1.51 0.21
-8 5 9 1.62 0.22
-5 -9 -8 1.65 0.21
-5 -8 9 1.3 0.29
-9 8 5 2.01 0.23
8 -9 -5 1.56 0.2
-8 -5 -9 2.29 0.27
9 5 8 1.51 0.19
-9 -8 -5 1.43 0.2
8 9 5 1.44 0.24
-5 8 -9 1.74 0.26
5 -8 -9 1.72 0.21
8 -5 9 1.77 0.21
9 -8 5 1.61 0.22
9 8 -5 1.28 0.25
-8 9 -5 1.41 0.24
-5 9 8 1.77 0.23
-8 -6 9 2.7 0.35
-8 6 -9 3.83 0.46
9 -8 -6 3.51 0.44
-6 -9 8 4.1 0.57
6 -9 -8 3.71 0.43
8 6 9 3.95 0.4
-9 8 -6 3.64 0.48
9 8 6 3.05 0.45
-9 6 8 3.91 0.44
-8 9 6 3.28 0.47
8 -6 -9 3.63 0.42
-6 8 9 4.02 0.47
-9 -8 6 2.15 0.34
9 6 -8 3.78 0.52
8 -9 6 3.76 0.46
8 9 -6 3.78 0.55
6 9 8 3.1 0.47
6 8 -9 2.14 0.34
9 -6 8 3.4 0.42
-8 -9 -6 3.78 0.43
-6 -8 -9 3.53 0.4
-6 9 -8 2.33 0.34
-9 -6 -8 3.53 0.34
6 -8 9 3.68 0.49
-8 -9 6 3.96 0.54
-9 -8 -6 3.51 0.41
-9 -6 8 2.72 0.35
8 -6 9 3.68 0.46
-6 -9 -8 3.6 0.41
6 -8 -9 3.15 0.42
-9 6 -8 3.44 0.45
6 8 9 3.38 0.45
8 -9 -6 3.46 0.45
9 -8 6 4.49 0.45
8 9 6 3.27 0.48
9 -6 -8 3.98 0.43
-8 -6 -9 3.71 0.35
9 6 8 3.47 0.41
-8 6 9 3.03 0.44
8 6 -9 2.18 0.33
-9 8 6 3.58 0.48
6 -9 8 3.73 0.51
6 9 -8 2.37 0.35
-6 9 8 3.98 0.46
-6 -8 9 2.25 0.36
-6 8 -9 3.63 0.52
-8 9 -6 3.53 0.49
7 8 -9 0.13 0.22
8 -9 7 0.04 0.18
-7 -8 -9 -0.02 0.13
-9 7 8 0.2 0.18
-9 -8 7 0.29 0.23
-9 8 -7 -0.09 0.18
8 9 -7 0.16 0.22
-8 9 7 0.02 0.18
7 9 8 -0.1 0.18
8 -7 -9 0.15 0.16
-7 9 -8 0.1 0.21
9 -8 -7 -0.07 0.14
7 -9 -8 0.23 0.15
-8 -9 -7 0.1 0.14
-7 -9 8 0.07 0.23
9 -7 8 -0.18 0.16
8 7 9 0.08 0.16
9 7 -8 0.06 0.2
9 8 7 0.14 0.17
-9 -7 -8 0 0.12
-8 -7 9 0.06 0.24
-7 8 9 -0.1 0.18
7 -8 9 0.02 0.19
-8 7 -9 0.06 0.18
7 -8 -9 0.02 0.15
-7 8 -9 0.01 0.19
8 -7 9 -0.06 0.18
-7 -9 -8 0 0.14
-8 -9 7 0.14 0.22
-7 -8 9 0.39 0.23
-8 -7 -9 0.2 0.12
8 9 7 0.09 0.18
9 -7 -8 0.15 0.16
8 7 -9 -0.29 0.22
-8 7 9 0.07 0.19
9 7 8 0.07 0.16
9 -8 7 0.08 0.17
9 8 -7 0.1 0.23
-8 9 -7 -0.13 0.2
-9 -8 -7 0.18 0.13
-7 9 8 0.11 0.18
7 8 9 0.04 0.17
8 -9 -7 -0.08 0.14
7 9 -8 -0.21 0.21
-9 8 7 0.1 0.18
-9 -7 8 0.03 0.23
-9 7 -8 0.2 0.19
7 -9 8 0.33 0.19
-9 -8 -8 -0.1 0.13
-8 9 -8 -0.13 0.2
-8 9 8 -0.13 0.18
8 -9 -8 -0.11 0.15
8 -9 8 -0.25 0.17
8 -8 -9 -0.17 0.14
8 -8 9 0.01 0.18
8 8 -9 -0.36 0.22
8 8 9 -0.05 0.16
8 9 -8 0.14 0.22
8 9 8 -0.13 0.18
9 -8 -8 -0.05 0.15
9 -8 8 0.02 0.17
9 8 -8 -0.08 0.2
9 8 8 -0.12 0.17
-8 -9 -8 -0.16 0.14
-8 -9 8 -0.24 0.22
-8 -8 -9 -0.01 0.13
-8 -8 9 0.02 0.23
-8 8 -9 -0.08 0.19
-8 8 9 0.04 0.18
-9 8 8 -0.33 0.18
-9 8 -8 -0.14 0.19
-9 -8 8 -0.16 0.23
0 9 9 53.1 3.68
0 9 -9 48.29 3.7
9 9 0 48.28 3.68
0 -9 -9 49.35 3.67
9 -9 0 49.68 3.67
9 0 9 46.28 3.65
9 0 9 42.95 3.64
-9 -9 0 49.77 3.68
-9 0 9 44.07 3.69
-9 0 9 44.39 3.67
-9 9 0 52.61 3.68
0 -9 9 49.63 3.7
-1 9 9 0.32 0.21
-1 9 -9 0.1 0.23
-9 9 1 -0.3 0.21
-1 -9 -9 0.35 0.16
-1 -9 9 -0.14 0.23
-9 1 9 -0.19 0.17
-9 9 -1 -0.38 0.2
-9 -9 -1 -0.22 0.21
-9 -9 1 -0.5 0.22
-9 -1 9 0.05 0.21
-9 1 9 -0.36 0.21
1 9 9 0.04 0.21
9 -9 -1 -0.01 0.17
9 -9 1 -0.16 0.18
9 -1 9 0.16 0.13
9 -1 9 -0.05 0.08
9 1 9 -0.29 0.11
9 1 9 -0.07 0.09
9 9 -1 -0.18 0.23
9 9 1 -0.21 0.22
1 9 -9 0.32 0.25
1 -9 9 0.13 0.24
1 -9 -9 0.65 0.18
-2 9 9 16.93 1.37
2 -9 9 17.08 1.41
2 9 -9 16.65 1.41
2 9 9 16.77 1.37
9 -9 -2 19.18 1.36
9 -9 2 16.76 1.36
9 -2 9 17.95 1.33
9 2 -9 15.6 1.38
9 2 9 16.5 1.31
9 2 9 17.01 1.31
9 9 -2 17.85 1.4
9 9 2 17.22 1.39
-9 2 9 16.27 1.35
-9 9 -2 16.24 1.38
-9 9 2 17.19 1.38
-2 -9 -9 18.85 1.35
-2 -9 9 16.28 1.41
-2 9 -9 17.49 1.4
-9 -9 -2 17.05 1.38
-9 -9 2 17.23 1.4
-9 -2 9 15.72 1.41
-9 2 -9 16.14 1.31
-9 2 9 16.11 1.38
9 9 3 -0.25 0.19
-9 9 -3 -0.28 0.21
-9 -9 -3 -0.17 0.18
-9 -9 3 0.06 0.22
-9 -3 9 -0.13 0.23
-9 3 -9 -0.03 0.12
-9 3 9 0 0.2
-9 3 9 0.2 0.16
9 -9 3 -0.08 0.17
9 -3 9 -0.27 0.14
9 3 -9 -0.08 0.21
9 3 9 -0.17 0.1
9 3 9 -0.25 0.11
9 9 -3 -0.33 0.22
3 9 -9 -0.15 0.22
3 9 9 -0.06 0.18
9 -9 -3 -0.47 0.17
-9 9 3 -0.12 0.19
-3 -9 -9 -0.06 0.16
-3 -9 9 -0.24 0.24
-3 9 -9 -0.21 0.23
-3 9 9 0.18 0.19
3 -9 -9 -0.26 0.16
3 -9 9 -0.22 0.23
9 -9 -4 -0.04 0.15
9 -9 4 -0.24 0.17
9 -4 9 0.03 0.16
4 9 9 -0.14 0.18
4 9 -9 -0.2 0.25
-9 -4 9 -0.09 0.21
-9 4 -9 0 0.14
-9 4 9 0.18 0.17
-9 9 -4 -0.17 0.19
-9 9 4 0.14 0.19
-4 -9 -9 0 0.15
-4 -9 9 -0.51 0.24
-4 9 -9 -0.31 0.22
-4 9 9 -0.25 0.19
4 -9 -9 0.06 0.16
4 -9 9 -0.19 0.2
-9 -9 -4 0.19 0.17
-9 -9 4 -0.01 0.23
-9 -4 -9 0.09 0.09
9 9 4 0.08 0.19
9 4 -9 -0.38 0.2
9 4 9 -0.03 0.12
9 9 -4 -0.09 0.22
-9 5 -9 0.02 0.16
-5 -9 9 -0.08 0.24
-5 9 -9 -0.13 0.21
-5 9 9 0.04 0.19
5 -9 -9 -0.08 0.15
5 -9 9 -0.4 0.21
5 9 -9 -0.5 0.23
5 9 9 -0.04 0.18
9 -9 -5 -0.09 0.16
9 -9 5 -0.06 0.18
9 -5 -9 -0.12 0.15
9 -5 9 -0.24 0.16
-9 5 9 -0.21 0.17
-9 9 -5 -0.23 0.2
-9 9 5 0 0.2
-5 -9 -9 -0.06 0.15
-9 -9 -5 -0.11 0.16
-9 -9 5 -0.01 0.22
-9 -5 -9 -0.1 0.1
-9 -5 9 -0.39 0.22
9 9 5 -0.22 0.19
9 5 -9 -0.01 0.21
9 5 9 -0.26 0.14
9 9 -5 -0.12 0.22
-6 9 9 0.14 0.19
9 -9 -6 0.25 0.15
9 -9 6 0.03 0.18
9 -6 -9 -0.03 0.14
9 -6 9 -0.06 0.17
9 6 -9 -0.09 0.21
9 6 9 0 0.15
9 9 -6 -0.14 0.2
9 9 6 -0.02 0.19
-6 -9 -9 -0.1 0.15
-6 -9 9 -0.05 0.24
-6 9 -9 -0.05 0.21
6 -9 -9 -0.14 0.16
6 -9 9 -0.02 0.2
6 9 -9 -0.02 0.22
6 9 9 -0.11 0.18
-9 -9 -6 -0.19 0.15
-9 -9 6 -0.06 0.22
-9 -6 -9 -0.17 0.1
-9 -6 9 -0.32 0.22
-9 6 -9 0.13 0.17
-9 6 9 0.14 0.17
-9 9 -6 -0.05 0.2
-9 9 6 -0.12 0.18
9 -7 -9 -0.05 0.14
9 -7 9 -0.03 0.17
9 7 -9 -0.03 0.22
-9 7 9 0.04 0.18
-9 9 -7 -0.09 0.2
-9 9 7 0.16 0.18
-7 -9 -9 0.08 0.14
-7 -9 9 -0.16 0.22
-7 9 -9 -0.15 0.2
-7 9 9 -0.19 0.19
7 -9 -9 -0.05 0.15
7 -9 9 0.08 0.19
7 9 -9 0.22 0.21
7 9 9 -0.23 0.17
9 -9 -7 -0.13 0.14
9 -9 7 0 0.17
-9 -9 -7 0.02 0.14
-9 -9 7 -0.15 0.23
-9 -7 -9 -0.06 0.11
-9 -7 9 -0.09 0.22
-9 7 -9 0 0.18
9 9 7 -0.17 0.19
9 7 9 -0.06 0.16
9 9 -7 -0.12 0.22
9 -9 -8 -0.1 0.15
9 8 -9 -0.18 0.21
9 8 9 0.05 0.17
9 9 -8 -0.27 0.22
9 9 8 -0.17 0.17
8 9 9 -0.03 0.18
-8 9 -9 -0.26 0.21
-8 9 9 0.12 0.18
8 -9 -9 0.01 0.15
8 -9 9 -0.08 0.18
8 9 -9 0.01 0.23
-9 9 -8 -0.04 0.2
-9 9 8 -0.02 0.18
9 -9 8 -0.15 0.18
9 -8 -9 -0.08 0.14
9 -8 9 -0.15 0.18
-9 -9 -8 -0.09 0.14
-9 -9 8 0.06 0.23
-9 -8 -9 -0.1 0.12
-9 -8 9 -0.09 0.21
-9 8 -9 0.02 0.19
-9 8 9 -0.1 0.17
-8 -9 9 0.16 0.21
-8 -9 -9 -0.21 0.13
-9 9 9 -0.12 0.19
-9 -9 -9 -0.21 0.13
-9 -9 9 -0.19 0.23
-9 9 -9 -0.08 0.21
9 -9 9 0.14 0.18
9 9 -9 0.06 0.23
9 9 9 -0.19 0.18
9 -9 -9 -0.01 0.14
-10 0 0 51.01 3.93
-10 0 0 50.97 3.92
0 -10 0 53.22 3.95
0 0 10 51.09 3.95
0 10 0 52.93 3.95
-10 0 -1 0.41 0.11
-10 0 -1 0.52 0.09
-10 0 1 0.33 0.14
-10 0 1 0.29 0.11
-1 -10 0 0.42 0.19
-1 10 0 0.6 0.22
0 -1 10 0.42 0.18
0 1 -10 0.79 0.17
0 1 10 0.51 0.17
0 1 10 0.38 0.14
1 -10 0 0.32 0.2
1 10 0 0.65 0.23
-10 -1 0 0.74 0.13
-10 1 0 0.56 0.12
-10 1 0 0.38 0.11
-1 0 10 0.36 0.18
0 -10 -1 0.78 0.21
0 -10 1 0.73 0.21
0 10 -1 0.49 0.22
0 10 1 0.69 0.22
1 0 10 0.41 0.18
-10 1 1 8.2 0.67
-1 -10 -1 8.69 0.76
-10 -1 1 8.39 0.71
-1 -1 10 8.72 0.78
-1 1 -10 8.72 0.75
-1 1 10 8.08 0.75
-1 1 10 7.68 0.7
-1 10 -1 7.98 0.8
-10 1 -1 8 0.67
-10 1 -1 7.98 0.66
-10 1 1 8.53 0.7
-10 -1 -1 7.83 0.68
-1 -10 1 8.55 0.78
1 10 1 8.21 0.79
1 1 10 8.44 0.74
1 10 -1 8.03 0.79
1 -10 1 8.45 0.76
1 -1 10 8.8 0.77
-1 10 1 8.21 0.78
1 -10 -1 8.4 0.76
1 1 10 8.22 0.7
1 1 -10 8.85 0.75
0 -10 -2 15.15 1.25
0 -10 2 14.48 1.26
10 2 0 15.58 1.2
2 0 10 17.1 1.23
-10 0 2 17.26 1.22
-10 0 2 14.77 1.19
0 2 10 13.82 1.21
2 -10 0 14.55 1.25
0 2 10 15.76 1.24
-10 0 -2 16.25 1.18
-10 0 -2 14.08 1.17
2 10 0 14.68 1.27
-2 0 10 16.97 1.26
0 10 2 15.11 1.27
0 -2 10 16.34 1.26
-10 -2 0 15.23 1.21
-10 2 0 14.43 1.19
-2 -10 0 15.09 1.26
-2 10 0 14.91 1.26
0 10 -2 16.3 1.27
0 2 -10 15.73 1.25
-1 -10 2 18.65 1.46
10 2 1 17.99 1.4
1 -2 10 18.94 1.45
-10 -1 -2 18.3 1.39
-1 10 -2 18.24 1.47
2 10 -1 18.56 1.47
-2 -10 -1 18.34 1.45
-10 1 2 18.59 1.42
-2 1 -10 18.16 1.44
1 2 -10 18.48 1.45
2 1 10 17.95 1.41
1 -10 -2 18.13 1.45
-10 -1 -2 17.41 1.38
-10 -2 1 17.71 1.42
-10 2 -1 18.18 1.4
2 -10 1 18.87 1.45
-2 -1 10 19 1.45
-1 2 10 18.11 1.45
-1 2 10 17.61 1.42
-10 1 2 17.4 1.4
1 10 2 19.03 1.46
2 1 10 17.93 1.43
-2 10 1 17.6 1.46
1 2 10 18.25 1.44
-1 10 2 18.37 1.46
10 2 -1 17.96 1.41
-10 -1 2 18.84 1.43
-10 1 -2 17.84 1.39
-10 2 1 17.57 1.4
1 2 10 17.42 1.41
2 10 1 18.16 1.47
-1 -2 10 18.81 1.47
-2 1 10 18.07 1.45
-2 1 10 17.63 1.42
10 -2 1 17.32 1.39
-2 10 -1 18.72 1.46
-2 -10 1 17.5 1.46
-1 -10 -2 18.55 1.45
2 -10 -1 19.63 1.45
-1 2 -10 18.47 1.44
2 -1 10 18.17 1.44
-10 -2 -1 18.67 1.41
-10 1 -2 18.12 1.39
2 1 -10 18.49 1.45
1 10 -2 18.15 1.47
1 -10 2 18.28 1.46
-2 2 -10 11.18 0.92
2 2 -10 10.79 0.95
-10 -2 -2 11.46 0.86
2 10 2 11.84 0.95
2 -10 2 9.86 0.94
-2 2 10 10.64 0.92
2 -10 -2 11.56 0.92
10 -2 2 10.52 0.84
2 -2 10 10.95 0.92
2 2 10 10.46 0.91
-2 -10 -2 9.63 0.93
-2 2 10 10.52 0.9
-2 10 -2 11.09 0.96
-2 10 2 10.74 0.95
10 2 -2 10.15 0.89
10 2 2 11.23 0.85
2 2 10 10.34 0.88
-2 -10 2 10.94 0.95
-10 -2 2 11.95 0.9
-10 2 -2 10.72 0.85
-2 -2 10 11.66 0.94
2 10 -2 11.66 0.96
-10 2 2 11.09 0.88
0 -3 10 0.03 0.18
0 3 -10 0.12 0.18
-10 0 3 -0.07 0.11
-10 -3 0 -0.15 0.14
-10 3 0 -0.19 0.12
-3 0 10 -0.21 0.19
0 -10 -3 -0.3 0.17
0 -10 3 0 0.2
0 10 -3 0.04 0.22
0 10 3 -0.33 0.19
3 0 10 -0.09 0.16
10 -3 0 0.08 0.1
-10 0 3 0.23 0.15
-3 -10 0 -0.26 0.2
-3 10 0 -0.47 0.22
0 3 10 -0.2 0.14
3 -10 0 -0.24 0.19
10 3 0 -0.09 0.13
3 10 0 -0.4 0.21
-3 -10 -1 1.5 0.23
10 -3 -1 1.23 0.14
-10 1 3 1.11 0.16
10 3 1 1.22 0.15
-3 -1 10 0.87 0.21
-10 1 3 1.04 0.17
-1 -10 3 0.99 0.25
1 -10 -3 1.19 0.2
1 -3 10 1.1 0.21
1 10 3 1.16 0.24
-1 3 10 1.32 0.18
-1 10 -3 1.29 0.25
-3 1 -10 0.9 0.18
1 3 -10 1.05 0.21
-10 -3 1 1.23 0.18
3 1 10 1.32 0.19
3 -10 1 1.15 0.22
-10 3 -1 0.93 0.15
-3 10 1 1.15 0.24
3 1 10 0.98 0.15
3 10 -1 0.75 0.23
3 10 1 1.08 0.24
1 3 10 0.88 0.17
-1 10 3 1.16 0.24
1 -10 3 1.21 0.24
10 -3 1 1.07 0.13
10 3 -1 1.31 0.17
-10 1 -3 1.39 0.19
-3 -10 1 0.95 0.23
-3 10 -1 1 0.25
-10 -1 3 0.94 0.18
-10 1 -3 1.17 0.11
-3 1 10 1.05 0.21
-3 1 10 1.12 0.18
-1 -10 -3 1.21 0.21
-1 -3 10 1.27 0.22
1 10 -3 1.03 0.25
-1 3 -10 1.22 0.21
3 1 -10 0.54 0.2
-10 3 1 1.33 0.16
3 -10 -1 1.16 0.22
-10 -3 -1 1.11 0.16
3 -1 10 1.15 0.2
-2 3 10 8.29 0.69
-3 2 -10 7.42 0.71
2 3 -10 7.86 0.75
-3 -10 -2 7.76 0.74
-2 -10 3 7.78 0.76
-10 -2 -3 6.84 0.61
-3 10 2 7.73 0.75
10 -2 3 7.21 0.61
10 2 -3 8.17 0.69
3 -10 2 7.42 0.73
3 10 -2 7.44 0.76
-10 -3 2 6.56 0.69
10 -3 -2 7.36 0.65
3 2 10 8.05 0.69
-3 -2 10 8.13 0.75
-2 10 -3 7.22 0.76
2 -10 -3 7.28 0.72
2 10 3 6.98 0.75
-10 3 -2 8.85 0.65
3 2 10 7.63 0.66
2 -3 10 7.96 0.74
10 3 2 7.88 0.64
3 10 2 8.46 0.74
2 3 10 7.65 0.66
10 3 -2 7.89 0.69
10 -3 2 8.31 0.62
2 10 -3 8.04 0.78
10 2 3 8.18 0.61
3 2 -10 7.62 0.74
-10 -3 -2 7.42 0.64
3 -2 10 8.06 0.71
-2 10 3 8.07 0.75
-10 3 2 9.12 0.66
2 -10 3 7.58 0.74
-3 -10 2 7.36 0.76
-3 10 -2 7.69 0.76
-2 3 -10 8.62 0.72
-10 -2 3 7.3 0.69
-10 2 -3 7.78 0.62
-3 2 10 7.84 0.73
3 -10 -2 7.29 0.72
-2 -3 10 8.1 0.76
-2 -10 -3 6.86 0.72
-3 2 10 7.65 0.68
3 10 -3 0.97 0.24
3 -10 -3 0.61 0.18
3 10 3 0.79 0.23
10 -3 -3 0.67 0.14
10 -3 3 0.96 0.11
10 3 -3 0.83 0.18
10 3 3 0.71 0.12
-3 -10 -3 0.53 0.2
-3 3 10 0.85 0.18
-10 -3 3 0.78 0.17
3 3 10 0.64 0.15
-3 10 -3 0.87 0.23
-3 10 3 1.1 0.24
3 -10 3 0.62 0.22
3 -3 10 0.76 0.19
3 3 -10 0.84 0.22
-3 -10 3 0.7 0.22
-3 -3 10 0.72 0.23
-3 3 -10 1.12 0.18
-10 3 -3 0.76 0.13
-10 -3 -3 0.67 0.12
-10 3 3 0.77 0.15
0 -10 4 17.15 1.43
4 -10 0 16.84 1.4
0 -10 -4 17.17 1.4
-4 10 0 17.73 1.42
-4 0 10 18.08 1.42
-10 4 0 17.49 1.37
4 10 0 16.91 1.42
0 4 -10 17.42 1.41
-10 -4 0 18.23 1.38
0 4 10 17.33 1.38
-4 -10 0 17.13 1.41
0 -4 -10 17.23 1.37
0 -4 10 18.23 1.43
0 10 4 17.57 1.42
0 10 -4 17.13 1.44
4 0 10 17.52 1.38
4 0 10 16.94 1.36
10 -4 0 17.56 1.36
10 4 0 17.79 1.38
-10 0 4 18.24 1.36
-10 0 4 18.75 1.39
-1 -10 4 17.14 1.34
-1 4 10 16.02 1.29
-4 -10 -1 15.77 1.32
-4 10 1 17.65 1.33
-10 1 4 16.32 1.27
-1 10 -4 15.66 1.34
4 -10 1 15.63 1.32
4 10 -1 16.76 1.33
-10 1 4 15.11 1.29
-4 1 -10 17.97 1.29
-1 -4 -10 15.26 1.28
4 1 10 16.83 1.27
4 1 10 17.08 1.29
1 4 -10 15.52 1.32
-10 -4 1 15.27 1.29
-10 4 -1 16.13 1.27
10 -4 -1 16.06 1.27
-4 -1 10 17.47 1.34
1 -10 -4 16.19 1.3
1 -4 10 15.98 1.32
10 4 1 16.65 1.28
1 10 4 15.02 1.32
1 -4 -10 15.17 1.28
4 10 1 15.3 1.33
10 -4 1 17.24 1.26
-1 4 -10 16.31 1.33
-4 1 10 17.11 1.29
-10 -4 -1 16.37 1.28
1 4 10 16.66 1.29
-10 -1 4 15.75 1.3
-4 -10 1 16.49 1.33
-4 1 10 16.23 1.32
-1 -10 -4 15.39 1.31
4 -10 -1 16.25 1.3
4 -1 10 17.89 1.3
-4 10 -1 17.64 1.33
-10 4 1 18.34 1.28
1 -10 4 15.74 1.33
1 10 -4 15.93 1.34
-1 10 4 15.67 1.33
4 1 -10 17.02 1.32
-1 -4 10 14.87 1.33
10 4 -1 15.8 1.29
2 4 -10 -0.16 0.19
2 10 4 -0.11 0.2
4 10 -2 0 0.23
2 -10 -4 -0.25 0.18
-2 4 10 -0.09 0.15
-10 2 4 -0.03 0.15
-10 2 4 -0.07 0.13
-4 -10 -2 0.27 0.18
4 2 10 0.06 0.12
10 -4 -2 0.1 0.12
-4 10 2 -0.06 0.19
-2 -4 -10 -0.04 0.12
-2 10 -4 -0.03 0.22
-2 -10 4 -0.3 0.2
4 -10 2 -0.08 0.19
10 -2 4 0.09 0.06
-10 -4 2 0.06 0.16
-10 4 -2 0.1 0.12
4 2 10 -0.03 0.14
-4 2 -10 -0.16 0.15
-4 -2 10 0.74 0.2
10 4 2 -0.12 0.13
2 -4 10 0.05 0.19
10 2 -4 -0.04 0.17
-2 10 4 -0.15 0.2
-10 -4 -2 -0.07 0.13
-4 10 -2 -0.02 0.21
-2 -10 -4 0.08 0.17
10 -4 2 -0.04 0.1
4 -2 10 -0.02 0.16
-10 -2 4 0.06 0.16
2 -4 -10 0.09 0.14
4 -10 -2 -0.06 0.17
10 4 -2 -0.06 0.15
-10 2 -4 0.06 0.09
2 4 10 -0.12 0.14
2 10 -4 -0.04 0.23
4 10 2 -0.2 0.22
-2 4 -10 -0.11 0.18
-4 -10 2 -0.09 0.22
-10 4 2 -0.3 0.13
4 2 -10 -0.02 0.2
2 -10 4 0.19 0.2
-2 -4 10 -0.03 0.21
-4 2 10 0.02 0.15
-4 2 10 0.12 0.17
3 10 4 0 0.21
-10 -3 -4 -0.01 0.08
3 -4 10 0.06 0.19
-10 -4 3 -0.23 0.16
-3 -10 4 -0.14 0.22
-10 3 4 -0.22 0.13
4 -10 3 -0.16 0.19
4 10 -3 -0.02 0.22
4 3 10 0.01 0.13
10 -4 -3 -0.09 0.12
-4 3 -10 -0.09 0.16
-3 4 10 -0.27 0.15
10 -3 4 -0.01 0.08
-3 10 -4 0.05 0.22
3 -10 -4 0.14 0.18
-4 -10 -3 0.09 0.19
-3 -4 -10 -0.07 0.12
-4 10 3 -0.3 0.2
-10 4 -3 -0.08 0.12
3 4 -10 -0.15 0.2
-4 -3 10 -0.08 0.21
10 3 -4 -0.07 0.17
10 4 3 -0.15 0.12
-10 4 3 0.09 0.14
-3 10 4 -0.37 0.2
4 -10 -3 0.07 0.19
10 3 4 0.04 0.08
-3 4 -10 -0.06 0.18
-10 3 -4 0.02 0.11
-10 -4 -3 -0.13 0.12
10 4 -3 -0.07 0.17
-4 3 10 0.02 0.14
-10 -3 4 -0.19 0.16
-4 -10 3 -0.13 0.21
4 -3 10 0.13 0.18
4 3 -10 -0.21 0.2
4 10 3 -0.12 0.21
10 -3 -4 0.12 0.12
3 -10 4 -0.11 0.2
-3 -10 -4 0.03 0.17
3 -4 -10 -0.04 0.15
3 4 10 -0.02 0.14
-4 10 -3 -0.01 0.2
3 10 -4 -0.12 0.23
-3 -4 10 -0.03 0.2
10 -4 3 -0.01 0.1
4 -10 -4 18.06 1.42
-10 4 -4 17.25 1.39
-10 -4 4 17.15 1.43
-10 4 4 17.61 1.4
4 10 4 17.59 1.45
4 -10 4 17 1.44
4 -4 -10 17.89 1.41
10 4 4 18.36 1.39
4 4 -10 18.58 1.45
-4 4 -10 19.69 1.43
-10 -4 -4 17.51 1.38
10 -4 -4 18.37 1.4
10 -4 4 17.2 1.38
10 4 -4 18.56 1.43
-4 -10 -4 18.1 1.43
-4 -10 4 18.03 1.45
-4 -4 -10 17.59 1.39
-4 -4 10 19.11 1.46
4 4 10 17.81 1.4
4 10 -4 18.24 1.46
-4 4 10 17.83 1.41
-4 10 4 16.89 1.44
4 -4 10 19.1 1.44
-4 10 -4 17.88 1.44
5 10 0 -0.16 0.22
-5 -10 0 -0.04 0.2
0 -5 -10 0.13 0.14
-10 0 5 -0.14 0.12
-10 5 0 0.05 0.13
-5 0 10 -0.02 0.2
0 -10 -5 0.03 0.18
0 -10 5 -0.22 0.22
0 10 -5 -0.12 0.22
-5 10 0 -0.34 0.21
0 5 10 0.09 0.15
5 -10 0 -0.02 0.19
5 0 10 -0.09 0.1
10 -5 0 0.05 0.12
10 5 0 -0.1 0.15
-10 -5 0 0.18 0.17
0 5 -10 0.04 0.19
-10 0 5 -0.09 0.16
5 0 10 -0.17 0.15
0 -5 10 -0.13 0.2
0 10 5 -0.13 0.2
5 -10 1 0.41 0.2
-1 -10 5 0.74 0.24
1 10 5 0.34 0.2
-1 -5 -10 0.76 0.15
1 -10 -5 0.58 0.19
-5 -10 -1 0.6 0.22
-1 5 10 0.7 0.17
-10 5 -1 0.67 0.15
-5 1 -10 0.56 0.15
-1 10 -5 0.83 0.24
-5 -1 10 0.77 0.23
1 -5 10 0.66 0.22
5 1 10 0.71 0.16
5 1 10 0.71 0.13
10 -5 -1 0.67 0.13
1 5 -10 0.48 0.2
-10 1 5 0.62 0.14
5 10 -1 0.47 0.23
-10 -5 1 0.91 0.18
-5 10 1 0.6 0.22
-10 1 5 0.68 0.17
10 5 1 0.63 0.16
-5 1 10 0.76 0.16
1 -5 -10 0.89 0.17
5 -1 10 0.68 0.16
5 1 -10 0.92 0.22
-1 -5 10 0.52 0.23
-1 5 -10 0.48 0.19
10 -5 1 0.54 0.13
10 5 -1 0.71 0.17
-5 -10 1 0.7 0.22
-10 -1 5 0.46 0.18
-5 1 10 1.12 0.21
-1 -10 -5 0.4 0.18
-5 10 -1 0.54 0.22
-1 10 5 0.77 0.22
1 -10 5 0.57 0.22
1 10 -5 0.76 0.25
5 -10 -1 0.59 0.19
1 5 10 0.73 0.16
-10 -5 -1 0.66 0.16
5 10 1 0.3 0.22
-10 5 1 0.56 0.15
5 2 10 0.09 0.13
5 2 10 0.03 0.11
-2 -5 -10 -0.14 0.14
-2 -10 5 -0.15 0.22
10 2 -5 -0.33 0.17
-2 5 10 -0.1 0.16
2 10 5 -0.13 0.21
10 -5 -2 -0.03 0.13
-5 10 2 -0.25 0.19
2 -5 10 -0.31 0.2
2 5 -10 -0.23 0.21
-5 -10 -2 -0.28 0.18
-5 -2 10 -0.11 0.21
-5 2 -10 -0.17 0.14
5 10 -2 -0.17 0.21
2 -10 -5 -0.13 0.17
-10 2 5 0.12 0.16
-10 2 5 0.16 0.13
10 5 2 -0.12 0.14
-10 -5 2 -0.12 0.17
5 -10 2 -0.01 0.18
-10 5 -2 -0.04 0.13
-2 10 -5 -0.29 0.23
2 -10 5 -0.45 0.22
5 -2 10 0.11 0.16
-2 10 5 -0.31 0.21
-2 -10 -5 -0.12 0.17
-10 -5 -2 0.17 0.14
2 5 10 -0.08 0.15
5 -10 -2 -0.11 0.18
5 10 2 -0.09 0.21
5 2 -10 0.25 0.21
-10 -2 5 -0.19 0.17
-5 2 10 0.08 0.15
2 10 -5 -0.1 0.23
-10 5 2 0.1 0.14
-2 5 -10 -0.11 0.18
2 -5 -10 -0.06 0.14
-2 -5 10 -0.06 0.22
-5 -10 2 -0.13 0.21
-5 10 -2 -0.09 0.2
-5 2 10 0.23 0.19
-10 2 -5 0.01 0.08
10 5 -2 -0.11 0.17
10 -5 2 -0.1 0.11
10 5 3 0.56 0.15
3 -10 -5 0.84 0.19
10 -3 5 0.69 0.1
-3 -5 -10 0.77 0.15
5 -10 3 0.68 0.21
-10 5 -3 0.74 0.15
-5 3 -10 0.55 0.17
-3 -10 5 0.69 0.24
-3 10 -5 0.67 0.24
-10 -3 -5 0.74 0.09
3 10 5 0.94 0.22
-5 -10 -3 0.77 0.2
3 -5 10 0.74 0.21
10 3 -5 0.45 0.19
-10 3 5 0.79 0.15
5 10 -3 0.5 0.24
-5 -3 10 0.36 0.23
5 3 10 0.72 0.14
10 -5 -3 0.52 0.14
-3 5 10 0.84 0.19
-10 -5 3 0.6 0.19
-5 10 3 0.59 0.2
3 5 -10 0.48 0.22
3 -10 5 1.07 0.22
-3 -5 10 0.75 0.22
-3 5 -10 0.71 0.19
3 -5 -10 0.56 0.15
3 10 -5 0.73 0.23
-3 10 5 0.63 0.21
5 3 -10 0.67 0.21
-5 10 -3 0.49 0.22
5 10 3 0.81 0.22
10 3 5 0.75 0.1
-10 -5 -3 0.53 0.15
-10 -3 5 0.54 0.19
-10 3 -5 0.78 0.12
5 -3 10 0.65 0.18
3 5 10 0.83 0.16
5 -10 -3 0.63 0.18
10 -5 3 0.5 0.13
-5 3 10 0.47 0.16
-5 -10 3 0.84 0.24
-10 5 3 0.61 0.15
10 5 -3 0.57 0.18
-3 -10 -5 1.08 0.19
5 10 -4 1.71 0.27
-4 5 10 1.94 0.22
-5 -10 -4 1.83 0.24
4 -10 -5 1.8 0.23
4 10 5 2.14 0.26
5 -10 4 1.43 0.25
5 4 10 2.4 0.33
4 -5 10 1.72 0.25
4 5 -10 2.06 0.25
10 5 4 1.53 0.2
-10 5 -4 1.64 0.21
10 -5 -4 2.7 0.35
-4 -10 5 2.03 0.29
-5 -4 10 1.47 0.27
-5 4 -10 1.86 0.23
10 4 -5 1.71 0.24
-10 -5 4 1.98 0.25
-10 4 5 1.39 0.2
-4 -5 -10 2.93 0.32
10 -4 5 2.1 0.27
-4 10 -5 1.87 0.27
-10 -4 -5 2.42 0.24
5 -4 -10 1.59 0.21
-5 10 4 1.58 0.25
-5 -4 -10 1.53 0.18
4 -5 -10 1.64 0.2
5 -4 10 1.52 0.24
4 5 10 2.49 0.35
5 4 -10 1.42 0.27
-10 -4 5 1.87 0.25
-4 5 -10 1.84 0.24
-5 10 -4 1.61 0.27
4 -10 5 2.01 0.26
-4 -10 -5 2.05 0.23
-10 4 -5 2.33 0.32
5 10 4 1.85 0.25
-4 10 5 2.18 0.25
-5 -10 4 1.39 0.27
4 10 -5 1.92 0.3
-10 -5 -4 2.1 0.3
-5 4 10 1.71 0.23
10 -5 4 1.62 0.19
10 5 -4 1.96 0.25
5 -10 -4 1.5 0.23
10 -4 -5 1.92 0.2
-4 -5 10 1.62 0.26
10 4 5 2.1 0.29
-10 5 4 1.72 0.21
5 5 10 1.17 0.18
-5 5 -10 1.18 0.21
-10 -5 -5 1.03 0.14
5 5 -10 1.21 0.23
5 -5 -10 1.17 0.17
5 -5 10 0.94 0.21
5 -10 -5 0.97 0.19
5 -10 5 0.92 0.22
5 10 -5 1.03 0.26
5 10 5 1.25 0.23
-10 -5 5 1.11 0.22
-10 5 -5 1.22 0.18
-10 5 5 1.24 0.18
-5 -10 -5 1.27 0.19
-5 -5 10 1.19 0.25
-5 10 5 1.06 0.21
-5 -5 -10 1.06 0.16
-5 10 -5 1.02 0.24
10 -5 5 1.13 0.15
-5 5 10 1.5 0.21
10 -5 -5 1.56 0.17
-5 -10 5 1.46 0.25
10 5 -5 0.86 0.21
10 5 5 1.07 0.16
-10 0 6 7.43 0.62
-10 -6 0 7.09 0.67
-10 6 0 7.1 0.64
-10 0 6 5.78 0.69
0 6 10 7.69 0.66
0 -6 -10 7.17 0.63
6 0 10 6.91 0.63
-6 0 10 7.51 0.64
0 -10 -6 6.28 0.66
6 0 10 7.14 0.58
-6 -10 0 7.37 0.7
-6 10 0 7.46 0.72
0 10 6 6.9 0.72
0 6 -10 6.29 0.72
10 6 0 6.6 0.67
6 -10 0 7.71 0.66
6 10 0 7.26 0.74
0 10 -6 6.03 0.74
-6 0 10 6.32 0.72
0 -10 6 7.49 0.75
10 -6 0 7.28 0.61
0 -6 10 7.03 0.72
-10 6 -1 9.39 0.81
-10 1 6 9.71 0.79
-10 -6 1 10.02 0.85
-6 -10 -1 9.59 0.87
-1 10 -6 9.86 0.92
6 10 -1 9.14 0.87
-6 10 1 9.4 0.86
1 10 6 9.38 0.86
-6 -1 10 9.32 0.88
10 -6 -1 9.59 0.8
6 1 10 10.02 0.8
1 -10 -6 9.85 0.83
6 -10 1 9.27 0.85
6 1 10 10.38 0.77
-1 -10 6 9.92 0.89
1 6 -10 9.53 0.87
1 -6 10 9.5 0.9
-10 1 6 8.32 0.84
-1 6 10 9.99 0.83
-1 -6 -10 9.2 0.79
10 6 1 10.52 0.83
-1 -10 -6 9.41 0.83
-1 6 -10 9.27 0.87
6 -1 10 9.33 0.81
6 1 -10 9.9 0.88
-10 -6 -1 9.79 0.83
1 -10 6 9.52 0.88
-6 1 10 9.68 0.87
-10 -1 6 9.02 0.85
10 6 -1 9.35 0.85
-6 -10 1 9.73 0.87
-1 -6 10 9.68 0.89
-10 6 1 9.42 0.81
-6 1 10 10.2 0.81
1 6 10 9.18 0.83
6 10 1 10.06 0.86
1 10 -6 9.98 0.9
-1 10 6 9.87 0.86
-6 10 -1 9.7 0.88
1 -6 -10 9.72 0.81
10 -6 1 9.19 0.8
6 -10 -1 10.68 0.85
-6 10 2 -0.27 0.21
6 2 10 -0.03 0.13
10 2 -6 0.07 0.18
10 -6 -2 0.21 0.13
-6 -2 10 0.17 0.23
2 -6 10 -0.03 0.21
-6 2 -10 -0.01 0.14
-10 2 6 0.26 0.14
2 10 6 -0.24 0.2
-10 2 6 0.01 0.16
-6 -10 -2 0.38 0.19
6 2 10 0.11 0.11
-2 -6 -10 0.02 0.13
6 -10 2 -0.14 0.19
-2 -10 6 -0.26 0.22
10 6 2 0.03 0.16
-2 6 10 0.41 0.17
-10 -6 2 0.41 0.19
6 10 -2 -0.01 0.23
2 6 -10 -0.04 0.21
-10 6 -2 0.24 0.15
-2 10 -6 -0.12 0.22
2 -10 -6 -0.07 0.16
-10 -6 -2 -0.05 0.15
-6 2 10 0.06 0.15
-2 -6 10 0.17 0.21
2 10 -6 -0.14 0.24
-6 -10 2 -0.05 0.21
2 -6 -10 -0.02 0.14
-10 2 -6 0.2 0.08
-6 10 -2 -0.1 0.22
2 6 10 0.17 0.16
6 -10 -2 -0.04 0.18
6 2 -10 0.14 0.23
6 -2 10 0.01 0.16
-10 6 2 0.19 0.15
10 -6 2 0.05 0.13
10 6 -2 0.03 0.18
-6 2 10 0.35 0.18
-2 -10 -6 0.16 0.17
-2 10 6 -0.08 0.18
-2 6 -10 0.14 0.2
2 -10 6 -0.08 0.21
6 10 2 0.35 0.21
-10 -2 6 0 0.18
-6 10 3 0.37 0.21
-10 -6 3 0.27 0.2
6 -10 3 0.26 0.19
-3 -6 -10 0.26 0.14
10 -6 -3 0.25 0.14
3 -6 10 0.27 0.21
3 6 -10 0.09 0.22
6 10 -3 -0.06 0.23
-6 -3 10 0.26 0.23
-10 -3 -6 0.41 0.06
3 10 6 0.24 0.21
10 -3 6 0.34 0.1
10 3 -6 0.49 0.2
-3 10 -6 0.2 0.23
10 6 3 0.27 0.16
3 -10 -6 0.37 0.17
-10 3 6 0.26 0.15
-6 -10 -3 0.38 0.18
-10 6 -3 0.15 0.16
-3 -10 6 0.3 0.23
-6 3 -10 0.37 0.15
-3 6 10 0.31 0.18
6 3 10 0.27 0.12
-6 3 10 0.4 0.22
-10 3 -6 0.28 0.11
-6 3 10 0.28 0.15
6 -10 -3 0.48 0.18
-3 10 6 -0.07 0.2
6 10 3 0.15 0.21
10 6 -3 0.33 0.2
-3 -6 10 0.31 0.23
6 -3 10 0.14 0.16
6 3 -10 0.2 0.2
10 3 6 0.38 0.09
3 6 10 0.25 0.16
-6 -10 3 0.42 0.22
-6 10 -3 0.27 0.22
-3 6 -10 0.04 0.2
3 -10 6 0.3 0.22
3 10 -6 0.1 0.23
-10 -6 -3 0.21 0.15
3 -6 -10 0.04 0.15
-10 6 3 0.07 0.15
-10 -3 6 0.55 0.19
-3 -10 -6 0 0.18
10 -6 3 0.2 0.13
-4 6 10 14.95 1.13
6 10 -4 13.7 1.18
-6 -4 10 13.92 1.18
-10 -4 -6 13.45 1.07
10 -4 6 13.44 1.08
-6 10 4 14.62 1.16
6 4 10 13.83 1.1
10 -6 -4 13.74 1.1
-4 10 -6 14.19 1.18
4 -10 -6 14.3 1.13
-10 -6 4 15.57 1.17
-10 6 -4 13.74 1.12
4 6 -10 14.12 1.17
-6 4 -10 13.54 1.13
-4 -10 6 13.8 1.18
4 10 6 13.55 1.14
10 6 4 13.08 1.11
10 4 -6 13.6 1.15
-10 4 6 14.53 1.12
-6 -10 -4 13.86 1.14
4 -6 10 13.75 1.16
6 -10 4 13.84 1.13
-4 -6 -10 13.27 1.1
-4 -6 10 14.19 1.18
-4 6 -10 14.3 1.15
10 4 6 13.24 1.08
10 -6 4 13.49 1.1
-10 -6 -4 13.47 1.1
6 10 4 14.01 1.15
4 6 10 13.92 1.11
6 -4 10 13.27 1.13
-10 -4 6 13.8 1.17
10 -4 -6 14.14 1.1
6 4 -10 14.01 1.17
-10 6 4 14.98 1.12
-6 -4 -10 13.14 1.09
10 6 -4 14.52 1.16
-4 -10 -6 14.5 1.14
4 10 -6 14.77 1.19
4 -6 -10 14.65 1.12
-4 10 6 13.95 1.15
-6 10 -4 14.2 1.17
-6 4 10 13.9 1.13
-6 -10 4 14.35 1.18
6 -10 -4 13.24 1.13
-10 4 -6 13.64 1.1
4 -10 6 13.39 1.15
5 10 6 0.02 0.19
5 -10 -6 -0.15 0.17
5 -6 10 -0.19 0.18
-10 -6 5 -0.01 0.2
-5 -10 6 -0.23 0.23
-5 10 -6 -0.22 0.22
6 -10 5 0.01 0.19
-10 5 6 0.11 0.15
6 5 10 -0.09 0.13
-6 -10 -5 0.25 0.16
5 6 -10 -0.07 0.23
-5 6 10 -0.07 0.16
-10 -5 -6 0.03 0.1
6 10 -5 -0.29 0.23
6 -5 -10 -0.03 0.14
-6 -5 10 -0.05 0.22
-6 10 5 -0.14 0.19
-5 -6 -10 -0.04 0.12
10 -6 -5 -0.02 0.14
10 5 -6 -0.13 0.2
-10 6 -5 -0.09 0.16
10 -5 6 -0.22 0.12
-6 5 -10 -0.16 0.17
10 6 5 -0.15 0.14
-5 -6 10 0.07 0.22
-5 10 6 -0.24 0.2
-10 5 -6 -0.02 0.14
10 -5 -6 -0.09 0.13
6 5 -10 0.07 0.22
-10 -6 -5 0.03 0.12
5 -6 -10 -0.15 0.15
5 6 10 -0.21 0.14
-10 6 5 -0.08 0.16
-6 -5 -10 -0.1 0.12
6 -10 -5 -0.14 0.16
-5 6 -10 -0.15 0.17
6 -5 10 0.04 0.17
10 5 6 -0.12 0.13
-10 -5 6 -0.04 0.21
10 -6 5 -0.23 0.13
10 6 -5 -0.28 0.19
-6 -10 5 -0.29 0.22
-5 -10 -6 -0.18 0.16
6 10 5 -0.04 0.19
5 -10 6 -0.26 0.2
-6 10 -5 -0.29 0.21
-6 5 10 -0.18 0.16
5 10 -6 0.22 0.24
-6 6 -10 4.01 0.51
-10 6 -6 4.06 0.48
-10 -6 6 3.89 0.56
10 -6 6 3.73 0.45
-6 6 10 4.32 0.5
-6 -6 -10 4.13 0.42
6 -10 -6 4.15 0.48
-10 6 6 4.22 0.47
-6 -10 -6 4.39 0.49
-10 -6 -6 4.13 0.41
10 6 -6 4.39 0.55
10 6 6 4.28 0.45
-6 10 -6 4.69 0.58
6 6 10 3.61 0.46
6 10 6 4.48 0.54
10 -6 -6 4.29 0.47
-6 10 6 4.55 0.54
6 6 -10 3.94 0.59
6 10 -6 3.93 0.59
6 -6 10 4.46 0.52
6 -10 6 4.09 0.55
6 -6 -10 4.5 0.46
-10 -7 0 4.24 0.54
-7 0 10 5.27 0.6
10 -7 0 4.87 0.49
0 10 7 4.52 0.57
7 10 0 6.1 0.59
0 -10 7 4.59 0.63
0 10 -7 5.26 0.65
-7 -10 0 4.69 0.61
0 7 -10 6.95 0.6
-10 0 7 3.95 0.48
10 7 0 4.55 0.55
-7 10 0 3.56 0.57
0 -7 -10 5.64 0.5
-7 0 10 4.45 0.51
0 -10 -7 5.94 0.53
-10 0 7 4.38 0.56
7 -10 0 4.86 0.56
7 0 10 4.03 0.49
0 -7 10 5.46 0.63
7 0 10 4.01 0.43
-10 7 0 5.47 0.54
-1 -10 7 -0.59 0.24
7 1 10 -0.15 0.13
10 -7 -1 -0.22 0.14
-7 -10 -1 -0.23 0.2
-10 1 7 -0.42 0.17
-10 1 7 -0.28 0.14
-1 -7 -10 -0.29 0.16
-10 7 -1 -0.16 0.17
7 1 10 -0.2 0.1
-1 10 -7 -0.11 0.24
7 10 -1 -0.28 0.22
1 -7 10 -0.27 0.22
1 7 -10 -0.55 0.23
7 -10 1 -0.31 0.18
1 10 7 -0.32 0.2
1 -10 -7 -0.09 0.18
10 7 1 -0.25 0.18
-7 -1 10 -0.22 0.21
-10 -7 1 -0.06 0.19
-1 7 10 -0.33 0.18
-7 -10 1 -0.65 0.22
-1 -7 10 -0.47 0.23
-1 7 -10 -0.22 0.2
-10 7 1 -0.02 0.16
1 -7 -10 -0.23 0.16
-7 1 10 -0.2 0.2
-7 1 10 -0.28 0.16
10 7 -1 -0.11 0.2
7 -10 -1 -0.31 0.18
-7 10 -1 -0.39 0.22
1 7 10 -0.04 0.18
-10 -1 7 -0.24 0.19
-10 -7 -1 -0.02 0.18
7 -1 10 -0.21 0.14
10 -7 1 -0.21 0.14
-1 10 7 0.15 0.2
1 -10 7 -0.16 0.22
1 10 -7 -0.06 0.23
7 10 1 -0.27 0.21
-1 -10 -7 -0.11 0.17
2 -10 -7 18.3 1.46
-10 7 -2 17.74 1.46
2 -7 10 17.86 1.51
-7 10 2 18.08 1.48
10 7 2 18.99 1.47
10 -2 7 19.01 1.41
-10 -7 2 18.89 1.48
-10 2 7 17.54 1.48
7 2 10 18.9 1.44
7 -10 2 19.18 1.48
10 -7 -2 18.39 1.45
-7 2 -10 18.28 1.44
10 2 -7 17.48 1.47
-7 -2 10 18.69 1.51
-2 10 -7 17.65 1.5
7 10 -2 18.71 1.5
-7 -10 -2 19.17 1.48
-2 -7 -10 18.43 1.45
7 2 10 18.02 1.43
2 7 -10 18.8 1.5
-2 7 10 20.08 1.47
-2 -10 7 19.06 1.51
-10 2 7 17.15 1.44
2 10 7 18.24 1.48
-2 7 -10 18.66 1.49
-7 -10 2 18.71 1.49
-2 -7 10 18.29 1.51
10 -7 2 17.62 1.44
10 7 -2 19.54 1.49
7 -2 10 18.9 1.45
-10 -7 -2 18.51 1.46
-7 2 10 17.4 1.46
-10 -2 7 18.69 1.5
7 -10 -2 18.57 1.47
-10 2 -7 18.68 1.41
-10 7 2 18.22 1.46
-2 -10 -7 18.46 1.46
-7 10 -2 19.14 1.48
-7 2 10 18.62 1.49
2 10 -7 17.81 1.51
7 10 2 19.63 1.49
7 2 -10 18.03 1.49
2 -7 -10 19.28 1.45
-2 10 7 18.49 1.48
2 7 10 18.23 1.46
2 -10 7 18.54 1.5
3 7 -10 4.18 0.59
7 3 10 3.73 0.42
3 -10 -7 3.92 0.49
-3 -7 -10 4.4 0.45
3 10 7 4.83 0.55
-3 7 10 4.15 0.5
-7 10 3 3.9 0.53
10 -3 7 3.52 0.37
10 3 -7 4.19 0.52
7 3 10 3.78 0.4
10 -7 -3 3.8 0.42
-7 -10 -3 4.01 0.5
-10 3 7 4.1 0.44
-10 -7 3 3.56 0.55
-10 7 -3 3.72 0.48
-3 10 -7 3.87 0.58
3 -7 10 4.43 0.53
-7 3 -10 3.35 0.44
10 7 3 3 0.49
-3 -10 7 2.86 0.39
7 10 -3 2.94 0.39
7 -10 3 4.43 0.49
-7 -3 10 4.11 0.59
10 7 -3 3.81 0.53
-7 10 -3 4.69 0.56
3 -10 7 4.21 0.59
-3 -7 10 3.93 0.57
-3 7 -10 2.98 0.38
-10 -3 7 4.59 0.55
7 3 -10 3.66 0.55
7 -3 10 3.84 0.48
3 -7 -10 3.48 0.44
7 10 3 3.82 0.55
10 -7 3 3.63 0.44
-7 3 10 4.07 0.54
10 3 7 2.97 0.35
-10 7 3 4.98 0.49
3 10 -7 4.54 0.61
7 -10 -3 3.67 0.5
-3 10 7 4.68 0.54
-10 3 -7 4.33 0.38
-10 -7 -3 3.73 0.46
-3 -10 -7 4.69 0.46
-7 -10 3 2.76 0.37
-7 3 10 3.99 0.45
3 7 10 3.84 0.48
-4 -10 7 1.3 0.29
-7 4 -10 1.68 0.21
4 -7 10 1.59 0.25
10 -4 7 1.54 0.18
4 7 -10 1.73 0.28
-4 10 -7 1.71 0.27
10 4 -7 1.38 0.24
10 7 4 1.65 0.22
-4 -7 -10 2.39 0.33
-10 -7 4 1.54 0.25
4 -10 -7 2.04 0.23
-7 10 4 1.36 0.24
4 10 7 1.68 0.24
-4 7 10 1.64 0.23
-7 -4 10 1.65 0.27
7 4 10 1.71 0.19
10 -7 -4 2.36 0.33
-10 -4 -7 2.22 0.21
-10 4 7 1.7 0.21
-7 -10 -4 1.78 0.23
7 10 -4 1.24 0.27
-10 7 -4 1.58 0.23
7 -10 4 1.69 0.24
4 -10 7 1.43 0.26
7 10 4 1.3 0.25
-4 7 -10 1.56 0.25
7 -4 10 1.76 0.22
-10 -7 -4 1.49 0.2
7 4 -10 1.54 0.26
10 -7 4 1.24 0.2
-10 -4 7 1.65 0.26
4 10 -7 1.29 0.28
-7 4 10 1.66 0.23
-7 10 -4 1.75 0.26
10 -4 -7 2.52 0.34
-7 -4 -10 1.95 0.27
4 -7 -10 1.6 0.21
-10 4 -7 2.51 0.32
-10 7 4 1.72 0.22
-4 -10 -7 1.89 0.22
-4 10 7 1.37 0.24
10 7 -4 1.48 0.25
4 7 10 1.63 0.22
-7 -10 4 1.18 0.27
-4 -7 10 1.6 0.27
7 -10 -4 1.64 0.22
10 4 7 1.62 0.18
5 -7 10 1.06 0.23
10 -7 -5 0.94 0.17
-7 -5 10 1.07 0.26
10 5 -7 0.92 0.23
-5 7 10 1.57 0.22
7 -10 5 1.43 0.22
5 7 -10 0.99 0.23
-5 -10 7 1.54 0.28
10 -5 7 1.22 0.17
5 -10 -7 1.02 0.19
-10 -5 -7 1.16 0.13
-7 10 5 1.06 0.23
-5 -7 -10 1.28 0.17
-7 5 -10 1.07 0.19
7 10 -5 1.08 0.26
-10 -7 5 1.14 0.24
-7 -10 -5 0.93 0.19
-10 7 -5 1.15 0.2
10 7 5 0.95 0.19
7 5 10 1.28 0.17
7 -5 -10 1.19 0.18
-5 10 -7 1.04 0.24
5 10 7 1.19 0.23
-10 5 7 1.06 0.19
-10 7 5 1.7 0.21
10 5 7 0.9 0.16
-7 -10 5 0.77 0.25
-7 10 -5 0.85 0.23
-5 7 -10 1.09 0.22
10 -5 -7 1.25 0.17
-5 -7 10 0.96 0.25
7 5 -10 1.06 0.22
-7 -5 -10 1.13 0.15
5 -7 -10 1.29 0.18
10 -7 5 1.18 0.18
10 7 -5 0.95 0.23
7 -5 10 1.04 0.21
5 7 10 0.95 0.19
5 -10 7 1.13 0.23
5 10 -7 1.19 0.26
-10 -5 7 0.95 0.24
-7 5 10 0.87 0.19
7 -10 -5 0.95 0.2
-5 -10 -7 1.27 0.19
-10 -7 -5 1.01 0.17
-5 10 7 0.94 0.22
7 10 5 1.18 0.23
-10 5 -7 1.24 0.19
-10 6 7 0.72 0.18
-7 -10 -6 0.43 0.18
10 7 6 0.42 0.17
-10 -6 -7 0.57 0.12
7 -6 -10 0.51 0.16
7 6 10 0.35 0.15
10 -7 -6 0.6 0.15
6 7 -10 0.48 0.23
-10 -7 6 0.76 0.23
-10 7 -6 0.32 0.18
6 -10 -7 0.3 0.16
-6 -10 7 0.46 0.24
10 -6 7 0.62 0.16
-7 -6 10 0.67 0.26
10 6 -7 0.74 0.21
7 -10 6 0.68 0.21
-7 10 6 0.43 0.21
-6 -7 -10 0.39 0.13
-6 7 10 0.58 0.19
6 10 7 0.54 0.2
-7 6 -10 0.38 0.18
6 -7 10 0.6 0.2
7 10 -6 0.56 0.24
-6 10 -7 0.22 0.21
10 -6 -7 0.59 0.16
10 -7 6 0.59 0.16
6 -7 -10 0.38 0.16
-7 6 10 0.48 0.18
-6 10 7 0.77 0.2
-10 -6 7 0.67 0.22
6 10 -7 0.12 0.25
-10 7 6 0.58 0.18
-7 -6 -10 0.43 0.12
7 -10 -6 0.44 0.17
-6 -7 10 0.69 0.24
-6 7 -10 0.54 0.2
6 -10 7 0.26 0.21
10 7 -6 0.17 0.21
-6 -10 -7 0.42 0.16
7 -6 10 0.58 0.19
7 6 -10 0.6 0.23
-10 -7 -6 0.75 0.14
-7 -10 6 0.35 0.24
7 10 6 0.48 0.2
6 7 10 0.21 0.16
-10 6 -7 0.6 0.17
-7 10 -6 0.6 0.22
10 6 7 0.35 0.15
-7 -10 7 -0.02 0.23
-7 10 7 0.17 0.19
-10 7 -7 0.23 0.17
7 7 10 0.2 0.16
-10 7 7 0.2 0.18
7 10 7 0.56 0.21
10 -7 7 0.08 0.16
7 7 -10 0.2 0.22
-7 -10 -7 0.15 0.15
7 -7 -10 0.19 0.16
7 -7 10 0.3 0.18
10 -7 -7 0.34 0.15
-10 -7 7 0.24 0.21
-7 -7 -10 0.3 0.12
-7 7 -10 0.09 0.18
-7 7 10 0.21 0.18
-10 -7 -7 0.1 0.12
10 7 7 0.21 0.16
7 -10 -7 0.38 0.16
7 -10 7 0.28 0.2
10 7 -7 0.33 0.2
-7 10 -7 0.23 0.21
7 10 -7 0.35 0.22
-7 -7 10 0.22 0.23
-10 8 0 6.86 0.7
-10 0 8 6.83 0.73
0 10 8 7.3 0.71
8 0 10 8.35 0.63
8 0 10 8.23 0.59
10 8 0 6.8 0.72
-8 0 10 6.89 0.75
0 -10 8 7.8 0.76
0 10 -8 5.61 0.78
-8 0 10 6.84 0.66
-10 0 8 6.63 0.65
-8 -10 0 7.65 0.73
-8 10 0 6.8 0.75
0 -8 -10 6.52 0.67
0 -8 10 5.58 0.77
0 8 -10 6.61 0.77
0 8 10 7.85 0.69
8 -10 0 7.74 0.71
10 -8 0 7.71 0.66
8 10 0 7.96 0.75
0 -10 -8 5.44 0.7
-10 -8 0 6.97 0.73
-10 1 8 21.9 1.69
10 8 1 21 1.72
-8 -1 10 22.19 1.75
-8 -10 -1 22.45 1.72
-1 -10 8 21.77 1.75
-8 10 1 21.53 1.72
-1 -8 -10 21.52 1.7
8 10 -1 21.7 1.75
10 -1 8 19.91 1.66
1 -10 -8 21.43 1.71
1 -8 10 21.51 1.74
8 -10 1 21.62 1.71
-1 8 10 22.03 1.71
10 -1 8 20.67 1.65
1 8 -10 21.53 1.74
-10 -8 1 21.43 1.72
-10 8 -1 22.53 1.71
10 -8 -1 22.33 1.69
8 1 10 22.36 1.68
8 1 10 21.72 1.66
-10 1 8 22.98 1.72
-1 10 -8 20.25 1.75
1 10 8 22.74 1.72
1 -8 -10 21.38 1.7
-1 -8 10 21.68 1.76
-8 1 10 21.88 1.69
10 -8 1 21.62 1.69
1 10 -8 20.35 1.75
-1 10 8 21.5 1.72
8 -1 10 20.51 1.68
10 8 -1 21.17 1.72
1 -10 8 21.97 1.76
-10 -8 -1 22.99 1.72
-8 10 -1 22.56 1.74
8 10 1 21.55 1.73
-1 -10 -8 21.1 1.7
-8 -10 1 22.75 1.74
1 8 10 22.21 1.71
8 -10 -1 22.24 1.71
-1 8 -10 20.46 1.74
-10 -1 8 23.49 1.73
-10 8 1 22.03 1.71
-8 1 10 22.93 1.73
8 2 10 26.68 2.12
-10 2 8 28.1 2.17
-8 2 -10 27.48 2.12
-2 10 -8 29.21 2.2
-2 -10 8 26.5 2.19
10 8 2 28.08 2.16
-10 2 8 27.42 2.14
2 10 8 28.2 2.16
10 2 -8 26.54 2.16
-8 10 2 27.85 2.16
-2 8 10 28.89 2.15
-10 8 -2 28.35 2.15
10 -2 8 27.73 2.11
-8 -10 -2 28.06 2.16
2 -8 10 28.43 2.18
2 8 -10 27.21 2.18
-2 -8 -10 25.88 2.13
8 10 -2 28.14 2.18
-8 -2 10 26.95 2.18
-10 -8 2 28.54 2.17
10 -8 -2 28.12 2.13
2 -10 -8 27.41 2.14
8 2 10 26.95 2.11
8 -10 2 28.26 2.14
-2 -10 -8 27.75 2.14
8 -2 10 28.15 2.13
-10 8 2 29.16 2.15
-8 -10 2 27.07 2.17
-8 10 -2 29.11 2.17
-2 8 -10 26.83 2.17
2 -8 -10 27.38 2.14
-8 2 10 27.99 2.17
-8 2 10 27.04 2.14
10 2 8 25.7 2.1
10 -8 2 28.2 2.13
-2 10 8 27.89 2.16
-10 -8 -2 27.9 2.15
-2 -8 10 27.25 2.18
-10 2 -8 28.02 2.11
8 10 2 27.17 2.16
8 2 -10 27.3 2.17
10 2 8 27.66 2.1
2 10 -8 27.65 2.19
10 8 -2 28.29 2.17
2 8 10 28.87 2.15
8 -10 -2 28.49 2.15
2 -10 8 27.43 2.17
-10 -2 8 27.66 2.17
8 -10 3 18.09 1.38
8 3 10 16.71 1.32
-10 3 8 18.31 1.35
3 10 8 17.19 1.38
10 3 -8 17.32 1.38
-3 10 -8 16.27 1.41
-3 8 10 17.02 1.37
3 -8 10 16.92 1.39
3 8 -10 17.07 1.42
10 -8 -3 16.97 1.35
8 10 -3 16.65 1.4
-10 -8 3 17.03 1.38
-8 -10 -3 17.45 1.37
-8 10 3 16.82 1.38
-8 -3 10 17.73 1.41
-8 3 -10 17.15 1.34
-3 -8 -10 16.45 1.34
-3 -10 8 16.59 1.42
-10 8 -3 17.07 1.37
10 -3 8 16.78 1.32
-10 3 8 18.01 1.38
10 8 3 17.32 1.37
8 3 10 16.66 1.32
3 -10 -8 16.63 1.36
-10 8 3 17.99 1.38
-10 -3 8 17.77 1.41
-3 10 8 17.6 1.38
-10 -8 -3 16.43 1.36
8 -10 -3 17.14 1.36
8 10 3 17.14 1.38
-8 3 10 17.36 1.39
-8 3 10 16.95 1.35
-3 -10 -8 17.23 1.36
-3 -8 10 16.85 1.43
3 -10 8 18.07 1.4
3 10 -8 17.2 1.41
8 -3 10 16.97 1.35
8 3 -10 17.3 1.39
10 8 -3 16.78 1.4
-8 10 -3 17.75 1.39
-3 8 -10 17.39 1.41
-10 3 -8 17.16 1.32
-8 -10 3 16.36 1.39
3 -8 -10 16.26 1.35
10 -8 3 16.48 1.35
10 3 8 16.32 1.31
3 8 10 15.91 1.37
-10 4 8 0.07 0.16
-10 -8 4 -0.26 0.21
-4 -10 8 -0.42 0.24
4 -8 10 -0.42 0.22
4 8 -10 -0.14 0.24
4 -10 -8 -0.26 0.15
8 -10 4 -0.04 0.19
8 10 -4 -0.43 0.23
10 -4 8 -0.5 0.13
10 4 -8 -0.29 0.21
-8 4 -10 -0.01 0.14
-4 -8 -10 -0.36 0.14
-4 8 10 -0.29 0.18
-8 10 4 0.04 0.19
8 4 10 -0.17 0.13
10 -8 -4 -0.37 0.15
-10 -4 -8 0.02 0.08
-4 10 -8 -0.42 0.22
-8 -4 10 0.25 0.23
-8 -10 -4 -0.18 0.18
-10 8 -4 0.06 0.19
4 10 8 -0.4 0.2
10 8 4 -0.35 0.18
10 -8 4 -0.02 0.15
-8 4 10 0.17 0.18
4 10 -8 -0.41 0.24
8 -10 -4 -0.3 0.17
-4 -8 10 -0.34 0.24
-4 10 8 -0.26 0.22
-4 8 -10 -0.52 0.21
-8 10 -4 -0.14 0.21
10 8 -4 -0.49 0.2
8 -4 10 -0.19 0.17
-8 -10 4 -0.44 0.22
8 4 -10 0.11 0.22
4 8 10 -0.3 0.18
4 -10 8 -0.46 0.22
-10 8 4 -0.23 0.19
-8 -4 -10 0.02 0.1
-10 4 -8 0 0.13
-10 -8 -4 -0.07 0.16
8 10 4 -0.32 0.2
-4 -10 -8 -0.39 0.16
-10 -4 8 -0.35 0.2
4 -8 -10 -0.23 0.16
8 10 -5 15.13 1.29
-5 8 10 15.87 1.23
-8 10 5 14.76 1.24
-5 -8 -10 15.54 1.2
10 8 5 14.32 1.22
-8 5 -10 14.54 1.21
-10 -5 -8 14.1 1.17
8 -5 -10 15.89 1.21
-8 -10 -5 15.27 1.22
-10 -8 5 14.56 1.27
10 5 -8 14.66 1.25
5 -8 10 15 1.25
-8 -5 10 14.95 1.29
8 -10 5 15.58 1.24
8 5 10 15.21 1.19
5 8 -10 15.71 1.27
-10 5 8 15.54 1.22
-5 10 -8 15.54 1.27
-10 8 -5 14.87 1.22
5 -10 -8 15.07 1.22
5 10 8 15.41 1.24
-5 -10 8 14.75 1.27
10 -8 -5 15.08 1.2
10 -5 8 15.17 1.2
10 8 -5 15.94 1.27
8 -5 10 15.07 1.22
-8 10 -5 15.09 1.24
-10 8 5 14.55 1.22
10 -8 5 15.85 1.21
10 5 8 14.97 1.19
-10 5 -8 15.12 1.2
-10 -5 8 15.42 1.26
-8 -10 5 15.08 1.29
8 5 -10 15.23 1.26
8 10 5 15.25 1.25
-5 -10 -8 15.18 1.21
5 -8 -10 15.91 1.21
-8 -5 -10 15.03 1.18
-5 10 8 14.44 1.25
-5 -8 10 15.95 1.3
5 -10 8 14.8 1.24
8 -10 -5 14.12 1.21
-8 5 10 15.57 1.22
-10 -8 -5 15.13 1.2
10 -5 -8 15.23 1.2
-5 8 -10 15.72 1.26
5 8 10 15.2 1.22
5 10 -8 14.59 1.28
10 -8 -6 0.05 0.15
8 -6 -10 0.1 0.14
-10 -8 6 0.09 0.22
-6 -10 8 -0.02 0.22
-8 10 6 0.19 0.19
-6 -8 -10 0.09 0.14
6 -10 -8 0.05 0.15
6 -8 10 0.14 0.2
10 -6 8 -0.05 0.15
6 8 -10 0.17 0.23
-10 -6 -8 0.17 0.1
-8 6 -10 0.06 0.17
-6 10 -8 -0.09 0.23
-8 -10 -6 0.1 0.16
-10 6 8 0.26 0.17
8 6 10 0.1 0.14
-6 8 10 0.25 0.19
10 8 6 0.02 0.17
10 6 -8 0.12 0.21
8 -10 6 0.07 0.18
6 10 8 -0.04 0.2
8 10 -6 0.16 0.22
-10 8 -6 0.42 0.19
-8 -6 10 0.26 0.23
-8 -6 -10 0.12 0.11
-10 -6 8 0.07 0.21
-6 -8 10 0.15 0.23
-8 10 -6 -0.05 0.2
6 -10 8 0.21 0.21
-10 6 -8 0.19 0.16
10 8 -6 0.09 0.22
6 10 -8 0.2 0.23
6 -8 -10 0.04 0.14
10 -6 -8 0.29 0.15
10 6 8 0.13 0.15
10 -8 6 -0.06 0.17
-10 -8 -6 0.28 0.14
-8 -10 6 -0.05 0.22
-8 6 10 0.04 0.17
-6 -10 -8 -0.08 0.16
-10 8 6 0.58 0.18
8 10 6 0.26 0.2
8 6 -10 -0.12 0.21
8 -6 10 0.16 0.17
8 -10 -6 0.21 0.16
-6 10 8 0.11 0.21
6 8 10 0.08 0.17
-6 8 -10 0.17 0.21
7 8 -10 0.99 0.23
-10 -7 -8 0.99 0.15
-7 -8 -10 1.28 0.16
-10 7 8 1.2 0.21
10 -7 8 1.17 0.19
10 8 7 1.03 0.2
-10 8 -7 1.07 0.21
7 -10 -8 1.05 0.18
7 -8 10 0.96 0.22
-8 -7 10 0.77 0.24
8 -7 -10 1.03 0.18
-7 -10 8 0.73 0.25
-7 10 -8 0.93 0.24
8 10 -7 0.82 0.24
8 7 10 1.1 0.18
-8 -10 -7 0.98 0.18
10 -8 -7 1.37 0.18
8 -10 7 0.99 0.22
-8 7 -10 1.15 0.21
-10 -8 7 0.91 0.25
10 7 -8 1.01 0.23
7 10 8 0.93 0.21
-7 8 10 0.98 0.2
-8 10 7 1.15 0.23
10 7 8 1 0.18
-7 -10 -8 0.93 0.18
-8 -7 -10 0.89 0.14
7 8 10 1.1 0.19
-10 -7 8 1.45 0.26
-10 8 7 1.36 0.21
10 -7 -8 1.18 0.18
8 -10 -7 1.33 0.19
-7 10 8 0.79 0.21
8 -7 10 0.86 0.21
8 7 -10 1.5 0.24
10 -8 7 1.07 0.19
7 -10 8 0.98 0.22
7 -8 -10 1.22 0.19
-8 7 10 0.77 0.19
-8 10 -7 0.87 0.23
-10 7 -8 0.89 0.2
7 10 -8 1.13 0.26
-8 -10 7 1.02 0.25
-7 8 -10 1.21 0.22
8 10 7 1.01 0.21
-7 -8 10 0.99 0.26
10 8 -7 1.27 0.24
-10 -8 -7 1.04 0.16
-8 -10 -8 -0.23 0.14
8 -8 -10 -0.21 0.15
-10 -8 -8 -0.06 0.12
8 -10 8 -0.11 0.19
8 10 8 0.1 0.19
10 -8 -8 -0.02 0.14
10 -8 8 -0.11 0.17
10 8 -8 -0.26 0.2
-8 -8 -10 -0.05 0.13
-8 10 8 -0.05 0.18
-8 8 10 0.04 0.18
-8 10 -8 -0.06 0.21
-10 8 -8 -0.23 0.18
8 -8 10 -0.34 0.18
8 8 -10 0.19 0.22
-10 -8 8 -0.15 0.22
8 8 10 -0.03 0.17
8 10 -8 0.1 0.22
-8 -8 10 -0.03 0.22
-8 -10 8 -0.07 0.24
8 -10 -8 -0.14 0.15
-8 8 -10 0.08 0.18
10 8 8 -0.13 0.16
-10 8 8 -0.04 0.18
0 9 10 10.3 0.88
-10 0 9 10.39 0.81
10 -9 0 10.9 0.83
10 9 0 8.82 0.89
0 10 9 9.41 0.9
9 0 10 8.86 0.79
-9 -10 0 9.6 0.89
0 -9 -10 9.83 0.82
0 -9 10 9.58 0.91
0 9 -10 11.2 0.95
-9 10 0 8.74 0.9
0 -10 -9 9.44 0.84
9 0 10 9.06 0.75
-10 0 9 9.32 0.91
-9 0 10 9.23 0.91
-10 -9 0 9.57 0.87
10 0 9 9.13 0.76
10 0 9 9.09 0.74
0 10 -9 9.62 0.95
0 -10 9 9.1 0.92
9 10 0 9.65 0.9
-10 9 0 10.69 0.86
-9 0 10 8.89 0.82
9 -10 0 8.88 0.84
-9 -1 10 1.17 0.26
-9 10 1 1.46 0.25
1 -9 10 0.77 0.28
-10 -9 1 1.48 0.26
-10 9 -1 1.19 0.23
-1 -9 -10 0.6 0.2
9 -10 1 1.14 0.22
9 10 -1 1.01 0.26
10 -1 9 1.08 0.15
-1 10 -9 1.01 0.29
-10 1 9 1.19 0.25
9 1 10 1.15 0.14
1 9 -10 0.97 0.28
-1 -10 9 0.97 0.3
-1 9 10 1.5 0.24
-10 1 9 1.49 0.21
-9 -10 -1 1.17 0.24
1 -10 -9 1.03 0.2
10 9 1 1.26 0.25
10 -9 -1 1.03 0.2
1 10 9 0.61 0.23
9 1 10 1.5 0.16
10 -1 9 1.67 0.19
-9 10 -1 0.9 0.25
-10 -9 -1 1.37 0.24
-1 -10 -9 0.99 0.2
1 -9 -10 1.18 0.2
10 -9 1 1.23 0.2
-1 9 -10 1.22 0.28
-9 1 10 1.41 0.26
9 -1 10 1.72 0.22
-9 -10 1 1.47 0.26
1 10 -9 1.1 0.29
-1 -9 10 0.69 0.27
10 9 -1 1.19 0.26
1 9 10 0.68 0.24
9 -10 -1 1.17 0.21
-1 10 9 0.82 0.25
-9 1 10 1.25 0.2
9 10 1 1.43 0.25
10 1 9 1.32 0.14
9 -1 10 1.4 0.18
1 -10 9 0.92 0.27
-10 -1 9 1.14 0.25
10 1 9 1.05 0.13
-10 9 1 1.19 0.23
-2 10 -9 28.19 2.15
10 -9 -2 28.82 2.11
2 9 -10 28.48 2.16
9 -10 2 27.85 2.11
9 2 10 26.94 2.08
-9 10 2 26.72 2.12
9 10 -2 26.9 2.15
10 -2 9 26.4 2.08
9 2 10 26.5 2.08
2 10 9 29.21 2.13
-2 -9 -10 28.3 2.11
2 -10 -9 27.81 2.11
-2 -10 9 27.51 2.15
10 2 -9 26.59 2.13
2 -9 10 28.12 2.14
10 9 2 24.5 2.12
-2 9 10 28.7 2.12
-10 2 9 26.38 2.13
-10 -9 2 27.11 2.14
-10 9 -2 27.72 2.13
-10 2 9 28.29 2.11
-9 -2 10 26.89 2.15
-9 -10 -2 27.24 2.13
-9 2 -10 27.02 2.08
10 9 -2 26.15 2.13
-2 -9 10 28.92 2.16
-9 10 -2 28.53 2.13
9 10 2 27.71 2.13
10 2 9 25.73 2.07
10 -9 2 27.27 2.11
2 9 10 29.26 2.13
9 -10 -2 27.17 2.11
2 -10 9 27.75 2.14
2 -9 -10 27.56 2.1
-2 10 9 27.38 2.13
-9 -10 2 25.89 2.13
-10 -2 9 25.85 2.14
-2 9 -10 28.4 2.15
2 10 -9 28.01 2.16
-10 9 2 26.83 2.11
9 -2 10 27.27 2.09
-9 2 10 27.05 2.13
-9 2 10 26.44 2.11
-2 -10 -9 27.23 2.11
-10 2 -9 25.6 2.07
10 2 9 25.7 2.07
9 2 -10 26.79 2.13
-10 -9 -2 25.86 2.12
-3 10 -9 5.25 0.59
-9 3 -10 3.3 0.39
-3 -10 9 5.18 0.58
9 3 10 3.91 0.35
-10 3 9 2.35 0.31
-10 -9 3 4.18 0.56
9 3 10 3.05 0.35
3 -9 10 5 0.59
-9 -3 10 3.99 0.58
-10 3 9 3.65 0.43
10 9 3 2.53 0.32
-9 10 3 3.55 0.5
-9 -10 -3 3.54 0.48
-10 9 -3 2.58 0.32
3 10 9 3.42 0.48
10 -9 -3 3.45 0.43
10 3 -9 2.6 0.33
3 9 -10 2.38 0.34
9 10 -3 2.03 0.34
-10 9 3 2.5 0.31
-9 3 10 3.6 0.44
3 -10 9 4.43 0.56
-3 10 9 2.86 0.34
-10 -9 -3 3.42 0.47
-9 3 10 2.43 0.32
10 3 9 3.38 0.32
3 -9 -10 3.66 0.43
-10 -3 9 4.09 0.57
-10 3 -9 3.43 0.35
3 9 10 4.68 0.5
10 -9 3 2.32 0.3
10 9 -3 2.76 0.34
9 10 3 3.58 0.51
-3 -9 10 2.13 0.34
9 -10 -3 2.84 0.44
-9 -10 3 2.54 0.35
3 10 -9 2.83 0.36
-3 9 -10 4.04 0.55
-9 10 -3 3.89 0.52
9 -3 10 4.25 0.42
9 3 -10 2.65 0.33
10 -9 -4 0.31 0.17
4 10 9 0.46 0.2
-9 10 4 0.33 0.2
10 4 -9 0.48 0.22
-4 9 10 0.51 0.21
9 -10 4 0.83 0.21
4 -9 10 0.34 0.23
-4 -9 -10 0.47 0.16
-10 9 -4 0.54 0.21
9 10 -4 0.35 0.24
-4 -10 9 0.48 0.25
9 4 10 0.48 0.14
4 -10 -9 0.8 0.18
10 9 4 0.31 0.2
-9 -10 -4 0.51 0.19
4 9 -10 0.5 0.24
10 -4 9 0.36 0.16
-9 -4 10 0.47 0.25
-9 4 -10 0.48 0.15
-4 10 -9 0.78 0.25
-10 4 9 0.39 0.17
-10 -9 4 0.35 0.24
-9 4 10 0.58 0.19
4 9 10 0.49 0.19
-4 9 -10 0.15 0.23
4 -9 -10 0.57 0.18
4 10 -9 0.46 0.26
-10 -4 9 0.41 0.23
-4 -10 -9 0.65 0.18
-10 -9 -4 0.43 0.18
-9 -10 4 0.14 0.24
-9 10 -4 0.52 0.22
-10 4 -9 0.53 0.14
9 -10 -4 0.39 0.18
9 4 -10 0.89 0.23
-4 -9 10 0.66 0.25
9 10 4 0.56 0.21
10 -9 4 0.31 0.18
10 9 -4 0.29 0.22
4 -10 9 0.23 0.24
-4 10 9 0.71 0.23
9 -4 10 0.68 0.17
-10 9 4 0.65 0.21
10 4 9 0.24 0.13
-5 10 -9 1.9 0.29
-10 5 9 1.85 0.24
5 -10 -9 2.03 0.24
-5 -10 9 1.45 0.29
-9 5 -10 2.72 0.39
5 10 9 1.86 0.26
9 -5 -10 2.77 0.37
5 9 -10 1.45 0.29
-5 -9 -10 1.81 0.22
9 5 10 1.81 0.21
10 -9 -5 2.71 0.37
-5 9 10 3.34 0.44
5 -9 10 1.88 0.27
10 9 5 1.99 0.25
10 -5 9 2.57 0.36
-9 -5 10 2.09 0.3
-10 9 -5 3.55 0.48
-9 -10 -5 1.85 0.24
-9 10 5 1.88 0.26
-10 -9 5 2.01 0.28
10 5 -9 1.85 0.27
9 -10 5 1.98 0.25
9 10 -5 2.03 0.3
10 9 -5 1.97 0.28
-10 -5 9 1.9 0.29
-10 5 -9 3 0.37
-5 10 9 1.66 0.27
9 -10 -5 3.05 0.38
9 10 5 2.13 0.26
5 9 10 1.84 0.25
-10 -9 -5 1.8 0.26
-9 10 -5 2.09 0.28
-5 -10 -9 1.99 0.23
9 5 -10 1.85 0.28
-5 -9 10 1.77 0.29
-5 9 -10 1.58 0.28
10 -9 5 1.8 0.24
5 -10 9 1.64 0.27
5 10 -9 1.52 0.29
-9 -5 -10 2.84 0.28
10 -5 -9 2.64 0.36
9 -5 10 1.87 0.23
-9 -10 5 1.69 0.29
10 5 9 2.6 0.33
-10 9 5 2.1 0.26
-9 5 10 1.89 0.23
5 -9 -10 1.77 0.23
-10 -6 -9 0.27 0.1
-6 -10 9 0.35 0.24
9 -6 -10 -0.03 0.15
9 10 -6 0.39 0.23
6 10 9 -0.1 0.19
-6 10 -9 0.06 0.23
-9 10 6 0.11 0.2
-6 -9 -10 0.21 0.14
6 -9 10 0.1 0.21
6 9 -10 -0.03 0.23
-6 9 10 -0.05 0.19
-10 6 9 0.39 0.17
10 -9 -6 0.06 0.15
-10 -9 6 0.25 0.23
-10 9 -6 -0.14 0.2
10 9 6 -0.03 0.18
-9 -6 10 -0.17 0.22
-9 6 -10 0 0.17
-9 -10 -6 0.45 0.16
6 -10 -9 0.22 0.15
10 -6 9 0.27 0.16
10 6 -9 -0.1 0.21
9 6 10 -0.05 0.15
9 -10 6 0.24 0.19
-9 6 10 0.09 0.16
-9 10 -6 0.02 0.21
-6 10 9 -0.12 0.2
10 -6 -9 0.12 0.15
10 6 9 0.15 0.15
6 10 -9 0.3 0.24
6 9 10 0.09 0.17
9 -10 -6 0.26 0.17
-6 -10 -9 0.14 0.15
9 -6 10 -0.05 0.17
-6 -9 10 -0.16 0.22
-10 -6 9 -0.07 0.23
-10 6 -9 -0.02 0.16
6 -9 -10 0 0.16
9 10 6 0.19 0.2
-9 -10 6 0.21 0.23
-10 9 6 0.09 0.19
-9 -6 -10 0.02 0.11
9 6 -10 0.22 0.22
6 -10 9 0.14 0.21
-10 -9 -6 0.04 0.15
10 -9 6 -0.19 0.18
10 9 -6 0.03 0.22
-6 9 -10 -0.14 0.21
-10 -7 -9 0.14 0.11
-10 -9 7 0.54 0.22
-10 9 -7 0.13 0.2
-10 7 9 0.09 0.18
9 10 -7 0.24 0.21
-9 -7 10 -0.05 0.22
10 9 7 0.07 0.18
9 7 10 0.3 0.16
-7 -10 9 0.57 0.25
7 -9 10 0.02 0.19
7 10 9 0.28 0.19
9 -7 -10 0.26 0.14
7 -10 -9 0.2 0.16
-7 10 -9 0.17 0.22
9 -10 7 0.41 0.18
10 -7 9 0.24 0.17
10 7 -9 0.13 0.2
-7 9 10 0.04 0.19
10 -9 -7 0.12 0.15
-9 10 7 0.12 0.19
-7 -9 -10 0.33 0.14
-9 -10 -7 0.35 0.16
7 9 -10 -0.04 0.24
-9 7 -10 0.21 0.18
9 10 7 0.22 0.19
10 7 9 0.25 0.16
-10 -9 -7 0.18 0.15
7 9 10 0.17 0.18
9 -10 -7 0.21 0.16
-10 9 7 0.25 0.18
-9 -7 -10 0.15 0.11
10 -7 -9 0.17 0.15
-9 10 -7 0.34 0.21
10 -9 7 0.27 0.18
7 -10 9 0.2 0.2
-7 -9 10 0.24 0.23
9 7 -10 0.22 0.22
-7 -10 -9 0.21 0.15
-10 -7 9 0.42 0.22
-10 7 -9 0.17 0.18
-7 10 9 -0.12 0.18
9 -7 10 0.21 0.17
-7 9 -10 0.33 0.21
10 9 -7 0.3 0.22
7 -9 -10 0.39 0.16
7 10 -9 0.1 0.23
-9 -10 7 0.1 0.22
-9 7 10 0.26 0.18
-9 -10 -8 -0.12 0.15
10 -8 9 0.06 0.17
9 -10 8 0.02 0.19
-9 10 8 -0.16 0.18
-9 -8 10 -0.05 0.23
8 9 -10 0.28 0.21
-8 -9 -10 -0.03 0.13
-8 9 10 -0.08 0.18
-10 8 9 -0.05 0.18
-9 8 -10 -0.16 0.18
-8 -10 9 -0.15 0.24
8 -10 -9 0.04 0.15
9 10 -8 -0.02 0.23
-10 -9 8 -0.13 0.21
8 10 9 -0.3 0.18
9 -8 -10 0.03 0.15
10 8 -9 0.2 0.21
-10 9 -8 -0.01 0.2
-10 -8 -9 -0.06 0.12
10 9 8 -0.26 0.18
8 -9 10 -0.11 0.19
9 8 10 -0.02 0.16
10 -9 -8 0.01 0.15
-8 10 -9 -0.26 0.2
-9 10 -8 0.32 0.21
9 8 -10 0.08 0.24
-10 -9 -8 0.09 0.13
-8 10 9 -0.43 0.18
8 10 -9 -0.01 0.22
8 -9 -10 -0.11 0.14
10 9 -8 -0.1 0.21
-10 8 -9 0.03 0.19
10 -9 8 0 0.17
9 -10 -8 -0.11 0.15
-9 -10 8 0.06 0.22
8 9 10 0.04 0.18
9 10 8 -0.06 0.19
10 -8 -9 -0.01 0.16
8 -10 9 -0.08 0.19
-10 -8 9 -0.21 0.22
10 8 9 0.05 0.17
-8 9 -10 0.1 0.21
9 -8 10 -0.26 0.18
-9 8 10 -0.13 0.18
-8 -10 -9 -0.08 0.14
-9 -8 -10 -0.1 0.12
-10 9 8 -0.08 0.18
-8 -9 10 -0.1 0.25
-10 9 -9 0.11 0.2
-10 9 9 -0.04 0.18
-9 -10 -9 -0.13 0.14
-9 -10 9 0.11 0.22
-9 -9 -10 -0.05 0.13
-9 -9 10 0.17 0.23
-9 9 -10 -0.02 0.2
-9 9 10 0.19 0.18
-9 10 -9 -0.16 0.21
-10 -9 -9 0.06 0.13
-10 -9 9 -0.09 0.23
9 -9 10 0.16 0.18
9 9 -10 0.41 0.23
9 9 10 0.05 0.18
9 10 -9 0.12 0.22
9 10 9 -0.13 0.19
10 -9 -9 -0.04 0.15
10 -9 9 0.07 0.18
10 9 -9 0.14 0.22
10 9 9 0.24 0.18
9 -10 9 -0.02 0.19
9 -9 -10 0.09 0.16
9 -10 -9 -0.06 0.15
-9 10 9 0.13 0.18
0 -10 -10 97.17 7.3
10 -10 0 95.74 7.3
10 0 10 97.43 7.29
-10 10 0 96.51 7.31
-10 0 10 91.7 7.3
-10 -10 0 97.5 7.31
-10 0 10 95.97 7.32
0 -10 10 101.59 7.33
0 10 -10 97.1 7.33
0 10 10 98 7.31
10 10 0 97.48 7.32
10 0 10 91.21 7.28
-10 1 10 0.26 0.18
1 -10 10 0.22 0.25
-10 1 10 0.36 0.23
1 10 10 -0.48 0.22
10 1 10 -0.11 0.1
10 10 -1 -0.4 0.24
10 10 1 -0.27 0.23
-10 10 -1 0.1 0.22
-10 10 1 0.62 0.23
1 -10 -10 0.39 0.19
-1 -10 10 0.56 0.26
-1 10 -10 0.13 0.26
-1 10 10 0.82 0.22
10 -1 10 0.23 0.09
10 1 10 -0.02 0.12
-10 -10 1 0.07 0.23
-1 -10 -10 0.76 0.18
1 10 -10 0.61 0.25
-10 -1 10 0.2 0.22
10 -10 -1 -0.17 0.18
10 -10 1 0.55 0.18
10 -1 10 -0.21 0.14
-10 -10 -1 -0.15 0.22
10 -10 -2 0.05 0.18
10 10 -2 0.03 0.24
-10 2 10 -0.21 0.2
-10 2 10 0.11 0.19
2 -10 10 -0.17 0.24
2 10 -10 0.04 0.25
2 10 10 -0.06 0.21
2 -10 -10 -0.36 0.17
10 -10 2 0.05 0.18
10 -2 10 0 0.14
-10 -10 -2 -0.09 0.21
-10 -10 2 -0.13 0.23
-10 -2 10 0.04 0.22
-2 -10 10 -0.1 0.25
-2 10 -10 0.05 0.24
-2 10 10 -0.23 0.22
10 2 -10 0.14 0.22
10 2 10 -0.09 0.11
10 2 10 -0.03 0.11
-2 -10 -10 0.06 0.16
10 10 2 0.09 0.21
-10 10 -2 -0.29 0.22
-10 10 2 0 0.22
10 10 3 -0.19 0.22
10 3 -10 -0.18 0.22
10 3 10 -0.28 0.11
10 3 10 -0.37 0.11
10 10 -3 -0.55 0.22
-10 10 3 -0.35 0.2
-3 -10 -10 -0.43 0.16
-3 -10 10 -0.69 0.26
-3 10 -10 -0.69 0.23
-3 10 10 -0.69 0.21
10 -10 3 -0.07 0.18
10 -3 10 -0.18 0.15
-10 -10 -3 0.03 0.19
-10 -10 3 -0.38 0.24
-10 -3 10 -0.05 0.25
-10 3 -10 -0.12 0.13
-10 3 10 -0.3 0.2
-10 3 10 -0.16 0.17
-10 10 -3 -0.24 0.21
3 -10 -10 -0.45 0.16
3 -10 10 -0.69 0.24
3 10 -10 -0.46 0.25
3 10 10 -0.43 0.19
10 -10 -3 -0.17 0.17
-4 10 10 24.5 1.88
4 -10 -10 24.49 1.86
4 -10 10 23.27 1.89
4 10 -10 24.28 1.92
4 10 10 24.94 1.88
10 -10 -4 25.09 1.87
10 -10 4 24.48 1.87
-10 -10 -4 23.04 1.87
-10 -10 4 23.5 1.89
-10 -4 10 23.46 1.91
-10 4 -10 23.22 1.85
-10 4 10 23.5 1.89
-10 4 10 24.15 1.87
-10 10 -4 22.73 1.88
-10 10 4 23.23 1.87
-4 -10 -10 24.15 1.86
-4 -10 10 24.44 1.92
-4 10 -10 25.79 1.91
10 10 4 23.39 1.88
10 4 10 24 1.84
10 10 -4 24.36 1.91
10 -4 10 24.09 1.85
10 4 -10 22.44 1.89
-10 5 10 0.21 0.16
-10 10 -5 -0.03 0.21
-10 -5 10 -0.1 0.23
-10 5 -10 -0.14 0.14
-10 -10 5 -0.55 0.23
-10 -5 -10 -0.02 0.09
-10 -10 -5 0.1 0.17
10 10 -5 -0.14 0.22
10 10 5 -0.12 0.19
10 -10 -5 -0.09 0.16
10 -10 5 -0.02 0.17
10 -5 10 -0.17 0.16
10 5 -10 0.09 0.22
10 5 10 -0.08 0.14
-5 10 -10 -0.1 0.23
-5 10 10 -0.03 0.2
5 -10 -10 -0.08 0.16
5 -10 10 -0.61 0.22
5 10 -10 -0.31 0.22
5 10 10 0.01 0.19
-10 10 5 0.53 0.21
-5 -10 -10 -0.26 0.15
-5 -10 10 0.13 0.25
6 10 -10 1.97 0.31
6 10 10 2.12 0.27
10 -10 -6 3.03 0.39
10 -10 6 3.27 0.45
10 -6 -10 3.62 0.38
10 -6 10 2.86 0.41
10 6 -10 3.56 0.5
10 6 10 2.65 0.36
10 10 -6 2.17 0.3
10 10 6 1.73 0.28
-10 6 -10 3.17 0.41
-6 10 -10 1.78 0.3
-10 -10 -6 2.84 0.38
-10 -10 6 1.9 0.3
-10 -6 -10 2.88 0.29
-10 -6 10 1.82 0.31
-10 10 -6 1.74 0.29
-10 10 6 1.79 0.28
-6 -10 -10 2.72 0.37
-6 -10 10 2.11 0.32
-10 6 10 3.27 0.44
6 -10 10 3.84 0.5
6 -10 -10 3.15 0.4
-6 10 10 3.24 0.46
7 -10 -10 -0.07 0.16
-7 10 10 -0.24 0.18
-7 10 -10 -0.3 0.21
-10 10 -7 0.04 0.21
-10 10 7 0.13 0.2
-7 -10 -10 -0.1 0.14
-7 -10 10 0.25 0.24
-10 -10 7 -0.14 0.23
-10 -7 -10 -0.09 0.11
-10 -7 10 -0.32 0.22
-10 7 -10 -0.19 0.18
-10 7 10 0.05 0.18
-10 -10 -7 0.1 0.15
10 7 10 -0.29 0.16
10 10 -7 -0.03 0.22
10 10 7 -0.07 0.19
7 10 10 0.15 0.19
10 -10 -7 -0.04 0.15
10 -10 7 0.22 0.18
10 -7 -10 -0.05 0.15
10 -7 10 -0.34 0.16
10 7 -10 -0.35 0.21
7 10 -10 -0.44 0.21
7 -10 10 -0.22 0.2
8 10 -10 0.03 0.25
8 -10 10 0.05 0.19
8 -10 -10 0 0.16
10 -10 8 -0.43 0.18
10 -8 -10 -0.02 0.15
10 8 -10 0.02 0.2
10 8 10 0.05 0.17
10 10 -8 -0.24 0.23
10 10 8 -0.01 0.19
-10 -8 -10 -0.18 0.12
10 -8 10 -0.04 0.17
-10 8 10 -0.03 0.18
-10 -10 -8 -0.02 0.14
-10 -10 8 -0.37 0.24
-10 8 -10 -0.04 0.18
-8 10 10 0.15 0.2
8 10 10 -0.08 0.18
10 -10 -8 -0.03 0.15
-10 10 -8 -0.23 0.2
-10 10 8 -0.08 0.19
-8 -10 -10 -0.03 0.14
-8 -10 10 -0.16 0.22
-8 10 -10 -0.04 0.21
-10 -8 10 -0.15 0.22
-10 10 -9 -0.31 0.21
10 10 9 -0.28 0.19
10 9 -10 -0.35 0.26
10 9 10 -0.22 0.19
10 10 -9 -0.29 0.22
10 -10 9 -0.04 0.19
10 -9 10 -0.37 0.18
9 -10 -10 -0.12 0.17
9 -10 10 -0.25 0.19
9 10 10 0.01 0.19
10 -10 -9 -0.17 0.25
-10 -10 -9 -0.19 0.14
-10 -10 9 -0.2 0.24
-10 -9 -10 -0.09 0.13
-10 -9 10 -0.32 0.27
-10 9 -10 0.01 0.2
-10 9 10 -0.19 0.36
-9 10 10 -0.05 0.32
-10 10 9 -0.34 0.22
-9 -10 -10 -0.07 0.14
-9 10 -10 -0.05 0.21
10 -10 -10 4.47 0.51
-10 -10 -10 4.66 0.48
-10 -10 10 5.04 0.66
-10 10 -10 4.81 0.62
-10 10 10 4.24 0.59
10 10 10 4.84 0.57
10 -10 10 4.11 0.56
0 -11 0 -0.42 0.18
-11 0 0 -0.08 0.12
-11 0 0 0 0.09
0 11 0 -0.47 0.23
0 0 11 -0.31 0.18
0 -11 1 6.49 0.68
0 11 -1 6.43 0.7
0 11 1 5.62 0.69
1 0 11 7.49 0.65
-1 11 0 5.42 0.69
0 -1 11 7.12 0.65
0 1 -11 6.95 0.64
0 1 11 6.63 0.65
0 1 11 6.93 0.59
1 -11 0 5.28 0.68
1 11 0 5.32 0.7
-11 -1 0 6.68 0.58
-11 -1 0 7.16 0.54
-11 1 0 7.58 0.58
-11 1 0 6.62 0.55
-1 0 11 6.1 0.66
0 -11 -1 5.87 0.67
-11 0 1 6.55 0.56
-11 0 1 6.85 0.59
-11 0 -1 6.41 0.56
-1 -11 0 5.9 0.67
-11 0 -1 6.62 0.54
-11 1 1 -0.12 0.12
-1 1 11 -0.1 0.13
-1 11 -1 -0.81 0.22
-1 11 1 -0.76 0.22
-11 1 -1 -0.15 0.11
-11 1 -1 -0.22 0.09
-11 -1 1 -0.29 0.14
1 11 1 -0.45 0.22
1 -1 11 -0.43 0.18
1 1 -11 0.05 0.18
1 1 11 -0.18 0.17
1 1 11 -0.22 0.13
-1 1 -11 -0.23 0.17
-1 1 11 -0.35 0.18
1 -11 -1 -0.43 0.19
1 -11 1 -0.61 0.19
-11 1 1 -0.12 0.11
-11 -1 -1 -0.07 0.08
-1 -11 1 -0.76 0.22
-1 -1 11 -0.06 0.19
-11 -1 -1 -0.16 0.12
-1 -11 -1 -0.61 0.2
0 -2 11 1.43 0.23
0 2 -11 1.67 0.23
0 2 11 1.09 0.21
11 2 0 1.51 0.17
-2 -11 0 1.44 0.24
-2 11 0 0.97 0.25
0 2 11 1.8 0.2
2 0 11 1.46 0.18
-11 -2 0 2.5 0.33
-11 0 -2 1.58 0.2
0 11 2 1.66 0.26
2 0 11 1.38 0.22
-11 0 -2 1.47 0.15
-11 2 0 2.04 0.28
-2 0 11 1.7 0.24
0 -11 -2 1.45 0.25
0 -11 2 1.33 0.24
0 11 -2 1.37 0.27
-11 0 2 1.53 0.19
-11 0 2 1.6 0.17
2 -11 0 0.91 0.23
2 11 0 1.18 0.27
-1 11 -2 8.59 0.79
-11 -1 -2 8.27 0.65
-11 1 2 7.73 0.7
-2 11 1 7.19 0.78
-1 2 11 9.67 0.76
-1 2 11 8.55 0.7
1 -2 11 8.02 0.75
1 2 -11 8.47 0.75
2 -11 1 8.79 0.77
11 2 1 8.24 0.66
2 1 11 7.65 0.68
2 11 -1 8.49 0.78
-11 -1 -2 7.85 0.63
-1 -11 2 7.91 0.77
-11 1 2 7.2 0.67
1 -11 -2 9.21 0.76
-2 1 -11 8.77 0.72
1 11 2 7.74 0.78
2 1 11 8.1 0.74
-11 -2 1 8.66 0.7
-11 2 -1 7.72 0.66
-2 -11 -1 7.32 0.76
-2 -1 11 8 0.76
1 2 11 8.6 0.73
11 2 -1 8.34 0.69
-11 1 -2 8.31 0.64
2 -1 11 8.44 0.75
2 11 1 7.05 0.81
2 1 -11 8 0.74
-1 11 2 8.07 0.78
1 11 -2 8.04 0.78
-1 2 -11 8.56 0.73
1 -11 2 7.12 0.77
1 2 11 7.3 0.7
2 -11 -1 8.36 0.76
-2 11 -1 7.3 0.79
-2 1 11 8.1 0.69
-1 -11 -2 7.06 0.75
-11 -1 2 7.91 0.71
-2 -11 1 8.54 0.77
-1 -2 11 8.53 0.76
-11 2 1 8.5 0.67
-2 1 11 7.92 0.75
-11 1 -2 7.65 0.65
-11 -2 -1 7.67 0.68
-11 2 -2 -0.16 0.1
-11 -2 2 -0.3 0.15
2 -11 -2 -0.44 0.18
-11 2 2 -0.28 0.12
2 2 -11 -0.37 0.18
2 2 11 -0.08 0.17
2 2 11 0.04 0.13
-11 -2 -2 -0.19 0.11
-2 11 2 -0.64 0.21
2 -11 2 -0.56 0.18
2 -2 11 -0.3 0.18
2 11 -2 -0.52 0.24
2 11 2 -0.44 0.23
11 2 -2 -0.32 0.14
-2 11 -2 -0.58 0.23
-2 2 11 -0.26 0.15
-2 -11 -2 -0.53 0.2
-2 -2 11 -0.14 0.19
-2 2 -11 -0.25 0.17
-2 2 11 -0.12 0.17
-2 -11 2 -0.66 0.21
3 -11 0 8.09 0.78
3 11 0 7.4 0.82
11 -3 0 8.84 0.69
11 3 0 8.66 0.72
-3 -11 0 7.61 0.8
-3 11 0 8.54 0.81
0 -3 11 9.88 0.8
-11 0 3 7.86 0.75
-11 0 3 8.32 0.71
0 3 -11 8.86 0.79
0 3 11 9.5 0.74
0 11 3 9.18 0.8
3 0 11 8.08 0.76
-11 -3 0 9.12 0.73
-11 3 0 8.47 0.71
-3 0 11 8.37 0.8
0 -11 -3 8.43 0.77
0 -11 3 8.61 0.8
0 11 -3 8.19 0.82
3 0 11 7.64 0.71
-3 11 1 2.34 0.3
11 -3 -1 2.59 0.29
-11 -1 -3 2.4 0.23
3 -11 1 1.8 0.26
3 1 11 1.93 0.24
3 1 11 2.18 0.32
-11 3 -1 2.75 0.3
1 -3 11 1.71 0.25
1 3 -11 1.55 0.26
-1 -11 3 1.67 0.28
-1 11 -3 1.97 0.28
11 3 1 2.22 0.32
-11 -3 1 2.85 0.37
1 -11 -3 2.38 0.26
3 11 -1 1.92 0.28
-3 -11 -1 2.41 0.27
-3 -1 11 1.84 0.26
-1 3 11 1.75 0.22
-11 1 3 2.52 0.33
1 11 3 1.93 0.29
-3 1 -11 2.01 0.23
-11 1 3 1.87 0.23
3 1 -11 2.27 0.26
-3 1 11 1.61 0.25
-11 3 1 2.35 0.33
-3 -11 1 1.96 0.27
1 -11 3 2.18 0.28
3 -1 11 2.43 0.25
11 -3 1 2.55 0.27
11 3 -1 2.66 0.37
-11 1 -3 2.22 0.23
-1 -3 11 2.15 0.27
3 11 1 2.3 0.28
3 -11 -1 1.65 0.25
-11 -3 -1 1.9 0.21
-3 11 -1 1.79 0.29
-1 -11 -3 1.84 0.25
-3 1 11 1.98 0.22
-11 1 -3 2.66 0.23
1 3 11 2.58 0.37
-1 3 -11 1.47 0.25
-1 11 3 1.29 0.27
1 11 -3 1.98 0.29
-11 -1 3 1.66 0.23
11 3 2 0.74 0.12
-11 -2 -3 0.82 0.1
-11 2 3 0.78 0.14
-3 -11 -2 0.46 0.21
-2 -11 3 0.65 0.24
2 11 3 0.5 0.22
-3 2 -11 0.47 0.18
-3 -2 11 0.46 0.22
-2 3 11 0.88 0.17
2 -3 11 0.4 0.2
2 3 -11 0.64 0.2
3 -11 2 0.42 0.21
-2 11 -3 0.96 0.23
3 2 11 0.41 0.14
-11 -3 2 0.44 0.16
-11 3 -2 0.52 0.13
3 11 -2 0.61 0.23
11 2 -3 0.62 0.16
2 -11 -3 0.65 0.2
-11 2 3 0.72 0.16
-3 11 2 0.39 0.21
11 -3 -2 0.78 0.13
3 2 11 0.67 0.17
-2 -3 11 0.66 0.22
-11 -3 -2 0.67 0.13
2 11 -3 0.59 0.23
2 3 11 0.79 0.16
-2 3 -11 0.64 0.19
2 -11 3 0.52 0.21
-2 11 3 0.58 0.22
-11 -2 3 0.75 0.17
3 11 2 0.8 0.23
-11 2 -3 0.73 0.11
11 3 -2 0.57 0.16
-3 -11 2 0.78 0.22
3 -2 11 0.63 0.19
-11 3 2 0.62 0.14
-3 11 -2 0.74 0.24
3 -11 -2 0.45 0.2
11 -3 2 0.71 0.1
-3 2 11 0.46 0.16
-3 2 11 0.72 0.2
-2 -11 -3 0.96 0.21
3 2 -11 0.56 0.21
11 3 -3 -0.14 0.15
11 3 3 -0.09 0.09
-11 3 -3 -0.31 0.1
-3 3 11 -0.19 0.2
11 -3 3 -0.06 0.08
3 -11 -3 -0.24 0.17
3 -11 3 -0.2 0.21
3 -3 11 -0.15 0.18
3 3 -11 -0.06 0.2
-3 3 11 -0.05 0.14
-3 -3 11 -0.02 0.23
-11 -3 -3 -0.13 0.1
-11 -3 3 -0.17 0.16
-3 3 -11 -0.05 0.17
-3 -11 3 -0.14 0.22
-3 -11 -3 -0.33 0.19
3 11 3 -0.09 0.2
-11 3 3 -0.19 0.13
-3 11 3 -0.16 0.2
3 3 11 0.01 0.13
3 11 -3 -0.09 0.23
-3 11 -3 0.09 0.22
0 -11 4 26.64 2.07
-4 0 11 26.48 2.07
4 11 0 24.85 2.06
0 -11 -4 26.8 2.05
0 11 -4 25.71 2.08
0 11 4 26.77 2.07
0 4 -11 26.54 2.06
-11 4 0 26.53 2.03
-4 11 0 26.35 2.08
0 -4 -11 28.23 2.03
0 -4 11 29.52 2.07
-11 -4 0 25.69 2.03
4 0 11 26.43 2.05
11 4 0 26.9 2.03
0 4 11 27.43 2.03
4 -11 0 25.15 2.06
-11 0 4 25.66 2.04
-11 0 4 25.52 2.02
-4 -11 0 25.95 2.06
11 -4 0 26.47 2.02
4 0 11 25.15 2.02
4 -11 1 1.11 0.23
1 -4 11 1.63 0.25
-4 -11 -1 1.34 0.23
11 -4 -1 1.19 0.16
1 11 4 1.64 0.26
11 4 1 1.33 0.18
1 -11 -4 1.01 0.21
4 1 11 2.64 0.3
-1 -4 -11 1.3 0.18
-11 -4 1 1.39 0.2
-11 4 -1 2.64 0.3
-4 -1 11 1.3 0.23
-4 1 -11 1.56 0.2
-1 4 11 1.34 0.2
-11 1 4 1.63 0.2
4 11 -1 1.78 0.27
1 4 -11 1.08 0.24
-4 11 1 1.81 0.26
-1 -11 4 1.21 0.26
4 1 11 1.37 0.2
-11 1 4 1.58 0.18
-1 11 -4 1.08 0.26
-1 11 4 1.11 0.24
-4 1 11 2.98 0.34
-11 4 1 2.13 0.3
11 4 -1 1.17 0.19
-4 1 11 1.39 0.23
-11 -1 4 1.27 0.2
1 -4 -11 1.15 0.18
-4 11 -1 1.48 0.26
-1 -4 11 1.38 0.26
-1 4 -11 1.01 0.22
1 11 -4 0.92 0.26
11 -4 1 1.43 0.16
1 4 11 1.5 0.19
-1 -11 -4 0.98 0.22
4 -1 11 1.38 0.21
4 1 -11 1.44 0.23
1 -11 4 1.43 0.25
-4 -11 1 1.9 0.25
4 11 1 1.58 0.26
4 -11 -1 1.49 0.22
-11 -4 -1 1.58 0.19
-2 11 -4 11.47 1.03
-4 11 2 11.85 1.02
-2 -4 -11 11.93 0.95
2 -4 11 11.33 1.01
2 4 -11 11.87 1.01
-2 -11 4 11.44 1.03
11 2 -4 11.14 0.97
11 4 2 11.42 0.95
4 -11 2 11.95 1
4 2 11 11.45 0.98
4 2 11 12.2 0.95
-4 2 -11 12.38 0.98
-11 2 4 11.83 0.95
-4 -11 -2 11.75 1
-4 -2 11 11.5 1.03
-2 4 11 11.89 0.97
2 -11 -4 12.14 1.01
11 -4 -2 11.5 0.94
-11 2 4 11.74 0.97
4 11 -2 13.63 1.04
2 11 4 12.32 1.04
-11 4 -2 11.7 0.94
-11 -4 2 11.65 0.98
-4 -11 2 11.51 1.04
-4 2 11 12.11 0.97
4 -2 11 11.83 0.99
4 -11 -2 12.33 1.01
2 -11 4 11.9 1.02
-4 11 -2 11.53 1.03
2 -4 -11 12.16 0.96
-2 -4 11 12.5 1.04
-2 -11 -4 11.78 0.99
-11 -2 4 11.98 0.99
-11 2 -4 12.27 0.92
-11 -4 -2 12.21 0.95
-4 2 11 12.11 1.01
2 4 11 11.82 0.96
-11 4 2 11.56 0.95
4 11 2 11.94 1.03
11 -4 2 11.47 0.93
11 4 -2 12.12 0.98
-2 11 4 11.7 1.03
-2 4 -11 11.91 1.01
2 11 -4 11.76 1.03
-4 3 -11 0.92 0.19
-4 -3 11 0.96 0.23
-11 3 4 0.74 0.15
-11 -3 -4 0.86 0.11
3 -11 -4 0.82 0.19
3 -4 11 0.78 0.21
-11 -4 3 0.91 0.18
-11 4 -3 0.84 0.14
4 -11 3 0.86 0.22
-4 -11 -3 1.06 0.21
11 3 -4 1.09 0.19
-4 11 3 0.98 0.23
-3 -4 -11 1.01 0.15
3 4 -11 0.95 0.22
-3 11 -4 0.81 0.23
3 11 4 0.8 0.23
4 3 11 1.02 0.15
4 11 -3 0.86 0.23
-3 4 11 1.08 0.18
11 -4 -3 0.96 0.15
-3 -11 4 0.93 0.23
11 4 3 1.02 0.14
11 -3 4 1.39 0.18
4 3 11 1.07 0.18
4 3 -11 0.96 0.23
-3 -11 -4 0.75 0.21
4 11 3 0.92 0.23
-11 -4 -3 1.01 0.14
-3 4 -11 0.68 0.19
-11 3 -4 0.92 0.13
-11 4 3 0.71 0.16
-4 3 11 0.73 0.2
-4 11 -3 1.2 0.24
-4 3 11 0.95 0.17
-3 -4 11 0.8 0.23
-3 11 4 0.67 0.23
3 -4 -11 0.75 0.16
3 -11 4 0.88 0.23
3 4 11 0.87 0.16
4 -11 -3 1.05 0.2
4 -3 11 1.11 0.2
11 4 -3 0.6 0.19
3 11 -4 0.63 0.25
-11 -3 4 1.04 0.18
11 3 4 1.44 0.19
11 -4 3 1.09 0.12
-4 -11 3 0.96 0.23
-11 4 4 0.16 0.13
-11 4 -4 0.1 0.13
-4 -11 -4 0.18 0.19
-11 -4 -4 0.25 0.1
-11 -4 4 -0.06 0.18
-4 -4 11 -0.02 0.22
-4 4 -11 -0.16 0.17
4 11 4 -0.2 0.21
11 -4 -4 0.02 0.12
4 4 -11 0.42 0.21
11 4 -4 0.18 0.17
4 4 11 0.16 0.13
4 11 -4 0.06 0.23
11 -4 4 -0.06 0.1
-4 -11 4 -0.15 0.22
-4 11 -4 -0.07 0.21
-4 11 4 -0.14 0.21
4 -11 -4 0.03 0.17
-4 4 11 0.32 0.17
4 -11 4 -0.03 0.21
-4 -4 -11 0.12 0.12
11 4 4 0.02 0.11
4 -4 11 -0.18 0.19
0 -11 5 0.22 0.22
0 11 -5 0.31 0.23
0 5 -11 0.21 0.2
0 5 11 0.49 0.16
5 -11 0 0.13 0.18
0 -5 11 0.39 0.21
-11 0 5 0.02 0.16
5 11 0 0.29 0.23
-5 -11 0 0.22 0.21
-5 11 0 0.13 0.23
0 -5 -11 0.49 0.14
11 5 0 0.19 0.16
-11 0 5 0.23 0.13
-11 -5 0 0.42 0.16
-11 5 0 0.1 0.14
-5 0 11 0.04 0.2
0 11 5 0.32 0.22
5 0 11 0.18 0.16
5 0 11 0.34 0.11
11 -5 0 0.37 0.12
0 -11 -5 0.31 0.2
-5 0 11 0.13 0.15
-11 5 -1 -0.18 0.13
-1 5 11 -0.04 0.16
1 11 5 0.11 0.22
5 1 11 -0.11 0.14
1 -5 11 -0.06 0.21
5 11 -1 -0.18 0.22
-1 -11 5 0.06 0.22
-1 11 -5 0.04 0.23
1 -11 -5 -0.01 0.18
-5 -11 -1 -0.09 0.2
-5 -1 11 -0.08 0.19
5 1 11 -0.23 0.12
-1 -5 -11 0 0.14
11 -5 -1 -0.08 0.12
5 -11 1 0.13 0.19
-11 -5 1 0.08 0.17
-11 1 5 -0.29 0.13
11 5 1 0.17 0.14
-11 1 5 -0.26 0.15
1 5 -11 0.11 0.19
-5 11 1 -0.26 0.2
5 -11 -1 -0.25 0.18
-11 5 1 -0.38 0.14
-1 -11 -5 0.07 0.18
-1 5 -11 -0.1 0.19
1 -11 5 0.26 0.24
-5 -11 1 -0.05 0.22
-5 11 -1 -0.16 0.21
-5 1 11 -0.17 0.2
-5 1 11 -0.18 0.14
5 11 1 0.16 0.22
1 11 -5 -0.05 0.23
5 -1 11 -0.04 0.16
-1 -5 11 -0.11 0.23
11 -5 1 -0.28 0.11
-11 -5 -1 -0.17 0.16
-11 -1 5 -0.29 0.16
11 5 -1 0.18 0.16
1 5 11 -0.03 0.15
1 -5 -11 0.12 0.15
-1 11 5 -0.27 0.21
5 1 -11 -0.31 0.21
-5 11 2 0.1 0.22
-2 -5 -11 0.06 0.13
-5 2 -11 0.05 0.15
2 5 -11 0.05 0.19
-2 11 -5 0.27 0.24
-11 5 -2 0.24 0.13
2 11 5 -0.08 0.2
-2 5 11 0.3 0.18
-5 -2 11 0.04 0.21
-11 -5 2 0.12 0.17
-5 -11 -2 0 0.19
2 -11 -5 0.11 0.17
11 5 2 0.24 0.14
2 -5 11 0.13 0.21
-2 -11 5 0.05 0.23
5 -11 2 0.4 0.21
5 11 -2 0.22 0.23
5 2 11 0.09 0.12
-11 2 5 0.02 0.13
11 -5 -2 0.3 0.12
11 2 -5 -0.05 0.17
-11 2 5 -0.06 0.15
5 2 11 0.03 0.14
-5 2 11 0.07 0.19
2 -5 -11 0.15 0.14
-5 2 11 -0.04 0.15
-2 -11 -5 -0.11 0.18
-2 -5 11 0.2 0.21
-11 5 2 0.06 0.14
-11 -2 5 -0.09 0.16
-2 11 5 0.38 0.22
5 11 2 0.43 0.22
2 11 -5 0.12 0.25
-5 -11 2 0.13 0.23
2 5 11 0.1 0.15
5 -11 -2 0.01 0.18
5 -2 11 0.14 0.17
11 -5 2 0.18 0.11
-2 5 -11 0.2 0.2
-5 11 -2 0.31 0.21
5 2 -11 0.07 0.2
-11 -5 -2 0.15 0.15
11 5 -2 0.2 0.17
2 -11 5 0.22 0.21
5 11 -3 0.49 0.24
-3 11 -5 0.16 0.23
5 3 11 -0.01 0.13
11 -5 -3 0.06 0.13
3 5 -11 0.1 0.2
-3 -5 -11 -0.04 0.13
-5 -11 -3 -0.02 0.19
5 -11 3 0.13 0.2
-5 3 -11 0.15 0.16
-11 3 5 0.01 0.13
3 -11 -5 0.15 0.17
11 3 -5 0.3 0.18
-3 5 11 -0.03 0.17
-5 -3 11 -0.04 0.23
11 -3 5 0.03 0.08
5 3 11 0.25 0.15
-5 11 3 0.09 0.21
-3 -11 5 0.15 0.24
-11 -5 3 0.18 0.17
-11 5 -3 0.04 0.14
11 5 3 0.17 0.14
3 -5 11 0.15 0.19
3 11 5 0.05 0.2
3 -5 -11 0.31 0.15
5 -11 -3 0.08 0.18
-5 3 11 0.13 0.2
-5 3 11 0.17 0.16
-3 5 -11 0.04 0.18
-3 11 5 0.09 0.21
3 5 11 -0.09 0.15
-5 -11 3 0.18 0.23
11 -5 3 0.12 0.11
11 5 -3 0.06 0.17
-5 11 -3 -0.08 0.22
5 11 3 0.17 0.22
3 -11 5 -0.17 0.22
-3 -11 -5 0 0.18
-3 -5 11 0.25 0.21
-11 3 -5 0.19 0.11
-11 -5 -3 0.04 0.13
5 3 -11 0.08 0.22
3 11 -5 0.07 0.24
5 -3 11 0.18 0.17
-11 -3 5 -0.1 0.17
-11 5 3 0.23 0.14
-5 4 -11 1.58 0.21
5 4 11 1.75 0.2
11 -5 -4 1.81 0.2
-4 -5 -11 2.09 0.3
5 -11 4 1.57 0.24
-5 -11 -4 1.66 0.24
4 11 5 1.49 0.26
-4 5 11 1.62 0.22
4 -11 -5 1.5 0.23
11 -4 5 2.13 0.25
4 5 -11 1.93 0.27
11 5 4 1.56 0.19
5 11 -4 1.79 0.28
-5 11 4 1.59 0.25
-11 -4 -5 2.01 0.23
-4 -11 5 1.4 0.26
11 4 -5 1.74 0.24
-11 -5 4 1.93 0.24
-11 5 -4 1.26 0.2
4 -5 11 1.76 0.25
-5 -4 11 1.49 0.26
-11 4 5 1.69 0.2
-4 11 -5 1.55 0.26
-4 -11 -5 1.61 0.23
11 4 5 2.7 0.26
-4 5 -11 1.77 0.23
5 -11 -4 1.78 0.23
-11 -5 -4 1.52 0.18
-5 4 11 1.27 0.21
11 -4 -5 2.36 0.31
-11 5 4 1.73 0.2
-5 -4 -11 2.05 0.28
5 4 -11 1.76 0.27
5 -4 11 1.61 0.23
4 11 -5 1.7 0.28
-5 11 -4 1.87 0.27
-4 -5 11 1.59 0.26
-11 -4 5 1.7 0.24
-4 11 5 1.54 0.25
-5 -11 4 1.93 0.28
4 -11 5 1.67 0.26
11 5 -4 1.66 0.23
-11 4 -5 1.51 0.19
4 -5 -11 2.82 0.35
5 11 4 1.64 0.26
4 5 11 1.74 0.2
11 -5 4 2.11 0.27
-11 -5 -5 -0.2 0.1
5 -5 -11 -0.07 0.15
5 -11 -5 0.13 0.17
-5 -5 11 -0.24 0.23
5 -5 11 -0.23 0.18
5 -11 5 0.01 0.2
-5 11 5 -0.31 0.19
-11 -5 5 0.04 0.19
-5 -5 -11 0 0.12
11 -5 -5 0.02 0.13
-5 5 -11 0.14 0.17
-5 5 11 -0.08 0.17
-5 11 -5 -0.06 0.23
-5 -11 -5 -0.06 0.17
-5 -11 5 0.07 0.23
-11 5 -5 -0.29 0.14
-11 5 5 -0.27 0.15
5 5 -11 0.16 0.22
5 5 11 -0.23 0.14
5 11 -5 -0.18 0.24
5 11 5 -0.01 0.21
11 -5 5 -0.13 0.11
11 5 -5 -0.07 0.19
11 5 5 -0.13 0.13
-6 -11 0 10.48 0.94
-11 6 0 10.51 0.88
6 0 11 10.73 0.86
0 -11 -6 10.97 0.92
-11 0 6 11.26 0.93
-11 0 6 11.85 0.88
-11 -6 0 11.01 0.92
6 11 0 10.98 0.97
6 0 11 11.16 0.9
6 -11 0 10.82 0.93
-6 0 11 10.72 0.96
0 6 -11 11.12 0.97
0 -11 6 10.24 0.97
0 11 -6 9.32 0.98
0 11 6 10.35 0.95
0 -6 11 9.86 0.97
0 6 11 9.89 0.91
-6 11 0 11.03 0.96
11 -6 0 10.97 0.88
-6 0 11 11.26 0.9
0 -6 -11 10.91 0.89
11 6 0 11.54 0.92
-6 -11 -1 6.05 0.65
6 -11 1 6.06 0.64
6 11 -1 5.98 0.69
-1 11 -6 5.52 0.69
-11 1 6 7.21 0.56
11 6 1 6.62 0.61
6 1 11 6.44 0.59
-6 11 1 6.64 0.66
-1 -6 -11 5.96 0.6
-11 6 -1 6.76 0.59
-1 6 11 6.44 0.61
6 1 11 6.41 0.54
1 6 -11 5.64 0.67
1 -11 -6 5.36 0.62
1 -6 11 6.65 0.67
-6 -1 11 6.66 0.68
11 -6 -1 5.61 0.56
1 11 6 6.86 0.7
-11 1 6 6.16 0.61
-1 -11 6 5.78 0.7
-11 -6 1 5.82 0.63
-6 -11 1 6.35 0.69
6 -11 -1 7.16 0.65
-6 1 11 6.37 0.67
-6 1 11 6.33 0.59
-1 -11 -6 5.93 0.62
-11 -1 6 5.81 0.62
1 -6 -11 5.88 0.59
1 11 -6 5.92 0.71
-6 11 -1 6.57 0.67
11 -6 1 6.16 0.56
11 6 -1 6.08 0.64
1 6 11 6.41 0.63
1 -11 6 5.72 0.72
6 -1 11 6.84 0.6
-11 -6 -1 6.88 0.61
-1 -6 11 6.01 0.73
-11 6 1 6.46 0.58
6 11 1 6.74 0.7
-1 6 -11 5.45 0.69
-1 11 6 5.99 0.66
11 -6 -2 11.13 0.89
-2 -11 6 10.8 0.97
6 2 11 10.92 0.87
6 -11 2 10.49 0.94
6 2 11 10.66 0.9
2 11 6 10.26 0.95
-2 -6 -11 11.66 0.89
11 6 2 10.59 0.91
2 -11 -6 11.09 0.93
-6 -2 11 11.55 0.99
-2 6 11 10.86 0.93
11 2 -6 10.66 0.92
-11 6 -2 10.35 0.9
-6 2 -11 11.09 0.91
-11 2 6 11.03 0.89
2 6 -11 11.22 0.98
-6 11 2 10.3 0.96
-11 2 6 11.26 0.93
-6 -11 -2 10.99 0.94
6 11 -2 11.44 0.97
-11 -6 2 11.09 0.94
2 -6 11 10.41 0.97
-2 11 -6 10.46 0.99
2 -6 -11 11.26 0.9
11 6 -2 10.6 0.95
6 11 2 11.12 0.96
-6 2 11 11.23 0.91
-2 -11 -6 10.94 0.93
11 -6 2 10.83 0.88
-6 2 11 10.83 0.96
-2 6 -11 10.87 0.97
-2 11 6 10.92 0.96
-11 6 2 10.8 0.91
2 11 -6 10.57 0.99
-2 -6 11 11.05 0.98
2 6 11 11.62 0.92
6 -11 -2 10.52 0.94
-6 11 -2 11.88 0.98
6 2 -11 11.29 0.96
-11 -2 6 10.62 0.95
2 -11 6 11.02 0.97
-6 -11 2 11.12 0.96
-11 -6 -2 10.86 0.91
6 -2 11 11.05 0.92
3 11 6 -0.03 0.2
6 11 -3 0.07 0.23
-3 -11 6 -0.1 0.23
11 -3 6 -0.15 0.08
11 3 -6 -0.04 0.18
3 -11 -6 -0.01 0.16
6 3 11 -0.1 0.12
-6 -11 -3 0.04 0.19
-11 3 6 -0.18 0.13
6 3 11 -0.11 0.13
3 -6 11 0.03 0.2
3 6 -11 0.06 0.23
-6 11 3 -0.11 0.22
-3 -6 -11 -0.01 0.14
6 -11 3 0.02 0.19
-6 -3 11 -0.01 0.21
-11 -6 3 0.02 0.19
-3 6 11 -0.07 0.16
11 -6 -3 -0.06 0.13
-3 11 -6 -0.12 0.22
11 6 3 0.01 0.15
-11 6 -3 0.01 0.15
-6 3 -11 -0.1 0.16
3 -11 6 0.18 0.21
6 -11 -3 -0.01 0.17
6 -3 11 -0.08 0.17
-11 -6 -3 -0.1 0.14
-11 -3 6 0.3 0.19
-6 11 -3 -0.01 0.22
11 6 -3 0.17 0.18
3 11 -6 -0.12 0.25
3 6 11 -0.07 0.15
-11 3 -6 -0.1 0.1
3 -6 -11 0.23 0.15
-6 3 11 -0.07 0.18
-6 3 11 -0.19 0.16
-3 -11 -6 -0.03 0.18
6 11 3 0.09 0.21
-3 11 6 0 0.21
11 -6 3 -0.14 0.12
6 3 -11 0.05 0.22
-3 -6 11 -0.14 0.23
-3 6 -11 -0.03 0.2
-11 6 3 -0.11 0.14
-6 -11 3 0.11 0.22
6 11 -4 0.67 0.26
6 4 11 0.93 0.15
-4 11 -6 0.69 0.25
-4 6 11 0.98 0.19
-4 -11 6 1.16 0.26
-6 -11 -4 0.78 0.2
-11 -6 4 0.96 0.22
11 4 -6 0.65 0.21
6 -11 4 0.99 0.21
4 -6 11 1.41 0.22
-11 -4 -6 0.9 0.1
-11 4 6 0.78 0.17
4 -11 -6 0.73 0.19
-11 6 -4 0.61 0.17
-6 4 -11 0.67 0.17
-6 11 4 0.88 0.21
-4 -6 -11 0.98 0.15
4 11 6 0.84 0.22
-6 -4 11 1.32 0.25
11 6 4 0.88 0.16
11 -4 6 0.88 0.13
4 6 -11 1.15 0.24
11 -6 -4 0.9 0.15
-11 4 -6 0.67 0.15
11 6 -4 0.85 0.21
-11 6 4 0.66 0.17
-6 11 -4 0.53 0.23
-4 11 6 1.06 0.21
-6 -11 4 0.67 0.24
4 11 -6 0.79 0.26
-4 6 -11 0.76 0.21
11 4 6 0.84 0.13
6 11 4 0.58 0.23
-11 -4 6 1.27 0.22
4 -11 6 0.69 0.22
-6 4 11 0.94 0.18
-4 -6 11 1.02 0.26
-4 -11 -6 0.79 0.19
11 -4 -6 1.15 0.16
6 4 -11 1.15 0.24
-11 -6 -4 0.87 0.15
6 -4 11 0.65 0.2
6 -11 -4 1.05 0.19
4 6 11 0.98 0.17
11 -6 4 0.82 0.15
11 5 -6 0.05 0.18
-5 6 11 -0.08 0.17
-11 -6 5 0.03 0.2
-6 -5 11 -0.34 0.22
11 -6 -5 -0.02 0.14
-6 5 -11 0.13 0.16
5 -6 11 0.12 0.19
5 6 -11 -0.12 0.2
-5 11 -6 0.04 0.22
6 5 11 0.1 0.14
-11 6 -5 -0.17 0.16
-11 5 6 0 0.14
6 11 -5 -0.41 0.23
-6 11 5 -0.12 0.19
-5 -6 -11 0.24 0.13
5 -11 -6 -0.16 0.17
5 11 6 -0.09 0.21
6 -5 -11 -0.06 0.15
-6 -11 -5 -0.01 0.17
6 -11 5 -0.09 0.2
-5 -11 6 0.16 0.24
11 6 5 -0.13 0.14
-11 -5 -6 -0.07 0.09
11 -5 6 -0.1 0.11
-5 -11 -6 -0.03 0.17
6 -5 11 -0.01 0.19
-5 11 6 0.02 0.18
11 -6 5 0.03 0.13
5 -6 -11 -0.06 0.15
6 11 5 0.01 0.21
-6 11 -5 -0.03 0.21
-5 6 -11 -0.1 0.19
-6 -11 5 0.04 0.23
11 5 6 -0.01 0.12
-11 5 -6 0.08 0.14
6 5 -11 -0.03 0.21
-11 -6 -5 0.08 0.12
6 -11 -5 0 0.17
11 6 -5 0.27 0.2
-11 6 5 0.09 0.15
-6 -5 -11 0 0.11
5 6 11 0.08 0.15
-6 5 11 0.03 0.17
5 -11 6 0.08 0.21
-5 -6 11 -0.19 0.24
11 -5 -6 -0.06 0.13
5 11 -6 0.26 0.24
-11 -5 6 0.03 0.21
-6 6 -11 -0.02 0.18
-6 -6 -11 -0.06 0.12
-6 -6 11 0.17 0.22
6 11 6 -0.13 0.2
-11 -6 -6 0.02 0.11
6 -6 11 -0.18 0.18
-6 6 11 0.27 0.18
-6 -11 -6 -0.31 0.17
-6 -11 6 -0.1 0.23
6 -11 6 0.09 0.2
6 -6 -11 -0.01 0.14
-11 6 -6 0 0.16
11 -6 -6 0 0.13
11 -6 6 -0.06 0.13
6 6 11 0.02 0.14
-11 -6 6 -0.08 0.21
6 11 -6 -0.34 0.24
-6 11 -6 0.06 0.22
11 6 -6 -0.4 0.19
11 6 6 -0.09 0.14
6 -11 -6 -0.05 0.18
-11 6 6 0.13 0.16
6 6 -11 0.07 0.21
-6 11 6 -0.16 0.19
0 7 -11 0.16 0.24
7 0 11 0.08 0.15
7 0 11 -0.01 0.11
11 -7 0 0.33 0.14
0 11 -7 0.39 0.25
0 -7 -11 0.3 0.15
-11 -7 0 -0.04 0.19
0 -7 11 0.15 0.24
-7 11 0 0.2 0.23
-7 0 11 -0.07 0.22
-7 0 11 -0.03 0.16
-7 -11 0 -0.09 0.22
0 11 7 0.16 0.22
-11 7 0 0.18 0.17
7 11 0 0.22 0.24
11 7 0 0.04 0.19
0 -11 7 0.15 0.24
0 -11 -7 0.38 0.18
0 7 11 0.28 0.17
7 -11 0 -0.07 0.19
-11 0 7 -0.38 0.19
-11 0 7 -0.24 0.14
1 -7 11 0.19 0.23
-11 1 7 -0.16 0.14
7 -11 1 -0.04 0.18
-7 11 1 0.12 0.22
1 7 -11 0.23 0.23
11 7 1 0.63 0.18
-7 -11 -1 0.17 0.21
7 1 11 0.12 0.11
-11 7 -1 0.01 0.17
1 -11 -7 0.42 0.19
7 1 11 0.23 0.14
7 11 -1 0.21 0.22
-11 1 7 0.24 0.18
-1 7 11 0.17 0.19
-1 -11 7 0.15 0.23
-11 -7 1 0.43 0.2
-1 11 -7 0.19 0.24
-1 -7 -11 0.23 0.15
11 -7 -1 0.2 0.14
-7 -1 11 0.02 0.2
1 11 7 0.4 0.21
-7 11 -1 -0.12 0.22
11 -7 1 0.12 0.14
1 7 11 0.52 0.18
7 11 1 0.17 0.22
-7 -11 1 0.15 0.22
-7 1 11 0.1 0.16
7 -11 -1 0.15 0.19
-1 -7 11 0.27 0.24
1 -11 7 0.2 0.24
11 7 -1 0.26 0.19
-1 11 7 0.4 0.21
-11 -7 -1 0.21 0.18
-1 -11 -7 0.47 0.2
1 -7 -11 0.29 0.16
-11 7 1 0.1 0.16
-1 7 -11 0.34 0.22
-7 1 11 0.06 0.21
7 -1 11 0.39 0.16
1 11 -7 0.04 0.26
-11 -1 7 0.26 0.19
7 2 11 3.23 0.39
7 11 -2 4.96 0.59
-11 2 7 2.34 0.3
2 -7 11 2.79 0.33
-2 -7 -11 4.27 0.39
-11 -7 2 2.34 0.31
7 2 11 3.69 0.35
-7 2 -11 3.74 0.4
-7 -2 11 3.34 0.35
-2 7 11 4.42 0.47
2 -11 -7 3.4 0.45
-7 11 2 4.06 0.55
2 11 7 2.38 0.32
7 -11 2 3.68 0.47
2 7 -11 3.02 0.34
-11 7 -2 3.12 0.43
11 7 2 3.64 0.46
-2 11 -7 2.61 0.35
-11 2 7 3.24 0.4
-7 -11 -2 2.35 0.31
11 2 -7 2.76 0.31
-2 -11 7 2.34 0.34
2 11 -7 2.56 0.34
-7 2 11 3.5 0.44
-11 -7 -2 3.65 0.43
-7 2 11 2.19 0.3
-11 7 2 4.31 0.43
-2 -7 11 4.87 0.57
7 -11 -2 3.19 0.45
-11 -2 7 3.53 0.49
-2 7 -11 4.2 0.51
7 11 2 1.75 0.32
-7 -11 2 2.65 0.34
-7 11 -2 2.88 0.33
11 -7 2 3.65 0.39
11 7 -2 3.79 0.48
2 -11 7 2.16 0.33
-2 11 7 3.94 0.51
7 -2 11 3.69 0.43
7 2 -11 3.07 0.33
-7 -3 11 -0.42 0.21
11 -3 7 -0.18 0.08
-11 -7 3 -0.01 0.2
-7 11 3 -0.38 0.21
7 11 -3 -0.41 0.22
3 7 -11 -0.33 0.21
-11 3 7 -0.27 0.15
-7 -11 -3 -0.29 0.19
11 -7 -3 -0.22 0.13
-7 3 -11 -0.33 0.15
-11 7 -3 -0.58 0.16
11 7 3 -0.02 0.17
-3 -11 7 -0.29 0.25
-3 -7 -11 -0.21 0.14
7 -11 3 -0.23 0.19
7 3 11 -0.14 0.13
-11 3 7 -0.06 0.18
11 3 -7 0 0.2
-3 11 -7 -0.3 0.24
3 -11 -7 -0.17 0.17
3 -7 11 -0.19 0.22
3 11 7 -0.26 0.21
-3 7 11 0.02 0.19
7 3 11 -0.33 0.12
-3 -11 -7 -0.12 0.17
-7 3 11 -0.22 0.18
3 -11 7 -0.45 0.22
3 7 11 -0.08 0.17
7 -11 -3 -0.41 0.18
7 3 -11 -0.39 0.21
11 -7 3 -0.32 0.13
-7 3 11 -0.23 0.16
-11 7 3 0.12 0.16
-11 -7 -3 -0.23 0.16
-3 7 -11 -0.19 0.21
3 -7 -11 -0.08 0.17
11 7 -3 -0.01 0.19
-7 11 -3 -0.35 0.22
3 11 -7 -0.22 0.23
-11 -3 7 -0.09 0.21
-11 3 -7 0.05 0.1
7 -3 11 -0.27 0.17
-3 -7 11 -0.21 0.24
-3 11 7 -0.28 0.2
-7 -11 3 -0.76 0.22
7 11 3 -0.38 0.21
-4 11 -7 0.23 0.23
-11 -4 -7 0.51 0.08
11 -7 -4 0.65 0.15
4 11 7 0.18 0.21
-7 -4 11 0.09 0.24
-7 4 -11 0.5 0.16
7 -11 4 0.63 0.2
11 -4 7 0.62 0.12
-4 -11 7 0.58 0.23
-7 -11 -4 0.08 0.19
-11 4 7 0.51 0.16
-7 11 4 0.49 0.21
4 -7 11 0.35 0.21
-11 7 -4 0.26 0.18
4 7 -11 0.34 0.22
7 11 -4 0.54 0.24
-4 7 11 0.55 0.19
-11 -7 4 0.33 0.21
-4 -7 -11 0.54 0.14
11 7 4 0.34 0.17
7 4 11 0.21 0.13
11 4 -7 0.2 0.2
4 -11 -7 0.55 0.2
7 -4 11 0.33 0.18
7 4 -11 0.53 0.22
7 -11 -4 0.31 0.17
11 4 7 0.38 0.11
4 7 11 0.29 0.17
-11 -4 7 0.63 0.22
4 -7 -11 0.64 0.18
-4 -11 -7 0.43 0.18
-11 4 -7 0.55 0.13
-11 -7 -4 0.47 0.15
-7 4 11 0.33 0.18
-7 11 -4 0.34 0.22
7 11 4 0.56 0.22
-7 -11 4 0.25 0.23
11 -7 4 0.25 0.14
11 7 -4 0.68 0.21
4 -11 7 0.37 0.23
-4 -7 11 0.64 0.25
-4 7 -11 0.49 0.2
-11 7 4 0.7 0.17
4 11 -7 0.18 0.25
-4 11 7 0.16 0.21
5 -7 11 0.05 0.2
5 7 -11 -0.26 0.23
-5 7 11 -0.11 0.17
-7 11 5 -0.07 0.19
5 11 7 -0.22 0.2
7 -5 -11 -0.06 0.15
-11 7 -5 -0.17 0.17
11 -7 -5 -0.23 0.13
-5 -7 -11 -0.07 0.13
7 -11 5 -0.19 0.19
-7 5 -11 -0.03 0.16
11 -5 7 -0.18 0.12
7 11 -5 0.1 0.25
-5 -11 7 -0.09 0.24
-11 -7 5 0.01 0.21
-7 -11 -5 -0.16 0.17
5 -11 -7 0.08 0.16
11 5 -7 -0.1 0.2
-5 11 -7 -0.01 0.21
11 7 5 -0.2 0.15
7 5 11 0.03 0.13
-7 -5 11 -0.41 0.25
-11 5 7 -0.02 0.15
-11 -5 -7 0.01 0.09
-7 -5 -11 -0.07 0.11
-5 11 7 0.12 0.2
11 7 -5 0.05 0.2
-11 7 5 0 0.17
5 -11 7 -0.09 0.2
5 11 -7 0 0.24
5 7 11 0.02 0.16
11 -7 5 -0.05 0.13
7 -5 11 0.1 0.17
7 5 -11 -0.11 0.2
7 11 5 -0.17 0.2
-5 -7 11 -0.17 0.23
-5 7 -11 0.06 0.18
-11 -7 -5 -0.31 0.13
5 -7 -11 0.16 0.16
-11 -5 7 -0.05 0.21
11 -5 -7 -0.02 0.13
-11 5 -7 -0.14 0.15
-5 -11 -7 -0.07 0.16
-7 5 11 -0.06 0.16
-7 -11 5 -0.01 0.23
-7 11 -5 -0.03 0.21
11 5 7 0.04 0.12
7 -11 -5 -0.13 0.17
-7 -6 11 0.1 0.24
-7 6 -11 0.15 0.17
11 -6 7 0.2 0.14
7 -6 -11 0.16 0.14
7 6 11 0.21 0.15
11 6 -7 0.12 0.21
-11 -7 6 0.18 0.21
11 7 6 -0.16 0.15
-6 11 -7 0.09 0.21
-6 7 11 0.15 0.17
6 7 -11 0.08 0.21
6 11 7 0.24 0.21
-11 6 7 0.18 0.17
6 -11 -7 0 0.15
11 -7 -6 0.17 0.14
-7 -11 -6 0.19 0.17
-7 11 6 0.15 0.19
-6 -7 -11 0.05 0.12
7 -11 6 0.04 0.2
7 11 -6 -0.04 0.23
-11 7 -6 0.03 0.17
-11 -6 -7 0.14 0.1
6 -7 11 0.31 0.2
-6 -11 7 0.02 0.24
11 -6 -7 0.09 0.14
7 6 -11 -0.19 0.23
6 11 -7 0.08 0.23
-11 7 6 0.01 0.17
-11 6 -7 0.05 0.16
6 -7 -11 0.09 0.16
6 7 11 0.11 0.16
-7 6 11 0.08 0.16
-7 -6 -11 0.2 0.12
-6 7 -11 0.08 0.18
-7 11 -6 0.43 0.22
-11 -6 7 0.2 0.21
11 -7 6 0.28 0.15
7 -11 -6 0.35 0.17
-11 -7 -6 0.11 0.13
6 -11 7 -0.07 0.2
11 6 7 0.07 0.14
11 7 -6 0.12 0.2
7 11 6 -0.01 0.2
-6 -7 11 -0.04 0.22
-6 -11 -7 -0.03 0.17
7 -6 11 0.14 0.19
-6 11 7 0.37 0.21
-7 -11 6 0.61 0.24
11 7 -7 0.18 0.21
7 -7 11 0.1 0.18
-7 -7 11 0.14 0.24
7 -11 7 -0.01 0.2
7 11 7 0 0.2
11 -7 -7 -0.09 0.15
-11 -7 -7 0.16 0.11
-11 -7 7 -0.11 0.21
-11 7 -7 -0.12 0.16
-11 7 7 -0.01 0.17
11 -7 7 -0.12 0.15
-7 -11 7 0.06 0.24
-7 -7 -11 -0.04 0.11
7 7 11 -0.09 0.15
-7 7 -11 -0.2 0.18
-7 7 11 0.11 0.16
7 -11 -7 -0.1 0.15
7 11 -7 -0.07 0.25
-7 11 -7 0.04 0.22
-7 -11 -7 0.11 0.16
7 7 -11 0.09 0.22
-7 11 7 -0.08 0.21
7 -7 -11 -0.04 0.15
11 7 7 -0.12 0.15
-11 8 0 44.59 3.43
-8 11 0 45.11 3.45
-11 0 8 43.96 3.44
8 0 11 43.83 3.41
11 -8 0 46.28 3.42
0 -8 -11 45.56 3.42
0 -8 11 43.56 3.46
-11 -8 0 45.36 3.44
0 11 8 44.92 3.44
8 0 11 44.66 3.42
0 8 11 45.58 3.43
-11 0 8 44.36 3.42
-8 -11 0 45.93 3.45
11 8 0 44.75 3.44
-8 0 11 44.83 3.42
0 -11 -8 46.26 3.43
0 -11 8 47.47 3.47
0 8 -11 44.78 3.45
8 -11 0 43.55 3.43
8 11 0 44.61 3.44
-8 0 11 44.27 3.45
0 11 -8 43.93 3.46
-11 8 -1 4.33 0.54
-1 -11 8 5.25 0.64
-1 8 11 3.17 0.53
-11 1 8 4.7 0.59
8 1 11 5.98 0.47
8 -11 1 3.86 0.56
1 -11 -8 4.04 0.53
-8 11 1 5.09 0.6
8 11 -1 5.11 0.6
-11 1 8 5.66 0.48
8 1 11 5 0.41
11 -8 -1 2.98 0.48
11 8 1 4.74 0.56
-11 -8 1 4.15 0.59
-1 11 -8 2.97 0.44
-1 -8 -11 4.58 0.5
-8 -11 -1 4.55 0.56
1 -8 11 5.01 0.62
-8 -1 11 4.84 0.6
1 8 -11 2.83 0.43
-11 8 1 4.9 0.53
-8 1 11 5.01 0.49
8 -1 11 5.07 0.4
-8 1 11 5.11 0.6
1 11 -8 4.61 0.67
-1 11 8 3.86 0.55
-11 -1 8 5.39 0.57
-8 -11 1 2.98 0.42
-11 -8 -1 4.01 0.56
8 -1 11 5.34 0.49
1 -8 -11 3.4 0.49
8 11 1 3.69 0.59
8 -11 -1 4.04 0.52
11 -8 1 4.75 0.49
-8 11 -1 3.92 0.61
-11 8 -2 -0.26 0.19
-8 2 -11 0.05 0.13
8 2 11 0.2 0.12
2 11 8 -0.71 0.2
11 -8 -2 0.04 0.15
-2 -8 -11 -0.3 0.16
2 -8 11 0.31 0.23
2 -11 -8 -0.3 0.19
-11 -8 2 0.4 0.22
-11 2 8 -0.18 0.18
-11 2 8 -0.24 0.16
-8 -11 -2 -0.19 0.2
8 -11 2 -0.04 0.19
11 8 2 -0.27 0.2
8 2 11 0.05 0.13
11 2 -8 -0.05 0.21
2 8 -11 -0.34 0.24
-2 -11 8 -0.53 0.26
-2 8 11 -0.28 0.2
-2 11 -8 -0.11 0.26
-8 -2 11 -0.4 0.23
8 11 -2 -0.23 0.23
-8 11 2 -0.39 0.22
-2 -8 11 -0.22 0.25
2 -8 -11 -0.27 0.17
-11 -2 8 -0.01 0.2
11 -8 2 -0.17 0.15
-8 -11 2 -0.21 0.23
-11 -8 -2 -0.35 0.18
8 -11 -2 0.01 0.18
2 11 -8 -0.34 0.27
-11 8 2 -0.24 0.18
11 8 -2 -0.64 0.2
8 2 -11 -0.12 0.21
8 11 2 -0.04 0.22
2 -11 8 -0.38 0.24
8 -2 11 0.1 0.16
2 8 11 -0.35 0.18
-2 8 -11 -0.35 0.21
-8 11 -2 -0.31 0.22
-8 2 11 -0.06 0.21
-8 2 11 -0.31 0.19
-2 -11 -8 -0.17 0.18
-2 11 8 -0.42 0.22
8 3 11 9.37 0.79
-11 3 8 11.35 0.82
8 3 11 9.96 0.8
8 11 -3 9.28 0.91
3 -8 11 9.23 0.9
3 8 -11 9.52 0.92
-3 11 -8 9.46 0.94
-8 11 3 9.65 0.87
11 3 -8 11.04 0.88
-11 -8 3 9.1 0.89
-8 -11 -3 9.44 0.86
-3 8 11 9.49 0.85
3 11 8 9.01 0.87
8 -11 3 10.08 0.88
-3 -8 -11 9.84 0.81
11 8 3 9.58 0.85
-11 8 -3 9.79 0.85
11 -3 8 9.22 0.77
-8 -3 11 10.26 0.91
-8 3 -11 9.98 0.82
-11 3 8 10.13 0.87
3 -11 -8 9.34 0.84
-3 -11 8 9.36 0.92
11 -8 -3 9.91 0.83
3 -8 -11 9.66 0.82
-3 -11 -8 9.16 0.83
8 -3 11 9.83 0.84
-3 11 8 9.86 0.87
-11 -8 -3 9.36 0.83
3 8 11 9.97 0.85
-11 -3 8 10.37 0.9
-8 -11 3 9.76 0.9
-8 11 -3 9.54 0.88
8 3 -11 9.62 0.9
8 -11 -3 10.18 0.84
-8 3 11 10.08 0.88
-3 8 -11 10.39 0.91
-11 8 3 9.93 0.84
3 11 -8 8.26 0.92
-11 3 -8 9.18 0.77
11 -8 3 9.68 0.82
11 8 -3 9.64 0.89
3 -11 8 8.97 0.89
-3 -8 11 8.68 0.94
-8 3 11 10.42 0.83
8 11 3 8.66 0.88
-8 4 -11 7.13 0.63
8 4 11 7.06 0.6
4 11 8 6.91 0.71
-4 -11 8 7.61 0.76
8 -11 4 6.66 0.69
8 11 -4 7.48 0.73
11 -8 -4 7.37 0.63
11 -4 8 6.59 0.59
-11 -8 4 6.37 0.69
11 8 4 7.06 0.66
4 8 -11 6.68 0.74
-11 -4 -8 6.48 0.55
-8 11 4 6.97 0.72
-11 8 -4 7.1 0.67
-4 -8 -11 7.33 0.63
-8 -4 11 7.12 0.74
-8 -11 -4 6.93 0.68
-4 11 -8 6.35 0.73
-4 8 11 6.79 0.68
4 -11 -8 6.83 0.65
4 -8 11 6.75 0.7
11 4 -8 7.45 0.7
-11 4 8 7.22 0.63
8 -4 11 6.76 0.65
11 8 -4 6.25 0.72
-11 -8 -4 6.84 0.64
-4 -11 -8 7.24 0.66
-8 -11 4 6.63 0.72
8 4 -11 6.95 0.72
11 -8 4 6.7 0.63
11 4 8 6.9 0.58
8 11 4 6.27 0.71
-11 -4 8 7.37 0.71
-11 4 -8 6.58 0.6
4 -8 -11 7.26 0.64
4 -11 8 6.93 0.74
4 11 -8 6.49 0.74
-4 -8 11 6.61 0.76
8 -11 -4 7.14 0.65
-4 11 8 7.43 0.7
-8 4 11 7.13 0.65
-4 8 -11 6.24 0.73
-8 11 -4 6.67 0.69
4 8 11 6.94 0.66
-11 8 4 6.78 0.68
5 -8 11 0.83 0.23
-11 -5 -8 1.01 0.11
8 -11 5 0.85 0.21
-11 8 -5 0.97 0.2
-8 -5 11 1.3 0.26
-11 5 8 1.16 0.19
-8 -11 -5 1.01 0.2
5 8 -11 0.93 0.25
-5 -8 -11 0.81 0.16
5 -11 -8 0.88 0.19
-5 11 -8 0.74 0.25
11 8 5 0.7 0.19
11 -8 -5 0.84 0.17
-5 -11 8 0.98 0.28
-8 11 5 0.52 0.2
-11 -8 5 0.72 0.24
11 -5 8 0.86 0.16
8 11 -5 0.63 0.24
8 5 11 0.58 0.16
5 11 8 0.58 0.22
-8 5 -11 0.85 0.17
11 5 -8 0.8 0.23
-5 8 11 0.8 0.21
-8 -5 -11 1.04 0.13
-11 8 5 0.72 0.19
5 -11 8 0.59 0.24
-5 11 8 0.78 0.22
8 -11 -5 0.96 0.19
-5 -11 -8 1.06 0.19
-11 5 -8 0.62 0.16
11 -5 -8 1.06 0.16
8 -5 11 0.71 0.2
-8 -11 5 1.04 0.25
-8 11 -5 0.52 0.22
5 -8 -11 1.03 0.19
5 8 11 0.84 0.19
-5 -8 11 0.98 0.26
-5 8 -11 0.8 0.23
8 11 5 0.69 0.22
11 8 -5 0.97 0.24
11 -8 5 0.7 0.16
-8 5 11 0.85 0.18
-11 -8 -5 0.74 0.17
-11 -5 8 1.11 0.23
11 5 8 0.62 0.15
8 5 -11 0.72 0.24
5 11 -8 0.6 0.26
-11 -8 6 0.25 0.21
6 -11 -8 0.59 0.16
-11 -6 -8 0.46 0.11
-11 6 8 0.19 0.17
11 8 6 0.49 0.17
-11 8 -6 0.42 0.19
-8 -11 -6 0.24 0.17
6 11 8 0.21 0.2
-8 6 -11 0.44 0.17
8 -11 6 0.34 0.19
6 8 -11 0.45 0.21
11 -8 -6 0.52 0.15
11 6 -8 0.42 0.21
-8 -6 11 0.71 0.24
-6 8 11 0.44 0.19
8 11 -6 0.2 0.24
8 6 11 0.65 0.15
-6 -8 -11 0.6 0.14
-8 11 6 0.41 0.2
11 -6 8 0.5 0.15
6 -8 11 0.44 0.21
-6 -11 8 0.32 0.25
8 -6 -11 0.6 0.15
-6 11 -8 0.06 0.24
6 -8 -11 0.45 0.17
-8 11 -6 0.55 0.22
8 -11 -6 0.43 0.17
11 8 -6 0.33 0.21
8 6 -11 0.19 0.2
11 -6 -8 0.49 0.15
6 8 11 0.58 0.17
-8 6 11 0.5 0.17
11 -8 6 0.4 0.16
-11 -6 8 0.42 0.22
8 -6 11 0.36 0.18
-11 -8 -6 0.35 0.14
6 11 -8 0.14 0.24
-11 8 6 0.68 0.19
-8 -6 -11 0.34 0.12
-6 8 -11 0.37 0.2
-6 -8 11 0.55 0.23
-11 6 -8 0.4 0.16
11 6 8 0.47 0.15
8 11 6 0.36 0.2
-8 -11 6 0.22 0.24
-6 11 8 0.49 0.2
-6 -11 -8 0.27 0.16
6 -11 8 0.37 0.21
-7 -8 -11 -0.05 0.12
-11 8 -7 0.28 0.18
-8 7 -11 0.08 0.18
-11 -7 -8 -0.03 0.11
-7 -11 8 0.01 0.24
8 -11 7 -0.13 0.19
8 11 -7 0.14 0.23
11 8 7 -0.02 0.17
-11 -8 7 -0.1 0.22
11 -7 8 0.21 0.16
-11 7 8 0.03 0.18
-8 11 7 0.06 0.2
-7 11 -8 -0.11 0.22
8 7 11 -0.12 0.15
11 -8 -7 0.07 0.15
-7 8 11 0.01 0.18
8 -7 -11 0.04 0.14
7 -8 11 -0.06 0.18
7 8 -11 -0.38 0.23
11 7 -8 -0.09 0.2
7 -11 -8 -0.11 0.16
7 11 8 -0.04 0.2
-8 -7 11 0.38 0.22
-8 -11 -7 -0.02 0.16
-11 7 -8 0.17 0.17
-8 11 -7 0.22 0.22
-11 -7 8 0.07 0.23
-11 -8 -7 -0.11 0.12
7 11 -8 0 0.24
7 8 11 0.05 0.16
-8 -11 7 -0.01 0.23
7 -8 -11 -0.03 0.15
7 -11 8 0.26 0.2
-8 7 11 0.05 0.17
11 -7 -8 -0.07 0.14
11 -8 7 0.02 0.16
-8 -7 -11 0.05 0.11
11 8 -7 0.02 0.2
8 7 -11 0.03 0.21
8 -11 -7 -0.13 0.16
11 7 8 0.18 0.15
-7 8 -11 0.07 0.19
8 11 7 -0.15 0.19
-7 11 8 -0.03 0.19
-11 8 7 0.2 0.18
-7 -11 -8 -0.1 0.15
8 -7 11 0.52 0.18
-7 -8 11 0.2 0.23
-8 -11 8 0.08 0.22
-11 8 8 -0.26 0.17
-11 8 -8 0 0.19
11 -8 8 -0.12 0.16
-8 -11 -8 -0.02 0.15
11 8 -8 -0.1 0.21
-11 -8 -8 -0.01 0.12
-8 -8 -11 0.06 0.12
8 11 -8 -0.06 0.25
-8 11 -8 -0.14 0.21
8 11 8 0.17 0.2
11 8 8 -0.11 0.17
-11 -8 8 -0.06 0.21
8 8 11 0.01 0.16
-8 8 11 -0.25 0.18
-8 -8 11 0.01 0.23
-8 11 8 -0.04 0.21
8 -11 -8 -0.08 0.15
8 -11 8 0.07 0.2
-8 8 -11 0.13 0.19
8 -8 11 0.08 0.19
8 8 -11 -0.17 0.21
8 -8 -11 -0.15 0.14
11 -8 -8 -0.31 0.15
0 9 -11 10.73 0.91
9 -11 0 9.32 0.83
-11 -9 0 7.47 0.85
-9 11 0 9.73 0.88
-9 -11 0 7.28 0.87
0 -9 11 10.22 0.91
-9 0 11 8.94 0.81
0 -11 -9 11.49 0.82
0 -11 9 9.73 0.9
0 11 -9 12.01 0.94
0 11 9 10.72 0.85
9 0 11 8.67 0.78
9 0 11 8.17 0.74
11 -9 0 9.43 0.8
-11 0 9 8.05 0.81
11 9 0 8.48 0.86
-9 0 11 7.81 0.89
0 -9 -11 10.57 0.8
-11 0 9 8.24 0.89
-11 9 0 10.35 0.84
-9 -1 11 -0.03 0.23
11 -9 -1 -0.09 0.18
-9 -11 -1 -0.25 0.22
1 11 9 -0.23 0.21
11 9 1 -0.29 0.22
-11 9 -1 -0.39 0.2
-11 1 9 -0.3 0.22
9 1 11 0.11 0.14
1 -9 11 -0.23 0.24
1 9 -11 -0.31 0.24
-11 -9 1 -0.39 0.21
9 1 11 -0.15 0.11
-1 -11 9 -0.37 0.26
9 11 -1 -0.46 0.24
-9 11 1 -0.27 0.22
1 -11 -9 -0.12 0.17
-1 -9 -11 -0.16 0.16
11 -1 9 -0.13 0.06
-1 11 -9 -0.28 0.26
-1 9 11 -0.07 0.21
9 -11 1 -0.32 0.18
-11 1 9 -0.23 0.16
9 -11 -1 -0.18 0.19
9 -1 11 -0.03 0.1
-9 11 -1 -0.41 0.23
9 11 1 -0.01 0.23
1 9 11 0.07 0.2
-1 -9 11 -0.26 0.25
11 -9 1 -0.28 0.17
-1 9 -11 -0.1 0.25
-11 -1 9 -0.43 0.22
1 -9 -11 -0.21 0.18
-1 -11 -9 -0.1 0.19
11 9 -1 -0.15 0.21
-1 11 9 -0.34 0.23
-9 1 11 -0.28 0.24
1 -11 9 -0.07 0.26
1 11 -9 -0.13 0.27
-9 1 11 -0.22 0.17
9 -1 11 -0.28 0.15
-9 -11 1 -0.62 0.24
-11 9 1 -0.4 0.2
-11 -9 -1 -0.22 0.2
-11 2 9 9.67 0.87
2 11 9 10.93 0.89
9 -11 2 9.64 0.85
9 11 -2 9.58 0.93
-11 2 9 8.81 0.82
11 -2 9 9.46 0.76
11 2 -9 8.87 0.88
-11 9 -2 9.05 0.87
11 9 2 9.88 0.88
-2 -11 9 9.5 0.92
-2 11 -9 10.32 0.91
9 2 11 9.13 0.77
-2 -9 -11 10 0.82
-9 -2 11 8.33 0.91
-9 2 -11 9.22 0.79
-11 -9 2 9.2 0.9
2 -11 -9 9.4 0.83
-9 11 2 9.04 0.9
2 9 -11 9.56 0.91
2 -9 11 9.4 0.89
9 2 11 9.43 0.79
-9 -11 -2 9.7 0.87
11 -9 -2 10.19 0.82
-2 9 11 11.23 0.86
9 -11 -2 9.22 0.85
2 9 11 9.84 0.85
-2 -11 -9 10.77 0.83
-2 9 -11 9.71 0.9
9 2 -11 8.41 0.89
-11 -2 9 9.77 0.9
9 11 2 9.61 0.9
11 9 -2 11.13 0.9
-2 -9 11 11.11 0.92
2 11 -9 10.12 0.95
-11 -9 -2 7.81 0.85
-9 -11 2 8.75 0.9
-9 11 -2 9.58 0.89
2 -11 9 9.54 0.9
9 -2 11 9.42 0.82
11 -9 2 8.79 0.81
-2 11 9 9.19 0.88
-9 2 11 9.15 0.88
-11 9 2 9.93 0.86
-9 2 11 8.65 0.83
2 -9 -11 9.79 0.83
-9 3 -11 -0.08 0.14
-9 11 3 0.48 0.22
11 9 3 -0.42 0.2
9 3 11 -0.13 0.12
11 -3 9 -0.35 0.12
3 -9 11 -0.5 0.24
9 3 11 -0.42 0.12
-11 3 9 -0.05 0.19
-11 3 9 -0.23 0.16
-3 11 -9 -0.42 0.24
9 -11 3 0.01 0.19
9 11 -3 -0.42 0.23
-3 -9 -11 -0.28 0.15
11 -9 -3 -0.12 0.16
-9 -3 11 -0.14 0.22
-3 -11 9 -0.06 0.26
11 3 -9 -0.04 0.21
-3 9 11 -0.16 0.2
3 11 9 -0.33 0.21
-9 -11 -3 -0.18 0.19
3 -11 -9 -0.26 0.17
-11 9 -3 -0.32 0.19
-11 -9 3 -0.44 0.22
3 9 -11 -0.44 0.23
-3 -11 -9 -0.19 0.18
3 9 11 -0.32 0.19
9 3 -11 -0.24 0.22
3 -9 -11 -0.27 0.17
-3 11 9 -0.15 0.21
-9 3 11 -0.08 0.16
-11 -9 -3 -0.17 0.18
-11 -3 9 0.03 0.23
-11 3 -9 -0.05 0.1
-9 11 -3 -0.27 0.21
11 -9 3 0.01 0.17
11 9 -3 -0.31 0.21
-3 -9 11 -0.46 0.25
-3 9 -11 -0.44 0.23
3 -11 9 -0.35 0.24
11 3 9 -0.25 0.1
11 3 9 -0.07 0.09
9 11 3 -0.13 0.22
-9 3 11 -0.28 0.21
3 11 -9 -0.39 0.26
9 -11 -3 -0.27 0.17
9 -3 11 -0.18 0.16
-9 -11 3 -0.3 0.23
-11 9 3 -0.16 0.19
-11 -9 4 0.95 0.24
-4 9 11 0.79 0.21
4 -11 -9 0.79 0.18
-4 -9 -11 0.9 0.17
11 9 4 0.5 0.2
-9 -4 11 0.96 0.24
-9 -11 -4 0.58 0.21
-9 4 -11 0.79 0.16
4 -9 11 0.9 0.24
4 9 -11 0.87 0.26
-11 4 9 0.98 0.18
-4 -11 9 1.08 0.28
9 -11 4 0.97 0.21
-11 4 9 0.87 0.22
9 4 11 0.96 0.15
11 -9 -4 0.53 0.17
11 4 -9 0.77 0.23
11 -4 9 0.73 0.15
-9 11 4 0.73 0.22
9 11 -4 0.74 0.25
-11 9 -4 0.66 0.22
-4 11 -9 0.69 0.27
4 11 9 0.71 0.22
-11 -9 -4 0.38 0.19
-4 9 -11 0.86 0.24
11 4 9 0.84 0.14
-11 -4 9 0.56 0.24
9 -11 -4 0.89 0.21
4 11 -9 0.89 0.27
11 9 -4 0.75 0.24
4 9 11 0.76 0.21
-9 -11 4 0.78 0.25
4 -9 -11 1.09 0.19
-4 -11 -9 0.97 0.19
-9 11 -4 0.73 0.23
9 -4 11 0.91 0.19
9 4 -11 0.45 0.22
-11 9 4 0.83 0.21
-11 4 -9 0.69 0.14
9 11 4 0.63 0.22
11 -9 4 0.86 0.18
-4 11 9 0.88 0.23
-9 4 11 0.64 0.22
-9 4 11 1.22 0.19
-4 -9 11 0.77 0.25
4 -11 9 0.57 0.24
11 5 -9 0.24 0.22
11 9 5 0.04 0.18
9 5 11 0.1 0.13
11 -9 -5 -0.05 0.15
-9 -11 -5 0 0.17
-9 11 5 -0.2 0.19
-9 -5 11 0.15 0.23
9 -11 5 -0.27 0.19
-11 9 -5 0.18 0.19
5 -11 -9 0.24 0.18
11 -5 9 0.04 0.15
-11 -9 5 0.08 0.21
-11 -5 -9 0.08 0.09
9 11 -5 -0.05 0.24
-5 9 11 0.21 0.2
-5 11 -9 -0.02 0.24
5 -9 11 -0.24 0.21
-5 -9 -11 -0.08 0.14
5 9 -11 0.03 0.23
5 11 9 -0.22 0.2
-5 -11 9 -0.08 0.24
-9 5 -11 0.15 0.15
-11 5 9 0.24 0.18
5 -11 9 -0.07 0.21
9 -11 -5 0.03 0.16
-11 9 5 -0.05 0.19
9 -5 11 -0.09 0.17
11 5 9 -0.02 0.13
-9 5 11 -0.06 0.16
11 -9 5 0.17 0.16
11 9 -5 0.09 0.21
-5 9 -11 -0.26 0.22
-5 11 9 0.12 0.21
-9 11 -5 -0.27 0.22
-11 -9 -5 0 0.16
9 11 5 0.08 0.21
-9 -5 -11 0.13 0.1
-5 -9 11 0.04 0.24
-5 -11 -9 0.26 0.16
5 11 -9 0 0.23
5 -9 -11 0 0.15
-11 5 -9 0.1 0.14
-9 -11 5 0.05 0.23
-11 -5 9 0.04 0.22
5 9 11 0.06 0.17
9 5 -11 0.05 0.22
-11 -9 6 -0.46 0.22
9 11 -6 0.12 0.22
-6 11 -9 -0.23 0.22
11 -6 9 -0.22 0.15
-6 -11 9 -0.19 0.23
11 6 -9 0.12 0.2
6 -9 11 -0.07 0.2
-9 6 -11 -0.18 0.16
9 -6 -11 -0.18 0.14
-6 -9 -11 0.07 0.14
6 -11 -9 -0.19 0.15
-11 6 9 0.01 0.16
-9 -11 -6 -0.09 0.16
-9 11 6 -0.1 0.21
11 9 6 -0.04 0.17
6 11 9 0.04 0.2
-6 9 11 0.07 0.19
11 -9 -6 -0.02 0.15
-11 -6 -9 -0.04 0.1
-9 -6 11 -0.26 0.22
9 6 11 -0.12 0.14
-11 9 -6 -0.4 0.19
9 -11 6 0.12 0.19
6 9 -11 -0.04 0.23
-6 9 -11 -0.08 0.21
6 -9 -11 0.04 0.15
11 -9 6 -0.12 0.17
-9 6 11 -0.2 0.16
-9 -11 6 -0.28 0.24
11 -6 -9 -0.13 0.14
6 9 11 -0.08 0.17
9 -6 11 -0.12 0.17
9 11 6 0.07 0.2
11 6 9 -0.23 0.14
9 6 -11 -0.15 0.21
-11 -6 9 -0.17 0.22
-11 6 -9 0 0.16
9 -11 -6 -0.06 0.16
11 9 -6 -0.45 0.21
-6 -9 11 -0.34 0.25
-11 -9 -6 -0.36 0.14
-6 -11 -9 -0.2 0.15
6 11 -9 -0.05 0.24
6 -11 9 -0.06 0.22
-6 11 9 -0.22 0.2
-11 9 6 -0.04 0.18
-9 -6 -11 -0.09 0.11
-9 11 -6 -0.03 0.22
-11 7 9 -0.12 0.18
-7 -9 -11 -0.02 0.13
-11 -9 7 0 0.22
-11 9 -7 -0.08 0.19
-9 11 7 -0.08 0.19
-7 9 11 0.01 0.18
7 -11 -9 0.05 0.16
7 9 -11 0.09 0.22
9 11 -7 0.21 0.23
-7 -11 9 -0.29 0.23
-9 -11 -7 -0.08 0.16
-11 -7 -9 0.06 0.11
-9 7 -11 -0.29 0.17
7 11 9 0.06 0.2
9 7 11 -0.12 0.15
11 -9 -7 -0.05 0.14
11 7 -9 -0.08 0.21
9 -7 -11 -0.08 0.14
7 -9 11 -0.05 0.2
11 9 7 0.1 0.18
11 -7 9 -0.15 0.16
-9 -7 11 -0.07 0.22
9 -11 7 0.02 0.19
-7 11 -9 -0.15 0.22
-9 7 11 -0.37 0.17
11 -7 -9 -0.2 0.14
7 9 11 -0.15 0.17
-7 11 9 -0.16 0.19
11 7 9 -0.1 0.15
-7 -11 -9 -0.08 0.15
9 -7 11 -0.15 0.18
-11 7 -9 -0.11 0.17
9 11 7 0.17 0.2
-9 -7 -11 -0.12 0.15
-11 -9 -7 -0.02 0.17
9 -11 -7 0.04 0.16
11 9 -7 -0.07 0.21
-7 -9 11 -0.29 0.23
-9 -11 7 -0.16 0.23
-11 -7 9 -0.13 0.22
7 11 -9 0.12 0.24
-7 9 -11 0.06 0.21
-11 9 7 -0.02 0.18
7 -9 -11 -0.2 0.15
7 -11 9 -0.33 0.2
11 -9 7 -0.18 0.17
9 7 -11 -0.48 0.22
-9 11 -7 0.08 0.22
9 8 11 -0.21 0.17
-9 11 8 -0.17 0.19
8 -11 -9 -0.03 0.16
-9 8 -11 0.22 0.18
-8 11 -9 -0.14 0.22
9 -8 -11 0.12 0.16
11 8 -9 -0.09 0.21
9 -11 8 -0.06 0.2
9 11 -8 0.31 0.23
8 9 -11 -0.06 0.25
11 9 8 0.07 0.18
-8 -9 -11 -0.02 0.13
-11 9 -8 -0.13 0.19
-9 -11 -8 -0.09 0.15
-8 9 11 0.02 0.21
11 -9 -8 -0.08 0.14
-11 -8 -9 0.05 0.12
8 -9 11 0.05 0.2
8 11 9 -0.25 0.2
11 -8 9 0.08 0.17
-11 8 9 0.01 0.18
-8 -11 9 0.03 0.22
-11 -9 8 -0.25 0.22
-9 -8 11 -0.06 0.25
8 9 11 -0.17 0.17
9 11 8 -0.17 0.19
11 -9 8 -0.02 0.17
-9 11 -8 -0.07 0.21
-11 8 -9 0.09 0.19
8 11 -9 -0.05 0.21
11 -8 -9 -0.15 0.14
-8 11 9 -0.17 0.21
9 -11 -8 -0.07 0.15
9 -8 11 -0.08 0.18
9 8 -11 0.04 0.22
-11 -9 -8 -0.11 0.13
8 -9 -11 -0.06 0.26
-11 -8 9 0.22 0.23
-8 -9 11 -0.12 0.29
-8 9 -11 -0.33 0.2
-9 -11 8 -0.04 0.22
8 -11 9 0.28 0.2
-9 8 11 -0.09 0.18
11 8 9 -0.05 0.17
-8 -11 -9 -0.01 0.15
-11 9 8 -0.12 0.19
-9 -8 -11 -0.07 0.12
11 9 -8 -0.11 0.21
-9 9 -11 -0.08 0.2
-9 -9 11 -0.1 0.25
9 -9 -11 -0.05 0.16
-9 11 9 -0.41 0.31
9 -11 -9 -0.1 0.2
9 -11 9 -0.33 0.19
-11 -9 9 0.07 0.23
11 9 9 -0.07 0.18
9 9 -11 -0.28 0.27
-11 9 9 -0.13 0.18
-9 11 -9 -0.23 0.22
-11 9 -9 0.12 0.2
9 -9 11 -0.03 0.2
9 9 11 -0.26 0.18
9 11 9 0.02 0.2
11 -9 -9 -0.17 0.16
-9 9 11 -0.02 0.2
-9 -11 -9 -0.07 0.15
-9 -9 -11 -0.14 0.13
-11 -9 -9 0.05 0.13
11 -9 9 0.01 0.17
11 9 -9 -0.27 0.22
0 10 -11 0.21 0.25
-11 0 10 0.44 0.17
-10 0 11 0.07 0.18
10 -11 0 -0.34 0.19
0 11 -10 -0.07 0.27
-11 -10 0 0.21 0.23
0 10 11 -0.03 0.23
10 11 0 -0.14 0.24
-10 11 0 -0.33 0.23
11 0 10 0.23 0.08
11 10 0 -0.13 0.23
-10 0 11 -0.06 0.22
-10 -11 0 0.1 0.23
-11 10 0 0.45 0.22
11 0 10 0 0.11
0 11 10 -0.02 0.22
10 0 11 0.24 0.14
10 0 11 0.19 0.1
0 -11 10 -0.23 0.26
11 -10 0 0.05 0.18
-11 0 10 0.18 0.23
0 -10 -11 -0.11 0.17
0 -10 11 -0.13 0.25
0 -11 -10 -0.05 0.19
-1 -10 -11 6.71 0.61
-11 1 10 6.88 0.71
-11 1 10 7.21 0.61
-11 -10 1 6.49 0.7
-1 11 -10 4.66 0.73
-11 10 -1 7 0.68
11 -1 10 6.49 0.5
-10 11 1 6.87 0.72
11 10 1 6.68 0.7
-10 -1 11 6.75 0.72
-1 -11 10 5.8 0.77
11 -10 -1 6.24 0.63
10 1 11 5.75 0.56
-10 -11 -1 5.5 0.68
1 -10 11 6.27 0.74
1 10 -11 6.13 0.75
10 1 11 5.88 0.53
-1 10 11 5.21 0.7
1 11 10 6.91 0.67
10 11 -1 5.34 0.73
10 -11 1 5.71 0.66
1 -11 -10 5.73 0.62
11 -1 10 6.13 0.54
10 -11 -1 6.85 0.65
1 -10 -11 6.33 0.64
1 -11 10 6.06 0.77
10 -1 11 6.06 0.52
11 1 10 6.28 0.53
-1 11 10 6.47 0.7
10 11 1 5.02 0.71
-10 11 -1 5.59 0.7
-11 -10 -1 6.82 0.7
11 -10 1 6.75 0.63
11 10 -1 5.16 0.71
-10 1 11 6.3 0.62
-1 -11 -10 5.79 0.62
-1 -10 11 6.32 0.74
-1 10 -11 6.38 0.73
-11 -1 10 7 0.71
10 -1 11 5.65 0.58
-11 10 1 5.61 0.69
1 10 11 6.37 0.66
-10 1 11 5.79 0.71
1 11 -10 6.55 0.76
11 1 10 6.34 0.51
-10 -11 1 6.15 0.71
-2 10 11 21.74 1.68
11 -10 -2 20.91 1.67
10 2 11 20.13 1.64
-11 2 10 21.53 1.66
2 11 10 20.22 1.68
2 10 -11 22.21 1.73
-10 -2 11 20.48 1.71
-2 11 -10 21.35 1.74
10 -11 2 20.43 1.67
-2 -11 10 20.96 1.73
2 -10 11 21.78 1.72
-11 2 10 20.4 1.7
-11 10 -2 22.09 1.69
10 2 11 20.51 1.63
-10 11 2 21.35 1.7
-10 -11 -2 20.94 1.7
-2 -10 -11 20.4 1.66
2 -11 -10 22.31 1.67
11 10 2 22.29 1.7
10 11 -2 21.44 1.72
11 -2 10 21.86 1.64
-11 -10 2 21.46 1.7
11 2 10 20.06 1.62
-10 2 11 21.38 1.67
-2 -10 11 21.4 1.74
2 11 -10 21.41 1.73
2 -10 -11 22.52 1.67
10 -2 11 21.59 1.65
10 2 -11 20.78 1.71
-2 11 10 21.92 1.71
-11 10 2 21.07 1.7
-11 -10 -2 19.71 1.68
2 10 11 23.07 1.7
2 -11 10 22.01 1.73
-2 -11 -10 21.22 1.66
-11 -2 10 21.05 1.71
10 -11 -2 21.06 1.66
10 11 2 20.36 1.7
11 10 -2 22.63 1.71
-2 10 -11 21.41 1.72
11 2 10 21.33 1.62
-10 11 -2 20.94 1.7
11 -10 2 21.3 1.67
-10 -11 2 20.74 1.7
-10 2 11 20.59 1.7
-3 -11 10 4.59 0.59
-11 3 10 3.7 0.43
11 3 -10 4.17 0.51
3 -11 -10 2 0.28
-10 3 -11 3.47 0.36
10 3 11 3.36 0.34
3 10 -11 2.07 0.33
3 -10 11 2.45 0.33
-11 10 -3 2.39 0.3
-3 10 11 2.3 0.3
3 11 10 1.89 0.3
10 3 11 3.04 0.33
-3 -10 -11 3.89 0.43
-10 11 3 2.44 0.31
-11 3 10 2.31 0.31
10 -11 3 2.2 0.28
10 11 -3 2.44 0.33
11 -10 -3 3.14 0.4
11 -3 10 3.13 0.36
-11 -10 3 2.19 0.32
11 10 3 3.8 0.5
-3 11 -10 2.24 0.34
-10 -3 11 2.5 0.33
-10 -11 -3 2.34 0.29
3 10 11 2.38 0.3
10 -11 -3 3.36 0.46
-3 10 -11 2.19 0.34
10 -3 11 2.78 0.4
3 -11 10 4.18 0.59
3 11 -10 2.61 0.35
-11 -3 10 2.25 0.33
11 -10 3 3.52 0.45
10 3 -11 1.96 0.3
-3 -10 11 2.15 0.35
-10 -11 3 2.09 0.32
11 3 10 3.27 0.3
11 3 10 2.89 0.33
11 10 -3 2.29 0.32
-10 3 11 3.39 0.43
-3 -11 -10 3.03 0.42
-11 3 -10 3.54 0.33
3 -10 -11 3.49 0.44
-10 11 -3 1.96 0.31
10 11 3 2.05 0.32
-11 10 3 4.15 0.5
-3 11 10 2.35 0.32
-11 -10 -3 3.49 0.47
-10 3 11 2.79 0.32
-10 -11 -4 0 0.19
-11 10 -4 0.02 0.21
4 -10 11 0.05 0.24
-11 -10 4 -0.17 0.23
10 4 11 0.16 0.12
4 -11 -10 -0.08 0.16
-11 4 10 0.18 0.21
-11 4 10 0.28 0.17
4 11 10 -0.13 0.2
-10 11 4 0.14 0.21
-4 -10 -11 -0.06 0.16
-10 4 -11 -0.06 0.14
10 11 -4 0.27 0.23
10 -11 4 -0.09 0.18
-4 11 -10 0.09 0.24
11 -4 10 -0.06 0.14
11 4 -10 0.3 0.22
10 4 11 0.2 0.12
11 -10 -4 0.29 0.16
4 10 -11 -0.14 0.22
-4 -11 10 0.06 0.25
11 10 4 0.01 0.21
-10 -4 11 0.16 0.23
-4 10 11 0.12 0.21
11 4 10 0.11 0.1
4 -10 -11 -0.07 0.17
-11 -10 -4 0.17 0.18
-4 -10 11 0.05 0.26
4 11 -10 -0.27 0.24
-10 4 11 0.37 0.19
-4 -11 -10 0.02 0.17
10 -11 -4 0.03 0.16
4 -11 10 -0.57 0.24
-11 -4 10 0.01 0.22
11 -10 4 0.21 0.17
11 10 -4 -0.08 0.22
11 4 10 -0.15 0.13
-4 10 -11 0.08 0.24
-10 -11 4 0.45 0.25
10 -4 11 0.28 0.16
10 11 4 0.19 0.21
-11 4 -10 0.1 0.12
-10 11 -4 -0.15 0.22
-11 10 4 0.3 0.19
-4 11 10 0.33 0.23
4 10 11 0.03 0.18
-10 4 11 0.07 0.19
10 4 -11 -0.03 0.22
10 -11 5 0.36 0.19
-10 11 5 0.61 0.21
5 -11 -10 0.38 0.17
11 -10 -5 0.43 0.16
-11 -5 -10 0.51 0.1
5 11 10 0.26 0.21
5 10 -11 0.87 0.26
10 11 -5 0.18 0.24
11 10 5 0.72 0.2
-10 -11 -5 0.42 0.19
11 -5 10 0.36 0.15
11 5 -10 0.62 0.22
-11 10 -5 0.38 0.21
5 -10 11 0.6 0.22
-11 -10 5 0.52 0.24
-10 5 -11 0.3 0.15
10 5 11 0.6 0.15
-5 -10 -11 0.58 0.16
-5 -11 10 0.53 0.25
-5 10 11 0.52 0.2
-11 5 10 0.42 0.18
-10 -5 11 0.49 0.24
-5 11 -10 0.2 0.23
-10 11 -5 0.36 0.22
5 10 11 0.47 0.19
10 -5 11 0.35 0.17
-5 11 10 0.4 0.22
-11 -10 -5 0.22 0.17
-10 -11 5 0.62 0.24
5 11 -10 0.59 0.27
10 11 5 0.34 0.21
-11 5 -10 0.39 0.15
-5 -11 -10 0.59 0.17
10 5 -11 0.09 0.21
5 -11 10 0.63 0.23
11 -10 5 0.64 0.18
-11 -5 10 0.27 0.24
-11 10 5 0.37 0.2
11 10 -5 0.4 0.24
5 -10 -11 0.26 0.17
-10 5 11 0.62 0.18
11 5 10 0.66 0.14
10 -11 -5 0.5 0.17
-5 10 -11 0.66 0.23
-5 -10 11 0.47 0.25
-6 10 11 0.22 0.19
-10 6 -11 0.14 0.16
-10 11 6 0.01 0.2
6 -10 11 0.02 0.22
-6 11 -10 0.26 0.23
10 11 -6 0.07 0.23
6 -11 -10 0.17 0.16
6 11 10 0.03 0.2
10 -6 -11 0.33 0.16
-11 10 -6 0.03 0.2
10 -11 6 -0.1 0.2
-11 -6 -10 0.09 0.1
-11 -10 6 -0.05 0.22
11 -10 -6 0.15 0.15
-11 6 10 0.45 0.17
-10 -11 -6 0.15 0.16
11 10 6 0.41 0.19
11 -6 10 0.08 0.16
11 6 -10 0.12 0.22
-6 -10 -11 0.09 0.15
6 10 -11 0.28 0.23
-10 -6 11 0.21 0.22
10 6 11 0.04 0.15
-6 -11 10 0.29 0.25
10 -6 11 0.14 0.17
6 11 -10 0.01 0.22
11 -6 -10 0.19 0.15
11 10 -6 0.06 0.21
11 -10 6 0.02 0.18
-11 -6 10 0.27 0.23
-10 -11 6 0.07 0.23
-10 11 -6 0.42 0.22
-6 10 -11 -0.04 0.21
-11 6 -10 0.04 0.15
-11 -10 -6 0.1 0.15
-6 11 10 0.27 0.19
10 6 -11 0.23 0.23
6 10 11 0.15 0.19
-6 -10 11 0.07 0.24
10 11 6 0.17 0.2
6 -10 -11 0.04 0.16
11 6 10 0.23 0.15
-11 10 6 0.13 0.2
-10 -6 -11 0.11 0.1
10 -11 -6 0.12 0.17
6 -11 10 0.21 0.21
-10 6 11 0.12 0.17
-6 -11 -10 0.16 0.16
-10 -7 11 0.02 0.23
-10 7 -11 0.08 0.17
-11 10 -7 -0.06 0.21
-11 7 10 0.03 0.18
11 -10 -7 0 0.16
-11 -7 -10 0.01 0.11
11 7 -10 0.16 0.21
-7 11 -10 0.11 0.23
7 -11 -10 -0.17 0.28
-10 -11 -7 0.16 0.16
7 11 10 0.11 0.2
10 -7 -11 0.04 0.16
-10 11 7 0.12 0.2
-7 -10 -11 0.03 0.14
11 -7 10 -0.25 0.16
10 11 -7 -0.28 0.21
10 -11 7 0.3 0.19
11 10 7 -0.23 0.19
-11 -10 7 -0.05 0.22
7 -10 11 0.04 0.21
10 7 11 -0.01 0.16
10 -7 11 -0.21 0.17
-10 -7 -11 -0.09 0.11
11 -10 7 0.15 0.18
-10 11 -7 0.04 0.21
-10 7 11 0.04 0.18
10 -11 -7 -0.18 0.15
11 7 10 -0.05 0.16
-10 -11 7 0.07 0.23
-11 10 7 -0.01 0.19
7 -10 -11 -0.07 0.24
10 7 -11 -0.26 0.21
-7 -11 -10 0.05 0.15
-11 -10 -7 -0.09 0.15
-11 7 -10 0.26 0.17
-7 10 -11 -0.17 0.21
7 -11 10 -0.09 0.21
-11 -7 10 -0.01 0.23
10 11 7 -0.09 0.2
11 -7 -10 0.1 0.14
7 10 11 -0.04 0.19
11 10 -7 -0.35 0.22
-10 11 8 0.07 0.27
11 8 -10 0.1 0.22
11 10 8 -0.03 0.19
8 11 10 0.1 0.2
-8 10 11 -0.01 0.19
-11 -8 -10 0 0.12
8 -10 11 -0.04 0.2
8 10 -11 0.28 0.22
-11 8 10 0.11 0.21
-11 -10 8 -0.06 0.23
-11 10 -8 0.19 0.2
10 8 11 -0.11 0.17
-8 -11 10 -0.3 0.24
-10 -8 11 0.21 0.37
-10 8 -11 0.06 0.18
8 -11 -10 0.02 0.17
10 -8 -11 -0.26 0.17
11 -8 10 0.08 0.18
10 -11 8 0.19 0.19
10 11 -8 -0.19 0.23
-10 -11 -8 -0.08 0.15
-8 -10 -11 0.13 0.14
11 -10 -8 0.11 0.16
-8 11 -10 -0.1 0.23
-8 -11 -10 -0.04 0.15
11 8 10 -0.1 0.17
-11 10 8 -0.21 0.19
8 10 11 -0.04 0.19
10 -11 -8 0.34 0.26
-8 10 -11 -0.13 0.21
-11 -10 -8 0.18 0.15
10 11 8 0.08 0.2
11 -8 -10 -0.07 0.21
10 -8 11 -0.42 0.18
11 -10 8 -0.17 0.18
-10 -11 8 0.24 0.23
-10 11 -8 -0.04 0.21
8 11 -10 -0.29 0.25
11 10 -8 -0.02 0.23
8 -10 -11 0.09 0.15
-11 -8 10 0.12 0.23
-11 8 -10 0.14 0.18
8 -11 10 0.05 0.2
-10 -8 -11 -0.11 0.12
-8 -10 11 -0.01 0.24
-8 11 10 0.19 0.2
-10 8 11 -0.03 0.23
9 -10 11 -0.05 0.2
9 10 -11 -0.35 0.24
10 9 11 -0.14 0.19
10 -9 -11 0.07 0.16
10 -11 9 -0.08 0.2
10 11 -9 -0.33 0.25
-9 -11 10 -0.55 0.25
9 11 10 0.11 0.22
11 -9 10 0.01 0.19
11 9 -10 0.04 0.24
-9 11 -10 -0.3 0.24
11 -10 -9 -0.02 0.16
9 -11 -10 -0.01 0.16
-9 10 11 -0.21 0.2
11 10 9 -0.19 0.19
-9 -10 -11 0.17 0.14
-11 9 10 0.03 0.2
-10 -11 -9 -0.1 0.15
-11 -10 9 0.02 0.42
-10 -9 11 -0.11 0.26
-10 11 9 0.08 0.21
-11 10 -9 -0.26 0.21
-11 -9 -10 -0.13 0.13
-10 9 -11 0.22 0.2
-11 9 -10 -0.43 0.2
9 -10 -11 0.1 0.17
10 -11 -9 -0.18 0.16
-9 -11 -10 -0.1 0.15
-11 10 9 -0.02 0.2
-10 -9 -11 -0.15 0.13
-10 11 -9 -0.24 0.23
-9 10 -11 -0.05 0.21
-10 9 11 -0.16 0.2
11 -9 -10 -0.07 0.17
-10 -11 9 -0.17 0.24
10 -9 11 0.24 0.2
10 9 -11 0.06 0.24
9 10 11 0.04 0.2
-9 -10 11 -0.13 0.23
11 -10 9 0.08 0.19
-11 -10 -9 -0.28 0.14
10 11 9 -0.25 0.2
11 9 10 -0.03 0.19
-9 11 10 0.06 0.21
-11 -9 10 -0.04 0.27
9 -11 10 0.04 0.2
9 11 -10 0.05 0.24
10 -10 11 0.03 0.21
10 10 -11 -0.47 0.24
10 10 11 -0.21 0.21
10 11 -10 -0.04 0.25
10 11 10 -0.27 0.22
11 -10 -10 -0.31 0.17
11 -10 10 -0.28 0.21
11 10 -10 -0.28 0.24
11 10 10 -0.6 0.2
10 -11 10 -0.45 0.21
10 -10 -11 -0.43 0.17
-11 -10 10 -0.08 0.24
-11 10 -10 -0.33 0.22
-11 10 10 -0.31 0.22
-10 -11 -10 -0.38 0.16
-10 -11 10 -0.51 0.26
-10 -10 -11 -0.27 0.14
-10 -10 11 -0.16 0.25
-10 10 -11 -0.41 0.22
-11 -10 -10 0.02 0.15
-10 10 11 -0.38 0.22
-10 11 -10 -0.35 0.25
-10 11 10 -0.54 0.21
10 -11 -10 -0.1 0.18
0 11 -11 16.05 1.3
0 11 11 16.67 1.26
11 -11 0 14.9 1.23
11 0 11 16.49 1.18
11 0 11 14.76 1.16
-11 -11 0 14.12 1.27
-11 0 11 13.13 1.28
-11 0 11 12.95 1.21
0 -11 11 15.81 1.3
-11 11 0 13.34 1.25
0 -11 -11 16.36 1.22
11 11 0 15.6 1.28
-1 -11 -11 -0.27 0.18
-1 11 -11 -0.24 0.28
-11 1 11 0.06 0.23
11 11 1 -0.17 0.24
-1 -11 11 -0.04 0.28
-11 1 11 -0.51 0.18
-11 11 1 -0.47 0.23
1 11 -11 -0.55 0.25
-1 11 11 -0.17 0.23
1 -11 -11 -0.32 0.18
1 -11 11 -0.67 0.26
-11 -11 -1 -0.46 0.22
1 11 11 -0.6 0.23
11 -11 -1 -0.51 0.19
11 -11 1 -0.28 0.19
11 -1 11 -0.2 0.09
11 1 11 -0.16 0.12
11 11 -1 -0.59 0.24
-11 -1 11 -0.15 0.19
-11 -11 1 -0.12 0.23
-11 -1 11 -0.44 0.24
-2 11 11 4.38 0.59
-2 11 -11 5.25 0.66
-11 2 11 6.6 0.56
-11 11 -2 5.17 0.62
-11 11 2 5.31 0.58
-2 -11 -11 5.59 0.55
-2 -11 11 6.5 0.66
2 11 11 5.02 0.57
11 -11 -2 5.11 0.55
-11 -2 11 4.21 0.64
-11 2 11 4.16 0.61
11 -11 2 6.27 0.55
11 -2 11 4 0.47
11 2 11 3.82 0.44
11 2 11 3.44 0.42
11 11 2 4.58 0.63
2 11 -11 4.65 0.67
-11 -11 -2 3.78 0.61
-11 -11 2 4.08 0.64
2 -11 11 5.21 0.63
2 -11 -11 4.74 0.53
-11 3 -11 -0.25 0.11
-11 11 -3 -0.66 0.22
-11 11 3 -0.38 0.21
-3 -11 -11 0.02 0.16
-3 -11 11 -0.52 0.24
-3 11 -11 -0.23 0.24
-3 11 11 -0.07 0.2
-11 3 11 -0.43 0.22
-11 3 11 -0.43 0.17
-11 -11 -3 -0.46 0.19
-11 -11 3 -0.49 0.23
-11 -3 11 -0.5 0.25
11 -3 11 -0.07 0.15
11 3 -11 -0.68 0.21
11 3 11 -0.21 0.11
11 3 11 -0.14 0.12
11 11 -3 -0.38 0.23
11 11 3 -0.38 0.21
11 -11 -3 -0.39 0.17
11 -11 3 -0.15 0.18
3 -11 -11 -0.22 0.16
3 -11 11 -0.08 0.25
3 11 -11 -0.11 0.27
3 11 11 -0.18 0.2
11 -4 11 0.8 0.17
11 4 -11 0.61 0.24
-4 -11 -11 0.99 0.18
-4 -11 11 0.66 0.25
-4 11 -11 0.73 0.25
-4 11 11 0.81 0.22
11 -11 -4 0.9 0.18
11 -11 4 0.73 0.19
-11 -11 -4 0.78 0.2
-11 -11 4 0.84 0.25
-11 -4 11 0.7 0.26
-11 4 -11 0.75 0.15
-11 4 11 0.72 0.21
-11 4 11 1.05 0.2
4 -11 11 0.71 0.25
4 11 -11 0.79 0.25
4 11 11 0.98 0.22
11 4 11 0.96 0.15
11 11 -4 1.03 0.26
11 11 4 0.56 0.23
-11 11 -4 0.84 0.24
-11 11 4 0.72 0.21
4 -11 -11 0.85 0.18
11 4 11 0.84 0.13
11 11 -5 -0.15 0.23
11 11 5 -0.33 0.2
-11 11 5 -0.16 0.19
11 5 11 -0.09 0.14
-5 11 -11 0.14 0.23
5 -11 11 -0.19 0.23
5 11 11 -0.1 0.2
11 -11 -5 -0.11 0.16
11 -5 11 -0.18 0.16
11 5 -11 -0.2 0.22
-11 -11 -5 -0.2 0.18
-11 -11 5 0.06 0.23
-11 -5 11 -0.06 0.24
-11 11 -5 -0.12 0.21
11 -11 5 -0.2 0.18
-11 5 -11 -0.18 0.14
-11 5 11 0.04 0.18
-5 -11 -11 -0.1 0.15
11 11 -6 -0.03 0.23
-11 -6 -11 -0.11 0.1
-11 -6 11 -0.11 0.22
-11 -11 -6 -0.03 0.16
-11 -11 6 -0.21 0.24
-6 -11 11 -0.07 0.23
-6 11 -11 -0.03 0.22
-6 11 11 -0.36 0.2
6 -11 -11 -0.07 0.18
6 -11 11 -0.19 0.21
6 11 -11 -0.05 0.24
6 11 11 -0.12 0.19
11 -11 -6 -0.39 0.16
11 -11 6 -0.4 0.18
-11 6 -11 0.06 0.15
-6 -11 -11 -0.13 0.14
11 -6 11 -0.21 0.16
11 6 -11 -0.13 0.22
11 6 11 -0.25 0.15
-11 11 6 -0.16 0.21
11 11 6 -0.24 0.19
-11 6 11 -0.19 0.17
-11 11 -6 0.24 0.21
11 -7 -11 -0.14 0.19
11 11 7 -0.2 0.2
-11 7 11 -0.2 0.24
-11 11 -7 0.02 0.22
-11 11 7 -0.48 0.19
-7 -11 -11 -0.06 0.14
-7 -11 11 -0.43 0.25
7 11 -11 0 0.23
7 11 11 0.13 0.2
11 -11 -7 -0.01 0.15
11 -11 7 -0.11 0.19
11 11 -7 0.05 0.22
-11 -11 -7 -0.01 0.16
-11 -11 7 -0.12 0.22
-7 11 -11 -0.09 0.22
-7 11 11 -0.2 0.19
7 -11 -11 -0.09 0.16
7 -11 11 0.23 0.22
-11 7 -11 -0.1 0.17
-11 -7 -11 0.04 0.1
11 7 11 0.02 0.16
11 -7 11 -0.09 0.17
-8 11 -11 -0.11 0.23
-8 -11 11 0 0.25
-8 -11 -11 0.12 0.15
-11 11 8 0.16 0.22
-11 11 -8 0.02 0.21
-11 -11 -8 0.01 0.16
-11 -8 -11 0.16 0.12
-11 -8 11 -0.21 0.24
-11 8 -11 0.13 0.18
-11 8 11 -0.02 0.19
8 -11 -11 -0.07 0.16
8 -11 11 0.04 0.22
8 11 -11 0.38 0.26
8 11 11 0.15 0.21
11 -11 -8 0.15 0.18
11 -11 8 0.2 0.2
11 -8 -11 -0.15 0.15
11 -8 11 0.2 0.18
11 8 -11 0.11 0.25
11 8 11 0.13 0.18
11 11 8 -0.03 0.2
-8 11 11 -0.07 0.2
-9 11 -11 -0.34 0.24
-9 -11 11 0.05 0.26
9 -11 11 -0.18 0.22
9 11 -11 0.06 0.25
9 11 11 -0.37 0.21
11 -11 -9 -0.15 0.17
11 -11 9 -0.41 0.21
11 -9 -11 -0.32 0.18
11 -9 11 -0.05 0.2
11 9 -11 -0.16 0.23
11 9 11 -0.15 0.2
-9 11 11 -0.19 0.21
9 -11 -11 -0.14 0.17
-11 -11 -9 -0.35 0.16
-11 -11 9 -0.52 0.26
-11 -9 -11 -0.2 0.13
-11 -9 11 -0.34 0.26
-11 9 -11 0.09 0.21
-11 9 11 -0.33 0.21
-11 11 -9 -0.75 0.24
-11 11 9 -0.11 0.22
-9 -11 -11 -0.21 0.16
11 11 9 -0.21 0.22
11 11 -9 -0.05 0.26
11 -11 10 0.39 0.24
11 -11 -10 0.56 0.19
11 10 -11 0.89 0.3
11 10 11 0.8 0.24
11 11 -10 1.06 0.29
11 11 10 0.46 0.24
10 -11 11 0.51 0.24
10 11 -11 0.72 0.27
10 11 11 0.71 0.26
-10 11 11 0.92 0.26
10 -11 -11 0.68 0.21
11 -10 -11 0.53 0.2
11 -10 11 0.9 0.24
-11 -11 -10 0.67 0.19
-11 -11 10 0.55 0.28
-11 -10 -11 0.55 0.17
-11 -10 11 0.51 0.3
-11 10 -11 0.4 0.25
-11 10 11 0.35 0.25
-11 11 -10 0.56 0.27
-11 11 10 0.61 0.24
-10 -11 -11 0.39 0.18
-10 -11 11 0.52 0.28
-10 11 -11 0.53 0.26
-11 11 11 0.45 0.26
11 -11 11 0.45 0.26
-11 -11 -11 0.22 0.18
-11 -11 11 -0.05 0.3
-11 11 -11 0.58 0.27
11 -11 -11 0.44 0.21
11 11 11 0.47 0.26
11 11 -11 0.39 0.3
-12 0 0 -0.16 0.1
0 -12 0 -0.18 0.21
0 0 12 -0.34 0.19
0 0 12 -0.46 0.15
0 12 0 -0.29 0.25
-12 0 0 -0.2 0.13
-1 -12 0 32.86 2.52
-1 12 0 32.47 2.53
0 -1 12 31.22 2.52
0 1 -12 31.62 2.51
0 1 12 32.32 2.52
1 12 0 34.02 2.53
-12 0 -1 31.36 2.48
-12 0 -1 32.24 2.47
-12 0 1 32.8 2.49
-12 0 1 33.19 2.48
1 0 12 32.62 2.49
1 0 12 32.92 2.52
0 1 12 32.7 2.49
1 -12 0 33.71 2.52
-1 0 12 32.99 2.49
-12 -1 0 31.41 2.49
-12 -1 0 31.75 2.47
-12 1 0 32.07 2.49
-12 1 0 33.61 2.48
-1 0 12 32.52 2.52
0 -12 -1 32.55 2.52
0 12 -1 32.98 2.53
0 12 1 32.7 2.53
0 -12 1 32.66 2.52
-12 1 -1 12.72 0.99
1 -1 12 11.86 1.07
1 1 -12 12.92 1.09
1 1 12 12.37 1.06
1 1 12 13.16 1.02
1 12 -1 12.85 1.11
1 12 1 12.42 1.1
-12 -1 -1 12.05 1.01
-12 -1 -1 13.01 0.99
-12 -1 1 12.82 1.03
-12 -1 1 12.35 1
-12 1 1 12.63 1.03
1 -12 1 12.9 1.08
-12 1 -1 12.13 1.01
-12 1 1 12.84 1
-1 -12 -1 13.3 1.08
-1 -12 1 12.67 1.09
-1 -1 12 13.2 1.08
-1 1 -12 13.73 1.08
-1 1 12 12.55 1.07
-1 1 12 13.2 1.03
-1 12 -1 13.38 1.1
-1 12 1 12.04 1.09
1 -12 -1 12.45 1.08
0 -12 -2 18.67 1.49
0 -12 2 19.16 1.5
-2 0 12 17.99 1.45
2 0 12 17.45 1.48
2 0 12 16.82 1.44
-2 0 12 18.87 1.49
-12 0 -2 17.63 1.42
-12 0 -2 17.1 1.41
-12 0 2 18.17 1.45
-12 0 2 17.52 1.43
-2 -12 0 18.62 1.49
-2 12 0 17.98 1.51
0 -2 12 20.72 1.5
0 2 -12 20.16 1.48
0 2 12 19.5 1.48
0 12 -2 19.1 1.51
0 12 2 18.49 1.5
-12 2 0 18.85 1.43
0 2 12 19.38 1.45
2 -12 0 18.99 1.49
2 12 0 18.21 1.5
-12 -2 0 19.15 1.44
-12 2 -1 0.1 0.11
-12 -2 1 -0.11 0.15
-12 -1 -2 0.03 0.08
-1 12 -2 -0.01 0.24
1 -2 12 -0.4 0.19
1 2 -12 -0.4 0.19
-2 12 1 0.18 0.22
-12 1 2 -0.02 0.12
2 -12 1 -0.1 0.21
2 12 -1 -0.03 0.22
2 1 12 -0.15 0.19
2 1 12 0.01 0.13
-1 2 12 -0.18 0.19
-1 2 12 -0.27 0.16
1 12 2 -0.48 0.23
-1 -12 2 -0.19 0.23
-12 -1 -2 0.01 0.11
1 -12 -2 0.06 0.22
-2 -12 -1 0.14 0.21
-12 1 2 0.01 0.15
-2 -1 12 0.17 0.2
-2 1 -12 -0.15 0.17
-2 1 12 0.16 0.15
-2 1 12 0.18 0.2
-1 12 2 -0.51 0.23
-12 -2 -1 -0.06 0.13
2 -12 -1 0.31 0.21
2 1 -12 0.2 0.19
2 12 1 0.07 0.24
-12 2 1 -0.06 0.12
1 -12 2 -0.46 0.21
-12 2 1 -0.32 0.13
2 -1 12 0.15 0.18
1 12 -2 -0.14 0.22
-2 -12 1 0.19 0.23
-2 12 -1 -0.1 0.25
-1 -12 -2 -0.23 0.21
-1 -2 12 -0.31 0.2
-1 2 -12 -0.24 0.19
-12 -1 2 0.13 0.15
-12 -1 2 0.09 0.11
-12 1 -2 0.12 0.1
-12 1 -2 0.07 0.1
1 2 12 -0.34 0.17
1 2 12 -0.33 0.14
2 12 -2 38.92 3
2 -2 12 39.78 2.98
-2 12 2 38.38 2.99
2 -12 -2 38.73 2.98
2 -12 2 38.17 2.99
-2 -2 12 38.34 2.99
-2 2 -12 38.86 2.97
-2 2 12 39.87 2.98
-2 12 -2 38.27 3
2 2 -12 39.25 2.99
2 2 12 39.74 2.98
2 2 12 38.3 2.96
-12 -2 -2 39.04 2.95
-12 -2 2 38.44 2.97
-12 2 -2 38.51 2.95
-12 2 2 37.78 2.96
-12 2 2 38.7 2.96
12 2 -2 39.54 2.96
-2 -12 -2 39.14 2.99
-2 -12 2 38.9 2.99
2 12 2 39.18 3
12 3 0 3.51 0.38
-12 0 -3 3.56 0.28
12 -3 0 4.12 0.33
0 3 12 3.84 0.41
3 -12 0 2.71 0.32
-3 -12 0 2.24 0.32
-3 12 0 2.58 0.34
0 -3 12 2.38 0.32
0 3 -12 3.8 0.49
0 3 12 3.92 0.49
3 12 0 2.99 0.35
-12 0 -3 3.67 0.3
3 0 12 2.87 0.38
-12 3 0 3.59 0.36
-3 0 12 2.15 0.31
-3 0 12 3.16 0.41
0 -12 -3 3.74 0.48
0 -12 3 3.8 0.53
-12 -3 0 3.8 0.42
0 12 -3 2.51 0.34
0 12 3 2.44 0.34
3 0 12 2.88 0.31
-12 0 3 3 0.36
-12 0 3 3.17 0.43
-12 -1 -3 2.27 0.2
3 -12 1 1.81 0.27
3 12 -1 1.37 0.29
-3 -12 -1 1.99 0.28
3 1 12 2.3 0.33
-1 12 -3 1.54 0.28
-12 1 3 2.51 0.32
-3 -1 12 2.05 0.27
-3 1 -12 2.22 0.25
-1 -12 3 1.91 0.29
-12 -1 -3 2.42 0.24
-1 3 12 2.28 0.23
12 -3 -1 2.43 0.29
1 -3 12 1.98 0.26
1 -12 -3 1.93 0.25
-12 1 3 1.7 0.23
-1 3 12 1.57 0.24
12 3 1 2.65 0.31
3 1 12 2.21 0.25
1 12 3 2.06 0.29
1 3 -12 1.99 0.26
-12 -3 1 1.73 0.22
-3 12 1 1.42 0.28
-12 3 -1 2.82 0.31
-3 1 12 1.86 0.22
-12 3 1 2.24 0.33
3 12 1 2 0.29
-3 1 12 2.13 0.27
1 12 -3 1.78 0.28
-3 -12 1 1.89 0.28
-12 -1 3 2.12 0.3
-12 1 -3 2.22 0.24
-1 12 3 1.71 0.27
12 -3 1 2.86 0.26
1 3 12 1.73 0.24
-12 -1 3 1.66 0.23
-12 1 -3 2.29 0.23
1 3 12 2.42 0.35
-3 12 -1 2.02 0.29
3 -12 -1 1.46 0.25
1 -12 3 1.77 0.27
-12 -3 -1 2.41 0.34
-1 -3 12 1.75 0.26
-1 3 -12 2.24 0.26
-1 -12 -3 3.45 0.45
3 -1 12 1.91 0.25
3 1 -12 2.28 0.28
12 3 -1 1.56 0.22
-12 2 3 0.18 0.13
3 2 12 -0.11 0.13
-12 -3 2 0.02 0.16
2 12 3 -0.11 0.22
-3 2 -12 0.03 0.17
-2 -12 3 -0.04 0.22
-12 -2 -3 -0.1 0.09
-3 12 2 -0.09 0.21
-12 2 3 0.14 0.15
-2 3 12 -0.09 0.17
-12 3 -2 -0.22 0.11
-2 12 -3 0.04 0.22
-3 -12 -2 -0.23 0.19
3 2 12 -0.11 0.16
3 12 -2 0.01 0.24
3 -12 2 -0.18 0.21
-2 3 12 0.23 0.15
2 3 -12 0.13 0.2
-3 -2 12 0.15 0.22
2 -12 -3 -0.08 0.18
2 -3 12 0.15 0.19
12 3 2 0 0.1
12 2 -3 -0.29 0.15
-2 12 3 -0.19 0.21
-3 -12 2 -0.29 0.22
-2 3 -12 0.09 0.18
2 3 12 -0.01 0.15
3 -2 12 -0.29 0.18
-3 12 -2 -0.26 0.21
3 -12 -2 -0.18 0.17
12 -3 2 -0.02 0.08
-2 -3 12 -0.18 0.21
12 3 -2 -0.03 0.15
-3 2 12 0.17 0.18
-12 -2 3 0.17 0.16
-12 2 -3 0.07 0.1
2 -12 3 0.08 0.22
2 12 -3 -0.02 0.24
3 12 2 0.1 0.23
-12 -3 -2 -0.09 0.12
-3 2 12 0.32 0.15
2 3 12 0.03 0.16
-2 -12 -3 -0.03 0.19
3 2 -12 0.08 0.2
-12 3 2 -0.05 0.13
3 3 12 0.44 0.14
3 3 12 0.55 0.16
12 -3 3 0.39 0.09
12 3 -3 0.27 0.16
12 3 3 0.5 0.1
3 12 -3 0.5 0.26
-3 -12 -3 0.47 0.21
-3 -12 3 0.23 0.22
-3 -3 12 0.36 0.23
3 12 3 0.4 0.23
-12 -3 -3 0.43 0.11
-12 -3 3 0.23 0.16
3 -12 -3 0.33 0.18
3 -12 3 0.29 0.21
3 -3 12 0.44 0.2
-3 3 -12 0.54 0.18
-3 3 12 0.34 0.19
-3 3 12 0.6 0.16
-3 12 -3 0.43 0.24
-3 12 3 0.58 0.23
-12 3 -3 0.35 0.11
-12 3 3 0.45 0.14
3 3 -12 0.31 0.22
0 12 4 4.87 0.66
4 0 12 6.06 0.53
12 -4 0 5.76 0.53
12 4 0 5.18 0.56
-4 0 12 6.91 0.65
-4 0 12 5.68 0.58
-4 12 0 5.95 0.67
0 -4 12 5.45 0.69
0 -12 -4 5.56 0.63
-12 0 4 6.77 0.6
-12 0 4 7.54 0.54
-4 -12 0 6.13 0.66
0 4 -12 5.72 0.66
0 4 12 5.4 0.56
4 -12 0 6.46 0.64
-12 -4 0 5.65 0.57
0 -12 4 5.05 0.67
4 0 12 6.5 0.6
-12 4 0 6.38 0.55
0 12 -4 5.81 0.69
4 12 0 6.76 0.7
4 1 12 8.61 0.71
4 -12 1 7.63 0.75
-1 12 -4 7.79 0.78
12 -4 -1 7.97 0.65
4 1 12 7.7 0.66
-12 -4 1 7.85 0.7
12 4 1 7.72 0.67
-1 -12 4 7.1 0.77
-4 12 1 6.61 0.77
-4 -1 12 8.06 0.77
-12 1 4 7.81 0.71
-1 4 12 7.88 0.69
1 -12 -4 7.62 0.74
1 4 -12 8.05 0.75
4 12 -1 8.28 0.81
-12 4 -1 9.08 0.67
1 -4 12 7.93 0.76
-4 -12 -1 6.86 0.74
1 12 4 7.42 0.77
-12 1 4 8.08 0.67
12 4 -1 7.55 0.7
-12 -4 -1 8.07 0.68
-1 4 -12 7.48 0.74
1 -12 4 7.74 0.77
-1 -4 12 8.39 0.79
4 -1 12 7.44 0.73
-12 -1 4 7.91 0.72
1 4 12 8.27 0.69
4 -12 -1 7.68 0.73
12 -4 1 7.69 0.64
-1 12 4 8.48 0.77
4 12 1 8.08 0.8
1 12 -4 8.08 0.8
-4 -12 1 7.09 0.76
-4 12 -1 7.95 0.78
-4 1 12 7.58 0.76
-4 1 12 7.83 0.69
4 1 -12 7.59 0.77
-1 -12 -4 7.37 0.73
-12 4 1 8.04 0.67
12 4 2 1.1 0.15
4 2 12 1.2 0.16
2 -4 12 1.11 0.23
12 -4 -2 1.03 0.15
2 12 4 1.13 0.25
-12 -4 2 1.06 0.19
-12 2 4 0.9 0.19
-12 2 4 1.21 0.17
-4 -12 -2 1.26 0.23
4 -12 2 0.98 0.23
-2 4 12 1.46 0.19
2 4 -12 1.35 0.25
-2 12 -4 1.01 0.27
4 12 -2 0.73 0.25
2 -12 -4 1.15 0.21
-4 2 -12 1.43 0.19
12 2 -4 1.17 0.2
4 2 12 1.43 0.19
-4 12 2 1.21 0.25
-4 -2 12 1.28 0.23
-12 4 -2 1.17 0.16
-2 -12 4 1.03 0.25
-12 -4 -2 1.32 0.16
2 4 12 1.1 0.18
-12 4 2 1.32 0.17
-4 2 12 1.19 0.21
4 -2 12 1.43 0.21
4 2 -12 1.02 0.24
2 12 -4 0.91 0.26
4 -12 -2 1.56 0.22
-2 -12 -4 1.03 0.21
12 4 -2 1.29 0.19
2 -12 4 1.12 0.25
12 -4 2 1.01 0.14
-4 12 -2 0.92 0.25
-12 2 -4 1.35 0.2
-2 -4 12 1.09 0.24
-2 4 -12 0.95 0.21
4 12 2 0.86 0.24
-4 -12 2 1.19 0.24
-4 2 12 1.18 0.19
-12 -2 4 0.81 0.19
-2 12 4 1.08 0.25
-3 -12 4 0.93 0.25
-12 -4 3 1.11 0.19
-12 -3 -4 1.13 0.12
12 4 3 1.14 0.15
12 -3 4 1.48 0.18
3 -12 -4 1.12 0.2
3 12 4 1.14 0.25
-12 3 4 1.01 0.17
4 3 12 1.36 0.16
12 -4 -3 1.19 0.16
-12 4 -3 1.05 0.15
-4 -12 -3 0.96 0.21
-3 12 -4 0.76 0.24
-4 12 3 1.06 0.25
4 12 -3 0.8 0.24
-3 4 12 1.32 0.2
3 -4 12 1.14 0.23
-4 3 -12 0.88 0.2
4 3 12 1.32 0.19
-4 -3 12 1.91 0.25
3 4 -12 1.13 0.24
12 3 -4 1.02 0.2
4 -12 3 1.21 0.23
3 4 12 1.15 0.18
3 -12 4 1.02 0.23
-4 3 12 1.33 0.19
4 -3 12 1.05 0.21
12 -4 3 1.1 0.13
-12 -4 -3 1 0.15
-3 4 -12 1.25 0.2
-12 3 -4 1.14 0.14
4 3 -12 1.06 0.23
-4 -12 3 1.54 0.27
-4 12 -3 0.94 0.25
4 -12 -3 1.33 0.22
-3 12 4 0.87 0.24
-3 -4 12 1 0.24
4 12 3 1 0.24
12 4 -3 1.03 0.2
12 3 4 1.42 0.19
-12 -3 4 1.06 0.19
-12 4 3 1.15 0.17
3 12 -4 0.84 0.26
-4 3 12 1.15 0.21
-3 -12 -4 1.03 0.21
4 -12 4 2.21 0.3
4 12 -4 2.17 0.33
4 4 -12 1.96 0.3
12 -4 -4 3.33 0.36
12 4 -4 1.85 0.27
12 4 4 3.37 0.3
4 -12 -4 3.33 0.43
-12 4 -4 3.08 0.34
-12 4 4 2.54 0.36
-4 4 -12 3.3 0.44
-4 4 12 3.02 0.41
-4 12 -4 2.27 0.31
-4 12 4 2.44 0.31
4 12 4 2.2 0.3
-4 -12 -4 3.52 0.46
-4 -12 4 3.78 0.53
-4 -4 12 4.04 0.53
4 -4 12 3.24 0.47
12 -4 4 3.18 0.28
-12 -4 4 2.03 0.28
-12 -5 0 0.16 0.16
-5 0 12 0.26 0.2
-5 -12 0 0.18 0.21
-12 0 5 -0.17 0.16
0 -5 12 0.25 0.23
-5 0 12 0.05 0.15
0 5 -12 0.18 0.19
0 5 12 0.59 0.17
5 -12 0 -0.02 0.19
12 -5 0 0.24 0.12
-12 5 0 0.19 0.14
12 5 0 0.27 0.16
5 0 12 0.33 0.11
5 0 12 0.24 0.16
0 -12 -5 0.44 0.2
0 -12 5 0.46 0.25
0 12 -5 0.53 0.24
0 12 5 0.11 0.23
0 -5 -12 0.3 0.14
5 12 0 0.01 0.23
-5 12 0 -0.2 0.22
-12 0 5 0.15 0.13
12 5 1 0.14 0.15
1 -5 12 0.21 0.21
-5 12 1 0.02 0.22
1 -12 -5 0.03 0.19
5 12 -1 0.11 0.23
-5 -1 12 0.07 0.22
-12 1 5 0.01 0.13
-5 -12 -1 -0.1 0.19
-1 -12 5 0.12 0.23
12 -5 -1 0.17 0.11
-1 12 -5 0.06 0.25
5 1 12 0.09 0.15
-12 1 5 -0.22 0.16
5 -12 1 0.09 0.2
-1 5 12 0.27 0.17
-12 -5 1 0.03 0.17
-12 5 -1 0.05 0.13
1 5 -12 0.01 0.2
1 12 5 0.23 0.22
5 1 12 0.1 0.12
-1 -5 -12 0.19 0.14
-5 1 12 0.07 0.16
-1 5 -12 0.3 0.19
-12 -5 -1 0.29 0.16
1 -5 -12 0.2 0.14
-5 12 -1 0.07 0.23
1 12 -5 0.33 0.23
5 12 1 0.33 0.23
-12 5 1 0.18 0.14
-5 -12 1 -0.37 0.21
-1 12 5 -0.02 0.21
-1 -5 12 0.28 0.23
12 5 -1 0.2 0.17
-1 -12 -5 0.26 0.18
-5 1 12 0.08 0.21
12 -5 1 0.33 0.11
-12 -1 5 -0.23 0.16
5 -1 12 0.04 0.17
5 -12 -1 0.19 0.19
1 -12 5 -0.01 0.22
1 5 12 0.18 0.16
12 2 -5 0.32 0.18
-2 -12 5 0.26 0.23
-2 -5 -12 0.39 0.14
2 -12 -5 0.29 0.17
5 -12 2 0.45 0.21
2 12 5 0.43 0.22
-12 5 -2 0.4 0.14
-12 -5 2 0.37 0.18
2 -5 12 0.64 0.21
12 5 2 0.56 0.14
-5 -12 -2 0.31 0.21
12 -5 -2 0.51 0.13
5 12 -2 0.28 0.24
-5 2 -12 0.55 0.17
5 2 12 0.32 0.16
5 2 12 0.41 0.13
-5 12 2 0.52 0.22
-12 2 5 0.19 0.16
-12 2 5 0.17 0.13
-2 12 -5 0.43 0.24
-2 5 12 0.48 0.17
2 5 -12 0.55 0.23
-5 -2 12 0.31 0.21
-12 -2 5 0.41 0.17
2 -5 -12 0.47 0.16
-5 12 -2 0.18 0.24
-2 5 -12 0.69 0.2
-2 -12 -5 0.07 0.19
-12 -5 -2 0.46 0.15
5 -2 12 0.51 0.18
-2 -5 12 0.2 0.22
5 12 2 0.67 0.23
-5 -12 2 0.48 0.23
-2 12 5 0.42 0.21
5 2 -12 0.25 0.2
12 -5 2 0.3 0.12
12 5 -2 0.4 0.17
-12 5 2 0.41 0.14
2 12 -5 0.45 0.24
-5 2 12 0.46 0.2
2 -12 5 0.38 0.22
2 5 12 0.26 0.16
5 -12 -2 0.47 0.19
-5 2 12 0.36 0.16
-12 3 5 0.12 0.13
-5 -12 -3 0.09 0.2
3 5 -12 -0.08 0.21
-12 3 5 -0.19 0.16
-3 12 -5 0.21 0.23
3 -5 12 -0.09 0.21
5 -12 3 -0.33 0.2
12 -3 5 -0.01 0.07
12 3 -5 0.02 0.18
3 12 5 0.27 0.22
-5 12 3 0.22 0.21
-3 -5 -12 0.1 0.13
-5 3 -12 0.21 0.16
-3 5 12 0.19 0.17
-3 -12 5 -0.14 0.22
-12 5 -3 0.05 0.13
5 12 -3 -0.07 0.23
3 -12 -5 0.01 0.17
5 3 12 0.11 0.15
5 3 12 0.06 0.13
12 -5 -3 0.01 0.13
12 5 3 0.2 0.13
-5 -3 12 0.28 0.22
-12 -5 3 -0.12 0.17
-12 -5 -3 0 0.13
-12 3 -5 0.14 0.11
5 -3 12 0.08 0.19
-3 12 5 0.07 0.22
3 -12 5 0.12 0.22
3 -5 -12 0.16 0.14
-12 -3 5 0.05 0.17
5 -12 -3 0.26 0.19
-5 12 -3 -0.08 0.22
12 -5 3 0.15 0.1
12 5 -3 -0.1 0.17
-5 -12 3 0.18 0.21
3 12 -5 0.39 0.25
-3 -5 12 -0.1 0.22
-3 5 -12 0.2 0.18
-3 -12 -5 -0.08 0.18
-12 5 3 -0.05 0.14
-5 3 12 0.21 0.19
-5 3 12 0.12 0.15
5 3 -12 0.08 0.19
5 12 3 -0.07 0.23
3 5 12 0.08 0.15
5 4 12 0 0.13
-5 -12 -4 -0.04 0.19
-4 -5 -12 0.16 0.12
-5 4 -12 -0.14 0.16
-4 5 12 -0.09 0.16
4 12 5 0.12 0.22
-12 5 -4 0.23 0.14
-12 -4 -5 0.02 0.08
5 -12 4 -0.05 0.2
-4 -12 5 0.1 0.23
-4 12 -5 0.1 0.23
12 -4 5 -0.13 0.09
-5 -4 12 0.12 0.23
4 5 -12 0.16 0.21
12 5 4 0.05 0.12
5 12 -4 -0.13 0.23
-12 -5 4 0.34 0.19
12 -5 -4 0.12 0.13
-12 4 5 0.02 0.13
-5 12 4 0.27 0.21
12 4 -5 0.18 0.18
4 -12 -5 0.05 0.18
4 -5 12 0.06 0.19
-4 5 -12 0.03 0.18
-12 -4 5 0.08 0.18
5 4 -12 0 0.21
5 12 4 0.09 0.22
4 5 12 0 0.16
-12 5 4 0.18 0.14
-4 12 5 0.08 0.2
-5 12 -4 0.09 0.23
4 -5 -12 0.17 0.15
-4 -12 -5 0.04 0.18
-12 -5 -4 -0.02 0.12
12 4 5 0.19 0.09
-5 -12 4 0.1 0.23
-5 4 12 -0.04 0.18
4 -12 5 0.02 0.2
4 12 -5 -0.04 0.24
-4 -5 12 -0.12 0.23
5 -4 12 0.17 0.19
12 -5 4 0.1 0.1
12 5 -4 -0.07 0.18
-12 4 -5 0.2 0.13
5 -12 -4 -0.17 0.17
12 -5 5 0.28 0.11
12 -5 -5 0.49 0.14
-5 5 -12 0.4 0.18
-5 5 12 0.44 0.17
-5 -12 -5 0.45 0.18
-5 -12 5 0.45 0.24
-5 -5 -12 0.58 0.12
-5 -5 12 0.33 0.24
5 -5 12 0.57 0.21
5 5 -12 0.49 0.23
-5 12 -5 0.74 0.24
-5 12 5 0.33 0.22
5 12 5 0.46 0.22
12 5 5 0.26 0.13
5 12 -5 0.32 0.25
-12 -5 5 0.48 0.19
5 -12 -5 0.49 0.18
5 -12 5 0.19 0.22
5 -5 -12 0.59 0.17
-12 5 -5 0.35 0.15
-12 -5 -5 0.33 0.11
5 5 12 0.51 0.15
12 5 -5 0.36 0.19
-12 5 5 0.39 0.15
0 -12 -6 1.57 0.25
12 -6 0 2.46 0.32
0 -6 -12 1.98 0.22
0 -6 12 1.86 0.28
0 6 -12 1.15 0.26
0 6 12 1.53 0.23
6 -12 0 2.3 0.26
-12 0 6 2.54 0.33
-12 -6 0 2.2 0.24
-6 -12 0 1.91 0.28
-6 12 0 2.03 0.29
-12 0 6 3.67 0.43
6 12 0 1.54 0.28
0 -12 6 1.96 0.3
-6 0 12 3 0.38
-12 6 0 1.93 0.21
-6 0 12 1.79 0.27
12 6 0 1.66 0.23
0 12 -6 1.38 0.3
0 12 6 2.03 0.29
6 0 12 2.07 0.22
-1 6 12 11.2 0.9
1 6 -12 10.68 0.97
6 12 -1 10.18 0.95
1 12 6 10.18 0.94
-12 1 6 11.12 0.91
-1 12 -6 9.77 0.95
12 -6 -1 10.98 0.86
-1 -6 -12 10.35 0.86
6 -12 1 10.54 0.91
1 -6 12 12.37 0.96
-12 1 6 10.34 0.86
-12 -6 1 10.93 0.9
-12 6 -1 9.69 0.87
-6 -1 12 9.38 0.94
6 1 12 11.06 0.88
-6 -12 -1 10.61 0.93
-1 -12 6 10.51 0.96
-6 12 1 10.09 0.93
6 1 12 10.78 0.85
12 6 1 10.1 0.88
1 -12 -6 10.32 0.9
6 -1 12 10.51 0.89
-6 1 12 12.4 0.88
-1 -12 -6 11.38 0.92
-12 -1 6 10.93 0.9
-6 -12 1 10.23 0.95
-1 6 -12 9.82 0.93
1 12 -6 10.13 0.97
1 6 12 9.7 0.89
6 -12 -1 10.04 0.91
-12 -6 -1 10.4 0.88
12 -6 1 10.51 0.85
12 6 -1 10.41 0.91
-1 12 6 10.03 0.94
6 12 1 10.43 0.94
-6 1 12 9.31 0.94
1 -12 6 9.97 0.96
-6 12 -1 10.3 0.94
-12 6 1 11.29 0.87
-1 -6 12 10.13 0.95
1 -6 -12 10.62 0.87
-2 -12 6 0.84 0.25
12 6 2 0.66 0.17
2 12 6 0.8 0.24
-6 2 -12 1.11 0.17
-12 6 -2 0.7 0.17
2 6 -12 0.64 0.22
-12 2 6 1.21 0.16
12 -6 -2 0.89 0.15
-2 -6 -12 1.06 0.16
-2 12 -6 0.59 0.24
-2 6 12 0.89 0.18
2 -12 -6 0.71 0.19
6 2 12 1.06 0.17
6 -12 2 0.78 0.22
-6 -12 -2 0.57 0.22
6 2 12 1.15 0.14
-6 12 2 0.95 0.25
12 2 -6 1.18 0.21
-6 -2 12 1.22 0.24
-12 -6 2 0.93 0.21
2 -6 12 0.86 0.23
-12 2 6 1.08 0.18
6 12 -2 0.9 0.24
-2 -12 -6 0.98 0.21
-2 6 -12 0.78 0.22
-2 12 6 0.57 0.21
6 2 -12 0.53 0.21
-2 -6 12 1.42 0.26
-6 2 12 0.8 0.21
6 12 2 0.62 0.24
2 6 12 0.88 0.19
6 -12 -2 0.69 0.2
-12 -6 -2 1.07 0.18
12 -6 2 1.14 0.14
-12 -2 6 0.99 0.2
-6 -12 2 0.98 0.24
-6 12 -2 0.89 0.24
-12 6 2 1 0.17
6 -2 12 0.94 0.19
2 12 -6 0.51 0.25
-6 2 12 0.86 0.17
2 -12 6 0.7 0.24
12 6 -2 0.75 0.2
2 -6 -12 0.8 0.17
12 3 -6 1.3 0.21
3 -6 12 0.92 0.23
-12 -6 3 1.01 0.2
-3 12 -6 0.67 0.25
3 6 -12 0.75 0.22
12 6 3 0.59 0.17
3 12 6 0.78 0.23
3 -12 -6 1.45 0.2
6 3 12 0.92 0.15
12 -6 -3 1.02 0.15
6 3 12 0.7 0.17
-3 -6 -12 0.95 0.16
6 12 -3 0.68 0.26
-3 6 12 0.67 0.18
-12 3 6 0.96 0.18
-12 3 6 0.97 0.15
6 -12 3 0.53 0.21
-12 6 -3 0.82 0.17
-6 -12 -3 0.77 0.21
-6 -3 12 0.59 0.23
-6 3 -12 0.86 0.18
-6 12 3 0.78 0.23
-3 -12 6 0.73 0.25
12 -3 6 1.05 0.15
-3 -6 12 0.61 0.26
12 -6 3 0.74 0.14
-3 12 6 0.59 0.24
-6 -12 3 0.78 0.24
12 6 -3 0.91 0.2
3 12 -6 0.5 0.25
-6 3 12 0.69 0.21
-6 3 12 0.91 0.18
-3 6 -12 1.06 0.21
6 12 3 0.81 0.24
-3 -12 -6 0.85 0.2
-12 3 -6 0.81 0.12
-12 6 3 1.06 0.17
3 6 12 0.96 0.18
6 -12 -3 0.92 0.2
6 -3 12 0.67 0.19
6 3 -12 0.79 0.22
-12 -6 -3 0.88 0.16
-12 -3 6 0.67 0.2
-6 12 -3 0.78 0.24
3 -12 6 0.67 0.23
3 -6 -12 1.11 0.18
-12 -4 -6 0.22 0.07
-4 -6 -12 0.3 0.13
-4 12 -6 0.27 0.24
-12 -6 4 0.15 0.2
12 -4 6 0.39 0.09
4 6 -12 0.35 0.21
12 4 -6 0.3 0.19
4 -12 -6 0.23 0.18
-4 -12 6 0.29 0.23
-6 12 4 0.14 0.22
6 -12 4 0.44 0.21
-6 -12 -4 0.16 0.19
-4 6 12 0.29 0.18
6 4 12 0.54 0.14
12 -6 -4 0.35 0.14
12 6 4 0.34 0.15
-12 6 -4 0.27 0.15
-6 4 -12 0.26 0.16
4 -6 12 0.04 0.2
4 12 6 0.3 0.22
6 12 -4 0.19 0.23
-12 4 6 0.31 0.15
-6 -4 12 0.47 0.23
-4 12 6 0.19 0.2
6 -12 -4 0.41 0.19
4 6 12 0.32 0.16
-4 -6 12 0.29 0.25
-12 -6 -4 0.21 0.13
-12 6 4 0.21 0.15
4 -12 6 0.29 0.22
4 12 -6 0.48 0.26
-6 4 12 0.4 0.2
4 -6 -12 0.27 0.15
12 6 -4 0.27 0.19
-6 12 -4 0.44 0.23
6 12 4 0.28 0.23
-12 -4 6 0.27 0.19
-12 4 -6 0.39 0.13
6 4 -12 0.38 0.21
6 -4 12 0.45 0.19
-6 -12 4 0.15 0.23
-6 4 12 0.31 0.18
-4 -12 -6 0.22 0.18
12 -6 4 0.33 0.12
12 4 6 0.29 0.09
-4 6 -12 0.02 0.19
-5 -6 -12 0.96 0.15
-5 -12 6 0.91 0.26
12 -5 6 0.9 0.13
12 6 5 1.05 0.17
-6 5 -12 1.07 0.19
-6 12 5 1.09 0.24
5 -6 12 0.96 0.22
6 5 12 1.05 0.17
12 -6 -5 1.01 0.16
5 12 6 1.31 0.24
-12 5 6 0.86 0.17
-6 -12 -5 0.92 0.2
-6 -5 12 1.02 0.26
-5 6 12 0.75 0.19
5 -12 -6 0.87 0.19
-12 6 -5 0.78 0.18
5 6 -12 0.89 0.23
-12 -6 5 0.79 0.22
12 5 -6 1 0.22
6 -12 5 1.13 0.22
-12 -5 -6 1 0.12
-5 12 -6 0.76 0.25
6 12 -5 1.02 0.27
5 12 -6 0.49 0.26
12 -5 -6 0.99 0.16
-5 6 -12 0.86 0.2
6 -5 12 1.17 0.21
-5 -12 -6 1.12 0.21
-5 -6 12 0.67 0.25
6 12 5 0.79 0.24
12 5 6 0.98 0.14
6 -12 -5 0.99 0.2
6 5 -12 1.27 0.25
5 6 12 1.04 0.18
5 -6 -12 1 0.17
5 -12 6 0.96 0.22
12 -6 5 0.79 0.14
-12 -6 -5 0.97 0.14
-5 12 6 0.82 0.22
12 6 -5 0.96 0.21
-6 -12 5 0.88 0.24
-6 12 -5 1.1 0.24
-12 5 -6 1.09 0.17
-12 6 5 0.75 0.17
-6 -5 -12 0.76 0.14
-12 -5 6 1.27 0.23
-6 5 12 1.26 0.2
-6 12 6 -0.28 0.19
6 12 6 -0.03 0.2
-6 -12 6 -0.04 0.24
-6 -6 -12 -0.05 0.12
-6 -6 12 -0.06 0.23
-12 -6 -6 0 0.11
-6 6 12 -0.08 0.18
-6 12 -6 0.23 0.22
12 -6 -6 0.03 0.13
-6 -12 -6 0.13 0.18
12 6 -6 0.23 0.2
12 6 6 0.22 0.14
6 -12 -6 0.2 0.17
-12 -6 6 0.06 0.21
-12 6 -6 0.36 0.16
6 6 12 -0.11 0.15
6 -12 6 -0.08 0.21
6 -6 -12 -0.02 0.14
6 -6 12 -0.04 0.19
6 6 -12 -0.07 0.21
6 12 -6 0.23 0.24
12 -6 6 0.1 0.12
-6 6 -12 0.26 0.18
-12 6 6 0.13 0.16
0 -7 12 0.01 0.23
-7 12 0 -0.32 0.23
7 12 0 -0.34 0.24
12 -7 0 0.24 0.14
7 0 12 -0.22 0.16
-7 -12 0 -0.29 0.21
0 12 -7 0.07 0.25
0 12 7 0.03 0.23
0 7 -12 0.05 0.23
0 7 12 0.12 0.18
7 -12 0 -0.12 0.19
0 -7 -12 -0.04 0.16
12 7 0 -0.13 0.18
-7 0 12 -0.23 0.23
-7 0 12 -0.14 0.15
0 -12 -7 -0.16 0.2
0 -12 7 -0.05 0.25
-12 -7 0 -0.35 0.18
-12 7 0 -0.09 0.16
-12 0 7 -0.19 0.13
7 0 12 -0.05 0.11
-12 0 7 -0.36 0.18
7 12 -1 -0.02 0.23
-7 12 1 -0.11 0.22
-1 -7 -12 0.29 0.16
12 7 1 0.06 0.17
12 -7 -1 0.05 0.14
-12 1 7 -0.28 0.14
-12 -7 1 0.21 0.2
-12 7 -1 -0.08 0.17
1 12 7 0.19 0.23
-7 -1 12 -0.14 0.23
7 1 12 -0.1 0.14
-1 -12 7 -0.21 0.25
-1 12 -7 0.3 0.26
-1 7 12 -0.19 0.18
1 -12 -7 0.2 0.17
1 -7 12 -0.14 0.23
1 7 -12 0.04 0.23
7 1 12 -0.05 0.11
-12 1 7 -0.21 0.18
7 -12 1 0.13 0.2
-7 -12 -1 -0.36 0.23
-7 -12 1 -0.08 0.22
-12 7 1 -0.31 0.15
-12 -7 -1 -0.02 0.18
-1 12 7 0 0.22
1 -7 -12 0.12 0.16
1 -12 7 0 0.24
1 12 -7 0.2 0.25
-12 -1 7 -0.21 0.18
-1 -7 12 -0.02 0.23
-1 7 -12 0.42 0.22
-7 1 12 -0.3 0.22
12 7 -1 -0.07 0.18
7 12 1 0.06 0.23
-1 -12 -7 0.04 0.18
7 -1 12 -0.37 0.16
12 -7 1 0.01 0.13
1 7 12 0.05 0.17
-7 12 -1 0.21 0.23
-7 1 12 -0.12 0.15
7 -12 -1 0.27 0.19
7 2 12 1.18 0.18
-7 12 2 1.42 0.26
-7 -2 12 1.26 0.26
12 7 2 1.43 0.2
-12 2 7 1.28 0.18
-2 7 12 1.33 0.22
-12 2 7 1.11 0.21
7 -12 2 1.27 0.23
2 -7 12 1 0.24
-2 -12 7 1.11 0.25
2 7 -12 1.03 0.26
7 2 12 1.23 0.16
-12 -7 2 1.44 0.23
-2 -7 -12 1.34 0.19
12 -7 -2 1.3 0.18
7 12 -2 0.87 0.27
2 -12 -7 1.55 0.22
-12 7 -2 1.09 0.2
2 12 7 1.18 0.25
-7 2 -12 1.34 0.18
-7 -12 -2 1.1 0.23
-2 12 -7 1.3 0.28
-7 12 -2 0.93 0.26
7 12 2 1.07 0.25
2 -7 -12 1.59 0.2
-2 7 -12 1.47 0.24
12 7 -2 1.41 0.22
-2 -12 -7 1.5 0.21
7 -12 -2 1.35 0.23
7 2 -12 1.36 0.24
-7 2 12 0.96 0.23
12 -7 2 1.24 0.17
7 -2 12 1.26 0.2
-2 12 7 1.07 0.24
-2 -7 12 1.69 0.28
-12 -7 -2 1.18 0.2
-7 -12 2 1.04 0.26
2 -12 7 1.7 0.27
-7 2 12 1.25 0.2
-12 -2 7 0.82 0.22
-12 7 2 1.26 0.2
2 7 12 1.55 0.21
2 12 -7 1.44 0.31
-12 -7 3 0.05 0.2
-3 7 12 -0.07 0.17
-7 -12 -3 -0.09 0.19
3 -7 12 0.13 0.21
3 7 -12 -0.11 0.23
-12 7 -3 -0.19 0.16
-3 -12 7 -0.03 0.24
3 -12 -7 -0.11 0.17
12 3 -7 -0.16 0.19
-12 3 7 -0.32 0.15
-12 3 7 -0.13 0.15
7 12 -3 -0.47 0.23
-7 -3 12 -0.05 0.22
12 -3 7 -0.06 0.07
-7 3 -12 0.02 0.15
-3 -7 -12 -0.26 0.14
-3 12 -7 0.23 0.24
12 -7 -3 -0.05 0.14
12 7 3 -0.11 0.16
7 3 12 -0.1 0.12
7 3 12 -0.22 0.13
3 12 7 0.03 0.21
7 -12 3 -0.03 0.2
-7 12 3 -0.12 0.21
7 -3 12 -0.11 0.17
-12 -3 7 -0.05 0.19
3 7 12 -0.23 0.17
-12 3 -7 0.03 0.09
3 -7 -12 0.07 0.16
-12 7 3 0.1 0.16
-3 7 -12 -0.11 0.2
-7 12 -3 -0.02 0.23
7 12 3 0.02 0.22
-3 -12 -7 0.01 0.18
7 3 -12 -0.03 0.2
3 12 -7 -0.17 0.25
-3 -7 12 0.09 0.25
-7 -12 3 -0.06 0.23
12 7 -3 0.01 0.19
-7 3 12 -0.04 0.21
3 -12 7 -0.11 0.23
-7 3 12 -0.01 0.16
12 -7 3 0.02 0.13
-3 12 7 -0.07 0.21
-12 -7 -3 -0.33 0.16
7 -12 -3 0.07 0.17
12 4 -7 2.2 0.29
-12 -4 -7 2.96 0.23
4 7 -12 2.35 0.32
-12 7 -4 2.78 0.4
-12 -7 4 1.85 0.29
-7 4 -12 3.13 0.41
-12 4 7 3.3 0.4
-7 -12 -4 3.37 0.46
4 -7 12 2.16 0.31
-4 7 12 3.24 0.44
12 -4 7 3.06 0.29
7 12 -4 2.5 0.34
-4 12 -7 2.23 0.31
12 7 4 2.85 0.42
12 -7 -4 3.02 0.37
-7 12 4 2.15 0.3
4 -12 -7 2.13 0.27
7 -12 4 1.74 0.29
-7 -4 12 3.96 0.54
4 12 7 3.43 0.48
-4 -12 7 2.17 0.32
-4 -7 -12 3.2 0.36
7 4 12 3.05 0.36
7 4 -12 2.02 0.3
-7 4 12 2.46 0.3
-12 -7 -4 3.07 0.38
-12 -4 7 3.69 0.52
-12 7 4 3.64 0.41
-7 12 -4 2.08 0.31
4 -7 -12 3.64 0.4
4 12 -7 1.95 0.32
-7 4 12 2.29 0.28
-4 -7 12 2.6 0.34
-4 7 -12 3.51 0.5
-7 -12 4 1.49 0.31
4 7 12 2.99 0.42
7 -12 -4 3.15 0.43
-12 4 -7 3.62 0.33
-4 -12 -7 3.38 0.42
12 -7 4 2.75 0.36
7 -4 12 3.56 0.45
-4 12 7 2.33 0.3
12 7 -4 1.96 0.29
4 -12 7 3.41 0.49
7 12 4 1.92 0.3
-5 12 -7 0.07 0.22
12 -7 -5 0.19 0.14
12 5 -7 0.04 0.21
-7 -5 12 -0.04 0.22
12 7 5 0.2 0.16
-12 5 7 0.12 0.16
7 5 12 0.09 0.14
7 12 -5 0.17 0.23
-12 -5 -7 0.18 0.08
-7 12 5 -0.16 0.22
5 -7 12 0.23 0.2
5 12 7 0.09 0.21
12 -5 7 0.06 0.11
-7 5 -12 0.17 0.16
-12 7 -5 0.19 0.17
-7 -12 -5 0 0.18
-5 -12 7 0.19 0.23
7 -12 5 0.53 0.21
5 -12 -7 0.15 0.19
-5 -7 -12 0.03 0.13
-5 7 12 0.2 0.17
5 7 -12 0 0.2
-12 -7 5 0.11 0.21
7 12 5 0.24 0.22
-5 -12 -7 0.45 0.18
7 -5 12 0.03 0.19
-7 5 12 0.11 0.17
5 -7 -12 0.16 0.15
5 12 -7 -0.23 0.24
12 -7 5 0.06 0.13
-12 -7 -5 0.28 0.13
7 5 -12 -0.03 0.22
-5 12 7 0.27 0.2
-12 7 5 0.18 0.17
-7 -5 -12 0.16 0.11
12 7 -5 0.21 0.21
5 7 12 0.06 0.16
7 -12 -5 0.19 0.17
12 5 7 0.21 0.11
-12 5 -7 0.2 0.14
-12 -5 7 0.27 0.21
-5 7 -12 0.25 0.2
-7 -12 5 0.07 0.22
-7 12 -5 0.28 0.22
5 -12 7 0.06 0.21
12 -5 -7 -0.08 0.14
-5 -7 12 0.38 0.24
-6 12 -7 -0.3 0.22
6 12 7 -0.07 0.22
7 6 12 -0.03 0.15
12 6 -7 0.13 0.19
12 -7 -6 0.09 0.15
-7 12 6 0.18 0.19
-12 -7 6 -0.4 0.2
-12 6 7 -0.01 0.16
6 -12 -7 -0.04 0.16
-7 -12 -6 -0.02 0.17
12 -6 7 -0.12 0.12
6 -7 12 -0.19 0.19
7 -6 -12 -0.15 0.14
-6 7 12 -0.08 0.17
-7 -6 12 0.22 0.22
-6 -7 -12 0.04 0.13
-12 7 -6 0.09 0.17
12 7 6 -0.12 0.15
-7 6 -12 -0.1 0.17
-12 -6 -7 -0.14 0.1
6 7 -12 -0.07 0.2
-6 -12 7 -0.07 0.23
7 -12 6 0.01 0.19
7 12 -6 0.02 0.24
7 6 -12 0.03 0.22
7 -12 -6 -0.05 0.17
-12 6 -7 0.08 0.16
6 7 12 -0.02 0.16
6 -12 7 -0.12 0.2
-7 -12 6 -0.19 0.24
-7 12 -6 -0.03 0.22
-6 12 7 -0.34 0.19
7 -6 12 -0.37 0.18
-6 -7 12 -0.16 0.22
-6 7 -12 -0.07 0.18
12 -7 6 -0.1 0.13
6 -7 -12 -0.07 0.14
6 12 -7 -0.02 0.23
-7 -6 -12 -0.02 0.11
12 6 7 -0.12 0.14
-12 -7 -6 0.07 0.13
12 7 -6 -0.18 0.2
-12 -6 7 0.01 0.21
-12 7 6 0.14 0.16
12 -6 -7 -0.09 0.13
-7 6 12 -0.09 0.17
-6 -12 -7 0.12 0.17
7 12 6 -0.14 0.21
-7 12 7 -0.36 0.2
-7 -7 12 -0.19 0.23
7 -12 7 0.14 0.21
-7 7 -12 -0.06 0.18
7 -7 12 -0.19 0.19
-7 -12 -7 0.03 0.17
-12 -7 -7 0.01 0.11
-12 -7 7 -0.06 0.21
-7 7 12 -0.09 0.16
7 -12 -7 -0.13 0.15
-7 -7 -12 0.04 0.12
12 7 -7 -0.07 0.2
12 7 7 0.19 0.15
7 12 -7 -0.32 0.23
7 -7 -12 0 0.14
12 -7 -7 0.07 0.15
7 7 -12 0.03 0.22
-12 7 -7 0.15 0.16
-12 7 7 -0.19 0.17
7 12 7 0.04 0.21
-7 -12 7 -0.42 0.22
12 -7 7 -0.04 0.14
-7 12 -7 0.15 0.23
7 7 12 -0.17 0.15
-8 0 12 1.97 0.23
0 12 8 1.49 0.27
0 -12 -8 1.7 0.24
8 0 12 2.04 0.29
-8 0 12 1.82 0.28
0 8 12 1.98 0.25
0 8 -12 1.69 0.3
8 12 0 1.52 0.28
8 0 12 1.54 0.21
-8 -12 0 1.52 0.27
12 -8 0 1.5 0.2
0 12 -8 1.38 0.32
0 -8 12 1.79 0.28
-12 0 8 1.73 0.26
-12 0 8 1.03 0.2
0 -12 8 1.24 0.29
0 -8 -12 1.75 0.21
8 -12 0 1.51 0.24
-8 12 0 1.45 0.28
-12 -8 0 1.54 0.25
-12 8 0 1.42 0.23
12 8 0 1.62 0.25
-1 12 -8 4.55 0.8
8 1 12 8.45 0.67
8 1 12 7.97 0.63
-1 8 12 6.39 0.7
-1 -8 -12 7.03 0.66
-1 -12 8 7.27 0.81
-12 8 -1 8.81 0.71
12 8 1 7.25 0.73
-8 -1 12 7.15 0.77
8 12 -1 8.44 0.8
-8 12 1 6.63 0.78
1 12 8 7 0.75
12 -8 -1 7.57 0.67
1 8 -12 7.04 0.79
-12 -8 1 7.41 0.75
1 -12 -8 6.42 0.7
-12 1 8 8.5 0.75
-12 1 8 7.41 0.66
-8 -12 -1 8.01 0.77
1 -8 12 7.04 0.81
8 -12 1 7.43 0.71
-12 -1 8 7.7 0.76
-12 8 1 7.78 0.7
-12 -1 8 7.67 0.65
-8 1 12 7.36 0.77
-1 -12 -8 6.22 0.72
-1 -8 12 7.17 0.8
-8 -12 1 7.55 0.75
12 -8 1 7.84 0.67
-8 12 -1 6.84 0.75
-1 12 8 7.67 0.75
8 -12 -1 7.67 0.71
8 12 1 7.36 0.8
12 8 -1 6.43 0.74
1 -8 -12 7.43 0.68
-8 1 12 9.09 0.68
-12 -8 -1 7.76 0.73
-1 8 -12 6.9 0.77
1 -12 8 6.82 0.8
1 12 -8 6.17 0.8
8 -1 12 7.51 0.68
8 -1 12 7.58 0.62
1 8 12 6.19 0.73
-8 12 2 29.67 2.37
2 -8 12 32.03 2.39
8 2 12 29.04 2.34
12 8 2 30.42 2.35
-2 12 -8 29.51 2.4
-8 -2 12 30.83 2.39
-8 -12 -2 29.91 2.37
2 12 8 31.2 2.37
-2 8 12 32 2.37
8 12 -2 29.04 2.38
2 -12 -8 30.27 2.36
-2 -12 8 30.83 2.39
8 2 12 30.14 2.33
-12 -8 2 30.5 2.37
12 -8 -2 30.88 2.34
-8 2 -12 29.46 2.34
-12 2 8 31.51 2.36
2 8 -12 29.93 2.39
8 -12 2 29.75 2.36
-12 2 8 31.25 2.34
-2 -8 -12 30.87 2.34
-12 8 -2 31.1 2.35
12 8 -2 31.25 2.37
-8 2 12 32.1 2.35
-2 8 -12 29.09 2.38
-8 2 12 30.64 2.37
8 -2 12 31.16 2.35
8 2 -12 30.77 2.38
-2 12 8 30.21 2.37
-8 -12 2 32.47 2.39
-2 -12 -8 30.31 2.36
-12 8 2 31.24 2.35
2 -8 -12 31.32 2.35
-12 -8 -2 28.18 2.35
2 12 -8 28.34 2.39
2 -12 8 29.43 2.38
-8 12 -2 30.11 2.37
2 8 12 31.41 2.36
8 -12 -2 31.54 2.36
-2 -8 12 30.02 2.39
12 -8 2 30.31 2.34
8 12 2 30.21 2.38
-12 -2 8 30.21 2.37
-8 3 -12 0.13 0.15
-3 12 -8 -0.23 0.25
3 -8 12 0.1 0.22
-12 3 8 0.46 0.18
8 -12 3 0.33 0.21
8 12 -3 -0.08 0.25
3 12 8 -0.09 0.22
12 -3 8 0.21 0.08
12 3 -8 0.29 0.2
3 -12 -8 0.61 0.2
8 3 12 0.22 0.13
12 -8 -3 -0.09 0.15
12 8 3 -0.01 0.19
-12 -8 3 0.28 0.21
-12 8 -3 0.37 0.18
-3 8 12 0.32 0.19
-3 -12 8 0.34 0.25
-8 12 3 0.43 0.22
-8 -12 -3 0.19 0.21
-12 3 8 0.64 0.17
3 8 -12 0.01 0.24
-3 -8 -12 0.4 0.15
-8 -3 12 -0.07 0.23
8 3 12 0.02 0.14
-8 12 -3 0.03 0.24
12 8 -3 -0.18 0.2
12 -8 3 0.11 0.14
-3 -12 -8 -0.24 0.18
-8 -12 3 0.11 0.23
-8 3 12 -0.02 0.21
-3 -8 12 0.12 0.25
-3 8 -12 0.15 0.22
-12 3 -8 0.12 0.09
-12 8 3 0.25 0.18
3 8 12 0.43 0.18
-3 12 8 0.32 0.2
-12 -8 -3 0.29 0.18
-8 3 12 0.01 0.17
3 12 -8 0.43 0.27
8 12 3 -0.1 0.22
8 -3 12 0.29 0.18
3 -8 -12 0.31 0.16
-12 -3 8 0.41 0.22
3 -12 8 0.01 0.23
8 3 -12 0.11 0.22
8 -12 -3 0.03 0.19
-4 12 -8 0.71 0.26
-8 -12 -4 0.33 0.2
-4 -8 -12 0.54 0.15
-12 4 8 0.46 0.17
8 4 12 0.54 0.14
-4 8 12 0.49 0.19
8 -12 4 0.34 0.21
4 -8 12 0.06 0.22
4 8 -12 0.26 0.23
12 8 4 0.52 0.18
-8 12 4 0.53 0.23
8 12 -4 0.57 0.24
4 12 8 0.41 0.22
-12 -8 4 0.3 0.22
-12 8 -4 0.18 0.19
12 4 -8 0.4 0.2
4 -12 -8 0.32 0.17
-8 -4 12 0.39 0.23
8 4 12 0.3 0.14
12 -8 -4 0.5 0.16
-8 4 -12 0.15 0.15
-4 -12 8 0.86 0.26
12 -4 8 0.48 0.11
8 12 4 0.38 0.23
-8 -12 4 0.47 0.24
4 -12 8 0.63 0.25
12 8 -4 0.59 0.23
-4 -8 12 0.52 0.24
-4 8 -12 0.24 0.21
8 4 -12 0.08 0.22
-12 8 4 0.28 0.18
-8 12 -4 0.15 0.23
-8 4 12 0.04 0.19
-4 -12 -8 0.49 0.18
4 8 12 0.54 0.18
-12 -4 8 0.19 0.22
8 -12 -4 0.68 0.19
4 12 -8 0.44 0.26
-12 -8 -4 0.34 0.16
8 -4 12 0.47 0.19
12 4 8 0.4 0.1
-4 12 8 0.57 0.2
-8 4 12 0.54 0.22
4 -8 -12 0.58 0.17
12 -8 4 0.42 0.16
-12 4 -8 0.32 0.12
8 12 -5 -0.33 0.23
-12 5 8 0.05 0.16
12 8 5 -0.06 0.16
8 -12 5 0.28 0.2
-12 -5 -8 0.06 0.08
-5 12 -8 0.1 0.24
5 -8 12 0.1 0.22
5 -12 -8 0 0.16
-5 8 12 0.07 0.19
8 5 12 0.11 0.14
5 12 8 0.18 0.21
-8 5 -12 0.05 0.15
-12 -8 5 0.24 0.22
12 5 -8 0.16 0.2
12 -8 -5 0.04 0.14
-8 -5 12 -0.08 0.23
12 -5 8 0.2 0.12
-8 12 5 -0.36 0.2
-8 -12 -5 0.25 0.19
-5 -8 -12 0.07 0.13
-12 8 -5 -0.02 0.18
5 8 -12 -0.06 0.21
-5 -12 8 -0.15 0.24
5 -8 -12 -0.16 0.15
-5 -8 12 -0.18 0.24
-8 12 -5 0.14 0.22
5 -12 8 0.12 0.21
12 8 -5 0.16 0.2
-12 8 5 -0.07 0.16
8 5 -12 0 0.21
-5 8 -12 -0.15 0.19
8 -5 12 0.13 0.17
-12 -5 8 0.15 0.21
-12 5 -8 0.15 0.13
8 12 5 0.15 0.21
5 12 -8 0.04 0.22
-8 -12 5 -0.13 0.22
-12 -8 -5 0.12 0.14
-5 12 8 0.02 0.2
-5 -12 -8 0.02 0.17
8 -12 -5 -0.09 0.17
5 8 12 0 0.17
12 5 8 -0.21 0.12
-8 5 12 0.06 0.17
12 -8 5 -0.09 0.14
-12 8 -6 0.24 0.18
6 -12 -8 0.16 0.15
-12 -6 -8 0.12 0.09
-8 -6 12 -0.04 0.24
12 6 -8 -0.1 0.21
-6 -12 8 -0.1 0.25
-8 -12 -6 -0.05 0.17
12 -6 8 0.2 0.14
8 6 12 0.01 0.15
-12 -8 6 -0.15 0.21
8 -6 -12 0.14 0.15
8 12 -6 0.11 0.23
12 8 6 0.24 0.17
6 8 -12 0.27 0.24
-8 6 -12 0.05 0.16
-8 12 6 0.01 0.18
-6 -8 -12 0.19 0.13
-12 6 8 0.14 0.16
-6 8 12 0.09 0.18
8 -12 6 0.02 0.2
6 -8 12 -0.1 0.2
12 -8 -6 0.12 0.14
6 12 8 0.07 0.21
-6 12 -8 0.27 0.23
12 6 8 0.26 0.14
-12 -8 -6 0.16 0.13
8 -6 12 0.22 0.19
8 12 6 0.02 0.21
12 -6 -8 0.07 0.14
8 -12 -6 0.29 0.16
-6 -12 -8 0.02 0.16
-8 -6 -12 0.19 0.11
-6 8 -12 0.4 0.19
-8 -12 6 -0.09 0.23
6 8 12 0.13 0.17
8 6 -12 -0.2 0.21
-12 8 6 0.19 0.17
-6 -8 12 0.13 0.24
12 -8 6 0.25 0.14
6 12 -8 0.03 0.24
-12 6 -8 0.01 0.16
-8 6 12 0.17 0.17
6 -12 8 0.21 0.21
6 -8 -12 0.2 0.15
-12 -6 8 0.03 0.21
-6 12 8 0.11 0.2
12 8 -6 0 0.2
-8 12 -6 0.41 0.22
-12 -7 -8 -0.04 0.11
7 12 8 -0.21 0.21
12 -7 8 -0.08 0.15
-8 12 7 -0.11 0.2
-12 -8 7 -0.14 0.23
8 7 12 0.17 0.15
-12 7 8 0.35 0.18
7 -12 -8 0.1 0.15
7 8 -12 0.04 0.23
-12 8 -7 0 0.18
-7 8 12 0.07 0.2
8 -12 7 -0.13 0.19
-8 -7 12 -0.04 0.22
-8 7 -12 -0.03 0.18
12 8 7 -0.06 0.16
12 7 -8 -0.03 0.21
8 -7 -12 -0.01 0.14
8 12 -7 -0.29 0.24
7 -8 12 0 0.2
-7 -12 8 -0.13 0.25
12 -8 -7 -0.08 0.15
-7 -8 -12 0.11 0.12
-8 -12 -7 -0.03 0.17
-7 12 -8 -0.12 0.22
-12 -8 -7 0.04 0.13
-12 7 -8 0.15 0.17
12 -8 7 0.06 0.15
7 -12 8 0.31 0.21
-8 -7 -12 -0.02 0.12
7 8 12 0.36 0.16
8 -12 -7 -0.04 0.16
8 -7 12 0 0.19
-8 7 12 -0.01 0.17
12 -7 -8 0.13 0.15
-7 8 -12 -0.1 0.18
-12 8 7 -0.05 0.17
7 -8 -12 0.14 0.15
-7 -8 12 0.03 0.24
8 7 -12 0.28 0.23
12 7 8 0.04 0.15
-8 12 -7 0.11 0.23
-7 -12 -8 0 0.16
12 8 -7 -0.07 0.22
7 12 -8 0.29 0.25
-8 -12 7 0.11 0.23
-7 12 8 -0.18 0.2
-12 -7 8 -0.1 0.22
8 12 7 -0.26 0.21
12 -8 -8 0.03 0.15
12 8 -8 -0.05 0.2
-12 8 -8 0.27 0.19
8 -8 12 -0.25 0.19
-8 -12 -8 0.08 0.16
-12 -8 -8 -0.02 0.12
8 -8 -12 -0.09 0.21
12 8 8 -0.05 0.17
-12 -8 8 -0.24 0.22
-8 12 -8 -0.25 0.21
-8 12 8 0 0.29
8 -12 8 -0.19 0.2
8 12 -8 -0.2 0.25
12 -8 8 -0.28 0.16
-12 8 8 -0.12 0.18
-8 -8 -12 -0.03 0.12
8 8 12 0.06 0.16
8 12 8 0.06 0.21
-8 8 -12 -0.17 0.18
-8 -12 8 -0.2 0.24
-8 8 12 0.17 0.33
0 -12 -9 10.99 0.91
-12 9 0 9.34 0.91
0 12 -9 9.74 0.97
9 -12 0 9.58 0.9
9 12 0 10.52 0.94
-12 -9 0 10.53 0.92
-12 0 9 9.85 0.87
-9 0 12 10.54 0.87
12 9 0 10.79 0.91
0 -9 -12 11.98 0.89
0 12 9 10.23 0.93
-9 0 12 9.01 0.95
0 -9 12 11.16 1
12 -9 0 10.52 0.87
0 9 -12 11.19 0.96
0 9 12 11.2 0.9
0 -12 9 9.71 0.96
-9 -12 0 9.37 0.95
-9 12 0 9.54 0.95
9 0 12 9.85 0.86
9 0 12 9.56 0.82
-12 0 9 9.2 0.93
-9 -1 12 -0.25 0.22
-12 -9 1 -0.25 0.22
1 -12 -9 0.09 0.19
1 -9 12 -0.16 0.26
-12 1 9 -0.23 0.23
12 -9 -1 -0.34 0.15
1 12 9 -0.08 0.22
9 1 12 -0.05 0.12
-9 -12 -1 -0.27 0.23
-12 9 -1 -0.35 0.21
9 -12 1 0.06 0.21
-1 -12 9 -0.03 0.28
9 1 12 0.13 0.15
12 9 1 -0.04 0.22
-9 12 1 -0.49 0.24
-1 -9 -12 0.15 0.17
9 12 -1 -0.06 0.25
-12 1 9 -0.04 0.16
-1 9 12 -0.12 0.21
1 9 -12 0.07 0.25
-1 12 -9 0.13 0.26
1 -9 -12 0.05 0.17
1 9 12 0 0.2
9 -12 -1 -0.09 0.19
-12 -1 9 0.16 0.16
-12 -9 -1 0.07 0.21
1 12 -9 0.19 0.28
-1 -12 -9 0.06 0.19
9 12 1 0.27 0.24
-9 12 -1 -0.21 0.24
1 -12 9 -0.35 0.25
-9 1 12 0.17 0.25
-12 -1 9 -0.19 0.21
-1 12 9 0 0.23
-1 -9 12 0.08 0.26
12 9 -1 -0.05 0.22
-12 9 1 0.06 0.21
9 -1 12 0.01 0.1
-9 -12 1 0.09 0.24
9 -1 12 -0.04 0.16
-1 9 -12 0.03 0.25
12 -9 1 -0.3 0.16
-9 1 12 -0.35 0.17
-9 -12 -2 0.73 0.22
-9 12 2 1.74 0.25
-12 2 9 0.47 0.22
9 12 -2 0.4 0.26
2 12 9 1.03 0.23
12 9 2 0.61 0.23
9 2 12 0.73 0.15
-2 12 -9 0.95 0.28
-2 -12 9 1.08 0.26
-12 9 -2 0.12 0.21
-12 2 9 0.67 0.18
-9 -2 12 0.86 0.24
-12 -9 2 0.98 0.24
2 -12 -9 0.69 0.21
-2 9 12 0.98 0.22
9 2 12 0.64 0.14
2 -9 12 0.79 0.25
9 -12 2 1 0.21
-2 -9 -12 1.06 0.19
2 9 -12 0.84 0.26
12 -9 -2 0.92 0.17
-2 12 9 1.31 0.22
9 -12 -2 0.8 0.22
-9 -12 2 0.54 0.24
2 9 12 0.87 0.21
2 -12 9 0.9 0.26
-9 2 12 1.49 0.24
-2 -9 12 1.05 0.25
-2 9 -12 0.42 0.24
2 -9 -12 0.47 0.19
12 -9 2 0.69 0.18
9 12 2 0.84 0.25
9 2 -12 1.28 0.25
-2 -12 -9 0.94 0.2
-9 12 -2 0.81 0.24
2 12 -9 0.13 0.27
12 9 -2 0.69 0.23
9 -2 12 0.6 0.18
-12 9 2 0.48 0.2
-12 -2 9 0.87 0.24
-12 -9 -2 0.43 0.2
-12 -9 3 -0.13 0.23
9 3 12 0.02 0.13
-9 3 -12 0.18 0.14
-12 3 9 -0.06 0.21
12 3 -9 -0.03 0.2
3 -12 -9 0.15 0.17
-3 12 -9 -0.27 0.27
-12 9 -3 0.03 0.19
-12 3 9 -0.12 0.17
3 12 9 0.15 0.22
-9 -3 12 -0.17 0.23
12 -3 9 -0.08 0.1
12 -9 -3 0.05 0.16
9 12 -3 -0.07 0.25
9 3 12 -0.03 0.14
-9 12 3 0 0.22
-3 -12 9 0.19 0.26
9 -12 3 0.08 0.2
-9 -12 -3 -0.15 0.2
3 -9 12 -0.06 0.23
3 9 -12 0.05 0.24
-3 -9 -12 0.21 0.16
12 9 3 -0.15 0.2
-3 9 12 0.19 0.2
-3 9 -12 -0.07 0.23
-9 3 12 0.05 0.21
3 -12 9 -0.12 0.24
3 12 -9 -0.24 0.25
9 -3 12 0.39 0.17
12 9 -3 -0.03 0.21
-9 3 12 -0.07 0.17
-3 12 9 -0.17 0.21
-9 -12 3 -0.17 0.24
-9 12 -3 0.28 0.23
3 -9 -12 0.11 0.17
9 3 -12 -0.15 0.21
-3 -9 12 0.17 0.24
-12 -3 9 0.24 0.25
9 -12 -3 -0.13 0.18
-12 9 3 0.02 0.19
9 12 3 -0.07 0.23
12 -9 3 -0.04 0.16
-3 -12 -9 0.26 0.18
-12 -9 -3 -0.12 0.18
-12 3 -9 0.12 0.1
3 9 12 0.03 0.2
-12 -9 4 6.19 0.69
9 -12 4 5.41 0.62
4 9 -12 5.93 0.69
-9 12 4 6.16 0.69
12 -4 9 6.12 0.52
12 4 -9 6.37 0.68
-12 4 9 5.73 0.64
4 -12 -9 5.94 0.6
-4 12 -9 5.62 0.7
-12 4 9 5.83 0.58
-4 9 12 6.42 0.63
4 -9 12 5.64 0.71
-9 -4 12 6.16 0.71
-9 4 -12 5.81 0.58
-4 -12 9 6.28 0.72
12 -9 -4 5.85 0.58
4 12 9 6.17 0.65
9 12 -4 6.46 0.7
-4 -9 -12 6.36 0.58
12 9 4 5.26 0.63
-9 -12 -4 6.6 0.66
-12 9 -4 4.78 0.64
9 4 12 5.51 0.55
9 4 12 5.68 0.55
-12 -4 9 6.45 0.69
12 -9 4 6.32 0.59
12 9 -4 6.5 0.65
-4 -9 12 5.78 0.73
-4 9 -12 6.11 0.7
-9 4 12 5.34 0.6
-4 -12 -9 6.37 0.61
4 9 12 6.75 0.63
-4 12 9 5.78 0.66
9 -4 12 6.39 0.6
9 4 -12 6.31 0.67
-9 -12 4 6.2 0.68
-12 -9 -4 5.94 0.59
4 -9 -12 5.89 0.59
9 -12 -4 5.79 0.6
4 12 -9 5.94 0.73
4 -12 9 6.29 0.68
12 4 9 6.21 0.51
-9 12 -4 5.97 0.68
9 12 4 6.37 0.67
-9 4 12 6.24 0.66
-12 4 -9 5.82 0.53
-12 9 4 6.04 0.61
5 -12 -9 0.1 0.17
12 -5 9 -0.08 0.13
9 5 12 0.07 0.14
-5 9 12 0.06 0.18
-9 5 -12 -0.13 0.15
12 -9 -5 -0.05 0.15
-12 5 9 0.13 0.18
-9 -12 -5 -0.23 0.18
-12 -9 5 -0.21 0.21
12 9 5 0.23 0.18
5 12 9 -0.28 0.21
5 -9 12 -0.19 0.22
-5 -12 9 -0.13 0.26
-5 12 -9 -0.16 0.23
-9 -5 12 -0.07 0.24
9 -12 5 -0.26 0.2
9 12 -5 0.18 0.24
-12 -5 -9 -0.03 0.08
-5 -9 -12 -0.11 0.15
-9 12 5 0 0.2
5 9 -12 -0.03 0.23
-12 9 -5 -0.07 0.19
12 5 -9 -0.19 0.21
9 12 5 0.04 0.21
-9 12 -5 0.04 0.23
12 9 -5 -0.03 0.22
-5 -12 -9 -0.07 0.16
-9 5 12 0.18 0.18
-9 -12 5 -0.02 0.24
-12 -5 9 -0.13 0.21
12 -9 5 -0.01 0.16
-12 5 -9 -0.09 0.14
9 -5 12 -0.13 0.18
12 5 9 -0.2 0.13
-5 12 9 -0.02 0.22
9 -12 -5 -0.07 0.17
-5 -9 12 -0.24 0.24
-5 9 -12 -0.09 0.22
5 -12 9 -0.12 0.23
5 -9 -12 0 0.17
-12 9 5 -0.11 0.19
-12 -9 -5 -0.21 0.18
5 9 12 -0.21 0.18
9 5 -12 0.04 0.21
5 12 -9 0.07 0.25
-6 -9 -12 -0.17 0.14
-12 6 9 -0.05 0.17
9 6 12 0.07 0.14
-6 12 -9 -0.2 0.23
12 6 -9 -0.19 0.21
-6 -12 9 0.1 0.27
6 -12 -9 -0.22 0.17
12 -9 -6 0.08 0.15
9 12 -6 0.42 0.25
-12 -9 6 -0.06 0.23
-12 9 -6 -0.15 0.19
12 -6 9 -0.16 0.14
6 12 9 -0.15 0.21
-9 -12 -6 0.21 0.16
-9 -6 12 0.14 0.23
-12 -6 -9 0.01 0.09
-9 12 6 -0.16 0.2
-9 6 -12 -0.24 0.15
9 -12 6 -0.14 0.19
6 9 -12 0.17 0.24
-6 9 12 -0.11 0.21
12 9 6 0.04 0.18
6 -9 12 -0.13 0.21
-6 -12 -9 -0.15 0.16
6 9 12 0.13 0.17
9 -12 -6 0 0.16
-12 9 6 -0.06 0.18
-6 9 -12 -0.13 0.2
-9 -12 6 -0.1 0.22
9 12 6 -0.07 0.2
9 6 -12 0.01 0.21
-12 6 -9 -0.12 0.15
12 -6 -9 0.12 0.15
-6 -9 12 -0.04 0.3
12 9 -6 -0.21 0.21
6 -9 -12 0.02 0.19
9 -6 12 0.06 0.18
-12 -9 -6 -0.09 0.14
-9 6 12 -0.01 0.17
-6 12 9 0.05 0.21
-12 -6 9 -0.11 0.23
6 -12 9 -0.13 0.21
6 12 -9 0.14 0.25
-9 -6 -12 -0.01 0.11
12 -9 6 0.01 0.15
12 6 9 -0.11 0.14
-9 12 -6 0.21 0.22
-12 7 9 0 0.18
-7 12 -9 0 0.23
7 -9 12 -0.2 0.2
12 -9 -7 0.1 0.14
-7 -9 -12 -0.14 0.14
-7 9 12 0.1 0.21
12 9 7 0.03 0.17
-12 -9 7 0.01 0.22
-12 9 -7 0.23 0.2
9 7 12 -0.25 0.15
-9 12 7 0 0.2
-9 7 -12 0.29 0.18
12 7 -9 -0.01 0.21
12 -7 9 -0.07 0.15
9 -7 -12 -0.19 0.26
7 12 9 0.13 0.2
9 -12 7 0.04 0.2
9 12 -7 -0.26 0.22
-9 -12 -7 0 0.16
7 -12 -9 0.01 0.2
-12 -7 -9 -0.04 0.11
7 9 -12 0.03 0.26
7 -12 9 0.14 0.21
9 12 7 0 0.21
-12 9 7 0.03 0.18
9 -12 -7 0.04 0.17
-7 12 9 0.4 0.32
-12 -7 9 0.07 0.23
7 9 12 0.06 0.17
-12 -9 -7 0.01 0.14
-9 12 -7 0.25 0.23
12 9 -7 0.01 0.21
-7 -12 -9 -0.17 0.16
12 7 9 -0.05 0.15
9 -7 12 -0.04 0.18
-7 9 -12 0.21 0.2
-9 -12 7 0.3 0.24
-9 -7 -12 -0.01 0.12
7 -9 -12 0.03 0.18
-12 7 -9 0.18 0.17
-7 -9 12 0.23 0.27
12 -9 7 0.06 0.16
12 -7 -9 -0.05 0.15
-9 12 8 0.16 0.23
12 9 8 0.58 0.19
-12 9 -8 0.24 0.2
9 -12 8 0.46 0.21
-12 8 9 0.25 0.19
-8 -9 -12 0.36 0.14
8 -12 -9 0.14 0.15
-8 9 12 0.2 0.2
-12 -8 -9 0.48 0.13
12 8 -9 -0.08 0.22
-9 -8 12 -0.16 0.25
12 -9 -8 0.28 0.16
8 9 -12 -0.07 0.25
8 -9 12 0.26 0.21
-8 -12 9 0.33 0.24
-8 12 -9 0.49 0.24
-9 -12 -8 0.29 0.16
-12 -9 8 -0.01 0.23
-9 8 -12 0.18 0.19
9 8 12 0.25 0.17
8 12 9 0.2 0.22
9 -8 -12 0.35 0.17
12 -8 9 0.27 0.17
-9 8 12 0.13 0.19
8 -12 9 0.3 0.21
8 12 -9 0.15 0.25
12 -9 8 0.4 0.18
9 12 8 0.41 0.21
9 8 -12 0.28 0.23
12 9 -8 0.24 0.23
12 8 9 0.24 0.17
-8 12 9 0.38 0.22
-9 12 -8 -0.12 0.22
-8 -12 -9 -0.07 0.17
-8 -9 12 0.36 0.24
-12 -8 9 0.38 0.24
-12 8 -9 0.16 0.19
12 -8 -9 0.24 0.16
9 -8 12 0.33 0.2
-8 9 -12 0.33 0.21
-12 -9 -8 0.3 0.14
9 -12 -8 0.21 0.16
8 9 12 0.32 0.19
-12 9 8 0.3 0.2
-9 -8 -12 0.42 0.13
8 -9 -12 0.38 0.16
9 9 12 -0.15 0.19
9 9 -12 -0.19 0.22
9 -9 -12 0.09 0.16
9 -9 12 -0.17 0.2
-9 12 9 -0.26 0.21
-12 9 -9 -0.51 0.2
9 -12 -9 0.08 0.17
12 9 -9 -0.52 0.32
12 -9 -9 0.08 0.26
-12 -9 9 -0.4 0.38
9 12 -9 -0.4 0.23
-9 9 12 -0.15 0.2
-9 12 -9 -0.01 0.25
9 -12 9 -0.39 0.21
-12 -9 -9 -0.18 0.13
12 -9 9 -0.23 0.18
-9 9 -12 -0.22 0.2
9 12 9 -0.08 0.22
-9 -12 -9 -0.21 0.17
12 9 9 -0.08 0.18
-9 -9 -12 -0.19 0.14
-9 -12 9 -0.22 0.25
-9 -9 12 -0.34 0.24
-10 0 12 22.51 1.74
-12 -10 0 21.96 1.78
0 10 12 22.62 1.76
-10 0 12 21.83 1.79
0 12 10 23.35 1.78
10 0 12 21.75 1.73
10 0 12 21.1 1.7
12 -10 0 22.13 1.74
12 10 0 22.41 1.78
-10 12 0 21.89 1.79
-12 10 0 22.56 1.78
-12 0 10 22.81 1.74
-10 -12 0 22.07 1.79
0 -12 10 21.61 1.81
0 12 -10 22.28 1.81
0 10 -12 21.65 1.81
0 -12 -10 22.41 1.75
10 12 0 22.77 1.8
10 -12 0 22.14 1.75
0 -10 -12 22.38 1.75
0 -10 12 22.02 1.8
-12 0 10 23.14 1.8
-12 10 -1 12.32 1.13
1 10 -12 12.71 1.16
-1 -10 -12 12.73 1.09
-12 1 10 14.57 1.1
-10 -12 -1 13.45 1.15
12 -10 -1 13.1 1.1
-1 -12 10 12.67 1.17
-10 12 1 13.59 1.14
12 10 1 12.51 1.14
1 -10 12 13.16 1.19
1 12 10 13.22 1.14
10 12 -1 12.64 1.18
-1 10 12 12.1 1.12
-12 -10 1 14.03 1.15
1 -12 -10 12.5 1.1
-10 -1 12 13.42 1.09
-10 -1 12 13 1.17
-1 12 -10 12.09 1.18
10 1 12 13.54 1.04
10 -12 1 12.96 1.12
10 1 12 13.25 1.06
-12 1 10 15.53 1.17
-1 10 -12 12.52 1.2
-12 10 1 13.13 1.13
-1 12 10 13.55 1.13
-1 -10 12 11.76 1.19
-10 12 -1 13.1 1.14
10 -12 -1 13.35 1.12
12 -10 1 13.57 1.1
-10 1 12 14.36 1.18
-10 -12 1 13.75 1.17
-12 -10 -1 13.27 1.14
1 -10 -12 13.08 1.1
10 12 1 13.75 1.16
1 10 12 13.03 1.13
10 -1 12 13.78 1.08
10 -1 12 12.61 1.04
-10 1 12 13.03 1.09
-1 -12 -10 13.46 1.1
12 10 -1 13.46 1.16
-12 -1 10 15.49 1.1
1 -12 10 13.53 1.18
1 12 -10 12.6 1.2
-12 -1 10 14.41 1.17
12 -2 10 -0.02 0.07
10 2 12 -0.05 0.12
-2 -12 10 -0.59 0.26
-10 -2 12 -0.09 0.24
12 -10 -2 -0.23 0.17
2 -10 12 -0.36 0.25
-12 2 10 0.07 0.21
-12 2 10 0.39 0.17
-2 10 12 -0.4 0.2
10 -12 2 -0.27 0.2
-10 -12 -2 -0.49 0.22
2 -12 -10 -0.65 0.17
2 12 10 -0.53 0.24
12 10 2 -0.47 0.22
10 2 12 -0.1 0.13
-12 -10 2 -0.45 0.23
-2 -10 -12 -0.36 0.16
2 10 -12 -0.57 0.25
-12 10 -2 -0.15 0.22
10 12 -2 -0.85 0.26
-10 12 2 0.02 0.24
-12 -10 -2 -0.35 0.2
-10 2 12 -0.03 0.23
2 -10 -12 -0.21 0.17
10 -2 12 -0.16 0.16
12 10 -2 -0.68 0.23
-10 2 12 -0.24 0.19
-10 12 -2 -0.31 0.23
-12 10 2 -0.08 0.21
2 12 -10 -0.99 0.27
2 -12 10 -0.38 0.25
12 -10 2 -0.46 0.17
-2 -10 12 -0.63 0.28
-2 10 -12 -0.17 0.25
-12 -2 10 -0.1 0.22
-10 -12 2 -0.33 0.24
-2 12 10 -0.3 0.21
2 10 12 -0.15 0.21
10 -12 -2 -0.39 0.19
10 12 2 -0.77 0.24
-10 -12 -3 8.33 0.83
-3 12 -10 8.28 0.88
3 -12 -10 9.66 0.81
3 -10 12 8.57 0.9
10 3 12 8.83 0.74
-12 3 10 9.73 0.84
-12 3 10 9.3 0.8
-10 3 -12 8.71 0.75
10 3 12 8.41 0.75
10 -12 3 8.43 0.81
10 12 -3 9.46 0.89
-12 -10 3 8.36 0.86
12 -3 10 8.92 0.73
12 3 -10 9.05 0.84
3 10 -12 8.58 0.89
-3 10 12 9.01 0.82
-10 12 3 8.87 0.84
-10 -3 12 9.2 0.89
-3 -10 -12 8.75 0.76
3 12 10 9.15 0.83
-3 -12 10 8.26 0.9
12 -10 -3 9.34 0.79
-12 10 -3 10.18 0.83
12 10 3 10.53 0.84
12 3 10 8.08 0.71
10 12 3 8.22 0.85
-12 -10 -3 8.89 0.81
3 -10 -12 9.5 0.8
-3 12 10 8.92 0.85
10 -3 12 8.43 0.78
-12 10 3 8.87 0.82
12 10 -3 8.37 0.87
-12 3 -10 8.87 0.72
-10 3 12 9.41 0.79
-10 12 -3 7.98 0.85
3 12 -10 7.56 0.9
12 -10 3 10.08 0.79
10 -12 -3 9.65 0.81
3 -12 10 8.63 0.89
-3 -10 12 7.63 0.91
12 3 10 8.37 0.7
-12 -3 10 8.97 0.88
3 10 12 9.19 0.84
-10 -12 3 8.52 0.86
-3 10 -12 9.88 0.89
10 3 -12 8.89 0.85
-10 3 12 8.41 0.84
-3 -12 -10 9.33 0.8
4 12 10 2.12 0.31
4 10 -12 2.48 0.34
4 -10 12 1.87 0.32
12 -4 10 2.96 0.35
-4 12 -10 2.34 0.33
12 -10 -4 3.25 0.42
-4 -10 -12 3.58 0.41
10 4 12 3.51 0.36
-4 10 12 3.35 0.48
-10 4 -12 3.3 0.39
-10 -4 12 1.85 0.32
10 4 12 3.31 0.35
10 -12 4 2.19 0.29
-10 12 4 2.15 0.31
-12 10 -4 3.57 0.48
12 10 4 2.29 0.29
-12 -10 4 2.53 0.33
-12 4 10 3.67 0.44
-10 -12 -4 3.42 0.48
4 -12 -10 3.13 0.46
-12 4 10 3.82 0.52
-4 -12 10 2.53 0.37
10 12 -4 2.07 0.32
12 4 -10 2.3 0.31
-12 10 4 3.38 0.45
10 4 -12 2.39 0.32
12 10 -4 2.41 0.32
4 -10 -12 2.08 0.27
12 -10 4 3.01 0.43
-4 -10 12 2.19 0.35
12 4 10 3.37 0.29
-10 4 12 2.48 0.31
-10 4 12 2.17 0.28
4 10 12 3.43 0.48
10 -4 12 3.52 0.42
-12 -4 10 2.33 0.31
-12 -10 -4 3.91 0.45
12 4 10 2.95 0.32
4 -12 10 1.8 0.32
-4 10 -12 1.82 0.32
10 -12 -4 3.91 0.47
-10 12 -4 2.34 0.31
-10 -12 4 3.77 0.53
-4 12 10 2 0.31
-4 -12 -10 4.11 0.46
4 12 -10 1.81 0.34
10 12 4 2.49 0.31
5 -12 -10 0.68 0.33
12 10 5 1.17 0.23
12 -10 -5 1.25 0.19
-12 -10 5 1.25 0.26
-12 10 -5 1.33 0.23
-5 12 -10 1.11 0.27
-10 -5 12 1.42 0.28
-10 12 5 1.64 0.25
-5 -10 -12 1.32 0.19
5 -10 12 1.65 0.26
-5 -12 10 0.65 0.48
10 12 -5 0.93 0.27
10 5 12 1.36 0.17
12 -5 10 1.15 0.18
-12 5 10 1.18 0.21
5 12 10 1.04 0.25
12 5 -10 1.51 0.25
-10 -12 -5 1.06 0.22
-10 5 -12 1.2 0.18
10 -12 5 1.2 0.23
-12 -10 -5 1.01 0.2
10 12 5 1.21 0.24
-5 -12 -10 1.45 0.2
-5 -10 12 0.63 0.37
-12 10 5 1.02 0.23
5 -12 10 1.43 0.26
12 10 -5 1.16 0.25
-10 5 12 1.19 0.26
-12 5 -10 1.26 0.17
12 -10 5 1.08 0.2
-10 -12 5 1.19 0.28
10 5 -12 1.55 0.27
-12 -5 10 1.03 0.26
10 -5 12 1.33 0.2
12 5 10 1.14 0.16
-10 5 12 1.09 0.21
-10 12 -5 1.29 0.25
5 10 12 1.41 0.21
10 -12 -5 1.11 0.19
-5 10 -12 1.22 0.25
-12 6 10 0.03 0.17
-6 10 12 -0.04 0.2
-6 -12 10 0.01 0.24
6 -10 12 -0.16 0.21
12 -6 10 -0.18 0.15
10 6 12 0.01 0.15
10 -12 6 -0.19 0.2
12 -10 -6 -0.2 0.15
6 -12 -10 -0.08 0.16
6 12 10 -0.35 0.21
10 12 -6 0.49 0.24
-6 12 -10 -0.49 0.24
12 10 6 -0.15 0.18
-10 12 6 -0.11 0.19
-6 -10 -12 -0.12 0.14
-10 6 -12 -0.03 0.15
12 6 -10 -0.12 0.22
6 10 -12 -0.35 0.23
-12 -6 -10 -0.09 0.09
-10 -12 -6 0.07 0.16
-12 10 -6 0.03 0.2
-12 -10 6 -0.05 0.21
-10 12 -6 0.1 0.22
6 -10 -12 -0.18 0.15
-10 -6 -12 -0.17 0.1
10 12 6 0.08 0.21
12 -10 6 -0.25 0.16
-6 -10 12 -0.26 0.24
-12 -6 10 0.02 0.23
6 10 12 -0.23 0.18
-12 -10 -6 0.04 0.15
6 12 -10 0.16 0.25
12 6 10 -0.11 0.14
10 -6 12 -0.13 0.18
-10 -12 6 0.15 0.23
-6 10 -12 -0.07 0.21
12 10 -6 0.01 0.22
6 -12 10 0.14 0.22
10 -12 -6 -0.04 0.16
-6 12 10 -0.21 0.2
-10 6 12 0.19 0.32
-12 6 -10 -0.01 0.15
-6 -12 -10 0.06 0.16
-12 10 6 0.12 0.2
-7 -10 -12 0.04 0.14
7 12 10 -0.1 0.21
-7 12 -10 0.5 0.25
-10 7 -12 0.02 0.17
7 -12 -10 0.1 0.16
-10 -7 12 0.12 0.24
-12 -10 7 -0.1 0.23
12 -10 -7 0.03 0.15
10 7 12 0.19 0.16
-12 -7 -10 0.06 0.1
10 -7 -12 0.04 0.15
7 -10 12 -0.12 0.22
12 7 -10 0.08 0.22
-7 10 12 -0.14 0.19
12 -7 10 -0.22 0.16
10 -12 7 0.05 0.2
7 10 -12 -0.04 0.24
-12 7 10 0.1 0.2
12 10 7 -0.23 0.18
-10 -12 -7 0.02 0.17
-12 10 -7 -0.17 0.21
-7 -12 10 -0.07 0.23
10 12 -7 -0.04 0.24
12 10 -7 -0.04 0.23
-10 12 -7 -0.23 0.22
-12 7 -10 -0.16 0.16
-7 10 -12 -0.05 0.22
-10 7 12 0.13 0.18
-10 -7 -12 -0.08 0.12
-12 -10 -7 0.11 0.15
7 -10 -12 -0.13 0.16
7 10 12 0.02 0.19
12 -7 -10 -0.04 0.19
12 7 10 0.09 0.16
7 12 -10 0.18 0.24
-12 -7 10 0.28 0.24
10 12 7 -0.21 0.21
12 -10 7 -0.08 0.18
10 7 -12 0.05 0.23
-10 -12 7 0.2 0.25
7 -12 10 -0.33 0.21
-7 12 10 -0.03 0.22
-7 -10 12 0.07 0.23
-12 10 7 0.1 0.19
10 -7 12 0.28 0.19
-7 -12 -10 -0.2 0.16
10 -12 8 0.02 0.2
8 -10 12 -0.04 0.21
-12 -10 8 -0.19 0.24
8 10 -12 -0.25 0.22
10 -8 -12 -0.26 0.16
-10 -12 -8 -0.13 0.16
10 12 -8 -0.13 0.23
-8 10 12 -0.29 0.19
12 10 8 -0.23 0.2
8 -12 -10 0 0.17
-12 8 10 -0.05 0.2
-8 12 -10 -0.03 0.25
12 -8 10 -0.05 0.17
-8 -10 -12 -0.02 0.14
-10 -8 12 -0.18 0.24
-10 8 -12 -0.07 0.18
-12 -8 -10 -0.16 0.12
-12 10 -8 0.12 0.21
12 8 -10 -0.24 0.35
-8 -12 10 -0.32 0.24
10 8 12 0.05 0.18
-10 12 8 -0.16 0.22
8 12 10 -0.1 0.22
8 -12 10 -0.01 0.21
-10 8 12 -0.22 0.2
-8 -10 12 0.21 0.26
12 10 -8 0.14 0.24
8 10 12 -0.06 0.2
8 -10 -12 -0.33 0.17
8 12 -10 -0.02 0.25
12 -10 8 -0.07 0.19
-10 12 -8 0.09 0.22
-8 -12 -10 -0.24 0.16
10 -8 12 -0.16 0.19
-8 10 -12 -0.23 0.22
-10 -8 -12 -0.16 0.12
12 -8 -10 -0.26 0.16
-12 -10 -8 0.12 0.15
10 -12 -8 -0.06 0.16
12 8 10 -0.11 0.17
-12 8 -10 -0.25 0.18
-10 -12 8 -0.17 0.25
-8 12 10 0.1 0.22
10 8 -12 -0.08 0.24
10 12 8 -0.02 0.22
-12 -8 10 -0.15 0.35
-10 9 -12 1.68 0.26
-9 10 12 1.73 0.27
9 12 10 1.79 0.28
10 -9 -12 3.35 0.4
-12 -9 -10 2.93 0.32
12 10 9 1.76 0.25
12 -10 -9 1.67 0.23
-10 -12 -9 1.72 0.23
9 10 -12 1.2 0.31
-10 12 9 1.85 0.29
12 9 -10 1.62 0.28
10 9 12 1.85 0.25
9 -12 -10 3.61 0.45
10 12 -9 1.62 0.31
9 -10 12 1.96 0.27
12 -9 10 1.22 0.24
-9 -10 -12 2.6 0.35
10 -12 9 1.36 0.27
-12 10 -9 1.22 0.27
-12 -10 9 1.27 0.29
-12 9 10 1.73 0.26
-9 -12 10 1.89 0.3
-9 12 -10 1.49 0.29
-10 -9 12 1.79 0.32
-12 -9 10 1.3 0.31
-9 -10 12 1.04 0.3
12 -9 -10 1.49 0.22
9 10 12 1.84 0.26
-12 9 -10 1.46 0.25
-10 9 12 1.81 0.26
10 -9 12 1.46 0.26
10 9 -12 1.34 0.29
-10 12 -9 1.93 0.3
-9 -12 -10 2.98 0.39
-9 12 10 1.99 0.28
10 12 9 1.67 0.28
10 -12 -9 1.76 0.23
-9 10 -12 1.73 0.28
9 -10 -12 1.69 0.24
-12 10 9 1.3 0.26
9 -12 10 1.62 0.27
-10 -12 9 0.91 0.29
-12 -10 -9 2.57 0.36
12 -10 9 1.63 0.25
12 10 -9 1.53 0.3
12 9 10 1.74 0.24
-10 -9 -12 2.56 0.34
9 12 -10 1.77 0.29
-10 -12 10 -0.65 0.27
-10 -12 -10 -0.32 0.18
-12 -10 -10 -0.23 0.16
-10 12 -10 -0.42 0.25
-10 12 10 0.17 0.24
10 -12 10 -0.49 0.24
10 -10 -12 0.07 0.18
-12 -10 10 0.06 0.27
10 10 -12 -0.26 0.26
10 10 12 -0.65 0.23
12 10 -10 0.01 0.29
12 10 10 -0.62 0.22
-10 -10 12 -0.2 0.29
12 -10 -10 -0.25 0.2
-10 10 12 -0.15 0.23
10 12 10 -0.44 0.25
10 -10 12 -0.26 0.23
10 -12 -10 -0.03 0.2
-10 -10 -12 -0.45 0.15
10 12 -10 -0.22 0.27
-12 10 10 0 0.24
-12 10 -10 -0.42 0.24
12 -10 10 -0.27 0.22
-10 10 -12 -0.68 0.24
-12 -11 0 18.2 1.61
-12 11 0 19.2 1.61
0 -12 11 18.7 1.63
0 -12 -11 21.55 1.58
0 -11 12 22.03 1.64
0 11 -12 20.73 1.65
11 0 12 18.77 1.52
12 0 11 18.34 1.51
11 12 0 21.49 1.63
12 0 11 18.6 1.52
12 -11 0 20.1 1.57
12 11 0 20.66 1.61
0 11 12 23.26 1.61
-11 -12 0 19.64 1.62
0 12 -11 18.84 1.66
0 12 11 23.53 1.62
-11 0 12 18.19 1.63
11 -12 0 20.3 1.57
-11 12 0 18.52 1.6
-12 0 11 19.17 1.63
-12 0 11 18.12 1.56
0 -11 -12 22.78 1.58
-11 0 12 17.42 1.56
11 0 12 19.41 1.54
-12 -11 1 1.28 0.28
11 12 -1 1.12 0.3
12 -11 -1 1.53 0.23
-11 12 1 1.14 0.28
11 1 12 1.51 0.16
-12 11 -1 1.47 0.27
-1 -12 11 0.87 0.32
-11 -1 12 1.2 0.26
-11 -1 12 0.99 0.22
1 11 -12 0.61 0.3
11 1 12 1.42 0.19
-1 12 -11 1.54 0.3
12 -1 11 2.09 0.28
12 -1 11 1.74 0.2
-12 1 11 1.05 0.21
1 -11 12 1.38 0.31
-11 -12 -1 1.56 0.28
-1 11 12 2.13 0.28
11 -12 1 1.44 0.24
-1 -11 -12 1.48 0.22
1 -12 -11 1.46 0.23
1 12 11 1.75 0.27
12 11 1 1.38 0.29
-12 1 11 0.95 0.27
11 -1 12 1.4 0.15
11 -12 -1 1.35 0.24
1 12 -11 0.97 0.3
-12 11 1 0.99 0.27
11 -1 12 1.46 0.2
1 -12 11 1.2 0.3
1 11 12 1.82 0.27
1 -11 -12 1.32 0.22
-12 -1 11 1.49 0.23
-12 -11 -1 1.32 0.27
12 11 -1 0.98 0.28
12 1 11 1.26 0.16
-11 -12 1 1.39 0.29
-11 12 -1 1.78 0.29
11 12 1 1.36 0.29
-11 1 12 1.14 0.23
-1 -11 12 0.93 0.29
-1 11 -12 1.54 0.29
-12 -1 11 1.44 0.28
-1 12 11 0.83 0.29
12 -11 1 1.35 0.24
-1 -12 -11 1.65 0.21
-11 1 12 1.57 0.28
-12 -11 2 -0.37 0.24
11 2 12 -0.4 0.13
2 -12 -11 -0.18 0.19
-11 -12 -2 -0.17 0.24
12 -11 -2 -0.24 0.19
-12 11 -2 -0.21 0.23
-11 12 2 -0.46 0.24
-2 11 12 0.13 0.24
-2 12 -11 0.1 0.26
-12 2 11 -0.02 0.19
12 -2 11 -0.18 0.13
12 -2 11 -0.06 0.08
11 12 -2 -0.58 0.26
12 11 2 -0.28 0.24
-2 -12 11 -0.57 0.43
2 12 11 -0.07 0.23
2 -11 12 -0.05 0.27
2 11 -12 -0.77 0.24
-12 2 11 -0.1 0.22
-2 -11 -12 -0.38 0.18
11 -12 2 0 0.21
-11 -2 12 -0.53 0.25
-2 12 11 -0.24 0.24
2 -11 -12 -0.45 0.18
11 12 2 0.21 0.25
-11 12 -2 -0.26 0.24
-12 -2 11 -0.38 0.23
11 -12 -2 -0.36 0.19
-12 11 2 -0.01 0.23
2 12 -11 -0.15 0.31
-12 -11 -2 -0.22 0.22
12 2 11 -0.11 0.11
-11 2 12 -0.45 0.22
-2 -12 -11 -0.11 0.18
-2 -11 12 -0.23 0.3
11 -2 12 -0.23 0.16
12 2 11 -0.26 0.11
11 -2 12 -0.32 0.09
12 -11 2 -0.36 0.18
-11 -12 2 -0.13 0.25
-2 11 -12 -0.22 0.25
2 -12 11 -0.38 0.27
2 11 12 -0.18 0.23
12 11 -2 -0.14 0.25
-3 -11 -12 0.3 0.17
-11 12 3 0.3 0.23
-12 -11 3 0.48 0.24
-12 3 11 0.63 0.19
12 -3 11 0.58 0.15
-11 -3 12 0.5 0.27
-11 3 -12 0.55 0.13
-3 -12 11 -0.05 0.33
-11 -12 -3 0.37 0.22
11 -12 3 0.49 0.21
3 12 11 0.5 0.23
12 11 3 0.25 0.23
3 -11 12 0.23 0.25
-12 11 -3 0.49 0.23
12 3 -11 0.75 0.24
12 -11 -3 0.34 0.18
-3 12 -11 0.28 0.26
-12 3 11 0.49 0.22
11 3 12 0.59 0.13
11 12 -3 0.51 0.26
11 3 12 0.44 0.14
-12 11 3 0.66 0.23
-3 -12 -11 0.43 0.18
12 -11 3 0.34 0.19
12 11 -3 0.67 0.25
11 -3 12 0.46 0.17
-11 -12 3 0.29 0.25
-3 -11 12 0.42 0.39
12 3 11 0.38 0.12
-11 3 12 0.31 0.22
3 -12 11 0.15 0.25
-11 12 -3 0.41 0.24
-11 3 12 0.27 0.2
12 3 11 0.48 0.11
-12 -11 -3 0.13 0.2
3 11 12 0.14 0.22
11 -12 -3 0.59 0.21
11 12 3 0.66 0.24
11 3 -12 0.45 0.24
-12 -3 11 0.28 0.25
-3 11 -12 0.15 0.25
4 11 -12 1.1 0.29
4 -11 12 1.07 0.27
-12 4 11 1.33 0.23
-12 11 -4 1.52 0.26
12 11 4 0.95 0.24
-11 4 -12 1.5 0.18
-4 11 12 1.23 0.25
-11 -4 12 0.87 0.37
11 4 12 2.24 0.31
-12 4 11 1.49 0.21
12 4 -11 1.11 0.26
4 -12 -11 1.06 0.2
-4 -12 11 1.05 0.27
-12 -11 4 1.39 0.27
4 12 11 1.3 0.25
-11 -12 -4 1.26 0.23
-4 -11 -12 2.65 0.36
12 -11 -4 1.66 0.22
11 -12 4 1.23 0.22
11 12 -4 1.02 0.28
-11 12 4 1.27 0.26
-4 12 -11 1.12 0.29
12 -4 11 1.36 0.19
11 4 12 1.29 0.16
4 -12 11 1.4 0.28
-11 12 -4 1.42 0.26
-12 -4 11 1.12 0.27
-12 4 -11 1.48 0.17
-11 -12 4 1.34 0.26
12 4 11 1.74 0.25
12 4 11 1.17 0.17
11 -4 12 1.25 0.2
11 4 -12 1.57 0.35
-11 4 12 1.24 0.33
-12 -11 -4 1.3 0.22
-4 -11 12 1.38 0.3
12 -11 4 1.03 0.22
12 11 -4 1.52 0.27
-4 12 11 1.04 0.25
11 12 4 1.15 0.26
-4 11 -12 1.43 0.28
4 -11 -12 1.59 0.22
11 -12 -4 1.21 0.21
-12 11 4 1.2 0.24
4 11 12 1.51 0.24
4 12 -11 1.09 0.28
-4 -12 -11 1.32 0.2
11 -12 5 -0.04 0.19
-11 -12 -5 -0.12 0.18
-12 11 -5 0 0.21
-11 -5 12 0.36 0.32
-5 11 12 -0.08 0.2
-12 5 11 -0.03 0.29
5 -11 12 -0.05 0.23
5 11 -12 0.14 0.24
-5 -12 11 -0.21 0.23
-5 12 -11 -0.15 0.25
5 12 11 0.23 0.21
5 -12 -11 -0.05 0.16
-5 -11 -12 -0.05 0.16
11 5 12 0.08 0.14
12 -11 -5 0.14 0.16
-12 -11 5 -0.57 0.23
12 5 -11 0.05 0.22
12 11 5 -0.05 0.21
-11 12 5 0.01 0.2
-11 5 -12 0.04 0.14
11 12 -5 0.08 0.24
12 -5 11 0.15 0.15
-12 5 11 0.16 0.2
-12 -11 -5 -0.12 0.17
11 -5 12 0.11 0.17
11 -12 -5 0.2 0.16
-12 11 5 -0.19 0.2
12 11 -5 0.06 0.23
5 -12 11 0.34 0.23
-5 11 -12 0.25 0.25
-5 -11 12 0.17 0.27
12 5 11 -0.04 0.14
12 -11 5 -0.2 0.17
-11 -12 5 -0.33 0.24
5 11 12 -0.15 0.2
-11 5 12 -0.07 0.21
-11 5 12 -0.22 0.19
-11 12 -5 0 0.22
-12 -5 11 0.14 0.26
5 12 -11 -0.27 0.25
11 12 5 0.18 0.22
11 5 -12 -0.13 0.3
-5 12 11 0.21 0.21
-5 -12 -11 0.11 0.16
5 -11 -12 0.06 0.16
-12 5 -11 0.05 0.14
-6 12 -11 0.07 0.24
-11 -6 12 -0.21 0.23
-11 12 6 -0.2 0.22
11 -12 6 -0.09 0.19
6 11 -12 0.21 0.24
6 12 11 -0.11 0.21
12 6 -11 0.11 0.34
-11 -12 -6 0.16 0.17
6 -12 -11 0.1 0.17
-12 -6 -11 -0.1 0.09
12 -11 -6 -0.09 0.16
-12 11 -6 0.28 0.21
-6 -11 -12 -0.11 0.16
-6 -12 11 -0.24 0.23
6 -11 12 0.02 0.23
12 -6 11 -0.02 0.16
-6 11 12 0.11 0.19
-12 -11 6 0.12 0.24
-11 6 -12 0.05 0.15
12 11 6 -0.03 0.2
-12 6 11 -0.1 0.22
11 6 12 0.06 0.16
11 12 -6 0.3 0.24
-11 6 12 0.06 0.19
6 -12 11 0.43 0.23
6 12 -11 -0.22 0.22
-11 -6 -12 -0.17 0.1
11 6 -12 0.35 0.22
-12 -6 11 -0.13 0.41
-12 -11 -6 -0.09 0.16
12 6 11 0.01 0.15
12 -11 6 -0.26 0.18
-12 11 6 0.21 0.21
6 11 12 -0.19 0.2
11 -12 -6 -0.02 0.2
12 11 -6 0.02 0.22
6 -11 -12 0.19 0.16
-6 11 -12 -0.19 0.23
11 -6 12 -0.12 0.17
-6 -11 12 0.13 0.25
-6 -12 -11 0.03 0.16
-6 12 11 -0.06 0.22
-11 12 -6 -0.08 0.22
-12 6 -11 0.16 0.16
-11 -12 6 0.01 0.23
11 12 6 -0.14 0.21
-12 -7 -11 -0.2 0.11
-7 -12 11 -0.39 0.24
11 7 12 -0.09 0.16
12 7 -11 0.16 0.23
-7 -11 -12 -0.22 0.16
-12 -11 7 0.08 0.23
7 12 11 0.21 0.22
-12 11 -7 -0.03 0.21
-7 12 -11 -0.13 0.23
-11 -7 12 -0.21 0.24
12 -7 11 -0.04 0.17
12 11 7 0.05 0.2
-11 12 7 -0.36 0.21
-7 11 12 0 0.21
11 -12 7 0.08 0.21
-11 7 -12 -0.08 0.17
7 -12 -11 -0.1 0.17
11 -7 -12 0.13 0.18
-12 7 11 -0.14 0.18
-11 -12 -7 -0.06 0.17
7 11 -12 -0.22 0.25
7 -11 12 0.27 0.22
7 -11 -12 0.16 0.15
7 11 12 -0.14 0.2
11 -12 -7 -0.17 0.16
-12 7 -11 -0.14 0.16
11 -7 12 0.16 0.19
12 -7 -11 -0.18 0.15
-11 -7 -12 0.02 0.11
12 -11 7 -0.1 0.19
11 12 7 0.07 0.22
-7 -11 12 0.05 0.24
-7 11 -12 -0.12 0.23
-11 12 -7 0.03 0.23
7 12 -11 -0.2 0.24
12 7 11 -0.21 0.16
-11 7 12 -0.03 0.18
-7 -12 -11 0.07 0.16
11 7 -12 -0.09 0.23
-11 -12 7 -0.3 0.43
-7 12 11 0.03 0.22
-12 -7 11 0.05 0.24
7 -12 11 0.03 0.23
-12 -11 -7 -0.11 0.16
12 11 -7 0.07 0.24
12 -8 11 -0.11 0.19
12 11 8 -0.12 0.21
11 8 12 -0.12 0.19
-12 -11 8 -0.06 0.24
-12 11 -8 0.04 0.22
-11 -12 -8 -0.14 0.18
12 -11 -8 -0.02 0.17
8 12 11 0.2 0.23
-8 11 12 -0.01 0.21
8 -12 -11 -0.11 0.17
8 -11 12 -0.12 0.23
12 8 -11 -0.08 0.23
-12 -8 -11 0.09 0.12
11 12 -8 0.21 0.25
11 -8 -12 -0.04 0.17
-12 8 11 -0.16 0.2
-8 -12 11 -0.28 0.25
-8 12 -11 -0.17 0.24
8 11 -12 -0.21 0.24
-11 12 8 -0.12 0.22
-8 -11 -12 -0.28 0.16
11 -12 8 -0.27 0.21
-11 8 -12 0.13 0.19
-11 -8 12 -0.23 0.25
8 -12 11 -0.09 0.22
8 12 -11 0.22 0.26
-11 -8 -12 -0.1 0.12
8 -11 -12 -0.05 0.17
-8 11 -12 -0.21 0.23
-11 8 12 -0.18 0.21
-8 -12 -11 -0.09 0.17
-12 11 8 -0.11 0.22
-11 -12 8 -0.05 0.26
-12 -11 -8 0.02 0.17
-12 8 -11 -0.02 0.19
12 8 11 -0.1 0.19
11 8 -12 -0.01 0.23
12 -11 8 -0.03 0.21
12 11 -8 -0.37 0.25
11 -8 12 0 0.2
-8 12 11 -0.04 0.23
11 12 8 0.15 0.23
12 -8 -11 0.19 0.17
-8 -11 12 0.04 0.27
-11 12 -8 0.05 0.23
8 11 12 0.1 0.22
11 -12 -8 -0.17 0.17
-12 -8 11 -0.51 0.25
11 9 12 1.47 0.25
-11 -9 12 1.26 0.3
-11 9 -12 1.62 0.26
9 12 11 1.28 0.28
12 11 9 1.53 0.26
-9 11 12 1.7 0.27
12 -9 11 1.27 0.25
11 -12 9 1.75 0.27
12 9 -11 1.47 0.3
-12 -11 9 0.96 0.3
-12 11 -9 1.58 0.29
-9 -11 -12 1.73 0.22
-9 12 -11 1.61 0.3
-12 -9 -11 1.14 0.18
9 -12 -11 1.61 0.23
11 12 -9 1.3 0.31
-9 -12 11 0.97 0.31
-11 -12 -9 1.64 0.22
11 -9 -12 1.68 0.23
9 -11 12 1.56 0.28
-11 12 9 1.51 0.28
-12 9 11 1.56 0.26
12 -11 -9 1.41 0.22
9 11 -12 0.99 0.3
-12 -9 11 1.59 0.3
11 -9 12 1.26 0.26
-11 -12 9 1.41 0.31
-9 11 -12 0.89 0.27
9 11 12 1.3 0.27
11 -12 -9 1.64 0.24
-11 12 -9 1.31 0.29
-11 -9 -12 2.77 0.32
-11 9 12 1.55 0.26
12 -9 -11 1.34 0.22
9 -11 -12 1.51 0.24
-9 -12 -11 1.28 0.22
9 12 -11 1.43 0.32
9 -12 11 0.76 0.27
-12 -11 -9 1.34 0.21
-9 12 11 1.16 0.27
11 12 9 1.51 0.28
12 -11 9 1.35 0.26
12 11 -9 1.11 0.3
-12 9 -11 1.11 0.25
12 9 11 1.05 0.24
11 9 -12 1.67 0.3
-9 -11 12 1.65 0.31
-12 11 9 1.34 0.26
-10 11 12 6.1 0.69
12 10 -11 5.45 0.75
10 11 -12 5.53 0.76
12 -11 -10 6.09 0.62
12 11 10 5.58 0.7
-12 11 -10 6.03 0.74
-10 12 -11 4.78 0.73
-12 -11 10 6.5 0.77
-12 -10 -11 5.73 0.58
10 -12 -11 5.84 0.63
-10 -12 11 5.21 0.78
11 -12 10 5.5 0.71
11 10 12 5.38 0.69
-11 10 -12 5.53 0.71
-10 -11 -12 6.46 0.6
12 -10 11 5.64 0.67
10 -11 12 5.04 0.7
-12 10 11 4.99 0.68
-11 -12 -10 5.13 0.61
11 -10 -12 5.82 0.62
-11 12 10 5.13 0.7
10 12 11 5.68 0.72
12 -11 10 5.52 0.7
-11 12 -10 5.9 0.76
-11 -10 -12 5.03 0.57
10 -11 -12 5.67 0.64
-12 10 -11 6.51 0.71
-11 10 12 4.91 0.67
10 11 12 6.59 0.69
11 -12 -10 5.38 0.65
11 10 -12 5.24 0.75
-10 11 -12 5.38 0.73
11 12 10 5.55 0.71
12 -10 -11 6.04 0.62
-12 -10 11 6.16 0.78
-12 -11 -10 5.7 0.6
12 10 11 6.7 0.66
-10 -11 12 5.76 0.78
-11 -12 10 6.24 0.8
11 -10 12 5.84 0.68
-10 12 11 4.92 0.69
12 11 -10 5.56 0.76
10 -12 11 5.8 0.74
-12 11 10 5.96 0.68
10 12 -11 5.14 0.8
-10 -12 -11 5.88 0.62
-11 12 -11 0.91 0.31
-11 12 11 0.54 0.28
-11 11 12 1.2 0.28
-11 -11 12 1.87 0.35
-11 11 -12 1.11 0.29
-11 -12 -11 1.2 0.22
-11 -12 11 0.26 0.34
-11 -11 -12 0.97 0.22
-12 -11 -11 1.43 0.21
-12 -11 11 1.14 0.34
-12 11 -11 1 0.29
-12 11 11 0.76 0.28
12 -11 -11 1.5 0.26
12 -11 11 0.63 0.27
12 11 -11 1.08 0.32
12 11 11 1.09 0.28
11 12 -11 0.97 0.33
11 12 11 0.48 0.29
11 11 -12 0.49 0.33
11 11 12 0.8 0.29
11 -12 11 0.77 0.29
11 -11 -12 0.81 0.23
11 -11 12 1.01 0.28
11 -12 -11 1.05 0.23
12 0 12 0.51 0.14
12 12 0 0.08 0.28
-12 0 12 0.66 0.24
-12 12 0 0.33 0.27
-12 -12 0 0.12 0.27
-12 0 12 -0.71 0.39
0 12 12 -0.55 0.27
0 12 -12 -0.42 0.46
0 -12 -12 0.16 0.21
12 -12 0 0.35 0.21
12 -1 12 -0.03 0.1
12 -1 12 -0.36 0.14
12 -12 1 -0.19 0.21
-12 -12 -1 -0.41 0.25
1 12 -12 -0.04 0.32
1 12 12 -0.65 0.24
12 -12 -1 -0.08 0.2
-12 -12 1 -0.01 0.27
-12 -1 12 -0.09 0.45
-12 -1 12 -0.11 0.21
-12 1 12 0.02 0.26
-12 12 -1 -0.03 0.26
-12 12 1 -0.22 0.26
-1 -12 -12 -0.58 0.2
-1 -12 12 -0.26 0.31
-1 12 -12 -0.62 0.28
1 -12 12 -0.82 0.28
12 12 -1 -0.29 0.27
12 12 1 -0.48 0.26
12 1 12 -0.22 0.13
12 1 12 -0.16 0.11
12 -2 12 25.77 1.93
12 -2 12 24.08 1.91
12 12 -2 26.26 2.01
12 12 2 25.16 1.99
12 2 12 24.22 1.92
12 2 12 25.18 1.91
-12 -12 -2 25.8 1.99
-12 -12 2 25.09 2
-12 12 -2 23.55 1.99
-12 12 2 25.02 1.98
-2 -12 -12 27.56 1.96
-2 -12 12 22.66 2.01
-2 12 -12 24.65 2.03
-2 12 12 23.19 1.98
2 -12 -12 25.26 1.95
2 -12 12 23.66 2.01
2 12 -12 23.64 2.02
2 12 12 25.86 1.97
12 -12 -2 27.56 1.97
12 -12 2 25.48 1.96
-12 12 -3 -0.03 0.24
-12 12 3 -0.27 0.22
-12 -12 3 -0.26 0.26
-12 -3 12 -0.12 0.32
-12 3 12 -0.47 0.23
-12 3 12 0.05 0.23
-12 -12 -3 -0.25 0.21
3 12 -12 0.1 0.28
3 12 12 -0.42 0.22
12 -12 -3 -0.14 0.18
12 -12 3 -0.23 0.2
12 -3 12 -0.46 0.15
12 3 -12 -0.24 0.31
12 3 12 -0.04 0.11
12 3 12 -0.08 0.12
12 12 -3 -0.49 0.25
12 12 3 -0.81 0.23
3 -12 -12 -0.06 0.17
3 -12 12 -0.22 0.26
-3 -12 -12 -0.13 0.18
-3 -12 12 -0.57 0.27
-3 12 -12 0.16 0.27
-3 12 12 -0.47 0.24
-12 -12 -4 0.61 0.2
-12 -12 4 0.4 0.25
-4 -12 -12 0.54 0.18
-4 -12 12 0.56 0.27
-4 12 -12 0.85 0.26
4 12 -12 0.72 0.26
4 12 12 0.45 0.23
12 -12 -4 0.53 0.18
12 -12 4 0.59 0.21
12 -4 12 0.42 0.17
12 4 -12 0.68 0.23
12 4 12 0.52 0.13
12 4 12 0.52 0.15
12 12 -4 0.48 0.25
12 12 4 0.68 0.23
-12 12 -4 0.1 0.24
-12 12 4 0.7 0.24
-4 12 12 0.37 0.25
4 -12 -12 0.72 0.18
4 -12 12 0.43 0.24
-12 -4 12 0.41 0.26
-12 4 -12 0.59 0.14
-12 4 12 0.65 0.25
-12 4 12 0.63 0.2
-5 -12 12 0.15 0.26
-12 -12 5 0.31 0.24
-12 -5 12 -0.01 0.24
-12 5 -12 -0.01 0.14
12 -12 -5 0.04 0.17
12 -12 5 -0.12 0.18
-12 -12 -5 -0.11 0.18
-12 5 12 0.3 0.18
-12 12 -5 -0.07 0.22
-12 12 5 0.02 0.2
-5 -12 -12 -0.18 0.16
12 -5 12 -0.3 0.16
12 5 -12 0.13 0.22
12 5 12 -0.13 0.11
12 5 12 -0.05 0.14
-12 5 12 0.04 0.21
12 12 -5 0.3 0.25
12 12 5 -0.24 0.22
-5 12 -12 -0.48 0.23
-5 12 12 -0.06 0.22
5 -12 -12 0.02 0.17
5 -12 12 -0.19 0.24
5 12 -12 0 0.23
5 12 12 -0.14 0.21
12 12 6 -0.12 0.21
-12 6 12 0.04 0.19
-12 12 -6 -0.16 0.22
12 6 -12 -0.16 0.22
12 6 12 -0.12 0.16
12 12 -6 0.07 0.27
6 -12 12 0.01 0.23
6 12 -12 -0.12 0.25
6 12 12 0.14 0.22
12 -12 -6 -0.1 0.19
12 -12 6 0.06 0.19
12 -6 12 -0.08 0.17
-12 -12 -6 0.18 0.18
-12 -12 6 0.11 0.26
-12 -6 12 0.23 0.25
-12 6 -12 0.05 0.15
-6 12 12 -0.13 0.2
6 -12 -12 0.26 0.17
-12 12 6 -0.18 0.34
-6 -12 -12 -0.08 0.16
-6 -12 12 0 0.25
-6 12 -12 0.26 0.24
-12 -12 -7 -0.32 0.18
-12 -12 7 -0.11 0.25
-7 12 12 -0.02 0.22
7 -12 -12 -0.18 0.17
7 -12 12 0.35 0.24
7 12 -12 -0.44 0.26
7 12 12 -0.24 0.22
12 -12 -7 -0.05 0.16
12 -12 7 -0.27 0.21
12 -7 12 -0.13 0.18
12 7 -12 0.19 0.25
12 7 12 -0.24 0.17
12 12 -7 -0.16 0.24
12 12 7 -0.09 0.22
-7 -12 -12 -0.2 0.16
-7 -12 12 -0.08 0.25
-7 12 -12 -0.26 0.24
-12 12 7 -0.44 0.22
-12 7 12 0.07 0.19
-12 12 -7 -0.07 0.23
-12 -7 12 -0.02 0.25
-12 7 -12 -0.18 0.17
-12 -7 -12 -0.17 0.11
-8 -12 -12 4.92 0.51
-12 12 8 5.49 0.64
-12 8 -12 4.37 0.56
-12 8 12 4.75 0.59
-12 -12 -8 5.28 0.55
-12 -8 -12 4.05 0.45
12 -8 -12 4.56 0.53
12 -8 12 4.65 0.57
12 8 -12 4.39 0.65
12 8 12 4.59 0.55
12 12 -8 4.75 0.67
12 12 8 4.11 0.63
-8 12 12 4.84 0.6
8 -12 -12 4.52 0.55
8 -12 12 4.12 0.64
8 12 12 4.49 0.63
12 -12 -8 4.86 0.54
12 -12 8 4.52 0.61
-8 -12 12 4.91 0.69
12 9 -12 -0.71 0.27
12 -9 12 -0.53 0.22
12 12 -9 -0.55 0.28
12 12 9 -0.55 0.25
-9 12 -12 -0.76 0.26
-9 12 12 -0.39 0.25
9 -12 -12 -0.4 0.19
9 -12 12 -0.32 0.25
9 12 -12 -0.43 0.29
9 12 12 -0.39 0.25
-12 9 12 -0.55 0.23
-12 12 -9 -0.46 0.27
-12 12 9 -0.26 0.25
-9 -12 -12 -0.55 0.18
-9 -12 12 -0.65 0.28
-12 9 -12 -0.5 0.22
12 -12 -9 -0.3 0.2
12 -12 9 -0.42 0.24
12 -9 -12 -0.53 0.19
-12 -9 -12 -0.5 0.14
-12 -9 12 -0.36 0.28
12 9 12 -0.52 0.22
-12 -12 -9 -0.26 0.19
-12 -12 9 -0.59 0.27
10 -12 12 4.78 0.61
10 12 -12 1.74 0.38
10 12 12 4.82 0.64
12 10 12 2.52 0.35
-12 10 -12 5.06 0.62
-12 10 12 4.2 0.58
12 12 -10 2.34 0.39
12 -10 12 2.35 0.36
12 10 -12 2.53 0.38
-10 -12 12 2.46 0.42
-10 12 -12 2.43 0.38
-12 -10 12 2.01 0.41
12 12 10 4.48 0.61
10 -12 -12 4.28 0.53
-12 -12 10 2.52 0.4
-10 12 12 4.76 0.6
12 -12 -10 3.81 0.51
12 -12 10 5.12 0.62
-12 -12 -10 3.66 0.51
-12 12 -10 2.53 0.38
-12 12 10 2.72 0.38
-10 -12 -12 4.42 0.47
-12 -11 12 1.16 0.33
-12 11 -12 0.33 0.27
-12 11 12 0.49 0.27
-12 -12 11 0.71 0.33
-12 -11 -12 0.3 0.2
11 12 12 0.56 0.29
12 -12 -11 0.44 0.24
12 -12 11 0.3 0.28
-12 -12 -11 0.53 0.21
-12 12 -11 0.66 0.3
-12 12 11 0.09 0.27
-11 -12 -12 0.33 0.2
-11 -12 12 0.89 0.34
11 12 -12 0.25 0.33
12 -11 -12 0.36 0.24
12 -11 12 0.23 0.28
12 11 -12 0 0.3
12 11 12 -0.11 0.27
12 12 -11 0.54 0.31
12 12 11 -0.27 0.28
-11 12 -12 -0.45 0.29
-11 12 12 0.58 0.27
11 -12 -12 0.69 0.23
11 -12 12 -0.07 0.28
12 12 12 14.87 1.31
12 -12 -12 16.04 1.27
12 -12 12 14.4 1.32
-12 12 -12 14.73 1.33
-12 -12 -12 14.98 1.24
0 0 13 -0.47 0.14
0 0 13 -0.65 0.19
-13 0 0 -0.2 0.14
-13 0 0 -0.32 0.1
-13 0 1 0.7 0.12
-1 -13 0 -0.01 0.22
-13 0 -1 0.41 0.13
-13 0 -1 0.61 0.11
-13 0 1 0.29 0.15
-1 13 0 -0.29 0.24
0 -1 13 0.84 0.21
0 1 13 0.65 0.21
0 1 13 1.09 0.16
1 -13 0 0 0.22
1 13 0 0.04 0.24
-13 -1 0 0.62 0.11
-13 1 0 0.6 0.14
-13 1 0 0.48 0.12
-13 -1 0 0.31 0.14
0 -13 1 0.47 0.22
0 13 -1 0.19 0.24
0 13 1 0.16 0.24
1 0 13 0.52 0.2
1 0 13 0.51 0.15
-1 0 13 0.45 0.15
0 -13 -1 0.69 0.23
-1 0 13 0.57 0.21
-13 1 1 -0.06 0.12
-13 1 1 -0.16 0.14
-13 1 -1 -0.23 0.11
-13 1 -1 -0.04 0.12
1 -13 1 -0.29 0.2
-13 -1 1 -0.15 0.1
-1 1 13 -0.14 0.19
-1 1 13 -0.2 0.14
-1 13 -1 -0.45 0.24
1 -13 -1 -0.34 0.21
1 13 1 -0.62 0.24
1 -1 13 -0.17 0.19
1 1 13 -0.08 0.19
1 1 13 -0.04 0.14
-13 -1 -1 -0.11 0.13
-13 -1 -1 -0.05 0.09
-1 -1 13 -0.12 0.2
-1 -13 -1 -0.37 0.2
1 13 -1 -0.41 0.23
-1 -13 1 -0.74 0.2
-13 -1 1 -0.06 0.15
0 -2 13 17.79 1.45
-13 2 0 18.46 1.38
-13 2 0 18.16 1.37
2 0 13 17.7 1.43
0 2 -13 18.08 1.42
-2 0 13 17.86 1.44
-13 -2 0 17.33 1.39
0 2 13 17.69 1.42
0 2 13 19.38 1.4
2 -13 0 18.44 1.44
2 13 0 17.68 1.45
-13 0 2 18.56 1.38
-2 -13 0 17.76 1.44
-2 13 0 17.1 1.45
-13 0 -2 17.23 1.37
-2 0 13 17.31 1.39
-13 0 2 16.97 1.4
0 -13 2 16.97 1.44
2 0 13 17.69 1.39
-13 0 -2 17.52 1.36
0 13 -2 16.59 1.46
0 13 2 16.81 1.45
0 -13 -2 18.11 1.43
-2 -1 13 0.99 0.23
-13 2 -1 0.94 0.15
2 1 13 1.05 0.21
1 13 2 0.67 0.27
-13 2 -1 0.99 0.14
2 13 -1 0.6 0.26
1 -2 13 0.72 0.22
1 -13 -2 1.04 0.24
-2 13 1 0.82 0.26
-1 2 13 1.06 0.22
-1 13 -2 0.84 0.26
-13 1 2 1.19 0.15
-13 1 2 1.17 0.18
-13 -1 -2 1.13 0.15
2 -13 1 0.72 0.23
-13 -2 1 1.08 0.18
-1 2 13 1.19 0.19
2 1 13 0.86 0.16
-2 -13 -1 0.81 0.23
-13 -1 -2 1.15 0.12
-1 -13 2 0.87 0.25
1 2 -13 1.34 0.23
1 13 -2 0.61 0.25
2 -1 13 0.89 0.21
1 2 13 0.76 0.2
-13 -1 2 0.96 0.19
-13 2 1 0.99 0.17
-1 13 2 0.58 0.27
1 -13 2 0.88 0.23
-2 13 -1 0.55 0.26
2 13 1 0.99 0.27
-1 2 -13 0.89 0.21
-13 -2 -1 1.01 0.16
-2 1 13 1.02 0.18
-1 -13 -2 0.63 0.22
-2 -13 1 0.43 0.24
2 -13 -1 0.83 0.24
1 2 13 0.79 0.17
-13 -1 2 1.15 0.14
-13 1 -2 1.08 0.14
-13 1 -2 1.14 0.13
-1 -2 13 0.81 0.23
-13 2 1 1.19 0.15
-2 1 13 1.27 0.23
2 2 -13 -0.03 0.19
-13 2 -2 0.12 0.1
-13 2 -2 -0.1 0.11
-13 2 2 -0.2 0.15
-2 2 13 -0.21 0.18
-2 13 -2 -0.49 0.23
-2 13 2 -0.41 0.24
2 -13 -2 -0.03 0.2
-13 -2 -2 -0.16 0.08
-13 -2 2 -0.08 0.15
-2 2 13 -0.07 0.16
-2 -2 13 -0.31 0.21
-2 2 -13 -0.33 0.18
-13 -2 -2 -0.18 0.12
-2 -13 2 -0.23 0.23
2 -13 2 -0.25 0.22
2 2 13 -0.33 0.18
2 2 13 -0.01 0.14
2 13 -2 -0.44 0.23
2 13 2 -0.28 0.23
-13 2 2 -0.36 0.13
-2 -13 -2 -0.29 0.2
2 -2 13 -0.44 0.21
-13 0 -3 0.5 0.1
-13 0 -3 0.41 0.09
-13 0 3 0.31 0.17
-13 0 3 0.25 0.13
0 -13 3 0.49 0.24
0 13 -3 0.55 0.25
0 13 3 0.17 0.25
3 0 13 0.87 0.19
3 0 13 0.22 0.13
13 3 0 0.49 0.14
-3 13 0 -0.08 0.25
0 -3 13 0.45 0.21
0 3 -13 0.47 0.21
-13 3 0 0.52 0.14
-3 0 13 0.04 0.2
-3 0 13 0.58 0.16
0 -13 -3 0.66 0.21
0 3 13 0.61 0.16
-13 -3 0 0.56 0.16
-3 -13 0 0.4 0.23
3 -13 0 0.43 0.21
3 13 0 0.26 0.25
0 3 13 0.22 0.18
-13 1 3 0.06 0.13
3 -13 1 -0.03 0.22
3 13 -1 -0.14 0.24
-3 13 1 0.39 0.24
-1 -13 3 0.16 0.23
-3 -13 -1 0.06 0.22
1 3 -13 0.29 0.2
1 -13 -3 0.4 0.2
13 3 1 0.23 0.12
-1 3 13 0 0.18
-3 -1 13 0.04 0.21
-13 -1 -3 -0.01 0.07
3 1 13 0.19 0.17
3 1 13 0.08 0.13
-1 13 -3 0.23 0.23
1 -3 13 0.08 0.2
-13 -1 -3 0.23 0.09
1 13 3 0.35 0.23
-13 -3 1 0.12 0.16
-13 3 -1 0.24 0.13
-13 1 3 0.12 0.16
-1 3 13 0.19 0.16
3 13 1 -0.02 0.22
-1 -3 13 -0.03 0.21
-13 1 -3 0.04 0.09
1 3 13 0.22 0.17
-13 -3 -1 0.38 0.15
1 3 13 0.63 0.15
-1 3 -13 0.13 0.2
13 3 -1 0.33 0.15
3 -13 -1 0.05 0.2
-13 3 1 0.01 0.14
-1 13 3 0.13 0.24
-3 1 13 0.46 0.22
-3 1 13 0.15 0.16
-1 -13 -3 0.02 0.19
-13 -1 3 0.1 0.16
-13 -1 3 0.14 0.12
-13 1 -3 0.05 0.09
1 -13 3 0.02 0.23
1 13 -3 0.36 0.24
3 -1 13 0.23 0.19
-3 -13 1 0.19 0.24
-3 13 -1 0.14 0.25
-13 -2 -3 0.92 0.1
3 2 13 1.19 0.19
3 2 13 1.04 0.16
-2 3 13 0.77 0.17
-13 -2 -3 0.83 0.12
2 13 3 0.55 0.24
-3 2 -13 1.16 0.2
-13 2 3 0.75 0.15
2 -13 -3 0.86 0.22
-13 -3 2 0.89 0.19
2 -3 13 0.97 0.22
-2 -13 3 0.9 0.25
-2 13 -3 0.88 0.25
-13 2 3 0.86 0.18
13 3 2 1.02 0.13
3 -13 2 0.86 0.23
3 13 -2 0.57 0.25
-3 13 2 0.68 0.24
-13 3 -2 0.74 0.14
-3 -2 13 1.13 0.23
2 3 -13 1.04 0.23
-2 3 13 0.89 0.2
-3 -13 -2 1.02 0.24
-3 -13 2 0.93 0.24
-2 13 3 0.88 0.24
-13 2 -3 0.97 0.13
2 13 -3 0.65 0.25
2 3 13 1.15 0.17
-2 3 -13 0.97 0.21
-2 -3 13 0.86 0.24
2 3 13 0.96 0.2
-13 2 -3 1.01 0.12
3 13 2 1.03 0.25
-2 -13 -3 0.82 0.22
3 -13 -2 0.95 0.21
-3 13 -2 0.86 0.26
2 -13 3 1.08 0.24
3 -2 13 0.86 0.2
3 2 -13 0.7 0.21
-13 3 2 1.01 0.16
-13 -2 3 0.71 0.19
-3 2 13 0.75 0.21
-3 2 13 0.96 0.17
13 3 -2 1.04 0.18
-13 -3 -2 1 0.15
-3 3 13 -0.07 0.18
-3 3 13 -0.28 0.16
-3 13 -3 -0.39 0.24
-13 -3 -3 -0.16 0.11
3 13 -3 -0.12 0.24
3 3 13 -0.15 0.16
3 3 13 -0.16 0.14
3 13 3 -0.13 0.24
-13 3 -3 -0.06 0.11
-13 3 3 0.01 0.13
-3 -13 -3 -0.03 0.2
-3 13 3 -0.05 0.23
3 -13 -3 -0.28 0.2
3 -13 3 -0.23 0.19
3 -3 13 -0.01 0.2
-3 -3 13 -0.17 0.22
-3 -13 3 0.17 0.21
13 -3 3 -0.12 0.07
13 3 -3 -0.38 0.16
3 3 -13 -0.29 0.19
-3 3 -13 0.03 0.18
-13 -3 3 -0.27 0.16
0 -13 -4 0.56 0.21
0 13 4 0.4 0.24
0 -4 13 0.85 0.25
-13 -4 0 0.63 0.17
-13 4 0 0.86 0.16
-4 0 13 0.65 0.22
-4 0 13 0.38 0.17
13 -4 0 0.63 0.12
13 4 0 0.59 0.16
4 0 13 0.92 0.18
-4 13 0 0.54 0.24
0 4 -13 0.43 0.23
0 4 13 0.75 0.16
4 -13 0 0.77 0.23
4 13 0 0.81 0.24
0 13 -4 0.53 0.26
4 0 13 0.65 0.14
0 -13 4 0.41 0.22
-13 0 4 0.81 0.14
-13 0 4 0.8 0.19
-4 -13 0 0.47 0.23
-4 -1 13 8.39 0.84
-13 1 4 9.13 0.79
1 -4 13 9.18 0.86
4 13 -1 7.9 0.86
-1 4 13 9.25 0.77
-4 -13 -1 8.41 0.82
1 4 -13 9.17 0.85
-1 -13 4 9.63 0.85
-1 13 -4 8.82 0.89
4 -13 1 8.8 0.83
13 4 1 9.48 0.75
1 -13 -4 8.84 0.81
4 1 13 9.19 0.79
-13 1 4 8.7 0.74
13 -4 -1 9.16 0.73
1 13 4 8.75 0.86
-13 -4 1 8.7 0.78
-13 4 -1 9.17 0.75
4 1 13 9.18 0.74
-4 13 1 8.29 0.84
4 -13 -1 8.88 0.81
-1 13 4 9.33 0.85
-13 -1 4 8.99 0.74
-4 1 13 8.53 0.77
-4 13 -1 8.53 0.85
1 4 13 9.08 0.77
-1 -4 13 8.97 0.85
1 -13 4 8.25 0.84
4 13 1 7.92 0.85
13 4 -1 9.07 0.77
-13 -4 -1 9.03 0.75
-4 -13 1 8.6 0.84
1 13 -4 8.53 0.88
-13 4 1 9.4 0.75
4 -1 13 8.8 0.81
13 -4 1 8.9 0.72
-1 4 -13 9.9 0.84
-4 1 13 9.33 0.84
-1 -13 -4 8.33 0.8
-13 -1 4 9.42 0.79
4 2 13 2.12 0.26
-4 13 2 2.35 0.32
4 13 -2 1.91 0.33
-13 -4 2 2.26 0.27
-13 4 -2 3.48 0.34
-4 -13 -2 1.62 0.28
-2 4 13 3.06 0.41
2 -4 13 2.43 0.3
13 4 2 3.04 0.34
2 13 4 2.42 0.32
-4 -2 13 2.45 0.31
-2 -13 4 2.29 0.32
-2 13 -4 2.16 0.33
-13 2 4 3.23 0.36
13 -4 -2 3.08 0.33
2 -13 -4 3.26 0.46
4 2 13 3.43 0.35
-13 2 4 3.38 0.42
2 4 -13 2.29 0.31
4 -13 2 2.02 0.29
-4 2 -13 3.45 0.43
2 -13 4 2.36 0.31
4 2 -13 3.67 0.48
-13 2 -4 3.1 0.26
-13 4 2 3.03 0.37
4 -2 13 3.46 0.46
-2 4 -13 2.26 0.29
-4 2 13 2.71 0.3
-2 -13 -4 2.45 0.29
4 13 2 4.07 0.52
4 -13 -2 3.72 0.47
2 4 13 3.01 0.37
-2 13 4 2.56 0.32
-4 2 13 1.72 0.25
-4 -13 2 1.86 0.3
2 13 -4 2.2 0.33
-13 -2 4 2.94 0.43
-2 -4 13 2.34 0.3
-4 13 -2 2.09 0.31
-13 2 -4 2.85 0.27
-13 -4 -2 3.43 0.35
13 -4 2 3.03 0.3
13 4 -2 3 0.42
4 13 -3 1.35 0.27
13 -3 4 2.18 0.2
-13 -4 3 1.39 0.21
-13 3 4 1.53 0.21
-13 3 4 1.68 0.2
-4 -13 -3 1.84 0.25
3 -4 13 1.36 0.25
3 4 -13 1.42 0.25
-13 4 -3 2.06 0.28
3 13 4 1.3 0.26
-13 -3 -4 1.67 0.21
-4 13 3 1.12 0.26
-4 3 -13 2.02 0.23
4 3 13 1.72 0.21
-3 4 13 1.42 0.25
-3 4 13 1.77 0.21
13 3 -4 1.48 0.22
4 3 13 1.85 0.19
13 4 3 1.88 0.26
-4 -3 13 1.78 0.28
4 -13 3 1.66 0.26
13 -4 -3 1.67 0.18
3 -13 -4 1.62 0.24
-3 13 -4 1.46 0.27
-3 -13 4 1.12 0.28
13 4 -3 1.27 0.21
-3 -4 13 1.63 0.27
-4 3 13 1.82 0.25
-4 3 13 1.75 0.21
-3 -13 -4 1.27 0.23
3 13 -4 1.51 0.28
-13 -3 4 1.51 0.22
-3 13 4 1.28 0.26
-13 3 -4 1.34 0.17
4 -13 -3 1.6 0.24
-13 4 3 1.64 0.2
13 -4 3 2.36 0.24
4 -3 13 1.81 0.24
4 3 -13 1.34 0.24
-3 4 -13 1.8 0.24
3 -13 4 1.65 0.28
-13 -4 -3 2.21 0.29
3 4 13 1.66 0.2
4 13 3 1.01 0.26
-4 -13 3 1.94 0.27
-4 13 -3 1.01 0.26
13 4 4 -0.06 0.09
-13 4 -4 -0.07 0.12
4 -13 -4 0.05 0.18
4 -4 13 0.05 0.19
4 4 -13 -0.36 0.19
4 4 13 -0.19 0.14
-13 4 4 -0.31 0.13
-13 -4 -4 -0.15 0.1
-4 -13 4 -0.38 0.23
-4 -4 13 -0.09 0.21
-4 4 -13 -0.05 0.18
-4 4 13 -0.33 0.2
-4 4 13 -0.03 0.17
-4 13 -4 -0.34 0.22
4 -13 4 -0.25 0.2
-13 -4 4 -0.17 0.17
-4 13 4 -0.03 0.22
-4 -13 -4 0.15 0.2
4 13 -4 -0.24 0.24
4 13 4 -0.1 0.23
13 -4 4 -0.1 0.09
13 4 -4 -0.14 0.17
0 5 -13 0.03 0.21
-13 0 5 -0.03 0.13
5 -13 0 -0.09 0.19
-13 0 5 -0.2 0.17
0 5 13 -0.17 0.17
13 5 0 0.08 0.15
0 -5 13 0.15 0.22
-5 0 13 0.01 0.2
5 13 0 -0.49 0.24
0 -13 -5 -0.08 0.19
0 -13 5 -0.02 0.22
0 13 -5 0.04 0.25
0 13 5 -0.08 0.22
5 0 13 -0.1 0.16
5 0 13 -0.16 0.12
13 -5 0 -0.13 0.11
0 -5 -13 0.03 0.15
-5 0 13 0.02 0.16
-13 -5 0 -0.24 0.15
-13 5 0 0.15 0.15
-5 13 0 -0.12 0.24
-5 -13 0 0.05 0.23
-1 5 13 0.36 0.17
5 -13 1 -0.13 0.2
1 5 -13 0.11 0.19
1 13 5 0.25 0.22
-13 5 -1 0.09 0.14
-13 -5 1 0.26 0.17
1 -13 -5 0.22 0.21
-1 -13 5 0.25 0.23
-1 13 -5 0.49 0.24
13 5 1 0.4 0.15
-5 13 1 0.28 0.25
5 13 -1 0.17 0.24
-13 1 5 0.29 0.14
-5 -13 -1 -0.05 0.21
-13 1 5 0.24 0.17
5 1 13 0.19 0.17
5 1 13 0.13 0.13
-1 -5 -13 0.26 0.14
1 -5 13 0.21 0.22
-5 -1 13 0.06 0.2
13 -5 -1 0.32 0.12
13 -5 1 0.29 0.11
1 13 -5 0.45 0.24
13 5 -1 0.41 0.16
-13 -1 5 0.13 0.13
-1 13 5 0.36 0.23
-1 -13 -5 0.21 0.19
1 -13 5 0.34 0.23
-5 1 13 -0.11 0.21
1 5 13 0.29 0.16
-13 -5 -1 0.01 0.15
-5 1 13 0.11 0.16
5 13 1 -0.01 0.23
-1 5 -13 0.13 0.2
-13 -1 5 0.03 0.17
-5 13 -1 -0.06 0.24
5 -13 -1 0.46 0.2
5 -1 13 0.1 0.18
-1 -5 13 0.39 0.23
-5 -13 1 0.28 0.23
1 -5 -13 0.54 0.16
-13 5 1 0.23 0.15
-2 13 -5 0.1 0.24
13 -5 -2 -0.12 0.12
-2 -13 5 -0.3 0.23
-2 5 13 -0.06 0.16
-2 -5 -13 -0.1 0.13
5 -13 2 -0.15 0.22
5 13 -2 0.14 0.23
-13 5 -2 -0.16 0.13
-5 -13 -2 0.04 0.21
-5 -2 13 -0.04 0.21
-5 2 -13 -0.06 0.15
2 -13 -5 0.01 0.18
-13 -5 2 -0.14 0.17
-13 2 5 -0.03 0.13
2 13 5 0.08 0.23
-5 13 2 0.02 0.22
2 -5 13 -0.34 0.2
5 2 13 -0.06 0.16
5 2 13 0 0.12
-13 2 5 -0.01 0.16
13 5 2 -0.08 0.13
2 5 -13 0.13 0.2
-13 -2 5 -0.11 0.17
2 13 -5 -0.03 0.24
5 -13 -2 -0.07 0.18
-13 -5 -2 -0.12 0.15
5 -2 13 0.09 0.18
5 13 2 -0.08 0.22
-2 -5 13 -0.08 0.23
-5 2 13 0.09 0.19
-2 13 5 0.13 0.23
13 -5 2 -0.1 0.11
-13 5 2 -0.11 0.14
-2 5 -13 -0.14 0.2
-2 -13 -5 0.04 0.19
-5 2 13 -0.3 0.15
5 2 -13 0.07 0.21
2 -13 5 0.08 0.21
2 5 13 0.25 0.15
-5 -13 2 0.07 0.23
-5 13 -2 0.07 0.25
13 5 -2 -0.14 0.17
-3 -5 -13 -0.01 0.13
3 -13 -5 -0.22 0.17
-3 -13 5 -0.17 0.22
-13 3 5 -0.29 0.13
-5 -13 -3 -0.11 0.19
13 -3 5 -0.17 0.06
-5 13 3 -0.35 0.23
5 3 13 -0.14 0.15
5 3 13 -0.08 0.13
-3 5 13 -0.04 0.16
-5 3 -13 -0.1 0.16
-5 -3 13 -0.15 0.22
13 5 3 0.01 0.12
3 13 5 -0.21 0.23
-3 13 -5 0.02 0.23
13 -5 -3 0.01 0.12
3 -5 13 -0.15 0.2
-13 -5 3 -0.09 0.16
-13 5 -3 -0.26 0.12
5 13 -3 0.16 0.23
5 -13 3 0.1 0.21
13 3 -5 0.18 0.18
-13 3 5 0.25 0.15
3 5 -13 -0.31 0.21
3 5 13 0.13 0.15
5 -13 -3 0.24 0.19
-3 5 -13 -0.01 0.19
-3 -5 13 -0.16 0.23
-5 3 13 -0.16 0.19
-13 5 3 -0.38 0.13
5 3 -13 -0.06 0.21
-13 3 -5 -0.02 0.1
-3 -13 -5 -0.15 0.18
-5 13 -3 0.05 0.23
5 -3 13 -0.12 0.19
-5 3 13 -0.19 0.15
-5 -13 3 -0.14 0.22
3 -13 5 -0.22 0.21
3 13 -5 -0.03 0.24
13 -5 3 0.03 0.1
5 13 3 0.05 0.23
-13 -3 5 -0.06 0.16
-13 -5 -3 -0.11 0.13
13 5 -3 -0.05 0.17
-3 13 5 -0.41 0.2
-13 4 5 0.03 0.13
4 13 5 0.33 0.22
4 -5 13 0.08 0.2
-13 -4 -5 0.17 0.08
-4 5 13 0.17 0.17
-13 5 -4 0.19 0.14
13 5 4 0.19 0.12
-5 -4 13 -0.27 0.23
-5 4 -13 0.08 0.17
5 -13 4 0.18 0.21
5 13 -4 0.1 0.24
-5 13 4 0.14 0.22
-4 -13 5 -0.15 0.23
-4 13 -5 0.22 0.23
5 4 13 0.14 0.14
4 -13 -5 0.1 0.18
4 5 -13 0.25 0.23
-5 -13 -4 0.07 0.19
13 -4 5 0.28 0.08
-13 -5 4 -0.06 0.18
13 4 -5 0.1 0.18
5 4 13 0.27 0.15
13 -5 -4 0 0.13
-4 -5 13 -0.11 0.22
13 -5 4 0.18 0.1
4 13 -5 0.21 0.24
-13 5 4 0.22 0.15
-5 4 13 -0.02 0.19
-5 4 13 0.17 0.17
13 4 5 0.08 0.08
-13 -4 5 0.03 0.17
5 -4 13 0.25 0.2
5 13 4 -0.05 0.22
-5 13 -4 0.06 0.23
-4 13 5 0.14 0.23
-4 5 -13 0.11 0.18
13 5 -4 -0.02 0.18
-4 -13 -5 0.14 0.18
-13 -5 -4 0.25 0.12
5 -13 -4 0.1 0.17
5 4 -13 -0.07 0.2
4 -13 5 -0.03 0.22
-13 4 -5 0.24 0.12
-5 -13 4 0.27 0.22
4 5 13 0.07 0.15
5 5 13 0.05 0.15
5 13 -5 -0.03 0.24
-13 5 5 -0.1 0.14
-13 5 -5 -0.01 0.14
5 -13 -5 -0.17 0.19
5 -13 5 0 0.21
-5 -13 -5 -0.29 0.17
5 -5 13 0.02 0.19
-5 13 -5 -0.02 0.23
-5 -5 13 0.1 0.24
13 -5 5 -0.14 0.1
13 5 -5 0.15 0.19
-13 -5 5 -0.06 0.18
13 5 5 0.02 0.11
5 5 -13 0.19 0.23
-5 5 -13 -0.06 0.17
-5 5 13 0.04 0.16
5 13 5 0.02 0.22
-5 13 5 -0.06 0.22
-5 -13 5 0.12 0.22
13 -5 -5 -0.02 0.13
-13 -5 -5 0.04 0.1
-6 -13 0 9.95 0.92
6 13 0 8.95 0.9
0 6 13 9.96 0.85
-6 0 13 10.69 0.9
-6 0 13 9.59 0.82
-13 0 6 9.11 0.81
0 -13 6 10.35 0.92
0 13 -6 8.97 0.92
13 6 0 10.2 0.85
-13 -6 0 10 0.85
-13 6 0 9.97 0.81
13 -6 0 9.72 0.8
6 -13 0 10.53 0.86
-13 0 6 10.63 0.86
0 -6 13 10.62 0.93
0 6 -13 9.12 0.89
0 -6 -13 9.18 0.82
6 0 13 9.63 0.79
0 13 6 9.65 0.9
6 0 13 9.74 0.84
0 -13 -6 9.46 0.86
-6 13 0 10.33 0.93
1 -6 13 6.15 0.69
13 -6 -1 6.2 0.55
-13 1 6 5.63 0.57
-1 -13 6 5.88 0.7
-13 -6 1 5.26 0.62
-13 6 -1 6.82 0.59
-1 6 13 5.73 0.62
6 1 13 6.46 0.61
6 1 13 6.71 0.55
-13 1 6 5.83 0.63
1 -13 -6 6.44 0.63
-6 -13 -1 7.82 0.69
-1 -6 -13 6.14 0.58
-1 13 -6 5.94 0.7
-6 -1 13 5.46 0.67
6 -13 1 6.58 0.65
1 13 6 5.99 0.69
13 6 1 6.4 0.6
1 6 -13 5.39 0.67
6 13 -1 5.55 0.7
-6 13 1 5.88 0.7
-13 -1 6 5.62 0.56
1 6 13 6.39 0.6
-13 6 1 6.36 0.59
1 13 -6 5.66 0.72
1 -6 -13 5.74 0.6
6 13 1 6.3 0.68
-13 -1 6 6.73 0.63
-1 -6 13 6.22 0.7
13 -6 1 6.16 0.55
13 6 -1 6.2 0.63
6 -13 -1 7.17 0.65
-1 13 6 7.11 0.68
-13 -6 -1 6.39 0.61
-1 6 -13 5.88 0.69
-6 1 13 6.7 0.71
-6 1 13 6.22 0.59
6 -1 13 6.92 0.62
1 -13 6 6.02 0.71
-6 13 -1 6.15 0.72
-6 -13 1 5.25 0.7
-1 -13 -6 6.53 0.64
-13 -6 2 2.02 0.26
6 13 -2 3.7 0.51
-6 2 -13 2.04 0.23
-13 6 -2 3.18 0.36
2 -6 13 2.1 0.29
-2 13 -6 1.47 0.29
-13 2 6 2.75 0.34
2 -13 -6 1.94 0.26
2 6 -13 2.16 0.28
6 2 13 3.35 0.33
13 -6 -2 2.3 0.34
-6 13 2 2.13 0.29
-2 -6 -13 1.87 0.22
-6 -13 -2 1.9 0.27
-2 6 13 1.85 0.24
6 -13 2 1.42 0.26
2 13 6 2.12 0.29
6 2 13 3.17 0.4
13 6 2 1.88 0.23
-13 2 6 1.92 0.24
-2 -13 6 1.99 0.3
-6 -2 13 1.94 0.28
2 13 -6 1.95 0.31
2 -6 -13 2.67 0.37
-6 -13 2 2.25 0.29
-2 -6 13 2.16 0.3
-2 6 -13 1.66 0.27
-2 13 6 1.81 0.3
6 13 2 1.85 0.29
2 6 13 1.96 0.24
6 -13 -2 3.12 0.44
13 -6 2 2.51 0.32
13 6 -2 1.96 0.25
2 -13 6 1.98 0.29
-13 6 2 2.62 0.35
-6 13 -2 2.2 0.29
-13 -6 -2 3.27 0.39
-6 2 13 1.77 0.26
-6 2 13 2.76 0.39
-2 -13 -6 2.04 0.26
6 -2 13 2.04 0.25
-13 -2 6 1.67 0.25
6 2 -13 1.72 0.27
3 6 -13 2.33 0.32
-3 13 -6 2.03 0.34
-3 6 13 3.46 0.42
3 -13 -6 3.7 0.46
6 3 13 3.2 0.4
6 -13 3 3.47 0.48
6 13 -3 2.09 0.33
-3 -13 6 2.51 0.33
-13 -6 3 2.35 0.29
-13 3 6 2.85 0.4
13 -6 -3 3.88 0.37
-13 3 6 3.62 0.35
-6 -13 -3 3.23 0.47
13 6 3 2.62 0.38
13 3 -6 3.59 0.46
-6 13 3 2.28 0.32
-6 3 -13 3.44 0.43
-3 -6 -13 3.43 0.38
3 -6 13 2.1 0.31
3 13 6 3.83 0.51
-6 -3 13 1.69 0.31
6 3 13 3.7 0.35
-13 6 -3 3.64 0.39
6 3 -13 4.24 0.53
-13 6 3 3.06 0.38
-3 13 6 2.3 0.31
3 -6 -13 3.24 0.41
-3 -6 13 2.06 0.34
-3 6 -13 1.91 0.3
3 -13 6 2.02 0.31
3 13 -6 2.41 0.34
-6 13 -3 4.36 0.52
-13 -3 6 2.33 0.29
-13 3 -6 2.73 0.28
6 -13 -3 3.87 0.45
13 -6 3 3.59 0.33
13 6 -3 3.56 0.48
-6 -13 3 1.96 0.32
6 13 3 2.1 0.33
3 6 13 2.96 0.42
-3 -13 -6 3.06 0.45
6 -3 13 3.87 0.47
-6 3 13 4.18 0.51
-13 -6 -3 3.62 0.38
13 -4 6 0.16 0.08
-4 13 -6 -0.16 0.24
-13 6 -4 -0.26 0.15
4 -13 -6 0.08 0.17
4 -6 13 0.05 0.21
13 4 -6 0.01 0.18
6 13 -4 0.06 0.23
4 13 6 0.27 0.23
13 6 4 0.2 0.14
13 -6 -4 0 0.13
-13 -6 4 0.09 0.2
-13 4 6 -0.06 0.14
-6 -13 -4 -0.08 0.19
-6 -4 13 -0.1 0.22
4 6 -13 0.1 0.21
-6 13 4 -0.06 0.22
-4 -6 -13 0.04 0.13
6 -13 4 0.24 0.21
-4 -13 6 0.08 0.25
-4 6 13 0.19 0.18
6 4 13 -0.03 0.14
-6 4 -13 -0.17 0.17
6 4 13 0.01 0.14
6 -4 13 0 0.19
-6 -13 4 0.03 0.23
13 -6 4 0.04 0.11
-6 4 13 0.32 0.2
-6 4 13 0.09 0.16
-4 -13 -6 -0.18 0.18
-13 -4 6 0.17 0.19
-13 4 -6 -0.04 0.12
13 6 -4 -0.08 0.18
4 13 -6 -0.15 0.26
6 4 -13 -0.19 0.21
-13 6 4 0.08 0.15
4 -6 -13 0.14 0.16
-13 -6 -4 0.09 0.13
-4 6 -13 0.06 0.19
6 13 4 -0.18 0.23
4 -13 6 0.13 0.22
-6 13 -4 0.07 0.24
4 6 13 -0.03 0.15
6 -13 -4 -0.02 0.17
-4 -6 13 0.3 0.23
-4 13 6 -0.11 0.21
6 13 -5 0.17 0.26
6 5 13 0.09 0.14
5 -13 -6 0.01 0.17
13 6 5 0.23 0.13
-6 13 5 0.27 0.22
13 -6 -5 0.16 0.13
-13 5 6 -0.02 0.14
-13 -5 -6 0.03 0.09
6 -13 5 0.07 0.2
13 5 -6 0.27 0.2
-5 -13 6 0.22 0.24
-5 13 -6 0.15 0.23
-6 -13 -5 0.37 0.19
-6 5 -13 0.15 0.17
13 -5 6 0.06 0.1
-5 6 13 0.16 0.17
-5 -6 -13 0.21 0.12
-13 -6 5 0.1 0.19
-13 6 -5 0.13 0.16
5 6 -13 0.46 0.21
5 13 6 0.27 0.22
5 -6 13 -0.09 0.2
-6 -5 13 0.32 0.23
-13 -5 6 0.32 0.2
6 -13 -5 0.06 0.18
13 5 6 0.07 0.11
-13 5 -6 0.2 0.14
5 -6 -13 0.03 0.15
13 -6 5 0.2 0.11
6 -5 13 0.03 0.19
6 5 -13 0.25 0.23
-13 6 5 0.05 0.15
5 13 -6 0.01 0.26
-6 -13 5 0.07 0.23
-6 13 -5 0.47 0.23
-13 -6 -5 0.17 0.12
-5 13 6 0.16 0.22
-6 5 13 0.01 0.16
-5 -6 13 -0.16 0.23
-5 6 -13 -0.04 0.19
13 -5 -6 0.24 0.13
13 6 -5 0.09 0.19
6 13 5 0.26 0.22
5 6 13 0.1 0.15
-5 -13 -6 -0.2 0.18
5 -13 6 0.25 0.22
-6 13 -6 0.03 0.22
6 -13 -6 -0.24 0.17
13 -6 6 -0.08 0.11
-6 13 6 -0.09 0.22
13 6 6 -0.11 0.13
6 13 6 -0.01 0.21
-13 6 6 0.05 0.15
-6 -13 -6 -0.04 0.18
6 -13 6 0.22 0.21
6 -6 -13 -0.13 0.14
6 -6 13 -0.13 0.2
6 6 -13 -0.02 0.21
13 -6 -6 -0.11 0.13
-13 -6 -6 -0.13 0.1
-13 -6 6 -0.09 0.2
-13 6 -6 -0.19 0.15
-6 6 -13 0.25 0.18
-6 -13 6 0.11 0.21
13 6 -6 -0.02 0.19
6 13 -6 -0.09 0.25
-6 6 13 -0.3 0.17
-6 -6 -13 -0.04 0.12
-6 -6 13 0.11 0.23
6 6 13 -0.34 0.15
0 -13 -7 0.33 0.2
0 7 -13 -0.06 0.23
0 7 13 0.31 0.18
0 -7 -13 -0.14 0.15
0 13 -7 0.6 0.26
-7 -13 0 0.08 0.23
-7 13 0 -0.36 0.24
7 0 13 -0.05 0.16
0 -7 13 0.21 0.23
7 13 0 0.12 0.24
-13 -7 0 0.03 0.19
-13 7 0 -0.22 0.16
-7 0 13 -0.32 0.21
-7 0 13 -0.22 0.17
7 -13 0 -0.05 0.2
7 0 13 0 0.12
13 -7 0 -0.1 0.14
13 7 0 -0.09 0.18
0 13 7 -0.08 0.23
-13 0 7 -0.04 0.14
0 -13 7 -0.04 0.23
-13 0 7 -0.5 0.19
-13 -7 1 0.14 0.2
-7 -13 -1 -0.12 0.22
-1 -7 -13 -0.05 0.16
1 13 7 -0.16 0.22
1 7 -13 0 0.22
7 1 13 0.11 0.16
7 1 13 -0.16 0.12
-1 7 13 -0.03 0.18
7 -13 1 -0.2 0.19
7 13 -1 0.05 0.24
-7 -1 13 -0.13 0.21
13 7 1 0.11 0.17
-13 1 7 -0.35 0.19
-13 1 7 -0.21 0.15
1 -13 -7 0.14 0.19
-7 13 1 -0.11 0.23
-13 7 -1 -0.44 0.16
-1 13 -7 -0.08 0.27
-1 -13 7 0.06 0.24
13 -7 -1 0.11 0.14
1 -7 13 0.33 0.23
-13 -7 -1 -0.16 0.18
-1 7 -13 0.16 0.22
7 -13 -1 -0.14 0.19
1 13 -7 -0.16 0.25
1 -7 -13 0.05 0.16
-7 -13 1 -0.34 0.23
-7 13 -1 0.03 0.23
1 7 13 0.08 0.18
13 -7 1 -0.13 0.13
-13 -1 7 -0.29 0.18
-13 -1 7 -0.15 0.13
-13 7 1 0.19 0.16
-1 13 7 0.17 0.24
7 13 1 0.06 0.24
1 -13 7 0.15 0.24
13 7 -1 -0.12 0.19
-7 1 13 -0.18 0.17
-1 -13 -7 0.06 0.18
7 -1 13 -0.04 0.11
-1 -7 13 0.29 0.24
7 -1 13 0.19 0.17
-7 1 13 -0.24 0.23
13 7 2 0.04 0.16
2 -7 13 0.38 0.25
7 2 13 0.31 0.15
-7 -2 13 0.32 0.22
-13 2 7 0.34 0.17
-7 -13 -2 -0.15 0.21
-13 -7 2 0.01 0.2
2 -13 -7 0.36 0.19
-13 7 -2 0.29 0.17
-2 13 -7 0.29 0.25
7 13 -2 0.28 0.25
-7 2 -13 0.15 0.15
-2 7 13 0.21 0.18
-2 -7 -13 0.27 0.15
7 -13 2 0.15 0.21
2 7 -13 0.13 0.21
13 -7 -2 0.51 0.14
2 13 7 0.18 0.23
-13 2 7 0.19 0.15
-7 13 2 0.15 0.24
-2 -13 7 0.42 0.26
7 2 13 0.15 0.12
-13 -7 -2 0.03 0.17
2 13 -7 0.46 0.26
13 7 -2 0.11 0.19
-13 7 2 0.4 0.16
-7 -13 2 0.26 0.22
7 13 2 -0.07 0.23
-7 2 13 0.18 0.22
-7 2 13 0.04 0.18
-2 -7 13 0.1 0.25
2 7 13 0.14 0.17
-13 -2 7 0.04 0.19
7 -2 13 0.38 0.18
7 -13 -2 0.16 0.2
-2 -13 -7 0.27 0.18
-2 13 7 0.35 0.22
-2 7 -13 0.26 0.21
13 -7 2 0.12 0.13
2 -13 7 0.41 0.24
-7 13 -2 -0.04 0.23
2 -7 -13 0.28 0.15
7 2 -13 0.35 0.21
-3 13 -7 0.05 0.23
3 -7 13 -0.05 0.22
-13 -7 3 -0.04 0.2
7 3 13 -0.23 0.14
-3 7 13 -0.08 0.17
-13 3 7 -0.44 0.14
3 -13 -7 -0.09 0.18
-7 13 3 -0.45 0.22
3 7 -13 -0.07 0.2
3 13 7 -0.17 0.22
7 3 13 -0.12 0.13
13 -7 -3 -0.05 0.13
-7 -13 -3 -0.11 0.2
-3 -13 7 -0.26 0.24
-7 3 -13 -0.06 0.15
-13 3 7 -0.16 0.17
7 -13 3 -0.2 0.2
7 13 -3 -0.4 0.23
-3 -7 -13 -0.08 0.14
-13 7 -3 -0.26 0.16
-7 -3 13 -0.1 0.22
13 7 3 -0.07 0.16
13 3 -7 -0.13 0.19
-13 -7 -3 -0.29 0.15
-7 3 13 -0.23 0.16
3 -7 -13 -0.15 0.15
7 -13 -3 -0.06 0.18
3 -13 7 -0.21 0.21
-3 7 -13 -0.1 0.2
-3 -7 13 -0.36 0.24
-7 3 13 -0.27 0.19
-3 13 7 0.17 0.23
-13 -3 7 0.19 0.2
-7 -13 3 -0.24 0.22
3 13 -7 -0.43 0.25
7 3 -13 -0.22 0.21
-13 7 3 -0.47 0.15
-7 13 -3 -0.04 0.23
13 7 -3 -0.2 0.19
7 13 3 -0.12 0.23
3 7 13 -0.06 0.16
13 -7 3 -0.13 0.13
7 -3 13 -0.22 0.18
-3 -13 -7 -0.23 0.18
-4 -13 7 0.18 0.23
13 -4 7 0.05 0.08
-7 13 4 -0.05 0.22
4 -13 -7 -0.01 0.18
-13 4 7 -0.04 0.18
4 7 -13 0.06 0.2
-7 4 -13 0.09 0.17
7 4 13 -0.09 0.14
7 4 13 -0.07 0.14
13 -7 -4 0.14 0.14
4 -7 13 0.29 0.21
7 13 -4 -0.17 0.25
-13 4 7 -0.06 0.15
-7 -13 -4 -0.04 0.19
-4 -7 -13 0.15 0.14
4 13 7 -0.15 0.22
13 4 -7 0.27 0.19
-13 7 -4 -0.13 0.16
-13 -7 4 0.34 0.2
-7 -4 13 0.24 0.23
-4 7 13 0.32 0.18
7 -13 4 0.18 0.21
-4 13 -7 0.22 0.24
13 7 4 0.04 0.16
-13 7 4 -0.06 0.16
-7 4 13 0.11 0.17
-4 13 7 0.06 0.21
-7 13 -4 -0.03 0.22
4 7 13 -0.05 0.17
-13 -4 7 -0.01 0.21
-13 -7 -4 -0.23 0.15
-7 4 13 0.1 0.21
7 -13 -4 0.13 0.18
-13 4 -7 0.18 0.11
-4 -13 -7 0.16 0.19
4 -7 -13 0.17 0.16
13 -7 4 0.17 0.13
-4 -7 13 0.25 0.24
13 7 -4 0.37 0.2
-4 7 -13 0.2 0.2
7 4 -13 0.38 0.22
7 -4 13 0.21 0.19
-7 -13 4 0.11 0.23
4 -13 7 -0.04 0.22
7 13 4 0.42 0.23
4 13 -7 0.34 0.25
-13 -7 5 0.13 0.21
-7 5 -13 -0.09 0.17
5 -13 -7 -0.2 0.17
13 7 5 -0.05 0.15
7 5 13 0 0.14
7 -13 5 -0.36 0.2
-7 -5 13 -0.03 0.24
-5 -7 -13 -0.21 0.13
-13 7 -5 -0.11 0.16
-13 5 7 0.1 0.15
13 5 -7 -0.08 0.19
-13 -5 -7 -0.13 0.07
5 -7 13 -0.2 0.2
-5 -13 7 -0.22 0.23
-5 13 -7 -0.39 0.23
7 13 -5 -0.14 0.25
13 -5 7 -0.08 0.1
5 7 -13 0.16 0.21
5 13 7 0.06 0.23
-5 7 13 0.2 0.17
-7 13 5 -0.13 0.21
13 -7 -5 -0.03 0.15
-7 -13 -5 -0.02 0.19
-5 13 7 0.1 0.2
-5 -13 -7 -0.04 0.18
-13 5 -7 -0.09 0.13
13 5 7 0.17 0.11
13 -7 5 -0.08 0.13
-13 -5 7 -0.18 0.21
5 7 13 -0.06 0.16
7 -13 -5 -0.15 0.17
-7 -13 5 0.17 0.24
-7 5 13 -0.04 0.16
-5 7 -13 0.01 0.19
5 13 -7 -0.08 0.25
5 -7 -13 -0.06 0.15
-13 -7 -5 -0.22 0.13
7 -5 13 -0.4 0.18
5 -13 7 -0.3 0.21
-13 7 5 -0.04 0.16
13 7 -5 0 0.19
-7 13 -5 -0.32 0.22
7 13 5 -0.32 0.22
-5 -7 13 -0.24 0.21
7 5 -13 -0.36 0.22
-13 -6 -7 -0.01 0.09
13 -7 -6 0.02 0.14
6 7 -13 0 0.22
-7 13 6 0.03 0.22
-6 -7 -13 -0.13 0.13
-13 7 -6 0.05 0.16
-13 6 7 -0.05 0.16
-7 -13 -6 0.11 0.18
7 6 13 -0.15 0.14
-7 -6 13 -0.01 0.23
-6 7 13 -0.03 0.18
6 13 7 0.01 0.22
13 7 6 0.09 0.15
6 -13 -7 0.08 0.18
-6 -13 7 -0.04 0.24
-13 -7 6 -0.14 0.21
-6 13 -7 -0.2 0.23
7 13 -6 0.04 0.25
13 6 -7 0.04 0.2
7 -13 6 0.16 0.2
6 -7 13 -0.16 0.19
-7 6 -13 0.08 0.18
13 -6 7 -0.08 0.12
-13 -6 7 -0.07 0.21
-7 6 13 0.3 0.19
6 -7 -13 0 0.14
-7 13 -6 -0.19 0.22
-13 7 6 0.08 0.16
-6 -13 -7 0.23 0.18
6 7 13 -0.24 0.15
-7 -6 -13 -0.11 0.11
-6 13 7 -0.07 0.19
-13 -7 -6 -0.12 0.12
-13 6 -7 -0.28 0.15
6 13 -7 0.13 0.25
7 -13 -6 -0.26 0.17
7 6 -13 0.1 0.22
13 7 -6 -0.08 0.2
7 -6 13 0.01 0.18
-7 -13 6 0 0.22
-6 -7 13 -0.22 0.23
-6 7 -13 -0.16 0.18
13 6 7 -0.23 0.13
13 -6 -7 -0.13 0.14
6 -13 7 -0.3 0.21
7 13 6 0.38 0.22
13 -7 6 0 0.13
-7 -13 7 -0.4 0.24
-7 -7 -13 -0.04 0.12
-7 7 -13 -0.11 0.18
-7 -13 -7 -0.24 0.17
7 -13 7 0.03 0.21
13 7 7 0.06 0.14
7 13 -7 0.26 0.24
7 13 7 0.15 0.22
-13 7 -7 -0.15 0.16
-13 7 7 -0.14 0.17
13 7 -7 -0.02 0.22
-7 13 -7 0.02 0.24
13 -7 -7 -0.06 0.14
-13 -7 7 0.05 0.21
7 7 13 -0.16 0.16
7 -13 -7 0.02 0.21
7 -7 13 -0.15 0.2
-13 -7 -7 0.01 0.11
13 -7 7 -0.1 0.13
-7 13 7 0.02 0.22
8 13 0 23.49 1.89
0 8 -13 21.56 1.88
13 8 0 23.32 1.85
-13 0 8 23.04 1.83
8 0 13 23.32 1.81
-13 0 8 22.95 1.86
0 -8 -13 26.23 1.84
0 -8 13 24.02 1.91
0 8 13 23.9 1.85
-13 -8 0 22.59 1.85
8 -13 0 23.3 1.85
-8 0 13 23.95 1.88
-8 0 13 23.68 1.83
0 -13 -8 23.24 1.85
0 -13 8 23 1.89
0 13 -8 24.03 1.9
0 13 8 23.5 1.87
8 0 13 22.78 1.83
13 -8 0 23.3 1.82
-13 8 0 23.99 1.84
-8 -13 0 23.65 1.87
-8 13 0 25.02 1.89
-1 -8 -13 8.08 0.75
-13 -8 1 9.42 0.81
-1 -13 8 7.55 0.86
-1 13 -8 6.83 0.86
13 -8 -1 8.66 0.73
-8 13 1 9.19 0.85
8 1 13 8.45 0.75
8 -13 1 8.54 0.81
-1 8 13 7.47 0.78
1 -13 -8 7.55 0.77
1 -8 13 8.53 0.84
1 8 -13 7.88 0.84
8 13 -1 8.37 0.86
-13 1 8 8.71 0.73
-13 8 -1 7.94 0.76
8 1 13 10.09 0.7
1 13 8 8.11 0.83
-8 -1 13 8.44 0.84
-13 1 8 9.3 0.81
13 8 1 7.59 0.78
-8 -13 -1 8.11 0.83
13 8 -1 8.15 0.8
-1 8 -13 7.79 0.83
1 8 13 7.92 0.76
-13 -8 -1 7.95 0.79
-1 -8 13 7.02 0.87
13 -8 1 8.04 0.73
8 -1 13 7.99 0.76
-13 8 1 9.67 0.76
8 13 1 7.67 0.83
-8 -13 1 8.29 0.85
-8 13 -1 9.27 0.83
8 -13 -1 8.07 0.79
-8 1 13 9.76 0.76
-13 -1 8 8.36 0.82
-8 1 13 9.34 0.84
8 -1 13 9.69 0.69
-13 -1 8 9.24 0.73
-1 -13 -8 7.48 0.78
-1 13 8 8.44 0.83
1 -8 -13 7.69 0.75
1 -13 8 7.44 0.85
1 13 -8 9.35 0.91
8 -13 2 0.26 0.21
2 -8 13 0.03 0.23
-13 2 8 0.23 0.15
-2 -8 -13 0.16 0.16
8 2 13 0.49 0.16
8 2 13 0.43 0.13
13 -8 -2 0.39 0.15
-13 2 8 0.11 0.19
-13 -8 2 0.5 0.22
13 8 2 -0.19 0.18
8 13 -2 0.05 0.26
-13 8 -2 0.17 0.18
2 8 -13 -0.19 0.22
2 -13 -8 0.09 0.19
-2 13 -8 -0.09 0.26
-8 13 2 0.12 0.24
-8 -13 -2 0.14 0.21
-8 -2 13 0.07 0.22
-2 -13 8 -0.2 0.25
2 13 8 -0.15 0.23
-2 8 13 0.06 0.2
2 8 13 -0.03 0.19
-8 -13 2 -0.02 0.24
-8 13 -2 -0.15 0.24
-8 2 13 0.27 0.21
8 -13 -2 0.34 0.19
-2 -8 13 -0.35 0.24
13 -8 2 0.28 0.15
8 -2 13 0.29 0.18
-13 8 2 0.15 0.17
-13 -2 8 0.5 0.21
-2 -13 -8 0.23 0.2
13 8 -2 -0.02 0.21
2 13 -8 -0.24 0.27
8 13 2 0.58 0.25
2 -13 8 -0.52 0.23
8 2 -13 0.09 0.23
-2 8 -13 0.12 0.23
-13 -8 -2 0.16 0.18
2 -8 -13 0.15 0.16
-8 2 13 0.14 0.19
-2 13 8 -0.12 0.23
-3 -8 -13 4.52 0.49
-13 3 8 4.89 0.5
-3 -13 8 4.5 0.63
-8 13 3 4.83 0.59
-13 8 -3 5.08 0.52
3 13 8 4.86 0.58
-8 3 -13 4.05 0.49
8 3 13 4.24 0.48
-3 13 -8 2.86 0.44
-13 3 8 4.56 0.54
3 -13 -8 4.54 0.53
8 3 13 4.73 0.45
13 -8 -3 4.92 0.48
-8 -3 13 4.37 0.64
13 8 3 4.12 0.53
8 13 -3 4.91 0.62
-3 8 13 4.48 0.55
13 3 -8 4.71 0.57
-8 -13 -3 4.53 0.55
-13 -8 3 4.18 0.58
8 13 3 3.71 0.57
-13 -3 8 5.5 0.61
-8 13 -3 4.42 0.64
3 -13 8 4.12 0.61
-8 3 13 4.01 0.58
-3 -13 -8 4.16 0.52
3 8 13 4.36 0.53
-13 8 3 4.42 0.52
8 3 -13 4.41 0.59
-13 -8 -3 4.41 0.5
-8 -13 3 4.39 0.6
-8 3 13 5.2 0.5
13 -8 3 4.28 0.47
13 8 -3 4.92 0.58
-3 -8 13 4.27 0.63
3 13 -8 4.8 0.65
-3 13 8 3.81 0.59
-3 8 -13 4.33 0.63
8 -13 -3 4.77 0.53
8 -3 13 4.5 0.55
3 -8 -13 4.55 0.5
8 13 -4 7.54 0.79
-13 -8 4 7.75 0.76
-13 4 8 7.52 0.67
13 -8 -4 7.71 0.67
-8 4 -13 7.73 0.69
-4 8 13 7.79 0.72
8 4 13 7.05 0.66
4 -8 13 7.55 0.74
-4 -8 -13 7.96 0.66
13 -4 8 7.57 0.6
8 -13 4 7.86 0.72
-13 8 -4 7 0.7
-4 -13 8 6.88 0.8
8 4 13 7.69 0.65
4 -13 -8 6.87 0.71
4 8 -13 7.61 0.78
-8 13 4 6.96 0.75
-8 -4 13 7.64 0.79
13 4 -8 7.22 0.75
4 13 8 7.5 0.74
-4 13 -8 7.19 0.78
-8 -13 -4 8.2 0.74
-13 4 8 7.51 0.7
13 8 4 7.33 0.71
-8 -13 4 7.48 0.77
13 8 -4 7.39 0.75
-4 -8 13 7.31 0.8
4 -13 8 8.03 0.75
-13 -8 -4 7.6 0.67
8 -13 -4 7.57 0.7
8 4 -13 6.75 0.75
-13 8 4 7.95 0.7
-13 -4 8 8.21 0.77
8 13 4 8.06 0.78
-13 4 -8 7.3 0.62
13 -8 4 7.8 0.66
4 -8 -13 7.4 0.68
-8 4 13 8.15 0.73
4 13 -8 5.5 0.79
-4 8 -13 7.11 0.75
8 -4 13 7.74 0.72
-4 -13 -8 7.56 0.69
-8 4 13 7.36 0.7
4 8 13 7.23 0.7
-4 13 8 6.57 0.75
-8 13 -4 7.04 0.77
5 -13 -8 0.08 0.17
-13 -8 5 -0.07 0.21
5 13 8 0.12 0.22
-8 -5 13 0.24 0.24
8 5 13 0.1 0.14
-5 -13 8 0.05 0.26
13 8 5 0.25 0.17
-13 -5 -8 0.18 0.07
8 -13 5 -0.02 0.2
8 13 -5 0 0.24
13 -8 -5 0.14 0.14
-5 8 13 -0.16 0.21
-8 5 -13 0.12 0.16
5 -8 13 0.03 0.21
-5 13 -8 0.16 0.24
5 8 -13 -0.09 0.23
-13 8 -5 0.36 0.18
-13 5 8 0.09 0.16
-8 -13 -5 0.26 0.19
-8 13 5 -0.24 0.22
-5 -8 -13 0.1 0.14
13 5 -8 0.15 0.2
13 -5 8 0.1 0.11
-5 8 -13 0.2 0.21
8 13 5 -0.14 0.22
-8 -13 5 0.07 0.23
-8 13 -5 0.4 0.23
13 5 8 0.07 0.11
-13 8 5 0.13 0.17
8 -5 13 0.24 0.18
8 5 -13 0.19 0.23
-8 5 13 0.13 0.16
-5 -13 -8 -0.05 0.17
13 8 -5 0.26 0.21
5 -13 8 0.12 0.22
5 13 -8 -0.06 0.26
-5 -8 13 0.32 0.27
-13 -5 8 0.04 0.21
-5 13 8 0.31 0.21
5 -8 -13 0.11 0.17
-13 -8 -5 0.24 0.15
5 8 13 -0.02 0.18
8 -13 -5 0.3 0.18
13 -8 5 0.19 0.14
-13 5 -8 0.05 0.13
-6 -8 -13 -0.02 0.13
6 13 8 -0.22 0.22
-13 6 8 -0.02 0.16
13 6 -8 -0.02 0.22
-13 -6 -8 -0.02 0.09
-13 -8 6 0.03 0.21
-8 -13 -6 -0.13 0.17
13 -8 -6 -0.15 0.14
8 13 -6 0.04 0.25
-8 13 6 -0.08 0.21
6 -8 13 -0.12 0.21
13 -6 8 -0.1 0.12
-6 13 -8 -0.1 0.23
-13 8 -6 0.02 0.18
8 -13 6 0.1 0.21
13 8 6 -0.01 0.16
-8 6 -13 -0.08 0.17
8 6 13 -0.17 0.15
-6 -13 -8 0.14 0.17
-8 -13 6 -0.33 0.22
6 -13 8 0.05 0.21
6 8 13 -0.11 0.17
-6 -8 13 -0.25 0.36
-8 13 -6 0.34 0.23
8 -6 13 0.03 0.19
-13 -8 -6 0 0.13
-13 6 -8 -0.13 0.15
13 8 -6 0 0.22
-13 8 6 0.01 0.17
-8 -6 -13 0 0.11
13 -6 -8 0.07 0.15
-13 -6 8 -0.31 0.21
13 -8 6 -0.02 0.14
13 6 8 -0.08 0.13
8 13 6 -0.41 0.22
-6 8 -13 -0.32 0.19
8 -13 -6 0.1 0.17
-7 -13 8 0.04 0.27
13 8 7 -0.11 0.16
7 8 -13 0.26 0.22
13 -7 8 0.17 0.14
-13 -7 -8 0.05 0.11
8 -13 7 0.31 0.2
8 13 -7 0.15 0.34
-13 -8 7 0.2 0.23
-13 8 -7 0.23 0.19
-7 -8 -13 0.09 0.13
-8 7 -13 0.03 0.18
-8 -7 13 0.05 0.25
-8 -13 -7 0.22 0.17
8 7 13 0.11 0.16
7 -8 13 -0.07 0.2
13 -8 -7 0.09 0.15
7 13 8 0.07 0.22
-7 13 -8 -0.29 0.22
8 -7 -13 0.14 0.15
7 -13 -8 0.04 0.16
-7 8 13 0 0.19
13 7 -8 0.02 0.2
-13 7 8 0.39 0.18
-8 13 -7 0.13 0.24
7 13 -8 -0.05 0.29
8 -13 -7 0.08 0.18
-7 8 -13 0.19 0.19
8 -7 13 0.26 0.19
8 7 -13 0.25 0.23
-7 13 8 0.15 0.2
-7 -8 13 -0.11 0.24
8 13 7 0.03 0.22
-13 8 7 -0.07 0.18
-8 -7 -13 0 0.12
7 -13 8 0.01 0.21
-7 -13 -8 0.06 0.17
13 -8 7 -0.03 0.14
-13 7 -8 0.16 0.17
7 8 13 0.13 0.17
7 -8 -13 0.22 0.16
13 7 8 0.18 0.15
-13 -8 -7 0.14 0.13
-8 -13 7 -0.4 0.38
13 -7 -8 0.06 0.14
13 8 -7 0.2 0.21
-13 -7 8 0.15 0.23
-8 7 13 0.01 0.17
-8 -8 13 -0.08 0.23
13 8 -8 -0.03 0.21
-8 8 13 -0.23 0.19
-8 13 -8 -0.02 0.23
-8 13 8 -0.2 0.21
13 -8 -8 0.03 0.15
-13 8 8 -0.07 0.18
13 8 8 0.06 0.16
8 13 -8 0.23 0.25
-8 8 -13 -0.4 0.19
-13 -8 -8 0.06 0.12
13 -8 8 -0.16 0.15
-13 -8 8 -0.02 0.23
-13 8 -8 -0.12 0.19
8 -8 13 -0.11 0.21
-8 -13 -8 -0.19 0.17
8 -13 -8 -0.27 0.16
8 -13 8 -0.07 0.22
8 -8 -13 -0.13 0.16
-8 -13 8 -0.04 0.24
-8 -8 -13 0.03 0.13
8 13 8 -0.13 0.22
8 8 -13 -0.42 0.22
8 8 13 -0.02 0.16
0 -13 9 2.41 0.31
0 13 -9 1.69 0.32
-9 13 0 2.25 0.3
13 -9 0 1.7 0.21
13 9 0 1.83 0.27
-13 0 9 1.59 0.29
-13 0 9 1.33 0.21
9 0 13 1.52 0.22
9 0 13 2.04 0.29
-9 -13 0 1.29 0.29
0 -9 13 2.37 0.31
-9 0 13 1.23 0.28
9 13 0 1.28 0.29
-13 -9 0 1.07 0.26
-13 9 0 1.44 0.26
0 9 13 3.75 0.47
0 9 -13 2.8 0.32
-9 0 13 1.88 0.24
0 -13 -9 1.75 0.25
9 -13 0 1.66 0.26
0 13 9 1.32 0.27
13 -9 -1 -0.11 0.16
1 -9 13 -0.17 0.25
-9 -1 13 -0.22 0.25
-13 9 -1 -0.52 0.2
9 1 13 -0.46 0.16
-1 -13 9 -0.72 0.26
-1 13 -9 -0.32 0.28
-9 13 1 -0.85 0.24
1 -13 -9 -0.09 0.2
1 13 9 -0.32 0.23
13 9 1 -0.48 0.21
9 -13 1 -0.47 0.21
-9 -1 13 -0.54 0.17
1 9 -13 -0.03 0.26
-1 9 13 -0.08 0.21
-13 1 9 -0.56 0.22
-13 1 9 -0.5 0.16
-13 -9 1 -0.52 0.22
9 1 13 -0.18 0.12
9 13 -1 -0.25 0.27
-9 -13 -1 -0.41 0.24
-1 -9 -13 -0.16 0.17
9 13 1 -0.55 0.25
-1 9 -13 -0.14 0.24
-1 -9 13 -0.35 0.25
9 -1 13 -0.29 0.17
1 -9 -13 -0.33 0.17
1 9 13 -0.11 0.2
-9 1 13 -0.54 0.23
-9 1 13 -0.49 0.18
-13 9 1 -0.47 0.2
-13 -9 -1 -0.28 0.21
13 9 -1 -0.32 0.21
1 13 -9 -0.19 0.27
-9 -13 1 -0.74 0.24
1 -13 9 0.04 0.26
-13 -1 9 -0.43 0.22
9 -1 13 -0.37 0.11
-1 13 9 -0.14 0.25
9 -13 -1 -0.44 0.2
-13 -1 9 -0.44 0.15
-9 13 -1 -0.64 0.24
13 -9 1 -0.26 0.17
-1 -13 -9 -0.06 0.2
9 13 -2 1.08 0.27
-2 9 13 1.17 0.22
9 2 13 1.01 0.15
13 -9 -2 0.97 0.18
9 -13 2 0.63 0.22
-2 -9 -13 0.81 0.18
-2 13 -9 0.67 0.3
-13 9 -2 0.28 0.22
13 9 2 0.77 0.22
-9 -2 13 0.5 0.26
2 -13 -9 0.79 0.21
-13 2 9 0.92 0.18
-9 -13 -2 0.87 0.23
2 13 9 0.97 0.25
2 -9 13 0.53 0.26
-13 -9 2 0.76 0.24
9 2 13 0.76 0.16
-2 -13 9 0.72 0.27
-9 13 2 0.84 0.26
-13 2 9 0.85 0.23
2 9 -13 0.58 0.27
-9 2 13 0.95 0.24
-2 9 -13 0.4 0.25
2 13 -9 0.81 0.29
2 -9 -13 1.03 0.2
9 13 2 0.85 0.26
-2 -9 13 1.15 0.27
13 9 -2 1.11 0.23
-13 9 2 0.73 0.21
13 -9 2 0.79 0.18
-2 -13 -9 1.03 0.21
-9 2 13 0.71 0.2
-13 -2 9 0.27 0.23
2 -13 9 0.49 0.27
-13 -9 -2 1.05 0.21
-2 13 9 0.85 0.24
-9 -13 2 0.71 0.27
-9 13 -2 0.54 0.27
9 -2 13 0.96 0.19
9 -13 -2 0.84 0.21
2 9 13 0.87 0.21
-9 -13 -3 -0.6 0.21
-3 13 -9 -0.12 0.26
-9 13 3 0.16 0.25
-13 3 9 -0.06 0.17
13 -9 -3 -0.29 0.15
9 13 -3 -0.16 0.26
3 9 -13 0.01 0.25
-13 3 9 0.13 0.19
13 3 -9 0.05 0.22
3 13 9 0.17 0.24
-9 -3 13 -0.05 0.23
-13 9 -3 -0.09 0.19
9 3 13 -0.14 0.13
3 -13 -9 0.11 0.19
13 9 3 -0.18 0.2
-3 -13 9 0.18 0.28
-13 -9 3 0.24 0.23
-3 -9 -13 -0.01 0.15
-3 9 13 0.39 0.21
3 -9 13 -0.24 0.23
9 -13 3 0.42 0.21
-9 3 -13 0.08 0.15
9 3 13 0.02 0.14
-13 -3 9 0.09 0.23
-3 9 -13 -0.07 0.22
-13 -9 -3 -0.25 0.19
9 -13 -3 0.05 0.19
-3 13 9 -0.14 0.22
-13 3 -9 0.08 0.08
9 3 -13 0 0.21
3 -9 -13 -0.06 0.17
-3 -13 -9 0.27 0.19
-9 13 -3 -0.4 0.24
9 13 3 0 0.24
-9 3 13 -0.05 0.2
3 13 -9 0 0.27
-3 -9 13 -0.01 0.27
13 -9 3 -0.05 0.16
13 9 -3 -0.06 0.22
3 9 13 0.18 0.19
-9 3 13 -0.02 0.18
3 -13 9 0.41 0.25
-13 9 3 -0.08 0.19
9 -3 13 -0.04 0.18
-9 -13 3 -0.07 0.24
13 -9 -4 0.96 0.18
9 13 -4 0.63 0.26
-13 9 -4 0.68 0.21
9 4 13 0.89 0.16
-13 -9 4 0.37 0.23
-9 -13 -4 0.73 0.22
13 4 -9 0.85 0.24
-4 -9 -13 0.83 0.17
-9 4 -13 0.97 0.18
4 -9 13 0.64 0.24
4 9 -13 0.71 0.31
-9 13 4 0.53 0.24
-9 -4 13 0.75 0.3
9 4 13 1.02 0.16
13 9 4 1.02 0.21
-13 4 9 0.55 0.2
-13 4 9 0.75 0.18
9 -13 4 0.93 0.23
-4 13 -9 0.42 0.26
13 -4 9 0.81 0.12
4 13 9 0.99 0.24
-4 9 13 0.92 0.23
-9 4 13 0.84 0.24
13 9 -4 0.84 0.24
4 -13 9 0.8 0.25
9 -4 13 1.21 0.2
-13 -9 -4 0.48 0.19
-9 4 13 0.61 0.3
-9 13 -4 0.62 0.25
-4 -9 13 0.53 0.43
-4 9 -13 0.88 0.24
-13 4 -9 0.95 0.13
4 -9 -13 0.91 0.2
-9 -13 4 0.42 0.25
-13 -4 9 0.87 0.23
4 9 13 0.99 0.21
9 -13 -4 1.06 0.2
9 4 -13 1.04 0.28
9 13 4 0.82 0.24
-4 -13 -9 0.9 0.2
13 -9 4 0.89 0.17
-13 9 4 0.92 0.2
9 5 13 0.02 0.14
5 -13 -9 -0.13 0.16
-9 -13 -5 -0.29 0.18
5 -9 13 -0.1 0.22
-5 9 13 -0.29 0.22
13 -9 -5 -0.1 0.15
-5 13 -9 -0.26 0.24
-13 -9 5 0.05 0.22
5 13 9 -0.3 0.22
-13 9 -5 -0.19 0.19
9 -13 5 -0.26 0.21
9 13 -5 -0.28 0.24
-9 5 -13 0.15 0.16
13 -5 9 -0.06 0.12
-5 -9 -13 -0.39 0.14
-5 -13 9 -0.15 0.26
-9 -5 13 -0.02 0.32
5 9 -13 -0.27 0.26
13 9 5 -0.21 0.18
-9 13 5 0.18 0.21
-13 5 9 0.04 0.17
13 5 -9 -0.19 0.21
9 -5 13 0.2 0.19
9 13 5 -0.3 0.22
-9 5 13 -0.01 0.23
-13 9 5 -0.02 0.19
13 9 -5 -0.2 0.21
-5 -13 -9 -0.11 0.17
-13 -9 -5 0.16 0.16
-9 5 13 -0.31 0.25
-13 5 -9 -0.17 0.12
5 -9 -13 -0.07 0.18
13 5 9 -0.07 0.11
-13 -5 9 -0.01 0.22
-9 13 -5 -0.08 0.23
5 -13 9 0.12 0.22
-5 13 9 0.02 0.23
13 -9 5 -0.16 0.15
5 13 -9 0.07 0.29
5 9 13 -0.18 0.18
-5 9 -13 0.02 0.2
-5 -9 13 -0.17 0.24
9 -13 -5 0.05 0.18
-9 -13 5 -0.08 0.23
13 6 -9 -0.03 0.21
-9 13 6 0.16 0.29
13 9 6 -0.02 0.17
9 13 -6 -0.13 0.24
-9 -6 13 0 0.23
-9 6 -13 0.11 0.17
-13 -9 6 -0.06 0.23
-6 -9 -13 0.02 0.14
-6 -13 9 0.08 0.25
6 -9 13 0.05 0.21
-13 9 -6 -0.28 0.18
9 -13 6 -0.14 0.2
6 -13 -9 -0.03 0.17
13 -6 9 -0.16 0.13
9 6 13 0.04 0.15
13 -9 -6 -0.02 0.14
-13 6 9 -0.06 0.17
-9 -13 -6 -0.13 0.17
-13 -6 -9 -0.09 0.09
-6 9 13 0.16 0.2
-6 13 -9 -0.21 0.24
6 9 -13 -0.14 0.22
6 13 9 -0.27 0.21
9 -6 13 -0.3 0.18
-9 -13 6 0.07 0.25
-13 -6 9 -0.2 0.22
-13 6 -9 0.11 0.15
-9 13 -6 0.12 0.23
9 6 -13 0.18 0.23
6 -9 -13 0.04 0.16
6 9 13 -0.13 0.17
13 -9 6 0.06 0.15
-9 6 13 0.04 0.19
-6 -13 -9 0.1 0.17
-6 -9 13 -0.07 0.24
-9 -6 -13 -0.03 0.11
-6 13 9 0.2 0.21
-13 9 6 0.02 0.18
13 9 -6 0.14 0.22
-6 9 -13 0.07 0.2
-13 -9 -6 -0.06 0.14
6 -13 9 0.07 0.22
6 13 -9 0.03 0.25
13 6 9 -0.15 0.13
9 13 6 -0.11 0.21
-9 -7 13 0 0.25
13 -9 -7 -0.13 0.15
-7 -9 -13 -0.22 0.14
-13 7 9 -0.07 0.19
13 9 7 -0.18 0.18
7 -9 13 0.22 0.22
7 9 -13 -0.16 0.22
-9 7 -13 -0.13 0.17
-7 9 13 -0.11 0.18
9 -13 7 -0.14 0.21
9 13 -7 0.06 0.29
-9 -13 -7 0.07 0.18
9 7 13 -0.02 0.15
13 -7 9 -0.09 0.15
13 7 -9 0.19 0.22
-13 9 -7 -0.25 0.2
-13 -9 7 -0.12 0.23
7 -13 -9 -0.05 0.17
-7 13 -9 -0.05 0.25
9 -7 -13 -0.01 0.15
-13 -7 -9 0.09 0.1
-7 -13 9 -0.05 0.25
7 13 9 0.24 0.23
-9 13 7 -0.11 0.19
9 -7 13 0.11 0.19
-7 13 9 0.14 0.21
-13 9 7 -0.05 0.18
9 7 -13 -0.09 0.22
7 13 -9 -0.16 0.26
13 -9 7 0.26 0.15
-9 -7 -13 0.11 0.12
9 -13 -7 0.05 0.16
-9 -13 7 0 0.28
-9 13 -7 0.13 0.23
7 9 13 -0.18 0.17
13 7 9 -0.09 0.15
-7 -13 -9 -0.13 0.17
-9 7 13 -0.15 0.17
13 -7 -9 -0.09 0.15
7 -9 -13 0.12 0.16
9 13 7 -0.02 0.23
-13 -7 9 -0.15 0.23
-13 7 -9 -0.01 0.17
-13 -9 -7 0.01 0.14
-7 -9 13 -0.01 0.24
13 9 -7 0.16 0.23
-7 9 -13 -0.08 0.19
7 -13 9 0.16 0.22
-9 8 -13 -0.22 0.19
-8 -13 9 0.21 0.26
-13 8 9 -0.04 0.32
9 8 13 0.13 0.18
-13 -9 8 0.03 0.23
9 -13 8 0.21 0.22
8 -9 13 0.06 0.21
13 9 8 -0.07 0.18
-9 -8 13 0.28 0.26
9 -8 -13 0.01 0.17
-8 13 -9 -0.36 0.25
-13 9 -8 0.05 0.2
9 13 -8 0.11 0.26
-8 -9 -13 -0.05 0.14
13 8 -9 -0.1 0.24
13 -8 9 -0.29 0.16
-8 9 13 -0.47 0.2
-9 -13 -8 -0.33 0.17
8 9 -13 -0.03 0.24
8 13 9 -0.07 0.22
-9 13 8 -0.08 0.21
13 -9 -8 -0.05 0.19
8 -13 -9 0.29 0.18
-13 -8 -9 -0.01 0.12
9 13 8 -0.18 0.23
-8 9 -13 -0.1 0.2
8 13 -9 -0.09 0.26
-9 -13 8 -0.18 0.24
8 -9 -13 0.03 0.16
-13 9 8 -0.27 0.2
13 -9 8 -0.34 0.17
-8 -9 13 -0.1 0.24
8 9 13 0.03 0.19
9 -13 -8 -0.09 0.18
-8 13 9 -0.2 0.23
9 -8 13 0.02 0.2
-9 -8 -13 0.02 0.13
8 -13 9 0.25 0.22
-13 -9 -8 -0.01 0.14
-13 8 -9 -0.09 0.19
-13 -8 9 0.05 0.25
13 9 -8 0.23 0.24
9 8 -13 0.06 0.23
-9 13 -8 -0.34 0.23
13 8 9 -0.2 0.17
-9 8 13 -0.22 0.19
-8 -13 -9 -0.14 0.17
-13 -9 9 0.16 0.27
-9 9 -13 0.03 0.2
-9 13 9 -0.37 0.23
9 9 -13 -0.07 0.24
-13 9 -9 -0.4 0.2
9 -13 9 -0.38 0.23
13 -9 -9 -0.13 0.17
-13 -9 -9 -0.01 0.14
13 9 -9 -0.31 0.24
13 -9 9 0.01 0.18
9 -9 -13 -0.22 0.17
-9 -9 -13 -0.12 0.14
9 9 13 -0.19 0.19
9 13 -9 -0.12 0.26
9 13 9 -0.32 0.23
9 -9 13 0.4 0.22
-9 9 13 -0.23 0.22
-9 13 -9 0.27 0.26
13 9 9 0.01 0.19
9 -13 -9 0.03 0.17
-13 9 9 -0.12 0.2
-9 -13 -9 -0.15 0.18
-9 -13 9 -0.2 0.27
-9 -9 13 -0.34 0.25
-13 0 10 0.34 0.18
-10 -13 0 0.15 0.25
-10 13 0 0.04 0.26
0 -10 -13 0.55 0.2
-13 10 0 0.58 0.23
-13 -10 0 0.15 0.24
10 0 13 0.47 0.17
-10 0 13 -0.19 0.31
-10 0 13 -0.27 0.21
0 -13 -10 -0.01 0.2
0 -13 10 0.09 0.27
0 13 -10 -0.26 0.29
0 13 10 -0.2 0.25
0 10 -13 0.05 0.26
0 10 13 0.2 0.22
10 -13 0 -0.19 0.22
0 -10 13 0.33 0.27
13 10 0 0.07 0.24
-13 0 10 0.49 0.25
10 0 13 0.51 0.12
13 -10 0 0.06 0.19
10 13 0 -0.17 0.28
13 10 1 6.29 0.7
-1 10 13 5.73 0.69
1 -10 13 4.31 0.73
-1 -13 10 4.28 0.61
10 1 13 6.24 0.54
-13 1 10 7.79 0.73
-10 13 1 5.72 0.7
-1 -10 -13 6.07 0.63
13 -10 -1 5.75 0.61
1 13 10 5.74 0.7
-13 1 10 5.97 0.63
-13 -10 1 7.23 0.7
-13 10 -1 6.06 0.68
-10 -1 13 5.48 0.64
10 -13 1 6.09 0.64
10 13 -1 5.7 0.76
1 -13 -10 4.53 0.65
10 1 13 6.5 0.59
-10 -13 -1 6.48 0.72
1 10 -13 4.94 0.78
-1 -13 -10 4.68 0.67
10 13 1 6.34 0.72
13 10 -1 6.08 0.7
10 -1 13 6.07 0.6
-13 -1 10 7.26 0.74
1 10 13 5.49 0.66
-10 -13 1 6.42 0.73
-1 13 10 5.57 0.7
1 -10 -13 6.28 0.61
1 -13 10 5.73 0.74
-13 10 1 6.66 0.68
13 -10 1 6.15 0.61
-10 1 13 5.02 0.65
-10 1 13 6.77 0.95
10 -13 -1 5.94 0.64
-13 -1 10 6.89 0.6
-10 13 -1 6.81 0.74
-1 10 -13 5.16 0.72
-13 -10 -1 6.71 0.68
10 -1 13 6.7 0.53
-13 2 10 16.48 1.32
13 -10 -2 16.8 1.28
2 13 10 15.52 1.32
-2 13 -10 14.45 1.35
-2 -13 10 12.12 1.56
10 2 13 15.67 1.24
10 -13 2 16.6 1.31
13 10 2 16.64 1.32
2 -10 13 15.36 1.36
-13 10 -2 16.06 1.32
-10 -13 -2 15.98 1.32
-2 -10 -13 16.24 1.27
-13 2 10 16.89 1.28
-13 -10 2 16.09 1.32
2 10 -13 14.72 1.4
10 13 -2 15.4 1.37
10 2 13 15.75 1.26
-2 10 13 15.3 1.31
-10 13 2 16.7 1.35
13 10 -2 17.32 1.34
2 -13 10 14.91 1.35
2 10 13 16.91 1.31
-10 -13 2 15.67 1.34
-10 2 13 14.5 1.4
-13 -10 -2 16.05 1.31
-13 -2 10 17.25 1.34
10 -13 -2 15.87 1.29
-2 10 -13 15.32 1.33
2 -10 -13 15.43 1.28
10 -2 13 16.58 1.28
-13 10 2 17.47 1.31
-10 13 -2 15.54 1.34
-2 -10 13 13.78 1.43
-2 13 10 15.29 1.47
10 13 2 14.92 1.35
-2 -13 -10 15.7 1.31
13 -10 2 15.67 1.28
3 -10 13 2.37 0.32
13 10 3 2.18 0.3
-3 13 -10 2.02 0.33
-10 -3 13 1.01 0.49
3 10 -13 0.98 0.49
-13 -10 3 2.29 0.31
3 13 10 2.19 0.31
10 -13 3 2.21 0.28
13 -3 10 3.16 0.27
-3 -13 10 1.88 0.34
10 13 -3 2.06 0.33
-10 -13 -3 2.13 0.29
-13 10 -3 3.56 0.48
-10 13 3 1.81 0.31
-3 -10 -13 3.64 0.42
-10 -13 3 2.23 0.32
-3 10 -13 2.05 0.31
10 -3 13 3.61 0.44
3 13 -10 1.54 0.34
3 10 13 2.32 0.29
-10 13 -3 2.38 0.31
-13 10 3 2.2 0.28
10 3 -13 0.63 0.48
10 13 3 1.69 0.31
-10 3 13 1.69 0.38
3 -13 10 2.52 0.32
-13 -10 -3 3.36 0.47
-10 3 13 1.13 0.4
13 -10 3 3.51 0.42
10 -13 -3 3.85 0.44
-3 -10 13 1.51 0.37
13 10 -3 2.01 0.3
-3 -13 -10 2.13 0.27
-3 13 10 2.03 0.34
-13 -3 10 4.29 0.57
-13 10 -4 -0.41 0.2
4 10 -13 -0.38 0.23
-10 -4 13 -0.38 0.25
-13 -10 4 -0.13 0.24
-13 4 10 0 0.17
-4 -10 -13 -0.33 0.16
-13 4 10 0.08 0.19
-4 -13 10 -0.21 0.27
-4 13 -10 -0.39 0.26
13 -4 10 -0.15 0.12
4 -13 -10 -0.13 0.18
-4 10 13 -0.47 0.2
13 4 -10 -0.22 0.22
4 13 10 -0.35 0.23
10 13 -4 -0.14 0.26
10 4 13 -0.24 0.14
13 -10 -4 -0.31 0.16
4 -10 13 0.04 0.24
10 4 13 0 0.13
13 10 4 0.05 0.2
-10 4 -13 -0.15 0.15
10 -13 4 -0.49 0.2
-10 13 4 -0.33 0.22
-10 -13 -4 -0.53 0.2
-4 -13 -10 -0.05 0.18
-10 13 -4 -0.23 0.23
-10 4 13 -0.58 0.19
-13 -10 -4 -0.18 0.18
-10 -13 4 -0.05 0.25
-13 4 -10 -0.29 0.11
13 10 -4 -0.06 0.23
-4 10 -13 -0.43 0.22
4 13 -10 -0.32 0.28
13 -10 4 -0.23 0.16
10 -4 13 -0.22 0.18
10 -13 -4 -0.43 0.18
-10 4 13 -0.19 0.21
4 -13 10 -0.26 0.24
4 -10 -13 -0.34 0.17
-4 -10 13 -0.33 0.24
-4 13 10 -0.14 0.22
4 10 13 -0.3 0.2
-13 -4 10 0.06 0.23
10 13 4 -0.5 0.24
-13 10 4 -0.15 0.2
10 4 -13 -0.39 0.23
10 5 13 0.26 0.13
-5 13 -10 0.09 0.27
13 -10 -5 0.18 0.16
5 13 10 0.53 0.23
-13 5 10 0.22 0.18
-5 -13 10 0.59 0.28
-13 10 -5 0.29 0.2
5 10 -13 0.47 0.25
10 -13 5 0.49 0.21
10 5 13 0.18 0.15
13 10 5 0.26 0.2
-10 -13 -5 0.12 0.2
-5 -10 -13 0.2 0.16
-13 5 10 0.31 0.21
13 5 -10 0.28 0.22
5 -13 -10 0.16 0.17
-10 -5 13 0.43 0.25
-13 -10 5 0.24 0.23
10 13 -5 0.15 0.24
-5 10 13 0.41 0.2
-10 13 5 0.41 0.23
5 -10 13 0.41 0.23
-10 5 -13 0.26 0.15
13 -5 10 0.39 0.14
10 -13 -5 0.34 0.2
-13 -10 -5 0.51 0.17
-5 10 -13 -0.06 0.22
13 10 -5 0.23 0.23
-5 -13 -10 0.12 0.17
10 5 -13 0 0.22
10 13 5 0.18 0.23
5 -10 -13 0.39 0.18
5 -13 10 0.2 0.24
10 -5 13 0.41 0.18
-13 5 -10 0.17 0.13
5 10 13 0.48 0.2
-10 5 13 0.2 0.17
5 13 -10 0.24 0.24
13 5 10 0.35 0.13
-13 -5 10 0.31 0.24
-10 13 -5 0.38 0.24
-10 -13 5 0.34 0.25
-13 10 5 0.35 0.2
13 -10 5 0.27 0.17
-5 13 10 0.45 0.23
-10 5 13 0.01 0.21
-5 -10 13 -0.09 0.24
-6 -13 10 0.51 0.27
-10 -13 -6 0.2 0.18
-6 10 13 0.42 0.21
13 -10 -6 0.34 0.16
-6 13 -10 0.21 0.26
13 -6 10 0.49 0.15
10 -13 6 0.21 0.21
6 -10 13 0.18 0.23
-13 6 10 0.35 0.21
-13 -6 -10 0.4 0.1
6 10 -13 0.3 0.24
-10 6 -13 0.25 0.16
-13 10 -6 0.16 0.21
6 -13 -10 0.46 0.17
-10 -6 13 0.29 0.25
13 6 -10 0.35 0.22
-13 -10 6 0.24 0.23
-6 -10 -13 0.41 0.16
10 6 13 0.45 0.15
13 10 6 0.3 0.19
6 13 10 0.01 0.23
-10 13 6 0.13 0.24
-6 13 10 0.39 0.22
10 -6 13 0.39 0.18
-13 -6 10 0.31 0.24
-13 6 -10 0.5 0.15
-10 13 -6 0.18 0.23
6 -13 10 0.1 0.23
13 -10 6 0.17 0.17
13 6 10 0.32 0.15
6 -10 -13 0.27 0.18
6 10 13 0.27 0.19
10 -13 -6 0.13 0.16
6 13 -10 0.27 0.26
-6 -13 -10 0.33 0.17
13 10 -6 0.07 0.23
-6 -10 13 0.42 0.27
10 6 -13 0.25 0.22
10 13 6 0.22 0.23
-13 10 6 0.2 0.21
-10 6 13 0.37 0.2
-6 10 -13 0.52 0.23
-13 -10 -6 0.27 0.16
7 -13 -10 -0.26 0.18
-10 -7 13 0.23 0.25
10 7 13 -0.26 0.17
7 13 10 -0.34 0.22
7 -10 13 -0.02 0.22
-7 -13 10 0.14 0.26
13 10 7 0.02 0.19
10 13 -7 0.25 0.24
-10 7 -13 -0.06 0.17
13 -7 10 0.07 0.16
-13 -10 7 0.2 0.24
-13 -7 -10 -0.17 0.1
-7 13 -10 -0.03 0.25
-7 -10 -13 0.1 0.15
13 -10 -7 0.09 0.16
13 7 -10 0.09 0.39
-7 10 13 -0.23 0.19
7 10 -13 -0.1 0.23
-10 13 7 -0.06 0.21
-10 -13 -7 -0.01 0.19
-13 10 -7 -0.16 0.21
-13 7 10 -0.04 0.2
10 -13 7 0.02 0.21
-10 -7 -13 -0.01 0.12
-13 -7 10 0.08 0.4
-10 7 13 -0.09 0.18
10 7 -13 -0.16 0.23
7 -10 -13 -0.16 0.18
-10 13 -7 0.31 0.24
-7 -13 -10 -0.27 0.17
10 -7 13 -0.05 0.19
10 -13 -7 -0.19 0.18
7 -13 10 -0.33 0.22
-13 -10 -7 0.19 0.15
13 10 -7 -0.06 0.23
7 10 13 -0.07 0.19
-10 -13 7 -0.26 0.24
13 7 10 -0.06 0.16
-7 10 -13 0.16 0.23
-13 10 7 -0.15 0.2
-13 7 -10 -0.1 0.17
10 13 7 -0.29 0.23
-7 13 10 -0.42 0.22
13 -10 7 -0.04 0.16
7 13 -10 -0.1 0.25
13 -7 -10 0.03 0.16
-7 -10 13 -0.08 0.25
13 10 8 0.1 0.2
10 13 -8 -0.06 0.28
-10 -13 -8 -0.17 0.19
-10 8 -13 -0.1 0.19
-8 13 -10 -0.27 0.25
-10 13 8 0.11 0.23
-10 -8 13 -0.19 0.27
10 -13 8 -0.12 0.23
-13 -8 -10 0 0.12
8 -13 -10 -0.3 0.17
13 8 -10 0.02 0.23
-13 8 10 0.08 0.21
8 13 10 -0.25 0.25
-8 -13 10 -0.46 0.26
13 -8 10 -0.17 0.18
-8 10 13 0.06 0.21
13 -10 -8 -0.16 0.17
-8 -10 -13 0.06 0.16
10 -8 -13 0.13 0.19
-13 -10 8 -0.07 0.44
8 -10 13 -0.36 0.23
10 8 13 -0.12 0.19
8 10 -13 -0.11 0.25
-13 10 -8 -0.01 0.21
-8 -13 -10 -0.17 0.18
-13 -8 10 0.11 0.25
-10 -8 -13 0.05 0.14
-8 10 -13 0.04 0.23
10 13 8 -0.16 0.24
-13 10 8 -0.02 0.2
-10 -13 8 -0.17 0.27
8 -13 10 -0.09 0.23
13 -8 -10 -0.19 0.16
-10 13 -8 -0.11 0.25
13 -10 8 -0.04 0.19
10 -8 13 -0.1 0.21
13 8 10 -0.19 0.18
10 -13 -8 0.05 0.17
8 13 -10 -0.28 0.26
-13 -10 -8 0.03 0.15
-13 8 -10 0.05 0.18
8 -10 -13 -0.3 0.18
8 10 13 -0.08 0.21
10 8 -13 -0.01 0.25
-10 8 13 -0.08 0.2
-8 13 10 -0.22 0.24
-13 -10 9 -0.46 0.25
-13 10 -9 -0.15 0.23
10 9 13 0.21 0.22
-9 -13 10 0.22 0.3
10 -9 -13 0.11 0.17
-13 9 10 -0.02 0.22
10 13 -9 -0.12 0.25
-9 -10 -13 0.07 0.16
13 -10 -9 0.28 0.19
-10 13 9 0.15 0.26
-9 10 13 0.12 0.24
-9 13 -10 0.01 0.27
-13 -9 -10 -0.08 0.14
-10 -9 13 0.03 0.28
-10 9 -13 -0.06 0.21
13 -9 10 -0.14 0.2
9 10 -13 0.31 0.27
9 -10 13 0.2 0.24
-10 -13 -9 -0.05 0.19
9 -13 -10 -0.13 0.19
13 9 -10 0.03 0.26
13 10 9 -0.17 0.22
9 13 10 -0.48 0.25
10 -13 9 -0.29 0.23
-9 -13 -10 0.07 0.19
-13 -9 10 -0.28 0.28
-13 9 -10 -0.11 0.21
-9 -10 13 -0.08 0.28
13 -9 -10 0.41 0.19
13 9 10 -0.03 0.2
9 -13 10 -0.02 0.25
-13 -10 -9 0.05 0.16
13 10 -9 0.13 0.28
-10 13 -9 -0.06 0.26
-13 10 9 -0.12 0.22
-10 -9 -13 0.05 0.14
9 -10 -13 0.12 0.19
10 -9 13 -0.07 0.23
10 9 -13 0.04 0.26
13 -10 9 -0.26 0.2
-9 13 10 0.36 0.24
10 13 9 -0.23 0.25
-10 9 13 0.03 0.22
-9 10 -13 -0.01 0.24
10 -13 -9 -0.16 0.19
9 13 -10 0.08 0.27
9 10 13 -0.35 0.22
-10 -13 9 0.08 0.29
-10 -13 -10 -0.08 0.2
10 -10 13 0.26 0.26
-13 10 -10 -0.33 0.25
10 13 10 -0.04 0.26
-10 -10 13 -0.04 0.31
10 -13 -10 0.45 0.21
10 -13 10 0.07 0.27
-10 10 -13 0.06 0.25
13 10 -10 0.01 0.27
13 10 10 -0.06 0.23
-10 13 -10 -0.14 0.29
-13 -10 -10 -0.19 0.17
-13 -10 10 -0.08 0.28
10 10 13 -0.06 0.24
-13 10 10 -0.01 0.26
-10 13 10 0.24 0.26
10 -10 -13 -0.23 0.19
10 13 -10 -0.07 0.29
13 -10 -10 -0.09 0.2
13 -10 10 0.32 0.23
-10 -10 -13 0.12 0.17
10 10 -13 -0.26 0.27
-10 -13 10 0.45 0.3
-10 10 13 0.16 0.25
0 -13 -11 2.51 0.41
0 13 -11 2.1 0.49
11 -13 0 2.47 0.3
0 11 13 2.73 0.34
13 -11 0 3.65 0.48
11 13 0 2.25 0.35
-13 0 11 2.14 0.33
-11 0 13 1.42 0.34
-11 -13 0 2.31 0.33
-11 13 0 2.43 0.34
13 11 0 2.36 0.33
0 13 11 2.91 0.46
11 0 13 3.33 0.41
11 0 13 3.31 0.33
0 -13 11 1.89 0.41
-13 0 11 2.61 0.28
0 -11 -13 3.68 0.46
0 -11 13 1.81 0.49
-13 -11 0 2.84 0.34
-11 0 13 1.36 0.28
0 11 -13 1.8 0.36
-13 11 0 2.71 0.32
-11 -1 13 -0.32 0.26
1 11 -13 -0.27 0.35
1 -11 13 -0.35 0.29
11 1 13 -0.24 0.13
-13 -11 1 -0.21 0.25
-13 1 11 -0.05 0.24
-1 -13 11 -0.55 0.29
13 11 1 -0.35 0.25
13 -11 -1 -0.32 0.19
-13 1 11 -0.27 0.19
-13 11 -1 -0.28 0.23
11 13 -1 -0.18 0.29
11 1 13 -0.05 0.15
-1 -11 -13 0.04 0.2
-11 13 1 -0.3 0.26
1 -13 -11 -0.08 0.22
-11 -1 13 -0.39 0.2
-1 13 -11 -0.35 0.42
1 13 11 -0.34 0.25
11 -13 1 -0.27 0.21
-11 -13 -1 -0.05 0.25
-11 -13 1 -0.29 0.25
-13 11 1 -0.28 0.24
13 11 -1 -0.85 0.24
-13 -11 -1 -0.34 0.24
13 -11 1 -0.27 0.19
-11 1 13 -0.28 0.26
-11 1 13 -0.4 0.21
-1 -13 -11 -0.35 0.19
-1 13 11 -0.35 0.29
1 11 13 -0.37 0.24
11 13 1 -0.5 0.27
-11 13 -1 -0.37 0.26
-13 -1 11 -0.31 0.19
-1 11 -13 -0.25 0.26
-13 -1 11 -0.42 0.24
11 -13 -1 -0.25 0.21
11 -1 13 -0.09 0.11
1 13 -11 -0.11 0.3
-1 -11 13 -0.18 0.32
11 -1 13 -0.54 0.16
-2 11 13 1.15 0.26
-2 13 -11 0.92 0.3
2 -11 13 1.46 0.31
13 11 2 0.87 0.27
-2 -13 11 0.92 0.29
11 -13 2 1.49 0.25
-11 -13 -2 1.09 0.27
-13 -11 2 0.98 0.28
-11 -2 13 1.02 0.28
-2 -11 -13 1.54 0.21
11 2 13 1.13 0.18
2 11 -13 1.12 0.28
-13 2 11 1.03 0.23
13 -11 -2 1.48 0.21
-13 11 -2 1.02 0.26
-11 13 2 1.41 0.28
11 2 13 1.32 0.17
-13 2 11 0.93 0.26
2 13 11 1.27 0.27
13 -2 11 1.26 0.15
11 13 -2 1.16 0.29
2 -13 -11 1.46 0.23
2 -13 11 1.24 0.31
11 -2 13 1.31 0.2
-13 -2 11 1.03 0.28
2 11 13 1.6 0.26
-11 13 -2 1.54 0.28
-2 -11 13 0.94 0.3
-13 -11 -2 0.88 0.25
11 -2 13 1.36 0.15
-13 11 2 1.16 0.26
13 -11 2 1.16 0.22
2 -11 -13 1.4 0.22
-2 -13 -11 1.68 0.23
13 11 -2 1.07 0.28
11 -13 -2 1.67 0.23
-2 13 11 1.31 0.26
-11 2 13 1.06 0.26
-2 11 -13 1.11 0.29
-11 -13 2 0.78 0.28
11 13 2 1.22 0.28
-11 2 13 0.74 0.23
2 13 -11 1.01 0.32
-3 -13 11 -0.11 0.27
3 -13 -11 -0.24 0.19
3 13 11 0.12 0.23
11 3 13 -0.19 0.13
11 3 13 -0.28 0.13
13 -11 -3 -0.11 0.18
-13 3 11 -0.17 0.25
-3 11 13 -0.3 0.21
-11 -3 13 -0.07 0.27
11 -13 3 -0.27 0.21
-11 -13 -3 -0.24 0.22
-3 -11 -13 -0.18 0.17
3 -11 13 -0.28 0.25
3 11 -13 -0.3 0.25
11 13 -3 -0.46 0.26
-3 13 -11 -0.12 0.27
13 -3 11 -0.35 0.12
13 11 3 -0.22 0.22
-13 3 11 -0.14 0.19
-13 -11 3 -0.24 0.24
-11 13 3 -0.36 0.24
-13 11 -3 -0.47 0.22
3 11 13 -0.22 0.22
11 -3 13 -0.35 0.17
11 -13 -3 -0.16 0.19
13 11 -3 -0.43 0.24
-11 13 -3 -0.51 0.23
-13 11 3 -0.41 0.22
-3 -11 13 -0.4 0.26
-11 3 13 -0.37 0.2
11 3 -13 0.15 0.24
-3 -13 -11 -0.33 0.18
3 -13 11 -0.08 0.26
3 -11 -13 -0.07 0.18
11 13 3 -0.17 0.24
3 13 -11 -0.27 0.26
-3 11 -13 -0.76 0.25
-13 -3 11 -0.48 0.27
-11 3 13 -0.3 0.2
-11 -13 3 -0.24 0.25
13 -11 3 -0.33 0.18
-3 13 11 -0.41 0.22
-13 -11 -3 -0.19 0.19
4 13 11 -0.13 0.23
-4 11 13 0.41 0.2
13 11 4 -0.07 0.22
11 -13 4 0.23 0.19
-11 -13 -4 -0.22 0.21
-4 -13 11 0.17 0.27
-11 4 -13 -0.04 0.13
-13 -11 4 0.44 0.24
-13 11 -4 0.09 0.22
-11 13 4 0.23 0.23
-4 -11 -13 -0.01 0.16
-4 13 -11 0.15 0.26
4 11 -13 0.34 0.25
11 4 13 0.13 0.14
4 -13 -11 0.27 0.19
11 13 -4 0.24 0.25
11 4 13 0.1 0.13
13 -4 11 0.11 0.13
4 -11 13 0.38 0.25
13 -11 -4 0.01 0.17
-11 -4 13 0.02 0.24
11 13 4 -0.13 0.24
11 4 -13 0.16 0.22
-11 13 -4 -0.13 0.23
13 11 -4 0.01 0.23
4 -13 11 0.03 0.25
-13 -11 -4 0.18 0.2
4 11 13 0.35 0.21
11 -13 -4 0.04 0.18
-13 11 4 0.02 0.2
-13 4 -11 0.17 0.12
13 -11 4 0.28 0.18
-11 4 13 0.02 0.19
-11 -13 4 0.4 0.26
13 4 11 0.18 0.12
11 -4 13 0.27 0.17
-4 11 -13 0.21 0.24
4 13 -11 0.21 0.27
4 -11 -13 0.38 0.18
-4 13 11 -0.16 0.22
-11 4 13 0.24 0.22
13 4 11 0.11 0.09
-4 -13 -11 0.12 0.18
-4 -11 13 0.21 0.26
11 13 -5 -0.08 0.27
-5 11 13 0.03 0.21
-5 -11 -13 0.08 0.15
5 -13 -11 0.26 0.18
-5 13 -11 -0.22 0.25
-11 5 -13 -0.09 0.14
11 -13 5 0.01 0.2
-13 11 -5 -0.14 0.21
13 11 5 -0.06 0.2
-11 -5 13 0 0.25
-5 -13 11 0.11 0.26
11 5 13 -0.04 0.15
5 -11 13 0.28 0.24
13 5 -11 -0.08 0.26
13 -11 -5 -0.04 0.16
-13 5 11 0.12 0.2
-13 5 11 -0.14 0.19
-11 -13 -5 0.05 0.2
5 13 11 -0.22 0.23
11 5 13 0.11 0.13
-13 -11 5 0.04 0.24
13 -5 11 0.03 0.14
5 11 -13 0.09 0.25
-11 -13 5 -0.14 0.23
-13 5 -11 -0.12 0.12
5 11 13 -0.01 0.2
11 13 5 -0.17 0.23
11 -13 -5 -0.12 0.24
5 -13 11 0.01 0.24
13 5 11 0.07 0.1
13 -11 5 -0.31 0.18
-13 11 5 -0.18 0.2
13 5 11 -0.15 0.13
-5 11 -13 0.1 0.23
-5 13 11 0.16 0.22
-11 5 13 0.23 0.21
-13 -5 11 0.17 0.3
5 -11 -13 0.13 0.17
-5 -13 -11 0.06 0.17
-11 13 -5 0.3 0.24
-11 5 13 -0.03 0.19
13 11 -5 -0.12 0.23
11 -5 13 0.09 0.17
11 5 -13 -0.42 0.21
5 13 -11 -0.41 0.25
-13 -11 -5 -0.08 0.18
-5 -11 13 -0.05 0.25
13 -6 11 -0.06 0.15
-11 6 -13 0.02 0.15
11 -13 6 -0.06 0.21
13 -11 -6 -0.09 0.19
-13 11 -6 -0.22 0.21
11 6 13 0.02 0.16
6 13 11 -0.02 0.22
-13 -11 6 -0.05 0.24
-11 13 6 0.03 0.21
13 6 -11 -0.1 0.23
-11 -6 13 0.14 0.25
-6 -13 11 -0.33 0.26
6 -13 -11 -0.29 0.16
6 -11 13 -0.24 0.22
-11 -13 -6 -0.04 0.18
11 13 -6 0.08 0.27
-6 11 13 0.08 0.21
-13 6 11 -0.04 0.18
-6 -11 -13 -0.07 0.15
-6 13 -11 0.36 0.25
13 11 6 -0.26 0.21
6 11 -13 -0.26 0.25
-6 13 11 -0.32 0.22
11 6 -13 -0.35 0.23
-13 11 6 -0.36 0.21
-13 6 -11 -0.02 0.15
6 13 -11 -0.16 0.25
11 13 6 -0.08 0.22
6 -13 11 0.23 0.24
11 -6 13 0 0.19
13 6 11 -0.09 0.15
6 -11 -13 -0.05 0.17
-6 -13 -11 0.06 0.18
11 -13 -6 -0.09 0.17
-11 13 -6 -0.19 0.23
-6 11 -13 -0.23 0.23
6 11 13 -0.03 0.21
-6 -11 13 -0.11 0.26
-13 -11 -6 -0.06 0.17
13 11 -6 0.09 0.24
-11 6 13 -0.29 0.2
13 -11 6 0.03 0.17
-13 -6 11 -0.22 0.24
-11 -13 6 0.02 0.27
13 -11 -7 -0.07 0.17
7 13 11 0.14 0.24
-11 7 -13 -0.08 0.17
7 -11 13 -0.12 0.24
7 11 -13 0.07 0.25
-13 11 -7 -0.04 0.22
-11 -13 -7 0.07 0.19
-13 -7 -11 -0.12 0.11
11 7 13 -0.07 0.18
-7 13 -11 0.12 0.26
7 -13 -11 -0.07 0.17
-13 7 11 -0.06 0.19
-7 -13 11 0.04 0.27
13 11 7 -0.28 0.2
11 -13 7 -0.09 0.22
11 13 -7 0.02 0.26
-11 13 7 -0.04 0.21
-7 11 13 -0.15 0.22
-7 -11 -13 -0.14 0.15
13 7 -11 -0.44 0.24
13 -7 11 -0.18 0.17
-11 -7 13 -0.2 0.25
13 7 11 0.01 0.17
7 11 13 0.08 0.21
-13 -7 11 -0.01 0.25
-13 7 -11 0 0.16
11 -7 13 0.31 0.2
-13 -11 -7 0.11 0.17
-11 13 -7 0.4 0.25
-13 11 7 0.01 0.22
-11 -7 -13 -0.03 0.12
11 13 7 -0.11 0.24
7 13 -11 -0.08 0.25
11 -13 -7 -0.01 0.19
-11 7 13 0.11 0.19
-7 -13 -11 -0.54 0.18
13 -11 7 -0.32 0.19
7 -13 11 -0.07 0.23
11 7 -13 -0.17 0.25
-11 -13 7 0.04 0.26
-7 11 -13 0.25 0.24
-7 13 11 0.08 0.24
-7 -11 13 -0.13 0.25
7 -11 -13 0.04 0.18
-8 -11 -13 0.09 0.16
-11 13 8 0.2 0.24
8 11 -13 -0.02 0.24
8 -11 13 0.3 0.25
11 8 13 0.23 0.2
11 -13 8 -0.19 0.23
13 -8 11 0.11 0.19
8 13 11 0.43 0.25
-13 -8 -11 -0.05 0.12
-8 11 13 -0.08 0.24
-11 8 -13 0.09 0.2
-13 8 11 -0.11 0.22
11 13 -8 0.02 0.27
13 8 -11 -0.26 0.25
13 11 8 0 0.22
8 -13 -11 0.22 0.2
-8 13 -11 0.45 0.27
-13 -11 8 -0.1 0.26
-11 -8 13 -0.18 0.27
-13 11 -8 -0.05 0.23
13 -11 -8 0.11 0.18
-11 -13 -8 -0.38 0.2
-8 -13 11 0.2 0.28
11 -8 -13 -0.03 0.19
11 -13 -8 0.31 0.19
-8 11 -13 -0.12 0.24
-13 -11 -8 -0.15 0.17
13 8 11 -0.07 0.19
8 -13 11 -0.17 0.25
-11 8 13 -0.26 0.21
-11 -13 8 0.37 0.28
-11 13 -8 -0.08 0.26
13 -11 8 0.07 0.21
-8 -11 13 0.04 0.29
11 -8 13 0.19 0.22
11 8 -13 -0.16 0.24
-13 11 8 -0.4 0.23
8 13 -11 -0.11 0.25
11 13 8 -0.4 0.25
13 11 -8 0.15 0.26
-8 13 11 0.66 0.24
-8 -13 -11 -0.14 0.19
8 -11 -13 0.17 0.2
-11 -8 -13 0.07 0.14
8 11 13 0.09 0.23
-13 -8 11 -0.12 0.27
-13 8 -11 0.07 0.19
13 -8 -11 0.18 0.19
9 11 -13 -0.14 0.29
13 9 -11 -0.34 0.26
-13 11 -9 -0.41 0.26
9 -13 -11 0.17 0.22
9 -11 13 -0.29 0.25
-13 9 11 -0.22 0.24
9 13 11 -0.29 0.27
-9 13 -11 -0.08 0.29
-13 -9 -11 -0.04 0.14
11 -9 -13 -0.03 0.19
11 9 13 -0.3 0.23
13 -11 -9 -0.3 0.19
13 11 9 -0.02 0.24
-11 -9 13 -0.56 0.29
-11 13 9 -0.44 0.25
-9 -13 11 0.21 0.29
-13 -11 9 -0.46 0.28
13 -9 11 -0.24 0.22
-11 9 -13 0.13 0.21
-9 11 13 -0.01 0.26
-9 -11 -13 -0.1 0.17
11 13 -9 -0.13 0.29
11 -13 9 0.21 0.26
-11 -13 -9 -0.06 0.2
13 9 11 0.22 0.22
-11 13 -9 0.21 0.28
-9 -11 13 0.25 0.27
-9 -13 -11 -0.29 0.2
-13 -9 11 -0.26 0.28
-13 11 9 -0.18 0.24
9 -11 -13 -0.04 0.21
-9 13 11 0.1 0.27
13 -11 9 -0.31 0.23
-13 -11 -9 -0.16 0.17
11 9 -13 0 0.28
9 11 13 -0.34 0.24
11 -9 13 -0.26 0.23
-9 11 -13 -0.06 0.25
-13 9 -11 -0.18 0.22
-11 -13 9 -0.16 0.3
9 -13 11 -0.69 0.25
11 -13 -9 0.03 0.2
11 13 9 -0.23 0.27
-11 -9 -13 0.12 0.15
13 11 -9 0.06 0.27
9 13 -11 0.25 0.29
-11 9 13 0.21 0.24
13 -9 -11 0 0.19
-13 -10 -11 0.22 0.18
10 13 11 0 0.28
-13 10 11 -0.3 0.26
10 -11 13 0.24 0.27
13 10 -11 0.39 0.28
13 -10 11 0.43 0.24
11 13 -10 0.14 0.31
-10 -13 11 0.45 0.31
11 -13 10 0.46 0.27
10 11 -13 0.56 0.32
13 -11 -10 0.33 0.22
-11 13 10 0.78 0.28
-10 -11 -13 0.39 0.18
-13 11 -10 0.47 0.28
13 11 10 0.34 0.25
-10 11 13 0.85 0.27
11 10 13 0.38 0.25
10 -13 -11 0.3 0.21
-11 -10 13 -0.52 0.32
-11 10 -13 -0.06 0.26
-10 13 -11 0.8 0.31
-13 -11 10 0.29 0.31
11 -10 -13 0.4 0.21
-11 -13 -10 0.38 0.21
-13 11 10 0.39 0.25
-11 13 -10 -0.17 0.3
11 13 10 -0.11 0.28
11 -10 13 -0.05 0.25
-10 -11 13 0.83 0.31
-10 11 -13 0.61 0.27
-13 -10 11 -0.04 0.31
-13 10 -11 0.28 0.25
-11 -10 -13 0.21 0.17
-11 -13 10 0.25 0.31
10 13 -11 0.42 0.3
13 -10 -11 0.48 0.2
-11 10 13 0.4 0.25
-10 -13 -11 0.64 0.22
13 10 11 0.71 0.25
13 11 -10 0.33 0.3
10 11 13 0.31 0.27
10 -13 11 0.45 0.28
-10 13 11 0.29 0.28
11 10 -13 0.16 0.29
-13 -11 -10 0.32 0.19
11 -13 -10 0.58 0.22
13 -11 10 0.19 0.24
10 -11 -13 0.59 0.22
-11 -11 -13 -0.19 0.18
11 -11 -13 -0.56 0.21
11 -13 11 -0.2 0.28
-13 -11 11 -0.48 0.31
-13 11 11 -0.6 0.26
13 11 -11 -0.13 0.29
11 13 11 -0.53 0.28
13 -11 -11 -0.03 0.21
13 -11 11 -0.39 0.26
11 11 -13 0.04 0.29
11 -13 -11 -0.16 0.23
-11 -11 13 0.03 0.31
-11 11 -13 -0.43 0.26
-13 11 -11 -0.3 0.27
11 13 -11 0.02 0.3
-11 13 -11 -0.43 0.3
-11 13 11 -0.24 0.28
11 11 13 -0.42 0.27
11 -11 13 -0.64 0.26
-11 11 13 -0.25 0.26
-11 -13 -11 -0.27 0.21
-13 -11 -11 -0.11 0.18
13 11 11 -0.25 0.26
-11 -13 11 -0.55 0.31
-12 0 13 15.97 1.48
-12 0 13 17.7 1.42
12 0 13 17.65 1.35
13 -12 0 19.46 1.42
12 -13 0 18.03 1.43
-13 -12 0 17.66 1.46
13 12 0 18.75 1.48
-12 13 0 17.65 1.47
-13 0 12 17.39 1.41
-13 12 0 16.93 1.46
0 13 -12 19.12 1.5
0 -12 -13 18.94 1.42
12 0 13 18.58 1.38
0 -13 12 16.54 1.49
12 13 0 17.87 1.49
0 12 13 15.8 1.45
0 13 12 16.22 1.47
0 -12 13 16.83 1.5
0 12 -13 15.36 1.52
-12 -13 0 17.32 1.46
0 -13 -12 16.21 1.42
-13 0 12 17.04 1.46
12 1 13 1.72 0.22
13 -12 -1 2.21 0.27
1 -13 -12 1.47 0.26
12 13 -1 1.68 0.33
12 -13 1 1.93 0.27
-1 12 13 1.34 0.3
-1 -13 12 1.88 0.34
1 -12 13 1.39 0.35
1 12 -13 1.77 0.33
-12 -1 13 1.16 0.3
-12 -1 13 2.34 0.27
-13 1 12 1.99 0.26
-13 12 -1 1.79 0.31
-12 -13 -1 1.95 0.31
-13 1 12 1.87 0.31
12 1 13 2.65 0.3
-12 13 1 1.77 0.32
13 12 1 1.77 0.32
-13 -12 1 1.8 0.32
1 13 12 1.71 0.36
13 -1 12 2.35 0.29
-1 13 -12 1.3 0.35
12 -13 -1 1.72 0.27
13 -12 1 1.91 0.26
12 -1 13 2.38 0.29
12 -1 13 1.65 0.22
-13 12 1 1.57 0.3
-13 -1 12 1.94 0.33
-1 12 -13 1.45 0.33
-12 1 13 2.15 0.26
12 13 1 1.79 0.32
1 -13 12 1.83 0.35
-13 -1 12 1.84 0.25
-12 -13 1 1.64 0.31
-1 13 12 1.85 0.31
1 13 -12 1.58 0.35
-1 -12 13 1.8 0.36
13 12 -1 2.22 0.32
-12 13 -1 2.3 0.33
-13 -12 -1 1.64 0.3
-1 -13 -12 1.64 0.31
1 -12 -13 1.97 0.25
-12 1 13 1.45 0.3
13 -2 12 -0.29 0.09
13 -12 -2 -0.62 0.19
2 -12 13 -0.86 0.34
12 -13 2 -0.56 0.21
-13 12 -2 -0.32 0.24
-12 -2 13 -0.39 0.26
12 2 13 -0.41 0.14
12 2 13 -0.17 0.13
-2 -12 -13 -0.57 0.18
2 12 -13 -0.7 0.25
-2 12 13 -0.89 0.25
-13 -12 2 -0.39 0.25
2 13 12 -1.28 0.35
2 -13 -12 -0.54 0.18
-12 13 2 -0.56 0.25
-2 -13 12 -0.83 0.3
-2 13 -12 -0.82 0.3
-13 2 12 -0.56 0.23
-13 2 12 -0.61 0.2
12 13 -2 -0.87 0.27
13 12 2 -0.25 0.25
12 -2 13 -0.35 0.16
12 -13 -2 -0.69 0.2
2 -12 -13 -0.41 0.2
-12 13 -2 -0.63 0.25
12 -2 13 -0.22 0.1
-13 12 2 -0.12 0.25
-12 2 13 -0.57 0.23
-2 -12 13 -0.55 0.28
-2 13 12 -0.35 0.26
2 13 -12 -0.63 0.29
2 12 13 -0.68 0.24
-12 -13 2 -0.51 0.26
12 13 2 -0.94 0.26
-2 -13 -12 -1.2 0.34
2 -13 12 -0.73 0.28
-12 2 13 -0.67 0.2
-13 -12 -2 -0.28 0.24
13 12 -2 -0.96 0.26
-13 -2 12 -0.41 0.25
13 -12 2 -0.28 0.2
12 13 -3 1.14 0.29
-12 -13 -3 1.02 0.25
-3 -13 12 1.31 0.32
3 12 -13 1.11 0.28
12 3 13 1.01 0.16
12 3 13 0.89 0.16
-3 12 13 1.29 0.26
-13 12 -3 0.9 0.26
12 -13 3 1.18 0.24
-12 -3 13 0.73 0.29
3 13 12 1.03 0.26
3 -12 13 1.1 0.39
3 -13 -12 1.2 0.21
13 -3 12 0.95 0.17
-12 13 3 1.25 0.27
-3 -12 -13 1.09 0.21
-13 3 12 1.06 0.22
13 -12 -3 1.07 0.21
13 12 3 1.27 0.27
-13 3 12 1.1 0.26
-13 -12 3 1.03 0.28
12 13 3 1.02 0.26
13 12 -3 1.35 0.28
-12 13 -3 1.22 0.27
13 -12 3 1.23 0.22
-13 12 3 1.06 0.26
-13 -3 12 0.98 0.29
-3 -13 -12 0.99 0.21
3 12 13 1.15 0.25
13 3 12 1.89 0.25
-12 -13 3 1.37 0.28
3 13 -12 1.24 0.31
-12 3 13 0.82 0.22
3 -13 12 0.13 0.46
-3 13 12 1.48 0.28
13 3 12 1.02 0.15
3 -12 -13 1.1 0.23
12 -3 13 0.66 0.19
12 -13 -3 1.08 0.23
-12 3 13 1.2 0.26
-3 12 -13 0.91 0.32
-3 -12 13 0.99 0.28
-13 -12 -3 0.92 0.24
-13 12 -4 0.64 0.25
-13 4 12 0.4 0.19
13 -4 12 0.81 0.17
13 4 -12 0.61 0.25
-4 -13 12 0.93 0.3
-12 4 -13 0.95 0.15
-12 -4 13 0.6 0.26
-12 13 4 0.9 0.35
-13 -12 4 0.55 0.26
12 4 13 0.69 0.16
4 -13 -12 0.87 0.19
-13 4 12 0.63 0.24
4 12 -13 0.5 0.26
-12 -13 -4 0.85 0.23
-4 -12 -13 0.78 0.19
13 12 4 0.79 0.25
4 -12 13 0.81 0.27
13 -12 -4 0.92 0.2
4 13 12 0.78 0.24
12 4 13 0.72 0.14
-4 12 13 0.88 0.24
12 -13 4 0.67 0.22
12 13 -4 1.11 0.29
-4 13 -12 0.69 0.3
-4 12 -13 0.78 0.27
4 -12 -13 0.91 0.21
-12 4 13 0.8 0.23
12 13 4 0.99 0.26
-12 4 13 0.84 0.22
-4 -13 -12 0.71 0.19
4 12 13 0.53 0.24
13 4 12 0.91 0.15
-13 4 -12 0.82 0.14
-4 -12 13 0.34 0.26
-12 -13 4 0.9 0.27
13 12 -4 0.49 0.26
-13 -4 12 0.72 0.26
13 4 12 0.72 0.12
-4 13 12 0.85 0.25
-13 -12 -4 1 0.22
13 -12 4 0.75 0.21
12 4 -13 0.46 0.24
4 13 -12 1.04 0.28
-12 13 -4 0.65 0.25
12 -4 13 0.69 0.19
-13 12 4 0.99 0.24
-5 13 -12 0.01 0.25
12 -13 5 -0.11 0.19
5 -13 -12 -0.01 0.17
13 -5 12 0.18 0.16
-12 -13 -5 0.18 0.2
5 13 12 -0.08 0.23
12 5 13 0.02 0.15
-5 -13 12 0.01 0.27
-13 -12 5 0.21 0.24
5 12 -13 0.07 0.26
13 5 -12 0.21 0.25
-13 5 12 0.1 0.19
5 -12 13 -0.04 0.24
-5 12 13 0.3 0.22
-13 5 12 0.3 0.22
-12 5 -13 -0.07 0.15
-13 12 -5 0.05 0.22
12 5 13 0.02 0.12
13 12 5 0.02 0.22
-12 13 5 -0.11 0.23
-5 -12 -13 -0.04 0.16
-12 -5 13 0.06 0.25
-12 5 13 0.18 0.2
-5 13 12 0.21 0.23
12 13 5 -0.02 0.23
-13 5 -12 0 0.13
-13 -5 12 -0.09 0.25
-5 -13 -12 0.22 0.17
12 -5 13 0.04 0.17
5 -13 12 0 0.25
-12 5 13 0.27 0.19
13 -12 5 0.23 0.19
13 12 -5 0.15 0.24
-13 -12 -5 -0.08 0.18
13 5 12 -0.08 0.11
13 5 12 0.07 0.15
5 13 -12 0.11 0.24
5 12 13 0.12 0.23
12 -13 -5 0.08 0.18
12 5 -13 0.06 0.24
5 -12 -13 0.17 0.18
-5 -12 13 -0.09 0.26
-13 12 5 0.16 0.35
-12 13 -5 0.08 0.24
-5 12 -13 0.09 0.24
12 -13 6 0 0.21
6 13 12 0.37 0.24
-13 6 12 0.28 0.23
-13 6 12 0.34 0.19
13 6 -12 0.41 0.24
13 12 6 -0.05 0.23
12 6 13 0.01 0.17
13 -12 -6 0.38 0.17
-6 12 13 0.25 0.22
-6 13 -12 0.4 0.26
-13 12 -6 0.28 0.23
6 12 -13 0.15 0.28
-12 -6 13 0.32 0.25
-12 6 -13 0.18 0.16
-13 -12 6 0.08 0.37
-6 -13 12 0.08 0.27
-12 -13 -6 0.26 0.19
6 -12 13 0.43 0.25
12 13 -6 0.02 0.25
-12 13 6 0.18 0.22
-6 -12 -13 0.1 0.16
13 -6 12 0.24 0.17
6 -13 -12 0.06 0.19
-13 -6 12 0.35 0.26
-12 13 -6 0.06 0.24
6 -13 12 -0.13 0.24
6 13 -12 0.15 0.26
-12 -13 6 0.17 0.26
-12 6 13 0.32 0.2
-13 12 6 0.36 0.21
12 6 -13 0.39 0.24
-13 -12 -6 0.29 0.19
6 -12 -13 0.45 0.19
13 -12 6 0.35 0.19
-12 6 13 0.1 0.21
13 12 -6 0.32 0.42
-6 -13 -12 0.06 0.17
12 -13 -6 0.13 0.18
-13 6 -12 0.22 0.15
-6 13 12 0.2 0.24
12 13 6 0.45 0.24
-6 -12 13 -0.02 0.27
-6 12 -13 0.43 0.25
13 6 12 0.03 0.16
6 12 13 -0.02 0.22
12 -6 13 0.24 0.18
12 13 -7 -0.14 0.25
-13 -7 -12 0.05 0.11
-13 7 12 0.02 0.2
-12 -13 -7 -0.14 0.2
-12 -7 13 0.24 0.27
7 -13 -12 0.35 0.21
7 -12 13 0.09 0.25
7 12 -13 0.17 0.26
7 13 12 0.2 0.25
-7 -13 12 0.13 0.26
12 -13 7 0.23 0.23
-12 7 -13 -0.1 0.17
-13 -12 7 0.12 0.27
13 -7 12 0.31 0.19
13 7 -12 0.24 0.25
13 12 7 0.32 0.23
-13 12 -7 0.03 0.24
-7 12 13 -0.1 0.22
13 -12 -7 0.11 0.19
12 7 13 0.36 0.19
-7 -12 -13 -0.07 0.17
-12 13 7 0.13 0.23
-7 13 -12 0.09 0.27
-12 -13 7 0.03 0.26
-12 13 -7 0.38 0.26
-12 7 13 0.18 0.2
13 -12 7 -0.2 0.21
-13 12 7 0.49 0.24
-13 7 -12 0.22 0.18
-12 -7 -13 0.04 0.12
12 -13 -7 -0.1 0.18
7 -13 12 0.32 0.26
7 13 -12 -0.02 0.26
7 12 13 0.08 0.24
12 -7 13 0.09 0.2
12 13 7 -0.22 0.24
-13 -12 -7 0.02 0.19
-7 -13 -12 0.12 0.18
-7 -12 13 -0.22 0.27
-7 12 -13 0.31 0.27
-7 13 12 0.26 0.24
7 -12 -13 0.14 0.19
12 7 -13 -0.26 0.25
13 7 12 0.07 0.18
13 12 -7 -0.12 0.26
-13 -7 12 0.29 0.26
12 -13 8 0.07 0.24
-12 -13 -8 0.14 0.21
12 13 -8 0.32 0.29
13 12 8 0.47 0.24
-12 13 8 0.33 0.26
-8 -12 -13 0.44 0.19
-12 -8 13 -0.03 0.28
-12 8 -13 0.06 0.21
-8 -13 12 0.11 0.28
-13 8 12 0.03 0.24
8 -12 13 0.04 0.26
8 12 -13 0.3 0.27
-13 -8 -12 0.09 0.14
8 -13 -12 0.3 0.2
13 8 -12 -0.2 0.27
8 13 12 0.27 0.26
12 -8 -13 -0.02 0.2
-13 -12 8 0.06 0.28
-8 13 -12 0.33 0.28
12 8 13 -0.05 0.21
13 -12 -8 0 0.19
-13 12 -8 -0.09 0.26
13 -8 12 0.43 0.21
-8 12 13 0.01 0.24
13 8 12 0.11 0.2
-12 13 -8 -0.05 0.27
12 13 8 0.21 0.27
8 -12 -13 0.06 0.2
13 12 -8 0.51 0.28
-8 -13 -12 0.19 0.19
-8 13 12 0.06 0.27
-12 -13 8 0.18 0.29
8 12 13 0.18 0.25
12 8 -13 0.34 0.28
8 -13 12 0.13 0.25
8 13 -12 0.41 0.28
13 -12 8 0.26 0.23
-13 -12 -8 0.2 0.19
13 -8 -12 -0.07 0.21
-13 8 -12 -0.01 0.19
-13 -8 12 0.07 0.28
-8 12 -13 0.28 0.28
-12 8 13 0.17 0.23
12 -8 13 0.17 0.22
-8 -12 13 0.31 0.3
-13 12 8 0.01 0.25
-12 -8 -13 0.18 0.14
12 -13 -8 0.23 0.2
13 12 9 0.91 0.27
-9 13 -12 0.7 0.31
13 -9 12 0.61 0.24
-13 -12 9 0.16 0.29
9 12 -13 0.47 0.31
-12 9 -13 0.27 0.22
13 9 -12 0.72 0.29
-12 -9 13 0.44 0.32
-12 13 9 0.66 0.28
9 -13 -12 0.45 0.21
9 13 12 0.34 0.28
12 -9 -13 0.88 0.23
-9 12 13 0.65 0.27
-13 9 12 0.47 0.26
9 -12 13 0.17 0.28
-13 12 -9 0.56 0.28
12 13 -9 0.92 0.32
12 9 13 0.57 0.25
12 -13 9 0.56 0.27
13 -12 -9 0.62 0.21
-9 -12 -13 0.64 0.21
-13 -9 -12 0.56 0.16
-9 -13 12 0.74 0.31
-12 -13 -9 0.65 0.22
13 9 12 0.51 0.23
-13 -12 -9 0.58 0.21
-12 -13 9 0.8 0.31
-12 13 -9 0.74 0.3
-13 12 9 0.64 0.28
12 13 9 0.42 0.28
13 -9 -12 0.45 0.21
-13 -9 12 0.4 0.3
-13 9 -12 0.29 0.23
9 13 -12 0.45 0.32
-12 9 13 0.61 0.26
-9 12 -13 1.08 0.3
12 -9 13 0.47 0.24
12 9 -13 1.09 0.29
-12 -9 -13 0.54 0.17
-9 13 12 0.47 0.28
13 -12 9 0.78 0.26
13 12 -9 0.46 0.29
-9 -13 -12 0.4 0.21
9 12 13 0.43 0.28
9 -12 -13 0.58 0.22
-9 -12 13 0.22 0.31
12 -13 -9 0.32 0.23
9 -13 12 0.72 0.29
-12 -10 13 1.94 0.38
-12 10 -13 4.46 0.61
-10 12 13 1.47 0.32
-12 13 10 2.11 0.34
12 13 -10 2.23 0.38
-10 13 -12 2.51 0.37
10 -12 13 2.44 0.34
13 -10 12 2.27 0.31
13 10 -12 1.78 0.37
13 12 10 2.55 0.33
-13 -12 10 1.82 0.38
-13 12 -10 2.08 0.34
12 -13 10 1.8 0.34
-13 -10 -12 3.41 0.42
12 10 13 4.01 0.55
-10 -13 12 2.12 0.38
-13 10 12 2.19 0.32
13 -12 -10 3.85 0.53
10 -13 -12 3.71 0.5
10 12 -13 2.25 0.36
12 -10 -13 3.76 0.49
-10 -12 -13 4.14 0.48
10 13 12 1.94 0.36
-13 -10 12 2.24 0.38
-10 12 -13 2.17 0.36
13 -10 -12 3.5 0.49
-12 13 -10 2.34 0.36
-10 -12 13 2.5 0.4
12 -13 -10 1.99 0.29
-13 10 -12 2.43 0.33
-13 -12 -10 2.04 0.27
-13 12 10 2.12 0.35
-12 -13 10 2.25 0.38
13 12 -10 1.7 0.35
13 10 12 2.37 0.32
10 -12 -13 2.09 0.29
10 12 13 2.42 0.34
12 -10 13 1.74 0.33
13 -12 10 2.29 0.33
10 -13 12 2.28 0.35
10 13 -12 1.95 0.36
12 13 10 2.05 0.35
-10 13 12 1.81 0.33
-10 -13 -12 1.87 0.28
12 10 -13 1.83 0.37
-12 10 13 1.81 0.32
12 -13 11 0.73 0.3
12 13 -11 0.67 0.32
-12 -13 -11 0.82 0.23
-12 -11 13 0.18 0.31
13 -11 12 0.84 0.27
13 11 -12 0.88 0.33
-13 12 -11 0.71 0.31
-13 -12 11 0.34 0.32
11 12 -13 0.57 0.34
-11 -13 12 0.67 0.32
-12 11 -13 1.28 0.28
11 -12 13 0.92 0.29
-13 -11 -12 0.54 0.2
11 13 12 0.8 0.31
-11 12 13 0.57 0.28
-11 13 -12 0.63 0.32
-12 13 11 1.06 0.3
-11 -12 -13 1.23 0.21
12 11 13 0.65 0.29
13 -12 -11 0.85 0.24
12 -11 -13 0.91 0.24
-13 11 12 0.76 0.29
11 -13 -12 0.82 0.25
13 12 11 1.13 0.29
-13 -12 -11 0.64 0.21
-11 -12 13 0.73 0.32
13 11 12 0.73 0.28
-12 13 -11 0.64 0.33
12 13 11 0.14 0.3
13 -11 -12 0.92 0.23
11 -12 -13 0.63 0.24
-12 11 13 0.2 0.28
-11 -13 -12 0.57 0.22
11 12 13 0.52 0.3
-12 -13 11 0.91 0.32
-11 13 12 0.73 0.3
12 -13 -11 0.56 0.23
11 -13 12 0.53 0.3
11 13 -12 -0.01 0.32
-11 12 -13 0.94 0.31
-13 11 -12 0.71 0.27
12 -11 13 0.9 0.28
12 11 -13 1.31 0.32
-12 -11 -13 0.99 0.2
-13 -11 12 0.33 0.32
13 -12 11 1.17 0.28
13 12 -11 0.44 0.33
-13 12 11 1.17 0.29
-13 -12 -12 -0.06 0.19
-13 -12 12 -0.24 0.29
-13 12 -12 0.19 0.27
-13 12 12 0.09 0.24
-12 -13 -12 0.01 0.19
-12 -13 12 -0.39 0.3
-12 -12 -13 0.19 0.19
-12 -12 13 -0.15 0.29
-12 12 -13 0.05 0.28
-12 12 13 -0.06 0.26
-12 13 -12 0.2 0.29
-12 13 12 0.01 0.28
12 -13 -12 0.23 0.21
12 -13 12 -0.06 0.27
12 -12 -13 0.05 0.22
12 -12 13 -0.39 0.27
12 12 -13 -0.02 0.29
12 12 13 -0.35 0.27
12 13 -12 -0.12 0.29
12 13 12 -0.51 0.28
13 -12 -12 0.14 0.21
13 -12 12 -0.43 0.26
13 12 -12 -0.09 0.3
13 12 12 -0.13 0.27
-13 -13 0 0.75 0.31
-13 0 13 1.65 0.31
-13 0 13 2 0.25
-13 13 0 2.22 0.31
0 -13 -13 1.72 0.25
0 -13 13 1.35 0.34
0 13 -13 1.34 0.33
0 13 13 1.51 0.3
13 -13 0 1.49 0.26
13 0 13 1.62 0.19
13 0 13 2.17 0.26
13 13 0 1.2 0.31
-13 -13 -1 -0.24 0.26
-13 -13 1 -0.94 0.27
-13 -1 13 -0.27 0.3
-13 -1 13 -0.76 0.2
-13 1 13 -0.47 0.24
-13 1 13 -0.61 0.2
-13 13 -1 -0.17 0.28
-13 13 1 -0.65 0.27
-1 -13 -13 -0.2 0.2
-1 -13 13 -0.25 0.31
-1 13 -13 -0.85 0.29
-1 13 13 -0.39 0.26
1 -13 -13 -0.25 0.2
1 -13 13 -0.26 0.29
1 13 -13 -0.38 0.3
1 13 13 -0.26 0.24
13 -13 -1 -0.2 0.22
13 -13 1 -0.57 0.22
13 -1 13 -0.32 0.14
13 1 13 -0.37 0.14
13 1 13 -0.22 0.12
13 13 -1 -0.33 0.29
13 13 1 -0.44 0.29
-13 -13 -2 0.94 0.27
-13 -13 2 0.7 0.28
-13 -2 13 0.82 0.28
-13 -2 13 0.8 0.23
-13 2 13 0.98 0.28
-13 2 13 0.56 0.23
-13 13 -2 0.92 0.28
-13 13 2 0.69 0.28
-2 -13 -13 0.83 0.21
-2 -13 13 0.57 0.32
-2 13 -13 0.77 0.31
-2 13 13 1.27 0.27
2 -13 -13 0.62 0.21
2 -13 13 0.74 0.31
2 13 -13 1.32 0.31
2 13 13 0.8 0.27
13 -13 -2 0.62 0.23
13 -13 2 1.13 0.24
13 -2 13 0.98 0.18
13 -2 13 0.98 0.13
13 2 13 1.02 0.16
13 2 13 0.93 0.15
13 13 -2 0.83 0.29
13 13 2 0.79 0.28
-13 -13 -3 -0.06 0.23
-13 -13 3 0.27 0.26
-13 -3 13 0.21 0.28
-13 3 13 -0.22 0.23
-13 3 13 -0.08 0.2
-13 13 -3 -0.04 0.25
-13 13 3 0.26 0.26
-3 -13 -13 -0.06 0.21
-3 -13 13 -0.02 0.28
-3 13 -13 0.19 0.28
-3 13 13 0.18 0.24
3 -13 -13 0.3 0.19
3 -13 13 -0.1 0.27
3 13 -13 0.23 0.27
3 13 13 0.18 0.28
13 -13 -3 0.31 0.22
13 -13 3 0.28 0.21
13 -3 13 -0.24 0.15
13 -3 13 0.01 0.1
13 3 13 0.06 0.12
13 3 13 -0.02 0.14
13 13 -3 0.42 0.29
13 13 3 -0.34 0.26
-13 -13 -4 -0.03 0.21
-13 -13 4 -0.1 0.26
-13 -4 13 0.6 0.27
-13 4 -13 0.17 0.13
-13 4 13 -0.05 0.22
-13 4 13 0.24 0.2
-13 13 -4 0.24 0.24
-13 13 4 0.19 0.27
-4 -13 -13 0 0.33
-4 -13 13 -0.19 0.25
-4 13 -13 -0.28 0.27
-4 13 13 0.11 0.23
4 -13 -13 0.16 0.19
4 -13 13 0.22 0.26
4 13 -13 0.21 0.27
13 -13 -4 0.14 0.19
13 -13 4 0.56 0.21
13 -4 13 0.28 0.17
13 4 -13 0.17 0.25
13 4 13 0.27 0.12
13 4 13 0.07 0.14
13 13 -4 0.05 0.26
13 13 4 -0.07 0.24
-13 -13 -5 -0.2 0.19
-13 -13 5 -0.13 0.25
-13 -5 13 -0.07 0.25
-13 5 -13 0.02 0.14
-13 5 13 0.05 0.21
-13 5 13 0 0.19
-13 13 -5 -0.06 0.23
-13 13 5 -0.28 0.22
-5 -13 -13 0.02 0.18
-5 -13 13 -0.46 0.25
-5 13 -13 0.14 0.32
-5 13 13 -0.15 0.23
5 -13 -13 0.04 0.19
5 -13 13 0.15 0.26
5 13 -13 -0.25 0.26
5 13 13 -0.38 0.23
13 -13 -5 0 0.19
13 -13 5 0 0.2
13 -5 13 -0.04 0.17
13 5 -13 0.12 0.24
13 5 13 0.08 0.12
13 5 13 0.26 0.15
13 13 -5 0.13 0.26
13 13 5 -0.31 0.22
-13 -13 -6 0 0.19
-13 -13 6 -0.18 0.26
-13 -6 13 0.2 0.26
-13 6 -13 -0.17 0.15
-13 6 13 -0.07 0.21
-13 6 13 -0.19 0.2
-13 13 -6 0.1 0.25
-13 13 6 -0.25 0.22
-6 -13 -13 -0.06 0.18
-6 -13 13 -0.01 0.27
-6 13 13 -0.11 0.25
6 -13 -13 -0.35 0.18
6 -13 13 0.17 0.48
6 13 -13 0.02 0.25
6 13 13 -0.16 0.24
13 -13 -6 -0.36 0.18
13 -13 6 -0.01 0.2
13 -6 13 0 0.18
13 6 -13 -0.16 0.23
13 6 13 -0.22 0.12
13 6 13 -0.25 0.16
13 13 -6 -0.25 0.25
13 13 6 -0.1 0.24
-13 -13 -7 -0.08 0.2
-13 -13 7 -0.25 0.28
-13 -7 13 0.37 0.29
-13 7 -13 -0.09 0.17
-13 7 13 -0.15 0.22
-13 13 -7 -0.21 0.25
-13 13 7 0 0.25
-7 -13 -13 0.34 0.2
-7 -13 13 -0.13 0.28
-7 13 -13 -0.04 0.3
-7 13 13 0.31 0.24
7 -13 -13 0.08 0.19
7 -13 13 -0.24 0.4
7 13 -13 -0.05 0.27
7 13 13 0.13 0.26
13 -13 -7 0.09 0.18
13 -13 7 0.04 0.22
13 -7 13 0.11 0.2
13 7 -13 -0.02 0.26
13 7 13 0.17 0.19
13 13 -7 -0.39 0.27
13 13 7 -0.05 0.25
-13 -13 -8 0.29 0.21
-13 -13 8 0.02 0.3
-13 -8 -13 0.35 0.14
-13 -8 13 0.23 0.3
-13 8 -13 0.45 0.21
-13 8 13 0.52 0.25
-13 13 -8 0.61 0.29
-13 13 8 0.4 0.28
-8 -13 -13 0.35 0.21
-8 -13 13 0.26 0.29
-8 13 -13 0.55 0.28
-8 13 13 0.54 0.28
8 -13 -13 0.27 0.2
8 -13 13 0.32 0.29
8 13 -13 0.41 0.31
8 13 13 1 0.28
13 -13 -8 0.23 0.21
13 -13 8 0.56 0.25
13 -8 13 0.84 0.23
13 8 -13 0.58 0.29
13 8 13 0.47 0.22
13 13 -8 0.63 0.3
13 13 8 0.23 0.26
-13 -13 -9 -0.05 0.21
-13 -13 9 0.02 0.3
-13 -9 -13 0.17 0.16
-13 -9 13 -0.19 0.31
-13 9 -13 0.04 0.21
-13 9 13 -0.2 0.25
-13 13 -9 -0.21 0.28
-13 13 9 0.41 0.27
-9 -13 -13 0.31 0.21
-9 -13 13 0.19 0.31
-9 13 -13 0.07 0.28
-9 13 13 -0.17 0.26
9 -13 -13 -0.06 0.2
9 -13 13 0.33 0.27
9 13 -13 -0.16 0.29
9 13 13 0.62 0.29
13 -13 -9 -0.04 0.21
13 -13 9 0.12 0.26
13 -9 -13 -0.07 0.21
13 -9 13 -0.1 0.24
13 9 -13 0.14 0.29
13 9 13 0.23 0.23
13 13 -9 0.04 0.3
13 13 9 -0.07 0.27
-13 -13 -10 -0.18 0.19
-13 -13 10 -0.03 0.29
-13 -10 -13 -0.01 0.16
-13 -10 13 -0.56 0.31
-13 10 -13 -0.26 0.24
-13 10 13 -0.15 0.24
-13 13 -10 -0.13 0.29
-13 13 10 -0.45 0.26
-10 -13 -13 0.04 0.21
-10 -13 13 -0.53 0.3
-10 13 -13 0.05 0.28
-10 13 13 -0.67 0.26
10 -13 -13 -0.04 0.21
10 -13 13 -0.47 0.27
10 13 -13 -0.21 0.28
10 13 13 -0.75 0.28
13 -13 -10 -0.16 0.2
13 -13 10 -0.55 0.26
13 -10 -13 -0.21 0.21
13 -10 13 -0.66 0.24
13 10 -13 -0.63 0.26
13 10 13 -0.44 0.24
13 13 -10 -0.47 0.28
13 13 10 -0.39 0.27
-13 -13 -11 -0.54 0.2
-13 -13 11 -0.24 0.29
-13 -11 -13 -0.33 0.17
-13 -11 13 -0.52 0.29
-13 11 -13 -0.29 0.25
-13 11 13 -0.33 0.26
-13 13 -11 -0.36 0.3
-13 13 11 -0.71 0.28
-11 -13 -13 -0.07 0.2
-11 -13 13 -0.53 0.3
-11 13 -13 -0.35 0.28
-11 13 13 -0.43 0.27
11 -13 -13 -0.2 0.23
11 -13 13 -0.7 0.27
11 13 -13 -0.02 0.31
11 13 13 -0.14 0.29
13 -13 -11 -0.15 0.21
13 -13 11 -0.42 0.28
13 -11 -13 -0.57 0.21
13 -11 13 -0.12 0.26
13 11 -13 -0.36 0.29
13 11 13 -0.51 0.25
13 13 -11 -0.11 0.29
13 13 11 -0.33 0.28
-13 -13 -12 0.5 0.2
-13 -13 12 0.53 0.31
-13 -12 -13 0.31 0.18
-13 -12 13 0.49 0.31
-13 12 -13 0.05 0.28
-13 12 13 0.38 0.27
-13 13 -12 0.4 0.3
-13 13 12 0.71 0.29
-12 -13 -13 0.03 0.21
-12 -13 13 0.29 0.31
-12 13 -13 -0.16 0.28
-12 13 13 0.18 0.28
12 -13 -13 0.25 0.23
12 -13 13 0.2 0.29
12 13 -13 0.71 0.32
12 13 13 0.23 0.29
13 -13 -12 0.48 0.22
13 -13 12 0.21 0.29
13 -12 -13 -0.13 0.21
13 -12 13 0.39 0.28
13 12 -13 0.25 0.29
13 12 13 0.34 0.28
13 13 -12 0.63 0.32
13 13 12 0.26 0.29
-13 -13 -13 0.2 0.2
-13 -13 13 0.07 0.32
-13 13 -13 -0.17 0.28
-13 13 13 0.21 0.28
13 -13 -13 0 0.21
13 -13 13 0.32 0.28
13 13 -13 -0.43 0.3
13 13 13 0.45 0.29
-14 0 0 12.93 1.03
-14 0 0 12.53 1.01
0 -14 0 12.66 1.11
0 0 14 12.7 1.11
0 0 14 13.2 1.03
0 14 0 12.69 1.13
-14 0 -1 2.29 0.35
-14 0 -1 2.64 0.29
-14 0 1 2.97 0.4
-14 0 1 2.36 0.32
-1 -14 0 2.04 0.3
-1 14 0 1.49 0.32
0 -1 14 2.45 0.3
0 1 14 2.49 0.29
0 1 14 2.73 0.39
1 -14 0 2 0.31
1 14 0 2.23 0.32
0 14 -1 2.28 0.33
0 14 1 2.3 0.32
1 0 14 2.13 0.28
1 0 14 2.4 0.35
0 -14 -1 2.08 0.29
0 -14 1 1.92 0.29
-14 1 0 2.32 0.31
-1 0 14 2.81 0.31
-1 0 14 1.51 0.24
-14 1 0 2.68 0.36
-14 -1 0 2.99 0.37
-14 -1 0 2.68 0.3
-1 14 -1 2.09 0.33
-1 14 1 2.07 0.34
1 -14 -1 1.97 0.29
1 -14 1 1.95 0.3
1 -1 14 2.21 0.3
1 1 14 1.86 0.28
-1 1 14 2.08 0.29
-1 1 14 3.02 0.39
-1 -1 14 3.98 0.56
-14 1 1 3 0.34
-1 -14 -1 2.45 0.32
-1 -14 1 1.73 0.3
-14 1 -1 3.32 0.31
-14 1 1 2.95 0.4
-14 -1 -1 2.68 0.28
-14 -1 1 2.83 0.41
-14 -1 1 2.61 0.32
-14 1 -1 2.3 0.35
-14 -1 -1 3.51 0.36
1 1 14 2.74 0.37
1 14 -1 2.18 0.34
1 14 1 2.13 0.33
-14 0 2 0.33 0.13
-2 -14 0 0.16 0.22
-2 14 0 0.45 0.25
0 -2 14 -0.27 0.21
0 2 -14 0.06 0.2
0 2 14 -0.27 0.19
0 2 14 -0.31 0.17
2 -14 0 0.39 0.24
-14 0 -2 0.18 0.11
-14 0 -2 0.22 0.1
-14 0 2 0.23 0.16
0 14 -2 -0.03 0.25
0 14 2 -0.21 0.25
2 0 14 0.34 0.2
2 0 14 0.34 0.14
2 14 0 0.39 0.25
0 -14 -2 0.21 0.2
-14 -2 0 0.24 0.15
-14 2 0 -0.27 0.13
-14 2 0 0.11 0.13
-2 0 14 0.18 0.21
-2 0 14 0.3 0.15
0 -14 2 0.16 0.24
-1 2 14 17.3 1.3
1 14 2 15.58 1.32
-14 1 2 16.15 1.23
-2 -1 14 15.81 1.3
2 14 -1 14.67 1.32
-2 14 1 16.07 1.32
-14 2 -1 16.25 1.23
-14 2 -1 15.18 1.22
1 2 -14 17.27 1.3
2 -14 1 15.53 1.3
-1 2 14 16.68 1.26
1 -2 14 15.3 1.29
-14 1 2 15.71 1.26
-1 -14 2 14.6 1.31
-1 14 -2 16.28 1.33
-14 -1 -2 14.85 1.22
-14 -1 -2 15.63 1.2
-2 -14 -1 15.4 1.3
2 1 14 15.39 1.24
2 1 14 15.32 1.29
-14 -2 1 15.79 1.25
1 -14 -2 16.42 1.29
-1 2 -14 17.57 1.29
-2 14 -1 16.14 1.32
-2 -14 1 15.63 1.31
1 2 14 16.6 1.24
2 -14 -1 14.69 1.29
2 -1 14 14.96 1.29
-14 -2 -1 15.54 1.21
2 14 1 15.14 1.32
-1 -14 -2 15.88 1.29
1 -14 2 15.53 1.3
-1 -2 14 17.09 1.3
-14 2 1 16.12 1.25
-14 2 1 15.84 1.23
-14 -2 -1 15.67 1.24
-2 1 14 15.2 1.25
-14 1 -2 14.68 1.22
1 14 -2 15.6 1.31
-14 -1 2 14.82 1.26
-14 1 -2 15.1 1.21
-1 14 2 16.19 1.31
-14 -1 2 14.95 1.22
1 2 14 15.48 1.27
2 2 14 -0.09 0.14
2 -14 -2 0.05 0.21
2 -14 2 -0.22 0.22
2 -2 14 -0.29 0.21
-14 -2 2 0 0.16
-14 2 -2 -0.21 0.11
-14 2 -2 -0.18 0.11
2 14 -2 -0.24 0.24
2 14 2 -0.35 0.24
-2 14 2 -0.52 0.24
-2 2 14 -0.24 0.2
-2 2 14 -0.13 0.17
-2 14 -2 -0.12 0.24
-14 2 2 -0.15 0.16
-14 2 2 -0.06 0.13
-2 -2 14 -0.05 0.22
-2 2 -14 -0.24 0.17
-14 -2 -2 -0.17 0.13
-14 -2 -2 0.13 0.08
2 2 -14 -0.02 0.2
2 2 14 -0.41 0.18
-2 -14 -2 -0.1 0.21
-2 -14 2 -0.21 0.22
0 -14 -3 0.64 0.22
0 -14 3 0.5 0.23
0 3 14 0.69 0.17
3 -14 0 0.7 0.24
3 14 0 0.22 0.25
0 14 -3 0.49 0.25
0 14 3 0.39 0.25
-14 0 3 0.44 0.14
-3 -14 0 0.42 0.23
-3 14 0 0.53 0.26
-14 -3 0 0.67 0.17
-3 0 14 0.63 0.16
0 3 14 0.48 0.21
-14 0 -3 0.55 0.11
-14 0 -3 0.54 0.09
-14 0 3 0.19 0.17
3 0 14 0.49 0.14
-14 3 0 0.44 0.14
-3 0 14 0.4 0.22
0 -3 14 0.38 0.22
0 3 -14 0.62 0.21
3 0 14 0.4 0.19
14 3 0 0.42 0.14
3 1 14 2.86 0.37
3 -14 1 1.99 0.29
1 14 3 4.05 0.54
-1 3 14 3.7 0.48
-1 3 14 3.41 0.39
-14 1 3 1.84 0.25
1 3 -14 2.11 0.27
-3 14 1 4.14 0.54
-1 14 -3 2.1 0.3
-14 -3 1 3.43 0.4
-14 3 -1 2.98 0.34
3 1 14 2.12 0.26
-14 1 3 2.49 0.35
-3 -14 -1 1.77 0.29
3 14 -1 2.26 0.32
1 -14 -3 3.57 0.46
1 -3 14 1.89 0.28
-3 -1 14 1.61 0.28
-1 -14 3 1.8 0.3
3 -14 -1 1.8 0.28
-3 -14 1 1.76 0.3
-14 3 1 3.1 0.34
1 14 -3 2.33 0.32
1 3 14 1.76 0.26
3 -1 14 2.09 0.27
-1 -14 -3 1.95 0.28
-1 -3 14 2.49 0.3
-14 -1 3 2.12 0.31
-1 14 3 2.11 0.32
-3 14 -1 1.95 0.33
-3 1 14 2.16 0.29
3 14 1 2.06 0.33
-14 -1 3 2.21 0.25
-14 -3 -1 3.32 0.37
1 -14 3 2.31 0.3
1 3 14 3.24 0.4
-3 1 14 2.74 0.38
14 3 -1 2.69 0.36
-1 3 -14 3.66 0.46
3 2 14 1.79 0.23
-2 -14 3 1.49 0.28
3 2 14 1.8 0.2
-2 3 14 1.69 0.21
-3 -2 14 1.36 0.26
-14 2 3 1.64 0.21
2 -14 -3 1.9 0.25
-3 2 -14 1.3 0.22
-14 -3 2 1.65 0.24
-14 3 -2 2.28 0.29
-14 2 3 2.69 0.34
-3 -14 -2 1.32 0.26
2 -3 14 1.76 0.25
2 3 -14 1.76 0.26
-14 -2 -3 2.07 0.2
2 14 3 1.73 0.29
-3 14 2 1.29 0.29
-2 14 -3 1.62 0.29
3 14 -2 1.05 0.27
-2 3 14 1.58 0.25
3 -14 2 1.74 0.28
-14 -2 -3 2.4 0.25
-14 2 -3 2.25 0.26
3 -2 14 1.62 0.24
3 2 -14 1.87 0.26
-14 -3 -2 1.43 0.19
3 14 2 1.22 0.28
-2 3 -14 3.47 0.42
-3 2 14 2.94 0.38
-14 3 2 1.68 0.2
-3 -14 2 1.59 0.28
2 3 14 2.58 0.36
2 3 14 1.6 0.23
-2 -14 -3 2.04 0.26
3 -14 -2 1.74 0.25
-3 2 14 1.49 0.25
-2 14 3 1.6 0.28
-14 3 2 1.73 0.21
14 3 -2 1.73 0.21
-2 -3 14 1.61 0.27
2 -14 3 1.67 0.26
2 14 -3 1.74 0.3
-14 2 -3 1.95 0.25
-14 -2 3 1.52 0.22
-3 14 -2 1.46 0.28
3 3 14 0.5 0.17
3 3 14 0.63 0.16
3 14 -3 0.74 0.26
3 14 3 0.21 0.24
14 3 -3 0.79 0.17
-3 3 14 0.7 0.17
-3 14 -3 0.43 0.24
3 3 -14 0.38 0.22
3 -14 3 0.62 0.21
-14 -3 -3 0.63 0.12
-3 14 3 0.47 0.24
3 -14 -3 0.62 0.2
-3 3 -14 0.55 0.19
3 -3 14 0.83 0.21
-14 3 -3 0.47 0.12
-14 3 3 0.45 0.16
-14 3 3 0.42 0.15
-3 -14 -3 0.61 0.21
-3 -14 3 0.65 0.22
-3 -3 14 0.44 0.24
-14 -3 3 0.48 0.17
-3 3 14 0.54 0.2
-14 0 4 11.36 0.9
-4 -14 0 9.99 0.98
-14 0 4 11.59 0.95
0 -4 14 11.9 1.02
0 4 -14 11.55 0.98
0 4 14 12.63 0.96
-14 -4 0 10.86 0.92
-14 4 0 11.05 0.91
4 14 0 12.32 1
14 -4 0 11.17 0.89
14 4 0 11.21 0.91
0 -14 4 10.46 1
4 0 14 10.87 0.9
0 14 4 10.74 1.01
4 0 14 10.97 0.97
0 4 14 12 0.92
4 -14 0 10.36 0.98
-4 14 0 10.86 1
-4 0 14 10.62 0.92
0 -14 -4 11.15 0.97
0 14 -4 9.81 1.01
-4 0 14 12.4 1
4 1 14 0.8 0.15
4 1 14 0.49 0.19
-1 4 14 0.22 0.17
1 -4 14 0.42 0.23
14 -4 -1 0.48 0.12
-14 -4 1 0.28 0.17
-14 4 -1 0.46 0.14
-4 14 1 0.58 0.25
-4 -1 14 0.79 0.23
1 4 -14 0.28 0.21
1 -14 -4 0.32 0.21
14 4 1 0.53 0.14
-1 14 -4 0.21 0.24
-14 1 4 0.87 0.18
-14 1 4 0.75 0.15
-4 -14 -1 0.34 0.21
4 14 -1 0.43 0.25
-1 -14 4 0.34 0.23
-1 4 14 0.37 0.2
4 -14 1 0.69 0.21
1 14 4 0.21 0.24
-14 4 1 0.81 0.15
1 4 14 0.5 0.16
-4 -14 1 0.54 0.24
14 -4 1 0.43 0.11
14 4 -1 0.44 0.16
-14 -1 4 0.69 0.18
4 -1 14 0.55 0.19
1 4 14 0.29 0.19
-1 -4 14 0.42 0.22
-4 1 14 0.38 0.16
-14 -4 -1 0.45 0.15
4 -14 -1 0.4 0.19
1 -14 4 0.08 0.23
-1 -14 -4 0.28 0.19
-4 1 14 0.67 0.23
4 14 1 0.81 0.24
-4 14 -1 0.13 0.23
-14 -1 4 0.64 0.13
-1 14 4 0.47 0.25
-1 4 -14 0.21 0.2
1 14 -4 0.1 0.26
-4 14 2 5.38 0.65
-4 2 -14 4.61 0.55
-14 4 -2 5.3 0.5
-4 -14 -2 5.03 0.6
-4 -2 14 5.5 0.65
4 2 14 5.98 0.57
4 2 14 6 0.51
2 -4 14 6.01 0.64
2 4 -14 4.85 0.62
14 4 2 5.42 0.48
-2 4 14 5.31 0.54
4 -14 2 4.9 0.61
-14 2 4 5.19 0.55
2 14 4 4.63 0.63
-2 -14 4 4.93 0.66
-2 14 -4 5.62 0.66
-14 2 4 6.67 0.5
2 -14 -4 5.73 0.58
-2 4 14 5.72 0.61
-14 -4 2 4.45 0.54
4 14 -2 5.01 0.66
-14 2 -4 4.69 0.44
-2 14 4 5.37 0.65
-14 4 2 5.82 0.51
-4 2 14 5.1 0.54
-4 14 -2 5 0.64
-4 2 14 4.85 0.61
-2 -4 14 5.55 0.66
-2 4 -14 5.71 0.62
-14 -2 4 5.21 0.56
2 4 14 6.3 0.53
14 -4 2 5.1 0.46
14 4 -2 5.35 0.54
-2 -14 -4 4.82 0.58
4 -2 14 4.94 0.59
-14 -4 -2 5.12 0.5
4 -14 -2 5.4 0.59
-14 2 -4 4.59 0.43
-4 -14 2 4.45 0.66
4 14 2 4.71 0.64
2 4 14 5.05 0.58
2 14 -4 5.28 0.66
4 2 -14 5.56 0.61
2 -14 4 4.63 0.64
-3 4 14 0.21 0.18
-14 -4 3 0.27 0.17
3 -4 14 0.38 0.21
4 3 14 0.43 0.14
-3 -14 4 0.59 0.22
-14 3 4 0.52 0.16
14 4 3 0.26 0.11
-4 -14 -3 0.33 0.2
-3 14 -4 0.38 0.24
4 14 -3 0.46 0.25
3 -14 -4 0.41 0.21
-3 4 14 0.24 0.19
4 -14 3 0.26 0.22
3 14 4 0.04 0.23
-4 14 3 0.27 0.22
-14 3 4 0.42 0.15
4 3 14 0.49 0.17
3 4 -14 0.21 0.21
14 3 -4 0.23 0.17
-4 -3 14 0.46 0.23
-4 3 -14 0.23 0.17
-14 4 -3 0.42 0.12
14 -4 3 0.4 0.09
3 14 -4 0.27 0.23
3 4 14 0.57 0.15
-3 -14 -4 0.26 0.19
-4 3 14 0.44 0.19
-14 3 -4 0.3 0.1
-4 3 14 0.49 0.16
4 -14 -3 0.46 0.18
14 4 -3 0.32 0.17
3 4 14 0.3 0.17
-4 -14 3 0.53 0.24
-4 14 -3 0.66 0.25
4 -3 14 0.49 0.2
-3 -4 14 0.46 0.23
-3 4 -14 0.23 0.19
-14 4 3 0.43 0.15
4 14 3 0.18 0.24
-14 -4 -3 0.49 0.13
-3 14 4 0.24 0.23
4 3 -14 0.1 0.22
3 -14 4 0.53 0.22
-14 -3 4 0.14 0.18
14 4 -4 1.33 0.2
14 -4 4 1.51 0.21
4 4 -14 1.29 0.24
4 4 14 1.11 0.19
4 4 14 1.05 0.18
4 14 -4 0.76 0.26
-4 -4 14 1.49 0.26
-4 4 -14 1.03 0.21
4 -14 4 0.95 0.23
4 -4 14 1.07 0.23
-4 14 4 1.06 0.25
4 -14 -4 1.53 0.23
14 4 4 0.97 0.13
-4 4 14 1.26 0.2
-4 14 -4 1.29 0.26
-14 -4 -4 1 0.14
-14 -4 4 0.98 0.2
-14 4 -4 1.15 0.15
-14 4 4 1.37 0.17
-4 -14 -4 1.52 0.23
-4 -14 4 1.25 0.27
4 14 4 1.18 0.26
-4 4 14 1.43 0.23
-5 0 14 -0.31 0.16
-5 0 14 -0.16 0.22
0 5 -14 -0.32 0.2
0 5 14 0.01 0.16
5 -14 0 -0.28 0.2
0 14 5 0.01 0.22
-14 -5 0 -0.06 0.15
-14 5 0 -0.19 0.15
-14 0 5 -0.04 0.16
-14 0 5 -0.21 0.13
-5 -14 0 -0.08 0.22
-5 14 0 0.07 0.23
0 -5 14 -0.17 0.22
5 14 0 -0.28 0.24
0 -14 5 -0.09 0.23
14 -5 0 -0.04 0.11
0 -14 -5 -0.25 0.19
0 14 -5 -0.17 0.24
5 0 14 -0.47 0.17
14 5 0 0.01 0.15
5 0 14 -0.12 0.12
-14 1 5 -0.18 0.13
-1 14 -5 0.22 0.26
5 1 14 -0.17 0.16
1 -14 -5 0.06 0.2
-5 -14 -1 -0.32 0.22
-1 5 14 -0.05 0.15
-14 1 5 0 0.17
14 5 1 0.16 0.14
-14 -5 1 0.15 0.16
-14 5 -1 -0.01 0.14
1 5 -14 0.05 0.21
-5 -1 14 0.1 0.23
1 -5 14 -0.17 0.23
5 -14 1 -0.2 0.21
5 14 -1 0.02 0.23
-1 -14 5 0.27 0.21
1 14 5 0.12 0.23
5 1 14 -0.15 0.13
-5 14 1 -0.17 0.23
14 -5 -1 0.01 0.11
-5 1 14 0 0.21
-5 -14 1 -0.13 0.22
1 5 14 0.02 0.16
-14 -1 5 -0.13 0.13
-5 14 -1 -0.28 0.24
-1 14 5 -0.11 0.23
-14 -5 -1 0 0.15
-5 1 14 -0.08 0.16
-14 -1 5 -0.13 0.17
-1 -5 14 -0.14 0.21
-14 5 1 -0.06 0.15
14 -5 1 -0.03 0.11
5 -14 -1 0.07 0.19
1 -14 5 0.16 0.23
-1 -14 -5 -0.06 0.2
14 5 -1 -0.11 0.16
1 14 -5 -0.12 0.24
5 14 1 0.12 0.24
5 -1 14 -0.04 0.18
-1 5 -14 -0.04 0.19
-5 2 -14 -0.22 0.16
-14 2 5 0.06 0.16
-14 2 5 0.1 0.14
2 5 -14 0.09 0.21
2 14 5 -0.62 0.23
-5 -2 14 -0.2 0.23
-14 -5 2 -0.04 0.17
-14 5 -2 -0.21 0.13
2 -5 14 0.21 0.21
-5 -14 -2 -0.02 0.21
14 5 2 -0.09 0.13
-5 14 2 -0.18 0.22
5 2 14 -0.1 0.13
14 -5 -2 -0.03 0.12
-2 5 14 -0.13 0.16
2 -14 -5 -0.08 0.2
5 -14 2 -0.04 0.21
-2 -14 5 0.02 0.24
5 2 14 -0.29 0.16
-2 14 -5 0.15 0.24
5 14 -2 -0.1 0.25
-5 14 -2 -0.24 0.24
5 -2 14 -0.17 0.18
5 2 -14 -0.12 0.21
-2 5 -14 0.23 0.19
-14 -5 -2 -0.07 0.15
-5 -14 2 -0.02 0.23
-5 2 14 -0.15 0.19
14 5 -2 -0.03 0.16
5 -14 -2 -0.09 0.2
2 -14 5 0.11 0.23
2 14 -5 -0.24 0.24
-14 5 2 0.06 0.14
-2 -14 -5 0.08 0.2
2 5 14 0.02 0.15
-14 -2 5 -0.5 0.17
-5 2 14 -0.2 0.16
5 14 2 0.26 0.23
14 -5 2 0.1 0.1
-2 -5 14 0.01 0.22
-2 14 5 0.08 0.24
-5 -14 -3 -0.18 0.2
14 -5 -3 0.02 0.12
-3 5 14 0.21 0.17
-14 3 5 -0.03 0.15
-14 3 5 -0.27 0.14
-3 -14 5 -0.26 0.23
3 5 -14 0.18 0.23
5 3 14 0.16 0.13
14 3 -5 0 0.18
-14 5 -3 -0.25 0.12
-5 14 3 -0.29 0.23
14 5 3 -0.04 0.12
5 14 -3 0 0.23
3 -5 14 -0.01 0.2
5 -14 3 0.04 0.21
-3 14 -5 0.02 0.24
-5 -3 14 0.11 0.23
-5 3 -14 -0.09 0.16
3 -14 -5 -0.01 0.17
3 14 5 0.06 0.23
5 3 14 0.01 0.16
-14 -5 3 0.11 0.16
3 -14 5 0.15 0.22
-5 -14 3 -0.13 0.22
-5 3 14 -0.15 0.2
5 3 -14 -0.46 0.19
-14 3 -5 -0.07 0.1
5 -14 -3 -0.06 0.19
3 14 -5 -0.1 0.25
-3 5 -14 0.01 0.18
-5 14 -3 -0.01 0.23
-3 14 5 -0.11 0.23
-3 -14 -5 -0.28 0.18
3 5 14 0 0.15
-14 5 3 -0.06 0.14
14 5 -3 -0.03 0.17
-3 -5 14 -0.15 0.23
5 -3 14 0.12 0.19
-5 3 14 0.05 0.15
5 14 3 0.05 0.23
-14 -5 -3 0.05 0.14
-14 -3 5 -0.04 0.16
14 -5 3 0.04 0.1
-5 4 -14 0.76 0.19
-14 -5 4 0.71 0.19
14 5 4 0.65 0.13
4 14 5 0.47 0.24
-5 14 4 0.6 0.25
-4 14 -5 0.82 0.25
5 14 -4 0.28 0.25
-14 5 -4 0.66 0.15
14 -5 -4 0.66 0.14
-14 -4 -5 0.76 0.1
14 4 -5 0.77 0.19
5 4 14 0.76 0.17
-5 -14 -4 0.94 0.22
4 5 -14 0.66 0.23
4 -14 -5 0.72 0.2
14 -4 5 0.57 0.09
5 4 14 0.78 0.15
-4 -14 5 1 0.25
-14 4 5 0.47 0.15
-5 -4 14 0.83 0.24
-4 5 14 0.68 0.17
4 -5 14 0.63 0.22
5 -14 4 0.87 0.23
4 14 -5 0.96 0.27
-4 5 -14 0.68 0.19
-5 4 14 0.79 0.2
5 4 -14 1.02 0.24
5 14 4 0.73 0.24
4 5 14 0.65 0.16
4 -14 5 0.74 0.23
-14 -5 -4 0.71 0.13
5 -4 14 0.59 0.21
-14 5 4 0.58 0.16
-5 -14 4 0.74 0.25
-14 -4 5 0.72 0.18
5 -14 -4 0.59 0.2
-5 4 14 0.49 0.17
-4 -14 -5 0.96 0.2
14 -5 4 0.58 0.11
14 5 -4 1.04 0.2
-4 -5 14 1.17 0.26
-14 4 -5 0.58 0.13
-4 14 5 0.42 0.22
-5 14 -4 0.31 0.24
14 -5 5 0.03 0.09
-5 14 5 -0.22 0.23
-14 -5 -5 0.08 0.1
-5 14 -5 0.32 0.24
5 5 -14 -0.08 0.21
5 5 14 0.16 0.15
5 14 -5 -0.23 0.24
5 -14 -5 -0.06 0.18
5 -14 5 0.32 0.21
5 -5 14 0.29 0.2
5 14 5 0.19 0.23
-14 5 -5 -0.04 0.14
-14 5 5 -0.33 0.15
-5 -14 -5 -0.12 0.18
-5 -14 5 -0.2 0.23
-5 -5 14 -0.33 0.23
-5 5 -14 -0.01 0.17
-5 5 14 -0.16 0.15
14 5 -5 -0.03 0.18
14 5 5 0.04 0.1
-14 -5 5 -0.12 0.18
14 -5 -5 0.16 0.13
0 -6 -14 1.95 0.22
-6 14 0 1.82 0.3
-14 0 6 1.75 0.24
-14 -6 0 1.89 0.25
6 0 14 3.21 0.32
6 -14 0 1.84 0.25
0 -14 6 1.69 0.28
0 14 -6 1.47 0.3
0 14 6 1.78 0.29
6 0 14 2.13 0.24
0 -14 -6 1.64 0.25
0 -6 14 1.97 0.29
0 6 -14 1.79 0.28
0 6 14 2.02 0.24
14 -6 0 2.85 0.31
14 6 0 1.75 0.24
-6 0 14 3.17 0.39
-14 6 0 1.47 0.21
-6 0 14 2.2 0.28
-6 -14 0 2.24 0.3
6 14 0 1.99 0.29
14 -6 -1 4.75 0.45
6 1 14 5 0.45
6 1 14 4.25 0.52
1 6 -14 4.71 0.62
-1 -14 6 4.68 0.62
-14 1 6 3.3 0.52
-14 6 -1 3.49 0.47
-14 -6 1 4.45 0.51
-14 1 6 4.91 0.46
-1 6 14 3.59 0.5
-1 14 -6 4.33 0.61
1 14 6 4.24 0.63
1 -14 -6 4.09 0.53
-6 14 1 5.28 0.65
-6 -14 -1 4.36 0.57
-6 -1 14 4.56 0.61
14 6 1 4.03 0.49
1 -6 14 4.63 0.6
6 -14 1 4.31 0.56
-1 -6 -14 4.72 0.49
6 -14 -1 4.12 0.55
-6 1 14 4.47 0.49
6 -1 14 4.05 0.52
-14 -1 6 4.89 0.45
-6 14 -1 4.12 0.61
1 -6 -14 4.64 0.48
-1 -14 -6 4.97 0.55
-14 -1 6 4.2 0.54
14 -6 1 4.02 0.43
14 6 -1 3.86 0.52
-6 1 14 4.14 0.59
-1 6 -14 4.36 0.58
1 6 14 4.98 0.49
-14 6 1 3.44 0.48
-1 14 6 3.99 0.59
-14 -6 -1 4.13 0.51
1 -14 6 4.2 0.6
-1 -6 14 5.81 0.66
1 14 -6 4.22 0.65
6 -1 14 5.48 0.44
-14 6 -2 2.59 0.35
6 2 14 3 0.35
-6 14 2 2.06 0.3
14 -6 -2 3.14 0.35
-2 -6 -14 2.82 0.37
-6 -14 -2 3.61 0.47
14 6 2 2.58 0.37
-2 6 14 2.04 0.25
-2 14 -6 2.23 0.31
2 6 -14 1.96 0.29
6 2 14 3.08 0.41
-14 2 6 1.79 0.22
-14 -6 2 2.12 0.26
-6 -2 14 2.25 0.3
6 -14 2 2.21 0.29
6 14 -2 1.87 0.3
2 -6 14 2.16 0.3
2 -14 -6 2.17 0.26
-14 2 6 1.5 0.24
-2 -14 6 2.24 0.31
2 14 6 1.82 0.29
-2 6 -14 1.93 0.27
-14 -2 6 3.11 0.44
2 -6 -14 2.04 0.24
-2 -6 14 2.15 0.3
-6 2 14 3.6 0.4
-2 -14 -6 2.03 0.27
6 -14 -2 1.88 0.27
6 -2 14 1.88 0.26
-2 14 6 1.61 0.28
-6 2 14 3.9 0.5
2 -14 6 2 0.3
-14 -6 -2 2.83 0.38
-14 6 2 2.54 0.35
-6 -14 2 2.17 0.31
6 2 -14 2.23 0.28
2 6 14 3.51 0.42
-6 14 -2 2.04 0.3
2 14 -6 1.88 0.32
14 -6 2 2.61 0.31
14 6 -2 1.94 0.25
6 14 2 2.05 0.31
-3 -6 -14 0.34 0.14
-14 -6 3 0.38 0.19
-14 6 -3 0.45 0.15
14 6 3 0.46 0.15
-3 14 -6 0.41 0.26
3 -14 -6 0.27 0.19
-14 3 6 0.32 0.14
-6 -14 -3 0.6 0.21
6 3 14 0.47 0.14
14 -6 -3 0.49 0.14
-3 6 14 0.68 0.19
3 6 -14 0.51 0.22
-14 3 6 0.03 0.17
6 -14 3 0.6 0.22
6 14 -3 0.49 0.25
-6 -3 14 0.53 0.23
-6 3 -14 0.23 0.16
-3 -14 6 0.45 0.24
3 -6 14 0.2 0.21
3 14 6 0.49 0.24
14 3 -6 0.61 0.19
6 3 14 0.38 0.16
-6 14 3 0.47 0.24
3 6 14 0.57 0.18
-3 6 -14 0.4 0.2
3 -14 6 0.42 0.23
3 14 -6 0.3 0.26
6 -14 -3 0.46 0.19
-6 3 14 0.25 0.16
-3 -14 -6 0.04 0.19
6 14 3 0.08 0.23
-14 -6 -3 0.29 0.15
-3 -6 14 0.1 0.23
-6 14 -3 0.47 0.24
-3 14 6 0.74 0.25
3 -6 -14 0.43 0.16
14 -6 3 0.59 0.12
14 6 -3 0.29 0.19
-6 3 14 -0.01 0.19
6 3 -14 0.4 0.22
-6 -14 3 0.4 0.22
6 -3 14 0.48 0.19
-14 -3 6 0.44 0.18
-14 6 3 0.15 0.15
14 -4 6 1.6 0.18
4 14 6 1.37 0.26
-4 6 14 1.51 0.2
14 -6 -4 1.28 0.17
4 -14 -6 0.96 0.2
4 -6 14 0.9 0.24
-14 4 6 1.06 0.17
-6 -4 14 0.8 0.24
-4 -6 -14 1.09 0.16
6 -14 4 1.17 0.24
6 14 -4 0.88 0.26
6 4 14 1.22 0.17
-4 -14 6 1.22 0.25
-14 6 -4 0.85 0.18
14 6 4 0.98 0.16
4 6 -14 1.12 0.24
6 4 14 1.18 0.19
-14 -6 4 1.19 0.23
-6 -14 -4 0.83 0.23
-6 4 -14 1.25 0.2
-14 4 6 1.06 0.2
14 4 -6 1.25 0.22
-6 14 4 1.06 0.26
-4 14 -6 0.96 0.27
14 6 -4 1.22 0.21
-4 6 -14 1.14 0.21
6 4 -14 1.03 0.24
4 -6 -14 1.32 0.19
-14 -4 6 0.81 0.21
-14 4 -6 1.16 0.15
4 6 14 1.11 0.19
6 -14 -4 1.11 0.21
-14 6 4 1.32 0.18
-14 -6 -4 1.22 0.16
-4 14 6 1.21 0.25
-6 14 -4 1.06 0.26
4 -14 6 0.8 0.24
-4 -14 -6 0.87 0.22
6 -4 14 1.36 0.22
-6 4 14 0.95 0.19
6 14 4 1.22 0.25
14 -6 4 1.05 0.14
-6 -14 4 0.86 0.25
-6 4 14 1.19 0.23
4 14 -6 0.89 0.27
-4 -6 14 1.28 0.27
-5 -14 6 0.05 0.24
14 6 5 0.15 0.13
5 14 6 0.3 0.23
5 6 -14 0.09 0.21
5 -6 14 0.23 0.2
-5 6 14 0.53 0.19
-6 5 -14 0.28 0.17
-14 -5 -6 0.25 0.08
-6 -5 14 -0.06 0.24
-6 -14 -5 0.42 0.2
-14 -6 5 0.16 0.2
-5 -6 -14 0.34 0.13
-6 14 5 0.46 0.24
6 5 14 0.35 0.15
5 -14 -6 0.18 0.18
-14 5 6 0.51 0.15
-5 14 -6 0.38 0.24
-14 6 -5 0.1 0.15
6 14 -5 0.36 0.25
6 -14 5 0.37 0.21
14 -5 6 0.4 0.1
14 5 -6 0.26 0.19
14 -6 -5 0.3 0.14
14 -6 5 0.38 0.11
-5 -14 -6 0.22 0.19
6 -5 14 0.33 0.21
5 -14 6 0.12 0.22
5 14 -6 0.25 0.27
14 5 6 0.31 0.1
-14 -6 -5 0.27 0.12
-6 -14 5 0.22 0.24
5 6 14 0.6 0.16
6 -14 -5 0.38 0.19
-14 6 5 0.41 0.15
14 6 -5 0.19 0.19
-6 5 14 0.24 0.17
-5 6 -14 0.34 0.18
-6 14 -5 0.28 0.23
-14 -5 6 0.44 0.2
-14 5 -6 0.37 0.14
6 5 -14 0.11 0.21
6 14 5 0.44 0.23
-5 14 6 0.27 0.21
-5 -6 14 0.37 0.24
-6 5 14 0.45 0.21
-6 14 6 0.14 0.3
6 14 6 0.01 0.23
-6 -14 -6 0.01 0.18
6 14 -6 0.09 0.25
-6 -6 -14 -0.03 0.12
-6 6 -14 0.1 0.17
-6 14 -6 -0.14 0.23
-14 -6 -6 -0.05 0.1
6 -14 6 0.07 0.21
6 -6 14 0.11 0.2
-6 -14 6 0.01 0.26
14 6 6 -0.08 0.12
-14 -6 6 0.15 0.2
-14 6 -6 -0.06 0.15
-14 6 6 -0.08 0.15
14 6 -6 -0.17 0.2
14 -6 -6 -0.07 0.13
6 6 14 0.04 0.15
14 -6 6 0.03 0.11
0 -7 14 -0.05 0.23
-14 0 7 -0.17 0.14
14 -7 0 -0.05 0.13
0 -14 7 -0.17 0.24
0 7 -14 0.1 0.2
0 14 7 -0.22 0.24
7 0 14 -0.24 0.17
0 7 14 -0.28 0.19
7 -14 0 -0.16 0.21
0 14 -7 -0.1 0.26
14 7 0 -0.32 0.17
-7 -14 0 -0.35 0.23
-14 -7 0 0 0.2
7 0 14 -0.1 0.12
-14 7 0 -0.31 0.16
-7 0 14 -0.13 0.21
-7 14 0 -0.39 0.25
0 -7 -14 0 0.16
7 14 0 0.04 0.25
-7 0 14 -0.31 0.16
-14 0 7 -0.16 0.18
0 -14 -7 0.01 0.2
7 1 14 -0.05 0.13
14 -7 -1 -0.16 0.13
1 -14 -7 -0.18 0.19
-14 1 7 -0.31 0.17
-1 14 -7 -0.06 0.26
-7 14 1 -0.45 0.24
-1 7 14 -0.02 0.18
7 1 14 -0.21 0.16
7 -14 1 -0.31 0.19
-14 1 7 -0.4 0.14
-7 -1 14 -0.49 0.23
-14 -7 1 0.03 0.2
-1 -7 -14 -0.34 0.15
14 7 1 -0.03 0.17
-1 -14 7 -0.26 0.25
-14 7 -1 -0.13 0.16
-7 -14 -1 -0.34 0.21
7 14 -1 -0.28 0.24
1 7 -14 -0.02 0.22
1 -7 14 -0.02 0.23
1 14 7 -0.12 0.24
-1 -7 14 0.2 0.24
14 -7 1 -0.16 0.13
1 7 14 0.18 0.19
7 14 1 -0.47 0.24
-7 14 -1 0.05 0.24
1 -14 7 -0.13 0.24
1 14 -7 -0.08 0.26
7 -14 -1 -0.14 0.2
-14 -7 -1 -0.02 0.2
-7 1 14 -0.45 0.16
-1 -14 -7 0.05 0.19
-14 -1 7 -0.46 0.18
-14 -1 7 -0.42 0.13
-1 7 -14 -0.36 0.21
-7 -14 1 -0.38 0.23
1 -7 -14 -0.23 0.15
-1 14 7 -0.09 0.24
-7 1 14 -0.24 0.23
-14 7 1 -0.2 0.15
14 7 -1 -0.08 0.17
7 -1 14 -0.27 0.16
7 -1 14 -0.3 0.11
2 7 -14 0.13 0.23
-7 14 2 -0.25 0.24
-14 2 7 -0.2 0.17
-7 -2 14 -0.37 0.23
14 7 2 -0.06 0.16
7 2 14 -0.09 0.15
2 14 7 0.01 0.23
-14 -7 2 0.06 0.19
7 2 14 -0.16 0.12
-2 -14 7 0.09 0.23
-2 14 -7 -0.1 0.25
14 -7 -2 0.01 0.13
2 -14 -7 -0.03 0.19
7 14 -2 -0.23 0.24
-7 -14 -2 -0.25 0.21
2 -7 14 0.11 0.23
-2 -7 -14 -0.14 0.15
-14 7 -2 -0.15 0.16
-14 2 7 -0.11 0.14
-2 7 14 0.23 0.17
7 -14 2 0.02 0.21
14 7 -2 -0.13 0.19
-7 14 -2 0.21 0.24
-7 2 14 -0.29 0.21
2 -14 7 0.2 0.23
2 14 -7 -0.18 0.25
14 -7 2 -0.27 0.13
-14 -2 7 -0.29 0.18
7 2 -14 -0.38 0.22
-7 -14 2 -0.32 0.23
-7 2 14 0.01 0.19
2 -7 -14 -0.07 0.16
-2 -7 14 -0.09 0.24
-14 7 2 -0.06 0.16
-2 7 -14 -0.23 0.22
-2 14 7 -0.25 0.23
7 -2 14 -0.34 0.18
7 14 2 0.05 0.23
7 -14 -2 -0.29 0.19
-14 -7 -2 -0.09 0.17
2 7 14 -0.24 0.17
-2 -14 -7 -0.07 0.18
-14 -7 3 0.1 0.21
3 -14 -7 -0.12 0.18
7 3 14 0.07 0.15
3 14 7 -0.1 0.22
-3 -14 7 -0.29 0.24
-7 -14 -3 -0.24 0.2
7 14 -3 -0.27 0.25
-14 3 7 -0.18 0.13
14 3 -7 -0.02 0.2
-7 14 3 -0.14 0.24
-3 14 -7 -0.17 0.23
-7 3 -14 -0.08 0.16
7 3 14 -0.1 0.13
-3 -7 -14 0.1 0.14
14 -7 -3 -0.07 0.14
-14 3 7 -0.14 0.16
-3 7 14 -0.15 0.17
14 7 3 -0.05 0.15
3 -7 14 -0.05 0.23
3 7 -14 -0.08 0.22
-7 -3 14 -0.18 0.21
-14 7 -3 -0.3 0.16
7 -14 3 -0.08 0.21
7 -14 -3 -0.14 0.18
3 7 14 -0.17 0.17
-14 -7 -3 -0.08 0.15
-3 7 -14 -0.08 0.21
7 14 3 0.13 0.24
-3 -7 14 -0.12 0.23
3 14 -7 0.13 0.26
-14 7 3 -0.09 0.15
-14 -3 7 -0.26 0.18
3 -14 7 0.09 0.23
3 -7 -14 0.03 0.15
-3 14 7 0.14 0.22
7 -3 14 -0.29 0.18
7 3 -14 -0.37 0.21
-7 3 14 -0.06 0.16
14 7 -3 -0.13 0.19
-7 3 14 -0.11 0.2
-3 -14 -7 -0.09 0.18
-7 14 -3 -0.12 0.24
14 -7 3 0.09 0.12
-7 -14 3 -0.23 0.23
14 7 4 0.68 0.16
-4 -14 7 1.14 0.31
-14 -7 4 0.77 0.21
-7 4 -14 0.65 0.18
4 -14 -7 0.67 0.24
-14 4 7 0.55 0.17
-14 4 7 0.66 0.17
-7 -14 -4 0.68 0.21
7 14 -4 0.63 0.26
-7 -4 14 0.52 0.29
-4 14 -7 0.85 0.25
-7 14 4 0.59 0.24
-4 -7 -14 0.96 0.15
7 4 14 0.59 0.16
-4 7 14 0.76 0.2
14 -7 -4 0.85 0.16
4 -7 14 0.23 0.22
4 7 -14 0.63 0.24
14 4 -7 0.9 0.22
14 -4 7 0.64 0.09
-14 7 -4 0.46 0.18
7 4 14 0.75 0.16
7 -14 4 0.86 0.23
4 14 7 0.75 0.25
-7 -14 4 0.31 0.24
14 7 -4 0.86 0.21
-4 7 -14 0.79 0.21
-14 7 4 0.9 0.17
-14 -4 7 0.84 0.22
-4 -14 -7 0.74 0.2
-14 -7 -4 0.75 0.16
-7 4 14 0.45 0.23
-7 4 14 0.59 0.2
4 -7 -14 0.81 0.17
7 -4 14 0.45 0.2
-14 4 -7 0.75 0.12
7 14 4 0.62 0.25
-7 14 -4 0.62 0.24
4 7 14 0.62 0.18
4 -14 7 0.74 0.23
4 14 -7 0.64 0.3
14 -7 4 0.71 0.14
7 -14 -4 0.59 0.2
7 4 -14 0.69 0.24
-4 14 7 0.85 0.25
-4 -7 14 0.62 0.24
-14 -7 5 0.15 0.21
-7 5 -14 -0.29 0.16
-14 5 7 0.06 0.15
-14 -5 -7 0.07 0.07
7 14 -5 -0.26 0.25
-14 7 -5 -0.08 0.16
-5 14 -7 -0.55 0.24
7 -14 5 -0.04 0.21
5 14 7 0.29 0.24
14 7 5 -0.07 0.14
7 5 14 -0.01 0.14
14 -7 -5 0.28 0.14
-7 -14 -5 -0.06 0.19
5 -7 14 -0.11 0.21
-7 14 5 -0.04 0.23
14 -5 7 -0.15 0.09
14 5 -7 -0.02 0.19
-5 -7 -14 -0.12 0.13
-7 -5 14 0.45 0.33
7 14 5 0.11 0.23
-5 -14 -7 0.02 0.19
-14 5 -7 -0.02 0.13
-14 -7 -5 0.13 0.13
14 7 -5 0.11 0.2
7 -14 -5 -0.18 0.2
-7 14 -5 -0.11 0.23
7 -5 14 -0.06 0.19
-14 -5 7 -0.18 0.21
-7 5 14 0.14 0.29
5 -14 7 0.06 0.22
5 7 14 0.02 0.17
-5 7 -14 0.19 0.19
14 -7 5 -0.08 0.12
-14 7 5 -0.1 0.16
7 5 -14 -0.01 0.36
-7 -14 5 -0.1 0.23
-7 5 14 -0.31 0.31
7 -14 6 0.07 0.21
14 7 6 0.08 0.14
-7 14 6 0.06 0.26
-6 -7 -14 0.01 0.13
6 7 -14 -0.06 0.21
6 14 7 -0.26 0.22
-14 6 7 0.01 0.17
-14 -6 -7 -0.02 0.09
14 -6 7 0.03 0.11
-7 -6 14 -0.28 0.22
-7 6 -14 -0.15 0.16
7 6 14 -0.27 0.15
-7 -14 -6 0.05 0.18
-6 -14 7 -0.12 0.24
-6 14 -7 -0.03 0.25
-14 7 -6 -0.13 0.17
6 -14 -7 -0.13 0.17
14 6 -7 -0.12 0.2
-14 -7 6 -0.22 0.21
14 -7 -6 -0.04 0.14
6 -7 14 -0.12 0.2
-6 7 14 -0.32 0.17
6 14 -7 0.07 0.25
-7 6 14 -0.04 0.17
-6 -14 -7 -0.07 0.18
14 -7 6 -0.11 0.12
-14 -6 7 -0.02 0.21
-14 6 -7 -0.01 0.15
14 7 -6 -0.34 0.2
-6 14 7 -0.08 0.22
7 -6 14 -0.09 0.2
7 14 6 -0.06 0.22
-6 7 -14 -0.21 0.19
-6 -7 14 0.09 0.24
-14 -7 -6 -0.04 0.12
14 6 7 -0.21 0.12
14 -6 -7 -0.02 0.14
6 -14 7 -0.11 0.22
-14 7 6 -0.17 0.16
-7 14 -6 -0.16 0.23
6 -7 -14 0.12 0.15
7 -14 -6 0.26 0.18
7 6 -14 0.02 0.21
6 7 14 0.14 0.16
-7 -7 14 -0.18 0.25
7 -14 7 -0.01 0.22
7 14 -7 -0.06 0.24
14 7 7 -0.32 0.14
7 7 14 0.19 0.16
7 -7 14 0.05 0.2
-14 7 -7 0.06 0.16
-14 7 7 -0.49 0.16
-7 -14 -7 -0.09 0.18
-7 -14 7 -0.06 0.24
-7 -7 -14 -0.11 0.12
14 7 -7 -0.01 0.2
-7 7 -14 0.01 0.19
-7 7 14 0.17 0.19
-7 14 -7 0.14 0.25
-7 14 7 -0.12 0.22
7 -14 -7 -0.08 0.17
7 -7 -14 -0.19 0.15
-14 -7 -7 0.04 0.11
-14 -7 7 -0.09 0.21
7 7 -14 -0.14 0.22
14 -7 7 -0.06 0.13
14 -7 -7 -0.01 0.14
7 14 7 0.21 0.23
-8 14 0 0.75 0.28
-8 -14 0 0.66 0.26
0 -14 -8 0.32 0.21
0 -8 14 0.81 0.28
14 -8 0 0.71 0.17
0 8 14 0.83 0.21
0 -14 8 0.3 0.28
-14 0 8 1.15 0.17
0 14 8 0.58 0.26
14 8 0 0.52 0.21
0 8 -14 0.57 0.24
8 14 0 0.35 0.27
0 14 -8 0.56 0.29
0 -8 -14 1 0.2
-8 0 14 1.2 0.2
-14 -8 0 0.67 0.22
-14 8 0 1 0.2
-8 0 14 0.8 0.28
8 -14 0 0.6 0.23
8 0 14 1.29 0.15
8 0 14 1.21 0.19
-14 0 8 0.71 0.22
8 14 -1 8.47 0.87
1 -14 -8 7.45 0.82
1 14 8 8.42 0.86
-1 -14 8 8.3 0.89
-8 -1 14 9.39 0.92
-1 8 14 9.32 0.82
-8 -1 14 8.09 0.8
8 -14 1 9.38 0.83
14 8 1 8.82 0.82
8 1 14 9.92 0.79
8 1 14 9.75 0.75
14 -8 -1 9.12 0.77
-14 8 -1 9.35 0.81
-14 1 8 8.74 0.77
-8 -14 -1 9.42 0.88
-14 -8 1 9.11 0.84
1 8 -14 8.83 0.89
-8 14 1 10.63 0.9
1 -8 14 9.41 0.9
-1 14 -8 7.48 0.9
-1 -8 -14 9.35 0.78
-14 1 8 8.88 0.84
-14 -8 -1 9.02 0.82
-1 8 -14 9.48 0.87
-14 -1 8 9.38 0.77
-8 -14 1 9.31 0.87
-8 1 14 8.45 0.8
-1 -14 -8 9.08 0.82
1 -8 -14 9.18 0.79
-14 -1 8 10.17 0.86
-14 8 1 9.64 0.8
8 -1 14 10.04 0.81
8 -1 14 9.86 0.74
8 14 1 7.92 0.9
-1 -8 14 8.06 0.9
1 -14 8 8.38 0.88
-8 14 -1 10.06 0.9
1 8 14 9.37 0.81
14 -8 1 9.18 0.77
14 8 -1 8.08 0.82
-1 14 8 7.23 0.87
8 -14 -1 9.33 0.85
1 14 -8 6.39 0.91
-8 1 14 8.57 0.95
8 14 -2 6.72 0.8
14 8 2 8.48 0.72
-14 2 8 7.93 0.68
8 -14 2 7.86 0.73
-8 14 2 6.92 0.77
-2 -8 -14 8.28 0.7
8 2 14 7.61 0.65
2 -14 -8 7.62 0.73
-2 8 14 7.3 0.73
-2 14 -8 6.87 0.82
2 14 8 6.42 0.76
2 8 -14 6.5 0.79
14 -8 -2 7.97 0.68
-14 -8 2 8.27 0.77
2 -8 14 7.61 0.81
-8 -2 14 7.21 1.06
-14 2 8 7.8 0.74
-14 8 -2 7.62 0.7
-8 -14 -2 6.88 0.77
-2 -14 8 6.73 0.96
8 2 14 7.67 0.69
-14 -8 -2 8.23 0.72
2 14 -8 6.17 0.93
-2 -14 -8 7.22 0.72
-8 2 14 7.33 1.09
8 -14 -2 7.67 0.74
-14 8 2 7 0.7
-14 -2 8 8.73 0.77
8 14 2 7.46 0.81
-8 -14 2 6.26 0.77
14 -8 2 7.51 0.66
-2 8 -14 7.48 0.76
2 -14 8 6.8 0.79
2 -8 -14 8.08 0.69
-8 2 14 7.93 0.82
8 -2 14 7.65 0.72
2 8 14 8.32 0.72
-8 14 -2 7.67 0.81
14 8 -2 7.52 0.75
-2 -8 14 7.13 0.8
-2 14 8 7.21 0.79
3 14 8 0.79 0.26
-3 -8 -14 0.9 0.17
8 3 14 0.91 0.15
-14 3 8 0.5 0.17
14 3 -8 1.37 0.24
-14 8 -3 0.82 0.2
8 14 -3 0.62 0.27
-14 3 8 0.49 0.19
14 8 3 0.72 0.2
8 -14 3 0.89 0.23
-8 3 -14 1.07 0.17
3 -8 14 0.62 0.24
3 8 -14 0.85 0.26
-3 -14 8 0.32 0.5
-3 14 -8 0.52 0.28
-8 -3 14 0.4 0.44
8 3 14 1.03 0.17
-8 14 3 1.08 0.26
14 -8 -3 0.7 0.17
-8 -14 -3 0.96 0.23
-14 -8 3 0.53 0.23
-3 8 14 0.51 0.21
-14 8 3 0.72 0.19
14 -8 3 0.89 0.16
3 8 14 0.91 0.21
-14 -3 8 0.96 0.23
3 -8 -14 0.78 0.18
-14 -8 -3 0.72 0.19
-3 -8 14 0.95 0.31
-8 3 14 0.27 0.34
-3 -14 -8 0.72 0.21
8 -3 14 1 0.2
-3 8 -14 0.75 0.23
14 8 -3 0.74 0.21
8 14 3 0.65 0.25
3 -14 8 0.67 0.25
-8 14 -3 0.78 0.26
8 -14 -3 0.84 0.2
-8 -14 3 0.58 0.26
-14 -8 4 -0.13 0.21
14 8 4 -0.29 0.16
4 14 8 -0.59 0.22
8 4 14 -0.1 0.14
14 -8 -4 -0.18 0.14
-4 -14 8 -0.06 0.24
14 -4 8 -0.09 0.07
-14 4 8 -0.41 0.17
-8 14 4 -0.25 0.23
-4 -8 -14 -0.07 0.15
8 14 -4 -0.42 0.27
4 -8 14 -0.01 0.23
-14 8 -4 -0.32 0.17
4 -14 -8 -0.28 0.18
8 4 14 0.02 0.14
-8 -14 -4 -0.12 0.2
-14 4 8 -0.4 0.15
14 4 -8 0.09 0.21
8 -14 4 -0.28 0.21
-8 -4 14 -0.6 0.25
-8 4 -14 -0.08 0.16
-4 14 -8 -0.24 0.26
-14 -8 -4 -0.18 0.16
8 -4 14 -0.25 0.19
-8 -14 4 -0.42 0.23
14 -8 4 -0.41 0.13
-14 -4 8 0.08 0.22
-4 14 8 -0.44 0.24
8 -14 -4 -0.34 0.18
4 14 -8 -0.35 0.27
8 4 -14 -0.13 0.23
8 14 4 -0.42 0.24
14 8 -4 0 0.21
-8 4 14 -0.14 0.21
-8 4 14 -0.43 0.18
-4 -8 14 -0.7 0.32
-14 8 4 -0.04 0.17
-14 4 -8 -0.32 0.1
-4 8 -14 -0.19 0.21
4 8 14 -0.41 0.17
-8 14 -4 -0.34 0.24
-4 -14 -8 0.02 0.19
4 -14 8 -0.22 0.23
-8 -14 -5 0.18 0.2
-5 -8 -14 0.35 0.15
8 5 14 0.35 0.16
14 -8 -5 0.2 0.15
8 14 -5 0.73 0.27
8 5 14 0.23 0.15
5 14 8 0.45 0.24
-8 -5 14 0.26 0.23
14 -5 8 0.25 0.1
14 5 -8 0.49 0.21
-5 -14 8 0.61 0.24
-5 14 -8 0.35 0.25
-8 5 -14 0.41 0.17
8 -14 5 0.18 0.21
-5 8 14 0.37 0.2
-14 -8 5 0.51 0.22
-14 5 8 0.42 0.17
5 -14 -8 0.13 0.19
5 8 -14 0.06 0.24
14 8 5 0.29 0.17
5 -8 14 0.18 0.22
-14 8 -5 0.16 0.18
14 -8 5 0.45 0.14
-5 -14 -8 0.37 0.18
8 5 -14 0.22 0.21
-14 5 -8 0.59 0.13
8 -5 14 0.43 0.2
-8 14 -5 0.28 0.24
-8 5 14 0.55 0.18
5 14 -8 0.53 0.26
-14 8 5 0.25 0.17
-5 14 8 0.25 0.24
-8 5 14 0.75 0.22
5 -14 8 0.26 0.22
-5 -8 14 0.33 0.26
5 8 14 0.36 0.18
-14 -5 8 0.42 0.22
-5 8 -14 0.46 0.21
8 -14 -5 0.17 0.31
5 -8 -14 0.49 0.17
-14 -8 -5 0.26 0.15
14 8 -5 0.38 0.22
-8 -14 5 0.56 0.27
8 14 5 0.07 0.24
-6 -14 8 0.65 0.24
6 8 -14 0.52 0.24
14 -8 -6 0.5 0.16
-8 -14 -6 0.3 0.19
8 -14 6 0.27 0.21
-14 -8 6 0.16 0.22
-14 8 -6 0.41 0.19
14 8 6 0.7 0.17
-6 -8 -14 0.48 0.15
6 -8 14 0.26 0.21
6 14 8 0.97 0.25
-14 6 8 0.55 0.18
-14 -6 -8 0.51 0.09
14 6 -8 0.2 0.21
6 -14 -8 0.48 0.18
8 14 -6 0.35 0.27
-8 -6 14 0.49 0.26
-6 8 14 0.34 0.19
-8 14 6 0.4 0.24
-6 14 -8 0.1 0.24
-8 6 -14 0.21 0.18
8 6 14 0.43 0.16
14 -6 8 0.37 0.12
-14 -6 8 0.04 0.22
-6 8 -14 0.28 0.2
-14 8 6 0.41 0.18
-8 14 -6 0.28 0.25
14 -8 6 0.36 0.14
6 -8 -14 0.52 0.17
6 -14 8 0.4 0.23
-8 -14 6 0.36 0.25
14 8 -6 0.41 0.22
-6 -8 14 0.35 0.24
-8 6 14 0.37 0.18
-6 14 8 0.16 0.23
6 8 14 0.41 0.18
-14 6 -8 0.39 0.16
8 -6 14 0.45 0.2
8 -14 -6 0.41 0.18
8 14 6 0.6 0.25
6 14 -8 0.55 0.26
14 6 8 0.42 0.13
-6 -14 -8 0.36 0.18
-14 -8 -6 0.45 0.14
8 6 -14 0.5 0.22
8 -7 -14 0.09 0.16
-8 7 -14 0.18 0.19
7 14 8 -0.19 0.23
8 -14 7 0.24 0.22
-8 -14 -7 0.09 0.19
-7 8 14 -0.16 0.19
-14 -7 -8 0.06 0.11
-14 8 -7 0.17 0.19
7 -14 -8 0.32 0.17
7 -8 14 0.14 0.22
-14 -8 7 -0.21 0.23
-8 -7 14 0.07 0.24
-7 14 -8 0.28 0.24
-14 7 8 0.22 0.18
14 8 7 0.13 0.16
8 7 14 0.18 0.17
-7 -14 8 0.07 0.26
-8 14 7 -0.06 0.22
-7 -8 -14 -0.18 0.14
7 8 -14 -0.25 0.25
14 -8 -7 -0.04 0.15
8 14 -7 0.38 0.25
14 7 -8 -0.2 0.21
14 -7 8 0.09 0.14
-8 14 -7 0.03 0.25
14 -7 -8 -0.01 0.15
-7 -8 14 0.25 0.26
-8 7 14 0.03 0.19
-8 -7 -14 -0.14 0.12
-14 -8 -7 -0.05 0.13
8 14 7 0.02 0.23
8 7 -14 -0.15 0.23
7 -14 8 -0.26 0.23
7 14 -8 0.13 0.26
14 7 8 -0.05 0.14
-7 8 -14 0.15 0.2
-14 -7 8 -0.33 0.23
7 -8 -14 0.09 0.17
-14 7 -8 -0.11 0.17
14 8 -7 0.17 0.22
8 -7 14 -0.03 0.21
14 -8 7 0.2 0.14
-7 14 8 0.2 0.22
-14 8 7 0.14 0.19
7 8 14 0.08 0.18
8 -14 -7 -0.02 0.18
-7 -14 -8 -0.08 0.18
-8 -14 7 -0.07 0.24
14 8 8 0.66 0.18
14 8 -8 1.05 0.24
-8 -14 -8 0.51 0.21
8 -8 -14 0.8 0.19
8 -8 14 0.71 0.23
8 8 -14 0.74 0.25
8 8 14 0.56 0.19
8 14 -8 0.88 0.3
8 14 8 0.5 0.25
8 -14 -8 0.69 0.19
8 -14 8 0.59 0.25
-8 -8 14 0.51 0.27
-8 8 -14 0.63 0.22
-8 8 14 0.78 0.22
-8 14 -8 0.93 0.26
-8 14 8 0.8 0.23
-14 8 8 0.71 0.2
-14 -8 8 0.79 0.25
14 -8 -8 0.9 0.18
14 -8 8 0.66 0.16
-14 8 -8 0.8 0.21
-8 -14 8 1.08 0.29
-8 -8 -14 0.79 0.16
-14 -8 -8 0.9 0.14
-9 0 14 -0.24 0.22
0 9 -14 -0.1 0.25
-14 0 9 0.13 0.21
-9 14 0 -0.22 0.27
9 0 14 -0.16 0.17
-14 0 9 0.04 0.16
-9 -14 0 0.19 0.25
9 14 0 -0.18 0.25
9 0 14 0.05 0.13
-9 0 14 -0.04 0.28
14 9 0 0.14 0.22
0 -14 -9 0.15 0.21
-14 9 0 0.05 0.21
0 -9 -14 -0.06 0.18
0 -9 14 0.21 0.26
14 -9 0 0.12 0.17
-14 -9 0 -0.16 0.22
9 -14 0 -0.28 0.22
0 14 9 0.24 0.27
0 9 14 0.37 0.22
-14 1 9 -0.25 0.17
-1 9 14 0.26 0.21
-14 1 9 0.13 0.21
-9 -1 14 -0.23 0.23
9 -14 1 0.08 0.22
-14 -9 1 0.02 0.22
14 -9 -1 -0.04 0.16
14 9 1 0.02 0.21
-9 -1 14 0.1 0.2
1 9 -14 -0.12 0.23
9 1 14 0.09 0.17
9 1 14 -0.11 0.13
-14 9 -1 -0.16 0.21
1 -9 14 0.13 0.26
9 14 -1 0.01 0.27
-1 -9 -14 -0.06 0.18
-1 -14 9 -0.37 0.3
-1 14 -9 -0.14 0.32
1 14 9 -0.21 0.25
-9 14 1 0.04 0.26
-9 -14 -1 -0.29 0.24
-1 9 -14 -0.02 0.25
9 -1 14 -0.23 0.19
14 -9 1 0.01 0.16
1 9 14 0.22 0.22
-9 -14 1 0.08 0.25
-9 14 -1 0.17 0.26
14 9 -1 -0.19 0.21
-9 1 14 -0.23 0.2
-1 -14 -9 0.33 0.2
-14 -9 -1 0.08 0.22
-1 -9 14 0.49 0.26
-14 -1 9 -0.18 0.16
9 -1 14 0.06 0.12
-14 9 1 -0.14 0.2
-14 -1 9 -0.12 0.24
1 -14 9 -0.16 0.28
1 14 -9 0.16 0.44
1 -9 -14 -0.09 0.19
-9 1 14 -0.09 0.24
9 -14 -1 -0.52 0.21
9 14 1 0.38 0.27
-2 -14 9 1.21 0.29
9 14 -2 1.06 0.28
-2 -9 -14 1.01 0.18
14 9 2 0.59 0.22
-14 -9 2 0.7 0.24
-2 9 14 0.74 0.23
-9 -2 14 0.54 0.27
9 2 14 0.9 0.18
9 2 14 1.06 0.15
-14 2 9 0.82 0.22
2 -9 14 0.92 0.28
-9 -14 -2 0.8 0.25
2 9 -14 0.96 0.39
-14 2 9 0.52 0.18
9 -14 2 0.54 0.22
-9 14 2 0.42 0.26
2 14 9 0.68 0.25
2 -14 -9 0.6 0.22
-14 9 -2 0.25 0.21
-2 14 -9 1.01 0.29
14 -9 -2 1 0.18
9 -14 -2 0.86 0.22
-9 2 14 0.44 0.21
14 -9 2 0.57 0.18
14 9 -2 1.17 0.23
2 14 -9 1.04 0.3
-2 9 -14 1.24 0.26
-2 14 9 0.33 0.28
9 -2 14 0.55 0.2
-9 2 14 0.66 0.24
-14 9 2 0.59 0.21
-14 -9 -2 0.37 0.21
2 9 14 1.27 0.22
9 14 2 0.85 0.27
-14 -2 9 0.85 0.25
-2 -14 -9 1 0.21
2 -9 -14 0.99 0.22
2 -14 9 0.55 0.26
-9 -14 2 0.67 0.27
-9 14 -2 0.71 0.27
-14 -9 3 -0.23 0.23
-9 -3 14 -0.14 0.23
14 -9 -3 -0.12 0.16
9 3 14 -0.37 0.15
9 3 14 -0.34 0.14
9 14 -3 -0.58 0.27
3 14 9 -0.7 0.23
-9 -14 -3 -0.34 0.21
14 9 3 -0.42 0.19
-14 3 9 -0.17 0.18
-3 9 14 -0.36 0.28
-3 -14 9 -0.09 0.25
-3 14 -9 -0.2 0.25
3 9 -14 -0.17 0.24
3 -14 -9 -0.09 0.19
-9 14 3 -0.29 0.24
9 -14 3 -0.66 0.2
-9 3 -14 -0.09 0.15
-14 3 9 -0.23 0.17
3 -9 14 -0.43 0.24
-14 9 -3 -0.26 0.19
-3 -9 -14 -0.31 0.16
-3 -14 -9 -0.08 0.18
14 9 -3 -0.54 0.22
-14 -9 -3 -0.08 0.19
-9 3 14 -0.21 0.18
9 -3 14 -0.18 0.19
-3 -9 14 -0.47 0.26
-9 -14 3 -0.4 0.25
-9 14 -3 -0.26 0.26
3 -14 9 -0.62 0.24
14 -9 3 -0.35 0.15
9 14 3 -0.26 0.25
-3 14 9 0.11 0.25
3 9 14 -0.44 0.19
9 3 -14 0.12 0.23
3 14 -9 -0.11 0.27
-3 9 -14 -0.27 0.23
-14 9 3 -0.18 0.19
3 -9 -14 -0.21 0.2
-14 -3 9 -0.01 0.23
-9 3 14 -0.22 0.22
9 -14 -3 -0.33 0.19
-4 -14 9 0.35 0.25
-9 4 -14 0.32 0.16
-14 4 9 0.26 0.17
14 -9 -4 0.36 0.16
-14 9 -4 0.33 0.2
14 9 4 0.39 0.19
4 14 9 0.58 0.25
-14 -9 4 0.6 0.23
9 14 -4 0.46 0.27
-9 14 4 0.88 0.36
-4 -9 -14 0.32 0.16
14 -4 9 0.51 0.09
14 4 -9 -0.03 0.21
-4 14 -9 0.23 0.27
-9 -14 -4 0.45 0.22
9 4 14 0.58 0.15
9 4 14 0.51 0.15
9 -14 4 0.35 0.22
4 -9 14 0.19 0.23
-9 -4 14 0.61 0.27
4 -14 -9 0.49 0.19
-4 9 14 0.69 0.22
4 9 -14 0.34 0.24
-14 4 9 0.56 0.2
9 -4 14 0.41 0.2
14 -9 4 0.57 0.16
-4 -14 -9 0.58 0.2
-4 -9 14 0.36 0.26
4 -9 -14 0.51 0.19
-9 4 14 0.51 0.19
4 9 14 0.48 0.2
-4 9 -14 0.49 0.24
9 4 -14 0.34 0.22
-9 -14 4 0.23 0.25
-9 14 -4 0.1 0.25
-4 14 9 0.56 0.24
9 14 4 0.16 0.24
-14 9 4 0.62 0.2
-14 -4 9 0.74 0.23
-14 4 -9 0.41 0.1
4 14 -9 -0.03 0.27
14 9 -4 0.3 0.22
-14 -9 -4 0.37 0.18
4 -14 9 0.38 0.24
-9 4 14 0.46 0.24
-5 -14 9 0.04 0.26
9 5 14 0.03 0.14
5 9 -14 -0.25 0.23
9 -14 5 -0.02 0.22
-14 9 -5 0.39 0.2
9 5 14 -0.07 0.15
-9 -5 14 -0.04 0.23
14 -9 -5 0.06 0.15
5 -14 -9 0.06 0.17
5 14 9 -0.41 0.23
-5 14 -9 -0.2 0.26
-14 -9 5 -0.27 0.21
-9 5 -14 -0.01 0.16
14 9 5 -0.39 0.19
14 -5 9 0.07 0.1
-5 9 14 -0.06 0.19
-9 -14 -5 -0.01 0.2
-14 5 9 0.04 0.18
-9 14 5 -0.27 0.23
-5 -9 -14 -0.09 0.15
-14 5 9 0 0.19
5 -9 14 -0.32 0.23
14 5 -9 0.27 0.21
-9 5 14 0.12 0.18
9 -5 14 -0.11 0.18
14 9 -5 0.24 0.22
9 -14 -5 -0.17 0.17
5 14 -9 0.08 0.25
-5 -9 14 -0.04 0.24
-5 9 -14 0.1 0.22
-5 -14 -9 -0.21 0.19
9 5 -14 -0.2 0.21
9 14 5 0.13 0.24
14 -9 5 0.01 0.15
-5 14 9 0.09 0.22
-9 14 -5 0.2 0.24
-9 5 14 0.25 0.22
-14 9 5 -0.07 0.19
-14 -5 9 0.02 0.23
-14 5 -9 -0.14 0.12
5 -9 -14 -0.07 0.16
5 -14 9 -0.18 0.23
-14 -9 -5 0.24 0.16
5 9 14 -0.11 0.19
-6 -9 -14 -0.21 0.14
6 -14 -9 -0.12 0.16
-9 -6 14 -0.14 0.25
-9 6 -14 -0.15 0.16
6 14 9 0.11 0.24
-14 -6 -9 -0.11 0.08
-6 14 -9 0.25 0.26
6 -9 14 0.12 0.23
14 9 6 0.08 0.18
-14 6 9 -0.02 0.17
-9 -14 -6 -0.17 0.18
9 -14 6 -0.03 0.21
9 14 -6 -0.08 0.25
-14 -9 6 -0.13 0.23
14 -6 9 -0.06 0.12
-14 9 -6 -0.05 0.19
14 6 -9 0.1 0.22
6 9 -14 -0.1 0.21
-6 9 14 -0.05 0.2
-9 14 6 0.1 0.22
-6 -14 9 -0.15 0.25
14 -9 -6 -0.04 0.16
9 6 14 -0.02 0.16
-14 9 6 -0.22 0.18
14 -9 6 -0.18 0.15
9 14 6 -0.29 0.23
6 -14 9 0.02 0.23
9 -14 -6 -0.28 0.18
9 6 -14 -0.17 0.23
6 9 14 0.19 0.19
6 -9 -14 0.17 0.16
14 6 9 -0.17 0.12
-14 6 -9 0.33 0.15
-6 -9 14 0.04 0.25
9 -6 14 -0.01 0.2
6 14 -9 0.42 0.27
-6 14 9 0.16 0.22
-14 -9 -6 -0.14 0.14
14 9 -6 -0.24 0.23
-6 -14 -9 0 0.18
-9 -14 6 -0.13 0.23
-14 -6 9 0.14 0.23
-6 9 -14 -0.27 0.21
-9 6 14 -0.08 0.18
-9 14 -6 0.14 0.25
-14 7 9 0.37 0.33
7 14 9 0.19 0.25
-7 -14 9 -0.16 0.26
-7 9 14 0.22 0.2
-9 -7 14 0.18 0.27
7 -9 14 0.11 0.22
-9 -14 -7 -0.06 0.19
14 9 7 0.31 0.18
-7 -9 -14 0.23 0.15
9 -14 7 0.27 0.23
9 14 -7 0.28 0.27
14 -9 -7 0.18 0.17
14 -7 9 0.04 0.14
14 7 -9 -0.03 0.24
-9 14 7 -0.15 0.24
-14 -9 7 -0.08 0.24
-14 9 -7 0.3 0.2
-9 7 -14 0.31 0.19
7 -14 -9 0.17 0.18
9 7 14 0.29 0.18
-14 -7 -9 0.13 0.1
-7 14 -9 0.18 0.26
7 9 -14 -0.03 0.23
7 -9 -14 0.12 0.17
14 9 -7 0.13 0.23
9 14 7 -0.01 0.25
9 7 -14 0.3 0.26
14 -9 7 0.24 0.16
-14 9 7 0.11 0.19
-9 -7 -14 0.19 0.13
7 -14 9 0.55 0.23
7 14 -9 0.26 0.26
-14 -7 9 0.29 0.24
-7 -9 14 -0.1 0.25
-14 -9 -7 0.16 0.15
9 -14 -7 0.21 0.18
-14 7 -9 0.31 0.17
9 -7 14 0.53 0.21
-9 -14 7 0.03 0.24
-9 14 -7 0.58 0.26
14 7 9 0.03 0.15
-7 14 9 0.21 0.22
7 9 14 0.23 0.19
-9 7 14 0.12 0.19
-7 -14 -9 0.13 0.18
-7 9 -14 0.18 0.21
-8 -9 -14 0.32 0.16
-9 -8 14 0.45 0.26
-14 8 9 0.51 0.21
9 14 -8 0.66 0.27
9 -8 -14 0.36 0.19
-8 9 14 0.42 0.22
8 9 -14 0.08 0.26
-8 14 -9 -0.24 0.27
-9 14 8 0.55 0.24
-14 -9 8 0.18 0.43
-14 9 -8 0.54 0.21
14 9 8 0.21 0.19
14 -9 -8 0.05 0.18
14 -8 9 0.26 0.17
-9 8 -14 0.48 0.21
8 -14 -9 0.23 0.19
8 -9 14 0.64 0.24
14 8 -9 0.19 0.3
8 14 9 0.76 0.26
9 -14 8 0.47 0.24
-8 -14 9 0.32 0.28
-9 -14 -8 0.36 0.21
9 8 14 0.19 0.19
-14 -8 -9 0.37 0.13
-9 -8 -14 0.55 0.15
-9 -14 8 0.47 0.27
-9 14 -8 0.27 0.27
-14 -9 -8 0.55 0.15
-8 14 9 -0.03 0.22
8 9 14 0.19 0.2
8 -14 9 0.46 0.25
9 -14 -8 0.21 0.18
-14 9 8 0.03 0.25
9 8 -14 0 0.24
-8 9 -14 0.87 0.23
-14 -8 9 0.43 0.32
-14 8 -9 0.61 0.2
8 -9 -14 0.28 0.17
14 -9 8 0.55 0.17
14 9 -8 -0.32 0.43
8 14 -9 0.45 0.27
14 -8 -9 0.3 0.17
-9 8 14 0.48 0.22
-8 -14 -9 0.46 0.19
14 8 9 0.02 0.18
9 14 8 0.41 0.25
9 -8 14 0.35 0.22
-8 -9 14 0.43 0.28
9 14 9 4.95 0.67
14 -9 9 3.97 0.54
9 9 14 4.33 0.59
-9 -9 -14 5.14 0.52
9 -9 -14 5.07 0.55
9 -9 14 3.89 0.62
-9 -14 -9 4.76 0.58
-14 9 -9 5.34 0.61
-14 -9 -9 5.44 0.5
9 -14 -9 5.36 0.58
14 -9 -9 5.86 0.54
-9 14 -9 4.65 0.71
-9 -9 14 4.92 0.71
-9 9 -14 4.77 0.65
-9 9 14 5.68 0.62
-9 14 9 4.34 0.64
14 9 9 4.42 0.56
-14 9 9 4.61 0.6
-10 14 0 22.16 1.8
10 -14 0 22.94 1.76
0 10 -14 25.36 1.91
10 0 14 22.68 1.73
10 14 0 23.19 1.81
-14 0 10 23.64 1.79
0 -14 10 20.28 1.8
0 14 -10 18.92 1.81
0 14 10 17.64 1.8
0 -10 -14 22.59 1.73
10 0 14 21.78 1.7
14 -10 0 23.02 1.73
14 10 0 24.15 1.78
-14 0 10 23.43 1.73
-10 -14 0 22.96 1.79
-10 0 14 22.38 1.73
0 -14 -10 18.27 1.77
-14 10 0 22.87 1.76
0 10 14 21.56 1.77
-14 -10 0 21.31 1.77
-14 -10 1 2.53 0.34
10 1 14 4.23 0.45
-1 14 -10 1.23 0.39
10 14 -1 2.03 0.36
-1 -14 10 4.92 0.62
-10 14 1 2.42 0.35
-1 -10 -14 3.68 0.47
10 -14 1 4.75 0.54
-10 -14 -1 2.85 0.36
-10 -1 14 3.17 0.36
-10 -1 14 4.01 0.47
1 10 -14 2.05 0.42
14 -10 -1 3.78 0.46
-14 1 10 5.15 0.6
10 1 14 3.51 0.37
14 10 1 2.75 0.33
1 -14 -10 2.26 0.31
-14 10 -1 2.72 0.32
1 -10 14 1.67 0.35
1 -14 10 2.01 0.36
-14 -1 10 2.93 0.35
-10 14 -1 3 0.36
-10 1 14 2.76 0.35
-10 -14 1 2.01 0.35
1 10 14 2.41 0.32
-14 10 1 2.48 0.32
-14 -10 -1 4.5 0.56
10 -1 14 3.53 0.35
-10 1 14 4.32 0.48
-1 -10 14 1.85 0.37
10 14 1 2.79 0.35
14 -10 1 4.01 0.47
1 14 -10 1.98 0.37
10 -1 14 2.36 0.29
-14 -1 10 4.2 0.43
10 -14 -1 3.96 0.53
14 10 -1 2.1 0.33
-1 10 -14 2.02 0.35
-1 14 10 1.77 0.34
-10 -14 -2 0.26 0.25
-14 2 10 0.98 0.2
10 14 -2 0.63 0.3
2 14 10 0.87 0.28
-14 2 10 0.97 0.26
2 -10 14 0.62 0.27
10 2 14 0.95 0.18
-14 -10 2 0.89 0.26
2 -14 -10 0.95 0.22
10 2 14 0.79 0.16
-2 10 14 0.9 0.26
10 -14 2 0.4 0.24
2 10 -14 0.81 0.28
14 10 2 0.49 0.24
-14 10 -2 1.03 0.24
-2 -10 -14 0.95 0.19
-2 -14 10 0.82 0.3
-10 14 2 0.6 0.28
-10 -2 14 0.49 0.27
14 -10 -2 0.91 0.2
2 10 14 0.41 0.23
-10 2 14 1.03 0.28
14 -10 2 0.58 0.19
-2 -14 -10 0.43 0.22
-14 -2 10 1.24 0.27
-2 14 10 0.42 0.27
2 -14 10 0.35 0.38
10 -2 14 0.68 0.21
-10 14 -2 0.96 0.28
-10 2 14 1.04 0.23
-14 -10 -2 0.44 0.23
10 -2 14 1.09 0.14
14 10 -2 0.87 0.24
-10 -14 2 0.96 0.27
2 14 -10 0.16 0.3
10 14 2 0.32 0.29
10 -14 -2 0.76 0.24
-14 10 2 0.78 0.24
-2 -10 14 0.28 0.28
-2 10 -14 0.65 0.27
2 -10 -14 0.71 0.21
10 14 -3 1.19 0.3
14 10 3 0.69 0.24
-10 -3 14 1.43 0.29
-14 3 10 1.26 0.24
3 10 -14 1.06 0.29
3 14 10 1.35 0.28
10 3 14 1.28 0.17
-14 10 -3 1.22 0.24
-3 -14 10 1.1 0.31
-3 14 -10 0.84 0.5
-3 10 14 1.28 0.26
3 -14 -10 1.22 0.21
10 -14 3 0.95 0.24
-10 -14 -3 1.38 0.26
10 3 14 1.11 0.19
14 -10 -3 1.18 0.2
-14 3 10 1.65 0.22
3 -10 14 1.19 0.29
-10 14 3 0.9 0.27
-3 -10 -14 0.76 0.2
-14 -10 3 0.94 0.26
10 -3 14 0.9 0.22
-3 10 -14 1.05 0.27
-14 -10 -3 1.2 0.23
-14 -3 10 1.12 0.27
3 -10 -14 1.5 0.22
-10 3 14 1.34 0.21
-10 -14 3 0.9 0.28
-3 14 10 1.23 0.28
-10 3 14 0.94 0.25
3 14 -10 1.28 0.3
10 -14 -3 1.33 0.27
10 3 -14 1.38 0.27
-3 -14 -10 1.15 0.23
14 -10 3 1.08 0.2
-14 10 3 1.29 0.23
-10 14 -3 0.7 0.28
10 14 3 0.89 0.28
3 10 14 1.34 0.25
-3 -10 14 0.94 0.28
14 10 -3 1.19 0.26
-14 4 10 5.75 0.6
-14 4 10 6.04 0.65
-10 -14 -4 5.5 0.66
4 -10 14 5.44 0.68
10 14 -4 5.41 0.78
-14 -10 4 5.65 0.71
-14 10 -4 5.86 0.66
4 14 10 6.83 0.67
-10 4 -14 6.06 0.58
-4 -10 -14 6.25 0.58
14 10 4 5.72 0.64
14 -10 -4 6.23 0.57
14 4 -10 5.52 0.68
-10 -4 14 7.03 0.74
-4 -14 10 4.7 0.73
-4 10 14 5.68 0.63
10 4 14 5.76 0.57
14 -4 10 5.38 0.49
4 10 -14 5.77 0.7
-4 14 -10 4.49 0.73
10 -14 4 5.68 0.65
10 4 14 5.73 0.55
-14 4 -10 5.95 0.5
-4 14 10 6 0.66
4 10 14 5.91 0.62
-14 -10 -4 5.89 0.61
10 -14 -4 5.15 0.64
-10 4 14 6.01 0.61
-10 -14 4 5.61 0.73
-4 -10 14 5.44 0.77
10 -4 14 5.68 0.61
-10 14 -4 5.31 0.72
10 14 4 5.32 0.69
-4 -14 -10 6.23 0.63
-10 4 14 6.15 0.67
4 14 -10 5.86 0.74
14 10 -4 5.63 0.7
4 -14 10 5.54 0.76
4 -10 -14 6.19 0.6
10 4 -14 6.25 0.67
-14 -4 10 5.63 0.71
14 -10 4 5.68 0.58
-4 10 -14 5.52 0.72
-14 10 4 5.86 0.63
-14 -10 5 0.31 0.24
14 10 5 0.14 0.2
-14 10 -5 0.1 0.21
-10 -5 14 0.03 0.23
-10 -14 -5 0.37 0.21
10 5 14 0.38 0.16
5 -10 14 0.11 0.24
5 10 -14 0.12 0.25
5 -14 -10 0.24 0.18
14 -5 10 0.18 0.12
10 5 14 0.22 0.14
14 5 -10 0.06 0.26
-5 -10 -14 0.15 0.16
-5 14 -10 0.21 0.27
-5 -14 10 0.17 0.26
5 14 10 0.56 0.25
10 -14 5 0.28 0.22
-14 5 10 0.35 0.32
14 -10 -5 0.18 0.16
-5 10 14 0.1 0.2
-10 14 5 0.38 0.24
-10 5 -14 0.55 0.17
10 14 -5 0.15 0.27
-14 10 5 0.01 0.2
-10 -14 5 0.05 0.25
-5 14 10 0.25 0.23
-5 -10 14 -0.1 0.26
5 14 -10 0.15 0.29
-10 5 14 0.53 0.19
5 10 14 0.34 0.21
5 -14 10 0.12 0.25
5 -10 -14 0.33 0.17
10 14 5 -0.2 0.23
14 10 -5 0.49 0.23
14 -10 5 0.21 0.16
-10 5 14 0.39 0.21
-14 -10 -5 0.26 0.17
-5 -14 -10 0.28 0.18
-14 -5 10 0.27 0.27
-14 5 -10 0.25 0.12
-10 14 -5 0.47 0.26
-5 10 -14 0.46 0.23
14 5 10 0.21 0.08
10 5 -14 0.38 0.23
10 -5 14 0.22 0.2
10 -14 -5 0.31 0.19
-10 -6 14 0.14 0.26
-14 -10 6 -0.02 0.23
-14 -6 -10 0.16 0.08
6 10 -14 0.2 0.25
-6 -10 -14 0.25 0.15
14 6 -10 0.12 0.28
-10 -14 -6 0.21 0.19
14 -6 10 0.3 0.14
14 10 6 0.24 0.2
-6 14 -10 -0.01 0.26
10 6 14 0.04 0.16
-6 10 14 0.19 0.21
6 -14 -10 0.07 0.18
6 14 10 0.25 0.24
-14 6 10 0.3 0.19
-10 6 -14 0.22 0.18
14 -10 -6 0.1 0.16
10 -14 6 0.05 0.22
-14 10 -6 -0.05 0.21
-10 14 6 0.07 0.23
6 -10 14 0.15 0.23
10 14 -6 0.12 0.26
-6 -14 10 -0.11 0.26
6 -14 10 -0.05 0.23
6 14 -10 0.25 0.25
14 6 10 0.14 0.13
-10 6 14 -0.02 0.19
14 10 -6 -0.03 0.23
-6 14 10 0.34 0.23
-14 -6 10 -0.2 0.3
10 14 6 0.11 0.25
10 -6 14 0.37 0.2
10 6 -14 0.12 0.24
-14 6 -10 0.23 0.14
6 10 14 0.12 0.2
-6 -10 14 0.37 0.29
-6 10 -14 -0.03 0.22
14 -10 6 0.01 0.17
6 -10 -14 0.07 0.17
-14 -10 -6 0.18 0.16
-10 -14 6 -0.1 0.25
10 -14 -6 0.22 0.18
-10 6 14 -0.01 0.23
-6 -14 -10 0.18 0.18
-14 10 6 0.31 0.21
-10 14 -6 0.09 0.25
7 -10 14 0.67 0.25
-14 -7 -10 0.55 0.11
7 -14 -10 0.59 0.19
-7 10 14 0.57 0.22
-7 -14 10 0.19 0.28
10 7 14 0.46 0.19
-14 -10 7 0.67 0.27
7 10 -14 0.68 0.26
14 -7 10 0.37 0.17
10 14 -7 0.74 0.29
-10 14 7 0.46 0.24
14 7 -10 0.31 0.25
-14 7 10 0.39 0.21
14 -10 -7 0.5 0.21
-7 -10 -14 0.58 0.17
14 10 7 0.37 0.2
-14 10 -7 0.6 0.22
-10 7 -14 0.56 0.2
-10 -7 14 0.68 0.29
7 14 10 0.6 0.26
-7 14 -10 0.59 0.27
-10 -14 -7 0.42 0.21
10 -14 7 0.49 0.24
7 14 -10 0.34 0.28
-10 -14 7 0.57 0.28
-14 -10 -7 0.54 0.17
-10 14 -7 0.55 0.26
-7 10 -14 0.2 0.23
7 -14 10 0.27 0.24
-7 14 10 0.44 0.23
-7 -10 14 0.61 0.28
-14 10 7 0.52 0.35
7 -10 -14 0.57 0.19
7 10 14 0.67 0.21
-14 7 -10 0.39 0.17
14 7 10 0.55 0.16
10 14 7 0.47 0.25
-10 7 14 0.85 0.21
-14 -7 10 0.44 0.25
10 -14 -7 0.6 0.19
14 -10 7 0.45 0.19
14 10 -7 0.43 0.27
-7 -14 -10 0.41 0.19
-10 -7 -14 0.53 0.14
10 -7 14 0.36 0.21
10 7 -14 0.25 0.26
-14 -10 8 1.58 0.31
8 14 10 2.05 0.32
-8 14 -10 1.35 0.33
-8 10 14 1.89 0.28
14 8 -10 1.35 0.3
14 10 8 1.61 0.27
10 14 -8 1.97 0.32
-14 8 10 3.45 0.48
14 -10 -8 1.56 0.24
-10 8 -14 1.7 0.26
10 -8 -14 3.48 0.43
8 -14 -10 1.65 0.26
-8 -14 10 1.86 0.33
10 8 14 1.9 0.26
8 10 -14 1.46 0.3
14 -8 10 1.58 0.24
-10 -8 14 1.16 0.32
-8 -10 -14 3.25 0.37
-14 10 -8 1.57 0.27
10 -14 8 2.12 0.3
-10 -14 -8 2.03 0.27
8 -10 14 1.69 0.3
-10 14 8 1.53 0.28
-8 10 -14 1.54 0.28
10 -8 14 1.87 0.29
14 10 -8 1.63 0.32
10 14 8 1.62 0.31
8 -10 -14 3.19 0.44
-10 -14 8 1.72 0.33
-8 14 10 1.6 0.3
-14 8 -10 1.65 0.25
-8 -14 -10 3.33 0.46
-10 8 14 1.8 0.28
-14 -8 10 1.6 0.31
10 8 -14 1.72 0.31
-8 -10 14 1.86 0.35
-14 10 8 1.79 0.27
-10 -8 -14 2.74 0.35
-10 14 -8 2.02 0.32
14 8 10 1.5 0.23
-14 -10 -8 3.36 0.38
10 -14 -8 1.98 0.27
8 -14 10 2.04 0.31
8 14 -10 1.07 0.33
8 10 14 2.14 0.28
14 -10 8 3.11 0.43
-9 -14 10 0.56 0.31
9 -14 -10 0.52 0.21
10 9 14 0.75 0.23
-9 14 -10 0.39 0.31
-10 14 9 0.25 0.26
14 -10 -9 0.37 0.2
14 10 9 0.37 0.22
-10 9 -14 0.92 0.25
14 -9 10 0.32 0.21
-9 10 14 0.72 0.26
10 -9 -14 0.4 0.2
-9 -10 -14 0.2 0.17
-14 10 -9 0.47 0.25
-14 -9 -10 0.79 0.15
9 10 -14 0.52 0.28
-10 -9 14 0.64 0.3
-14 9 10 0.29 0.23
14 9 -10 0.69 0.28
-10 -14 -9 1.01 0.22
-14 -10 9 0.57 0.28
10 -14 9 0.34 0.27
10 14 -9 0.61 0.3
9 -10 14 -0.06 0.26
9 14 10 0.3 0.29
14 9 10 0.46 0.22
-14 -10 -9 0.49 0.17
-14 9 -10 0.47 0.23
9 -10 -14 0.56 0.21
-9 -10 14 0.49 0.29
-10 9 14 0.87 0.26
9 10 14 0.57 0.24
14 10 -9 0.4 0.28
10 -9 14 0.51 0.25
-9 -14 -10 0.69 0.21
9 14 -10 0.23 0.3
-9 14 10 -0.1 0.27
14 -9 -10 0.4 0.19
9 -14 10 0.67 0.28
-10 -14 9 0.21 0.31
-14 10 9 0.24 0.24
10 14 9 0.11 0.27
14 -10 9 0.44 0.22
-9 10 -14 0.36 0.24
-10 -9 -14 0.46 0.17
10 -14 -9 0.7 0.2
-10 14 -9 0.92 0.29
-14 -9 10 0.89 0.31
10 9 -14 0.52 0.27
10 -14 -10 7.76 0.74
-14 -10 -10 7.28 0.68
-14 -10 10 7.38 0.84
-14 10 -10 7.63 0.81
10 -10 14 5.89 0.79
14 10 10 7.37 0.76
-10 -10 -14 7.42 0.68
10 10 -14 6.58 0.86
14 -10 10 7.35 0.75
-10 10 14 6.75 0.78
-14 10 10 7.91 0.8
-10 -14 -10 7.74 0.74
-10 10 -14 6.38 0.8
-10 14 -10 7.51 0.9
-10 14 10 7.39 0.82
10 -10 -14 8.07 0.73
10 -14 10 10.17 0.82
10 10 14 6.86 0.79
14 -10 -10 7.78 0.72
-10 -14 10 8.79 0.89
14 10 -10 8.73 0.87
10 14 -10 5.82 0.84
-10 -10 14 7.41 0.88
10 14 10 6.52 0.85
-14 0 11 -0.72 0.28
-14 11 0 -0.69 0.25
0 -11 14 -0.19 0.29
11 14 0 -0.63 0.28
0 -14 11 -0.1 0.3
0 -14 -11 -0.07 0.2
-11 0 14 -0.27 0.2
-11 0 14 0.27 0.27
-11 14 0 -0.44 0.28
-14 -11 0 -0.67 0.26
-11 -14 0 0.01 0.27
11 0 14 -0.18 0.12
11 -14 0 -0.27 0.22
14 11 0 -0.16 0.26
0 14 11 -0.18 0.28
11 0 14 -0.52 0.17
0 11 14 -0.34 0.25
0 14 -11 0.01 0.29
0 11 -14 -0.23 0.28
14 -11 0 -0.12 0.2
0 -11 -14 -0.35 0.2
-11 -1 14 -0.36 0.2
-1 11 14 -0.03 0.23
14 -11 -1 0.13 0.19
11 -14 1 0.27 0.23
11 14 -1 -0.41 0.29
1 -14 -11 0.26 0.2
-11 -1 14 -0.12 0.26
-14 -11 1 0.38 0.26
-11 -14 -1 0.05 0.27
1 -11 14 -0.09 0.28
-1 14 -11 -0.1 0.29
1 14 11 -0.03 0.26
11 1 14 -0.04 0.13
-1 -14 11 -0.04 0.29
-11 14 1 -0.66 0.27
-14 11 -1 0 0.24
1 11 -14 0.01 0.29
14 11 1 -0.66 0.24
11 1 14 -0.31 0.17
1 -11 -14 -0.11 0.19
-1 11 -14 0.15 0.28
-11 -14 1 -0.06 0.28
11 -1 14 -0.1 0.18
1 -14 11 -0.06 0.29
-11 14 -1 -0.3 0.27
11 14 1 -0.14 0.28
-14 -11 -1 -0.32 0.24
-14 -1 11 -0.22 0.29
-1 -11 14 -0.28 0.29
-1 -14 -11 0.05 0.2
11 -1 14 -0.25 0.12
1 14 -11 0.05 0.28
-11 1 14 0.02 0.26
-1 14 11 -0.29 0.25
14 -11 1 -0.3 0.2
-14 11 1 -0.14 0.25
14 11 -1 -0.18 0.25
11 -14 -1 -0.05 0.23
-11 1 14 -0.28 0.19
2 11 -14 2.74 0.39
2 14 11 2.38 0.37
-2 14 -11 2.44 0.38
11 14 -2 2.29 0.37
11 2 14 3.78 0.43
-14 -11 2 2.77 0.36
-2 11 14 4.58 0.54
-11 -14 -2 4.39 0.57
-14 2 11 2.52 0.5
14 11 2 2.63 0.34
-14 11 -2 1.88 0.34
11 2 14 3.65 0.38
-14 2 11 1.32 0.43
-11 -2 14 2.07 0.35
2 -14 -11 3.91 0.49
-2 -14 11 2.38 0.39
11 -14 2 4.04 0.51
-11 14 2 2.33 0.36
14 11 -2 4.54 0.6
-2 -11 14 2.38 0.37
-11 -14 2 2.48 0.36
-2 14 11 2.35 0.34
2 -14 11 2.58 0.38
2 11 14 2.23 0.33
-11 2 14 3.96 0.49
2 14 -11 2.4 0.38
-2 -14 -11 4.7 0.55
-14 -11 -2 4.37 0.55
11 14 2 2.77 0.35
-14 11 2 3.97 0.54
11 -2 14 3.58 0.47
2 -11 -14 4.45 0.46
-14 -2 11 2.34 0.55
-11 2 14 2.04 0.34
-11 14 -2 4.64 0.58
14 -11 2 4.41 0.48
11 -14 -2 2.17 0.31
14 -11 -3 0.18 0.18
-3 11 14 0.37 0.23
11 14 -3 0.32 0.28
3 11 -14 0.17 0.28
3 -14 -11 0.13 0.19
3 -11 14 0.35 0.3
-14 3 11 0.06 0.2
-3 -14 11 -0.24 0.29
-14 11 -3 0.45 0.23
-11 -14 -3 0.45 0.24
-3 14 -11 0.15 0.29
-11 -3 14 0.1 0.29
-3 -11 -14 0.34 0.18
11 3 14 -0.06 0.15
11 3 14 0.37 0.15
14 11 3 -0.02 0.24
-14 -11 3 0.42 0.25
11 -14 3 0.38 0.22
-14 3 11 0.11 0.23
11 14 3 0.06 0.27
-3 11 -14 0.34 0.26
-11 3 14 0.49 0.23
14 -11 3 0.43 0.19
-11 3 14 0.35 0.22
-14 -11 -3 -0.03 0.21
14 11 -3 0.27 0.24
3 11 14 0.1 0.23
-14 -3 11 0.25 0.29
3 -11 -14 0.23 0.18
-3 -11 14 0.01 0.27
3 -14 11 0.22 0.27
-14 11 3 0.33 0.23
-11 14 -3 0.05 0.27
3 14 -11 0.53 0.32
11 -3 14 0.2 0.18
-3 14 11 0.42 0.24
-11 -14 3 0.3 0.26
-14 -11 4 -0.06 0.24
-4 -14 11 -0.46 0.27
14 -4 11 -0.12 0.11
4 -14 -11 -0.1 0.18
-4 11 14 -0.23 0.22
-14 4 11 -0.36 0.18
4 14 11 -0.45 0.25
-11 14 4 -0.4 0.24
14 11 4 -0.42 0.22
14 4 -11 -0.28 0.22
4 -11 14 -0.33 0.25
11 -14 4 -0.25 0.2
-11 -4 14 0.01 0.25
-4 -11 -14 -0.27 0.17
4 11 -14 0.04 0.26
11 4 14 -0.03 0.14
11 4 14 -0.2 0.15
14 -11 -4 -0.02 0.17
-11 4 -14 -0.11 0.15
-14 11 -4 -0.13 0.23
-11 -14 -4 0.02 0.22
-4 14 -11 -0.24 0.31
-14 4 11 -0.2 0.22
4 11 14 -0.1 0.22
4 14 -11 -0.22 0.27
11 -14 -4 0.12 0.21
-4 11 -14 -0.31 0.23
14 11 -4 0.42 0.25
-4 14 11 -0.35 0.23
-14 -11 -4 -0.29 0.19
-11 14 -4 -0.06 0.25
-14 11 4 -0.08 0.2
11 4 -14 0.32 0.23
11 14 4 -0.34 0.24
-11 4 14 -0.28 0.2
-11 4 14 -0.34 0.2
-4 -14 -11 0.04 0.2
4 -14 11 -0.38 0.26
-14 -4 11 -0.04 0.24
11 -4 14 -0.21 0.19
14 -11 4 -0.28 0.17
-14 4 -11 -0.19 0.1
4 -11 -14 -0.07 0.18
-14 5 11 -0.17 0.21
5 -11 14 -0.17 0.24
-11 5 -14 0.02 0.15
5 -14 -11 0.05 0.17
-11 -5 14 -0.19 0.24
5 14 11 -0.09 0.24
-11 14 5 -0.18 0.23
-14 5 11 -0.42 0.18
-5 -14 11 0.07 0.27
11 5 14 -0.26 0.13
-14 -11 5 0.01 0.25
11 5 14 0.41 0.15
11 -14 5 -0.12 0.21
11 14 -5 -0.27 0.26
14 5 -11 -0.01 0.24
-5 11 14 -0.21 0.22
14 -11 -5 -0.19 0.17
-5 -11 -14 -0.33 0.16
14 -5 11 -0.13 0.14
14 11 5 -0.01 0.21
5 11 -14 -0.08 0.25
-11 -14 -5 -0.15 0.21
-14 11 -5 0 0.22
-5 -11 14 0.04 0.26
5 -11 -14 -0.17 0.17
-14 -5 11 -0.33 0.24
-14 -11 -5 -0.14 0.18
11 -5 14 0.09 0.19
14 -11 5 -0.29 0.17
14 11 -5 0.04 0.24
-11 5 14 0.17 0.18
14 5 11 -0.02 0.11
-5 11 -14 -0.28 0.22
5 14 -11 -0.3 0.26
11 14 5 -0.13 0.24
14 5 11 -0.04 0.09
-5 -14 -11 0.03 0.18
5 11 14 -0.19 0.2
-14 11 5 0 0.21
-11 -14 5 0.24 0.27
-11 14 -5 -0.18 0.25
-11 5 14 0.13 0.2
-14 5 -11 -0.13 0.12
-5 14 11 -0.16 0.22
5 -14 11 0.12 0.36
11 5 -14 -0.01 0.24
11 -14 -5 0 0.18
6 -14 -11 0.39 0.18
-6 -11 -14 0.31 0.17
-14 6 11 0.19 0.23
-6 -14 11 0.18 0.28
-14 11 -6 0.36 0.23
-14 6 11 0.4 0.2
14 6 -11 0.17 0.23
14 -11 -6 0.03 0.19
6 14 11 0.48 0.25
-14 -11 6 0.19 0.26
14 11 6 -0.01 0.21
11 6 14 0.26 0.14
-6 14 -11 0.21 0.41
6 11 -14 0.03 0.25
-11 -6 14 0.51 0.27
11 6 14 0.34 0.17
11 -14 6 0 0.22
11 14 -6 0.2 0.27
14 -6 11 0.21 0.16
-11 14 6 0.15 0.25
-11 6 -14 0.35 0.17
-6 11 14 -0.18 0.23
-11 -14 -6 0.33 0.2
6 -11 14 0.28 0.25
11 6 -14 0.48 0.25
14 6 11 0.35 0.14
11 -14 -6 0.39 0.19
-11 6 14 0.24 0.21
6 -11 -14 0.42 0.19
-14 6 -11 0.3 0.15
11 14 6 0.06 0.24
11 -6 14 0.36 0.2
-11 6 14 0.08 0.23
-6 -11 14 0.08 0.28
14 -11 6 0.36 0.18
14 11 -6 0.08 0.25
6 11 14 0.52 0.22
-11 -14 6 -0.23 0.25
-6 14 11 0.17 0.24
-6 -14 -11 0.27 0.19
6 14 -11 0.08 0.28
-11 14 -6 0.1 0.25
-6 11 -14 0.2 0.24
-14 11 6 0.51 0.28
-14 -6 11 -0.15 0.26
-14 -11 -6 0.36 0.17
7 -11 14 0.64 0.26
11 7 14 1.03 0.21
-7 -14 11 0.74 0.29
14 -11 -7 0.55 0.19
-11 -7 14 0.97 0.31
7 -14 -11 0.74 0.21
-14 7 11 0.68 0.23
7 11 -14 0.25 0.26
7 14 11 0.89 0.27
-14 -7 -11 0.76 0.13
14 -7 11 0.79 0.19
-11 -14 -7 0.69 0.22
-11 7 -14 0.37 0.2
14 11 7 1.05 0.23
11 -14 7 0.95 0.26
11 14 -7 0.55 0.29
-14 11 -7 0.75 0.25
-14 -11 7 0.43 0.27
14 7 -11 0.88 0.26
-7 11 14 1.02 0.25
-11 14 7 0.91 0.26
-7 14 -11 1.1 0.31
-7 -11 -14 0.81 0.19
-14 -11 -7 0.6 0.19
11 -7 14 0.64 0.23
11 7 -14 0.73 0.26
7 -14 11 0.67 0.32
14 -11 7 0.78 0.21
-14 11 7 0.54 0.24
11 14 7 0.82 0.28
-14 7 -11 0.63 0.18
14 11 -7 0.36 0.27
7 11 14 0.76 0.24
7 14 -11 0.64 0.29
14 7 11 0.89 0.19
7 -11 -14 0.65 0.21
-11 -14 7 0.75 0.29
-11 7 14 0.81 0.23
-7 -14 -11 0.55 0.21
-14 -7 11 0.38 0.26
-7 14 11 0.89 0.27
-7 -11 14 0.79 0.27
-7 11 -14 0.77 0.27
11 -14 -7 0.85 0.21
-11 14 -7 1 0.28
-8 -11 -14 3.93 0.42
8 11 -14 2.41 0.35
-11 8 -14 4 0.52
14 11 8 1.63 0.3
-11 -14 -8 2 0.3
8 -14 -11 3.86 0.47
-14 11 -8 4.52 0.56
11 14 -8 1.94 0.36
14 -11 -8 1.88 0.28
-11 -8 14 2.45 0.36
11 -14 8 1.93 0.33
-14 8 11 4.21 0.52
-8 -14 11 2.12 0.38
14 8 -11 2.37 0.35
-14 -11 8 1.82 0.34
11 8 14 2.06 0.29
-8 14 -11 1.72 0.36
-11 14 8 1.78 0.32
-8 11 14 4.06 0.55
8 -11 14 1.82 0.34
14 -8 11 3.58 0.46
8 14 11 4.53 0.62
-8 -11 14 1.86 0.36
-8 11 -14 2.1 0.33
-11 8 14 3.89 0.52
11 -8 14 2.24 0.31
11 8 -14 1.96 0.36
-14 11 8 2.27 0.32
-14 8 -11 4.06 0.5
14 -11 8 3.84 0.47
14 -8 -11 4.06 0.45
8 11 14 2.38 0.32
14 11 -8 2 0.34
8 -11 -14 3.97 0.48
-14 -11 -8 3.4 0.43
-8 -14 -11 3.4 0.48
8 -14 11 1.89 0.34
-8 14 11 2.49 0.34
-11 -14 8 2.02 0.34
-11 14 -8 4.78 0.63
11 14 8 2.29 0.34
-14 -8 11 2.02 0.36
11 -14 -8 3.63 0.47
14 8 11 1.9 0.28
8 14 -11 1.47 0.35
11 -14 9 0.87 0.28
9 -14 -11 0.51 0.22
14 11 9 0.56 0.25
-14 -9 -11 0.6 0.16
-9 11 14 0.82 0.27
-9 14 -11 0.61 0.32
11 -9 -14 0.52 0.21
-9 -11 -14 0.69 0.19
-9 -14 11 0.76 0.33
9 -11 14 0.49 0.28
14 -11 -9 0.79 0.22
9 11 -14 0.24 0.3
-11 -9 14 0.16 0.32
14 -9 11 0.43 0.23
14 9 -11 0.65 0.28
-11 14 9 0.67 0.28
-11 9 -14 0.08 0.24
-14 9 11 0.55 0.25
-14 11 -9 0.41 0.27
9 14 11 0.8 0.3
-14 -11 9 0.52 0.29
11 9 14 0.62 0.24
11 14 -9 0.52 0.28
-11 -14 -9 0.78 0.22
-9 11 -14 0.37 0.27
11 9 -14 0.3 0.27
9 11 14 0.69 0.27
14 -9 -11 0.76 0.21
-14 9 -11 0.58 0.24
9 -11 -14 0.73 0.22
9 14 -11 0.88 0.3
-14 -11 -9 0.61 0.19
11 14 9 1.02 0.29
-9 14 11 0.19 0.29
11 -14 -9 0.71 0.22
14 9 11 0.54 0.23
-14 11 9 0.79 0.25
-11 -9 -14 0.57 0.17
-9 -11 14 0.82 0.3
-11 -14 9 0.57 0.31
-11 14 -9 0.21 0.29
14 -11 9 0.61 0.23
14 11 -9 0.3 0.3
-9 -14 -11 0.82 0.22
-11 9 14 0.6 0.26
-14 -9 11 0.49 0.3
9 -14 11 0.31 0.29
11 -9 14 0.54 0.25
11 10 14 0.18 0.25
-10 -14 11 -0.22 0.32
14 11 10 -0.19 0.24
-14 11 -10 -0.43 0.26
11 -10 -14 0.06 0.2
-10 11 14 -0.11 0.26
10 -11 14 0.04 0.27
10 11 -14 0.27 0.29
11 -14 10 0.07 0.28
14 10 -11 0.04 0.3
-11 10 -14 -0.37 0.23
-14 -10 -11 -0.3 0.16
-14 10 11 -0.07 0.26
-10 14 -11 0.12 0.32
10 14 11 0.03 0.29
10 -14 -11 0.13 0.24
-10 -11 -14 -0.1 0.18
-14 -11 10 -0.24 0.3
11 14 -10 -0.56 0.29
14 -10 11 0.02 0.24
14 -11 -10 -0.15 0.21
-11 -10 14 0.19 0.31
-11 -14 -10 -0.39 0.21
-11 14 10 -0.18 0.27
11 14 10 -0.65 0.28
11 -14 -10 0.33 0.22
14 -10 -11 -0.18 0.21
10 14 -11 0.32 0.31
-14 -10 11 0.1 0.31
14 10 11 -0.3 0.23
-14 -11 -10 0.06 0.18
-11 14 -10 -0.2 0.31
10 -14 11 0.07 0.29
14 11 -10 -0.22 0.28
-11 10 14 0.07 0.26
-10 -14 -11 -0.08 0.21
11 -10 14 0.06 0.26
-11 -10 -14 0.03 0.17
-10 -11 14 -0.09 0.3
-14 11 10 0.06 0.25
10 -11 -14 -0.04 0.21
10 11 14 -0.46 0.26
14 -11 10 -0.36 0.23
-14 10 -11 -0.11 0.24
-10 14 11 -0.28 0.26
-11 -14 10 -0.25 0.32
-10 11 -14 -0.57 0.26
11 10 -14 -0.24 0.28
11 -11 -14 1.6 0.24
-11 -14 -11 1.45 0.25
14 11 11 0.94 0.29
-14 11 -11 1.14 0.29
11 14 11 0.92 0.32
-11 14 -11 1.44 0.35
14 -11 11 1.16 0.29
-11 11 -14 1.49 0.3
-11 -14 11 1.57 0.35
-14 11 11 1.43 0.3
11 11 14 1.17 0.3
11 14 -11 1.13 0.34
11 -14 -11 1.25 0.25
14 11 -11 1.21 0.33
-11 -11 -14 1.26 0.22
-11 -11 14 1.29 0.36
-11 14 11 1.42 0.32
-11 11 14 1.53 0.29
11 -14 11 1.52 0.31
11 -11 14 1.07 0.29
11 11 -14 1.46 0.32
-14 -11 -11 3.25 0.41
-14 -11 11 1.13 0.34
14 -11 -11 1.17 0.25
12 14 0 -0.78 0.3
-12 -14 0 -0.64 0.27
-12 14 0 -0.45 0.29
0 -12 -14 -0.27 0.2
-14 0 12 0.23 0.21
0 14 -12 -0.72 0.31
0 -12 14 -0.94 0.32
0 -14 -12 -0.46 0.2
-14 -12 0 -0.63 0.26
14 -12 0 -0.12 0.22
0 14 12 -0.64 0.27
12 0 14 -0.35 0.18
-14 12 0 -0.21 0.27
-12 0 14 -0.51 0.26
14 12 0 -0.08 0.27
12 0 14 -0.03 0.13
0 -14 12 -0.33 0.31
-14 0 12 0.23 0.28
0 12 -14 -0.54 0.28
0 12 14 -0.43 0.26
-12 0 14 -0.17 0.21
12 14 -1 9.16 0.9
12 -14 1 7.42 0.79
14 12 1 7.89 0.83
-14 -12 1 7.17 0.84
-12 14 1 6.84 0.86
-12 -14 -1 6.91 0.85
1 12 -14 8.33 0.87
1 -14 -12 8.03 0.76
-1 -14 12 8.01 0.88
1 -12 14 7.06 0.92
-12 -1 14 7.68 0.87
12 1 14 6.77 0.65
14 -12 -1 8.42 0.75
12 1 14 8.41 0.69
-1 -12 -14 7.85 0.74
-1 14 -12 7.42 0.92
-14 12 -1 9.11 0.83
-14 1 12 7.19 0.82
-14 1 12 6.99 0.74
-12 -1 14 7.27 0.74
-1 12 14 7.5 0.82
1 14 12 7.27 0.85
14 12 -1 7.4 0.85
12 -1 14 7 0.64
1 -12 -14 8.97 0.74
-12 1 14 8.41 0.88
1 14 -12 8.37 0.94
12 -14 -1 7.93 0.77
1 -14 12 6.38 0.87
-14 12 1 7.24 0.82
-1 12 -14 7.6 0.88
-14 -12 -1 8.49 0.81
-12 1 14 7.5 0.75
-1 -14 -12 6.95 0.76
1 12 14 6.98 0.8
-12 14 -1 6.86 0.85
-1 14 12 7.16 0.8
-14 -1 12 7.72 0.75
-14 -1 12 7.96 0.89
12 -1 14 7.61 0.71
14 -12 1 8.2 0.76
-1 -12 14 6.55 0.87
-12 -14 1 7.88 0.86
12 14 1 6.62 0.86
14 -12 -2 5.12 0.58
12 2 14 4.35 0.51
12 2 14 4.66 0.48
-14 -12 2 4.81 0.69
-14 2 12 5.26 0.59
2 12 -14 4.73 0.72
12 14 -2 4.9 0.74
2 -12 14 2.86 0.49
2 14 12 4.77 0.67
2 -14 -12 5.15 0.6
-12 14 2 2.88 0.55
-12 -2 14 4.98 0.71
-2 -12 -14 4.37 0.6
-14 12 -2 5.41 0.68
12 -14 2 6.07 0.64
-14 2 12 4.86 0.72
-14 -2 12 4.88 0.55
2 14 -12 5.48 0.78
14 -12 2 4.63 0.6
2 12 14 5.69 0.69
12 -2 14 4.77 0.54
-14 -12 -2 5.2 0.68
2 -12 -14 4.41 0.57
14 12 -2 4.83 0.69
12 -2 14 4.96 0.45
-2 -14 -12 4.81 0.57
12 14 2 6.09 0.72
-14 -2 12 4.69 0.7
-14 12 2 4.8 0.68
-12 -14 2 4.34 0.68
-12 2 14 4.85 0.59
14 -3 12 3.4 0.31
3 -12 14 1.45 0.35
-14 3 12 3.69 0.47
-3 -14 12 2.32 0.36
12 3 14 3.71 0.38
12 14 -3 2.36 0.41
3 12 -14 2.5 0.36
-14 -12 3 2.12 0.33
-12 -3 14 1.75 0.35
-3 12 14 2.02 0.32
14 12 3 2.41 0.34
14 -12 -3 3.78 0.48
12 -14 3 4.24 0.52
-14 12 -3 2.12 0.33
12 3 14 3.69 0.37
-12 -14 -3 2.51 0.33
-3 14 -12 1.95 0.35
3 14 12 2.08 0.34
-12 14 3 1.7 0.34
3 -14 -12 2.38 0.3
-14 3 12 2.44 0.32
14 -12 3 4.22 0.49
-3 -14 -12 3.4 0.45
12 -3 14 3.76 0.43
3 -12 -14 4.35 0.47
-14 -12 -3 3.82 0.53
12 -14 -3 4.18 0.52
14 12 -3 1.97 0.34
-12 -14 3 2.64 0.38
-14 12 3 2.01 0.32
-12 14 -3 2.47 0.34
12 14 3 2.14 0.34
-3 14 12 1.58 0.32
-12 3 14 2.3 0.32
3 -14 12 2.57 0.36
3 14 -12 2.33 0.36
-3 12 -14 2.09 0.36
-14 -3 12 2.44 0.35
-12 3 14 4.12 0.52
-3 -12 14 1.7 0.34
-4 12 14 -0.14 0.21
4 -14 -12 -0.04 0.19
14 12 4 -0.06 0.23
4 -12 14 -0.42 0.28
-14 4 12 -0.02 0.22
-4 14 -12 -0.37 0.26
12 14 -4 -0.2 0.27
-14 -12 4 -0.08 0.25
4 14 12 -0.13 0.26
-14 12 -4 0.04 0.24
14 -4 12 -0.07 0.13
12 4 14 -0.34 0.14
14 -12 -4 -0.04 0.21
-4 -12 -14 -0.2 0.18
12 4 14 -0.21 0.14
-12 -14 -4 -0.05 0.22
-12 4 -14 -0.25 0.14
4 12 -14 -0.3 0.28
-14 4 12 -0.13 0.18
-4 -14 12 -0.16 0.27
12 -14 4 -0.16 0.21
-12 -4 14 -0.17 0.25
-12 14 4 -0.05 0.24
14 4 -12 -0.23 0.24
12 -14 -4 0.02 0.19
-12 14 -4 0.09 0.25
-4 14 12 -0.09 0.23
-14 -12 -4 0.42 0.21
4 -14 12 -0.08 0.26
-12 -14 4 -0.01 0.26
-4 -14 -12 -0.01 0.18
4 12 14 -0.17 0.22
12 14 4 -0.14 0.26
14 -12 4 -0.18 0.18
-14 12 4 -0.03 0.23
-4 12 -14 0.09 0.33
4 14 -12 -0.1 0.28
-4 -12 14 -0.14 0.26
14 12 -4 -0.07 0.24
4 -12 -14 0.09 0.18
-14 -4 12 0.22 0.24
-12 4 14 -0.14 0.21
12 4 -14 -0.18 0.24
12 -4 14 -0.37 0.17
-12 4 14 -0.07 0.2
14 -12 -5 -0.02 0.17
-12 -5 14 0.06 0.26
-5 -14 12 -0.1 0.26
12 5 14 0.01 0.16
-14 5 12 0 0.19
14 5 -12 0.01 0.23
-14 5 12 0.06 0.22
-12 -14 -5 0.17 0.21
-5 -12 -14 -0.17 0.17
-5 14 -12 -0.07 0.27
-14 12 -5 0.15 0.23
-12 5 -14 -0.05 0.15
5 12 -14 0.24 0.26
12 -14 5 0.02 0.2
5 -14 -12 -0.12 0.18
-12 14 5 0.34 0.24
12 5 14 0.07 0.13
14 12 5 -0.11 0.23
12 14 -5 -0.21 0.26
-5 12 14 0.27 0.22
-14 -12 5 -0.28 0.29
14 -5 12 -0.01 0.15
-14 12 5 -0.21 0.21
-12 14 -5 -0.01 0.25
5 12 14 0.03 0.22
14 5 12 -0.1 0.1
12 5 -14 -0.33 0.24
14 12 -5 -0.15 0.28
-14 -5 12 0.28 0.27
-5 -12 14 -0.01 0.26
5 14 -12 -0.13 0.28
5 -14 12 -0.1 0.25
12 14 5 0.38 0.25
14 -12 5 0.06 0.19
-12 5 14 0.04 0.21
-12 5 14 -0.39 0.19
12 -14 -5 0.05 0.18
14 5 12 0.07 0.13
-5 14 12 -0.26 0.24
5 -12 -14 -0.01 0.17
-14 -12 -5 0.26 0.2
-12 -14 5 -0.06 0.25
12 -5 14 -0.14 0.19
-14 5 -12 -0.04 0.13
-6 -14 12 0.23 0.29
6 12 -14 0.11 0.26
12 6 14 0.25 0.18
-6 12 14 0.37 0.23
12 6 14 0.14 0.14
14 -6 12 0.05 0.17
14 6 -12 0.25 0.24
6 14 12 0.33 0.27
12 14 -6 0.25 0.27
-14 12 -6 0.46 0.24
-12 -6 14 0.27 0.28
-14 6 12 0.14 0.21
6 -12 14 0.55 0.29
-6 -12 -14 0.35 0.18
-12 14 6 0.02 0.26
14 12 6 0.25 0.23
-14 6 12 0.16 0.21
6 -14 -12 0.23 0.18
-12 -14 -6 0.47 0.21
12 -14 6 0.34 0.23
-14 -12 6 0.4 0.27
-6 14 -12 0.12 0.29
-12 6 -14 0.15 0.17
14 -12 -6 0.16 0.19
-12 -14 6 0.61 0.26
12 -6 14 0.33 0.2
-6 12 -14 0.14 0.26
14 6 12 0.3 0.11
-14 12 6 0.27 0.23
-14 -12 -6 0.32 0.19
6 14 -12 0.49 0.26
6 -12 -14 0.28 0.19
-6 -14 -12 -0.04 0.19
-6 14 12 0.11 0.26
-12 6 14 0.25 0.23
12 14 6 0.07 0.25
14 -12 6 0.38 0.2
14 12 -6 0.27 0.27
-14 6 -12 0.27 0.15
-12 6 14 0.14 0.23
12 -14 -6 0.52 0.2
12 6 -14 0.6 0.25
-12 14 -6 0.18 0.26
-14 -6 12 0.65 0.26
6 -14 12 0.3 0.26
-6 -12 14 0.52 0.3
6 12 14 0.01 0.23
14 6 12 0.14 0.16
-12 -14 -7 2.15 0.29
14 -12 -7 3.89 0.44
14 12 7 2.45 0.31
7 14 12 2.17 0.34
-7 -12 -14 3.83 0.44
14 -7 12 1.8 0.26
7 12 -14 1.56 0.33
-14 -12 7 2.26 0.35
-14 12 -7 2 0.32
-14 7 12 1.81 0.29
-12 -7 14 1.64 0.36
-12 7 -14 3.64 0.47
-12 14 7 1.73 0.31
12 14 -7 2.44 0.36
-7 -14 12 2.29 0.37
-7 14 -12 1.94 0.4
-7 12 14 2.31 0.3
14 7 -12 2.24 0.33
12 7 14 3.66 0.45
12 -14 7 4.06 0.54
7 -12 14 1.84 0.34
-14 -7 12 1.29 0.33
-7 -14 -12 3.61 0.47
12 -7 14 4.3 0.5
14 -12 7 4.02 0.48
-14 -12 -7 1.97 0.27
-7 14 12 1.89 0.32
-14 7 -12 3.54 0.43
14 7 12 3.28 0.41
14 12 -7 1.47 0.34
7 -14 12 2.05 0.33
12 -14 -7 4.03 0.47
12 7 -14 2.41 0.33
-12 7 14 2.25 0.3
-14 12 7 4.08 0.54
-12 -14 7 1.83 0.36
-7 12 -14 2.04 0.33
7 14 -12 2.19 0.34
-12 14 -7 1.64 0.33
-7 -12 14 2.12 0.35
7 12 14 2.29 0.31
12 14 7 1.71 0.32
-14 -8 -12 -0.12 0.13
-12 14 8 -0.14 0.25
14 12 8 -0.06 0.24
12 14 -8 0.11 0.27
8 14 12 -0.28 0.28
-12 8 -14 -0.04 0.2
14 -12 -8 -0.31 0.19
8 -12 14 -0.31 0.27
-12 -8 14 -0.38 0.29
-14 -12 8 0.29 0.28
12 -14 8 0.05 0.26
-8 -12 -14 -0.39 0.18
-14 8 12 -0.09 0.25
-12 -14 -8 -0.17 0.22
14 8 -12 -0.04 0.27
-14 12 -8 0.13 0.26
8 -14 -12 -0.15 0.21
-8 -14 12 -0.2 0.3
12 8 14 -0.29 0.21
14 -8 12 -0.31 0.2
8 12 -14 0.25 0.28
-8 12 14 -0.39 0.25
-12 -8 -14 0 0.14
-12 8 14 0.04 0.24
-8 12 -14 -0.23 0.27
-8 -14 -12 -0.09 0.21
8 -12 -14 -0.25 0.2
8 14 -12 -0.2 0.29
-14 12 8 0.06 0.25
8 -14 12 -0.43 0.34
14 8 12 -0.15 0.2
-12 14 -8 0.04 0.29
14 -12 8 -0.22 0.21
12 14 8 -0.03 0.28
-14 -12 -8 -0.15 0.19
-14 -8 12 0.06 0.29
12 8 -14 -0.08 0.28
12 -8 14 -0.08 0.23
8 12 14 -0.3 0.26
14 12 -8 0.28 0.27
-12 -14 8 -0.08 0.29
-8 14 12 -0.36 0.27
-8 -12 14 -0.41 0.29
12 -14 -8 0.05 0.2
-14 8 -12 0.08 0.19
14 12 9 4.79 0.68
14 9 -12 5.46 0.74
9 14 12 4.71 0.72
-9 -12 -14 5.07 0.57
12 -9 -14 5.57 0.6
-9 -14 12 5.25 0.77
9 -14 -12 4.49 0.62
-14 -9 -12 4.78 0.51
-14 9 12 4.48 0.65
14 -12 -9 6.87 0.6
14 -9 12 5.23 0.63
-12 -9 14 5.42 0.77
-12 9 -14 5.84 0.67
-9 14 -12 2.49 0.66
12 -14 9 6.33 0.73
12 9 14 4.38 0.64
-12 -14 -9 3.99 0.63
-9 12 -14 5.23 0.74
14 12 -9 5.29 0.78
-9 -14 -12 5.75 0.64
-12 -9 -14 5.36 0.53
14 -12 9 5.03 0.64
-14 -9 12 6.09 0.74
-14 9 -12 4.67 0.63
-9 14 12 5.4 0.7
12 -14 -9 5.24 0.65
-14 -12 -9 4.72 0.58
-12 9 14 4.67 0.67
9 -12 -14 6.48 0.62
14 -9 -12 6.19 0.6
12 14 9 4.94 0.74
14 9 12 5.13 0.63
-14 -12 10 -0.03 0.31
14 -10 12 0.07 0.24
-10 12 14 -0.31 0.25
10 -14 -12 0.32 0.22
10 12 -14 0.03 0.31
12 10 14 0.09 0.25
-14 -10 -12 -0.12 0.17
14 12 10 0.06 0.26
-10 14 -12 -0.02 0.31
-14 10 12 0.27 0.25
10 14 12 -0.47 0.29
10 -12 14 -0.32 0.27
-10 -14 12 -0.26 0.31
-14 12 -10 0.16 0.28
-12 14 10 0.22 0.28
-10 -12 -14 -0.19 0.19
-12 -14 -10 -0.2 0.21
14 10 -12 0.32 0.28
12 -10 -14 0.19 0.21
12 -14 10 -0.04 0.28
12 14 -10 -0.15 0.31
14 -12 -10 0.2 0.22
-12 -10 14 0.18 0.31
-12 10 -14 0.04 0.24
12 14 10 0.3 0.29
14 12 -10 -0.12 0.31
-12 10 14 0.29 0.26
-12 14 -10 -0.2 0.3
-12 -14 10 0.05 0.32
12 -14 -10 0 0.22
-10 12 -14 -0.11 0.27
-10 -14 -12 -0.17 0.21
12 -10 14 0.2 0.25
-14 -12 -10 0.23 0.19
-14 -10 12 0.22 0.32
-14 10 -12 0.06 0.24
14 10 12 -0.59 0.24
10 12 14 -0.06 0.28
10 -14 12 0.02 0.43
10 14 -12 -0.02 0.33
12 10 -14 0.5 0.29
14 -10 -12 0.04 0.2
-10 -12 14 0.16 0.33
14 -12 10 -0.09 0.24
-10 14 12 -0.26 0.28
10 -12 -14 0.11 0.21
-12 -10 -14 0.09 0.17
-14 12 10 0.02 0.28
12 14 -11 2.16 0.36
-14 11 12 1.69 0.31
14 11 -12 1.47 0.34
-11 -12 -14 2.11 0.25
14 12 11 1.68 0.31
-14 -12 11 1.67 0.35
-12 -14 -11 1.9 0.27
12 -11 -14 1.92 0.26
11 14 12 1.67 0.34
-12 -11 14 1.73 0.37
-14 12 -11 1.52 0.33
-12 11 -14 1.62 0.31
-12 14 11 1.29 0.33
14 -11 12 1.64 0.3
12 -14 11 2.06 0.34
11 -12 14 1.67 0.32
11 12 -14 1.55 0.33
11 -14 -12 3.67 0.49
12 11 14 1.66 0.32
-11 14 -12 1.37 0.34
14 -12 -11 1.73 0.28
-11 12 14 2.05 0.31
-11 -14 12 1.26 0.36
-14 -12 -11 1.65 0.24
-14 11 -12 1.98 0.3
-11 14 12 1.59 0.32
-14 12 11 1.66 0.31
-12 -11 -14 1.58 0.24
14 11 12 1.41 0.3
14 -12 11 1.74 0.31
11 14 -12 1.33 0.33
-11 12 -14 1.53 0.32
-11 -14 -12 1.88 0.27
11 -12 -14 1.58 0.26
-12 -14 11 1.64 0.36
-12 14 -11 1.7 0.36
14 -11 -12 1.77 0.26
12 -11 14 1.62 0.31
-14 -11 12 1.21 0.34
-11 -12 14 1.78 0.36
11 -14 12 2.07 0.35
-12 11 14 1.31 0.29
11 12 14 1.55 0.32
12 14 11 1.91 0.35
12 11 -14 1.96 0.36
12 -14 -11 1.66 0.27
14 12 -11 1.58 0.35
12 14 12 -0.25 0.29
12 14 -12 -0.44 0.31
-12 14 -12 -0.34 0.3
-12 14 12 -0.09 0.28
12 -14 -12 -0.01 0.22
-14 12 12 -0.04 0.25
-12 -12 -14 -0.34 0.18
12 -12 14 -0.2 0.28
14 12 -12 0.09 0.3
-14 -12 -12 -0.14 0.19
-12 -14 -12 -0.06 0.21
-14 -12 12 -0.06 0.3
-12 -12 14 -0.26 0.29
-14 12 -12 -0.19 0.26
12 12 14 -0.28 0.28
12 12 -14 -0.3 0.31
-12 12 14 -0.24 0.26
14 12 12 -0.27 0.27
-12 12 -14 -0.28 0.27
12 -14 12 0 0.28
14 -12 12 -0.15 0.27
-12 -14 12 -0.27 0.32
14 -12 -12 -0.31 0.21
12 -12 -14 -0.12 0.21
14 13 0 1.9 0.34
13 0 14 1.21 0.2
-13 0 14 0.94 0.31
-14 -13 0 1.55 0.31
14 -13 0 3.76 0.51
13 -14 0 1.54 0.27
0 -13 14 1.3 0.35
13 14 0 1.73 0.34
13 0 14 1.15 0.17
0 13 14 1.67 0.31
-14 0 13 1.13 0.3
0 -14 13 1.95 0.36
-13 0 14 1.11 0.24
0 -14 -13 1.79 0.26
-14 0 13 3.5 0.48
0 13 -14 1.61 0.33
-13 14 0 0.65 0.33
0 -13 -14 1.75 0.26
0 14 -13 1.57 0.35
-14 13 0 0.95 0.31
-13 -14 0 0.53 0.31
-1 13 14 0.79 0.29
13 1 14 0.76 0.17
-14 -13 1 0.71 0.3
1 -14 -13 0.41 0.24
-14 1 13 0.3 0.28
13 14 -1 0.27 0.31
-1 -13 -14 0.43 0.22
-13 -1 14 0.33 0.29
13 -14 1 0.7 0.25
-13 -14 -1 0.32 0.28
-13 14 1 0.83 0.33
-1 14 -13 0.72 0.32
14 13 1 0.52 0.29
1 -13 14 0.11 0.32
-14 13 -1 0.81 0.3
14 -13 -1 0.44 0.24
1 13 -14 0.29 0.29
13 1 14 0.38 0.14
-1 -14 13 0.22 0.31
-14 1 13 0.56 0.24
1 14 13 0.2 0.29
-13 -1 14 0.56 0.21
1 -14 13 0.61 0.33
-13 -14 1 1.01 0.3
-14 -1 13 0.44 0.3
-13 1 14 0.93 0.29
-13 14 -1 -0.03 0.29
-14 -13 -1 0.55 0.28
-14 13 1 1 0.3
-1 14 13 0.75 0.27
-14 -1 13 0.82 0.23
-13 1 14 0.49 0.23
14 13 -1 0.66 0.29
13 -14 -1 0.66 0.37
14 -13 1 0.88 0.23
13 -1 14 0.83 0.13
13 14 1 0.8 0.31
13 -1 14 0.44 0.18
1 -13 -14 0.67 0.23
1 13 14 0.59 0.28
1 14 -13 0.29 0.32
-1 -14 -13 0.67 0.22
-1 13 -14 -0.05 0.31
-1 -13 14 0.83 0.33
2 13 -14 3.01 0.4
-14 2 13 4.64 0.54
-13 -2 14 4.32 0.53
14 13 2 2.98 0.39
2 -13 14 2.92 0.4
-2 -14 13 5.89 0.69
-14 13 -2 2.5 0.38
-14 -13 2 2.97 0.39
-14 2 13 2.78 0.38
13 14 -2 2.77 0.4
13 -14 2 5.08 0.56
-13 14 2 2.15 0.45
14 -13 -2 4.97 0.51
-2 14 -13 2.54 0.41
-2 13 14 4.28 0.61
-13 -2 14 2.47 0.38
13 2 14 4.43 0.41
-13 -14 -2 2.52 0.37
-2 14 13 4.62 0.62
-2 13 -14 2.74 0.41
-14 -2 13 3.07 0.4
2 14 -13 2.96 0.41
13 -14 -2 2.32 0.35
-14 -2 13 4.89 0.5
14 -13 2 4.55 0.54
-13 2 14 4.67 0.65
-13 2 14 3.77 0.52
-14 -13 -2 4.4 0.61
-13 14 -2 4.77 0.66
14 13 -2 5.18 0.68
-14 13 2 2.86 0.38
-2 -14 -13 4.47 0.51
13 14 2 2.72 0.4
2 -14 13 2.57 0.4
-2 -13 14 2.99 0.42
-13 -14 2 2.8 0.4
2 13 14 4.68 0.61
-3 -14 13 0.02 0.3
-14 -13 3 -0.2 0.26
-14 3 13 -0.21 0.2
-14 13 -3 -0.01 0.25
-13 -3 14 -0.1 0.28
14 -3 13 -0.34 0.14
14 -3 13 -0.08 0.09
-3 13 14 -0.11 0.27
14 13 3 -0.37 0.25
14 -13 -3 -0.12 0.25
-13 14 3 -0.14 0.25
-3 -13 -14 -0.11 0.18
-14 3 13 -0.11 0.24
3 -14 -13 -0.02 0.18
-13 -14 -3 -0.1 0.24
13 -14 3 -0.25 0.21
3 14 13 0.23 0.25
13 3 14 0.04 0.13
-3 14 -13 -0.19 0.29
13 3 14 -0.19 0.14
3 -13 14 0.1 0.28
3 13 -14 -0.39 0.26
-13 3 14 -0.16 0.24
-13 3 14 -0.29 0.2
3 -13 -14 0.68 0.2
-3 13 -14 0.18 0.27
-14 -3 13 -0.11 0.27
14 -13 3 -0.22 0.2
13 -14 -3 -0.28 0.2
-14 -13 -3 -0.2 0.22
13 -3 14 0.05 0.1
14 13 -3 -0.31 0.25
-3 14 13 0.05 0.26
13 14 3 -0.3 0.27
3 -14 13 -0.07 0.27
3 14 -13 0.19 0.29
-3 -13 14 0.3 0.28
13 -3 14 -0.03 0.17
3 13 14 -0.06 0.23
-3 -14 -13 0.43 0.19
-13 14 -3 0.05 0.25
-4 -14 13 0 0.29
4 -14 -13 -0.1 0.18
-13 -4 14 -0.07 0.27
-4 13 14 -0.22 0.24
-4 -13 -14 -0.02 0.17
14 4 -13 -0.32 0.25
4 -13 14 -0.4 0.25
13 4 14 -0.15 0.14
-4 14 -13 0.08 0.27
14 -13 -4 0.06 0.19
-14 4 13 -0.39 0.19
-13 -14 -4 0.15 0.22
13 4 14 -0.12 0.12
-14 13 -4 -0.19 0.24
13 14 -4 0.2 0.27
13 -14 4 -0.31 0.19
-14 4 13 -0.33 0.22
-13 14 4 -0.06 0.24
14 -4 13 -0.01 0.15
14 13 4 0 0.24
4 14 13 -0.06 0.24
4 13 -14 -0.22 0.25
-14 -4 13 -0.09 0.24
-13 14 -4 0.05 0.25
-13 4 14 0.2 0.22
13 -4 14 -0.12 0.17
13 4 -14 0.12 0.25
-14 13 4 0.05 0.24
-4 14 13 0.05 0.25
14 -13 4 -0.02 0.2
4 -14 13 0.5 0.27
-4 -13 14 0.07 0.27
14 4 13 0.11 0.13
-4 13 -14 0.04 0.25
4 14 -13 -0.01 0.25
14 4 13 -0.03 0.11
4 -13 -14 0.21 0.18
-4 -14 -13 -0.01 0.18
-13 -14 4 0 0.26
4 13 14 -0.08 0.23
13 -14 -4 0.09 0.18
-13 4 14 0.05 0.21
-14 -13 -4 -0.09 0.21
13 14 4 -0.14 0.24
-5 13 14 -0.13 0.23
5 -13 14 0.2 0.26
13 14 -5 0.21 0.27
5 13 -14 0.29 0.27
14 -13 -5 0.19 0.18
-5 14 -13 -0.15 0.26
-14 5 13 -0.05 0.22
-13 14 5 0.52 0.25
-5 -13 -14 -0.01 0.18
-13 5 -14 0.08 0.14
-14 13 -5 0.16 0.24
13 -14 5 0.07 0.21
5 -14 -13 0.22 0.19
13 5 14 0.3 0.13
-13 -5 14 -0.08 0.26
14 -5 13 0.24 0.16
14 13 5 0.06 0.24
-5 -14 13 -0.05 0.29
5 14 13 0.26 0.25
13 5 14 0.04 0.16
-14 -13 5 -0.02 0.25
-14 5 13 -0.13 0.2
14 5 -13 -0.09 0.23
-13 -14 -5 0.1 0.21
5 13 14 0.36 0.25
14 13 -5 0.15 0.25
5 -14 13 -0.14 0.25
-5 13 -14 -0.04 0.26
-14 5 -13 0.05 0.13
13 5 -14 -0.19 0.23
14 5 13 -0.07 0.14
-14 -5 13 -0.25 0.26
5 -13 -14 0.21 0.18
13 -14 -5 0.24 0.18
-13 -14 5 0.04 0.25
-13 5 14 0.04 0.19
13 -5 14 -0.27 0.18
13 14 5 0.02 0.25
-13 14 -5 0.02 0.25
-14 -13 -5 0.03 0.2
14 -13 5 -0.16 0.2
-5 14 13 -0.15 0.23
-14 13 5 -0.35 0.23
14 5 13 0.19 0.11
-5 -13 14 0.1 0.26
-13 5 14 0.22 0.21
5 14 -13 -0.05 0.24
-5 -14 -13 -0.15 0.17
-13 14 6 0.31 0.25
-6 14 -13 0.49 0.27
6 14 13 0.17 0.27
13 6 14 0.6 0.18
6 -13 14 0.67 0.27
-14 -13 6 0.45 0.27
-14 13 -6 0.37 0.26
13 -14 6 0.39 0.22
-13 -6 14 0.4 0.27
-13 6 -14 0.27 0.16
14 -6 13 0.39 0.18
-6 13 14 0.77 0.25
-6 -13 -14 0.36 0.33
-14 6 13 0.13 0.22
6 13 -14 0.45 0.27
-6 -14 13 0.57 0.29
6 -14 -13 0.43 0.2
14 -13 -6 0.35 0.19
13 14 -6 0.62 0.29
-14 6 13 0.14 0.21
13 6 14 0.33 0.14
-13 -14 -6 0.35 0.21
14 6 -13 0.53 0.26
14 13 6 0.4 0.24
14 13 -6 0.65 0.28
-14 -13 -6 0.08 0.2
-14 6 -13 0.08 0.15
6 14 -13 0.34 0.28
-13 6 14 0.09 0.22
-6 13 -14 -0.14 0.26
13 14 6 0.4 0.26
13 -14 -6 0.21 0.2
-14 13 6 0.26 0.24
13 -6 14 0.38 0.19
6 -13 -14 0.1 0.18
-13 6 14 0.56 0.24
-14 -6 13 -0.16 0.27
6 -14 13 0.29 0.26
14 6 13 0.24 0.16
-6 -14 -13 0.45 0.19
14 6 13 0.25 0.12
-13 -14 6 0.28 0.26
-13 14 -6 0.5 0.26
-6 -13 14 0.41 0.28
13 6 -14 0.45 0.26
14 -13 6 0.43 0.22
-6 14 13 0.25 0.25
-7 -13 -14 0.7 0.19
-14 7 13 0.17 0.22
-14 7 13 0.75 0.26
14 -7 13 0.34 0.2
14 7 -13 0.32 0.27
-14 13 -7 0.03 0.27
7 -13 14 -0.07 0.27
7 13 -14 0.51 0.28
-13 7 -14 0.57 0.18
-13 14 7 0.53 0.25
13 -14 7 0.82 0.24
13 14 -7 0.03 0.27
14 13 7 0.18 0.26
-7 13 14 0.17 0.25
-13 -14 -7 0.73 0.22
-7 14 -13 0.18 0.27
14 -13 -7 0.27 0.2
7 -14 -13 0.71 0.21
-7 -14 13 0.45 0.3
-14 -13 7 0.17 0.28
13 7 14 0.36 0.2
-13 -7 14 0.45 0.3
13 -7 14 0.37 0.21
7 14 -13 0.43 0.3
-13 7 14 0.39 0.24
-14 -13 -7 0.47 0.21
-14 7 -13 0.59 0.18
-7 14 13 0.23 0.27
-14 13 7 0.19 0.25
13 14 7 0.4 0.27
-14 -7 13 0.75 0.3
-13 7 14 0.74 0.22
14 7 13 0.32 0.18
7 -14 13 0.6 0.28
7 13 14 0.45 0.27
13 -14 -7 0.4 0.21
13 7 -14 0.12 0.27
-7 -13 14 0.55 0.3
14 13 -7 0.37 0.29
7 -13 -14 0.56 0.19
14 -13 7 0.17 0.22
-13 -14 7 0.38 0.3
-13 14 -7 0.6 0.28
-7 13 -14 0.45 0.28
-8 -13 -14 1.15 0.21
-14 8 13 0.6 0.25
-14 -13 8 0.74 0.31
13 -14 8 1.35 0.27
8 -13 14 0.51 0.31
-13 -8 14 0.62 0.3
-13 8 -14 0.92 0.22
14 13 8 0.91 0.27
-13 -14 -8 0.55 0.23
-8 -14 13 0.63 0.31
-13 14 8 1.08 0.26
13 14 -8 0.91 0.31
8 -14 -13 0.85 0.23
14 -13 -8 0.99 0.21
-8 13 14 1.02 0.28
8 14 13 0.92 0.31
8 13 -14 1.04 0.32
-14 13 -8 0.98 0.3
13 8 14 0.88 0.23
14 -8 13 0.61 0.22
14 8 -13 0.88 0.28
-8 14 -13 0.45 0.29
-14 -8 -13 0.91 0.14
-8 14 13 0.83 0.28
-8 13 -14 0.47 0.36
8 14 -13 0.52 0.3
8 -13 -14 0.73 0.21
-8 -14 -13 0.91 0.22
-14 -8 13 0.56 0.31
-14 8 -13 0.69 0.21
14 8 13 0.79 0.22
13 -8 14 0.84 0.24
13 8 -14 0.83 0.28
-14 -13 -8 0.87 0.22
-13 14 -8 1.09 0.3
-14 13 8 0.98 0.28
-13 -14 8 0.48 0.29
-8 -13 14 0.99 0.31
13 14 8 0.99 0.28
8 -14 13 0.7 0.28
14 -13 8 0.54 0.24
14 13 -8 0.76 0.31
-13 8 14 0.95 0.25
8 13 14 0.7 0.28
13 -14 -8 0.56 0.22
9 14 13 0.41 0.29
-13 -9 14 0.75 0.31
-13 14 9 -0.07 0.27
-9 -13 -14 0.15 0.19
13 -14 9 0.26 0.26
-13 -14 -9 -0.21 0.2
-9 14 -13 0.14 0.29
-9 13 14 0 0.25
-14 13 -9 0.23 0.28
-14 9 13 0.06 0.24
14 -13 -9 0.19 0.2
-13 9 -14 -0.08 0.22
13 9 14 -0.2 0.23
9 13 -14 0.13 0.29
-9 -14 13 0.28 0.31
-14 -9 -13 0.4 0.15
14 13 9 -0.17 0.26
13 14 -9 -0.08 0.3
14 9 -13 -0.03 0.3
14 -9 13 0.12 0.22
9 -14 -13 0.17 0.21
-14 -13 9 0.07 0.3
13 14 9 0.2 0.28
14 9 13 -0.2 0.22
-9 -13 14 -0.15 0.31
9 14 -13 0.24 0.29
-9 13 -14 0.04 0.45
-13 14 -9 0.08 0.28
-14 -13 -9 0.19 0.2
13 9 -14 0.12 0.29
9 -13 -14 -0.04 0.21
13 -9 14 0.11 0.24
14 -13 9 -0.06 0.25
14 13 -9 -0.15 0.28
-13 -14 9 0.23 0.31
-13 -9 -14 0.39 0.15
-14 13 9 -0.05 0.26
-9 14 13 -0.07 0.28
-13 9 14 0.02 0.25
-9 -14 -13 0.24 0.2
9 13 14 -0.23 0.28
13 -14 -9 0.85 0.23
-14 -9 13 0.01 0.3
-14 9 -13 0.19 0.21
9 -14 13 -0.13 0.28
-14 13 -10 -0.09 0.29
-13 14 10 0.29 0.29
10 -14 -13 -0.05 0.21
-13 -10 14 0.38 0.32
10 -13 14 -0.2 0.31
-13 -14 -10 0.17 0.21
14 -10 13 -0.04 0.24
-14 -10 -13 0.4 0.16
-10 -13 -14 0.17 0.19
-13 10 -14 -0.17 0.23
-14 10 13 0.44 0.26
-10 13 14 0.45 0.27
-10 -14 13 0.1 0.3
13 10 14 -0.05 0.25
10 13 -14 0.02 0.29
14 13 10 -0.12 0.27
-14 -13 10 0.53 0.3
13 -14 10 0.36 0.28
13 14 -10 0.47 0.32
10 14 13 0.52 0.31
13 -10 -14 -0.04 0.21
14 -13 -10 0.19 0.21
-10 14 -13 0.45 0.36
14 10 -13 0.25 0.3
-13 -10 -14 0.25 0.17
10 -14 13 0.12 0.29
10 14 -13 -0.02 0.3
-14 13 10 0.38 0.27
-10 -14 -13 0.72 0.2
13 -10 14 0.07 0.25
13 10 -14 0.39 0.3
14 10 13 0.03 0.24
-10 13 -14 -0.15 0.29
14 -13 10 0.1 0.25
14 13 -10 -0.15 0.29
10 13 14 -0.05 0.28
13 -14 -10 0.34 0.22
-13 14 -10 0.26 0.31
-13 -14 10 0.12 0.31
-14 -10 13 0.22 0.32
14 -10 -13 0.21 0.21
-10 14 13 0.59 0.29
-13 10 14 0.03 0.26
10 -13 -14 0.3 0.22
-10 -13 14 0.49 0.31
-14 -13 -10 0.03 0.2
-14 10 -13 0.07 0.24
13 14 10 0.03 0.29
14 13 11 0.09 0.29
14 -11 13 0.48 0.27
11 -14 -13 0.38 0.22
13 11 14 0.16 0.27
13 -14 11 0.6 0.29
14 11 -13 0.29 0.3
13 -11 -14 0.39 0.21
-14 -11 -13 0.67 0.18
-11 13 14 0.5 0.28
11 14 13 0.52 0.3
13 14 -11 -0.03 0.31
-11 -14 13 0.39 0.32
11 13 -14 0.96 0.34
-13 14 11 0.2 0.28
-14 -13 11 0.06 0.3
-14 13 -11 0.62 0.31
-13 -14 -11 0.4 0.22
11 -13 14 0.53 0.29
-13 -11 14 0.74 0.33
-13 11 -14 0.11 0.26
-14 11 13 0.55 0.27
14 -13 -11 0.51 0.23
-11 -13 -14 0.5 0.2
14 -13 11 0.39 0.28
-11 14 13 0.19 0.29
13 14 11 0.15 0.29
-13 -11 -14 0.41 0.18
13 -11 14 0.59 0.28
13 11 -14 0.22 0.29
14 13 -11 0.53 0.32
-11 -14 -13 0.44 0.21
13 -14 -11 0.58 0.22
11 13 14 0.51 0.31
-14 -13 -11 0.96 0.22
11 -14 13 0.07 0.38
14 -11 -13 0.74 0.21
11 -13 -14 0.34 0.23
-13 -14 11 0.29 0.33
-13 14 -11 0.83 0.32
-11 -13 14 0.02 0.31
-13 11 14 0.71 0.26
14 11 13 0.08 0.26
-11 13 -14 0.55 0.3
-14 -11 13 0.48 0.3
-14 11 -13 0.39 0.26
-14 13 11 0.02 0.29
11 14 -13 0.03 0.29
14 -12 13 1.08 0.29
14 12 -13 1.42 0.33
-12 -14 13 0.42 0.32
-13 12 -14 0.74 0.28
12 13 -14 0.9 0.32
-14 -13 12 0.38 0.32
12 14 13 0.7 0.31
13 -14 12 1.45 0.31
13 14 -12 1.29 0.32
-13 -12 14 0.34 0.32
-14 -12 -13 0.98 0.2
-12 14 -13 1.22 0.43
-14 13 -12 0.74 0.31
-14 12 13 1.06 0.28
-13 -14 -12 1.09 0.23
14 13 12 1.09 0.3
13 -12 -14 1.22 0.24
-13 14 12 1.06 0.29
-12 -13 -14 1.2 0.21
13 12 14 0.84 0.29
14 -13 -12 1.02 0.25
-12 13 14 0.71 0.29
12 -14 -13 0.78 0.24
12 -13 14 0.87 0.3
-14 -13 -12 0.69 0.21
12 13 14 1.16 0.32
13 -14 -12 0.49 0.24
-14 13 12 1.32 0.3
-13 -12 -14 0.93 0.2
13 14 12 1.73 0.33
14 -12 -13 1.04 0.22
-13 12 14 0.71 0.28
-12 -14 -13 1.08 0.22
14 12 13 1.18 0.29
-14 -12 13 0.71 0.31
-12 14 13 0.94 0.3
12 -13 -14 0.99 0.24
12 14 -13 0.77 0.33
-13 -14 12 0.45 0.32
-13 14 -12 1.06 0.32
13 -12 14 0.94 0.3
13 12 -14 0.5 0.32
-12 -13 14 0.95 0.33
-12 13 -14 1.42 0.31
14 -13 12 0.81 0.29
14 13 -12 0.64 0.33
-14 12 -13 0.78 0.3
-14 -14 0 22.66 1.95
-14 0 14 24.8 1.97
-14 14 0 21.8 1.97
0 -14 -14 26.24 1.9
0 -14 14 25.49 1.97
0 14 -14 26.26 1.99
0 14 14 23.56 1.94
14 -14 0 25.59 1.95
14 0 14 23.25 1.85
14 0 14 23.08 1.84
14 14 0 23.08 1.97
-14 -14 -1 0.08 0.28
-14 -14 1 0.11 0.28
-14 -1 14 0.44 0.3
-14 -1 14 0.09 0.21
-14 1 14 -0.02 0.3
-14 1 14 0.4 0.23
-14 14 -1 0.07 0.29
-14 14 1 -0.49 0.52
-1 -14 -14 0.18 0.2
-1 -14 14 0.08 0.32
-1 14 -14 0.26 0.31
-1 14 14 0.62 0.28
1 -14 -14 0.96 0.22
1 -14 14 0.33 0.32
1 14 -14 0.54 0.32
1 14 14 1 0.26
14 -14 -1 -0.43 0.28
14 -14 1 -0.48 0.22
14 -1 14 -0.31 0.15
14 -1 14 0.36 0.11
14 1 14 0.25 0.13
14 14 -1 0.17 0.3
14 14 1 0.23 0.3
-14 -14 -2 -0.46 0.25
-14 -14 2 -0.67 0.34
-14 -2 14 -0.41 0.28
-14 -2 14 -0.17 0.19
-14 2 14 0.13 0.27
-14 2 14 0.06 0.2
-14 14 -2 0.06 0.26
-14 14 2 -0.14 0.27
-2 -14 -14 -0.45 0.2
-2 -14 14 -0.41 0.3
-2 14 -14 -0.31 0.28
-2 14 14 -0.48 0.27
2 -14 -14 -0.33 0.2
2 -14 14 -0.64 0.29
2 14 -14 -0.31 0.28
2 14 14 -0.17 0.26
14 -14 -2 -0.35 0.21
14 -14 2 -0.13 0.22
14 -2 14 -0.17 0.1
14 2 14 -0.41 0.12
14 2 14 -0.32 0.12
14 14 -2 -0.48 0.34
14 14 2 -0.6 0.29
-14 -14 -3 0.02 0.23
-14 -14 3 -0.21 0.26
-14 -3 14 -0.19 0.27
-14 3 14 0.18 0.24
-14 3 14 0.27 0.2
-14 14 -3 -0.35 0.25
-14 14 3 0.02 0.25
-3 -14 -14 -0.05 0.18
-3 -14 14 -0.17 0.3
-3 14 -14 -0.04 0.27
-3 14 14 -0.24 0.25
3 -14 -14 -0.08 0.2
3 -14 14 0 0.27
3 14 -14 -0.04 0.26
3 14 14 -0.59 0.24
14 -14 -3 0.23 0.19
14 -14 3 -0.1 0.21
14 -3 14 -0.12 0.15
14 -3 14 -0.01 0.1
14 3 14 -0.1 0.12
14 3 14 0 0.13
14 14 -3 0.05 0.28
14 14 3 -0.29 0.26
-14 -14 -4 -0.18 0.22
-14 -14 4 -0.3 0.25
-14 -4 14 0.23 0.25
-14 4 14 0.13 0.23
-14 4 14 0.14 0.19
-14 14 -4 -0.08 0.25
-14 14 4 0.11 0.24
-4 -14 -14 0.16 0.18
-4 -14 14 0.42 0.3
-4 14 -14 -0.08 0.26
-4 14 14 -0.03 0.25
4 -14 -14 0.03 0.2
4 -14 14 0.21 0.27
4 14 -14 0.45 0.27
4 14 14 0.05 0.23
14 -14 -4 -0.01 0.18
14 -14 4 0.18 0.2
14 -4 14 0.18 0.16
14 4 14 -0.04 0.12
14 4 14 0.04 0.14
14 14 -4 0.02 0.25
14 14 4 0.33 0.26
-14 -14 -5 -0.11 0.21
-14 -14 5 0.08 0.25
-14 -5 14 -0.08 0.26
-14 5 -14 -0.26 0.13
-14 5 14 0.23 0.21
-14 5 14 -0.02 0.2
-14 14 -5 -0.13 0.25
-14 14 5 -0.01 0.24
-5 -14 -14 0.03 0.18
-5 -14 14 0.23 0.29
-5 14 -14 -0.04 0.26
-5 14 14 0.18 0.24
5 -14 -14 0.12 0.19
5 -14 14 0.05 0.26
5 14 -14 0.01 0.28
5 14 14 -0.04 0.24
14 -14 -5 -0.07 0.19
14 -14 5 0.01 0.21
14 -5 14 0.1 0.17
14 5 -14 -0.06 0.23
14 5 14 -0.1 0.12
14 5 14 0.06 0.15
14 14 -5 -0.07 0.27
14 14 5 -0.26 0.25
-14 -14 -6 0.4 0.22
-14 -14 6 0.43 0.27
-14 -6 14 0.22 0.26
-14 6 -14 0.37 0.16
-14 6 14 0.93 0.25
-14 6 14 0.52 0.22
-14 14 -6 0.55 0.27
-14 14 6 0.33 0.25
-6 -14 -14 0.66 0.2
-6 -14 14 0.66 0.29
-6 14 -14 0.3 0.28
-6 14 14 0.76 0.26
6 -14 -14 0.88 0.21
6 -14 14 0.51 0.27
6 14 -14 0.27 0.29
6 14 14 0.12 0.26
14 -14 -6 0.44 0.2
14 -14 6 0.72 0.23
14 -6 14 0.41 0.19
14 6 -14 0.78 0.27
14 6 14 0.37 0.14
14 6 14 0.91 0.18
14 14 -6 0.52 0.27
14 14 6 0.75 0.26
-14 -14 -7 -0.03 0.21
-14 -14 7 -0.5 0.28
-14 -7 14 0.1 0.28
-14 7 -14 -0.16 0.17
-14 7 14 0.25 0.22
-14 7 14 -0.16 0.21
-14 14 -7 -0.05 0.27
-14 14 7 -0.24 0.23
-7 -14 -14 -0.32 0.19
-7 -14 14 -0.21 0.28
-7 14 -14 -0.49 0.28
-7 14 14 -0.29 0.27
7 -14 -14 -0.41 0.2
7 -14 14 -0.02 0.27
7 14 -14 -0.66 0.29
7 14 14 -0.12 0.26
14 -14 -7 -0.15 0.19
14 -14 7 -0.23 0.22
14 -7 14 -0.04 0.2
14 7 -14 -0.16 0.25
14 7 14 -0.09 0.13
14 7 14 -0.18 0.18
14 14 -7 -0.22 0.28
14 14 7 -0.23 0.26
-14 -14 -8 0.65 0.22
-14 -14 8 0.68 0.3
-14 -8 14 0.49 0.29
-14 8 -14 0.45 0.2
-14 8 14 0.02 0.23
-14 14 -8 0.27 0.3
-14 14 8 0.19 0.24
-8 -14 -14 0.62 0.22
-8 -14 14 0.74 0.3
-8 14 -14 0.34 0.3
-8 14 14 0.41 0.27
8 -14 -14 1.01 0.21
8 -14 14 0.86 0.3
8 14 -14 1.21 0.29
8 14 14 0.87 0.31
14 -14 -8 0.83 0.23
14 -14 8 0.4 0.24
14 -8 14 0.34 0.23
14 8 -14 0.56 0.29
14 8 14 0.63 0.22
14 14 -8 0.74 0.3
14 14 8 0.44 0.27
-14 -14 -9 -0.17 0.2
-14 -14 9 -0.09 0.31
-14 -9 -14 -0.06 0.13
-14 -9 14 0.44 0.3
-14 9 -14 -0.21 0.21
-14 9 14 0.42 0.24
-14 14 -9 0.31 0.28
-14 14 9 0.03 0.26
-9 -14 14 0.28 0.29
-9 14 -14 -0.34 0.3
-9 14 14 -0.4 0.28
9 -14 -14 0.22 0.22
9 -14 14 0.12 0.27
9 14 -14 0.02 0.28
14 -14 -9 -0.06 0.21
14 -14 9 -0.12 0.25
14 -9 14 -0.17 0.23
14 9 -14 0.03 0.27
14 9 14 0.18 0.23
14 14 -9 -0.1 0.3
14 14 9 0.02 0.28
-14 -14 -10 3.6 0.49
-14 -14 10 1.9 0.37
-14 -10 14 1.74 0.37
-14 10 -14 2 0.31
-14 10 14 2.06 0.32
-14 14 -10 2.17 0.37
-14 14 10 2.19 0.35
-10 -14 14 2.21 0.36
-10 14 -14 2.04 0.37
-10 14 14 4.62 0.62
10 -14 14 1.76 0.35
10 14 -14 1.97 0.37
10 14 14 2.13 0.38
14 -14 -10 4.29 0.49
14 -10 14 2.18 0.32
14 10 -14 1.93 0.35
14 10 14 4.19 0.54
14 14 -10 1.83 0.36
14 14 10 1.77 0.34
-14 -14 -11 -0.54 0.2
-14 -14 11 -0.37 0.31
-14 -11 -14 -0.45 0.17
-14 -11 14 0.02 0.32
-14 11 -14 -0.36 0.23
-14 11 14 -0.4 0.25
-14 14 -11 -0.59 0.3
-14 14 11 -0.18 0.27
-11 -14 -14 -0.31 0.2
-11 -14 14 -0.46 0.3
-11 14 -14 0.04 0.3
-11 14 14 -0.39 0.27
11 -14 -14 -0.14 0.21
11 -14 14 -0.37 0.28
11 14 -14 -0.2 0.3
11 14 14 -0.41 0.3
14 -14 -11 -0.1 0.21
14 -14 11 -0.4 0.27
14 -11 -14 -0.24 0.22
14 -11 14 -0.79 0.25
14 11 -14 -0.31 0.28
14 11 14 -0.35 0.26
14 14 -11 -0.89 0.29
14 14 11 -0.25 0.29
-15 0 0 -0.05 0.14
-15 0 0 -0.17 0.11
0 -15 0 -0.2 0.22
0 0 15 -0.03 0.19
0 0 15 -0.04 0.14
0 15 0 -0.45 0.25
-15 0 -1 0.02 0.13
-15 0 -1 -0.14 0.1
-15 0 1 -0.04 0.15
-15 0 1 -0.13 0.11
-1 -15 0 0.08 0.23
-1 15 0 -0.39 0.25
0 -1 15 0.45 0.21
0 1 15 0.06 0.2
0 1 15 0.17 0.15
1 -15 0 0 0.22
1 15 0 -0.45 0.26
-15 1 0 -0.17 0.11
-1 0 15 0 0.22
-1 0 15 0.08 0.14
0 -15 -1 -0.12 0.21
0 -15 1 -0.25 0.2
0 15 -1 -0.28 0.23
0 15 1 -0.32 0.25
1 0 15 0.11 0.2
1 0 15 0.15 0.14
-15 -1 0 0.05 0.11
-15 1 0 0.01 0.14
-15 -1 0 -0.04 0.15
-15 -1 1 -0.23 0.11
-15 -1 1 -0.09 0.15
-15 1 -1 -0.14 0.11
-15 1 1 -0.05 0.15
-15 1 1 -0.26 0.12
-1 -15 -1 -0.5 0.22
-1 -15 1 -0.54 0.22
-1 -1 15 -0.13 0.22
-1 1 15 0.05 0.2
-1 1 15 -0.14 0.14
-1 15 -1 -0.02 0.26
-1 15 1 -0.59 0.25
1 -15 -1 -0.21 0.22
1 -15 1 -0.37 0.22
1 -1 15 -0.04 0.2
1 1 15 -0.28 0.19
-15 1 -1 -0.12 0.12
-15 -1 -1 -0.22 0.14
-15 -1 -1 -0.06 0.1
1 15 1 -0.32 0.24
1 1 15 -0.02 0.14
1 15 -1 -0.38 0.24
-15 0 -2 0.4 0.13
-2 -15 0 0.14 0.22
-2 15 0 0.51 0.26
-15 -2 0 0.48 0.15
-15 -2 0 0.44 0.11
-15 2 0 0.45 0.14
-15 2 0 0.55 0.13
-2 0 15 0.51 0.21
-2 0 15 0.74 0.16
0 -15 -2 0.67 0.23
0 -15 2 0.59 0.23
0 15 -2 0.45 0.27
0 15 2 0.11 0.25
2 0 15 0.57 0.2
2 0 15 0.53 0.14
0 2 15 0.47 0.17
2 -15 0 0.31 0.21
2 15 0 0.13 0.26
-15 0 -2 0.42 0.11
-15 0 2 0.45 0.17
-15 0 2 0.69 0.13
0 2 15 0.78 0.21
0 2 -15 0.64 0.21
0 -2 15 0.7 0.23
-15 1 2 0.68 0.13
-2 -15 -1 0.17 0.23
-1 15 -2 0.32 0.26
-2 -1 15 0.69 0.22
-15 -1 -2 0.63 0.1
-15 -1 -2 0.74 0.13
-15 -2 1 0.82 0.12
2 15 -1 0.14 0.25
-15 -2 1 0.53 0.17
1 15 2 0.62 0.25
-15 1 2 0.6 0.17
2 1 15 0.36 0.19
2 1 15 0.45 0.15
-15 2 -1 0.5 0.13
-15 2 -1 0.69 0.13
-2 15 1 0.69 0.25
1 -15 -2 0.56 0.21
2 -15 1 0.37 0.23
-1 2 15 0.75 0.21
-1 2 15 0.86 0.17
1 -2 15 0.71 0.23
1 2 -15 0.73 0.22
-1 -15 2 0.42 0.22
1 2 15 0.68 0.16
-1 -2 15 0.73 0.23
-1 2 -15 0.43 0.2
-1 -15 -2 0.26 0.22
-15 -2 -1 0.54 0.11
2 15 1 0.27 0.24
-15 2 1 0.41 0.15
-15 2 1 0.8 0.14
-15 -1 2 0.78 0.18
-15 -1 2 0.68 0.13
-15 1 -2 0.46 0.12
2 -1 15 0.46 0.2
-2 1 15 0.23 0.2
-2 1 15 0.8 0.16
-1 15 2 0.57 0.26
2 -15 -1 0.14 0.22
1 -15 2 0.77 0.24
-2 15 -1 0 0.25
1 15 -2 0.34 0.25
-2 -15 1 0.6 0.23
1 2 15 0.47 0.2
-15 -2 -1 0.6 0.15
-15 1 -2 0.56 0.12
-15 2 2 -0.19 0.13
-15 2 2 -0.24 0.14
-15 -2 2 -0.2 0.11
-2 2 15 0.09 0.19
-15 -2 2 -0.17 0.16
-2 2 15 -0.23 0.15
-15 2 -2 -0.13 0.11
-15 2 -2 -0.31 0.11
2 15 2 -0.35 0.25
-2 -15 2 -0.42 0.24
-2 -2 15 -0.05 0.21
-15 -2 -2 -0.34 0.12
-15 -2 -2 -0.19 0.08
2 2 15 -0.12 0.18
-2 -15 -2 -0.32 0.21
-2 15 -2 -0.11 0.24
-2 15 2 -0.29 0.24
2 2 -15 0.01 0.21
2 -15 -2 -0.48 0.2
2 -15 2 -0.4 0.22
2 -2 15 -0.45 0.2
2 15 -2 -0.31 0.24
-2 2 -15 -0.24 0.18
2 2 15 0.05 0.14
0 3 15 0.26 0.15
3 -15 0 0.04 0.21
0 3 15 0.13 0.19
0 15 -3 -0.3 0.24
-15 3 0 -0.12 0.13
-3 0 15 -0.11 0.15
0 -15 -3 -0.14 0.2
0 -15 3 -0.38 0.24
-3 0 15 -0.01 0.22
0 3 -15 -0.14 0.21
-15 -3 0 -0.05 0.15
0 15 3 -0.08 0.23
3 0 15 -0.18 0.18
3 0 15 -0.12 0.13
0 -3 15 -0.07 0.21
-15 0 -3 0.08 0.1
-15 0 -3 -0.1 0.09
-15 3 0 -0.01 0.13
-3 15 0 -0.2 0.24
-15 0 3 -0.07 0.16
-15 0 3 -0.23 0.13
-3 -15 0 -0.32 0.22
3 15 0 -0.34 0.26
3 1 15 0.08 0.19
-1 -15 3 -0.18 0.22
-1 15 -3 -0.26 0.24
1 15 3 -0.29 0.24
-15 -1 -3 -0.04 0.08
3 1 15 -0.04 0.13
-15 -3 1 0.02 0.16
-3 15 1 -0.04 0.25
-15 1 3 0.07 0.16
-15 1 3 -0.08 0.13
-1 3 15 0.29 0.2
-1 3 15 -0.09 0.16
1 -3 15 0.08 0.21
1 3 -15 -0.23 0.21
-3 -15 -1 -0.29 0.21
-15 -1 -3 0.05 0.1
-3 -1 15 0 0.22
3 -15 1 0.15 0.23
3 15 -1 0.05 0.24
-15 3 -1 -0.04 0.13
1 -15 -3 -0.05 0.2
-15 3 -1 -0.05 0.12
1 3 15 0.01 0.14
-1 15 3 0.21 0.24
3 -1 15 -0.13 0.19
1 3 15 -0.04 0.18
-3 15 -1 -0.12 0.25
1 -15 3 0.07 0.23
1 15 -3 -0.14 0.25
-15 3 1 -0.03 0.14
-15 3 1 -0.15 0.13
3 -15 -1 -0.49 0.2
-3 1 15 -0.16 0.2
-3 1 15 0 0.15
-1 -15 -3 -0.12 0.21
-3 -15 1 -0.47 0.22
-1 3 -15 -0.22 0.19
-15 -3 -1 -0.2 0.15
-15 1 -3 -0.02 0.09
-15 -1 3 -0.3 0.16
-15 -1 3 0.02 0.12
-15 1 -3 0.03 0.1
3 15 1 0.03 0.24
-1 -3 15 -0.04 0.21
-15 -2 -3 -0.12 0.07
-3 -15 -2 -0.18 0.21
-15 -2 -3 -0.13 0.1
3 2 15 -0.21 0.18
3 2 15 -0.08 0.13
-15 2 3 -0.31 0.13
-2 15 -3 -0.24 0.24
-15 3 -2 -0.02 0.12
3 -15 2 0.03 0.22
3 15 -2 -0.06 0.22
-3 2 -15 -0.26 0.18
2 15 3 -0.09 0.25
-2 3 15 -0.11 0.19
-2 3 15 0.02 0.15
-3 -2 15 -0.2 0.22
2 -3 15 -0.19 0.19
-2 -15 3 -0.05 0.23
2 -15 -3 0.02 0.19
-3 15 2 -0.38 0.23
-15 2 3 -0.13 0.15
-15 -3 2 0.07 0.17
2 3 -15 0 0.2
-15 -3 -2 -0.33 0.13
-3 2 15 -0.19 0.16
-3 -15 2 -0.05 0.22
3 15 2 -0.45 0.23
3 2 -15 -0.11 0.2
3 -15 -2 -0.25 0.2
-15 3 2 -0.2 0.14
-15 3 2 -0.11 0.14
3 -2 15 -0.11 0.19
-15 -2 3 -0.1 0.12
-15 2 -3 -0.17 0.1
-15 2 -3 -0.26 0.1
-2 -15 -3 0.08 0.2
-3 15 -2 -0.11 0.24
2 -15 3 -0.16 0.21
-3 2 15 -0.27 0.19
-2 -3 15 -0.3 0.21
-15 -2 3 -0.13 0.16
2 3 15 0 0.17
2 3 15 -0.04 0.15
-2 15 3 -0.06 0.25
-2 3 -15 -0.01 0.19
2 15 -3 0.03 0.25
-15 -3 3 -0.25 0.16
3 3 15 -0.2 0.14
-15 -3 -3 -0.21 0.11
3 3 15 -0.19 0.17
-15 3 3 -0.21 0.13
3 15 -3 0.07 0.25
3 -15 3 -0.04 0.21
3 -3 15 -0.17 0.2
3 3 -15 -0.26 0.21
-15 3 -3 -0.14 0.11
-15 3 3 -0.16 0.15
-3 -15 -3 -0.05 0.21
-3 -15 3 0.13 0.22
-3 -3 15 -0.13 0.24
-3 3 -15 -0.03 0.19
-3 3 15 -0.18 0.2
-3 3 15 -0.19 0.15
-3 15 -3 -0.25 0.25
-3 15 3 -0.22 0.23
3 -15 -3 -0.04 0.19
3 15 3 -0.16 0.23
-4 15 0 1.3 0.29
0 -4 15 1.41 0.26
-15 0 4 2.49 0.33
4 -15 0 1.24 0.25
-4 0 15 3.28 0.38
-4 -15 0 1.73 0.26
4 15 0 1.3 0.29
0 -15 -4 1.7 0.25
0 -15 4 1.01 0.28
0 15 -4 1.12 0.29
-15 0 4 1.62 0.22
4 0 15 1.6 0.23
4 0 15 1.51 0.19
15 4 0 1.56 0.19
0 4 15 1.83 0.21
0 4 15 1.89 0.23
-15 -4 0 1.14 0.21
-15 4 0 1.46 0.19
-4 0 15 1.67 0.28
0 15 4 1.43 0.28
0 4 -15 1.93 0.26
-4 -15 -1 0.31 0.21
-4 15 1 0.42 0.24
1 4 -15 0.07 0.2
-1 -15 4 0.5 0.23
-15 1 4 0.45 0.17
-15 1 4 0.18 0.14
4 1 15 0.55 0.15
-15 -4 1 0.41 0.17
15 4 1 0.3 0.13
-15 4 -1 0.19 0.14
-4 -1 15 0.54 0.22
-1 15 -4 0.07 0.24
1 15 4 0.45 0.25
1 -4 15 0.22 0.22
4 15 -1 0.05 0.25
4 -15 1 0.59 0.22
4 1 15 0.17 0.18
1 -15 -4 0.08 0.2
-1 4 15 0.44 0.18
-1 4 15 0.19 0.19
-4 1 15 0.42 0.16
-1 -15 -4 0.15 0.19
4 -1 15 0.52 0.19
1 4 15 0.44 0.15
1 -15 4 0.02 0.23
4 -15 -1 0.23 0.2
1 4 15 0.17 0.18
-1 15 4 0.18 0.25
-15 -1 4 0.38 0.17
-15 -1 4 0.39 0.13
1 15 -4 0.14 0.24
-15 -4 -1 0.27 0.14
-1 -4 15 0.34 0.22
-1 4 -15 0.36 0.2
4 -1 15 0.46 0.14
4 15 1 0.45 0.25
15 4 -1 0.55 0.16
-4 1 15 0.28 0.21
-4 -15 1 0.18 0.23
-4 15 -1 0.05 0.24
-15 4 1 0.32 0.14
4 -15 2 0.83 0.24
4 15 -2 0.22 0.25
2 4 -15 0.57 0.22
-2 15 -4 0.51 0.26
-15 4 -2 0.52 0.15
-4 2 -15 0.94 0.19
2 -15 -4 0.87 0.22
-4 15 2 0.77 0.25
4 2 15 0.53 0.15
2 15 4 0.71 0.25
15 4 2 0.66 0.13
-15 2 4 0.67 0.17
-15 2 4 0.72 0.15
-4 -15 -2 0.81 0.23
-2 4 15 1.1 0.2
-2 4 15 0.69 0.18
-2 -15 4 0.52 0.24
2 -4 15 0.62 0.23
-4 -2 15 0.83 0.22
-15 -4 2 0.31 0.17
4 2 15 0.81 0.19
2 -15 4 0.6 0.23
4 -2 15 0.61 0.2
-15 2 -4 0.6 0.1
15 4 -2 0.38 0.17
-4 -15 2 0.58 0.24
-4 2 15 0.52 0.21
2 15 -4 0.52 0.27
-2 -4 15 0.28 0.21
-2 4 -15 0.52 0.2
4 -15 -2 0.91 0.22
2 4 15 0.74 0.17
-4 15 -2 0.73 0.26
-15 2 -4 0.55 0.1
15 -4 2 0.68 0.11
4 15 2 0.84 0.25
-2 -15 -4 0.82 0.21
-15 -2 4 0.58 0.18
-15 4 2 0.71 0.16
-2 15 4 1.01 0.26
4 2 -15 0.53 0.22
-4 2 15 0.6 0.18
2 4 15 0.94 0.19
-15 -4 -2 0.64 0.14
-15 -3 -4 0.31 0.07
-15 -4 3 -0.06 0.16
-4 -15 -3 0.41 0.2
4 15 -3 0.34 0.25
3 15 4 0.3 0.25
4 3 15 0.56 0.17
4 3 15 0.35 0.14
-15 4 -3 0.1 0.12
-3 4 15 0.34 0.18
15 4 3 0.5 0.1
3 4 -15 0.09 0.2
-3 15 -4 0.04 0.23
-3 4 15 0.45 0.18
3 -15 -4 0.36 0.2
4 -15 3 0.7 0.22
-15 3 4 0.29 0.17
-15 3 4 0.6 0.15
3 -4 15 0.31 0.21
-4 -3 15 0.23 0.22
-3 -15 4 0.02 0.23
-4 15 3 0.35 0.24
-4 3 -15 0.41 0.18
15 -4 3 0.35 0.09
3 4 15 0.26 0.15
-4 15 -3 0.21 0.24
4 -3 15 0.37 0.2
-15 -3 4 0.15 0.17
3 15 -4 0.17 0.25
-15 4 3 0.35 0.15
4 3 -15 0.46 0.21
15 4 -3 0.4 0.17
-4 -15 3 0.36 0.23
-4 3 15 0.27 0.16
-3 -15 -4 0.16 0.19
4 -15 -3 0.2 0.19
3 4 15 0.24 0.18
-3 15 4 0.31 0.23
-3 -4 15 0.2 0.22
-3 4 -15 0.21 0.19
4 15 3 0.2 0.25
3 -15 4 0.23 0.2
-15 -4 -3 0.18 0.13
-15 3 -4 0.35 0.1
-4 3 15 0.22 0.2
-4 15 -4 -0.05 0.24
-4 4 15 -0.33 0.18
-4 -15 4 0.13 0.23
-4 -4 15 -0.37 0.22
-4 4 -15 -0.1 0.18
4 4 15 -0.2 0.15
-15 -4 -4 -0.13 0.1
-4 4 15 -0.35 0.16
4 -15 4 0.02 0.21
4 -4 15 0.4 0.21
4 4 -15 -0.03 0.21
4 4 15 -0.28 0.16
-4 -15 -4 -0.11 0.19
-4 15 4 -0.39 0.22
4 -15 -4 -0.1 0.18
-15 4 -4 -0.18 0.11
-15 4 4 -0.03 0.14
15 4 -4 0.05 0.17
4 15 -4 -0.26 0.24
4 15 4 -0.27 0.23
15 -4 4 -0.01 0.08
-15 -4 4 -0.17 0.16
0 15 5 -0.12 0.23
5 15 0 -0.1 0.24
5 0 15 -0.08 0.13
15 -5 0 0.03 0.11
15 5 0 -0.11 0.15
-15 5 0 -0.02 0.15
-15 -5 0 -0.07 0.15
5 0 15 0.02 0.17
0 5 15 0.04 0.17
5 -15 0 -0.21 0.19
0 15 -5 0.27 0.26
0 -5 15 -0.08 0.22
0 5 -15 -0.05 0.2
-5 -15 0 -0.08 0.2
-5 15 0 -0.14 0.24
-15 0 5 -0.11 0.14
0 -15 5 0.29 0.23
-5 0 15 -0.15 0.24
-5 0 15 -0.13 0.15
0 -15 -5 0.06 0.19
-15 0 5 0.05 0.17
-5 -1 15 -0.21 0.2
5 15 -1 -0.29 0.23
1 -15 -5 0 0.2
-5 -15 -1 -0.09 0.22
15 5 1 -0.2 0.14
1 15 5 -0.16 0.25
-15 1 5 -0.23 0.14
5 1 15 -0.45 0.16
-1 15 -5 -0.09 0.25
-15 1 5 -0.14 0.17
-5 15 1 -0.37 0.23
15 -5 -1 -0.02 0.11
5 1 15 -0.22 0.13
-15 5 -1 0.1 0.14
-1 -15 5 0.21 0.23
-1 5 15 0.11 0.17
1 -5 15 0.09 0.23
1 5 -15 -0.33 0.21
5 -15 1 -0.22 0.21
-15 -5 1 -0.18 0.16
1 -15 5 -0.29 0.23
-1 -15 -5 0.11 0.21
5 -1 15 -0.14 0.12
-5 1 15 -0.19 0.15
-15 -1 5 0.1 0.17
-1 5 -15 -0.08 0.21
1 5 15 -0.01 0.17
-5 1 15 -0.16 0.2
-5 -15 1 0.12 0.24
-5 15 -1 -0.35 0.24
-15 -5 -1 -0.15 0.15
-1 -5 15 -0.03 0.22
-1 15 5 -0.17 0.23
5 15 1 -0.42 0.24
-15 5 1 -0.09 0.15
5 -1 15 -0.29 0.19
15 5 -1 0.06 0.16
-15 -1 5 -0.26 0.12
1 15 -5 -0.36 0.24
5 -15 -1 -0.35 0.18
15 -5 1 -0.03 0.11
-2 5 15 0.01 0.2
-5 15 2 0.02 0.25
-15 -5 2 -0.11 0.16
-15 5 -2 -0.13 0.13
2 -5 15 0.1 0.22
2 5 -15 -0.09 0.2
5 15 -2 -0.08 0.25
-2 -15 5 -0.36 0.23
5 -15 2 -0.11 0.21
5 2 15 -0.11 0.13
2 -15 -5 0.14 0.19
-5 -2 15 -0.05 0.21
-2 5 15 -0.2 0.16
2 15 5 -0.16 0.24
-5 -15 -2 0.18 0.2
5 2 15 -0.27 0.16
15 5 2 -0.15 0.13
-15 2 5 -0.07 0.17
-15 2 5 -0.07 0.13
15 -5 -2 -0.06 0.12
-2 15 -5 -0.2 0.24
15 -5 2 -0.05 0.1
-2 -15 -5 -0.1 0.19
15 5 -2 0.06 0.16
-2 15 5 -0.22 0.23
-15 -2 5 -0.18 0.17
2 5 15 -0.17 0.15
-15 -5 -2 -0.01 0.15
5 -2 15 -0.12 0.18
5 2 -15 -0.29 0.21
5 15 2 -0.23 0.24
-2 5 -15 -0.16 0.2
-2 -5 15 -0.23 0.22
2 15 -5 -0.11 0.22
-5 15 -2 -0.09 0.23
-5 -15 2 -0.11 0.23
-5 2 15 -0.17 0.17
2 -15 5 0.08 0.22
5 -15 -2 0.04 0.2
-15 5 2 -0.12 0.15
-5 2 15 -0.05 0.21
5 -15 3 -0.35 0.21
-3 5 15 0.03 0.16
-15 3 5 0.03 0.15
-5 -15 -3 -0.03 0.2
-5 3 -15 -0.13 0.17
-15 -5 3 -0.3 0.16
5 3 15 -0.18 0.16
-3 -15 5 -0.24 0.22
-5 15 3 0.08 0.23
-3 15 -5 -0.09 0.24
-15 3 5 0.14 0.16
15 5 3 0.07 0.12
-15 5 -3 -0.07 0.12
3 5 -15 -0.08 0.22
3 15 5 0.12 0.24
-5 -3 15 0.18 0.24
3 -5 15 -0.07 0.21
3 -15 -5 0.01 0.21
-3 5 15 -0.13 0.2
5 15 -3 0.18 0.24
15 -5 -3 -0.27 0.12
5 3 15 -0.06 0.13
3 5 15 -0.09 0.18
-5 -15 3 0.1 0.23
-15 3 -5 0 0.1
3 15 -5 -0.25 0.25
5 -3 15 -0.18 0.19
15 5 -3 -0.05 0.16
-5 3 15 -0.22 0.18
-5 3 15 -0.16 0.16
-3 -15 -5 0.03 0.18
3 5 15 -0.05 0.15
-15 -3 5 -0.07 0.17
15 -5 3 -0.04 0.1
-3 15 5 0.27 0.24
3 -15 5 -0.02 0.23
-3 5 -15 0.14 0.2
-3 -5 15 0.16 0.23
5 -15 -3 0.01 0.21
-5 15 -3 -0.17 0.24
-15 5 3 0.06 0.14
5 15 3 -0.11 0.23
-15 -5 -3 -0.02 0.13
5 3 -15 -0.26 0.2
15 5 4 -0.02 0.1
-15 4 5 0.17 0.16
5 15 -4 0.12 0.26
-5 -4 15 0.28 0.28
-15 -5 4 -0.22 0.18
-15 5 -4 0.14 0.13
5 4 15 0.06 0.16
5 4 15 -0.01 0.14
15 -4 5 -0.05 0.07
5 -15 4 -0.29 0.22
-4 5 15 -0.03 0.15
-15 4 5 -0.12 0.14
-5 -15 -4 -0.26 0.2
15 4 -5 0.06 0.18
-5 4 -15 -0.3 0.17
-5 15 4 -0.34 0.27
-4 15 -5 -0.03 0.24
-4 -15 5 -0.43 0.36
-4 5 15 -0.16 0.19
4 15 5 -0.23 0.23
4 -5 15 -0.21 0.21
4 5 -15 -0.08 0.21
-5 4 15 -0.18 0.23
15 5 -4 0.07 0.18
5 -15 -4 -0.09 0.24
-4 5 -15 0.06 0.19
-4 -5 15 -0.02 0.25
5 -4 15 0.11 0.2
-4 15 5 -0.58 0.37
-15 -5 -4 -0.13 0.12
-4 -15 -5 0 0.18
-15 5 4 -0.18 0.14
-15 -4 5 0 0.17
15 -5 4 -0.04 0.09
-5 4 15 -0.26 0.18
-15 4 -5 0.1 0.12
4 15 -5 -0.23 0.34
5 4 -15 -0.07 0.21
5 15 4 -0.21 0.24
-5 15 -4 0.17 0.24
4 -15 5 -0.15 0.22
-5 -15 4 0.29 0.23
4 5 15 -0.16 0.17
4 5 15 -0.12 0.15
-5 -5 15 -0.07 0.31
-5 15 5 0.06 0.28
5 -15 -5 0 0.2
5 5 -15 -0.42 0.34
5 5 15 0.05 0.16
5 5 15 0 0.15
5 15 5 -0.2 0.23
15 -5 5 -0.06 0.09
15 5 -5 -0.05 0.19
5 -5 15 -0.03 0.2
-5 5 15 0.06 0.29
-5 15 -5 0.06 0.24
-15 -5 -5 -0.15 0.09
-5 5 -15 -0.15 0.18
-15 -5 5 -0.05 0.18
-15 5 -5 -0.07 0.14
-5 -15 -5 0.2 0.19
15 5 5 0.09 0.09
5 -15 5 0.03 0.22
-15 5 5 -0.18 0.15
0 15 -6 0.96 0.28
-15 0 6 1.47 0.23
0 6 -15 2 0.27
0 15 6 1.57 0.29
0 -15 -6 1.75 0.26
6 0 15 2.54 0.33
15 -6 0 2.72 0.31
15 6 0 1.65 0.22
-15 -6 0 1.62 0.23
-15 6 0 1.43 0.2
-6 0 15 1.85 0.23
0 -15 6 1.52 0.28
6 15 0 1.18 0.28
-15 0 6 2.68 0.35
-6 -15 0 1.32 0.27
-6 15 0 1.31 0.28
0 -6 15 2.15 0.28
-6 0 15 1.9 0.31
0 6 15 1.81 0.23
6 -15 0 1.67 0.24
6 0 15 1.69 0.23
-1 15 -6 1.38 0.29
-1 6 15 1.8 0.23
-15 -6 1 1.47 0.22
-1 -15 6 1.35 0.33
1 -6 15 1.21 0.26
-6 -15 -1 1.67 0.27
1 15 6 1.34 0.27
-15 6 -1 1.65 0.2
6 -15 1 1.36 0.25
6 15 -1 1.37 0.29
1 -15 -6 1.57 0.24
-6 -1 15 1.31 0.27
-15 1 6 1.76 0.22
6 1 15 2.41 0.3
15 -6 -1 1.49 0.18
6 1 15 1.73 0.22
1 6 -15 1.38 0.25
15 6 1 1.56 0.2
-6 15 1 1.58 0.29
-15 1 6 1.5 0.19
6 15 1 1.2 0.27
-15 6 1 1.71 0.2
1 15 -6 1.55 0.31
-6 15 -1 1.29 0.29
15 6 -1 1.58 0.22
-1 -15 -6 1.24 0.24
-6 1 15 1.3 0.27
6 -15 -1 1.74 0.25
15 -6 1 2.49 0.29
-1 -6 15 1.6 0.29
1 -15 6 1.33 0.28
-1 6 -15 1.22 0.24
-6 -15 1 1.8 0.28
6 -1 15 2.48 0.29
-15 -1 6 1.45 0.22
6 -1 15 1.55 0.23
1 6 15 1.72 0.22
-1 15 6 1.23 0.29
-15 -6 -1 1.28 0.21
-15 -1 6 1.5 0.19
-6 1 15 1.36 0.21
-2 6 15 0.69 0.19
-6 -2 15 0.66 0.4
-15 -6 2 0.13 0.19
6 2 15 0.75 0.15
-15 2 6 0.53 0.18
2 -6 15 0.8 0.25
-6 -15 -2 0.45 0.22
15 6 2 0.59 0.16
6 15 -2 0.64 0.25
-2 15 -6 0.43 0.26
2 6 -15 0.72 0.23
-15 6 -2 0.91 0.16
2 15 6 0.39 0.25
-6 15 2 0.85 0.27
6 2 15 0.86 0.17
6 -15 2 0.42 0.22
-15 2 6 0.78 0.16
15 -6 -2 0.53 0.14
2 -15 -6 0.65 0.29
-2 15 6 0.66 0.34
-15 -2 6 0.74 0.2
-15 -6 -2 0.42 0.17
2 6 15 0.55 0.17
-6 2 15 0.97 0.24
-6 -15 2 0.42 0.24
-2 -15 -6 0.49 0.21
-6 15 -2 0.58 0.26
-15 6 2 0.52 0.16
-6 2 15 -0.18 0.36
6 15 2 0.57 0.25
15 6 -2 0.45 0.18
15 -6 2 0.74 0.13
6 -15 -2 0.66 0.21
6 -2 15 0.57 0.2
-2 -6 15 0.5 0.27
2 -15 6 0.42 0.25
-2 6 -15 0.48 0.21
-6 -15 -3 0.68 0.22
-6 -3 15 -0.13 0.44
-6 3 -15 0.4 0.17
-15 3 6 0.72 0.16
15 -6 -3 0.71 0.14
-15 3 6 0.6 0.17
-6 15 3 0.66 0.26
3 15 6 0.44 0.25
15 6 3 0.6 0.15
-3 6 15 0.51 0.18
3 -6 15 0.57 0.23
-15 -6 3 0.65 0.19
-15 6 -3 0.69 0.15
6 3 15 0.56 0.18
6 3 15 0.59 0.15
3 -15 -6 0.51 0.27
3 6 -15 0.51 0.24
-3 -15 6 0.63 0.35
-3 15 -6 0.31 0.26
6 -15 3 0.65 0.23
6 15 -3 0.94 0.26
-15 -3 6 0.85 0.19
-3 -6 15 0.75 0.26
-3 6 -15 0.64 0.21
-15 6 3 0.37 0.16
15 6 -3 0.74 0.19
6 15 3 0.75 0.25
-15 -6 -3 0.45 0.15
-6 15 -3 0.64 0.26
3 -15 6 0.93 0.25
6 -15 -3 0.58 0.24
3 6 15 0.73 0.18
-3 -15 -6 0.68 0.21
3 15 -6 0.22 0.39
6 -3 15 0.43 0.21
15 -6 3 0.68 0.13
-6 -15 3 0.4 0.23
4 -6 15 0.48 0.22
-6 -15 -4 0.4 0.21
-4 15 -6 0.43 0.25
15 4 -6 0.36 0.19
6 4 15 0.57 0.15
-6 4 -15 0.45 0.18
4 -15 -6 0.22 0.19
-15 4 6 0.53 0.15
-4 -15 6 0.14 0.24
4 15 6 0.4 0.24
6 4 15 0.38 0.16
15 6 4 0.49 0.13
-15 -6 4 0.38 0.2
-6 -4 15 0.21 0.23
15 -4 6 0.47 0.08
-15 4 6 0.53 0.17
15 -6 -4 0.44 0.14
6 15 -4 0.22 0.35
6 -15 4 0.51 0.22
-15 6 -4 0.48 0.15
-4 6 -15 0.62 0.2
-6 4 15 0.43 0.2
-4 -6 15 0.28 0.36
6 4 -15 0.53 0.23
4 6 15 0.66 0.17
-4 15 6 0.72 0.25
-15 6 4 0.54 0.16
4 -15 6 0.49 0.24
4 15 -6 0.26 0.28
-6 -15 4 0.61 0.32
-6 15 -4 0.53 0.25
-15 -4 6 0.34 0.19
-15 4 -6 0.27 0.12
15 -6 4 0.33 0.11
15 6 -4 0.53 0.19
-15 -6 -4 0.34 0.14
6 15 4 0.29 0.25
6 -4 15 0.65 0.21
6 -15 -4 0.23 0.35
-4 -15 -6 0.7 0.22
-6 4 15 0.51 0.19
-6 15 5 0.03 0.21
-15 -5 -6 -0.01 0.07
6 -15 5 -0.11 0.21
5 6 -15 -0.03 0.22
5 -6 15 0.21 0.22
15 -5 6 0.02 0.09
15 5 -6 0.16 0.19
6 5 15 -0.04 0.15
-15 6 -5 0.2 0.15
-6 5 -15 0.08 0.19
-6 -5 15 0.13 0.25
6 5 15 0.27 0.16
5 -15 -6 0.01 0.18
15 -6 -5 0.16 0.14
-6 -15 -5 0.19 0.2
-5 6 15 0.1 0.17
15 6 5 0.1 0.12
-5 15 -6 0.07 0.25
6 15 -5 0.04 0.27
-15 5 6 0.14 0.15
-5 -15 6 0.16 0.22
-15 -6 5 -0.11 0.19
5 15 6 -0.15 0.23
15 6 -5 0.02 0.2
-5 15 6 0 0.24
-6 5 15 0.14 0.17
6 -5 15 0.15 0.2
-6 15 -5 0.07 0.23
-15 -5 6 0.15 0.19
-15 5 -6 -0.01 0.14
-6 5 15 0.07 0.19
5 6 15 -0.09 0.15
-5 -6 15 0.07 0.24
15 -6 5 0.01 0.11
-5 6 -15 -0.06 0.18
-15 6 5 -0.27 0.15
6 5 -15 0.05 0.22
-6 -15 5 0.18 0.25
5 -15 6 0.01 0.22
5 15 -6 -0.4 0.26
-15 -6 -5 0.06 0.12
-5 -15 -6 0.19 0.2
6 15 5 -0.09 0.24
6 -15 -5 -0.18 0.2
-6 -15 -6 0.08 0.19
-6 15 -6 0.04 0.24
-15 -6 -6 0.1 0.1
-6 6 15 0.12 0.18
6 -15 -6 0.02 0.18
6 -15 6 -0.02 0.21
15 6 -6 0.08 0.2
15 -6 -6 -0.06 0.14
6 6 15 -0.1 0.15
-6 15 6 0.28 0.24
6 -6 15 -0.04 0.2
15 6 6 0.04 0.11
-6 -15 6 -0.25 0.23
-6 -6 15 -0.16 0.22
-6 6 -15 -0.02 0.18
15 -6 6 -0.16 0.1
-15 6 6 0.03 0.15
6 15 6 -0.19 0.24
6 6 -15 -0.37 0.22
-15 6 -6 -0.12 0.15
6 15 -6 -0.25 0.26
-15 -6 6 0.18 0.21
-15 -7 0 -0.39 0.2
0 -7 15 0.29 0.25
0 7 15 -0.08 0.19
7 -15 0 -0.17 0.21
-7 0 15 -0.23 0.26
-7 15 0 0.02 0.24
0 -15 -7 -0.34 0.29
0 7 -15 0.06 0.23
-15 7 0 0 0.17
15 7 0 -0.05 0.18
7 0 15 -0.13 0.13
15 -7 0 0.04 0.13
0 -7 -15 0.05 0.16
-15 0 7 -0.26 0.14
-7 0 15 -0.3 0.19
7 0 15 0.08 0.18
7 15 0 -0.1 0.26
0 -15 7 -0.28 0.46
0 15 7 0.24 0.3
-7 -15 0 -0.35 0.24
-15 0 7 -0.21 0.18
15 -7 -1 0.09 0.13
-15 1 7 -0.2 0.14
-15 7 -1 -0.17 0.16
-7 -1 15 -0.18 0.2
1 -7 15 0.13 0.24
1 7 -15 -0.26 0.22
-7 15 1 0.1 0.26
-15 1 7 -0.41 0.17
-1 -7 -15 0.13 0.15
-7 -15 -1 -0.03 0.23
15 7 1 0 0.16
-1 7 15 0.01 0.18
-1 -15 7 -0.25 0.29
-15 -7 1 -0.09 0.2
7 1 15 -0.04 0.13
7 1 15 0.03 0.17
-1 15 -7 -0.09 0.37
7 -15 1 -0.06 0.21
7 15 -1 0 0.26
1 15 7 -0.22 0.25
-7 -1 15 -0.08 0.23
1 -15 -7 -0.51 0.33
-15 -1 7 -0.14 0.14
1 -7 -15 -0.06 0.16
1 7 15 0.04 0.2
15 7 -1 -0.09 0.19
-7 1 15 -0.08 0.23
-15 -7 -1 -0.04 0.19
-15 -1 7 -0.3 0.18
-1 -7 15 0.14 0.24
-7 1 15 -0.16 0.19
7 -1 15 -0.4 0.17
-7 -15 1 -0.11 0.24
15 -7 1 -0.04 0.13
-7 15 -1 -0.08 0.26
-15 7 1 -0.14 0.15
7 -15 -1 -0.05 0.21
-1 -15 -7 -0.24 0.2
7 15 1 -0.16 0.25
-1 7 -15 -0.03 0.21
1 15 -7 -0.08 0.33
7 -1 15 -0.13 0.12
7 2 15 -0.06 0.17
7 15 -2 -0.03 0.25
-15 -7 2 -0.06 0.19
-15 2 7 -0.25 0.17
7 2 15 -0.03 0.13
15 -7 -2 -0.11 0.14
2 -15 -7 -0.2 0.21
2 15 7 0.11 0.23
-7 -15 -2 -0.08 0.22
2 -7 15 -0.14 0.23
-7 15 2 -0.27 0.24
-15 2 7 -0.32 0.14
-2 -7 -15 -0.17 0.14
7 -15 2 -0.22 0.22
-2 -15 7 -0.09 0.25
-2 15 -7 -0.05 0.27
-15 7 -2 -0.22 0.16
-2 7 15 -0.18 0.18
-7 -2 15 0.11 0.24
15 7 2 0.14 0.16
2 7 -15 -0.2 0.23
15 7 -2 -0.02 0.18
7 15 2 -0.06 0.24
-7 2 15 -0.13 0.18
-2 -15 -7 0.04 0.2
7 -15 -2 -0.26 0.21
-15 -7 -2 -0.21 0.18
7 -2 15 -0.32 0.18
-7 -15 2 -0.41 0.23
-7 15 -2 -0.56 0.25
-2 7 -15 -0.05 0.21
15 -7 2 0.05 0.12
2 -7 -15 -0.15 0.15
2 7 15 0.23 0.18
-2 -7 15 -0.04 0.24
-15 7 2 0.08 0.16
-15 -2 7 -0.21 0.19
-7 2 15 -0.07 0.21
2 -15 7 -0.06 0.27
2 15 -7 0.02 0.28
-2 15 7 -0.01 0.26
-7 -3 15 -0.1 0.24
15 7 3 -0.19 0.15
-15 7 -3 -0.29 0.16
-15 -7 3 -0.05 0.21
7 15 -3 0.05 0.27
15 -7 -3 -0.08 0.14
-15 3 7 0.09 0.14
-7 -15 -3 -0.27 0.21
-7 3 -15 -0.1 0.16
3 -7 15 0.06 0.23
-3 -7 -15 -0.09 0.14
-3 -15 7 -0.14 0.23
-3 15 -7 -0.01 0.25
3 -15 -7 -0.08 0.19
7 3 15 -0.29 0.16
7 3 15 -0.02 0.14
3 7 -15 -0.72 0.42
-15 3 7 -0.29 0.16
7 -15 3 -0.34 0.21
3 15 7 0.02 0.24
-15 7 3 0.06 0.16
7 3 -15 -0.13 0.21
-3 15 7 -0.06 0.24
15 -7 3 -0.18 0.12
3 -15 7 0 0.23
3 15 -7 -0.3 0.24
-3 7 -15 0.04 0.19
7 -3 15 -0.33 0.18
-3 -7 15 -0.19 0.4
-7 3 15 -0.03 0.17
-7 -15 3 -0.29 0.23
-15 -3 7 -0.28 0.18
-7 3 15 -0.32 0.2
3 7 15 0.01 0.17
7 15 3 0.13 0.25
-7 15 -3 -0.09 0.25
-15 -7 -3 0.08 0.16
-3 -15 -7 0.19 0.19
15 7 -3 -0.16 0.19
4 15 7 -0.12 0.25
-4 -15 7 -0.03 0.24
-15 4 7 -0.15 0.16
-7 -4 15 0.1 0.24
-7 4 -15 0.23 0.17
-4 7 15 0.05 0.17
15 4 -7 -0.02 0.19
-7 15 4 -0.44 0.25
-4 -7 -15 -0.02 0.14
-4 15 -7 -0.21 0.24
4 7 -15 -0.01 0.22
-15 -7 4 0 0.21
-15 4 7 -0.1 0.16
7 -15 4 0.01 0.22
15 7 4 -0.1 0.14
-7 -15 -4 0.06 0.21
4 -15 -7 -0.3 0.18
7 4 15 0.12 0.15
7 4 15 -0.11 0.15
15 -7 -4 0.11 0.14
4 -7 15 0.1 0.22
-15 7 -4 -0.08 0.17
7 4 -15 -0.27 0.23
7 -15 -4 -0.01 0.19
7 -4 15 -0.14 0.19
-15 -4 7 -0.25 0.2
15 -7 4 0.07 0.12
-15 -7 -4 -0.13 0.14
-7 15 -4 -0.08 0.25
-4 -7 15 -0.1 0.25
-4 7 -15 -0.05 0.19
-7 4 15 -0.21 0.22
4 -7 -15 0.03 0.15
-15 7 4 -0.02 0.15
-4 15 7 0 0.23
4 7 15 0.22 0.17
-15 4 -7 -0.04 0.1
-7 4 15 -0.02 0.17
-4 -15 -7 -0.19 0.19
4 -15 7 -0.33 0.23
4 15 -7 0.03 0.28
15 7 -4 0.07 0.2
7 15 4 -0.25 0.24
-15 -7 5 0.18 0.21
-5 7 15 -0.08 0.18
-7 -15 -5 0.11 0.2
7 5 15 -0.05 0.15
-15 7 -5 0.22 0.17
15 -5 7 -0.15 0.08
-7 -5 15 -0.09 0.23
-15 5 7 -0.3 0.15
7 5 15 -0.18 0.15
15 -7 -5 -0.17 0.14
7 -15 5 -0.11 0.22
7 15 -5 0.03 0.27
-5 -7 -15 -0.12 0.14
15 5 -7 0.13 0.2
5 15 7 -0.04 0.24
-5 -15 7 -0.13 0.24
-7 5 -15 -0.18 0.18
5 -7 15 -0.34 0.21
15 7 5 -0.11 0.14
5 7 -15 0.11 0.21
-7 15 5 -0.21 0.22
-5 15 -7 -0.21 0.25
5 -15 -7 -0.03 0.18
-7 5 15 -0.16 0.17
5 -15 7 0.3 0.23
5 7 15 -0.13 0.16
-7 5 15 0.28 0.21
7 15 5 0.19 0.24
-5 15 7 0.16 0.22
7 -5 15 0.12 0.2
-7 15 -5 0.35 0.24
-7 -15 5 -0.02 0.24
15 7 -5 -0.02 0.19
-5 -7 15 -0.05 0.24
-5 7 -15 -0.09 0.19
7 -15 -5 0.09 0.18
-15 -5 7 -0.38 0.21
15 -7 5 -0.11 0.12
5 15 -7 -0.45 0.25
-15 7 5 -0.16 0.16
-5 -15 -7 -0.26 0.19
-15 -7 -5 -0.04 0.13
7 5 -15 0.01 0.22
-15 5 -7 -0.15 0.13
5 -7 -15 -0.17 0.17
-7 -6 15 -0.06 0.25
-6 15 -7 -0.17 0.25
-6 7 15 -0.21 0.18
6 -7 15 0.02 0.22
6 7 -15 0.06 0.22
15 7 6 0 0.13
-15 -6 -7 -0.15 0.09
-6 -7 -15 0.02 0.13
6 15 7 0.18 0.24
7 6 15 -0.15 0.16
7 15 -6 0.13 0.25
-15 6 7 -0.16 0.17
15 -6 7 0.06 0.11
15 6 -7 -0.11 0.2
15 -7 -6 -0.18 0.14
-7 6 -15 -0.12 0.17
-15 -7 6 0 0.22
-7 -15 -6 -0.14 0.19
-15 7 -6 -0.05 0.17
6 -15 -7 -0.14 0.18
-6 -15 7 -0.11 0.25
7 -15 6 -0.01 0.22
-7 15 6 0.09 0.24
-6 -15 -7 -0.08 0.19
6 7 15 -0.2 0.16
6 -15 7 -0.14 0.22
-6 -7 15 -0.46 0.25
-15 -6 7 0.02 0.22
-6 15 7 0.05 0.22
6 15 -7 0.22 0.25
-7 6 15 0.07 0.19
7 6 -15 -0.19 0.22
-6 7 -15 0.04 0.18
7 -6 15 -0.04 0.21
15 6 7 -0.05 0.1
7 -15 -6 0.05 0.17
-7 15 -6 -0.33 0.24
15 -7 6 -0.02 0.12
15 7 -6 0.05 0.21
-15 7 6 -0.25 0.16
-15 6 -7 0 0.15
-15 -7 -6 0 0.12
7 15 6 0.07 0.24
-7 -15 6 0.05 0.23
-15 -7 7 -0.09 0.22
-15 -7 -7 -0.16 0.11
15 -7 7 -0.07 0.12
15 7 -7 -0.02 0.22
-15 7 7 -0.02 0.17
-7 15 -7 0.19 0.26
-7 -15 -7 -0.12 0.19
7 -15 7 -0.31 0.22
-7 7 15 -0.32 0.18
7 -15 -7 -0.41 0.18
15 -7 -7 -0.09 0.15
-7 15 7 -0.02 0.23
-15 7 -7 0.08 0.17
15 7 7 -0.11 0.13
-7 7 -15 0.13 0.18
7 15 -7 0.07 0.27
-7 -15 7 0.1 0.25
-7 -7 -15 -0.04 0.13
7 7 15 -0.41 0.16
7 -7 15 -0.29 0.2
7 7 -15 -0.14 0.23
-7 -7 15 0.04 0.26
7 15 7 -0.27 0.24
15 8 0 12.29 1.07
0 15 8 9.25 1.17
15 -8 0 13.46 1.02
0 15 -8 9.58 1.14
0 -15 8 11.29 1.15
8 0 15 13.05 1.01
-8 -15 0 12.65 1.13
-8 0 15 14.3 1.04
0 -8 15 12.28 1.16
-15 -8 0 13.41 1.07
-15 8 0 12.14 1.05
8 0 15 13.57 1.06
0 8 -15 11.2 1.11
-15 0 8 13.45 1.06
8 15 0 12.48 1.15
0 -8 -15 13.6 1.04
8 -15 0 12.27 1.08
0 -15 -8 9.51 1.08
-15 0 8 13.59 1.02
-8 15 0 13.4 1.14
0 8 15 13.34 1.08
-15 8 -1 3.69 0.46
8 -15 1 3.58 0.5
-8 15 1 2.47 0.36
1 -8 15 2.31 0.36
-1 15 -8 1.42 0.37
-15 -8 1 3.76 0.53
1 -15 -8 2.16 0.3
15 -8 -1 3.95 0.4
-8 -15 -1 2.46 0.33
-8 -1 15 2.45 0.34
-8 -1 15 3.23 0.44
8 15 -1 2.02 0.34
-1 -8 -15 3.61 0.45
-1 8 15 1.87 0.3
15 8 1 3.39 0.48
8 1 15 3.92 0.46
8 1 15 3.72 0.36
1 8 -15 1.92 0.35
-15 1 8 3.93 0.47
-1 -15 8 2.52 0.36
-1 8 -15 2.07 0.33
1 15 -8 1.91 0.36
-8 1 15 3.09 0.45
-15 -1 8 2.3 0.31
-15 -8 -1 3.57 0.51
-1 15 8 2.62 0.35
-8 1 15 2.64 0.34
1 -15 8 2.12 0.37
15 8 -1 3.6 0.51
8 -1 15 3.75 0.48
8 -1 15 3.28 0.36
1 8 15 3.9 0.5
8 -15 -1 2.56 0.33
-1 -8 15 2.56 0.51
-8 -15 1 2.68 0.35
-8 15 -1 2.75 0.36
-15 8 1 3.52 0.46
1 -8 -15 3.7 0.43
15 -8 1 3.54 0.39
8 15 1 1.98 0.35
8 2 15 1.21 0.18
-8 -2 15 1.49 0.28
2 -8 15 1.13 0.27
2 8 -15 0.51 0.29
15 8 2 1.05 0.21
-8 15 2 1.29 0.35
-2 -8 -15 1.2 0.2
15 -8 -2 1.62 0.19
2 -15 -8 1.41 0.24
-15 2 8 1.67 0.24
-15 2 8 1.57 0.19
-8 -15 -2 1.13 0.26
-2 -15 8 0.94 0.27
8 2 15 1.22 0.2
-15 -8 2 1.07 0.25
8 15 -2 0.9 0.3
2 15 8 1.13 0.34
8 -15 2 1.41 0.26
-2 15 -8 0.36 0.47
-15 8 -2 1 0.22
-2 15 8 1.26 0.28
2 15 -8 0.77 0.32
-8 -15 2 1.17 0.28
2 8 15 0.93 0.22
-15 8 2 1.17 0.21
-8 15 -2 1.56 0.28
2 -15 8 1.21 0.31
-15 -8 -2 1.32 0.22
-2 -15 -8 1.02 0.26
15 -8 2 1.47 0.19
-2 8 -15 0.92 0.27
-8 2 15 1.2 0.27
-8 2 15 1.36 0.22
8 15 2 1.1 0.29
8 -2 15 1.12 0.23
-2 -8 15 1.16 0.31
-15 -2 8 1.61 0.19
-15 -2 8 1.06 0.24
15 8 -2 1.16 0.23
3 8 -15 1.29 0.27
-15 -8 3 0.97 0.25
-15 3 8 1.59 0.2
-3 -8 -15 1.63 0.21
-3 -15 8 1.5 0.3
-15 3 8 1.65 0.23
-8 15 3 1.13 0.35
3 -15 -8 1.56 0.24
8 15 -3 0.71 0.34
15 8 3 1.48 0.22
-8 -3 15 1.51 0.29
-8 3 -15 1.56 0.21
3 15 8 1.14 0.29
-15 8 -3 1.42 0.23
8 -15 3 1.74 0.27
8 3 15 1.57 0.21
8 3 15 2.57 0.33
15 -8 -3 1.57 0.2
-3 8 15 1.38 0.24
3 -8 15 1.39 0.28
-8 -15 -3 1.01 0.25
15 -8 3 1.62 0.19
-3 -15 -8 1.45 0.24
-3 -8 15 1.25 0.31
-15 8 3 1.58 0.22
8 3 -15 1.83 0.28
3 15 -8 1.29 0.3
-8 15 -3 1.2 0.29
-3 15 8 1.52 0.28
-3 8 -15 1.24 0.26
8 -3 15 1.73 0.24
3 -8 -15 1.92 0.22
-8 -15 3 1.48 0.35
15 8 -3 1.49 0.26
-8 3 15 1.7 0.23
-15 -8 -3 1.58 0.22
-15 -3 8 1.14 0.25
8 15 3 1.3 0.29
3 8 15 1.62 0.23
-8 3 15 1.74 0.26
8 -15 -3 1.52 0.26
-4 -15 8 2.33 0.36
-15 -8 4 4.19 0.54
-8 4 -15 3.66 0.45
8 15 -4 2.45 0.39
-8 15 4 2.2 0.33
8 -15 4 2.57 0.33
-4 15 -8 2.37 0.53
4 15 8 2.41 0.34
4 -8 15 2.47 0.33
-15 8 -4 3.47 0.46
8 4 15 3.29 0.4
-4 8 15 3.48 0.48
-15 4 8 3.5 0.4
-8 -4 15 2.83 0.35
8 4 15 3.75 0.43
4 -15 -8 3.77 0.46
-15 4 8 3.97 0.48
15 8 4 3.74 0.43
-8 -15 -4 1.87 0.31
-4 -8 -15 3.23 0.4
15 4 -8 4.12 0.51
4 8 -15 2.32 0.34
-8 -15 4 1.8 0.35
8 -4 15 4.41 0.51
8 -15 -4 1.89 0.3
-4 15 8 1.69 0.32
-4 -15 -8 3.54 0.49
-4 8 -15 2.57 0.32
4 8 15 4.17 0.47
-8 4 15 3.74 0.53
8 15 4 2.33 0.34
-15 -4 8 3.89 0.55
4 15 -8 2.28 0.36
15 8 -4 4.07 0.51
-15 -8 -4 2.98 0.41
-4 -8 15 1.88 0.35
-15 8 4 3.21 0.45
-8 15 -4 2.2 0.34
8 4 -15 3.83 0.55
-5 -15 8 -0.12 0.27
15 -5 8 -0.04 0.09
-15 5 8 -0.11 0.16
8 5 15 -0.07 0.15
-8 -15 -5 0.16 0.21
8 -15 5 0.02 0.23
8 15 -5 -0.09 0.26
-8 15 5 -0.09 0.24
5 15 8 0.06 0.26
-5 15 -8 0.09 0.3
5 8 -15 -0.06 0.25
8 5 15 -0.18 0.16
-8 5 -15 0.1 0.18
-15 5 8 0.08 0.18
-15 8 -5 0.16 0.19
-8 -5 15 -0.04 0.23
15 5 -8 -0.29 0.21
-15 -8 5 -0.38 0.22
5 -15 -8 -0.16 0.19
15 -8 -5 0.05 0.15
5 -8 15 -0.08 0.23
-5 -8 -15 -0.1 0.15
15 8 5 -0.15 0.16
-5 8 15 0.1 0.19
5 -15 8 -0.04 0.36
-8 15 -5 -0.02 0.24
8 -15 -5 -0.34 0.18
-8 5 15 0.04 0.18
5 8 15 -0.27 0.17
-5 -15 -8 -0.24 0.18
-5 8 -15 -0.2 0.21
5 -8 -15 -0.05 0.16
8 -5 15 -0.07 0.2
-15 8 5 -0.08 0.17
-15 -8 -5 -0.03 0.15
-5 15 8 0.11 0.23
5 15 -8 0.01 0.26
-15 -5 8 0.39 0.22
-8 5 15 -0.03 0.2
15 8 -5 -0.09 0.21
8 5 -15 0.04 0.23
-8 -15 5 0.07 0.25
-15 5 -8 -0.1 0.12
15 -8 5 -0.28 0.13
8 15 5 -0.33 0.24
-5 -8 15 -0.16 0.24
15 -6 8 0.02 0.11
-15 6 8 -0.09 0.17
15 8 6 -0.02 0.16
-8 -15 -6 -0.15 0.19
-6 15 -8 -0.02 0.26
6 -15 -8 -0.02 0.18
-6 -8 -15 -0.09 0.14
8 15 -6 -0.14 0.26
-8 -6 15 -0.09 0.25
-6 -15 8 0.33 0.26
8 -15 6 0.09 0.23
15 -8 -6 -0.06 0.15
-15 -8 6 -0.08 0.22
8 6 15 -0.06 0.16
6 15 8 0.07 0.25
-6 8 15 0.32 0.21
-15 -6 -8 0.12 0.08
-15 8 -6 0.08 0.18
-8 6 -15 0.13 0.18
15 6 -8 0.03 0.22
-8 15 6 -0.16 0.23
6 8 -15 0.29 0.24
6 -8 15 0.02 0.22
-6 8 -15 0.04 0.2
6 15 -8 0.16 0.27
-15 -8 -6 0.04 0.13
15 -8 6 -0.05 0.14
15 8 -6 -0.17 0.23
-6 -15 -8 -0.1 0.19
8 -15 -6 0.23 0.19
-8 -15 6 0.01 0.25
15 6 8 0.12 0.11
-8 6 15 -0.27 0.24
-6 -8 15 -0.18 0.26
6 -15 8 -0.07 0.29
8 -6 15 0.01 0.21
6 -8 -15 0.05 0.17
-6 15 8 0.13 0.22
8 15 6 0.09 0.25
6 8 15 0.08 0.18
-8 6 15 0.13 0.2
-15 -6 8 0.22 0.22
8 6 -15 0.02 0.24
-15 6 -8 -0.04 0.15
-8 15 -6 0.24 0.26
-15 8 6 0.15 0.18
7 8 -15 0.06 0.24
15 8 7 -0.27 0.16
-7 8 15 0.03 0.2
-7 -8 -15 0.02 0.14
-7 15 -8 -0.16 0.26
8 7 15 0.13 0.18
-8 -15 -7 0.05 0.21
15 7 -8 -0.1 0.23
-8 7 -15 -0.12 0.19
7 -15 -8 0.13 0.19
-15 7 8 0.03 0.19
7 -8 15 -0.08 0.23
-7 -15 8 0.11 0.26
-8 15 7 0.07 0.25
7 15 8 0.05 0.25
8 -15 7 0.03 0.23
8 15 -7 0.31 0.28
-15 -8 7 0 0.24
15 -8 -7 -0.06 0.16
15 -7 8 0.19 0.13
-15 8 -7 0.23 0.19
-15 -7 -8 0.18 0.11
-8 -7 15 0.13 0.29
-15 8 7 0.16 0.19
-8 7 15 0.22 0.19
-7 -15 -8 0.11 0.2
-15 -8 -7 0.13 0.13
15 -8 7 -0.12 0.14
15 8 -7 0.23 0.23
-8 -15 7 -0.25 0.26
7 -8 -15 0.2 0.18
15 -7 -8 -0.04 0.16
-15 -7 8 0.16 0.25
-15 7 -8 0.25 0.17
-7 8 -15 0.24 0.2
15 7 8 0.14 0.14
-7 15 8 0.05 0.23
8 15 7 -0.21 0.25
7 -15 8 0.09 0.26
7 15 -8 -0.3 0.27
8 -15 -7 0.05 0.2
8 -7 15 0.15 0.22
8 7 -15 -0.02 0.23
-7 -8 15 -0.26 0.24
-8 15 -7 0.05 0.26
7 8 15 0.02 0.19
15 -8 8 0.01 0.15
-8 8 15 -0.27 0.2
15 -8 -8 -0.04 0.19
-15 8 -8 -0.08 0.2
-8 -15 -8 -0.29 0.21
8 -15 8 -0.07 0.24
8 -8 -15 -0.17 0.18
8 -8 15 -0.2 0.23
8 8 -15 0.26 0.26
8 8 15 -0.38 0.19
8 -15 -8 -0.12 0.17
15 8 8 -0.14 0.16
-8 8 -15 -0.04 0.2
-8 -8 15 0.01 0.27
-8 15 8 -0.02 0.26
8 15 -8 0.15 0.27
-8 15 -8 -0.06 0.26
-8 -8 -15 -0.17 0.14
8 15 8 -0.42 0.26
15 8 -8 -0.38 0.26
-15 -8 -8 -0.04 0.12
-15 -8 8 -0.31 0.28
-8 -15 8 0.41 0.26
-9 -15 0 -0.28 0.26
9 0 15 -0.11 0.18
9 -15 0 -0.08 0.22
15 9 0 -0.26 0.21
-15 9 0 -0.08 0.21
-9 15 0 -0.3 0.27
0 -9 -15 -0.07 0.2
15 -9 0 0.04 0.17
0 -15 9 -0.26 0.27
-15 -9 0 -0.34 0.23
-9 0 15 -0.36 0.18
0 -15 -9 -0.08 0.21
-9 0 15 -0.37 0.25
0 15 -9 -0.15 0.31
0 15 9 0.09 0.27
-15 0 9 -0.22 0.17
0 -9 15 -0.12 0.45
0 9 15 0 0.23
9 0 15 -0.04 0.13
-15 0 9 -0.46 0.22
9 15 0 0.04 0.27
1 -15 -9 0.08 0.21
-1 9 15 -0.27 0.25
15 -9 -1 -0.04 0.16
15 9 1 -0.19 0.2
-15 -9 1 -0.1 0.23
-15 9 -1 -0.15 0.21
-1 -15 9 -0.21 0.28
-9 -1 15 -0.27 0.26
-9 -1 15 -0.57 0.19
9 15 -1 -0.05 0.28
-15 1 9 -0.23 0.17
1 15 9 -0.49 0.26
1 -9 15 -0.1 0.28
1 9 -15 -0.15 0.26
9 1 15 -0.49 0.18
9 1 15 -0.18 0.13
-9 15 1 -0.54 0.3
9 -15 1 -0.16 0.22
-15 1 9 -0.27 0.21
-9 -15 -1 -0.35 0.24
-1 15 -9 0.2 0.3
-1 -9 -15 -0.05 0.18
1 -15 9 0.1 0.28
-9 1 15 -0.24 0.23
-1 -15 -9 -0.13 0.2
1 15 -9 -0.21 0.27
-9 15 -1 -0.28 0.27
9 -15 -1 -0.43 0.31
-15 -9 -1 -0.41 0.22
-1 -9 15 0.08 0.27
-1 15 9 -0.02 0.27
-15 9 1 -0.31 0.2
15 -9 1 -0.29 0.16
-15 -1 9 -0.26 0.16
15 9 -1 -0.38 0.22
1 9 15 -0.02 0.21
9 -1 15 -0.3 0.19
-15 -1 9 -0.39 0.23
1 -9 -15 -0.35 0.2
9 15 1 -0.39 0.28
-9 1 15 -0.2 0.18
-9 -15 1 -0.4 0.26
9 -1 15 -0.14 0.13
-1 9 -15 -0.05 0.24
-2 -9 -15 0.37 0.18
-15 -9 2 0.79 0.24
-15 2 9 0.17 0.17
-9 15 2 -0.02 0.45
-15 9 -2 0.11 0.21
-2 9 15 0.62 0.22
2 -15 -9 0.67 0.22
2 -9 15 -0.01 0.26
2 9 -15 0.64 0.28
9 2 15 0.27 0.15
-9 -2 15 0.34 0.25
9 2 15 0.46 0.18
2 15 9 0.47 0.31
15 9 2 0.27 0.2
9 -15 2 0.25 0.22
9 15 -2 0.5 0.29
15 -9 -2 0.43 0.18
-2 -15 9 0.82 0.28
-2 15 -9 0.57 0.29
-9 -15 -2 0.15 0.24
-15 2 9 0.22 0.21
-2 -15 -9 0.56 0.23
2 15 -9 0.91 0.29
-9 2 15 0.14 0.21
9 -2 15 0.15 0.2
-2 15 9 0.13 0.25
15 -9 2 0.2 0.16
2 9 15 0.48 0.22
9 -15 -2 0.7 0.27
-15 9 2 0.43 0.2
-15 -2 9 0.23 0.24
9 15 2 0.4 0.27
-9 15 -2 0.07 0.26
2 -9 -15 0.53 0.19
-2 -9 15 0.32 0.28
-2 9 -15 0.14 0.25
-9 2 15 0.3 0.24
-15 -2 9 0.43 0.17
15 9 -2 0.35 0.23
9 -2 15 0.41 0.13
-15 -9 -2 0.49 0.21
-9 -15 2 0.41 0.28
2 -15 9 0.38 0.27
-3 -15 9 0.38 0.29
-15 3 9 0 0.2
-9 -3 15 0.44 0.27
9 3 15 0.05 0.17
15 9 3 0.14 0.2
-9 15 3 -0.28 0.26
3 9 -15 -0.09 0.24
3 -9 15 0.17 0.25
-15 3 9 0.39 0.18
-9 -15 -3 0.21 0.23
-15 -9 3 0.08 0.24
-3 15 -9 0.42 0.29
-3 9 15 0.21 0.22
3 -15 -9 0.07 0.2
-15 9 -3 0.18 0.2
9 -15 3 0.14 0.22
15 -9 -3 -0.17 0.16
-3 -9 -15 0.15 0.17
9 3 15 -0.08 0.15
-9 3 15 0.11 0.19
15 9 -3 -0.11 0.22
-3 -9 15 0.21 0.26
-9 3 15 0.12 0.23
-15 9 3 0.27 0.19
-3 15 9 0.15 0.24
-15 -3 9 0.1 0.24
9 -3 15 -0.05 0.2
-9 15 -3 0.45 0.27
-3 9 -15 0.21 0.23
3 -15 9 -0.15 0.25
3 15 -9 0.22 0.29
9 15 3 0.61 0.27
3 -9 -15 -0.03 0.17
3 9 15 0.06 0.2
9 3 -15 -0.27 0.24
-15 -9 -3 0.11 0.2
9 -15 -3 -0.06 0.22
15 -9 3 -0.03 0.16
9 -15 4 -0.41 0.22
15 -9 -4 0.05 0.15
-9 15 4 -0.05 0.24
-15 9 -4 -0.32 0.2
-9 -15 -4 -0.12 0.22
-4 15 -9 -0.18 0.28
15 4 -9 -0.22 0.22
-15 -9 4 -0.07 0.23
9 4 15 -0.18 0.16
9 4 15 -0.14 0.15
-15 4 9 0.14 0.2
4 -15 -9 -0.09 0.19
-4 -15 9 -0.01 0.27
4 -9 15 0.06 0.23
4 15 9 -0.08 0.31
-15 4 9 0.24 0.18
9 15 -4 -0.01 0.28
-4 -9 -15 0.1 0.16
4 9 -15 -0.09 0.23
15 9 4 -0.08 0.18
-9 4 -15 -0.14 0.16
-9 -4 15 -0.3 0.26
-4 9 15 0.12 0.21
-15 -9 -4 -0.01 0.17
9 4 -15 0.01 0.23
-4 15 9 0.03 0.24
9 -4 15 0.02 0.2
-9 4 15 -0.12 0.21
4 15 -9 -0.24 0.27
15 9 -4 0.21 0.22
-15 9 4 0.05 0.19
4 -9 -15 0.12 0.18
-9 4 15 -0.03 0.19
-9 15 -4 -0.47 0.25
9 15 4 0.18 0.25
15 -9 4 -0.2 0.15
9 -15 -4 -0.35 0.19
-4 -9 15 0.24 0.25
-4 9 -15 -0.13 0.22
-4 -15 -9 0.3 0.26
-9 -15 4 -0.1 0.25
-15 -4 9 0.08 0.23
4 9 15 0.28 0.19
4 -15 9 0.33 0.24
5 15 9 -0.29 0.25
-15 5 9 0.16 0.18
-15 -9 5 -0.16 0.22
-5 -9 -15 -0.01 0.15
-15 9 -5 -0.32 0.19
15 9 5 -0.15 0.18
-5 15 -9 0.06 0.34
15 5 -9 0.03 0.23
9 15 -5 0.18 0.27
9 5 15 -0.2 0.15
5 -15 -9 -0.18 0.19
5 -9 15 -0.3 0.23
5 9 -15 -0.39 0.22
9 5 15 -0.1 0.15
-9 -15 -5 -0.04 0.22
9 -15 5 -0.26 0.23
-9 15 5 -0.09 0.25
-9 5 -15 -0.12 0.17
15 -5 9 -0.16 0.09
-5 -15 9 -0.3 0.26
-15 5 9 0.01 0.19
-5 9 15 0.07 0.2
-9 -5 15 0.04 0.23
15 -9 -5 0.07 0.16
5 9 15 -0.14 0.19
15 -9 5 -0.07 0.15
9 -5 15 -0.3 0.2
-15 -9 -5 -0.03 0.16
5 -9 -15 -0.12 0.18
-9 5 15 0.11 0.2
-5 15 9 -0.22 0.23
-5 9 -15 -0.21 0.22
-9 -15 5 -0.3 0.24
-15 -5 9 -0.03 0.22
-5 -15 -9 -0.21 0.19
-15 9 5 -0.17 0.2
-15 5 -9 -0.19 0.11
9 15 5 -0.02 0.25
5 -15 9 -0.21 0.24
-9 5 15 -0.11 0.19
9 -15 -5 0.09 0.19
9 5 -15 -0.03 0.25
-5 -9 15 0.06 0.26
-9 15 -5 -0.05 0.25
5 15 -9 0.23 0.27
15 9 -5 0.14 0.24
15 -6 9 0.09 0.12
9 6 15 0.09 0.16
9 6 15 0.17 0.17
-15 -6 -9 0.18 0.08
6 9 -15 -0.02 0.23
6 15 9 -0.04 0.26
-15 -9 6 0.07 0.25
9 15 -6 0 0.27
15 -9 -6 0.04 0.17
6 -9 15 -0.38 0.24
9 -15 6 0.12 0.24
-9 -6 15 0.19 0.25
-9 6 -15 0.27 0.18
-6 -15 9 0.32 0.26
-9 15 6 -0.07 0.23
6 -15 -9 -0.09 0.18
-6 -9 -15 0.05 0.16
-15 9 -6 0.2 0.2
15 6 -9 0.06 0.24
15 9 6 0.36 0.19
-6 15 -9 -0.31 0.46
-6 9 15 0.06 0.22
-9 -15 -6 0.01 0.2
6 -9 -15 0.32 0.17
6 9 15 -0.13 0.2
-15 9 6 -0.03 0.19
15 9 -6 -0.04 0.23
-6 15 9 -0.02 0.24
6 15 -9 -0.19 0.26
-15 -9 -6 0.08 0.14
-15 6 -9 0.1 0.14
-6 -9 15 0.44 0.27
-9 -15 6 0.07 0.27
-15 -6 9 0.3 0.26
9 -6 15 0.13 0.21
6 -15 9 0.68 0.32
9 15 6 0.05 0.25
-9 15 -6 -0.4 0.26
9 -15 -6 -0.16 0.21
-9 6 15 -0.26 0.2
15 -9 6 -0.04 0.15
-6 9 -15 -0.15 0.21
9 6 -15 0.19 0.24
-9 6 15 0.24 0.22
-6 -15 -9 0.13 0.19
-15 -9 7 0.1 0.25
-9 15 7 0.45 0.25
-9 7 -15 0.12 0.19
7 15 9 0.12 0.26
9 -15 7 -0.15 0.25
-15 9 -7 -0.05 0.21
-9 -7 15 -0.03 0.29
-15 -7 -9 0.04 0.1
9 7 15 0.03 0.19
15 9 7 0.09 0.18
-15 7 9 0.25 0.2
7 9 -15 0.24 0.25
-7 -15 9 0.02 0.27
15 7 -9 0.08 0.3
7 -15 -9 0.2 0.18
-7 -9 -15 0.12 0.16
9 15 -7 -0.34 0.27
15 -7 9 0.08 0.14
7 -9 15 -0.12 0.24
-7 9 15 0.11 0.23
-9 -15 -7 0.1 0.22
15 -9 7 -0.05 0.16
-9 -15 7 0.36 0.27
-9 15 -7 0.43 0.27
-15 -9 -7 -0.04 0.15
-7 -15 -9 0.19 0.2
-7 -9 15 0.04 0.27
-7 9 -15 -0.18 0.22
7 -9 -15 0.16 0.17
-7 15 9 0.44 0.24
15 7 9 0.12 0.15
-15 7 -9 0.36 0.17
9 -7 15 0.22 0.23
9 7 -15 -0.14 0.23
-9 7 15 0.15 0.21
7 15 -9 0.04 0.28
-15 -7 9 0.37 0.31
-15 9 7 -0.25 0.28
9 -15 -7 -0.03 0.18
15 9 -7 -0.16 0.24
7 -15 9 0.26 0.46
9 15 7 -0.09 0.26
7 9 15 0.16 0.21
-9 -15 -8 -0.14 0.21
-15 9 -8 0.13 0.21
9 8 15 0.06 0.19
-15 -8 -9 0.05 0.12
-15 -9 8 -0.05 0.26
15 -8 9 0.24 0.17
8 -15 -9 -0.08 0.2
15 -9 -8 0.05 0.17
8 15 9 -0.1 0.26
-8 -9 -15 0.3 0.16
8 9 -15 0.53 0.26
-9 -8 15 0.24 0.29
-9 15 8 0.14 0.25
-15 8 9 0.16 0.21
-8 9 15 -0.08 0.22
-9 8 -15 0.15 0.21
-8 15 -9 0.1 0.48
8 -9 15 0.05 0.24
9 -15 8 0.04 0.26
15 8 -9 0.27 0.26
9 15 -8 0 0.3
-8 -15 9 0.08 0.28
15 9 8 0.34 0.19
15 8 9 0.21 0.17
15 -9 8 0.34 0.17
9 -8 15 0.03 0.24
-15 9 8 0.14 0.22
-9 8 15 0.11 0.2
-8 -15 -9 0.07 0.2
-8 9 -15 0.16 0.22
-9 -8 -15 0.14 0.14
-15 -8 9 0.31 0.26
-15 8 -9 -0.21 0.19
-8 -9 15 0.08 0.29
8 9 15 -0.08 0.2
-9 -15 8 0.22 0.28
-9 15 -8 -0.26 0.28
15 9 -8 0.03 0.26
9 -15 -8 0.54 0.2
8 15 -9 0.38 0.3
-15 -9 -8 0.11 0.15
9 15 8 0.1 0.27
15 -8 -9 -0.2 0.18
-8 15 9 0.12 0.26
9 8 -15 0.42 0.26
8 -9 -15 0.18 0.18
-15 9 -9 -0.59 0.21
-9 -9 15 0.15 0.3
15 -9 -9 0.04 0.18
-9 15 -9 -0.08 0.35
-9 15 9 0 0.24
-9 9 -15 -0.07 0.22
15 -9 9 -0.06 0.17
9 15 9 -0.04 0.28
-9 -15 -9 -0.23 0.21
9 9 15 -0.07 0.22
15 9 9 0.02 0.19
-9 9 15 -0.06 0.23
9 -9 -15 -0.01 0.19
-15 -9 -9 -0.11 0.14
-15 -9 9 -0.14 0.27
-15 9 9 -0.25 0.23
9 -15 -9 0.18 0.2
9 9 -15 -0.16 0.26
15 9 -9 -0.39 0.25
9 15 -9 0.1 0.28
-9 -9 -15 -0.09 0.15
9 -9 15 -0.05 0.24
-9 -15 9 -0.24 0.3
10 -15 0 2.62 0.38
10 15 0 2.81 0.37
-10 0 15 5 0.64
10 0 15 2.53 0.29
-15 0 10 4.87 0.61
0 10 -15 2.22 0.37
0 10 15 2.27 0.33
0 -10 -15 2.6 0.31
0 -15 10 2.18 0.38
0 15 -10 2.73 0.39
-15 10 0 2.39 0.32
0 -10 15 2.56 0.38
-15 0 10 3.52 0.45
-15 -10 0 2.59 0.34
0 15 10 2.34 0.35
15 10 0 4.28 0.59
15 -10 0 3.7 0.48
0 -15 -10 2.74 0.33
-10 -15 0 2.78 0.36
-10 15 0 2.69 0.39
-15 1 10 5.35 0.69
15 10 1 4.74 0.67
-10 -1 15 6.74 0.77
-15 -10 1 5.45 0.7
10 1 15 5.11 0.52
-1 10 15 5.32 0.66
-1 -15 10 5.57 0.76
10 1 15 4.82 0.59
10 -15 1 4.64 0.63
15 -10 -1 4.5 0.58
1 -15 -10 5.62 0.64
-10 -1 15 5.05 0.6
1 15 10 5.09 0.72
-15 1 10 5.32 0.61
-15 10 -1 6.12 0.63
-10 -15 -1 5.3 0.73
-15 -10 -1 5.53 0.67
15 -10 1 5.66 0.58
-15 -1 10 5.37 0.7
-1 15 10 4.97 0.71
10 15 1 4.95 0.74
-10 1 15 5.7 0.71
-10 1 15 5.86 0.61
-15 -1 10 5.08 0.56
15 10 -1 4.9 0.68
1 -10 -15 6.01 0.6
1 15 -10 5.64 0.8
-15 10 1 5.67 0.67
10 -1 15 5.9 0.52
-1 -15 -10 4.31 0.62
-10 -15 1 5.19 0.75
-10 15 -1 4.72 0.74
10 -1 15 4.85 0.6
2 15 10 7.34 0.83
2 -15 -10 7.24 0.74
-2 -15 10 6.51 0.87
-10 15 2 6.74 0.83
-15 -10 2 7.66 0.8
10 15 -2 7.27 0.99
-15 2 10 7.58 0.78
-15 10 -2 6.57 0.76
-2 10 15 7.08 0.76
-10 -2 15 9.46 0.83
-10 -15 -2 8.05 0.79
10 -15 2 6.87 0.75
2 10 -15 6.97 0.81
15 -10 -2 7.86 0.7
-2 15 -10 5.81 0.86
10 2 15 8.04 0.65
15 10 2 6.61 0.77
-2 -10 -15 7.43 0.7
-15 2 10 7.62 0.69
10 2 15 6.98 0.69
-2 -10 15 7.24 0.88
10 -15 -2 6.89 0.76
-10 2 15 7.21 0.73
15 -10 2 8.23 0.7
2 10 15 6.57 0.73
2 -15 10 6.48 0.86
-10 2 15 8.06 0.82
10 -2 15 7.39 0.63
-15 10 2 7.47 0.75
-15 -2 10 7.3 0.81
-2 15 10 6.74 0.8
10 -2 15 6.92 0.74
-15 -10 -2 7.66 0.75
-10 -15 2 7.4 1.1
15 10 -2 7.31 0.79
10 15 2 6.86 0.84
2 -10 -15 8.57 0.71
-2 -15 -10 6.31 0.73
-10 15 -2 6.66 0.79
-15 -2 10 8.01 0.7
-10 -3 15 5.34 0.68
-10 -15 -3 3.88 0.58
-10 15 3 4.47 0.63
10 3 15 4.22 0.48
-15 10 -3 4.38 0.57
-3 10 15 4.02 0.56
15 10 3 4.76 0.58
10 3 15 4.28 0.45
-15 -10 3 4.3 0.62
-3 -10 -15 4.29 0.52
15 -10 -3 4.97 0.51
10 -15 3 3.97 0.57
-15 3 10 5.2 0.64
3 -10 15 5.48 0.7
3 -15 -10 4.18 0.55
-3 -15 -10 5.35 0.53
3 -15 10 4.58 0.65
3 -10 -15 4.62 0.52
15 -10 3 4.1 0.5
3 15 -10 2.38 0.44
-15 -10 -3 4.11 0.54
10 -3 15 4.4 0.54
-3 10 -15 2.62 0.41
-3 15 10 4.46 0.66
-10 3 15 4.47 0.62
-10 3 15 4.59 0.52
15 10 -3 4.27 0.62
10 15 3 2.58 0.42
-10 15 -3 2.46 0.42
10 -15 -3 3.42 0.53
10 -15 4 0.05 0.23
-15 4 10 0.39 0.24
4 -15 -10 0.09 0.18
-4 -15 10 -0.2 0.27
10 4 15 0.3 0.16
-4 10 15 0.22 0.21
4 10 -15 -0.03 0.25
-15 10 -4 0.29 0.21
-10 15 4 0.12 0.26
-4 15 -10 0.24 0.29
-10 -15 -4 0.38 0.23
-10 4 -15 0.14 0.17
15 10 4 0.2 0.21
10 15 -4 0.17 0.27
4 -10 15 -0.1 0.25
-15 -10 4 0.03 0.25
10 4 15 0.33 0.16
-4 -10 -15 0.08 0.17
-10 -4 15 -0.04 0.26
4 15 10 0.45 0.29
15 -10 -4 0.31 0.17
4 10 15 0.33 0.22
-4 -15 -10 -0.06 0.21
-4 10 -15 0.3 0.25
4 15 -10 0.01 0.27
-15 10 4 0.06 0.21
-15 -10 -4 0.04 0.19
15 -10 4 0.35 0.17
15 10 -4 -0.03 0.23
10 15 4 -0.16 0.26
4 -10 -15 0.37 0.2
-10 4 15 0.24 0.21
-4 -10 15 -0.24 0.27
-4 15 10 0.01 0.24
4 -15 10 0.33 0.26
10 -4 15 0.24 0.2
10 4 -15 0.16 0.23
-10 -15 4 -0.24 0.25
-10 15 -4 0.6 0.27
10 -15 -4 0.23 0.2
-10 4 15 0.57 0.24
-5 -10 -15 0.45 0.17
-15 5 10 0.21 0.19
5 -15 -10 0.29 0.18
-15 5 10 0.73 0.21
-5 15 -10 0.37 0.28
-5 10 15 0.57 0.22
-15 10 -5 0.53 0.22
15 -5 10 0.36 0.11
5 10 -15 0.41 0.26
10 -15 5 0.39 0.23
10 15 -5 0.51 0.28
-10 -15 -5 0.47 0.22
-5 -15 10 0.32 0.28
-10 -5 15 0.08 0.24
-10 5 -15 0.4 0.17
-10 15 5 0.49 0.25
10 5 15 0.45 0.16
10 5 15 0.32 0.17
15 5 -10 0.72 0.25
-15 -10 5 0.1 0.24
15 10 5 0.29 0.2
5 -10 15 0.64 0.26
15 -10 -5 0.48 0.17
5 -15 10 0.5 0.26
-15 10 5 0.34 0.21
10 15 5 0.49 0.26
15 10 -5 0.53 0.24
-5 10 -15 0.26 0.25
-5 15 10 0.19 0.23
-15 -10 -5 0.69 0.19
-10 15 -5 0.65 0.27
15 -10 5 0.55 0.18
-10 5 15 0.53 0.23
5 10 15 0.44 0.22
-15 5 -10 0.48 0.12
-15 -5 10 0.6 0.26
-5 -10 15 0.12 0.29
5 -10 -15 0.53 0.19
-10 5 15 0.61 0.2
5 15 -10 0.29 0.29
10 -5 15 0.38 0.21
10 5 -15 0.34 0.26
-10 -15 5 0.33 0.26
10 -15 -5 0.47 0.2
6 10 -15 -0.21 0.23
-6 -10 -15 -0.05 0.17
-10 15 6 0.17 0.25
15 10 6 -0.18 0.21
-10 6 -15 0.15 0.18
6 -15 -10 0 0.19
10 6 15 0.31 0.18
15 -6 10 -0.02 0.13
15 6 -10 -0.12 0.23
-6 15 -10 0.05 0.28
10 -15 6 0.3 0.24
10 15 -6 -0.02 0.27
10 6 15 0.12 0.16
-6 -15 10 0.2 0.28
-15 10 -6 0.25 0.22
6 -10 15 0.04 0.25
-15 6 10 0.06 0.22
6 15 10 -0.21 0.34
-10 -15 -6 -0.02 0.2
-6 10 15 -0.11 0.22
-15 -10 6 -0.24 0.24
-10 -6 15 0.27 0.26
-15 6 10 0.36 0.2
6 -10 -15 -0.17 0.17
-15 -10 -6 0.01 0.16
-10 6 15 0.24 0.21
-10 6 15 0.22 0.21
-6 -15 -10 -0.1 0.3
10 -15 -6 -0.1 0.2
6 15 -10 -0.01 0.29
-6 15 10 0.21 0.24
-10 15 -6 -0.04 0.26
-6 -10 15 0.02 0.28
-6 10 -15 0.19 0.25
-10 -15 6 -0.2 0.26
15 10 -6 -0.43 0.24
10 6 -15 0.12 0.24
10 -6 15 0.13 0.21
6 -15 10 -0.06 0.24
10 15 6 -0.2 0.26
6 10 15 0.28 0.22
-15 6 -10 0.02 0.14
15 -10 6 0.16 0.17
-15 -6 10 -0.05 0.26
-15 10 6 -0.13 0.25
10 15 -7 0.29 0.3
-7 10 15 0.22 0.23
-10 -7 15 0.57 0.29
-10 7 -15 0.26 0.19
7 -15 -10 0.35 0.2
7 10 -15 0.02 0.25
-7 -15 10 0.17 0.28
7 15 10 -0.13 0.28
-15 -7 -10 0.1 0.1
-7 -10 -15 -0.16 0.16
-15 7 10 -0.23 0.21
15 7 -10 -0.02 0.25
10 7 15 -0.28 0.18
-15 10 -7 0.12 0.22
-15 -10 7 -0.07 0.31
-7 15 -10 0.2 0.29
15 10 7 0.1 0.2
7 -10 15 0.01 0.25
15 -7 10 0.13 0.14
-10 -15 -7 0.2 0.22
15 -10 -7 -0.1 0.18
-10 15 7 -0.03 0.25
10 -15 7 0.18 0.25
10 -7 15 0.04 0.22
-15 10 7 -0.07 0.22
7 -15 10 -0.1 0.26
-10 7 15 -0.18 0.21
7 -10 -15 0.09 0.18
-15 -7 10 0.15 0.26
10 7 -15 -0.16 0.25
-7 -15 -10 -0.06 0.2
10 -15 -7 0.04 0.19
-10 15 -7 -0.31 0.27
-15 7 -10 -0.08 0.17
10 15 7 0.29 0.27
-7 15 10 0.17 0.25
-7 10 -15 0.26 0.25
-10 -15 7 0.15 0.26
15 -10 7 0.41 0.18
7 10 15 -0.09 0.2
15 7 10 -0.18 0.14
15 10 -7 -0.27 0.32
-15 -10 -7 0.17 0.16
-7 -10 15 -0.16 0.28
7 15 -10 0.08 0.28
-8 10 15 0.09 0.22
15 10 8 0.36 0.21
8 -10 15 0.04 0.25
-15 8 10 -0.03 0.22
-15 -10 8 0.15 0.27
-8 -15 10 0.1 0.3
10 8 15 0.64 0.21
8 -15 -10 0.13 0.2
15 -10 -8 -0.05 0.18
-10 15 8 0.24 0.27
-15 10 -8 0.15 0.22
-10 8 -15 -0.46 0.21
-15 -8 -10 -0.28 0.12
10 -15 8 -0.38 0.26
10 15 -8 0.09 0.29
-10 -8 15 0.28 0.29
8 15 10 0.18 0.27
-8 15 -10 0.08 0.31
-10 -15 -8 -0.22 0.22
-8 -10 -15 -0.05 0.17
15 8 -10 -0.27 0.26
8 10 -15 0.15 0.25
15 -8 10 -0.06 0.16
8 15 -10 -0.2 0.28
-8 -10 15 -0.17 0.28
-15 10 8 -0.08 0.22
15 10 -8 -0.02 0.26
15 -8 -10 0.09 0.19
-10 -8 -15 0.29 0.15
8 10 15 0.05 0.22
10 -15 -8 0.15 0.2
15 -10 8 0.02 0.19
10 8 -15 0.2 0.27
-15 -8 10 0.08 0.27
-15 8 -10 0.04 0.19
-8 15 10 0 0.23
15 8 10 0.06 0.17
10 15 8 -0.41 0.27
-10 8 15 -0.13 0.22
8 -15 10 -0.09 0.26
-10 15 -8 0.06 0.29
-15 -10 -8 -0.13 0.16
-8 -15 -10 0.06 0.21
10 -8 15 0.05 0.23
-10 -15 8 0.08 0.28
-8 10 -15 0.33 0.25
8 -10 -15 0.01 0.19
-15 10 -9 -0.7 0.23
10 15 -9 -0.06 0.29
-10 -15 -9 0.01 0.21
9 -10 15 -0.35 0.26
15 -9 10 -0.22 0.18
15 -10 -9 -0.35 0.19
10 -9 -15 -0.11 0.2
-9 -15 10 0.03 0.28
-15 -9 -10 -0.11 0.14
-10 -9 15 0.08 0.3
-10 9 -15 -0.22 0.22
15 9 -10 -0.03 0.26
15 10 9 -0.04 0.21
-9 10 15 -0.28 0.24
9 -15 -10 -0.26 0.2
10 -15 9 -0.4 0.39
-9 -10 -15 -0.12 0.17
10 9 15 -0.4 0.22
-15 -10 9 -0.49 0.27
9 10 -15 0.05 0.27
-15 9 10 -0.36 0.22
9 15 10 -0.35 0.27
-9 15 -10 -0.19 0.37
-10 15 9 -0.62 0.25
9 -10 -15 -0.09 0.2
15 -10 9 0.13 0.19
-10 -15 9 -0.07 0.29
15 10 -9 -0.11 0.27
9 -15 10 -0.3 0.27
-15 -10 -9 -0.35 0.15
15 -9 -10 -0.17 0.19
-9 -10 15 0.17 0.3
15 9 10 0.11 0.19
10 9 -15 -0.21 0.27
-10 15 -9 -0.4 0.32
10 -15 -9 0.01 0.21
10 15 9 -0.22 0.28
-9 10 -15 0.27 0.25
9 15 -10 -0.54 0.31
10 -9 15 -0.27 0.25
-15 10 9 -0.17 0.23
9 10 15 -0.24 0.22
-15 -9 10 0.15 0.29
-15 9 -10 -0.38 0.21
-10 9 15 -0.22 0.24
-10 -9 -15 -0.09 0.15
-9 15 10 -0.26 0.25
-9 -15 -10 -0.14 0.21
10 -15 10 -0.78 0.32
-10 15 -10 -1.15 0.56
10 10 -15 -0.27 0.28
-10 10 -15 -0.2 0.24
15 10 10 -0.3 0.21
-10 -10 15 -0.38 0.28
10 15 -10 -0.66 0.27
10 -15 -10 -0.36 0.19
15 10 -10 -0.62 0.27
-10 10 15 -0.67 0.24
10 -10 15 -0.45 0.26
-10 15 10 -0.4 0.24
10 15 10 -0.17 0.28
-10 -15 -10 -0.18 0.22
10 -10 -15 -0.17 0.2
-15 -10 -10 -0.36 0.15
-10 -15 10 0.01 0.29
-10 -10 -15 -0.3 0.17
15 -10 10 -0.11 0.2
-15 -10 10 -0.38 0.26
-15 10 -10 -0.64 0.23
10 10 15 -0.51 0.24
15 -10 -10 -0.17 0.19
-15 10 10 -0.14 0.24
-15 11 0 0.37 0.27
-15 0 11 0.33 0.21
0 -11 -15 0.94 0.22
11 -15 0 0.79 0.45
11 15 0 0.59 0.32
-11 -15 0 0.76 0.3
0 -15 11 1 0.32
0 -11 15 1.54 0.32
-11 0 15 0.73 0.21
0 11 15 0.9 0.26
11 0 15 0.72 0.2
0 -15 -11 1.36 0.25
11 0 15 0.45 0.15
0 11 -15 1.03 0.31
15 11 0 0.55 0.26
-15 0 11 0.18 0.26
-11 0 15 0.73 0.28
0 15 -11 1.06 0.33
0 15 11 1.16 0.29
15 -11 0 0.7 0.21
-15 -11 0 0.67 0.28
-11 -1 15 -0.37 0.29
15 11 1 -0.28 0.26
15 -11 -1 -0.11 0.2
-11 -1 15 0.02 0.2
-11 15 1 -0.27 0.3
11 -15 1 0.29 0.27
11 15 -1 0.06 0.3
1 -15 -11 0.13 0.22
1 11 -15 0.02 0.27
-15 1 11 0.18 0.26
-15 1 11 -0.15 0.2
1 15 11 0.08 0.29
-15 -11 1 0.1 0.26
1 -11 15 0.02 0.28
-1 11 15 0.18 0.24
11 1 15 0.14 0.18
-15 11 -1 -0.02 0.25
-11 -15 -1 0.02 0.28
-1 -11 -15 -0.16 0.2
11 1 15 -0.14 0.14
-1 15 -11 0.17 0.32
-1 -15 11 0 0.3
-15 -11 -1 -0.17 0.25
-1 -11 15 0.43 0.29
-1 -15 -11 0.08 0.22
11 -1 15 0.03 0.13
1 11 15 0.33 0.25
-11 -15 1 -0.15 0.28
-11 1 15 -0.03 0.2
-11 15 -1 -0.36 0.3
1 -15 11 -0.12 0.31
15 -11 1 -0.03 0.2
15 11 -1 -0.29 0.26
1 15 -11 -0.13 0.3
1 -11 -15 0.23 0.21
-15 11 1 0.34 0.26
-15 -1 11 -0.12 0.19
11 -1 15 -0.02 0.19
-1 15 11 0.35 0.29
-1 11 -15 -0.08 0.3
-15 -1 11 -0.11 0.27
11 15 1 0.39 0.3
11 -15 -1 0.18 0.23
-11 1 15 0.22 0.25
15 -11 -2 0.61 0.2
-15 2 11 0.75 0.26
11 -15 2 0.66 0.24
-15 11 -2 0.52 0.26
2 15 11 0.26 0.28
2 -11 15 0.45 0.29
2 11 -15 0.26 0.27
11 2 15 0.68 0.18
11 15 -2 0.19 0.53
-2 -11 -15 0.44 0.2
11 2 15 0.56 0.16
-15 -11 2 0.57 0.27
15 11 2 0.43 0.24
-11 -2 15 0.64 0.3
-2 11 15 0.62 0.25
-11 -15 -2 0.21 0.26
2 -15 -11 0.92 0.23
-2 -15 11 0.66 0.3
-2 15 -11 0.75 0.31
-15 2 11 0.74 0.21
-11 15 2 0.27 0.29
-2 -11 15 0.37 0.3
-15 11 2 0.74 0.25
2 -15 11 0.7 0.29
2 11 15 0.31 0.26
-15 -11 -2 0.65 0.24
-11 2 15 0.77 0.23
-2 11 -15 0.63 0.28
-15 -2 11 0.68 0.2
-11 2 15 0.58 0.26
2 -11 -15 0.67 0.21
11 -2 15 0.59 0.21
11 -2 15 0.61 0.14
-11 -15 2 0.14 0.47
2 15 -11 0.32 0.29
11 -15 -2 0.57 0.23
11 15 2 0.46 0.28
-2 -15 -11 0.46 0.23
15 11 -2 0.85 0.26
15 -11 2 0.4 0.2
-11 15 -2 0.73 0.3
-15 -2 11 1.21 0.27
-2 15 11 0.53 0.29
11 15 -3 -0.05 0.28
-11 -3 15 0.12 0.28
-11 -15 -3 -0.33 0.24
3 -11 15 0.19 0.28
-3 15 -11 0.12 0.28
3 11 -15 -0.25 0.25
11 3 15 -0.11 0.15
-15 11 -3 -0.53 0.22
15 -11 -3 -0.04 0.18
11 3 15 -0.08 0.15
-3 11 15 0.01 0.24
-15 3 11 -0.23 0.21
3 15 11 0.06 0.27
3 -15 -11 -0.14 0.2
-3 -15 11 -0.02 0.27
-11 15 3 -0.49 0.27
-15 3 11 -0.1 0.2
15 11 3 -0.3 0.23
-15 -11 3 0.14 0.25
11 -15 3 0.06 0.23
-15 11 3 -0.01 0.23
-3 11 -15 -0.25 0.26
11 -15 -3 -0.23 0.21
-3 15 11 0.1 0.25
-11 3 15 -0.41 0.21
-15 -11 -3 -0.27 0.21
3 -11 -15 -0.25 0.2
-11 3 15 -0.3 0.23
-11 15 -3 -0.6 0.27
11 -3 15 -0.2 0.19
3 15 -11 -0.42 0.28
-3 -11 15 0.17 0.27
3 -15 11 -0.12 0.26
-15 -3 11 0.25 0.26
15 11 -3 0.16 0.25
-11 -15 3 -0.64 0.27
-3 -15 -11 -0.06 0.21
11 15 3 -0.33 0.28
15 -11 3 0 0.18
15 4 -11 0.02 0.25
4 11 -15 0.03 0.25
11 -15 4 -0.25 0.21
-15 4 11 0.04 0.18
4 -11 15 -0.63 0.31
11 15 -4 -0.1 0.28
-11 15 4 0.34 0.25
11 4 15 -0.06 0.15
-15 4 11 -0.06 0.21
15 -11 -4 0.12 0.18
-11 4 -15 0.24 0.15
4 15 11 0.03 0.25
-15 -11 4 -0.19 0.24
-11 -15 -4 -0.19 0.23
-4 -15 11 0.16 0.27
15 11 4 -0.14 0.22
4 -15 -11 -0.04 0.19
-4 -11 -15 -0.29 0.17
-4 11 15 -0.23 0.22
-4 15 -11 0.36 0.28
-11 -4 15 -0.15 0.25
11 4 15 -0.08 0.15
-15 11 -4 0.02 0.23
4 11 15 -0.16 0.22
11 15 4 -0.19 0.26
4 -15 11 0.31 0.27
11 -4 15 -0.26 0.19
-11 4 15 0.15 0.21
4 15 -11 -0.18 0.3
11 -15 -4 0.28 0.2
-4 15 11 -0.17 0.24
4 -11 -15 -0.08 0.2
-11 15 -4 0.01 0.26
-11 4 15 -0.07 0.22
-15 11 4 -0.03 0.21
-15 -11 -4 0.01 0.2
-4 11 -15 0.14 0.43
-4 -15 -11 -0.01 0.2
-15 -4 11 0.11 0.24
11 4 -15 -0.47 0.24
-11 -15 4 -0.13 0.26
15 -11 4 -0.02 0.17
-4 -11 15 0.19 0.26
15 11 -4 0.2 0.25
5 -11 15 -0.06 0.42
-11 5 -15 -0.19 0.16
15 5 -11 -0.09 0.23
-15 5 11 -0.07 0.22
15 11 5 0.17 0.23
-5 -15 11 -0.01 0.27
-11 15 5 -0.28 0.25
-15 11 -5 0.11 0.23
-5 15 -11 0.28 0.28
5 -15 -11 0.14 0.19
11 -15 5 0.25 0.23
11 5 15 0.01 0.17
5 11 -15 -0.14 0.25
15 -5 11 -0.28 0.11
-15 -11 5 0.02 0.26
-5 -11 -15 0.05 0.17
-15 5 11 0.23 0.21
-11 -15 -5 0.36 0.22
-5 11 15 0.21 0.23
5 15 11 -0.21 0.26
-11 -5 15 0.06 0.25
11 15 -5 0.01 0.27
11 5 15 -0.07 0.14
-15 -11 -5 -0.13 0.18
-5 15 11 0.07 0.24
5 -15 11 -0.37 0.26
-5 -15 -11 -0.21 0.19
11 15 5 0.31 0.26
5 11 15 -0.28 0.22
11 -15 -5 -0.13 0.19
-11 5 15 -0.38 0.24
-5 11 -15 0.08 0.27
-15 5 -11 0.08 0.12
-15 11 5 0.16 0.34
15 11 -5 0.08 0.24
15 -11 5 -0.05 0.18
-11 -15 5 0.12 0.25
-11 15 -5 -0.29 0.26
5 15 -11 -0.09 0.27
11 -5 15 -0.07 0.19
5 -11 -15 0.09 0.18
11 5 -15 -0.01 0.25
-5 -11 15 -0.07 0.27
-11 5 15 -0.03 0.19
-15 -5 11 0.13 0.26
-15 11 -6 0.13 0.23
-6 -11 -15 0.05 0.17
-11 -15 -6 0.19 0.21
-11 6 -15 -0.1 0.18
15 6 -11 0.01 0.25
15 11 6 0.42 0.22
15 -6 11 -0.03 0.13
15 -11 -6 -0.29 0.17
11 -15 6 0.2 0.24
-6 11 15 -0.06 0.23
11 6 15 0.37 0.17
-11 15 6 -0.09 0.24
6 11 -15 -0.21 0.26
-6 -15 11 0.13 0.28
-6 15 -11 0.13 0.29
-15 -11 6 0.01 0.43
6 15 11 -0.04 0.28
-15 6 11 -0.17 0.21
-11 -6 15 0.01 0.26
-15 6 11 0.05 0.2
6 -15 -11 0.23 0.19
11 15 -6 0.27 0.28
6 -11 15 -0.07 0.26
11 6 15 0.1 0.15
-11 6 15 -0.13 0.21
-6 11 -15 -0.12 0.24
-6 15 11 -0.23 0.24
11 -15 -6 0.06 0.19
6 -11 -15 -0.08 0.18
15 6 11 0.08 0.12
11 15 6 -0.2 0.26
6 15 -11 0.34 0.28
11 -6 15 -0.12 0.21
-15 -6 11 -0.07 0.26
-6 -15 -11 0.11 0.21
-11 -15 6 0.08 0.28
15 11 -6 0.05 0.4
15 6 11 0.08 0.09
11 6 -15 0.03 0.24
-15 -11 -6 -0.28 0.17
6 11 15 0.01 0.21
6 -15 11 -0.17 0.25
-11 6 15 0.14 0.2
-15 11 6 0.29 0.23
-11 15 -6 -0.09 0.26
-6 -11 15 -0.07 0.27
15 -11 6 0.01 0.18
-15 6 -11 -0.16 0.13
-11 7 -15 0.24 0.19
15 -11 -7 -0.09 0.18
7 15 11 -0.29 0.43
7 11 -15 0.14 0.27
-11 -7 15 -0.17 0.29
-7 -15 11 -0.18 0.29
-7 15 -11 -0.13 0.3
7 -11 15 0.14 0.25
7 -15 -11 -0.55 0.18
-15 11 -7 0.02 0.23
-15 7 11 -0.14 0.21
11 7 15 0.15 0.19
-11 15 7 0.2 0.25
-15 -11 7 -0.18 0.26
15 7 -11 -0.19 0.25
11 -15 7 -0.02 0.25
11 15 -7 0.02 0.28
15 11 7 0.29 0.22
-11 -15 -7 -0.2 0.22
-7 -11 -15 -0.02 0.16
-7 11 15 -0.66 0.23
15 -7 11 -0.11 0.15
-11 7 15 -0.33 0.2
15 7 11 -0.01 0.15
15 -11 7 -0.05 0.19
-15 11 7 -0.13 0.23
-15 7 -11 -0.21 0.16
11 -7 15 -0.35 0.21
15 11 -7 -0.05 0.26
-15 -7 11 -0.49 0.26
-7 11 -15 0.05 0.24
-7 -11 15 0.08 0.26
7 -11 -15 -0.1 0.19
7 15 -11 -0.54 0.29
11 -15 -7 0.08 0.2
7 11 15 0.08 0.23
-11 -15 7 0.11 0.28
11 15 7 -0.2 0.27
-11 7 15 -0.2 0.25
-15 -11 -7 -0.07 0.18
7 -15 11 -0.26 0.26
11 7 -15 0.04 0.26
-7 15 11 0.1 0.23
-11 15 -7 -0.06 0.27
-11 -15 -8 -0.14 0.22
15 -8 11 -0.21 0.18
-15 11 -8 -0.19 0.24
8 -15 -11 -0.41 0.2
11 -15 8 -0.11 0.27
8 -11 15 -0.29 0.26
8 11 -15 -0.1 0.24
-11 15 8 0.1 0.25
-8 -11 -15 -0.07 0.16
-15 -8 -11 -0.13 0.12
11 15 -8 -0.51 0.29
-8 11 15 -0.42 0.22
-15 -11 8 -0.16 0.27
15 11 8 -0.23 0.21
-11 -8 15 -0.67 0.27
-11 8 -15 -0.55 0.21
15 -11 -8 -0.26 0.19
-8 15 -11 -0.96 0.3
-8 -15 11 -0.11 0.28
11 8 15 0.03 0.21
8 15 11 -0.5 0.4
-15 8 11 -0.41 0.22
15 8 -11 -0.61 0.25
8 -15 11 -0.57 0.26
-8 -11 15 0.16 0.3
-8 -15 -11 -0.28 0.26
11 15 8 -0.51 0.27
11 -15 -8 -0.33 0.2
15 8 11 -0.26 0.17
-15 8 -11 -0.29 0.18
8 15 -11 0.05 0.29
8 -11 -15 -0.28 0.19
-15 11 8 -0.36 0.24
-11 -8 -15 -0.41 0.14
-15 -11 -8 -0.19 0.17
-8 11 -15 -0.21 0.24
11 -8 15 -0.04 0.24
8 11 15 -0.44 0.23
11 8 -15 -0.15 0.26
15 11 -8 0.03 0.28
15 -11 8 -0.54 0.19
-11 15 -8 -0.31 0.29
-11 8 15 -0.57 0.21
-15 -8 11 -0.3 0.29
-11 -15 8 -0.55 0.29
-8 15 11 -0.42 0.25
9 11 -15 0.32 0.28
-11 9 -15 0.06 0.22
-15 -9 -11 -0.08 0.13
-11 -9 15 -0.17 0.29
15 11 9 0.08 0.23
-9 -15 11 0.34 0.31
-9 15 -11 -0.5 0.3
-9 11 15 -0.01 0.25
11 15 -9 -0.39 0.3
15 -11 -9 -0.03 0.2
-9 -11 -15 -0.22 0.17
-11 -15 -9 -0.1 0.21
-15 11 -9 -0.37 0.25
9 -11 15 -0.01 0.27
9 15 11 -0.23 0.28
11 -15 9 -0.26 0.39
15 -9 11 -0.05 0.19
15 9 -11 -0.07 0.28
11 -9 -15 -0.12 0.21
-11 15 9 -0.41 0.25
11 9 15 0.09 0.23
-15 9 11 -0.22 0.23
-15 -11 9 -0.38 0.28
9 -15 -11 -0.21 0.2
11 -9 15 -0.11 0.25
11 -15 -9 -0.01 0.2
9 11 15 -0.22 0.25
15 11 -9 0.19 0.28
15 -11 9 -0.03 0.2
15 9 11 -0.03 0.2
-9 -15 -11 -0.28 0.21
11 9 -15 -0.36 0.28
9 -15 11 -0.16 0.27
9 15 -11 0.27 0.29
9 -11 -15 -0.07 0.2
11 15 9 -0.09 0.28
-15 -9 11 -0.17 0.29
-15 9 -11 -0.19 0.21
-11 9 15 -0.66 0.24
15 -9 -11 -0.17 0.19
-11 -15 9 -0.24 0.3
-15 11 9 -0.16 0.24
-11 -9 -15 -0.19 0.15
-9 11 -15 -0.11 0.24
-11 15 -9 -0.82 0.3
-9 15 11 0.08 0.25
-15 -11 -9 -0.24 0.17
-9 -11 15 -1.01 0.29
15 11 10 0.45 0.23
-10 11 15 0 0.25
10 15 11 0.18 0.29
10 11 -15 -0.23 0.29
-15 -10 -11 0.06 0.15
10 -15 -11 0.02 0.21
-10 -11 -15 -0.12 0.18
11 -10 -15 0.5 0.21
-11 10 -15 0.25 0.25
15 -10 11 0.15 0.22
15 10 -11 -0.12 0.27
-11 15 10 0.14 0.27
-15 -11 10 0.22 0.29
-15 11 -10 0.08 0.27
-11 -15 -10 0.04 0.22
11 -15 10 0.39 0.38
-15 10 11 0.07 0.24
11 10 15 0.29 0.25
15 -11 -10 0.3 0.2
11 15 -10 -0.11 0.29
-10 -15 11 0.64 0.3
-10 15 -11 -0.07 0.31
10 -11 15 0.15 0.27
-11 -10 15 0.15 0.29
10 11 15 0.1 0.26
-10 15 11 0.42 0.28
-15 -10 11 -0.06 0.31
15 -11 10 0.14 0.22
11 15 10 -0.03 0.3
-15 -11 -10 0.27 0.18
11 -10 15 0.18 0.26
11 10 -15 -0.07 0.28
15 10 11 0.11 0.22
-11 -10 -15 0.27 0.17
15 11 -10 0.35 0.29
-10 -11 15 0.14 0.3
-11 10 15 0.26 0.26
-10 -15 -11 0.29 0.22
15 -10 -11 0.07 0.19
-10 11 -15 0.41 0.25
10 -11 -15 0.17 0.21
-15 10 -11 0.19 0.23
-11 -15 10 0.33 0.3
-15 11 10 0.02 0.24
11 -15 -10 0.13 0.21
10 15 -11 0.22 0.29
10 -15 11 -0.29 0.28
-15 -11 -11 0.15 0.17
15 11 -11 0.01 0.3
11 -11 15 0.01 0.27
11 -15 -11 -0.07 0.23
-11 15 -11 -0.41 0.32
-11 15 11 -0.26 0.26
11 -11 -15 0.01 0.21
11 15 11 0.58 0.3
-11 -15 -11 0.19 0.22
-11 -15 11 -0.25 0.31
-11 -11 -15 0.16 0.18
-11 -11 15 -0.27 0.31
-11 11 -15 0.19 0.25
-15 11 -11 0.14 0.26
11 -15 11 0.01 0.28
-15 -11 11 -0.51 0.29
-15 11 11 0.08 0.26
15 -11 11 -0.03 0.23
11 11 -15 0.1 0.31
11 11 15 -0.19 0.27
11 15 -11 0.02 0.31
-11 11 15 -0.08 0.25
15 11 11 -0.09 0.23
15 -11 -11 -0.03 0.2
-12 15 0 9 1.29
0 15 -12 12.01 1.22
-15 0 12 13.09 1.19
12 15 0 10.41 1.18
0 15 12 12.45 1.18
0 -15 -12 15.52 1.12
-12 -15 0 11.11 1.21
15 -12 0 14.51 1.12
15 12 0 14.14 1.19
0 -15 12 12.86 1.22
12 -15 0 12.29 1.16
0 -12 15 12.75 1.21
0 12 -15 15.08 1.22
-15 -12 0 12.16 1.19
-15 12 0 12.49 1.17
-12 0 15 13.81 1.2
-15 0 12 12.98 1.11
-12 0 15 12.38 1.12
12 0 15 13.93 1.09
12 0 15 12.99 1.05
0 12 15 14.48 1.17
0 -12 -15 15.52 1.12
1 -12 15 1.08 0.34
12 1 15 1.48 0.19
-1 -12 -15 1.37 0.24
-12 -1 15 0.96 0.24
12 1 15 1.02 0.22
15 -12 -1 1.37 0.24
1 12 -15 0.85 0.32
-1 -15 12 0.95 0.32
-1 15 -12 1.24 0.34
-15 -12 1 1.45 0.3
-12 -15 -1 1.46 0.31
12 15 -1 1.06 0.51
-12 15 1 1.12 0.31
-15 1 12 1.86 0.26
15 12 1 1.03 0.29
-15 1 12 1.4 0.3
1 -15 -12 1.23 0.25
-15 12 -1 1.3 0.3
-1 12 15 1.22 0.3
-12 -1 15 1.21 0.32
1 15 12 1.25 0.31
1 -15 12 1.08 0.34
-15 -1 12 1.58 0.31
12 15 1 1.42 0.33
-15 -12 -1 1.03 0.28
-1 -12 15 1.15 0.31
-12 1 15 0.99 0.24
12 -1 15 1.36 0.23
-1 12 -15 0.74 0.32
-15 12 1 1.52 0.29
-1 15 12 1.1 0.3
-12 -15 1 1.79 0.49
15 -12 1 1.5 0.26
12 -1 15 1.35 0.17
-15 -1 12 1.59 0.23
1 15 -12 1.18 0.35
1 -12 -15 1.1 0.24
-1 -15 -12 1.5 0.25
12 -15 -1 1.17 0.26
15 12 -1 1.44 0.3
1 12 15 1.4 0.29
-12 1 15 1.04 0.3
12 2 15 -0.01 0.15
-15 12 -2 0.04 0.25
-15 -12 2 0.34 0.27
12 2 15 0.08 0.16
-15 2 12 0.21 0.24
-2 -12 -15 0.22 0.2
-12 -15 -2 0.02 0.26
15 12 2 0.26 0.26
-2 12 15 0.48 0.26
15 -12 -2 0.31 0.21
-12 15 2 -0.11 0.28
-2 15 -12 0.23 0.3
2 -15 -12 0.3 0.22
-15 2 12 0.37 0.2
-12 -2 15 0.11 0.27
-2 -15 12 -0.4 0.3
2 15 12 0.25 0.27
2 -12 15 0.19 0.3
-12 -2 15 0.01 0.21
12 15 -2 0.09 0.3
2 12 -15 -0.04 0.28
12 -15 2 0.01 0.27
2 -12 -15 0.15 0.2
-15 -2 12 0.39 0.19
-15 -2 12 0.39 0.27
-2 -15 -12 0.32 0.2
12 -2 15 0.22 0.13
-12 15 -2 0.13 0.29
-2 15 12 0.49 0.27
-15 12 2 0.26 0.26
15 12 -2 -0.01 0.27
2 12 15 -0.18 0.25
-12 2 15 -0.33 0.25
-12 2 15 0.18 0.21
12 15 2 -0.18 0.29
15 -12 2 0.27 0.2
-2 -12 15 -0.19 0.28
-2 12 -15 0.07 0.26
-15 -12 -2 0.11 0.25
12 -15 -2 0.16 0.22
12 -2 15 0.24 0.19
2 15 -12 -0.08 0.32
-12 -15 2 -0.09 0.28
2 -15 12 0.05 0.29
-15 3 12 0.82 0.22
3 -15 -12 0.86 0.22
-3 12 15 0.38 0.25
3 15 12 0.49 0.27
15 -12 -3 0.83 0.2
-12 -3 15 0.72 0.28
3 -12 15 0.81 0.29
-3 -15 12 0.75 0.32
12 15 -3 0.32 0.3
-12 15 3 0.86 0.28
-3 -12 -15 0.39 0.2
3 12 -15 0.4 0.27
12 -15 3 0.65 0.24
-15 3 12 0.58 0.24
15 12 3 0.89 0.25
-12 -15 -3 0.75 0.26
-3 15 -12 0.35 0.3
12 3 15 0.61 0.16
-15 12 -3 1.02 0.26
12 3 15 0.44 0.17
-15 -12 3 0.57 0.26
-3 12 -15 0.64 0.27
12 -15 -3 0.87 0.22
-15 -3 12 0.8 0.29
-12 -15 3 0.93 0.28
-3 -15 -12 0.86 0.21
-12 15 -3 0.76 0.29
12 -3 15 0.55 0.2
-15 12 3 0.23 0.25
-3 -12 15 0.51 0.28
12 -3 15 0.71 0.13
-12 3 15 0.73 0.21
3 12 15 0.28 0.25
-15 -12 -3 0.7 0.23
15 12 -3 0.77 0.26
-3 15 12 0.89 0.26
3 -12 -15 0.75 0.21
3 -15 12 0.89 0.28
3 15 -12 0.69 0.29
-12 3 15 0.55 0.24
15 -12 3 0.74 0.2
12 15 3 0.57 0.27
4 -12 15 0.55 0.28
12 4 15 0.86 0.17
-15 4 12 0.65 0.21
15 -12 -4 0.86 0.24
4 12 -15 1.17 0.27
-4 15 -12 0.47 0.29
4 15 12 0.69 0.27
-4 -15 12 0.88 0.3
-15 -12 4 0.57 0.26
-12 -4 15 0.67 0.27
-4 -12 -15 0.7 0.19
-12 -15 -4 0.78 0.25
-15 12 -4 0.77 0.26
12 -15 4 0.8 0.24
-12 15 4 0.69 0.27
4 -15 -12 0.99 0.21
12 4 15 0.75 0.18
12 15 -4 1.04 0.29
-4 12 15 1.08 0.23
15 -4 12 0.77 0.12
15 12 4 0.79 0.25
-15 4 12 0.45 0.23
4 -15 12 0.85 0.28
12 -15 -4 0.58 0.22
-12 4 15 0.74 0.23
12 -4 15 1.02 0.21
4 15 -12 0.48 0.28
-12 4 15 1.02 0.22
4 12 15 1.17 0.24
4 -12 -15 1.16 0.22
-15 -12 -4 0.78 0.22
-4 -12 15 1.01 0.29
-4 12 -15 0.81 0.26
12 15 4 1.16 0.29
-12 15 -4 0.68 0.27
12 4 -15 0.89 0.27
-15 12 4 0.53 0.45
-4 -15 -12 0.8 0.21
15 -12 4 0.54 0.21
-15 -4 12 0.8 0.26
-4 15 12 0.76 0.25
-12 -15 4 0.56 0.27
15 12 -4 0.57 0.27
-12 -15 -5 0.33 0.23
-15 5 12 -0.34 0.21
-5 12 15 -0.07 0.22
15 -12 -5 -0.16 0.18
-12 15 5 -0.15 0.24
12 15 -5 0.07 0.28
-12 5 -15 -0.18 0.15
12 5 15 -0.16 0.15
5 15 12 0.29 0.26
12 5 15 0.23 0.16
-5 -15 12 0.26 0.28
-12 -5 15 0.17 0.26
5 -15 -12 -0.14 0.18
5 -12 15 -0.11 0.26
15 12 5 -0.27 0.22
12 -15 5 -0.07 0.21
-15 5 12 0.33 0.2
-5 15 -12 -0.43 0.28
15 5 -12 0 0.23
-15 -12 5 -0.31 0.29
15 -5 12 -0.15 0.13
-5 -12 -15 -0.32 0.3
5 12 -15 -0.16 0.24
-15 12 -5 0.1 0.23
12 15 5 -0.01 0.26
-5 12 -15 -0.16 0.23
-12 15 -5 0.11 0.27
12 -15 -5 0.1 0.19
-12 5 15 -0.12 0.19
-12 5 15 0.23 0.23
-5 -12 15 -0.78 0.27
-15 12 5 0.05 0.21
5 -15 12 -0.03 0.26
5 15 -12 -0.26 0.27
-12 -15 5 -0.1 0.27
-15 5 -12 0.04 0.12
5 -12 -15 -0.25 0.18
12 -5 15 0.01 0.19
-15 -12 -5 0.17 0.2
5 12 15 -0.15 0.37
15 12 -5 -0.24 0.31
-5 -15 -12 -0.02 0.19
-15 -5 12 0.05 0.25
12 5 -15 -0.21 0.24
15 -12 5 -0.03 0.18
-5 15 12 0.24 0.23
-6 12 15 -0.48 0.23
6 -15 -12 0.23 0.2
-6 -12 -15 0.07 0.18
15 6 -12 -0.19 0.26
12 -15 6 0 0.23
12 6 15 0.14 0.18
6 15 12 -0.31 0.26
-6 15 -12 -0.55 0.28
-12 -6 15 -0.18 0.27
-15 12 -6 0.1 0.24
12 15 -6 -0.07 0.27
15 12 6 -0.2 0.23
-15 6 12 0.01 0.21
-15 6 12 0.17 0.21
-15 -12 6 -0.51 0.26
12 6 15 0.01 0.15
-6 -15 12 0.37 0.28
6 -12 15 -0.22 0.25
6 12 -15 0.04 0.25
15 -6 12 -0.16 0.15
-12 15 6 -0.09 0.25
15 -12 -6 0.12 0.18
-12 6 -15 -0.08 0.17
-12 -15 -6 -0.03 0.21
-12 6 15 0.04 0.21
-15 -6 12 0.16 0.26
6 -12 -15 -0.04 0.19
15 -12 6 -0.11 0.19
-6 15 12 0.11 0.23
-6 -15 -12 0.13 0.2
6 -15 12 0.01 0.26
-12 -15 6 0.2 0.28
-15 6 -12 -0.1 0.14
12 -6 15 -0.01 0.21
-15 12 6 -0.31 0.22
12 15 6 -0.31 0.26
15 6 12 -0.02 0.1
-15 -12 -6 -0.33 0.19
12 -15 -6 -0.12 0.18
15 6 12 -0.16 0.13
15 12 -6 0.01 0.26
-12 15 -6 -0.06 0.26
6 15 -12 0.13 0.3
-12 6 15 -0.25 0.21
-6 -12 15 -0.24 0.29
-6 12 -15 0.11 0.24
6 12 15 -0.07 0.24
12 6 -15 -0.15 0.25
-15 7 12 0.47 0.21
15 -12 -7 0.34 0.19
7 -15 -12 0.32 0.2
7 -12 15 0.14 0.33
12 7 15 0.32 0.16
15 7 -12 0.68 0.26
7 12 -15 0.28 0.26
15 -7 12 0.03 0.17
-12 -15 -7 0.14 0.22
-15 -12 7 0.07 0.28
15 12 7 0.28 0.24
7 15 12 0.41 0.28
-15 7 12 0.03 0.25
-12 -7 15 0.21 0.3
-12 7 -15 -0.08 0.19
-7 12 15 0.06 0.23
-15 12 -7 0.1 0.25
-12 15 7 0.19 0.27
-7 -12 -15 0.33 0.18
-7 15 -12 0.24 0.29
12 7 15 0.47 0.2
-7 -15 12 0.05 0.28
12 -15 7 0.1 0.25
12 15 -7 -0.07 0.28
-12 7 15 0.21 0.25
-12 7 15 0.3 0.21
-7 15 12 0.47 0.27
12 -7 15 0.08 0.22
15 12 -7 -0.19 0.26
-15 12 7 0.06 0.25
-7 -12 15 -0.36 0.27
-15 7 -12 0.2 0.16
12 15 7 0.07 0.26
15 -12 7 0.27 0.2
-15 -12 -7 0.14 0.2
-12 -15 7 -0.02 0.27
-12 15 -7 -0.1 0.27
7 12 15 0.14 0.24
12 -15 -7 0.09 0.21
7 -12 -15 0.42 0.2
12 7 -15 0.3 0.27
7 15 -12 0.46 0.28
7 -15 12 0.33 0.27
-7 -15 -12 0.3 0.21
15 7 12 0.2 0.16
-15 -7 12 0.34 0.29
8 -15 -12 0.31 0.2
-12 -8 15 -0.12 0.28
-15 12 -8 -0.05 0.26
8 12 -15 0.46 0.29
-12 -15 -8 0.22 0.22
12 -15 8 -0.28 0.26
12 8 15 -0.45 0.21
-15 8 12 0.11 0.24
15 -8 12 0 0.19
12 15 -8 -0.05 0.3
-8 15 -12 0 0.29
-15 -12 8 0.35 0.28
-12 15 8 -0.01 0.26
-12 8 -15 -0.12 0.2
15 12 8 0.28 0.24
-15 -8 -12 0.02 0.12
8 15 12 0.47 0.31
-8 -12 -15 0.2 0.18
-8 12 15 -0.23 0.25
-8 -15 12 0.22 0.31
15 8 -12 -0.12 0.27
15 -12 -8 0.16 0.2
-15 -8 12 -0.04 0.29
8 -12 -15 0.13 0.19
12 15 8 -0.2 0.28
-15 -12 -8 0.18 0.19
15 12 -8 -0.03 0.27
15 8 12 0.1 0.18
-8 12 -15 0.13 0.31
-8 -12 15 0.22 0.3
12 8 -15 0.24 0.27
12 -8 15 0 0.23
8 -15 12 0.24 0.27
12 -15 -8 0.26 0.21
8 12 15 0 0.25
-12 8 15 0.15 0.22
-12 15 -8 -0.18 0.3
-15 8 -12 -0.03 0.19
-8 -15 -12 -0.03 0.22
-8 15 12 0.01 0.26
-12 -15 8 0.1 0.29
15 -12 8 0.25 0.21
8 15 -12 -0.14 0.28
-15 12 8 -0.34 0.24
12 -15 9 -0.02 0.31
-9 -12 -15 0.18 0.18
9 -12 15 0.14 0.28
-9 12 15 0.08 0.26
15 -12 -9 0.1 0.21
12 9 15 0.01 0.24
9 -15 -12 -0.11 0.21
-9 -15 12 0.07 0.31
-9 15 -12 -0.18 0.3
9 12 -15 -0.16 0.28
-12 15 9 -0.39 0.24
-12 9 -15 0.04 0.21
-15 -12 9 0.11 0.27
-15 12 -9 -0.26 0.26
-15 9 12 0.17 0.24
-12 -15 -9 0.05 0.22
-15 -9 -12 0.07 0.14
15 -9 12 -0.35 0.2
12 15 -9 -0.21 0.29
15 12 9 0.17 0.25
-12 -9 15 -0.14 0.29
15 9 -12 0.04 0.28
12 -15 -9 0.03 0.21
9 -12 -15 0.15 0.2
-12 -9 -15 0.18 0.15
12 15 9 0.03 0.29
-12 15 -9 -0.3 0.29
9 12 15 0.19 0.27
12 9 -15 0.98 0.29
-12 9 15 -0.02 0.25
-9 12 -15 0.17 0.25
-15 -9 12 0.15 0.3
12 -9 15 -0.12 0.25
-12 -15 9 -0.34 0.29
15 9 12 0.25 0.21
9 -15 12 0.06 0.28
-9 15 12 0.3 0.29
-15 -12 -9 -0.07 0.18
-15 9 -12 -0.23 0.21
9 15 -12 0.25 0.3
15 12 -9 -0.49 0.29
15 -9 -12 0.06 0.21
-9 -12 15 -0.12 0.29
-15 12 9 -0.24 0.26
15 -12 9 0.16 0.21
-15 10 12 0.06 0.25
-12 -15 -10 0.29 0.22
12 -10 -15 0.36 0.21
10 12 -15 0.3 0.29
-12 -10 15 0.36 0.3
12 10 15 0.16 0.26
15 -12 -10 0.15 0.21
-10 15 -12 0.23 0.31
-10 -12 -15 0.47 0.19
-15 -12 10 0.65 0.31
15 -10 12 0.34 0.23
-10 12 15 0.05 0.26
10 15 12 0.12 0.38
-12 10 -15 0.15 0.25
-12 15 10 0.33 0.27
15 10 -12 0.15 0.28
-15 -10 -12 0.38 0.15
-10 -15 12 0.66 0.33
10 -15 -12 0.34 0.22
12 15 -10 -0.08 0.31
-15 12 -10 -0.13 0.27
10 -12 15 0.56 0.29
15 12 10 0.56 0.25
-12 -15 10 0.56 0.31
15 10 12 0.35 0.23
15 12 -10 -0.04 0.29
10 -12 -15 0.25 0.2
-15 12 10 0.48 0.27
10 12 15 0.52 0.28
-12 10 15 0.13 0.26
-15 10 -12 0.53 0.23
10 15 -12 0.06 0.29
-12 -10 -15 0.22 0.17
15 -10 -12 0.43 0.22
-10 15 12 0.45 0.28
12 15 10 0.27 0.29
15 -12 10 0.16 0.23
-15 -12 -10 0.12 0.19
12 -15 -10 0.41 0.22
-10 -12 15 0.35 0.32
-10 -15 -12 0.42 0.28
-15 -10 12 0.07 0.33
12 10 -15 0.5 0.29
-10 12 -15 0.31 0.26
12 -10 15 -0.09 0.26
10 -15 12 0.14 0.3
12 -15 11 -0.42 0.28
12 11 15 -0.45 0.26
-12 15 11 -0.11 0.27
12 -11 -15 -0.05 0.21
15 -11 12 -0.28 0.24
-11 15 -12 0.24 0.3
12 15 -11 -0.45 0.3
-11 -15 12 -0.08 0.32
15 11 -12 -0.05 0.28
-12 11 -15 -0.51 0.24
-15 11 12 -0.46 0.25
11 12 -15 -0.45 0.27
-15 -11 -12 -0.16 0.16
-12 -11 15 -0.25 0.32
-11 -12 -15 -0.16 0.18
15 -12 -11 0.19 0.2
-15 -12 11 -0.2 0.3
15 12 11 -0.23 0.24
11 -15 -12 -0.03 0.22
11 15 12 0.05 0.3
-15 12 -11 -0.34 0.27
-11 12 15 -0.24 0.26
-12 -15 -11 -0.05 0.22
11 -12 15 -0.38 0.26
12 -11 15 -0.08 0.27
11 -15 12 -0.68 0.28
15 -11 -12 0.01 0.21
-15 -12 -11 0.06 0.18
12 11 -15 -0.31 0.27
15 11 12 -0.28 0.24
-12 15 -11 -0.12 0.32
-11 12 -15 -0.38 0.25
-15 -11 12 0.11 0.3
11 -12 -15 -0.09 0.2
-12 -11 -15 -0.24 0.18
-11 -15 -12 -0.27 0.22
11 12 15 0.09 0.27
12 -15 -11 0.17 0.2
15 -12 11 -0.07 0.25
-15 12 11 -0.46 0.25
-11 15 12 -0.5 0.28
15 12 -11 -0.43 0.28
11 15 -12 -0.18 0.32
-12 -15 11 -0.51 0.31
-12 11 15 -0.51 0.24
-11 -12 15 0.01 0.32
-15 11 -12 -0.51 0.24
12 15 11 -0.78 0.29
-12 -15 -12 0.31 0.22
-12 15 12 0.11 0.29
-15 -12 -12 -0.16 0.18
12 -15 12 0.15 0.29
-12 -15 12 0.4 0.32
-12 12 15 -0.53 0.26
-12 15 -12 -0.37 0.31
12 -12 15 0.17 0.27
12 15 12 0.22 0.3
-15 -12 12 0.16 0.3
15 12 12 0.21 0.26
-12 12 -15 0.1 0.25
-12 -12 15 -0.08 0.31
12 -15 -12 -0.01 0.22
15 12 -12 0.47 0.31
-12 -12 -15 -0.2 0.17
12 12 15 0.16 0.29
12 12 -15 0.58 0.3
-15 12 -12 -0.26 0.26
12 15 -12 0.04 0.29
15 -12 12 0.08 0.25
12 -12 -15 -0.02 0.2
15 -12 -12 0.11 0.21
-15 12 12 0.16 0.25
0 -15 -13 2.21 0.29
15 -13 0 1.77 0.27
-13 0 15 1.51 0.27
13 -15 0 1.36 0.28
-13 0 15 1.65 0.33
15 13 0 1.38 0.32
0 13 15 1.58 0.31
-13 -15 0 1.34 0.34
13 0 15 2.66 0.32
13 0 15 1.43 0.22
13 15 0 1.3 0.37
0 -15 13 1.75 0.35
0 15 13 1.83 0.33
-15 0 13 1.27 0.32
-15 0 13 1.4 0.26
-13 15 0 1.2 0.34
0 -13 15 1.75 0.36
-15 -13 0 1.2 0.32
-15 13 0 1.88 0.32
0 13 -15 1.84 0.35
0 15 -13 1.48 0.36
-15 13 -1 -0.31 0.28
1 -13 15 0.15 0.31
13 15 -1 -0.32 0.48
13 1 15 0.01 0.16
-15 1 13 0.11 0.22
-15 -13 1 0.11 0.28
-1 13 15 0.06 0.27
-13 -15 -1 0.36 0.29
-13 -1 15 -0.18 0.29
1 15 13 0.11 0.27
-1 -13 -15 -0.18 0.21
15 13 1 -0.36 0.27
-15 1 13 -0.2 0.28
-1 15 -13 -0.22 0.33
13 -15 1 0.4 0.25
1 -15 -13 -0.27 0.21
-13 -1 15 -0.13 0.21
-13 15 1 -0.07 0.28
15 -13 -1 -0.14 0.2
-1 -15 13 -0.18 0.32
1 13 -15 0.03 0.3
13 1 15 -0.08 0.14
13 -1 15 -0.03 0.17
15 13 -1 -0.05 0.28
-1 13 -15 -0.01 0.28
-13 1 15 -0.31 0.29
-13 -15 1 -0.33 0.47
-15 -1 13 -0.3 0.26
-1 -13 15 -0.06 0.31
13 -1 15 0.03 0.12
1 13 15 0.25 0.26
1 -15 13 0.39 0.3
1 15 -13 -0.11 0.31
-15 13 1 0.01 0.27
15 -13 1 -0.23 0.21
-1 15 13 -0.08 0.28
1 -13 -15 -0.15 0.21
-15 -1 13 0.07 0.21
-13 1 15 0.04 0.23
13 15 1 0.06 0.29
-1 -15 -13 -0.1 0.22
-15 -13 -1 -0.19 0.26
-13 15 -1 -0.32 0.36
13 -15 -1 -0.4 0.23
-13 -2 15 0.56 0.21
2 -13 15 0.46 0.29
15 13 2 0.7 0.27
-15 -13 2 0.54 0.28
-15 2 13 0.25 0.21
-15 2 13 -0.03 0.25
-2 -15 13 0.46 0.31
2 13 -15 0.27 0.28
-13 -2 15 0.55 0.29
-15 13 -2 0.24 0.26
-2 13 15 0.73 0.28
13 2 15 0.37 0.16
2 15 13 0.57 0.28
-13 -15 -2 0.21 0.26
13 15 -2 0.26 0.3
-13 15 2 0.28 0.28
13 2 15 0.52 0.15
2 -15 -13 0.36 0.2
-2 15 -13 0.02 0.3
-2 -13 -15 0.22 0.2
-15 -2 13 0.06 0.27
15 -13 2 0.45 0.21
-13 2 15 0.53 0.28
2 -13 -15 0.37 0.21
-15 13 2 0.28 0.41
13 -2 15 0.25 0.12
2 13 15 0.23 0.26
-13 -15 2 0.46 0.27
-15 -2 13 0.38 0.21
-15 -13 -2 0.03 0.26
13 15 2 0.52 0.29
13 -2 15 0.47 0.18
-13 15 -2 0.2 0.45
-2 15 13 0.74 0.26
13 -15 -2 0.52 0.22
-2 -15 -13 0.7 0.21
2 -15 13 0.09 0.31
-13 2 15 0.5 0.22
15 13 -2 0.67 0.27
-2 -13 15 0.36 0.3
2 15 -13 0.38 0.31
-2 13 -15 0.09 0.26
-3 15 -13 -0.26 0.27
15 -13 -3 -0.08 0.2
3 -15 -13 0.05 0.18
-15 3 13 -0.04 0.24
-13 -3 15 -0.33 0.29
-15 -13 3 0.27 0.27
-3 -13 -15 -0.19 0.19
13 3 15 -0.07 0.14
3 15 13 0.18 0.25
13 -15 3 0.12 0.25
-3 13 15 -0.22 0.25
-15 13 -3 0.07 0.25
13 3 15 -0.05 0.14
3 13 -15 -0.46 0.27
-13 15 3 -0.16 0.26
-15 3 13 0.08 0.2
3 -13 15 -0.58 0.27
13 15 -3 0.35 0.28
-13 -15 -3 -0.1 0.24
15 13 3 -0.07 0.25
-3 -15 13 0.26 0.27
13 -3 15 -0.1 0.17
3 15 -13 0.04 0.29
-3 -13 15 -0.21 0.28
13 -15 -3 -0.31 0.2
-15 -3 13 -0.4 0.26
15 13 -3 -0.19 0.27
13 -3 15 -0.05 0.11
15 -13 3 -0.06 0.2
13 15 3 0.15 0.27
-3 13 -15 -0.37 0.25
-15 -13 -3 -0.06 0.22
3 -15 13 -0.51 0.27
-13 -15 3 0.08 0.27
-3 -15 -13 -0.01 0.19
-3 15 13 -0.22 0.23
-15 13 3 -0.4 0.24
3 -13 -15 -0.15 0.18
3 13 15 -0.46 0.22
-13 3 15 0.02 0.24
-13 3 15 -0.05 0.2
-13 15 -3 -0.14 0.27
4 -13 15 -0.07 0.26
-15 4 13 0.15 0.18
-4 15 -13 -0.22 0.26
-4 13 15 -0.05 0.24
-13 -4 15 -0.2 0.27
15 -4 13 0 0.12
4 13 -15 -0.06 0.26
-15 4 13 0.3 0.22
15 13 4 0.1 0.25
-4 -13 -15 0 0.19
4 15 13 0.01 0.25
13 -15 4 0.12 0.22
-13 -15 -4 0 0.23
13 4 15 0.15 0.14
4 -15 -13 0.11 0.18
-15 13 -4 -0.17 0.25
13 4 15 -0.01 0.15
-13 15 4 0.08 0.26
-4 -15 13 0.15 0.27
15 -13 -4 0.17 0.19
-15 -13 4 -0.08 0.25
13 15 -4 0.24 0.28
-13 15 -4 -0.22 0.25
4 15 -13 -0.18 0.29
-13 -15 4 0.25 0.26
-4 13 -15 -0.01 0.24
-15 -4 13 -0.27 0.25
-15 13 4 0.08 0.24
4 13 15 0.09 0.23
13 -15 -4 -0.1 0.19
4 -15 13 0.05 0.26
15 -13 4 0.24 0.2
13 15 4 -0.3 0.24
-4 -13 15 -0.14 0.27
-15 -13 -4 0.09 0.21
13 -4 15 0.47 0.18
-13 4 15 0.09 0.22
-4 15 13 0.34 0.24
15 13 -4 0.02 0.24
-13 4 15 -0.19 0.21
-4 -15 -13 -0.01 0.17
4 -13 -15 -0.09 0.18
5 -13 15 0.43 0.26
15 -5 13 -0.13 0.14
5 15 13 -0.11 0.25
15 -13 -5 -0.07 0.18
5 13 -15 0.08 0.25
-15 -13 5 -0.27 0.25
-15 13 -5 0.22 0.24
-5 13 15 0.11 0.22
5 -15 -13 -0.13 0.18
-13 5 -15 -0.1 0.14
-15 5 13 0.05 0.21
-5 -15 13 0.34 0.28
13 -15 5 0.27 0.22
-13 -5 15 0.18 0.28
13 15 -5 0.02 0.27
-13 -15 -5 -0.15 0.22
15 5 -13 0.1 0.24
-15 5 13 0 0.19
-5 -13 -15 -0.13 0.18
13 5 15 -0.08 0.16
-13 15 5 -0.04 0.24
15 13 5 -0.43 0.24
13 5 15 0.05 0.14
-5 15 -13 0.01 0.27
13 5 -15 -0.17 0.24
13 -5 15 -0.32 0.18
5 15 -13 -0.45 0.27
-13 -15 5 0.02 0.26
-5 15 13 -0.28 0.24
-15 -5 13 0.06 0.27
-13 5 15 0.22 0.2
-15 -13 -5 -0.06 0.2
-5 -15 -13 0.14 0.18
-13 15 -5 -0.25 0.26
-15 13 5 -0.12 0.23
5 13 15 -0.15 0.23
-5 -13 15 -0.16 0.26
13 -15 -5 0 0.19
-15 5 -13 0 0.12
5 -13 -15 -0.15 0.19
13 15 5 -0.33 0.26
-13 5 15 0.14 0.22
5 -15 13 -0.05 0.25
15 13 -5 0.2 0.26
15 -13 5 -0.1 0.19
-5 13 -15 0.3 0.27
6 15 13 -0.09 0.27
13 6 15 0.09 0.14
-6 -15 13 0.03 0.3
6 -13 15 -0.18 0.27
6 13 -15 -0.12 0.26
-6 -13 -15 0.2 0.19
13 15 -6 0.22 0.27
-15 -13 6 -0.03 0.26
-6 15 -13 0.25 0.27
-15 6 13 -0.06 0.2
-15 6 13 -0.35 0.23
-6 13 15 0.13 0.24
-13 -15 -6 -0.25 0.21
-15 13 -6 0.15 0.26
6 -15 -13 -0.01 0.18
15 -13 -6 -0.12 0.19
-13 6 -15 -0.1 0.16
13 -15 6 -0.33 0.21
-13 -6 15 -0.06 0.28
15 6 -13 -0.22 0.25
13 6 15 -0.06 0.19
15 -6 13 -0.11 0.16
-13 15 6 -0.12 0.26
15 13 6 0.26 0.25
-6 -15 -13 0.13 0.18
6 15 -13 0.05 0.25
6 13 15 -0.16 0.24
15 6 13 -0.03 0.15
13 -6 15 0.05 0.2
6 -15 13 -0.33 0.27
13 6 -15 -0.02 0.25
6 -13 -15 0.2 0.19
13 15 6 -0.09 0.27
-6 15 13 -0.12 0.25
-13 -15 6 0.01 0.26
-6 -13 15 -0.24 0.27
-6 13 -15 -0.01 0.26
-15 13 6 -0.05 0.23
-13 6 15 -0.19 0.22
13 -15 -6 0.08 0.2
-15 -6 13 0.09 0.26
-15 6 -13 0.11 0.14
-15 -13 -6 0.13 0.2
-13 6 15 0.08 0.23
15 13 -6 -0.25 0.27
15 6 13 -0.08 0.11
-13 15 -6 -0.39 0.26
15 -13 6 -0.24 0.2
-7 15 -13 -0.3 0.27
13 7 15 0.07 0.15
7 13 -15 0.05 0.28
-15 7 13 0.14 0.21
-15 7 13 -0.24 0.22
-13 15 7 -0.29 0.27
7 -15 -13 -0.13 0.2
15 -7 13 -0.04 0.18
-13 -7 15 -0.49 0.3
-15 -13 7 -0.04 0.27
7 15 13 -0.12 0.27
15 7 -13 -0.3 0.25
7 -13 15 -0.05 0.27
13 -15 7 0.28 0.24
15 13 7 -0.19 0.23
-7 -15 13 -0.63 0.29
-7 13 15 -0.27 0.24
13 7 15 -0.18 0.2
-7 -13 -15 -0.19 0.2
15 -13 -7 -0.11 0.19
-15 13 -7 0.08 0.26
13 15 -7 -0.14 0.29
-13 -15 -7 -0.19 0.22
-13 7 -15 0.03 0.17
15 7 13 -0.25 0.12
-7 -13 15 -0.31 0.29
-13 15 -7 -0.1 0.27
-15 13 7 -0.05 0.24
7 15 -13 -0.22 0.27
-13 -15 7 0.37 0.27
13 15 7 -0.27 0.26
7 -15 13 -0.62 0.26
7 13 15 -0.25 0.26
-13 7 15 -0.15 0.23
7 -13 -15 -0.09 0.2
-7 13 -15 0.2 0.28
-7 -15 -13 -0.42 0.19
13 -7 15 -0.07 0.21
13 7 -15 0 0.26
-7 15 13 0.12 0.25
-15 -13 -7 -0.09 0.2
13 -15 -7 -0.05 0.19
-15 7 -13 0.01 0.16
15 13 -7 0.02 0.27
15 7 13 -0.23 0.17
15 -13 7 0.05 0.21
-13 7 15 -0.12 0.22
-15 -7 13 -0.26 0.27
-15 8 13 -0.45 0.23
-13 -8 15 -0.72 0.28
15 -8 13 0.09 0.2
15 8 -13 -0.04 0.27
15 13 8 -0.4 0.25
-13 15 8 -0.21 0.26
8 -13 15 -0.4 0.28
13 15 -8 0.09 0.28
-8 -15 13 -0.41 0.31
15 -13 -8 -0.16 0.2
-8 -13 -15 -0.09 0.35
-8 13 15 -0.57 0.25
-15 -13 8 -0.1 0.29
-15 13 -8 -0.33 0.27
-13 -15 -8 -0.37 0.21
-13 8 -15 -0.29 0.19
13 8 15 -0.09 0.22
13 -15 8 0.01 0.26
-8 15 -13 0.03 0.3
8 -15 -13 -0.24 0.2
8 15 13 -0.03 0.28
8 13 -15 0.33 0.29
-8 -13 15 0.07 0.28
13 15 8 -0.1 0.27
-13 -15 8 -0.39 0.29
-15 13 8 -0.43 0.26
-13 8 15 -0.24 0.25
15 8 13 -0.12 0.19
-15 -13 -8 -0.23 0.2
13 8 -15 -0.12 0.28
-13 8 15 -0.42 0.22
8 -13 -15 -0.04 0.21
-8 15 13 0.29 0.28
13 -15 -8 -0.1 0.19
-8 13 -15 -0.35 0.28
13 -8 15 -0.18 0.22
-15 8 -13 0.06 0.18
15 13 -8 -0.48 0.27
15 -13 8 -0.11 0.22
8 15 -13 -0.31 0.3
-15 -8 13 -0.13 0.28
8 -15 13 -0.16 0.27
-13 15 -8 -0.21 0.3
-8 -15 -13 -0.38 0.19
9 -13 15 -0.19 0.28
15 -13 -9 0.1 0.2
-9 -13 -15 -0.12 0.19
-15 9 13 -0.55 0.23
-9 13 15 -0.2 0.25
15 9 -13 -0.1 0.27
-15 13 -9 0.13 0.27
9 13 -15 -0.06 0.3
-9 -15 13 -0.27 0.31
-15 -9 -13 -0.18 0.13
13 -15 9 0.2 0.29
15 13 9 -0.21 0.26
13 15 -9 0.21 0.3
9 15 13 -0.32 0.3
-13 -15 -9 0.13 0.21
13 9 15 -0.13 0.23
-13 15 9 -0.13 0.24
9 -15 -13 0.15 0.2
-9 15 -13 -0.31 0.3
15 -9 13 -0.09 0.21
-13 -9 15 0.12 0.3
-13 9 -15 -0.04 0.21
-15 -13 9 0.48 0.3
13 -9 15 -0.15 0.24
-13 15 -9 0 0.29
-15 -13 -9 -0.04 0.19
15 9 13 0.03 0.21
9 -13 -15 -0.34 0.2
15 -13 9 -0.25 0.22
9 -15 13 0.01 0.27
-9 -13 15 -0.28 0.31
-15 -9 13 0.12 0.29
9 15 -13 -0.31 0.3
13 15 9 -0.18 0.28
9 13 15 0.05 0.28
-9 15 13 -0.01 0.27
-9 -15 -13 -0.1 0.2
-13 9 15 0.22 0.24
13 -15 -9 0 0.21
15 13 -9 -0.09 0.28
-9 13 -15 -0.28 0.28
-13 -9 -15 -0.1 0.14
-15 13 9 -0.3 0.25
13 9 -15 -0.42 0.27
-15 9 -13 0.12 0.21
-13 -15 9 0.31 0.29
-15 -10 -13 -0.13 0.15
13 15 -10 -0.3 0.3
15 10 -13 0.24 0.3
-15 10 13 0 0.24
-13 -15 -10 0.25 0.22
15 -13 -10 -0.02 0.22
10 13 -15 0.19 0.29
-13 15 10 -0.15 0.26
-10 -13 -15 0.35 0.2
-13 10 -15 0.17 0.24
-13 -10 15 -0.29 0.29
-10 13 15 -0.18 0.25
13 10 15 -0.12 0.26
-15 13 -10 -0.77 0.28
-10 15 -13 -0.19 0.3
15 -10 13 0.11 0.23
10 -13 15 0.03 0.28
-15 -13 10 -0.44 0.29
15 13 10 -0.43 0.25
10 15 13 0.29 0.32
13 -10 -15 0.06 0.21
10 -15 -13 -0.08 0.21
-10 -15 13 0.22 0.33
15 10 13 -0.31 0.22
13 10 -15 0.24 0.29
-10 -15 -13 0.13 0.21
-10 13 -15 0.18 0.3
10 13 15 0 0.29
10 -15 13 0.28 0.29
10 -13 -15 -0.26 0.2
13 -10 15 0.13 0.25
13 15 10 -0.29 0.3
-13 -10 -15 0.26 0.16
-10 15 13 -0.02 0.27
-10 -13 15 -0.18 0.32
-13 10 15 -0.31 0.25
-15 10 -13 0.12 0.22
-15 -13 -10 0.06 0.19
-15 -10 13 0.58 0.32
-13 -15 10 0.06 0.31
10 15 -13 0.03 0.3
-13 15 -10 -0.85 0.5
15 13 -10 -0.04 0.3
13 -15 -10 -0.31 0.21
-15 13 10 0.11 0.26
15 -13 10 0.18 0.24
15 -10 -13 -0.26 0.2
-15 -14 0 0.86 0.29
0 -14 -15 1.5 0.24
0 -14 15 0.69 0.32
0 14 -15 0.4 0.28
0 14 15 0.26 0.27
14 -15 0 0.69 0.24
-15 0 14 1.11 0.22
15 -14 0 0.19 0.44
0 -15 -14 0.94 0.21
0 -15 14 1.24 0.32
15 14 0 0.03 0.29
-14 -15 0 0.88 0.55
-14 15 0 -0.11 0.3
14 0 15 1.96 0.26
0 15 14 0.9 0.27
0 15 -14 -0.05 0.31
-14 0 15 1 0.22
14 0 15 0.64 0.17
-15 0 14 0.95 0.28
-14 0 15 0.52 0.27
14 15 0 0.34 0.55
-14 -1 15 0.61 0.27
-15 1 14 0.89 0.23
-15 -14 1 0.19 0.27
14 1 15 0.42 0.14
-1 -15 14 0.23 0.31
-1 15 -14 0.08 0.3
-14 15 1 0.54 0.28
1 15 14 0.45 0.28
-1 -14 -15 0.69 0.22
-1 14 15 0.4 0.28
-14 -1 15 0.64 0.22
-15 1 14 0.95 0.27
1 14 -15 0.45 0.28
15 14 1 0.51 0.3
-14 -15 -1 0.41 0.29
1 -15 -14 0.47 0.21
14 1 15 0.46 0.15
-15 14 -1 0.66 0.28
14 15 -1 -0.02 0.31
15 -14 -1 0.5 0.23
1 -14 15 0.69 0.3
14 -15 1 0.32 0.23
-14 -15 1 0.41 0.3
-15 -1 14 0.99 0.28
1 -14 -15 0.52 0.22
-14 1 15 0.37 0.26
-15 -14 -1 0.35 0.27
14 15 1 0.2 0.31
1 15 -14 -0.06 0.3
-1 15 14 0.44 0.25
1 14 15 0.5 0.26
14 -1 15 0.56 0.13
1 -15 14 0.33 0.3
-14 15 -1 0.49 0.29
-1 14 -15 0.38 0.28
15 -14 1 0.58 0.23
15 14 -1 0.6 0.3
-14 1 15 0.39 0.23
-1 -14 15 0.13 0.32
-15 -1 14 0.69 0.2
-1 -15 -14 0.59 0.22
14 -1 15 0.18 0.16
14 -15 -1 0.62 0.23
-15 14 1 0.49 0.29
-15 2 14 1.73 0.26
-14 -2 15 1.9 0.27
2 14 -15 1.74 0.34
-2 -14 -15 3.32 0.46
15 -14 -2 1.92 0.26
-14 -15 -2 1.74 0.3
-15 2 14 1.63 0.32
14 2 15 2.71 0.35
-15 -14 2 1.13 0.49
14 -15 2 1.62 0.29
2 -14 15 2.02 0.36
-14 -2 15 1.6 0.32
-2 -15 14 1.94 0.34
2 -15 -14 3.88 0.45
15 14 2 1.89 0.32
14 15 -2 2.04 0.33
-2 15 -14 1.75 0.35
14 2 15 2.93 0.31
-15 14 -2 1.82 0.32
-14 15 2 1.66 0.33
-2 14 15 1.54 0.31
2 15 14 2.25 0.31
-14 -15 2 1.09 0.32
2 -15 14 1.68 0.34
-15 -2 14 1.56 0.33
-2 -14 15 1.53 0.35
2 -14 -15 3.93 0.46
14 15 2 1.82 0.34
14 -15 -2 3.79 0.52
-14 2 15 1.55 0.31
2 15 -14 1.7 0.34
-14 15 -2 1.77 0.46
-2 15 14 1.79 0.3
-14 2 15 1.55 0.26
-2 -15 -14 4.07 0.5
15 14 -2 1.59 0.52
-2 14 -15 1.92 0.35
14 -2 15 1.72 0.23
2 14 15 2.19 0.3
15 -14 2 1.84 0.27
-15 -2 14 1.57 0.25
-15 -14 -2 1.54 0.3
-15 14 2 1.71 0.32
-15 3 14 -0.04 0.2
15 -14 -3 -0.13 0.19
-14 -3 15 -0.07 0.27
-3 14 15 -0.24 0.24
-14 15 3 -0.05 0.25
15 -3 14 -0.17 0.08
-3 -15 14 -0.04 0.28
-3 15 -14 0.03 0.28
-14 -15 -3 0.23 0.23
14 3 15 0.05 0.14
-3 -14 -15 -0.2 0.18
-15 3 14 -0.3 0.25
3 -14 15 -0.33 0.26
3 -15 -14 0.08 0.19
3 14 -15 0.11 0.28
14 3 15 -0.29 0.13
3 15 14 -0.29 0.25
14 15 -3 -0.42 0.28
15 -3 14 -0.16 0.12
-15 -14 3 0.17 0.26
-15 14 -3 0.32 0.25
15 14 3 -0.12 0.27
-15 14 3 -0.01 0.26
-14 15 -3 0.28 0.41
-14 3 15 -0.2 0.19
-15 -3 14 -0.23 0.18
3 14 15 -0.27 0.24
14 -3 15 0.02 0.1
-3 15 14 -0.16 0.23
-14 3 15 -0.16 0.26
14 -15 -3 -0.03 0.2
14 -3 15 -0.23 0.16
3 -15 14 0.13 0.28
-14 -15 3 -0.13 0.26
14 15 3 -0.03 0.27
15 -14 3 -0.21 0.21
15 14 -3 -0.27 0.26
-3 -15 -14 -0.14 0.2
-15 -14 -3 0.24 0.23
-15 -3 14 -0.14 0.27
3 15 -14 -0.44 0.26
-3 -14 15 -0.61 0.29
3 -14 -15 0.23 0.19
-3 14 -15 0.17 0.27
-4 14 15 -0.46 0.23
14 4 15 0.02 0.15
14 15 -4 0.15 0.27
-4 -15 14 -0.54 0.26
-14 -15 -4 -0.23 0.23
4 14 -15 0.09 0.28
4 15 14 -0.37 0.24
15 14 4 -0.23 0.24
-15 14 -4 -0.19 0.25
-4 15 -14 0.03 0.27
4 -14 15 0.14 0.26
-15 -14 4 -0.23 0.25
-4 -14 -15 -0.22 0.18
14 -15 4 0.2 0.25
-14 -4 15 -0.06 0.25
14 4 15 -0.12 0.13
-15 4 14 -0.11 0.22
4 -15 -14 0 0.19
15 -4 14 -0.1 0.13
-14 15 4 -0.03 0.25
15 -4 14 -0.06 0.09
-15 4 14 0.17 0.18
15 -14 -4 -0.16 0.19
15 14 -4 0.01 0.27
-14 15 -4 -0.01 0.26
-15 -4 14 -0.29 0.25
4 14 15 0.27 0.25
-4 -14 15 -0.62 0.27
-14 4 15 -0.07 0.22
-14 -15 4 -0.34 0.25
-4 -15 -14 0.16 0.18
14 -4 15 -0.25 0.16
14 -15 -4 -0.14 0.19
-15 14 4 0.13 0.24
14 -4 15 0.03 0.1
-14 4 15 0.21 0.19
-4 15 14 -0.21 0.24
4 15 -14 -0.32 0.24
15 -14 4 -0.31 0.19
4 -14 -15 -0.15 0.17
4 -15 14 -0.08 0.27
14 15 4 -0.02 0.27
-4 14 -15 0.33 0.28
-15 -14 -4 0.06 0.22
5 -14 15 -0.19 0.27
15 14 5 0.11 0.26
-14 -15 -5 0.02 0.22
-15 5 14 0.04 0.2
-14 -5 15 0.09 0.26
-5 -15 14 -0.02 0.27
15 5 -14 -0.47 0.25
-15 5 14 -0.15 0.21
14 5 15 0 0.13
15 -14 -5 -0.12 0.18
5 -15 -14 0.07 0.2
-5 14 15 0.21 0.26
-14 15 5 -0.23 0.24
-15 14 -5 -0.35 0.25
14 5 15 -0.2 0.16
-15 -14 5 -0.36 0.25
5 15 14 -0.18 0.26
-5 -14 -15 -0.03 0.17
-5 15 -14 -0.19 0.29
15 -5 14 0.07 0.15
14 15 -5 -0.17 0.27
14 -15 5 0.22 0.21
5 14 -15 0.01 0.28
-15 -14 -5 -0.45 0.2
15 5 14 -0.08 0.13
-14 15 -5 -0.07 0.25
15 14 -5 -0.24 0.25
5 -14 -15 0.03 0.18
15 5 14 -0.09 0.11
-15 -5 14 -0.64 0.27
-5 -15 -14 0.03 0.19
-14 -15 5 0.03 0.26
5 14 15 -0.19 0.24
14 -15 -5 -0.36 0.19
5 -15 14 -0.37 0.25
-5 -14 15 -0.27 0.28
5 15 -14 -0.13 0.25
14 5 -15 -0.22 0.24
14 15 5 -0.06 0.25
-5 14 -15 0.07 0.26
15 -14 5 0.21 0.2
-14 5 15 0.24 0.2
-5 15 14 -0.11 0.25
14 -5 15 -0.14 0.17
-15 14 5 0.06 0.24
-14 5 15 -0.08 0.22
-6 14 15 -0.26 0.24
-15 -14 6 -0.07 0.26
-6 -15 14 -0.17 0.29
-15 14 -6 -0.06 0.26
-6 15 -14 -0.17 0.28
-6 -14 -15 0.07 0.18
15 14 6 0.31 0.26
15 6 -14 -0.1 0.25
14 -15 6 0.05 0.23
-14 15 6 0.03 0.26
6 -15 -14 -0.09 0.18
-14 -6 15 0.07 0.27
14 6 15 0.08 0.13
14 6 15 0.13 0.18
-14 -15 -6 -0.24 0.21
15 -14 -6 -0.12 0.18
-15 6 14 0.23 0.25
-15 6 14 -0.26 0.21
-14 6 -15 0 0.15
6 -14 15 -0.15 0.27
6 14 -15 -0.21 0.27
6 15 14 -0.01 0.26
15 -6 14 0.04 0.17
14 15 -6 -0.22 0.28
14 -6 15 0.19 0.19
14 15 6 0.1 0.26
14 6 -15 -0.06 0.24
15 6 14 -0.02 0.12
-6 -14 15 -0.59 0.26
-14 15 -6 0.23 0.26
-15 14 6 -0.14 0.24
6 -15 14 0.17 0.27
6 14 15 0.18 0.25
-14 6 15 -0.08 0.24
-15 -6 14 -0.13 0.27
-15 6 -14 0.22 0.14
-14 6 15 0.23 0.21
-6 -15 -14 0.21 0.2
6 15 -14 -0.08 0.27
-14 -15 6 0.04 0.26
15 6 14 0.01 0.16
-15 -14 -6 0.2 0.21
15 -14 6 -0.09 0.21
15 14 -6 0.03 0.27
-6 15 14 -0.36 0.26
-6 14 -15 -0.17 0.27
6 -14 -15 0.07 0.18
14 -15 -6 -0.09 0.19
15 14 7 0.33 0.25
-14 -7 15 -0.13 0.3
-15 -14 7 -0.18 0.28
-7 15 -14 0.56 0.29
7 -14 15 0.58 0.28
-15 14 -7 0.7 0.28
-7 -15 14 0.15 0.3
15 7 -14 0.45 0.28
-7 14 15 0.2 0.27
14 -15 7 0.09 0.23
-14 7 -15 -0.03 0.17
-7 -14 -15 -0.1 0.18
15 -7 14 -0.11 0.18
14 7 15 -0.13 0.14
15 -14 -7 0.36 0.21
7 14 -15 0.14 0.27
7 -15 -14 -0.09 0.19
-14 -15 -7 0.25 0.22
7 15 14 0.38 0.29
-14 15 7 -0.03 0.27
-15 7 14 -0.28 0.22
-15 7 14 -0.05 0.22
14 15 -7 0.22 0.27
14 7 15 -0.01 0.2
-15 14 7 0.23 0.24
15 14 -7 -0.08 0.28
-7 15 14 0.27 0.26
7 14 15 0.16 0.27
14 -15 -7 0.09 0.19
-15 7 -14 0.35 0.16
-7 14 -15 0.22 0.27
14 15 7 0.4 0.28
14 7 -15 -0.01 0.26
-7 -15 -14 0.12 0.2
15 7 14 0.08 0.13
15 7 14 0.02 0.18
-14 -15 7 -0.01 0.27
-14 7 15 -0.19 0.23
-14 15 -7 0.07 0.28
-14 7 15 -0.02 0.22
7 -15 14 0.5 0.29
7 15 -14 -0.06 0.29
-15 -7 14 0.23 0.29
14 -7 15 0.23 0.2
-7 -14 15 -0.1 0.28
7 -14 -15 0.16 0.2
15 -14 7 0.23 0.22
-15 -14 -7 0.09 0.21
8 -14 15 0.17 0.28
-15 -14 8 -0.25 0.28
8 -15 -14 -0.04 0.2
-14 15 8 0.24 0.26
14 -15 8 0.21 0.25
8 15 14 0.02 0.29
-14 8 -15 0.11 0.18
-15 14 -8 0.19 0.29
-15 8 14 0.35 0.24
-14 -15 -8 -0.07 0.22
-8 -14 -15 0.17 0.19
14 8 15 0.11 0.22
15 14 8 0.33 0.27
15 8 -14 -0.01 0.26
-15 8 14 0.28 0.24
8 14 -15 -0.33 0.27
15 -8 14 0.44 0.21
14 15 -8 0.35 0.3
-8 15 -14 -0.42 0.29
-8 -15 14 0.3 0.31
-14 -8 15 -0.04 0.3
15 -14 -8 0.28 0.2
-8 14 15 0.27 0.26
15 14 -8 -0.08 0.28
-15 -14 -8 0.54 0.22
14 8 -15 0.12 0.27
14 -15 -8 0.06 0.2
-8 15 14 0.02 0.27
-14 -15 8 0.29 0.3
-8 14 -15 0.3 0.28
8 14 15 0.48 0.28
8 -14 -15 0.18 0.21
-14 15 -8 0.33 0.3
15 -14 8 0.29 0.23
8 -15 14 0.26 0.27
-8 -14 15 0.01 0.29
-15 -8 14 0.14 0.28
-15 8 -14 0.21 0.18
14 -8 15 0 0.22
-15 14 8 0.27 0.24
15 8 14 0.4 0.2
14 15 8 0.38 0.27
-14 8 15 0.12 0.24
-14 8 15 0.05 0.24
-8 -15 -14 0.12 0.21
8 15 -14 0.5 0.32
9 15 14 -0.16 0.29
-14 15 9 0.19 0.25
15 14 9 0.41 0.28
-15 9 14 -0.17 0.23
15 9 -14 0.17 0.28
-9 -14 -15 0 0.19
-15 -14 9 0.22 0.3
14 9 15 0.16 0.23
15 -14 -9 0.02 0.19
-14 -15 -9 -0.14 0.21
15 -9 14 0.62 0.23
-14 9 -15 0.24 0.21
9 -14 15 0.25 0.29
14 15 -9 0.19 0.3
9 -15 -14 0.38 0.2
-9 15 -14 0.04 0.29
9 14 -15 -0.04 0.27
14 -15 9 0.37 0.3
-15 14 -9 0.35 0.27
-9 14 15 -0.36 0.27
-14 -9 15 0.04 0.31
-9 -15 14 0.34 0.31
14 15 9 0.24 0.29
-9 14 -15 0.08 0.28
14 9 -15 -0.02 0.28
9 -14 -15 -0.05 0.21
-14 15 -9 0.31 0.29
9 -15 14 -0.52 0.28
-9 15 14 -0.03 0.26
9 14 15 0.06 0.29
14 -9 15 0.32 0.23
-15 9 -14 0.2 0.2
-15 -9 14 -0.34 0.28
-14 9 15 0.09 0.24
-15 14 9 0.09 0.26
-9 -15 -14 0.2 0.21
-15 -14 -9 0.02 0.2
-9 -14 15 0.06 0.29
15 9 14 0.21 0.22
-14 -15 9 0.05 0.29
15 -14 9 0.37 0.24
15 14 -9 0.31 0.3
9 15 -14 0.07 0.29
14 -15 -9 0.16 0.21
-15 -15 0 0.97 0.46
-15 0 15 1.01 0.29
-15 0 15 0.76 0.22
-15 15 0 0.77 0.31
0 -15 -15 1.21 0.23
0 -15 15 1.03 0.32
0 15 -15 0.91 0.32
0 15 15 0.97 0.26
15 -15 0 1.69 0.25
15 15 0 0.81 0.49
-15 -15 -1 -0.02 0.28
-15 -15 1 -0.16 0.27
-15 -1 15 -0.25 0.27
-15 -1 15 -0.14 0.2
-15 1 15 0.12 0.24
-15 1 15 -0.07 0.21
-15 15 -1 0.1 0.27
-15 15 1 0.15 0.27
-1 -15 -15 -0.19 0.19
-1 -15 15 -0.18 0.28
-1 15 -15 -0.48 0.29
-1 15 15 0.11 0.25
1 -15 -15 -0.29 0.21
1 -15 15 -0.22 0.3
1 15 -15 0.11 0.29
1 15 15 -0.49 0.26
15 -15 -1 -0.27 0.22
15 -15 1 -0.39 0.21
15 15 -1 -0.28 0.28
15 15 1 0.23 0.29
-15 -15 -2 1.18 0.27
-15 -15 2 0.79 0.29
-15 -2 15 1.1 0.31
-15 -2 15 1.18 0.23
-15 2 15 1.47 0.28
-15 2 15 1.15 0.23
-15 15 -2 0.97 0.3
-15 15 2 1.53 0.3
-2 -15 -15 1.64 0.23
-2 -15 15 0.85 0.31
-2 15 -15 1.29 0.32
-2 15 15 1.07 0.28
2 -15 -15 1.4 0.24
2 -15 15 1.17 0.31
2 15 -15 1.06 0.3
2 15 15 0.97 0.29
15 -15 -2 0.92 0.23
15 -15 2 1.3 0.25
15 -2 15 1.33 0.17
15 -2 15 1.83 0.23
15 15 -2 1.25 0.33
15 15 2 1.35 0.31
-15 -15 -3 0.19 0.24
-15 -15 3 -0.4 0.26
-15 -3 15 -0.01 0.28
-15 -3 15 -0.23 0.18
-15 3 15 -0.09 0.25
-15 3 15 -0.2 0.2
-15 15 3 -0.07 0.25
-3 -15 -15 -0.16 0.18
-3 -15 15 -0.08 0.28
-3 15 -15 -0.07 0.28
-3 15 15 -0.5 0.25
3 -15 -15 -0.34 0.19
3 -15 15 -0.28 0.26
3 15 -15 -0.01 0.27
3 15 15 -0.16 0.25
15 -15 -3 -0.06 0.19
15 -15 3 -0.24 0.25
15 -3 15 -0.24 0.14
15 -3 15 -0.2 0.1
15 15 -3 0.24 0.28
15 15 3 0.28 0.28
-15 -15 -4 -0.05 0.23
-15 -15 4 -0.01 0.26
-15 -4 15 -0.1 0.25
-15 4 15 0.07 0.22
-15 4 15 -0.08 0.19
-15 15 -4 -0.26 0.38
-15 15 4 -0.42 0.25
-4 -15 -15 0 0.17
-4 -15 15 -0.36 0.28
-4 15 -15 -0.23 0.26
-4 15 15 -0.07 0.24
4 -15 -15 -0.16 0.18
4 -15 15 -0.02 0.27
4 15 -15 -0.59 0.26
4 15 15 0.15 0.24
15 -15 -4 -0.22 0.19
15 -4 15 -0.17 0.15
15 -4 15 0.07 0.1
15 4 15 0.01 0.12
15 4 15 0.1 0.13
15 15 -4 0.31 0.27
15 15 4 -0.24 0.26
-15 -15 -5 -0.01 0.22
-15 -15 5 -0.73 0.25
-15 -5 15 -0.04 0.27
-15 5 15 0.18 0.23
-15 5 15 -0.01 0.21
-15 15 -5 0.07 0.27
-15 15 5 0.27 0.25
-5 -15 -15 -0.16 0.17
-5 -15 15 0.07 0.29
-5 15 -15 -0.37 0.26
-5 15 15 0 0.24
5 -15 -15 -0.05 0.19
5 -15 15 0.1 0.27
5 15 -15 -0.04 0.26
5 15 15 -0.02 0.25
15 -15 -5 -0.1 0.19
15 -15 5 0.15 0.24
15 -5 15 -0.15 0.16
15 5 15 0.06 0.12
15 5 15 0.14 0.15
15 15 -5 -0.05 0.28
15 15 5 0.19 0.27
-15 -15 -6 0.32 0.22
-15 -15 6 0.09 0.26
-15 -6 15 0 0.26
-15 6 -15 -0.01 0.14
-15 6 15 -0.15 0.22
-15 6 15 -0.1 0.21
-15 15 -6 -0.31 0.27
-15 15 6 -0.34 0.25
-6 -15 -15 0.27 0.18
-6 -15 15 0.15 0.3
-6 15 -15 -0.02 0.27
-6 15 15 -0.45 0.25
6 -15 -15 -0.13 0.19
6 -15 15 0.08 0.27
6 15 -15 -0.23 0.28
6 15 15 0.27 0.27
15 -15 -6 0.03 0.19
15 -15 6 -0.01 0.22
15 -6 15 -0.36 0.17
15 6 -15 0.02 0.25
15 6 15 -0.24 0.12
15 6 15 0.11 0.16
15 15 -6 -0.39 0.26
15 15 6 0.1 0.26
-15 -15 -7 0 0.22
-15 -15 7 -0.41 0.27
-15 -7 15 -0.01 0.28
-15 7 -15 -0.12 0.17
-15 7 15 0.08 0.24
-15 7 15 -0.12 0.21
-15 15 -7 0.33 0.28
-15 15 7 -0.18 0.26
-7 -15 -15 -0.12 0.19
-7 -15 15 0.1 0.3
-7 15 -15 0.17 0.28
-7 15 15 0.21 0.25
7 -15 -15 0.06 0.19
7 -15 15 -0.01 0.28
7 15 -15 0.03 0.29
7 15 15 -0.45 0.27
15 -15 -7 -0.14 0.19
15 -15 7 0.04 0.24
15 -7 15 0.12 0.19
15 7 -15 -0.14 0.26
15 7 15 -0.03 0.14
15 7 15 0.1 0.18
15 15 -7 0.21 0.29
15 15 7 0.13 0.27
-16 0 0 4.44 0.43
-16 0 0 3.9 0.36
0 -16 0 2.25 0.35
0 0 16 4.53 0.56
0 0 16 3.37 0.43
0 16 0 2.53 0.39
-16 0 -1 0.16 0.14
-16 0 -1 0.49 0.11
-16 0 1 0.37 0.16
-16 0 1 0.39 0.13
-1 -16 0 0.38 0.23
-1 16 0 0.19 0.26
0 -1 16 0.24 0.21
0 1 16 0.31 0.2
0 1 16 0.28 0.16
1 -16 0 0.49 0.24
1 16 0 0.53 0.26
0 16 1 0.53 0.28
1 0 16 0.27 0.21
-16 -1 0 0.4 0.16
-16 -1 0 0.26 0.12
-16 1 0 0.38 0.14
-16 1 0 0.47 0.13
-1 0 16 0.58 0.22
-1 0 16 0.43 0.15
0 -16 -1 0.33 0.24
0 -16 1 0.22 0.22
0 16 -1 -0.16 0.26
1 0 16 0.57 0.16
1 16 1 1.59 0.29
1 16 -1 1.63 0.32
-16 -1 -1 1.63 0.21
-16 -1 -1 2.43 0.27
-16 -1 1 1.67 0.22
-16 -1 1 2.42 0.3
-16 1 -1 1.58 0.2
-16 1 -1 2.44 0.29
-16 1 1 2.95 0.38
-16 1 1 2.37 0.32
-1 -16 -1 1.5 0.27
-1 -16 1 1.5 0.3
-1 -1 16 3.78 0.51
-1 1 16 2.09 0.28
-1 1 16 1.71 0.22
-1 16 -1 1.62 0.3
-1 16 1 1.51 0.31
1 -16 -1 1.33 0.27
1 -16 1 1.69 0.29
1 -1 16 1.8 0.27
1 -1 16 1.89 0.22
1 1 16 1.91 0.26
1 1 16 2.98 0.38
-16 0 -2 1.49 0.19
-16 0 -2 2.33 0.26
0 -2 16 1.46 0.27
0 2 16 1.56 0.26
0 2 16 2.97 0.37
2 -16 0 1.98 0.3
2 16 0 1.59 0.3
-2 -16 0 1.69 0.28
-2 16 0 1.48 0.32
2 0 16 1.97 0.26
2 0 16 2.72 0.36
0 -16 2 1.56 0.29
0 16 -2 1.65 0.32
0 16 2 1.82 0.31
-16 0 2 3.11 0.4
-16 0 2 2.48 0.31
-2 0 16 1.79 0.22
0 -16 -2 1.77 0.28
-16 2 0 2.36 0.31
-16 -2 0 1.59 0.21
-16 -2 0 2.05 0.27
-16 2 0 1.5 0.21
-2 0 16 1.42 0.26
2 1 16 0.77 0.16
-1 2 16 0.77 0.18
2 1 16 0.97 0.22
2 -16 1 0.43 0.26
2 16 -1 1.16 0.26
-2 16 1 0.65 0.29
-16 1 2 0.65 0.15
-2 -16 -1 0.77 0.25
-1 -16 2 0.8 0.31
-16 -1 -2 0.53 0.14
-16 -2 1 0.73 0.18
-16 -2 1 0.68 0.13
-16 2 -1 0.71 0.15
-16 2 -1 0.73 0.14
-16 -1 -2 0.7 0.11
1 -16 -2 0.69 0.28
-2 -1 16 0.74 0.25
1 16 2 0.77 0.26
-1 2 16 0.95 0.22
1 -2 16 0.48 0.23
-16 1 2 0.67 0.17
-1 16 -2 0.49 0.29
-16 2 1 0.52 0.17
-16 2 1 0.55 0.15
1 -16 2 0.81 0.28
1 16 -2 0.85 0.29
-1 -2 16 0.63 0.23
2 -1 16 0.89 0.22
2 -1 16 0.61 0.16
-2 -16 1 0.44 0.23
1 2 16 0.64 0.23
-2 16 -1 0.79 0.28
2 16 1 0.7 0.26
-1 -16 -2 0.79 0.23
-16 -2 -1 0.47 0.16
-16 -2 -1 0.61 0.12
-1 16 2 0.99 0.3
-16 -1 2 0.64 0.18
-16 -1 2 0.68 0.14
-16 1 -2 0.68 0.13
-16 1 -2 0.59 0.12
-2 1 16 0.77 0.18
1 2 16 0.65 0.17
2 -16 -1 0.77 0.26
-2 1 16 0.67 0.22
-2 -16 2 1.02 0.35
2 -16 2 0.77 0.28
2 -2 16 1.12 0.23
2 2 16 0.92 0.22
2 2 16 1.12 0.18
2 16 -2 0.88 0.35
-2 16 2 1.01 0.36
-2 -2 16 1.19 0.26
-2 2 16 1.05 0.24
-2 2 16 1.35 0.2
-2 16 -2 1.36 0.3
-16 -2 -2 1.05 0.16
-16 -2 -2 1.52 0.21
-16 2 2 0.81 0.16
-2 -16 -2 0.79 0.23
-16 -2 2 1.03 0.14
-16 2 -2 0.85 0.14
-16 2 -2 0.99 0.15
-16 2 2 0.91 0.19
-16 -2 2 0.85 0.19
2 16 2 0.78 0.28
-3 0 16 0.96 0.24
0 -16 -3 0.95 0.3
0 16 -3 1.28 0.47
0 16 3 0.86 0.31
0 -3 16 0.66 0.24
3 16 0 0.92 0.26
3 0 16 0.7 0.16
-3 -16 0 0.81 0.24
-16 0 3 0.99 0.2
-16 0 -3 1.04 0.14
3 0 16 1.08 0.23
-3 0 16 1.06 0.18
-16 0 3 1.06 0.15
-16 3 0 0.82 0.16
0 3 16 1.08 0.18
3 -16 0 1.24 0.31
-16 -3 0 0.89 0.19
-16 3 0 1.18 0.17
0 3 -16 0.87 0.21
0 3 16 0.91 0.22
-3 16 0 0.94 0.28
-16 0 -3 1.61 0.2
-1 3 16 0.28 0.17
1 3 -16 0.29 0.2
-16 -1 -3 0.31 0.11
3 1 16 0.28 0.2
-1 3 16 0.31 0.19
1 16 3 0.46 0.27
-1 16 -3 0.41 0.33
-16 3 -1 0.47 0.13
-3 16 1 0.82 0.38
-16 -1 -3 0.49 0.09
-16 3 -1 0.42 0.14
-16 1 3 0.3 0.17
-16 1 3 0.51 0.14
-3 -16 -1 0.24 0.21
3 1 16 0.19 0.15
-16 -3 1 0.33 0.17
-3 -1 16 0.44 0.24
1 -3 16 0.17 0.21
3 -16 1 0.76 0.26
3 16 -1 0.29 0.25
-16 -1 3 0.33 0.13
-1 -3 16 0.22 0.21
-16 3 1 0.19 0.15
1 3 16 0.19 0.2
1 3 16 0.1 0.16
3 -16 -1 -0.16 0.42
-1 3 -16 0.28 0.19
-16 -3 -1 0.45 0.16
3 16 1 0.21 0.25
-3 -16 1 0.45 0.24
3 -1 16 0.27 0.14
-16 1 -3 0.37 0.1
-1 16 3 -0.02 0.48
-16 -1 3 0.31 0.18
3 -1 16 0.15 0.2
-3 1 16 0.32 0.21
-16 3 1 0.52 0.14
-1 -16 -3 0.25 0.23
-3 1 16 0.42 0.17
-16 1 -3 0.44 0.1
-3 16 -1 0.67 0.27
3 2 16 1.22 0.21
-2 -16 3 0.4 0.42
2 -3 16 0.67 0.22
2 16 3 1.11 0.26
-3 -2 16 1.05 0.24
3 -16 2 0.82 0.28
-16 -3 2 0.89 0.19
-16 3 -2 1.04 0.15
-2 3 16 1.22 0.19
3 2 16 1.09 0.17
-16 2 3 0.96 0.19
-16 2 3 1.22 0.17
-16 -2 -3 1.49 0.19
-2 3 16 0.93 0.21
-16 3 -2 1.14 0.15
3 16 -2 1.11 0.36
-3 -16 -2 0.83 0.25
2 3 -16 1.15 0.24
-16 -2 -3 1.75 0.23
-2 16 -3 0.9 0.35
2 -16 -3 1.07 0.34
-2 -16 -3 1.05 0.24
3 -2 16 0.85 0.22
2 3 16 0.69 0.21
2 3 16 0.96 0.18
-2 -3 16 0.84 0.25
-16 2 -3 0.86 0.13
-16 2 -3 0.91 0.14
-16 -2 3 1 0.15
-2 3 -16 0.93 0.21
-3 2 16 1.01 0.19
-16 -3 -2 1.67 0.2
-16 -3 -2 0.96 0.16
-3 16 -2 1.09 0.3
-3 2 16 1.41 0.25
3 16 2 0.7 0.27
-16 3 2 1.05 0.18
-16 3 2 0.9 0.18
-16 -2 3 1.12 0.19
-16 3 -3 0.24 0.11
-16 -3 -3 0.28 0.08
-16 -3 3 0.05 0.17
-3 -3 16 0.42 0.25
-3 3 -16 0.28 0.18
-3 3 16 0.39 0.19
-3 3 16 0.47 0.16
-3 16 -3 0.01 0.36
-16 -3 -3 0.26 0.11
-3 -16 3 0.21 0.32
-16 3 -3 0.31 0.12
-16 3 3 0.16 0.16
3 -16 3 0.27 0.38
3 -3 16 0.52 0.21
3 3 -16 0.34 0.21
3 3 16 0.5 0.18
3 3 16 0.1 0.15
3 16 -3 -0.03 0.4
3 16 3 -0.07 0.25
-3 16 3 -0.11 0.28
-3 -16 -3 0.28 0.21
-16 3 3 0.32 0.14
3 -16 -3 0.34 0.22
-4 -16 0 -0.06 0.23
-4 16 0 -0.19 0.33
4 16 0 -0.05 0.24
-16 -4 0 0.04 0.16
4 0 16 0.05 0.13
4 0 16 -0.14 0.18
-16 0 4 -0.21 0.17
16 4 0 -0.02 0.14
0 16 -4 -0.59 0.35
-4 0 16 0.05 0.16
-16 4 0 0.03 0.15
-4 0 16 -0.02 0.26
0 -16 4 0 0.27
0 -4 16 -0.01 0.22
0 4 -16 -0.39 0.2
0 4 16 -0.31 0.2
0 4 16 -0.14 0.16
-16 0 4 0.05 0.14
-1 4 16 3.36 0.39
4 1 16 1.89 0.25
-16 1 4 1.65 0.24
4 16 -1 1.69 0.33
-16 -4 1 3.38 0.41
-16 4 -1 2.54 0.34
-4 -1 16 1.28 0.3
-16 1 4 2.68 0.34
-4 -16 -1 1.45 0.27
1 16 4 1.59 0.39
1 -4 16 1.92 0.28
4 1 16 2.56 0.36
-1 -16 4 1.09 0.32
4 -16 1 1.21 0.33
1 4 -16 2.28 0.27
-1 4 16 2.25 0.28
1 -16 -4 1.08 0.31
-4 -1 16 2.97 0.41
-1 -4 16 1.6 0.27
-1 4 -16 1.71 0.26
-4 1 16 1.97 0.3
-4 1 16 1.96 0.24
-4 16 -1 1.62 0.34
-4 -16 1 1.4 0.34
-1 16 4 1.25 0.42
16 4 -1 2.75 0.37
1 4 16 3.59 0.47
-16 -1 4 2.29 0.31
-16 -4 -1 2.61 0.35
4 -1 16 2.73 0.34
1 16 -4 1.25 0.33
-1 -16 -4 1.07 0.38
-16 4 1 2.74 0.36
-16 -1 4 1.57 0.24
4 -1 16 1.82 0.26
1 4 16 2.7 0.38
4 16 1 1.42 0.3
-2 -16 4 -0.03 0.22
-16 -4 2 -0.13 0.16
2 4 -16 0.04 0.2
-4 -16 -2 -0.12 0.21
-2 4 16 -0.17 0.21
2 -16 -4 -0.29 0.21
2 -4 16 -0.1 0.21
-16 2 4 -0.17 0.14
2 16 4 0.37 0.27
-16 4 -2 -0.3 0.13
4 -16 2 -0.12 0.29
4 2 16 -0.17 0.17
-4 16 2 -0.3 0.35
-16 2 4 -0.1 0.17
4 2 16 -0.05 0.14
-2 4 16 0.11 0.17
-4 16 -2 -0.35 0.29
-2 16 4 -0.03 0.27
-2 4 -16 0.12 0.19
-16 -2 4 0.02 0.17
4 16 2 -0.25 0.24
-2 -4 16 0.01 0.21
2 16 -4 -0.04 0.27
-4 2 16 -0.03 0.39
-4 2 16 0.08 0.24
-2 -16 -4 0.15 0.24
2 -16 4 -0.38 0.39
2 4 16 0 0.17
-16 -4 -2 0.1 0.13
2 4 16 -0.16 0.15
16 4 -2 -0.24 0.15
-16 2 -4 -0.17 0.08
4 -2 16 0.03 0.19
-16 4 2 -0.2 0.16
-16 4 2 0 0.15
4 -16 -2 -0.05 0.23
-16 -2 4 0.02 0.13
-16 2 -4 -0.03 0.08
4 3 16 -0.11 0.17
-3 4 16 0.1 0.25
3 16 4 -0.24 0.25
3 -16 -4 0.12 0.19
3 -4 16 0.19 0.21
-4 16 3 -0.13 0.26
-3 -16 4 -0.08 0.23
-16 3 4 -0.08 0.15
-16 -4 3 -0.1 0.16
4 16 -3 0.06 0.26
4 3 16 -0.17 0.14
3 4 -16 -0.32 0.25
-4 3 -16 0.1 0.17
-16 3 4 0.02 0.14
-16 4 -3 0.03 0.12
-3 4 16 0.13 0.21
-4 -16 -3 -0.13 0.2
-4 -3 16 -0.09 0.4
4 -3 16 -0.15 0.19
-4 3 16 0.06 0.35
-3 16 4 0.02 0.24
4 16 3 0.08 0.24
-16 -4 -3 -0.02 0.13
4 3 -16 0.22 0.38
-16 3 -4 -0.13 0.09
-4 16 -3 -0.23 0.42
-16 4 3 0.08 0.16
-16 4 3 -0.06 0.15
3 4 16 -0.01 0.17
-16 3 -4 -0.07 0.1
3 -16 4 0.25 0.4
3 16 -4 -0.04 0.24
-4 -16 3 -0.41 0.23
-16 -3 4 0.05 0.17
4 -16 -3 -0.26 0.2
-3 -16 -4 0.15 0.21
16 4 -3 0.21 0.16
-3 4 -16 -0.07 0.18
3 4 16 0.02 0.15
-16 4 4 0.09 0.15
-16 4 -4 -0.03 0.11
-4 4 16 0.09 0.2
-16 -4 4 -0.08 0.17
-16 -4 -4 -0.06 0.1
-4 16 4 -0.11 0.23
4 -16 -4 -0.1 0.2
4 -16 4 -0.19 0.4
4 -4 16 0.04 0.22
4 16 -4 0.18 0.23
-4 4 16 0.02 0.18
4 16 4 -0.33 0.23
16 4 -4 -0.12 0.17
4 4 16 0 0.15
-16 4 4 0.14 0.16
4 4 -16 0.03 0.22
4 4 16 0.13 0.17
-4 -16 -4 0.02 0.2
-4 -16 4 0.07 0.25
-4 -4 16 -0.17 0.23
-4 4 -16 0.03 0.18
-16 5 0 0.24 0.15
-5 0 16 0.05 0.24
-16 0 5 0.19 0.18
-16 0 5 0.16 0.15
5 0 16 -0.11 0.18
5 0 16 -0.1 0.13
16 -5 0 0.2 0.12
0 16 5 -0.2 0.29
-16 -5 0 0.1 0.16
0 -16 5 0.2 0.25
0 16 -5 0.15 0.27
5 -16 0 0.34 0.35
5 16 0 0.09 0.25
-5 0 16 0.1 0.18
0 -16 -5 0.11 0.21
0 5 16 -0.02 0.19
0 5 16 0.09 0.16
0 5 -16 0.15 0.2
-5 -16 0 0.17 0.23
0 -5 16 0.17 0.23
16 5 0 0.08 0.15
5 16 -1 -0.16 0.35
1 -16 -5 -0.22 0.19
-5 16 1 0.1 0.35
5 1 16 -0.08 0.18
-16 5 -1 -0.01 0.14
1 16 5 -0.22 0.43
-1 16 -5 -0.05 0.26
-16 1 5 -0.1 0.14
-1 -16 5 0.22 0.22
-5 -1 16 -0.13 0.22
-5 -1 16 -0.08 0.19
-1 5 16 0.05 0.17
-16 -5 1 -0.17 0.17
5 1 16 -0.14 0.13
-1 5 16 0.21 0.19
-5 -16 -1 0.09 0.21
1 5 -16 0.21 0.22
-16 1 5 0.05 0.17
16 5 1 0.08 0.14
1 -5 16 0.13 0.23
-5 -16 1 0.08 0.33
5 16 1 0.22 0.24
5 -1 16 -0.07 0.13
1 -16 5 -0.18 0.23
-1 5 -16 0.12 0.21
16 -5 1 0.14 0.11
-5 1 16 -0.27 0.21
-5 16 -1 -0.22 0.39
-16 -1 5 -0.04 0.13
-5 1 16 0.09 0.19
1 16 -5 0.33 0.24
-16 -5 -1 -0.06 0.15
5 -1 16 0.1 0.19
-1 16 5 0.11 0.24
-16 5 1 0.06 0.15
-16 -1 5 0.03 0.18
5 -16 -1 -0.18 0.23
1 5 16 -0.05 0.18
1 5 16 0.13 0.17
-1 -16 -5 0.08 0.29
-1 -5 16 -0.06 0.24
16 5 -1 0.13 0.16
5 2 16 -0.02 0.14
2 -16 -5 0.25 0.21
-16 2 5 0.04 0.17
16 5 2 0.07 0.13
-5 -16 -2 0.03 0.21
-2 5 16 -0.09 0.17
-2 5 16 -0.19 0.19
5 16 -2 0.11 0.4
-5 16 2 -0.04 0.25
2 5 -16 -0.17 0.21
5 2 16 -0.14 0.17
-5 -2 16 -0.09 0.23
-16 2 5 -0.11 0.14
-2 -16 5 -0.08 0.25
-16 -5 2 0.14 0.17
-2 16 -5 0.02 0.27
-16 5 -2 -0.02 0.14
2 -5 16 -0.02 0.23
2 5 16 0.08 0.16
-5 16 -2 -0.02 0.34
-16 -2 5 0.05 0.18
-16 5 2 0.13 0.15
16 5 -2 0 0.16
-16 -5 -2 -0.03 0.15
-2 -5 16 -0.16 0.28
-2 5 -16 0.2 0.21
5 16 2 -0.17 0.24
-16 -2 5 0.03 0.13
2 5 16 0.09 0.18
-5 2 16 0.09 0.17
5 -2 16 0.01 0.18
-5 -16 2 0.02 0.35
2 16 -5 -0.06 0.24
5 -16 -2 0.23 0.21
-5 2 16 -0.22 0.21
-2 16 5 0.11 0.24
16 -5 2 0 0.1
2 -16 5 -0.14 0.25
-5 16 3 0.09 0.25
-16 5 -3 -0.04 0.13
-16 -5 3 0.02 0.17
-5 -16 -3 0.11 0.21
16 5 3 0.17 0.12
-3 16 -5 -0.19 0.3
3 -5 16 -0.22 0.21
3 -16 -5 -0.02 0.19
-16 3 5 0.03 0.16
-5 -3 16 -0.07 0.23
3 16 5 0.55 0.35
-16 3 5 0.37 0.16
5 3 16 0.09 0.17
-3 5 16 -0.03 0.26
-3 -16 5 -0.12 0.22
3 5 -16 -0.28 0.28
-3 5 16 0.32 0.29
-5 3 -16 0.08 0.17
5 3 16 0.07 0.14
5 16 -3 -0.19 0.24
-3 16 5 0 0.24
3 5 16 -0.12 0.17
-3 5 -16 0 0.2
-16 5 3 0.06 0.15
5 16 3 -0.03 0.24
3 5 16 0.05 0.16
5 3 -16 -0.02 0.21
-5 -16 3 0.05 0.22
3 -16 5 0.06 0.24
16 -5 3 0.04 0.09
-5 3 16 -0.14 0.21
-5 3 16 0.15 0.17
-5 16 -3 -0.2 0.44
-3 -5 16 0.1 0.26
5 -3 16 0.21 0.19
16 5 -3 0.1 0.17
5 -16 -3 0.11 0.2
-16 -5 -3 -0.08 0.14
-16 -3 5 -0.08 0.18
3 16 -5 -0.06 0.25
-3 -16 -5 -0.32 0.28
4 -16 -5 0.15 0.2
5 -16 4 0.24 0.43
-16 4 5 0.01 0.14
-5 -16 -4 -0.11 0.21
-16 5 -4 -0.09 0.13
-4 -16 5 -0.34 0.22
4 16 5 -0.18 0.28
-5 -4 16 -0.1 0.24
-16 -5 4 0.2 0.18
5 16 -4 0.3 0.25
-4 5 16 0.3 0.17
5 4 16 0.08 0.15
4 5 -16 -0.14 0.21
-16 4 5 -0.08 0.16
16 5 4 0.04 0.1
-4 16 -5 -0.02 0.3
4 -5 16 -0.12 0.21
-5 4 -16 -0.04 0.17
5 4 16 -0.04 0.16
16 4 -5 -0.18 0.18
-4 5 16 -0.15 0.19
-5 16 4 -0.09 0.24
-4 -5 16 0.13 0.25
4 5 16 0.17 0.17
16 5 -4 0.02 0.17
-4 -16 -5 0.07 0.22
-16 5 4 0.03 0.15
4 16 -5 -0.28 0.25
-4 16 5 -0.47 0.23
5 4 -16 -0.5 0.22
5 16 4 -0.34 0.24
-5 -16 4 0.15 0.24
16 -5 4 -0.05 0.09
5 -4 16 -0.08 0.2
4 5 16 -0.03 0.15
-16 -4 5 0.05 0.18
-16 4 -5 -0.03 0.12
-16 -5 -4 0.07 0.12
5 -16 -4 -0.15 0.19
4 -16 5 -0.15 0.24
-5 4 16 -0.07 0.17
-5 4 16 0 0.19
-4 5 -16 -0.03 0.19
16 -5 5 0.02 0.09
16 5 -5 -0.1 0.19
-16 5 -5 0.04 0.14
-16 5 5 -0.11 0.15
-5 -16 -5 0.12 0.2
-5 -16 5 0.12 0.24
-5 5 16 -0.14 0.19
-5 5 16 0.08 0.17
-16 -5 5 0.07 0.18
-5 16 5 0.22 0.24
5 -16 -5 0.26 0.19
5 -16 5 -0.14 0.25
-5 -5 16 0.1 0.24
-5 5 -16 -0.13 0.18
16 5 5 0.05 0.09
5 16 -5 -0.45 0.25
5 16 5 -0.08 0.25
-16 -5 -5 0.06 0.09
5 5 16 0.12 0.15
5 5 -16 0.15 0.22
5 5 16 0.05 0.17
5 -5 16 -0.18 0.21
-5 16 -5 0.14 0.3
0 16 6 1.36 0.29
6 -16 0 1.73 0.29
6 16 0 1.74 0.32
0 6 16 1.52 0.23
0 -16 6 1.24 0.29
0 16 -6 1.52 0.3
0 -16 -6 1.35 0.25
-16 6 0 2.57 0.36
-6 0 16 1.82 0.29
-6 0 16 3.19 0.38
0 -6 16 1.88 0.29
-16 0 6 1.79 0.24
-16 0 6 3.16 0.36
-6 -16 0 1.69 0.31
-6 16 0 1.21 0.42
16 6 0 1.63 0.22
0 6 -16 1.84 0.28
-16 -6 0 1.67 0.24
6 0 16 2.55 0.34
16 -6 0 2.97 0.32
6 0 16 1.46 0.24
1 -16 -6 0.42 0.21
6 1 16 0.42 0.14
16 -6 -1 0.28 0.13
1 6 -16 0.24 0.23
-16 1 6 0.47 0.16
16 6 1 0.28 0.16
1 -6 16 0.38 0.25
-16 1 6 0.55 0.19
-6 -1 16 0.57 0.24
-1 -16 6 0.28 0.25
-1 16 -6 0.52 0.26
-16 6 -1 0.39 0.16
1 16 6 0.27 0.27
-1 6 16 0.44 0.18
6 1 16 0.47 0.19
6 -16 1 0.18 0.36
-6 -16 -1 0.36 0.24
-6 16 1 -0.1 0.26
-6 -1 16 0.47 0.17
-16 -6 1 0.24 0.18
1 16 -6 0.27 0.26
-16 -1 6 0.31 0.15
16 -6 1 0.27 0.13
-16 6 1 0.45 0.17
1 6 16 0.09 0.17
-16 -1 6 0.4 0.18
-1 6 -16 0.31 0.23
-1 -6 16 0.33 0.27
-1 -16 -6 0.58 0.22
6 16 1 0.3 0.25
-6 1 16 0.71 0.22
16 6 -1 0.33 0.18
1 -16 6 0.48 0.25
6 -1 16 0.63 0.14
-6 1 16 0.53 0.18
-16 -6 -1 0.4 0.18
6 -16 -1 0.17 0.21
-1 16 6 0.27 0.26
6 -1 16 0.23 0.19
-2 16 -6 0.87 0.29
6 16 -2 1.04 0.31
-16 2 6 3 0.36
-16 -6 2 1.49 0.23
6 2 16 1.89 0.24
16 -6 -2 2.39 0.32
16 6 2 2.69 0.34
-6 -16 -2 1.37 0.26
-16 6 -2 1.29 0.2
-6 16 2 1.56 0.29
2 -6 16 1.39 0.27
2 -16 -6 1.83 0.25
-16 2 6 3.23 0.44
-2 -16 6 0.89 0.27
2 16 6 1.23 0.36
-6 -2 16 1.72 0.27
6 2 16 1.7 0.2
-2 -6 16 1.36 0.34
-16 -2 6 1.61 0.23
-16 6 2 1.37 0.21
-16 -2 6 1.53 0.2
16 -6 2 2.4 0.29
6 -16 -2 1.13 0.24
2 -16 6 1.24 0.27
-6 2 16 1.99 0.27
-2 6 -16 1.88 0.26
-2 -16 -6 1.88 0.28
-6 -16 2 1.22 0.28
-6 2 16 1.54 0.22
-16 -6 -2 1.52 0.22
2 6 16 1.71 0.22
16 6 -2 1.7 0.23
6 -2 16 1.67 0.25
-2 16 6 1.8 0.29
6 16 2 1.3 0.29
2 16 -6 1.33 0.31
-3 -16 6 0.59 0.26
16 -6 -3 0.42 0.14
3 6 -16 -0.05 0.23
3 -16 -6 0.45 0.19
-6 -3 16 0.84 0.26
6 16 -3 0.57 0.25
-16 6 -3 0.38 0.15
3 -6 16 0.55 0.24
6 3 16 0.5 0.18
-3 16 -6 0.36 0.26
-16 -6 3 0.3 0.19
-3 6 16 0.28 0.19
-6 16 3 0.47 0.25
16 6 3 0.21 0.14
-16 3 6 0.47 0.18
-16 3 6 0.53 0.16
3 16 6 0.18 0.42
-6 -16 -3 0.28 0.23
-6 3 -16 0.17 0.17
6 3 16 0.39 0.15
-6 -16 3 0.16 0.23
6 -3 16 0.17 0.21
6 3 -16 0.52 0.23
-6 3 16 0.28 0.18
-16 -3 6 0.51 0.19
-3 16 6 0.43 0.25
3 6 16 0.15 0.17
3 -16 6 0.29 0.24
-16 6 3 0.33 0.16
6 -16 -3 0.36 0.2
-3 -6 16 0.16 0.25
16 -6 3 0.26 0.11
16 6 -3 0.34 0.19
-3 -16 -6 0 0.35
-3 6 -16 0.31 0.21
-16 -6 -3 0.43 0.15
6 16 3 -0.04 0.25
3 16 -6 0.42 0.27
-6 3 16 0.67 0.23
-16 4 6 0.47 0.15
-16 4 6 0.55 0.18
-6 -16 -4 0.23 0.21
-4 16 -6 0.61 0.27
4 -16 -6 0.23 0.2
-6 16 4 0.37 0.25
16 4 -6 0.39 0.2
-16 -6 4 0.34 0.21
-16 6 -4 0.38 0.15
4 6 -16 0.23 0.22
-6 -4 16 0.56 0.23
-6 4 -16 0.45 0.17
6 16 -4 0.05 0.27
16 6 4 0.28 0.13
-4 -16 6 0.72 0.27
6 4 16 0.21 0.17
6 4 16 0.39 0.15
6 -16 4 0.39 0.32
-4 6 16 0.39 0.19
4 -6 16 0.18 0.22
16 -6 -4 0.27 0.14
-16 6 4 0.31 0.17
-4 6 -16 0.32 0.2
-6 4 16 -0.03 0.17
-16 4 -6 0.33 0.11
6 -16 -4 0.36 0.19
-16 -6 -4 0.23 0.14
-4 -6 16 -0.02 0.24
6 -4 16 0.43 0.21
6 4 -16 -0.35 0.22
-16 -4 6 0.3 0.19
4 6 16 0.43 0.18
-6 -16 4 0.42 0.24
16 -6 4 0.37 0.11
16 6 -4 0.38 0.2
6 16 4 0.36 0.26
4 16 -6 0.28 0.26
-6 4 16 0.48 0.22
-4 16 6 0.79 0.26
4 -16 6 0.19 0.24
-5 -16 6 0.24 0.25
5 6 -16 0.21 0.23
6 5 16 0.51 0.17
-16 5 6 0.38 0.16
6 -16 5 0.13 0.25
6 16 -5 0.69 0.28
16 -5 6 0.33 0.09
5 -16 -6 0.35 0.19
-6 5 -16 0.25 0.19
-16 5 6 0.77 0.19
16 6 5 0.31 0.12
-16 6 -5 0.38 0.16
5 -6 16 0.72 0.24
-6 -16 -5 0.4 0.21
-6 16 5 0.31 0.24
6 5 16 0.07 0.18
-5 16 -6 0.34 0.26
-5 6 16 0.7 0.23
16 5 -6 0.49 0.21
5 16 6 0.38 0.34
-6 -5 16 0.45 0.26
-5 6 16 0.34 0.18
-16 -6 5 0.53 0.2
-6 5 16 0.26 0.21
-16 -6 -5 0.32 0.12
-5 16 6 0.58 0.25
6 16 5 0.52 0.27
5 6 16 0.14 0.17
16 -6 5 0.27 0.11
5 -16 6 0.41 0.22
-16 -5 6 0.31 0.2
-5 -16 -6 0.36 0.35
-6 -16 5 0.45 0.26
16 6 -5 0.53 0.2
-16 6 5 0.25 0.16
-5 6 -16 0.39 0.2
-16 5 -6 0.24 0.14
5 16 -6 0.15 0.26
6 -16 -5 0.38 0.19
6 -5 16 0.39 0.22
6 5 -16 0.48 0.22
-5 -6 16 0.59 0.24
-6 5 16 0.2 0.18
-6 16 -5 0.14 0.32
-6 -16 6 -0.05 0.25
-16 6 -6 -0.03 0.15
-6 6 -16 -0.19 0.19
6 16 6 -0.04 0.28
-16 -6 6 0.24 0.22
-16 6 6 -0.08 0.16
-6 -16 -6 -0.03 0.25
-6 16 6 -0.16 0.24
16 -6 6 0.11 0.1
16 6 -6 -0.04 0.2
16 6 6 0.13 0.1
6 -16 -6 -0.12 0.19
6 -16 6 0.16 0.23
6 -6 16 -0.14 0.21
6 16 -6 0.19 0.28
6 6 16 -0.14 0.17
-16 -6 -6 -0.13 0.1
6 6 -16 0.04 0.24
-6 6 16 -0.15 0.21
-6 6 16 -0.16 0.19
-6 16 -6 0.21 0.26
6 6 16 0.05 0.16
-6 -6 16 -0.2 0.24
0 -7 16 -0.32 0.35
0 -16 -7 -0.16 0.2
0 -16 7 -0.02 0.25
7 0 16 -0.04 0.14
-16 -7 0 -0.05 0.2
7 16 0 -0.45 0.44
0 16 7 -0.06 0.26
16 -7 0 0 0.13
-7 16 0 0.19 0.28
-16 0 7 -0.01 0.16
-7 -16 0 -0.11 0.39
0 7 -16 -0.37 0.24
0 7 16 0.05 0.19
-16 7 0 -0.25 0.17
-7 0 16 -0.16 0.24
-7 0 16 -0.28 0.18
0 -7 -16 0.21 0.17
-16 0 7 -0.11 0.19
0 16 -7 0.41 0.27
16 7 0 0.11 0.17
7 0 16 -0.32 0.19
7 -16 0 0.19 0.22
1 16 7 0 0.25
7 1 16 0 0.18
-7 -1 16 -0.06 0.18
-16 -7 1 -0.07 0.21
1 -7 16 0.21 0.24
-1 -16 7 -0.09 0.25
-7 -1 16 0.07 0.23
-7 16 1 -0.39 0.25
-1 -7 -16 0.25 0.17
1 -16 -7 0.15 0.21
1 7 -16 0.19 0.28
-16 1 7 -0.27 0.18
7 -16 1 0.19 0.25
7 1 16 0.12 0.14
16 -7 -1 0.17 0.14
16 7 1 0.13 0.17
-16 7 -1 -0.06 0.16
-1 16 -7 -0.02 0.27
-7 -16 -1 0.15 0.25
-16 1 7 -0.14 0.15
-7 1 16 0.06 0.23
-1 -16 -7 0.01 0.19
7 -16 -1 0.08 0.21
1 7 16 0.18 0.2
16 -7 1 0.16 0.13
1 -16 7 0.27 0.25
7 -1 16 0.02 0.18
-7 -16 1 -0.25 0.37
-16 7 1 0.11 0.16
7 16 1 0.08 0.27
-16 -1 7 0.03 0.15
-16 -7 -1 -0.16 0.19
-7 16 -1 0.02 0.39
-1 16 7 0.41 0.25
-1 7 -16 0.12 0.22
-1 -7 16 0.27 0.29
1 16 -7 0.6 0.28
-16 -1 7 -0.07 0.19
16 7 -1 -0.04 0.18
7 -1 16 0.08 0.13
-7 1 16 0.03 0.17
-2 -16 7 -0.04 0.28
16 7 2 0.02 0.16
-2 7 16 0.18 0.19
-16 2 7 -0.04 0.16
7 2 16 0.1 0.14
-7 -2 16 0.07 0.23
-16 2 7 -0.33 0.19
-16 7 -2 -0.04 0.16
7 16 -2 0.27 0.25
-16 -7 2 0.16 0.2
-7 -16 -2 -0.03 0.22
7 -16 2 0.06 0.36
2 -7 16 -0.42 0.24
7 2 16 0.13 0.17
-2 -7 -16 0.02 0.17
2 16 7 0.02 0.25
-2 16 -7 0.12 0.26
2 7 -16 -0.03 0.22
2 -16 -7 0.1 0.2
-7 16 2 -0.01 0.26
16 -7 -2 -0.08 0.14
2 16 -7 -0.42 0.27
7 -2 16 0.04 0.19
-7 -16 2 -0.07 0.24
-16 7 2 0.08 0.17
-2 -7 16 -0.2 0.25
7 -16 -2 -0.13 0.2
2 -16 7 0.03 0.24
-2 16 7 -0.33 0.26
16 7 -2 0.06 0.2
-16 -2 7 0.14 0.21
-16 -2 7 0.02 0.15
-7 2 16 -0.27 0.22
-7 2 16 -0.36 0.18
16 -7 2 0.02 0.13
-7 16 -2 -0.27 0.43
-2 -16 -7 0.12 0.2
2 7 16 -0.25 0.19
7 16 2 0.42 0.26
-16 -7 -2 0.04 0.18
-2 7 -16 -0.03 0.22
16 -7 -3 0 0.14
-7 16 3 -0.18 0.25
-7 3 -16 -0.07 0.17
-16 3 7 -0.04 0.18
-16 -7 3 0.13 0.21
-16 7 -3 0.37 0.17
-3 -16 7 0.03 0.25
-3 16 -7 0.23 0.25
3 7 -16 -0.15 0.23
-16 3 7 -0.13 0.15
7 16 -3 0.09 0.26
7 3 16 -0.1 0.15
7 3 16 0.22 0.17
3 16 7 -0.17 0.26
-3 7 16 0.04 0.18
16 7 3 -0.05 0.15
3 -7 16 -0.1 0.24
-7 -3 16 0.46 0.27
3 -16 -7 0.11 0.19
-7 -16 -3 -0.08 0.23
7 -16 3 -0.05 0.32
-3 7 -16 0.06 0.22
16 -7 3 -0.04 0.12
-16 -3 7 -0.1 0.18
-3 -7 16 0.13 0.25
7 16 3 -0.21 0.25
3 16 -7 -0.12 0.26
16 7 -3 0.09 0.19
7 -16 -3 0.06 0.2
-7 -16 3 -0.08 0.25
-7 16 -3 -0.61 0.47
7 -3 16 0.31 0.2
-7 3 16 0.19 0.21
7 3 -16 -0.19 0.22
-3 -16 -7 -0.08 0.2
-3 16 7 -0.09 0.26
3 7 16 0.01 0.18
3 -16 7 0.18 0.25
-7 3 16 0.17 0.18
-16 7 3 0.01 0.17
-16 -7 -3 0.09 0.17
7 16 -4 -0.12 0.26
-4 7 16 0.07 0.19
-4 16 -7 -0.29 0.25
-7 16 4 -0.4 0.25
-7 4 -16 -0.01 0.18
16 4 -7 -0.17 0.21
7 4 16 0.15 0.16
4 16 7 0.01 0.29
-16 7 -4 0.05 0.17
7 4 16 0.03 0.15
-16 -7 4 -0.06 0.21
-4 -16 7 -0.03 0.24
16 -7 -4 0.04 0.14
4 -7 16 -0.1 0.23
-7 -4 16 0 0.24
7 -16 4 -0.13 0.28
-7 -16 -4 0.17 0.22
-16 4 7 0.09 0.16
-16 4 7 -0.2 0.18
16 7 4 -0.18 0.14
4 -16 -7 -0.36 0.19
4 7 -16 0.09 0.23
-4 -16 -7 0.12 0.24
-4 7 -16 0.08 0.22
7 16 4 -0.21 0.25
4 7 16 -0.08 0.17
-16 -4 7 -0.03 0.2
16 -7 4 0.02 0.12
7 -4 16 0 0.2
7 4 -16 -0.13 0.21
-7 4 16 -0.05 0.2
-7 4 16 0.07 0.18
-7 16 -4 0.12 0.46
-16 7 4 0.05 0.16
-7 -16 4 0.17 0.25
4 -16 7 0.11 0.25
-4 -7 16 0.03 0.24
-4 16 7 0.22 0.25
7 -16 -4 0.29 0.2
16 7 -4 0.26 0.2
4 16 -7 0.11 0.28
-16 -7 -4 -0.01 0.15
7 5 16 0.01 0.16
-5 16 -7 0.19 0.26
-16 5 7 -0.02 0.17
16 -7 -5 0.07 0.14
-7 5 -16 -0.08 0.18
-16 7 -5 -0.11 0.17
16 5 -7 -0.17 0.21
7 5 16 -0.01 0.17
5 7 -16 0.02 0.23
16 -5 7 -0.24 0.08
-16 5 7 -0.05 0.15
7 -16 5 0.02 0.24
7 16 -5 0 0.28
-5 7 16 -0.18 0.18
5 -7 16 -0.09 0.22
16 7 5 0.04 0.13
-7 16 5 -0.12 0.24
-7 -16 -5 0.18 0.21
-16 -7 5 0.06 0.21
-7 -5 16 -0.29 0.24
-5 -16 7 -0.2 0.24
5 16 7 0.2 0.42
5 -16 -7 -0.09 0.18
-16 -5 7 0.04 0.22
7 16 5 -0.04 0.25
-7 16 -5 -0.14 0.3
5 -16 7 0.01 0.25
5 7 16 -0.08 0.17
7 -16 -5 0.06 0.2
-5 7 -16 -0.1 0.22
-5 -16 -7 -0.29 0.29
5 16 -7 -0.51 0.27
-7 5 16 0.15 0.17
-16 7 5 0.07 0.17
-5 16 7 0 0.25
-5 -7 16 -0.1 0.26
16 -7 5 -0.11 0.12
-7 5 16 -0.07 0.2
-16 -7 -5 0.04 0.13
-16 5 -7 -0.15 0.13
7 -5 16 -0.26 0.22
7 5 -16 0.25 0.22
16 7 -5 0.22 0.21
-7 -16 5 0.24 0.25
16 -7 -6 -0.15 0.15
7 16 -6 -0.01 0.26
-7 6 -16 0.08 0.19
-16 7 -6 0.17 0.17
-7 -6 16 0.25 0.26
-6 16 -7 0.13 0.27
6 7 -16 0.02 0.24
16 7 6 0.13 0.13
6 -16 -7 -0.14 0.19
-6 -16 7 0 0.25
-16 -7 6 -0.22 0.23
-16 6 7 -0.04 0.17
7 6 16 0.14 0.17
7 6 16 0 0.17
-7 16 6 -0.04 0.25
16 -6 7 0.03 0.1
16 6 -7 0.28 0.21
-16 -6 -7 0.08 0.08
-7 -16 -6 0.19 0.21
6 -7 16 -0.07 0.23
7 -16 6 0.27 0.25
-6 7 16 -0.04 0.19
16 7 -6 -0.01 0.22
-16 -6 7 0.28 0.22
-7 6 16 0.22 0.19
16 -7 6 0.01 0.12
-7 6 16 -0.07 0.22
6 16 -7 -0.04 0.26
16 6 7 0.13 0.09
-16 7 6 0.05 0.17
-16 6 -7 -0.08 0.15
7 -16 -6 0.19 0.19
7 16 6 0.17 0.28
-7 -16 6 -0.02 0.26
-7 16 -6 0.4 0.26
7 -6 16 0.01 0.21
6 7 16 -0.2 0.18
-6 7 -16 0 0.21
-6 16 7 -0.34 0.25
-6 -7 16 0.05 0.25
-16 -7 -6 0.16 0.12
6 -16 7 -0.17 0.23
7 6 -16 -0.22 0.24
7 -16 7 0.48 0.25
16 7 7 0.74 0.14
7 -7 16 0.65 0.24
-16 -7 7 0.69 0.25
-16 -7 -7 0.76 0.13
7 16 -7 0.48 0.29
7 16 7 0.88 0.36
16 -7 -7 0.84 0.18
16 -7 7 0.88 0.14
-16 7 7 0.73 0.2
-7 16 7 0.09 0.27
7 -16 -7 0.63 0.2
-7 -16 -7 0.49 0.37
-7 -16 7 0.8 0.27
-7 -7 16 0.76 0.3
-7 7 -16 0.98 0.23
-16 7 -7 0.95 0.18
-7 16 -7 0.73 0.28
7 7 -16 0.69 0.26
7 7 16 0.66 0.19
-7 7 16 0.88 0.22
16 7 -7 0.71 0.24
-16 -8 0 0.97 0.23
0 16 8 0.76 0.29
0 -16 8 0.57 0.28
0 16 -8 1.2 0.31
8 -16 0 1.48 0.26
0 -8 16 0.57 0.28
0 8 -16 0.4 0.25
16 8 0 0.59 0.22
-16 0 8 0.79 0.22
-16 0 8 0.96 0.18
0 -16 -8 1.17 0.25
-16 8 0 0.93 0.2
-8 0 16 0.8 0.26
-8 0 16 0.95 0.2
8 0 16 0.79 0.21
8 0 16 0.91 0.16
-8 16 0 0.95 0.29
16 -8 0 0.76 0.17
-1 -16 8 4.87 0.72
-8 -1 16 5.81 0.57
-16 8 -1 4.88 0.58
-1 8 16 4.66 0.61
16 8 1 4.72 0.59
-16 -8 1 5.78 0.64
-16 1 8 5.45 0.55
8 -16 1 4.22 0.62
16 -8 -1 5.51 0.53
1 -16 -8 6.09 0.62
1 8 -16 5.38 0.69
-1 16 -8 4.77 0.73
-8 -1 16 5.22 0.73
-16 1 8 6.04 0.62
-8 -16 -1 5.05 0.75
8 1 16 5.07 0.59
-8 16 1 5 0.69
-1 -8 -16 5.79 0.54
8 1 16 5.53 0.52
1 16 8 4.32 0.69
8 -16 -1 5.82 0.62
16 8 -1 4.93 0.62
-16 -8 -1 5.15 0.62
-1 16 8 5.66 0.69
-16 8 1 5.54 0.58
-8 1 16 6.19 0.69
-1 8 -16 3.27 0.59
-16 -1 8 5.37 0.54
-1 -16 -8 5.29 0.61
16 -8 1 5.53 0.53
-1 -8 16 4.77 0.74
-16 -1 8 6.08 0.64
8 -1 16 5.16 0.61
1 -8 -16 6.13 0.58
1 -16 8 5.74 0.69
8 -1 16 5.49 0.51
1 8 16 3.99 0.59
-8 1 16 5.24 0.58
-8 -16 -2 2.17 0.32
-16 2 8 3.33 0.4
-16 2 8 2.09 0.28
2 16 8 2.19 0.33
-16 -8 2 2.03 0.3
-8 16 2 1.57 0.33
-2 -16 8 2.28 0.34
-2 -8 -16 3.07 0.39
8 2 16 3.63 0.38
2 -8 16 1.6 0.32
-8 -2 16 2.09 0.32
8 -16 2 2.32 0.32
8 16 -2 2.02 0.34
-2 8 16 3.81 0.5
8 2 16 3.43 0.44
16 -8 -2 3.04 0.4
-2 16 -8 1.98 0.36
2 -16 -8 3.43 0.48
16 8 2 3.25 0.45
2 8 -16 1.83 0.31
-16 8 -2 1.78 0.27
-16 8 2 2.98 0.41
8 -2 16 2.12 0.28
-2 8 -16 1.85 0.29
-16 -2 8 3.28 0.39
-2 16 8 2.35 0.33
-8 2 16 4.17 0.46
16 -8 2 3.19 0.35
16 8 -2 1.96 0.28
-8 2 16 2.45 0.33
2 16 -8 1.93 0.36
-2 -16 -8 2.07 0.28
8 -2 16 3.21 0.36
-2 -8 16 1.59 0.33
2 -16 8 1.76 0.33
-8 16 -2 1.53 0.38
-8 -16 2 2.1 0.32
2 8 16 2.27 0.28
8 -16 -2 1.76 0.28
-16 -2 8 1.63 0.29
2 -8 -16 3.47 0.42
-16 -8 -2 2.04 0.27
8 16 2 1.94 0.33
-8 -16 -3 0.92 0.26
8 -16 3 0.65 0.28
-3 16 -8 0.63 0.3
-16 -8 3 1.56 0.25
16 8 3 1 0.2
8 3 16 1.09 0.19
-16 3 8 0.72 0.21
3 16 8 0.81 0.28
-8 16 3 0.94 0.28
8 16 -3 0.68 0.29
3 -8 16 0.55 0.26
-16 3 8 1.24 0.19
-8 -3 16 0.92 0.3
3 8 -16 0.59 0.26
-3 -8 -16 1.27 0.19
-16 8 -3 1.09 0.21
16 -8 -3 1.03 0.19
8 3 16 1.09 0.18
-3 8 16 1.09 0.24
3 -16 -8 0.56 0.22
-3 -16 8 0.83 0.27
3 -16 8 1.06 0.26
-3 8 -16 1.22 0.25
8 16 3 1.15 0.28
-16 8 3 1.13 0.2
16 -8 3 0.84 0.17
8 -16 -3 0.8 0.23
-8 -16 3 0.6 0.27
8 -3 16 1.09 0.23
-8 3 16 0.92 0.21
-3 -16 -8 1.15 0.23
-3 -8 16 0.64 0.28
3 16 -8 0.89 0.3
-16 -8 -3 0.74 0.2
3 8 16 0.8 0.21
-3 16 8 0.96 0.28
-16 -3 8 1.03 0.24
-8 3 16 1.45 0.27
3 -8 -16 1.18 0.19
-8 16 -3 1.3 0.37
16 8 -3 1.05 0.23
8 3 -16 0.92 0.27
8 16 -4 0.19 0.27
-8 16 4 0.82 0.26
-16 8 -4 0.4 0.2
4 8 -16 0.51 0.25
16 8 4 0.38 0.17
-4 -16 8 0.88 0.26
16 4 -8 0.92 0.24
4 16 8 0.56 0.28
-4 8 16 0.42 0.2
-16 4 8 0.7 0.19
-8 -4 16 0.37 0.26
8 4 16 0.65 0.18
-16 -8 4 0.69 0.24
-16 4 8 0.62 0.2
-8 -16 -4 0.68 0.24
8 4 16 0.8 0.18
-4 16 -8 0.81 0.29
4 -8 16 0.26 0.25
-4 -8 -16 0.7 0.17
8 -16 4 0.35 0.26
16 -8 -4 0.59 0.17
4 -16 -8 0.35 0.21
-8 4 -16 0.38 0.19
-8 -16 4 0.91 0.28
8 16 4 0.35 0.27
8 -16 -4 0.89 0.23
-4 -8 16 0.51 0.28
-8 4 16 0.57 0.2
-16 -8 -4 0.67 0.18
4 -8 -16 0.67 0.19
-16 -4 8 0.75 0.24
-16 8 4 0.49 0.19
4 8 16 0.72 0.21
4 16 -8 0.75 0.3
16 8 -4 0.68 0.23
4 -16 8 0.65 0.26
-4 16 8 0.95 0.27
8 -4 16 0.72 0.22
8 4 -16 0.12 0.23
16 -8 4 0.82 0.15
-8 4 16 0.77 0.24
-8 16 -4 0.71 0.34
-4 8 -16 0.55 0.23
-4 -16 -8 0.6 0.21
-16 5 8 3.6 0.45
-8 16 5 2.08 0.31
8 5 16 2.86 0.39
5 8 -16 1.9 0.3
-5 -16 8 1.42 0.3
-5 16 -8 1.28 0.31
16 8 5 2.72 0.38
8 16 -5 2.11 0.34
5 -8 16 1.8 0.3
-8 -5 16 1.23 0.29
-8 5 -16 1.85 0.25
8 -16 5 1.79 0.31
-5 8 16 1.61 0.27
16 5 -8 1.9 0.28
-16 -8 5 1.89 0.29
-5 -8 -16 3.18 0.37
8 5 16 3.23 0.42
5 16 8 1.59 0.32
-8 -16 -5 1.52 0.27
16 -8 -5 2.85 0.38
5 -16 -8 1.76 0.26
-16 8 -5 1.55 0.25
-16 5 8 2.96 0.4
-8 5 16 1.81 0.28
-8 5 16 3.25 0.42
16 8 -5 1.73 0.28
-8 -16 5 1.5 0.3
-16 8 5 2.99 0.4
5 -8 -16 1.79 0.23
8 -5 16 1.96 0.27
-5 8 -16 1.76 0.27
8 -16 -5 1.69 0.26
-16 5 -8 2.78 0.29
-16 -5 8 2.05 0.29
5 8 16 3.36 0.44
-5 16 8 2.11 0.3
-8 16 -5 1.29 0.34
8 16 5 1.5 0.31
5 16 -8 1.47 0.31
8 5 -16 1.53 0.28
16 -8 5 2.72 0.33
-16 -8 -5 2.58 0.36
5 -16 8 1.27 0.29
-5 -8 16 1.62 0.32
-5 -16 -8 1.72 0.27
6 16 8 0.18 0.3
6 -16 -8 -0.33 0.19
-6 16 -8 0.33 0.27
-6 8 16 -0.44 0.19
-8 -6 16 -0.2 0.25
-6 -16 8 -0.34 0.26
16 -6 8 -0.19 0.1
16 8 6 0.15 0.15
8 6 16 -0.09 0.17
8 6 16 0.21 0.17
6 -8 16 -0.23 0.23
16 6 -8 -0.1 0.22
-8 -16 -6 0.05 0.21
-16 8 -6 0.18 0.19
8 -16 6 -0.12 0.24
-6 -8 -16 -0.29 0.14
-8 6 -16 -0.02 0.2
-16 6 8 0.27 0.19
16 -8 -6 -0.1 0.16
-16 -8 6 -0.22 0.23
-8 16 6 -0.1 0.25
8 16 -6 -0.11 0.26
6 8 -16 0.4 0.25
6 8 16 -0.05 0.19
-8 6 16 -0.07 0.2
-8 6 16 0.2 0.2
-6 -16 -8 0 0.22
16 8 -6 -0.35 0.22
8 16 6 0.03 0.26
8 -6 16 0.11 0.22
8 6 -16 -0.37 0.23
6 16 -8 -0.14 0.28
-8 16 -6 0.1 0.27
-16 6 -8 -0.02 0.14
-6 -8 16 0.46 0.25
8 -16 -6 0.32 0.19
16 -8 6 0.01 0.14
-6 8 -16 -0.02 0.2
-16 -8 -6 0.06 0.13
6 -16 8 -0.04 0.25
-16 -6 8 0.1 0.23
-16 8 6 -0.05 0.18
6 -8 -16 0.06 0.19
-8 -16 6 0.34 0.27
-6 16 8 0.22 0.25
-16 -7 -8 0.64 0.11
-16 8 -7 0.56 0.21
16 -7 8 0.47 0.14
16 -8 -7 0.56 0.22
7 -8 16 0.69 0.24
-7 16 -8 0.91 0.28
-8 16 7 0.38 0.26
7 8 -16 0.83 0.27
-8 7 -16 0.66 0.22
16 8 7 0.67 0.17
7 16 8 0.4 0.45
7 -16 -8 0.87 0.22
-8 -16 -7 0.87 0.28
8 7 16 0.76 0.2
-7 8 16 0.72 0.22
-7 -8 -16 0.8 0.17
8 -16 7 0.35 0.26
8 16 -7 0.82 0.31
-8 -7 16 0.63 0.29
-16 -8 7 0.44 0.26
16 7 -8 0.72 0.27
-7 -16 8 0.5 0.28
8 7 -16 0.46 0.27
-7 8 -16 0.62 0.22
-16 -7 8 0.53 0.3
-7 -16 -8 1.05 0.34
-7 16 8 0.52 0.27
7 -16 8 0.65 0.26
8 -7 16 0.39 0.23
8 16 7 0.46 0.34
-16 -8 -7 0.66 0.14
16 8 -7 0.21 0.24
16 7 8 0.67 0.14
-16 7 -8 0.96 0.19
-7 -8 16 0.87 0.29
7 16 -8 0.8 0.3
-8 7 16 0.53 0.22
-16 8 7 0.63 0.23
-8 -16 7 0.65 0.29
-8 16 -7 0.7 0.29
7 8 16 0.91 0.21
8 -16 -7 0.78 0.23
16 -8 7 0.55 0.15
8 -16 8 0.32 0.26
-8 16 8 0.44 0.26
-8 -8 16 0.18 0.28
-16 -8 -8 0.62 0.14
8 -16 -8 0.44 0.2
8 -8 16 0.3 0.26
-8 -16 8 0.53 0.3
8 8 -16 0.27 0.27
8 8 16 0.64 0.21
8 16 -8 0.91 0.29
16 -8 -8 0.8 0.19
16 -8 8 0.55 0.16
16 8 -8 0.34 0.28
16 8 8 0.48 0.17
-8 -8 -16 0.59 0.16
-16 8 -8 0.67 0.21
-16 8 8 0.51 0.21
-8 16 -8 0.53 0.29
-8 8 16 0.43 0.23
-8 8 -16 0.61 0.22
-16 -8 8 0.76 0.29
0 -16 9 0.27 0.28
-16 0 9 -0.13 0.17
-16 9 0 -0.25 0.21
9 16 0 0.26 0.41
-9 0 16 -0.17 0.2
16 -9 0 -0.04 0.16
-9 16 0 0.05 0.28
0 -9 -16 0.28 0.18
0 -9 16 0.09 0.28
0 9 -16 0.21 0.26
-9 0 16 -0.18 0.23
-16 0 9 -0.11 0.22
16 9 0 0.04 0.22
0 16 9 0.3 0.27
9 0 16 0.23 0.19
0 16 -9 0.34 0.31
-16 -9 0 -0.07 0.23
9 -16 0 -0.01 0.23
-9 -16 0 0.36 0.45
0 9 16 0.38 0.23
9 0 16 -0.25 0.14
0 -16 -9 0.3 0.22
-9 -1 16 0.13 0.2
9 -16 1 -0.17 0.23
-9 16 1 -0.26 0.29
-1 -9 -16 -0.19 0.2
1 -16 -9 0.31 0.22
-9 -1 16 -0.17 0.27
-9 -16 -1 -0.48 0.39
-16 -9 1 -0.16 0.23
-1 16 -9 0.23 0.29
9 1 16 -0.19 0.14
1 9 -16 0.12 0.24
9 1 16 0.09 0.19
-16 9 -1 -0.43 0.21
9 16 -1 0.06 0.29
16 9 1 -0.12 0.2
-16 1 9 -0.24 0.21
-1 -16 9 -0.19 0.29
1 -9 16 -0.09 0.26
-16 1 9 -0.21 0.18
1 16 9 0.27 0.29
16 -9 -1 0 0.17
-1 9 16 0.18 0.23
-16 -1 9 0.13 0.17
16 -9 1 -0.02 0.16
-1 -16 -9 0.25 0.22
-1 9 -16 -0.44 0.26
-9 1 16 -0.18 0.24
-16 -9 -1 -0.23 0.22
1 -16 9 0.42 0.3
1 9 16 -0.24 0.25
-16 9 1 -0.15 0.2
-9 1 16 -0.4 0.2
-9 16 -1 -0.15 0.29
9 -1 16 0.08 0.2
-16 -1 9 -0.24 0.23
16 9 -1 0.09 0.22
-1 -9 16 -0.04 0.28
9 16 1 -0.44 0.47
1 16 -9 0.48 0.31
9 -1 16 -0.05 0.14
-9 -16 1 -0.08 0.27
9 -16 -1 -0.46 0.23
-1 16 9 -0.22 0.27
1 -9 -16 -0.14 0.19
16 9 2 -0.02 0.2
9 2 16 0.04 0.15
-2 -9 -16 0.1 0.21
-2 9 16 0.4 0.22
2 -16 -9 -0.01 0.21
2 9 -16 0.19 0.25
2 -9 16 0.15 0.29
16 -9 -2 -0.02 0.16
9 -16 2 0.09 0.22
9 16 -2 0.37 0.3
-2 -16 9 0.27 0.28
-16 2 9 0 0.21
-2 16 -9 0.49 0.29
2 16 9 0.01 0.28
9 2 16 0.15 0.18
-16 -9 2 0.03 0.23
-16 9 -2 0.02 0.21
-9 -16 -2 0.49 0.27
-9 16 2 0 0.28
-16 2 9 -0.07 0.17
-9 -2 16 -0.16 0.26
16 -9 2 -0.08 0.16
-9 2 16 0.03 0.24
2 -16 9 0.22 0.26
2 9 16 0.2 0.24
9 -16 -2 0.01 0.21
-2 16 9 0.06 0.28
-2 9 -16 0.02 0.33
-9 2 16 -0.07 0.21
-2 -9 16 0.47 0.27
-16 -2 9 0.14 0.24
-16 -9 -2 0.02 0.21
16 9 -2 -0.17 0.22
-2 -16 -9 0.53 0.22
-16 9 2 0.6 0.2
9 -2 16 0.02 0.13
-16 -2 9 -0.04 0.16
2 16 -9 0.41 0.3
2 -9 -16 0.37 0.18
-9 -16 2 -0.19 0.26
-9 16 -2 -0.22 0.28
9 -2 16 0.25 0.2
9 16 2 -0.18 0.28
-16 3 9 0 0.2
3 -16 -9 0.22 0.2
-3 -9 -16 0.17 0.17
9 16 -3 0.09 0.27
-16 9 -3 -0.13 0.2
-3 -16 9 0.14 0.26
-3 16 -9 -0.08 0.29
-9 -3 16 0.34 0.28
3 -9 16 -0.21 0.38
9 3 16 0.13 0.17
3 16 9 -0.18 0.27
-9 -16 -3 -0.06 0.23
16 9 3 -0.17 0.19
-16 -9 3 0.1 0.24
-3 9 16 0.05 0.21
9 3 16 0 0.16
9 -16 3 0.09 0.23
-9 16 3 -0.03 0.26
3 9 -16 0.14 0.25
-16 3 9 -0.09 0.16
16 -9 -3 -0.07 0.15
-3 16 9 -0.13 0.26
9 -3 16 -0.02 0.2
3 -16 9 -0.05 0.25
-9 16 -3 -0.01 0.28
9 -16 -3 0.02 0.21
-16 9 3 0.21 0.2
-9 -16 3 -0.27 0.26
16 -9 3 -0.08 0.15
3 16 -9 -0.03 0.27
3 -9 -16 0.02 0.18
-9 3 16 -0.08 0.19
-16 -9 -3 0.1 0.19
-3 9 -16 -0.07 0.27
-16 -3 9 0.15 0.23
-3 -16 -9 0.09 0.21
3 9 16 0.2 0.21
16 9 -3 0 0.23
-3 -9 16 -0.17 0.27
-9 3 16 0.11 0.22
9 16 3 0.26 0.28
-4 16 -9 -0.22 0.28
9 16 -4 -0.13 0.29
-4 9 16 0.01 0.2
9 4 16 0.01 0.16
-4 -9 -16 -0.08 0.16
9 -16 4 -0.19 0.24
16 -9 -4 -0.12 0.16
-16 4 9 0.14 0.18
-9 -16 -4 0.02 0.23
-4 -16 9 -0.11 0.26
-9 16 4 -0.15 0.26
4 -16 -9 -0.14 0.2
4 -9 16 0.19 0.25
9 4 16 0.25 0.17
16 9 4 -0.1 0.17
4 16 9 0.52 0.27
4 9 -16 0.22 0.24
-16 4 9 -0.27 0.22
-16 9 -4 0 0.2
-9 -4 16 0.39 0.26
-9 4 -16 0.07 0.17
-16 -9 4 -0.04 0.23
-16 -4 9 0.01 0.24
4 -16 9 0.03 0.26
4 16 -9 -0.12 0.28
16 9 -4 -0.02 0.23
-16 -9 -4 -0.16 0.18
-9 4 16 -0.24 0.21
9 16 4 0.36 0.26
-4 -9 16 -0.29 0.27
-4 9 -16 0.01 0.23
4 -9 -16 0.39 0.18
9 4 -16 -0.16 0.24
-9 4 16 0.01 0.19
-4 -16 -9 0.22 0.2
-9 -16 4 0.06 0.26
-9 16 -4 0.27 0.28
-4 16 9 -0.01 0.25
4 9 16 -0.12 0.19
9 -4 16 -0.12 0.2
-16 9 4 0.26 0.2
9 -16 -4 -0.09 0.2
16 -9 4 -0.1 0.15
5 9 -16 -0.04 0.25
-16 -9 5 -0.07 0.23
9 16 -5 0.11 0.29
-5 9 16 -0.14 0.22
-5 -9 -16 -0.23 0.16
-5 -16 9 -0.57 0.26
9 -16 5 0.06 0.24
-5 16 -9 -0.09 0.29
-9 16 5 0.17 0.25
-9 -5 16 -0.19 0.24
-16 5 9 -0.41 0.3
9 5 16 -0.19 0.16
9 5 16 -0.14 0.17
-9 -16 -5 0.17 0.23
5 -9 16 -0.09 0.23
5 16 9 0.06 0.27
16 9 5 -0.13 0.18
5 -16 -9 -0.12 0.2
16 -9 -5 -0.23 0.17
16 5 -9 -0.47 0.34
-9 5 -16 -0.09 0.17
-16 9 -5 -0.2 0.2
5 -9 -16 -0.12 0.18
-5 9 -16 0.06 0.23
-5 16 9 0.03 0.25
-16 9 5 -0.34 0.2
-9 -16 5 -0.29 0.26
-9 16 -5 -0.07 0.27
-16 -9 -5 0.3 0.17
9 -16 -5 0.17 0.19
-5 -9 16 0.18 0.27
16 -9 5 -0.11 0.15
9 -5 16 0.12 0.22
-16 -5 9 -0.31 0.3
9 16 5 -0.07 0.27
5 9 16 -0.14 0.2
9 5 -16 -0.19 0.25
-9 5 16 -0.1 0.24
-9 5 16 -0.06 0.18
5 16 -9 -0.07 0.28
-16 5 -9 0.09 0.1
-5 -16 -9 -0.02 0.2
16 9 -5 0.12 0.23
5 -16 9 -0.09 0.25
9 -16 6 0.8 0.27
16 9 6 0.88 0.19
6 9 -16 0.64 0.26
-9 16 6 1.31 0.29
-9 -6 16 0.84 0.28
9 6 16 0.92 0.19
16 -9 -6 0.82 0.19
-6 -16 9 0.62 0.28
6 -9 16 0.88 0.27
6 16 9 0.63 0.28
-9 6 -16 1.03 0.22
-6 9 16 0.77 0.23
6 -16 -9 0.8 0.21
-16 6 9 0.56 0.22
-6 -9 -16 0.88 0.18
-16 -9 6 0.86 0.28
-16 9 -6 1.02 0.22
9 16 -6 0.87 0.31
-16 6 9 1.27 0.21
9 6 16 0.92 0.2
16 -6 9 0.98 0.13
-9 -16 -6 0.4 0.23
16 6 -9 0.62 0.27
-6 16 -9 0.77 0.3
-6 16 9 0.54 0.28
-6 9 -16 0.66 0.24
-9 6 16 0.89 0.24
-9 -16 6 0.85 0.28
-16 9 6 1.13 0.22
9 16 6 0.84 0.28
9 -6 16 0.69 0.23
-16 -6 9 0.42 0.29
9 -16 -6 0.74 0.22
6 -16 9 0.8 0.27
-16 -9 -6 0.82 0.17
-6 -9 16 0.6 0.28
-16 6 -9 0.83 0.16
-9 6 16 0.78 0.22
-6 -16 -9 0.83 0.22
9 6 -16 0.78 0.25
16 -9 6 0.92 0.17
6 -9 -16 0.93 0.21
6 16 -9 1.04 0.3
-9 16 -6 0.92 0.3
6 9 16 1.09 0.23
16 9 -6 0.76 0.26
-16 9 -7 1.38 0.24
-16 -7 -9 1.74 0.21
7 16 9 0.96 0.3
-9 16 7 0.73 0.28
-16 7 9 1.14 0.23
-9 -7 16 1.21 0.3
16 -9 -7 0.9 0.2
-9 7 -16 0.95 0.22
16 7 -9 0.79 0.27
-7 -9 -16 1.09 0.19
9 7 16 1.08 0.22
-7 -16 9 1.04 0.3
-7 9 16 1.3 0.26
7 9 -16 0.77 0.26
16 9 7 0.77 0.2
9 -16 7 1 0.28
9 16 -7 0.96 0.3
-7 16 -9 0.81 0.31
16 -7 9 1.12 0.16
7 -9 16 1.16 0.28
7 -16 -9 0.8 0.2
-9 -16 -7 1.25 0.26
9 7 -16 1.41 0.29
-9 7 16 1.25 0.28
-9 16 -7 0.59 0.3
-7 -16 -9 0.8 0.23
16 7 9 0.93 0.15
-16 -9 -7 1.16 0.18
16 -9 7 1.04 0.18
9 -16 -7 0.89 0.22
7 -9 -16 0.92 0.21
7 16 -9 0.94 0.31
9 -7 16 0.69 0.26
-9 -16 7 0.99 0.3
9 16 7 0.99 0.3
-9 7 16 1.15 0.24
-7 -9 16 0.59 0.31
-16 -7 9 0.92 0.28
-16 7 -9 0.71 0.19
-7 16 9 0.89 0.28
7 9 16 1.02 0.24
-7 9 -16 0.95 0.25
7 -16 9 0.76 0.28
-16 9 7 0.65 0.23
-16 -8 -9 0.97 0.14
9 16 -8 1.61 0.33
-9 -8 16 1.05 0.28
-8 -16 9 0.83 0.3
-8 16 -9 1.06 0.3
9 8 16 1.06 0.23
-16 -9 8 0.82 0.27
8 16 9 0.59 0.32
8 -9 16 0.82 0.27
8 9 -16 0.35 0.26
8 -16 -9 0.76 0.22
-8 9 16 1.06 0.27
9 -16 8 1.02 0.28
-9 -16 -8 0.58 0.42
-9 16 8 0.8 0.28
16 -9 -8 0.94 0.2
-8 -9 -16 0.83 0.18
16 -8 9 0.96 0.17
-16 9 -8 0.72 0.23
-16 8 9 0.81 0.23
16 9 8 0.89 0.2
-9 8 -16 0.77 0.23
16 8 -9 0.58 0.27
-8 -16 -9 0.75 0.24
16 -8 -9 1.03 0.21
16 8 9 0.84 0.18
9 -16 -8 1.14 0.22
8 -9 -16 1.02 0.21
-8 -9 16 0.56 0.31
8 9 16 0.76 0.23
9 8 -16 0.69 0.28
-16 9 8 0.68 0.23
9 -8 16 0.8 0.26
16 -9 8 1.09 0.19
16 9 -8 0.86 0.26
8 16 -9 0.93 0.33
-16 -8 9 1.09 0.27
-16 8 -9 0.78 0.21
9 16 8 0.95 0.5
-9 16 -8 0.95 0.31
-8 16 9 0.31 0.27
-9 8 16 0.71 0.24
8 -16 9 1.05 0.28
-16 -9 -8 0.81 0.16
-9 -16 8 0.37 0.29
-8 9 -16 1.31 0.25
16 9 -9 -0.23 0.26
16 9 9 -0.22 0.18
-9 16 9 -0.29 0.28
9 -9 -16 0.25 0.22
9 -9 16 0.14 0.26
-16 9 -9 -0.56 0.21
-9 -16 -9 -0.21 0.34
-9 16 -9 0.29 0.28
-9 -9 -16 -0.08 0.15
-9 -9 16 0.2 0.28
9 16 -9 0.13 0.29
9 9 -16 -0.26 0.24
9 9 16 0.25 0.21
16 -9 9 -0.1 0.17
-16 -9 -9 0.02 0.14
-16 -9 9 0.14 0.27
9 16 9 0.65 0.44
-16 9 9 0.11 0.22
9 -16 9 0.02 0.26
-9 9 -16 -0.19 0.22
-9 9 16 0.05 0.24
-9 -16 9 -0.19 0.27
16 -9 -9 0.09 0.18
9 -16 -9 -0.08 0.18
0 10 -16 2.09 0.36
0 10 16 2.75 0.36
10 -16 0 4.39 0.61
10 16 0 2.78 0.41
0 -16 10 2.77 0.39
-10 16 0 5.14 0.69
0 -10 16 2.32 0.4
0 16 -10 2.5 0.41
16 -10 0 3.93 0.49
16 10 0 4.93 0.58
0 -16 -10 3.87 0.53
-16 -10 0 4.98 0.61
-10 -16 0 2.29 0.4
0 16 10 4.67 0.64
-16 10 0 4.55 0.59
-16 0 10 2.22 0.54
-10 -1 16 6.28 0.78
10 1 16 6.8 0.56
1 -10 16 6.01 0.8
-1 16 -10 5.2 0.8
-16 -10 1 5.81 0.72
1 -16 -10 5.99 0.67
-10 -1 16 7.29 0.65
1 10 -16 5.86 0.77
10 -16 1 5.74 0.71
10 16 -1 5.42 0.81
-1 -16 10 5.53 0.77
-10 16 1 5.59 0.79
-1 -10 -16 6.48 0.62
10 1 16 5.97 0.63
16 10 1 5.53 0.68
-16 1 10 4.11 0.61
-16 10 -1 5.52 0.66
16 -10 -1 6.2 0.6
-1 10 16 5.99 0.68
1 16 10 5.72 0.74
16 10 -1 5.29 0.69
-16 10 1 5.46 0.7
1 10 16 6.73 0.71
10 -1 16 5.41 0.65
10 -1 16 6.36 0.56
-16 -10 -1 5.71 0.69
-10 1 16 6.17 0.75
-1 -16 -10 5.5 0.66
-10 16 -1 5.62 0.77
1 -10 -16 7.3 0.65
-1 -10 16 5.58 0.77
10 -16 -1 5.42 0.66
16 -10 1 5.65 0.61
-10 -16 1 5.3 0.76
-1 10 -16 5.33 0.73
-1 16 10 6.11 0.75
1 -16 10 6.39 0.76
2 -16 -10 0.74 0.24
2 10 -16 0.31 0.29
2 16 10 0.21 0.28
16 10 2 0.5 0.23
10 16 -2 0.74 0.3
10 2 16 0.67 0.19
-2 -16 10 0.79 0.31
-2 16 -10 0.43 0.33
-10 16 2 0.56 0.28
16 -10 -2 0.8 0.2
-16 2 10 0.34 0.24
-16 -10 2 0.64 0.25
-10 -16 -2 0.62 0.32
2 -10 16 0.47 0.29
-2 -10 -16 0.36 0.2
-10 -2 16 0.86 0.29
-16 2 10 0.59 0.25
10 -16 2 0.49 0.25
-2 10 16 0.62 0.24
10 2 16 0.65 0.16
-16 10 -2 0.66 0.24
-16 -10 -2 0.52 0.23
-2 -10 16 0.24 0.27
10 -2 16 0.41 0.21
10 -2 16 0.63 0.15
-10 2 16 0.8 0.28
-16 -2 10 0.64 0.31
2 10 16 0.72 0.23
16 -10 2 0.54 0.18
16 10 -2 0.67 0.25
10 16 2 0.55 0.37
-16 10 2 0.69 0.24
2 16 -10 0.36 0.31
-10 -16 2 0.62 0.28
10 -16 -2 0.7 0.23
-2 10 -16 0.27 0.26
-2 -16 -10 0.58 0.22
2 -10 -16 0.77 0.21
-10 2 16 0.61 0.21
-10 16 -2 0.84 0.29
2 -16 10 0.08 0.29
-16 -2 10 0.52 0.32
-2 16 10 0.43 0.28
-3 10 16 0.88 0.23
-3 -16 10 1.02 0.31
3 -16 -10 0.93 0.23
3 10 -16 0.61 0.27
-10 16 3 0.65 0.28
10 -16 3 0.99 0.25
16 10 3 1.1 0.23
10 16 -3 1.41 0.33
-3 16 -10 0.84 0.32
-10 -3 16 1.28 0.3
3 -10 16 0.74 0.27
-16 -10 3 0.9 0.26
10 3 16 0.93 0.19
-16 10 -3 1 0.24
16 -10 -3 1.16 0.2
3 16 10 1.1 0.29
-16 3 10 1.13 0.25
-16 3 10 0.86 0.2
-10 -16 -3 1.21 0.27
10 3 16 1.18 0.18
-10 3 16 1.06 0.22
10 -3 16 0.94 0.23
-10 -16 3 0.78 0.28
3 -16 10 0.95 0.29
3 -10 -16 1.24 0.21
16 10 -3 1.03 0.26
-10 3 16 1.06 0.27
-16 -3 10 1.14 0.27
10 16 3 1.09 0.3
16 -10 3 0.94 0.19
-3 16 10 0.96 0.29
-3 -16 -10 0.73 0.23
-3 10 -16 1.26 0.28
3 16 -10 1.47 0.32
-10 16 -3 1.28 0.29
-16 10 3 0.89 0.23
-3 -10 16 0.77 0.3
10 -16 -3 0.74 0.23
-16 -10 -3 0.93 0.23
10 -16 4 1.25 0.26
-10 -16 -4 1.02 0.26
-4 -16 10 1.28 0.31
-4 10 16 1.46 0.25
-4 -10 -16 1.61 0.22
-16 10 -4 1.38 0.25
-10 4 -16 1.6 0.21
-16 4 10 1.53 0.23
16 -10 -4 1.31 0.21
10 16 -4 1.43 0.31
-16 -10 4 1.21 0.28
-4 16 -10 0.78 0.31
16 10 4 1.15 0.24
4 10 -16 1.12 0.27
4 16 10 1.39 0.3
-16 4 10 1.15 0.24
4 -16 -10 1.49 0.23
10 4 16 1.52 0.21
-10 16 4 1.35 0.3
10 4 16 1.44 0.2
-10 -4 16 1.44 0.3
4 -10 16 1.01 0.3
-4 -16 -10 1.27 0.24
-16 -10 -4 0.99 0.22
10 16 4 1.59 0.31
16 10 -4 1.51 0.28
10 -4 16 1.6 0.25
10 4 -16 1.15 0.28
-16 10 4 1.22 0.25
-4 -10 16 1.29 0.33
-10 -16 4 1.15 0.31
4 -10 -16 1.85 0.23
-10 4 16 1.42 0.25
4 16 -10 1.56 0.31
4 10 16 1.52 0.26
10 -16 -4 1.82 0.25
-10 16 -4 1.41 0.3
-4 16 10 1.7 0.3
4 -16 10 1.11 0.29
16 -10 4 1.45 0.21
-10 4 16 1.32 0.27
-4 10 -16 0.68 0.33
-16 -4 10 1.13 0.28
5 10 -16 0.1 0.24
-5 -16 10 0.15 0.27
-16 -10 5 -0.02 0.25
10 -16 5 -0.1 0.24
10 16 -5 0.11 0.29
-16 5 10 -0.05 0.19
-10 -5 16 0.06 0.24
5 16 10 -0.09 0.26
16 -10 -5 0.13 0.17
16 10 5 -0.14 0.2
10 5 16 0.15 0.16
10 5 16 -0.06 0.17
5 -16 -10 0.01 0.17
5 -10 16 0 0.38
-5 16 -10 -0.19 0.28
-16 10 -5 0.31 0.22
-10 16 5 -0.24 0.25
-5 10 16 0.14 0.23
-10 5 -16 -0.04 0.17
-16 5 10 0.03 0.21
-5 -10 -16 -0.01 0.17
16 5 -10 -0.01 0.23
-10 -16 -5 0.25 0.23
10 -16 -5 -0.05 0.2
-16 -5 10 0.01 0.25
16 10 -5 0.14 0.26
-16 5 -10 0.05 0.09
5 10 16 0.05 0.22
10 16 5 0.21 0.26
-10 5 16 -0.09 0.19
-16 -10 -5 0.32 0.18
-16 10 5 -0.05 0.21
-10 16 -5 0.05 0.27
10 -5 16 -0.07 0.2
10 5 -16 -0.09 0.24
-5 -10 16 -0.31 0.28
-5 -16 -10 -0.21 0.2
-5 16 10 -0.14 0.26
16 -10 5 -0.05 0.16
-5 10 -16 0.03 0.26
-10 5 16 0.08 0.21
5 -16 10 0.18 0.27
5 16 -10 -0.5 0.27
-10 -16 5 -0.01 0.26
5 -10 -16 -0.07 0.19
16 -6 10 0.87 0.14
6 -16 -10 0.95 0.21
6 10 -16 0.74 0.26
-10 6 -16 1.08 0.22
10 6 16 0.95 0.19
-6 10 16 0.66 0.23
-10 -6 16 0.68 0.28
6 -10 16 0.79 0.28
10 6 16 0.89 0.2
10 -16 6 1.16 0.27
6 16 10 1.05 0.3
-6 16 -10 0.72 0.3
-16 6 10 0.79 0.21
-10 -16 -6 0.87 0.23
16 -10 -6 1.19 0.21
-16 6 10 1.07 0.23
-10 16 6 0.74 0.27
-6 -10 -16 1.1 0.2
16 6 -10 1.14 0.28
16 10 6 0.81 0.22
-16 -10 6 0.97 0.31
10 16 -6 0.88 0.3
-16 10 -6 1.09 0.24
-6 -16 10 0.69 0.29
16 -10 6 0.84 0.19
-16 -10 -6 1.02 0.19
10 -16 -6 1.17 0.23
-6 16 10 0.84 0.29
-10 -16 6 1 0.29
6 16 -10 1.21 0.32
6 -16 10 1.09 0.28
-16 10 6 1.24 0.26
-16 -6 10 0.94 0.28
10 -6 16 0.9 0.25
-10 6 16 0.75 0.25
-16 6 -10 0.89 0.16
10 16 6 1.11 0.3
6 10 16 0.93 0.24
-6 -10 16 0.99 0.29
-6 10 -16 1.12 0.26
16 10 -6 1.08 0.3
-10 16 -6 1.25 0.29
10 6 -16 0.51 0.25
6 -10 -16 0.9 0.2
-6 -16 -10 0.79 0.22
-10 6 16 0.79 0.23
-16 10 -7 -0.07 0.22
10 7 16 0.01 0.2
7 -16 -10 0.52 0.21
-16 7 10 0.28 0.22
-7 16 -10 -0.11 0.29
-10 7 -16 0.37 0.2
-16 -10 7 0.14 0.26
16 10 7 0.42 0.21
7 -10 16 0.44 0.26
-10 -7 16 -0.01 0.28
10 16 -7 -0.05 0.28
-7 -16 10 0.57 0.29
16 -7 10 0.19 0.14
16 7 -10 0.09 0.24
16 -10 -7 0.54 0.18
10 -16 7 0.29 0.26
7 16 10 0.33 0.28
-7 10 16 0.17 0.23
-10 -16 -7 0.14 0.23
-16 -7 -10 0.23 0.09
-7 -10 -16 0.01 0.17
7 10 -16 0.09 0.26
-10 16 7 0.06 0.25
-16 10 7 0.01 0.22
7 -16 10 0.33 0.27
-7 16 10 0.09 0.25
-10 7 16 0.02 0.22
-7 -16 -10 0.23 0.21
10 -7 16 0.04 0.22
-10 7 16 0.17 0.22
16 -10 7 0.31 0.17
16 10 -7 0.07 0.26
7 10 16 0.41 0.22
-16 -7 10 0.05 0.26
-10 16 -7 0.19 0.28
7 -10 -16 0.16 0.19
-10 -16 7 0.33 0.28
10 16 7 0.24 0.28
-16 -10 -7 0.22 0.17
16 7 10 0.09 0.13
10 -16 -7 0.29 0.19
-7 -10 16 0.35 0.29
-16 7 -10 0.24 0.16
-7 10 -16 0.47 0.25
7 16 -10 -0.25 0.29
10 7 -16 0.2 0.27
-8 -16 10 -0.01 0.28
-8 10 16 0.15 0.24
16 10 8 0.31 0.2
-16 -10 8 0.53 0.27
10 -16 8 -0.28 0.26
8 10 -16 -0.45 0.26
-16 10 -8 0.3 0.22
-10 -16 -8 0.3 0.29
-8 -10 -16 0.36 0.17
16 -10 -8 0.1 0.18
16 -8 10 0.2 0.16
-8 16 -10 0.68 0.31
-10 8 -16 0.23 0.21
10 16 -8 -0.02 0.31
-16 -8 -10 0.1 0.11
-16 8 10 0.3 0.23
8 -16 -10 0.11 0.2
16 8 -10 0.41 0.26
-10 16 8 0.15 0.26
8 16 10 0.27 0.28
-10 -8 16 0.1 0.27
8 -10 16 0.99 0.28
10 8 16 0.29 0.2
8 10 16 0.43 0.22
-8 10 -16 0.33 0.24
16 -10 8 0.38 0.18
10 16 8 0.17 0.33
-10 16 -8 0.08 0.3
10 -8 16 0.53 0.24
-8 16 10 0.1 0.26
-16 10 8 0.39 0.23
-8 -16 -10 0.07 0.22
-8 -10 16 0.28 0.28
-10 -16 8 0.4 0.28
8 -10 -16 0.47 0.2
10 -16 -8 0.17 0.19
10 8 -16 -0.04 0.27
8 -16 10 0.35 0.28
16 8 10 0.27 0.17
16 10 -8 -0.14 0.27
-16 -10 -8 0.39 0.16
-16 -8 10 0.35 0.27
-16 8 -10 0.32 0.19
-10 8 16 0.32 0.23
8 16 -10 0.42 0.3
-16 9 10 0.81 0.24
9 -16 -10 0.62 0.21
-9 -16 10 0.64 0.32
9 10 -16 0.65 0.27
10 16 -9 0.79 0.31
16 10 9 0.87 0.22
10 9 16 0.65 0.24
16 -9 10 0.6 0.19
-16 -10 9 0.37 0.29
16 -10 -9 0.7 0.2
9 16 10 1.12 0.31
-9 -10 -16 0.63 0.18
-16 10 -9 0.85 0.25
-10 -9 16 0.72 0.31
-9 10 16 0.68 0.25
-16 -9 -10 0.5 0.14
9 -10 16 0.71 0.27
-10 16 9 0.4 0.27
10 -16 9 0.2 0.28
16 9 -10 0.47 0.28
-9 16 -10 0.75 0.31
-10 9 -16 0.74 0.25
-16 -9 10 0.61 0.29
9 16 -10 0.7 0.3
10 -9 16 0.56 0.25
10 9 -16 0.51 0.28
-16 9 -10 0.73 0.22
16 9 10 0.7 0.2
9 10 16 0.72 0.25
16 10 -9 0.6 0.28
16 -10 9 0.55 0.19
9 -10 -16 1.04 0.23
-9 -10 16 0.69 0.29
-10 16 -9 0.6 0.29
-16 -10 -9 0.47 0.17
-9 10 -16 0.47 0.25
9 -16 10 0.44 0.28
-9 16 10 0.88 0.27
-10 -9 -16 0.8 0.17
-16 10 9 0.77 0.24
10 -16 -9 0.8 0.23
-10 9 16 0.56 0.25
-9 -16 -10 0.42 0.23
-10 -16 9 0.28 0.3
16 -9 -10 0.58 0.2
10 -10 16 0.5 0.28
-10 -10 16 -0.03 0.31
-10 10 16 0.28 0.24
-10 16 -10 0.19 0.32
16 -10 -10 0.56 0.2
-16 10 -10 0.25 0.24
10 16 10 0.42 0.32
16 10 10 0.33 0.21
-10 -16 -10 0.47 0.24
-10 16 10 0.32 0.28
-10 10 -16 0.22 0.24
-16 -10 -10 0.51 0.17
10 10 16 0.92 0.26
10 16 -10 0.29 0.31
-16 10 10 0.16 0.24
10 -16 -10 0.35 0.21
10 -16 10 0.7 0.28
10 -10 -16 0.2 0.21
16 10 -10 0.8 0.28
-16 -10 10 0.7 0.28
-10 -10 -16 0.43 0.18
-10 -16 10 0.64 0.31
10 10 -16 0.35 0.27
16 -10 10 0.48 0.2
0 11 -16 1.2 0.29
-11 16 0 0.68 0.3
11 0 16 1.06 0.22
16 11 0 1.1 0.27
0 11 16 1.27 0.26
0 -16 -11 1.05 0.25
11 0 16 1.03 0.17
11 16 0 1.01 0.32
0 -16 11 1.02 0.31
0 16 -11 1.2 0.34
0 16 11 1.13 0.3
-16 -11 0 0.68 0.28
-16 11 0 0.52 0.26
16 -11 0 0.99 0.22
0 -11 16 0.75 0.32
-16 0 11 0.9 0.26
-16 0 11 0.97 0.22
0 -11 -16 1.49 0.24
11 -16 0 0.5 0.25
-11 0 16 0.89 0.28
-11 -16 0 0.4 0.29
-11 0 16 0.91 0.23
11 16 -1 -0.26 0.29
-16 1 11 -0.24 0.2
1 16 11 0.06 0.28
-1 11 16 -0.02 0.23
-11 -1 16 -0.04 0.2
11 1 16 -0.14 0.18
16 -11 -1 -0.02 0.19
1 -16 -11 -0.25 0.22
11 -16 1 -0.19 0.24
-11 16 1 -0.49 0.29
1 -11 16 -0.16 0.27
1 11 -16 -0.39 0.27
-11 -16 -1 0.3 0.33
-1 -11 -16 0.18 0.2
11 1 16 0.05 0.14
-16 1 11 -0.43 0.25
-1 16 -11 -0.12 0.3
-11 -1 16 0.18 0.27
16 11 1 -0.47 0.23
-16 11 -1 -0.02 0.24
-16 -11 1 -0.43 0.25
-1 -16 11 -0.01 0.29
16 -11 1 -0.19 0.19
16 11 -1 -0.5 0.24
-1 -11 16 -0.47 0.29
-16 11 1 -0.14 0.24
-1 -16 -11 -0.1 0.23
-1 11 -16 -0.14 0.26
-11 -16 1 -0.24 0.27
-11 1 16 -0.17 0.25
-16 -1 11 -0.05 0.26
1 11 16 -0.02 0.23
11 16 1 -0.31 0.37
11 -1 16 0.1 0.2
-16 -1 11 -0.06 0.18
1 -16 11 -0.29 0.29
-11 1 16 0.06 0.21
-11 16 -1 -0.36 0.28
11 -1 16 0.03 0.14
1 -11 -16 0.02 0.2
-16 -11 -1 -0.34 0.24
-1 16 11 -0.46 0.25
11 -16 -1 0.21 0.22
1 16 -11 -0.14 0.3
-2 11 16 0.29 0.23
-11 -16 -2 -0.4 0.46
-11 -2 16 0.02 0.2
-16 11 -2 -0.14 0.24
2 -16 -11 0.15 0.2
16 -11 -2 -0.12 0.17
-11 -2 16 -0.12 0.25
2 -11 16 0.27 0.27
2 16 11 0.07 0.27
11 16 -2 -0.01 0.31
11 -16 2 0.16 0.23
-16 2 11 -0.1 0.24
16 11 2 -0.21 0.22
-2 -16 11 -0.11 0.3
-2 -11 -16 -0.22 0.19
-16 2 11 -0.01 0.19
11 2 16 0.13 0.15
11 2 16 -0.22 0.17
-11 16 2 -0.02 0.27
-16 -11 2 -0.05 0.26
-2 16 -11 0.31 0.3
2 11 -16 -0.12 0.26
-16 -2 11 -0.29 0.18
-11 2 16 0.2 0.21
-2 11 -16 0.03 0.26
16 11 -2 0.18 0.25
2 11 16 -0.56 0.23
11 -16 -2 0.01 0.22
2 -11 -16 -0.09 0.2
-2 -16 -11 -0.08 0.21
-16 11 2 0.08 0.23
2 -16 11 -0.11 0.27
-11 -16 2 -0.27 0.28
-16 -2 11 -0.25 0.24
16 -11 2 -0.26 0.17
2 16 -11 0.05 0.29
-16 -11 -2 -0.17 0.22
11 16 2 0.31 0.5
-2 16 11 -0.36 0.26
11 -2 16 -0.11 0.13
-11 2 16 -0.23 0.24
-11 16 -2 0.18 0.27
-2 -11 16 -0.01 0.27
11 -2 16 -0.17 0.2
-11 -3 16 0.11 0.27
-3 -16 11 0.22 0.28
-11 -16 -3 -0.18 0.25
-3 11 16 0.43 0.24
3 -11 16 -0.07 0.26
16 -11 -3 0.06 0.18
-16 3 11 0.32 0.23
-16 3 11 0.23 0.2
-3 16 -11 0.06 0.29
11 3 16 0.15 0.17
3 11 -16 0.09 0.25
3 16 11 -0.03 0.27
11 3 16 0.12 0.15
-11 16 3 0.27 0.27
-3 -11 -16 -0.02 0.18
3 -16 -11 0.08 0.2
16 11 3 0.62 0.24
11 -16 3 -0.07 0.23
11 16 -3 -0.09 0.28
-16 -11 3 0.23 0.25
-16 11 -3 -0.2 0.22
-3 -11 16 -0.1 0.27
-3 11 -16 0.05 0.25
3 11 16 -0.02 0.23
3 -16 11 0.27 0.27
3 -11 -16 0.18 0.19
3 16 -11 0.16 0.28
11 -16 -3 -0.05 0.21
-16 -11 -3 0.03 0.21
-3 16 11 0.14 0.26
-11 -16 3 0.06 0.26
-16 -3 11 0.52 0.26
-11 16 -3 0.17 0.28
11 -3 16 0.44 0.21
-11 3 16 0.37 0.24
-3 -16 -11 0.03 0.2
11 16 3 0.06 0.29
11 -3 16 -0.04 0.13
-16 11 3 0.04 0.23
-11 3 16 -0.04 0.21
16 -11 3 -0.02 0.19
16 11 -3 0.37 0.26
-11 16 4 0.17 0.26
11 16 -4 -0.02 0.28
11 4 16 0.01 0.16
-11 -16 -4 0.17 0.24
11 -16 4 0.17 0.22
-11 -4 16 -0.13 0.26
11 4 16 0.03 0.16
-16 -11 4 0.29 0.25
-16 11 -4 0.06 0.23
16 11 4 0 0.21
16 -11 -4 -0.14 0.18
4 16 11 -0.08 0.27
4 -16 -11 -0.16 0.19
-16 4 11 0.06 0.19
-4 -11 -16 0.04 0.18
4 -11 16 0.36 0.28
-4 -16 11 0.05 0.28
-4 16 -11 0.2 0.29
-16 4 11 0 0.21
-4 11 16 -0.23 0.22
4 11 -16 -0.19 0.25
11 4 -16 0.45 0.26
4 16 -11 0.14 0.3
16 11 -4 0.13 0.24
4 -16 11 0.17 0.27
-16 -4 11 0.48 0.25
-11 16 -4 -0.13 0.26
-11 -16 4 -0.21 0.27
16 -11 4 -0.16 0.17
11 -16 -4 0.21 0.2
4 11 16 0.04 0.22
4 -11 -16 0.18 0.19
-16 -11 -4 -0.04 0.2
-4 16 11 -0.17 0.26
-4 -16 -11 -0.16 0.2
-16 11 4 0.19 0.21
-4 11 -16 -0.32 0.24
-11 4 16 0.03 0.25
-11 4 16 0.21 0.21
-4 -11 16 0.03 0.28
11 -4 16 0.18 0.19
11 16 4 0.4 0.27
-11 -5 16 0.17 0.26
16 -11 -5 0.44 0.18
5 11 -16 0.23 0.26
-11 -16 -5 0.75 0.24
-16 -11 5 0.74 0.28
16 11 5 0.49 0.22
5 16 11 0.47 0.28
-16 5 11 -0.07 0.22
-16 5 11 0.55 0.2
11 5 16 0.39 0.18
-16 11 -5 0.33 0.23
-5 11 16 0.45 0.24
-11 16 5 0.15 0.26
11 5 16 0.55 0.17
16 5 -11 0.15 0.24
-5 16 -11 0.22 0.29
-5 -16 11 0.51 0.29
-11 5 -16 0.29 0.17
11 -16 5 0.54 0.24
11 16 -5 0.67 0.29
5 -16 -11 0.63 0.2
5 -11 16 0.49 0.27
-16 11 5 0.36 0.23
11 5 -16 0.42 0.25
-11 5 16 0.28 0.22
-5 -16 -11 0.46 0.21
11 -16 -5 0.34 0.22
11 16 5 0.57 0.28
-5 -11 16 0.72 0.29
-16 5 -11 0.43 0.1
5 -11 -16 0.72 0.2
5 -16 11 -0.02 0.25
16 11 -5 -0.08 0.26
-11 5 16 0.51 0.2
-16 -5 11 0.07 0.25
-11 16 -5 0.16 0.28
-5 11 -16 0.38 0.26
11 -5 16 0.53 0.22
-16 -11 -5 0.62 0.19
-11 -16 5 0.29 0.27
5 16 -11 0.48 0.31
-5 16 11 -0.04 0.25
16 -11 5 0.72 0.18
11 6 16 -0.17 0.18
-16 6 11 0.04 0.2
-16 6 11 -0.14 0.21
6 16 11 -0.14 0.27
-6 16 -11 0.01 0.3
-11 16 6 0.01 0.26
-6 -16 11 -0.18 0.29
11 16 -6 -0.31 0.28
-11 6 -16 0.15 0.18
-6 -11 -16 -0.02 0.18
-11 -16 -6 -0.23 0.22
6 -16 -11 0.04 0.2
16 -6 11 -0.12 0.12
-16 -11 6 0.03 0.26
-16 11 -6 0.26 0.23
6 -11 16 -0.26 0.26
-11 -6 16 -0.22 0.26
16 6 -11 -0.22 0.25
16 11 6 0.08 0.23
16 -11 -6 -0.19 0.18
11 -16 6 -0.26 0.24
6 11 -16 -0.28 0.24
11 6 16 -0.04 0.16
-6 11 16 -0.28 0.22
-11 6 16 -0.22 0.21
-6 16 11 -0.3 0.24
11 16 6 0.37 0.27
-16 -6 11 0.18 0.28
11 -6 16 0.02 0.22
-11 16 -6 -0.17 0.27
-6 -11 16 0.33 0.26
-16 6 -11 0.04 0.12
11 6 -16 -0.28 0.25
-16 -11 -6 -0.14 0.17
6 11 16 -0.18 0.22
6 -16 11 -0.26 0.26
-11 -16 6 -0.27 0.26
6 16 -11 -0.12 0.27
6 -11 -16 -0.06 0.18
-6 -16 -11 0 0.2
-11 6 16 0.25 0.23
11 -16 -6 -0.04 0.19
16 -11 6 -0.44 0.18
16 11 -6 0.11 0.26
-6 11 -16 -0.31 0.26
-16 11 6 0.15 0.23
-16 -11 7 0.51 0.27
11 16 -7 0.59 0.3
-11 -16 -7 0.41 0.23
16 -7 11 0.49 0.16
-16 7 11 0.64 0.22
-11 16 7 0.54 0.27
-16 7 11 0.54 0.25
7 11 -16 0.55 0.26
11 -16 7 0.13 0.26
7 -16 -11 0.32 0.2
-7 16 -11 0.87 0.31
-7 -11 -16 0.54 0.18
16 11 7 0.51 0.23
11 7 16 0.35 0.2
11 7 16 0.45 0.18
-16 11 -7 0.59 0.24
-11 -7 16 0.14 0.28
-11 7 -16 0.77 0.2
16 7 -11 0.75 0.27
16 -11 -7 0.78 0.2
-7 -16 11 0.26 0.3
-7 11 16 0.38 0.24
7 16 11 0.8 0.3
-11 16 -7 0.48 0.29
7 16 -11 0.03 0.31
7 11 16 0.46 0.23
11 -16 -7 0.43 0.21
11 -7 16 0.99 0.24
11 7 -16 0.96 0.27
16 -11 7 0.5 0.19
-16 -11 -7 0.41 0.18
-7 16 11 0.35 0.27
16 7 11 0.48 0.14
-11 7 16 0.71 0.23
-11 7 16 0.61 0.23
-16 -7 11 1.01 0.28
11 16 7 0.29 0.29
-16 11 7 0.66 0.24
-7 -11 16 0.08 0.3
-16 7 -11 0.6 0.17
7 -16 11 0.2 0.27
7 -11 -16 0.62 0.19
-11 -16 7 0.39 0.29
-7 -16 -11 0.49 0.22
16 11 -7 0.56 0.28
-11 -16 -8 0.53 0.25
-11 -8 16 0.38 0.28
11 8 16 0.28 0.22
-11 8 -16 0.14 0.21
11 -16 8 0.38 0.27
-8 16 -11 -0.2 0.3
-8 -16 11 -0.01 0.31
-8 11 16 0.76 0.24
11 16 -8 0.12 0.29
-8 -11 -16 0.19 0.19
-16 11 -8 0.3 0.24
16 -8 11 0.16 0.16
8 11 -16 0.21 0.27
-16 8 11 0.63 0.23
-16 -11 8 -0.07 0.27
-11 16 8 0.28 0.27
8 -11 16 0.11 0.3
16 11 8 0.33 0.23
16 -11 -8 0.35 0.2
16 8 -11 -0.24 0.26
8 16 11 0.6 0.29
8 -16 -11 0.28 0.2
-16 -8 -11 0.18 0.12
16 8 11 0.18 0.17
16 11 -8 -0.13 0.27
8 16 -11 0.54 0.3
-11 8 16 0.22 0.23
-16 8 -11 0.28 0.19
16 -11 8 0.64 0.2
-16 -8 11 0.2 0.29
-16 -11 -8 0.05 0.17
8 11 16 0.2 0.24
11 -16 -8 0.2 0.21
-16 11 8 0.37 0.25
11 16 8 0.3 0.31
-11 -16 8 0.35 0.28
-11 16 -8 0.38 0.3
-8 -16 -11 0.18 0.21
11 8 -16 0.2 0.28
8 -16 11 0.24 0.27
-8 -11 16 0.11 0.29
-8 11 -16 0.27 0.28
11 -8 16 0.88 0.25
-8 16 11 0.37 0.25
8 -11 -16 0.57 0.2
9 -16 -11 0.59 0.23
16 -9 11 0.75 0.19
-16 -9 -11 0.78 0.15
16 11 9 0.59 0.24
9 -11 16 0.93 0.29
9 16 11 0.99 0.31
16 9 -11 0.87 0.29
-9 11 16 0.64 0.25
-16 11 -9 1.15 0.27
-11 16 9 0.78 0.3
11 9 16 0.58 0.24
16 -11 -9 0.74 0.21
-9 -16 11 0.87 0.32
-16 -11 9 0.52 0.29
-11 9 -16 0.97 0.25
-11 -9 16 0.78 0.32
11 16 -9 0.78 0.33
-9 -11 -16 0.58 0.2
-11 -16 -9 1.12 0.41
-9 16 -11 0.87 0.32
-16 9 11 0.56 0.24
11 -16 9 0.61 0.29
9 11 -16 0.84 0.28
16 9 11 0.66 0.2
-9 16 11 0.4 0.27
11 -9 16 0.97 0.27
-16 11 9 0.74 0.26
16 -11 9 0.73 0.21
11 -16 -9 0.7 0.22
9 16 -11 0.54 0.32
9 11 16 0.67 0.26
9 -16 11 0.93 0.3
-9 11 -16 0.38 0.28
16 11 -9 0.65 0.29
-11 -9 -16 0.78 0.17
11 9 -16 0.31 0.29
-16 9 -11 0.77 0.22
11 16 9 0.6 0.42
16 -9 -11 0.78 0.22
-16 -9 11 0.71 0.3
-16 -11 -9 0.69 0.18
-9 -11 16 1 0.33
-11 -16 9 0.67 0.3
9 -11 -16 0.94 0.22
-11 9 16 0.96 0.26
-9 -16 -11 0.61 0.23
-11 16 -9 1.15 0.31
-11 -16 -10 0.63 0.37
11 -10 -16 0.88 0.23
-16 -10 -11 0.9 0.16
-10 -11 -16 0.93 0.2
-11 -10 16 0.4 0.31
-11 16 10 1.22 0.27
11 16 -10 0.53 0.31
-16 -11 10 0.66 0.3
-16 11 -10 0.61 0.27
16 -11 -10 0.46 0.21
10 -11 16 0.53 0.28
16 10 -11 0.28 0.28
-10 16 -11 0.55 0.31
10 16 11 0.25 0.31
11 10 16 0.36 0.26
16 -10 11 0.73 0.2
10 11 -16 0.59 0.28
-10 -16 11 0.54 0.32
16 11 10 0.29 0.23
-11 10 -16 0.25 0.24
11 -16 10 1.19 0.3
-10 11 16 0.97 0.26
10 -16 -11 0.48 0.21
-16 10 11 0.74 0.26
16 10 11 0.58 0.22
11 -16 -10 0.53 0.21
-16 11 10 0.45 0.25
16 -11 10 0.27 0.21
-11 -16 10 -0.4 0.32
-11 16 -10 0.68 0.33
11 -10 16 0.65 0.27
10 16 -11 -0.17 0.28
-10 -11 16 0.49 0.33
-16 -10 11 0.95 0.3
-16 10 -11 0.6 0.23
11 10 -16 0.09 0.28
-10 -16 -11 0.36 0.23
10 -16 11 0.55 0.29
-11 -10 -16 0.67 0.18
-16 -11 -10 0.54 0.18
-11 10 16 0.29 0.25
10 11 16 0.69 0.26
11 16 10 0.82 0.48
16 -10 -11 0.63 0.22
-10 16 11 0.21 0.25
10 -11 -16 1.01 0.22
16 11 -10 0.15 0.31
-10 11 -16 0.66 0.27
-11 16 -11 0.57 0.31
-11 -16 -11 0.09 0.22
-11 -11 16 -0.06 0.3
11 16 11 0.14 0.3
-16 -11 11 0.51 0.3
-11 -11 -16 0.11 0.18
11 -11 16 0.13 0.27
-11 11 16 0.12 0.25
-11 -16 11 0.19 0.29
-16 11 11 -0.38 0.24
11 -11 -16 0.12 0.21
16 -11 -11 0.52 0.21
16 -11 11 0.12 0.21
16 11 -11 -0.18 0.27
16 11 11 0.36 0.24
-11 11 -16 -0.41 0.25
11 16 -11 0.23 0.31
11 11 -16 0.18 0.28
11 11 16 -0.06 0.27
11 -16 -11 0.01 0.21
-16 -11 -11 0.3 0.17
11 -16 11 0.4 0.28
-11 16 11 -0.25 0.27
-16 11 -11 0.18 0.25
12 0 16 0.57 0.19
-16 0 12 0.13 0.2
16 -12 0 0.45 0.2
-12 16 0 -0.14 0.28
12 16 0 0.04 0.3
-16 0 12 0.21 0.25
0 16 -12 0.01 0.31
0 12 -16 0.17 0.27
0 -16 -12 0.4 0.21
16 12 0 0.42 0.26
-12 -16 0 0.04 0.28
0 16 12 0.21 0.28
0 12 16 0.55 0.25
0 -16 12 0.77 0.32
-12 0 16 0.72 0.21
0 -12 16 0.38 0.29
12 -16 0 0.33 0.24
-16 12 0 0.59 0.26
-12 0 16 0.27 0.28
0 -12 -16 0.11 0.21
-16 -12 0 0.26 0.25
12 0 16 0.15 0.14
1 16 12 0.29 0.27
-12 -1 16 0.7 0.29
1 -16 -12 0.2 0.2
-12 16 1 0.53 0.29
12 1 16 0.29 0.15
-16 1 12 0.33 0.25
-16 1 12 0.57 0.21
-12 -16 -1 0.25 0.27
-1 -16 12 0.48 0.31
-16 -12 1 0.33 0.26
16 12 1 0.46 0.26
-12 -1 16 0.2 0.21
16 -12 -1 0.41 0.21
-16 12 -1 0.54 0.25
-1 -12 -16 0.3 0.2
12 1 16 0.31 0.19
12 -16 1 0.25 0.23
1 -12 16 0.35 0.3
1 12 -16 0.68 0.29
-1 16 -12 -0.09 0.3
12 16 -1 0.36 0.32
-1 12 16 0.26 0.25
-16 -12 -1 0.32 0.24
1 16 -12 0.11 0.31
1 -12 -16 0.32 0.2
12 16 1 -0.1 0.31
16 -12 1 0.25 0.19
-16 12 1 0.2 0.25
-12 -16 1 0.46 0.28
-16 -1 12 0.32 0.2
16 12 -1 0.51 0.26
12 -16 -1 0.01 0.23
-12 1 16 0.27 0.21
-12 16 -1 0.23 0.27
12 -1 16 0.33 0.2
-1 -12 16 0.06 0.28
-1 16 12 0.71 0.28
-12 1 16 0.47 0.3
12 -1 16 0.26 0.14
-16 -1 12 0.62 0.27
1 12 16 0.39 0.26
-1 12 -16 0.05 0.28
-1 -16 -12 0.39 0.21
1 -16 12 0.31 0.29
2 -16 -12 1.52 0.25
-12 -2 16 1.74 0.32
16 12 2 2.23 0.31
2 12 -16 1.48 0.33
2 -12 16 1.72 0.33
-2 -12 -16 3.13 0.43
12 2 16 2.66 0.36
-16 -12 2 1.39 0.3
-16 12 -2 1.96 0.3
-2 12 16 1.85 0.29
12 2 16 3.14 0.41
-2 16 -12 1.19 0.34
12 16 -2 1.7 0.34
-12 16 2 1.55 0.32
-16 2 12 1.58 0.29
-2 -16 12 1.46 0.33
12 -16 2 1.51 0.28
2 16 12 2.06 0.33
-16 2 12 1.82 0.26
-12 -2 16 3.27 0.44
16 -12 -2 1.96 0.25
-12 16 -2 1.79 0.32
-2 12 -16 1.64 0.33
12 -2 16 2.91 0.33
-12 2 16 2.09 0.31
-16 -2 12 1.82 0.25
-2 16 12 1.52 0.3
-12 2 16 1.63 0.26
12 -16 -2 1.69 0.27
-16 -12 -2 1.67 0.29
-16 -2 12 1.46 0.31
2 16 -12 1.5 0.35
-12 -16 2 1.76 0.32
12 -2 16 1.63 0.25
2 -16 12 2.53 0.34
2 -12 -16 2.37 0.27
16 12 -2 1.49 0.3
2 12 16 1.95 0.29
-16 12 2 1.78 0.3
16 -12 2 1.78 0.25
-2 -16 -12 1.7 0.26
-2 -12 16 1.55 0.32
-12 -3 16 0.26 0.29
3 -16 -12 0.42 0.19
-16 12 -3 0.44 0.24
12 -16 3 0.25 0.22
-16 3 12 0.44 0.24
-3 -16 12 0.26 0.28
-3 16 -12 0.31 0.3
3 16 12 -0.06 0.27
-16 -12 3 0.41 0.25
-16 3 12 0.28 0.2
12 3 16 0.32 0.16
12 3 16 0.34 0.16
-12 -16 -3 0.48 0.3
12 16 -3 0.18 0.29
-3 12 16 0.39 0.23
-12 16 3 0.35 0.27
3 -12 16 0.11 0.28
16 12 3 0.07 0.23
3 12 -16 0.58 0.26
-3 -12 -16 0.5 0.19
3 -16 12 0.38 0.27
12 16 3 0.14 0.33
12 -3 16 0.16 0.19
-12 -16 3 0.14 0.26
-3 -12 16 0.58 0.28
3 12 16 0.28 0.24
12 -16 -3 0.24 0.21
-12 3 16 0.42 0.24
16 -12 3 0.22 0.19
-16 -3 12 0.33 0.26
-3 -16 -12 0.4 0.2
-16 -12 -3 0.66 0.22
3 -12 -16 0.49 0.2
16 12 -3 0.59 0.26
-16 12 3 0.27 0.34
-12 3 16 0.06 0.19
12 -3 16 0.5 0.13
-3 12 -16 0.36 0.27
-3 16 12 0.13 0.25
3 16 -12 0.39 0.31
-12 16 -3 -0.05 0.28
-4 12 16 -0.13 0.22
4 12 -16 -0.14 0.24
4 -16 -12 0.03 0.18
16 12 4 -0.38 0.23
12 4 16 0.09 0.15
-12 -16 -4 -0.19 0.23
-16 4 12 -0.16 0.21
-12 -4 16 0.13 0.27
12 16 -4 0.19 0.27
-4 -12 -16 -0.15 0.17
12 -16 4 -0.27 0.22
16 -12 -4 -0.29 0.18
4 -12 16 0.18 0.26
-16 -12 4 -0.08 0.3
-16 12 -4 -0.23 0.23
-16 4 12 0.05 0.18
-4 -16 12 -0.55 0.27
-4 16 -12 -0.05 0.28
4 16 12 -0.43 0.25
12 4 16 -0.08 0.16
-12 16 4 -0.21 0.25
-4 -12 16 -0.41 0.26
16 -12 4 -0.05 0.18
-16 -12 -4 0.07 0.2
4 12 16 -0.35 0.22
4 -12 -16 0.05 0.19
12 -4 16 -0.43 0.19
12 16 4 -0.39 0.28
-12 -16 4 -0.01 0.26
-4 -16 -12 0.06 0.2
-16 -4 12 0.16 0.24
16 12 -4 -0.53 0.31
-4 16 12 -0.49 0.23
-12 16 -4 -0.25 0.26
-12 4 16 -0.51 0.22
4 -16 12 0.02 0.26
4 16 -12 -0.36 0.27
12 -16 -4 -0.22 0.21
-16 12 4 -0.39 0.23
-12 4 16 -0.41 0.19
-4 12 -16 -0.33 0.25
16 -5 12 0.02 0.1
-12 5 -16 0.22 0.16
-16 5 12 0.2 0.21
12 -16 5 0.2 0.22
12 5 16 0.13 0.17
5 12 -16 -0.39 0.24
-12 16 5 0.28 0.26
-5 -12 -16 0.16 0.17
-5 -16 12 -0.45 0.27
16 12 5 0.05 0.23
-12 -16 -5 -0.13 0.23
5 16 12 0.04 0.27
-16 12 -5 0.42 0.24
5 -12 16 0.55 0.27
16 -12 -5 0.55 0.18
12 16 -5 0.13 0.28
-5 16 -12 0.02 0.28
-5 12 16 0.06 0.23
5 -16 -12 -0.23 0.18
-16 -12 5 0.08 0.25
12 5 16 0.23 0.16
16 5 -12 0.35 0.26
-12 -5 16 0.42 0.26
-16 5 12 0.28 0.21
-16 -5 12 0.03 0.27
-5 12 -16 0.31 0.25
12 -5 16 0.35 0.21
16 -12 5 0.13 0.18
-12 5 16 -0.02 0.23
5 -16 12 0.14 0.27
5 16 -12 -0.02 0.27
5 -12 -16 0.06 0.2
-5 -12 16 0.2 0.28
12 16 5 -0.14 0.27
16 12 -5 -0.05 0.25
-12 5 16 0.13 0.19
-5 -16 -12 0.23 0.2
-5 16 12 0.12 0.25
-12 16 -5 0.43 0.27
5 12 16 0.22 0.22
-16 12 5 0.01 0.22
-12 -16 5 -0.04 0.26
12 5 -16 0.18 0.25
12 -16 -5 0.15 0.2
-16 -12 -5 0 0.19
6 16 12 1.16 0.3
-12 16 6 1.08 0.28
-16 12 -6 1.26 0.27
6 12 -16 0.92 0.28
-16 -12 6 1.06 0.29
-6 -16 12 1.26 0.33
12 -16 6 1.27 0.26
12 6 16 1.07 0.19
16 6 -12 1.28 0.27
6 -12 16 1.03 0.29
16 12 6 1.29 0.27
-6 12 16 1.11 0.26
16 -12 -6 0.9 0.21
12 16 -6 0.71 0.32
-16 6 12 1.43 0.27
-6 16 -12 1.02 0.31
12 6 16 1.1 0.22
-12 -16 -6 1.27 0.25
-12 -6 16 0.86 0.29
16 -6 12 1.24 0.16
-12 6 -16 1.27 0.21
-16 6 12 1.25 0.24
-6 -12 -16 0.99 0.2
6 -16 -12 1.29 0.22
12 -16 -6 1.03 0.22
-6 -16 -12 1.06 0.24
6 -12 -16 1.4 0.22
-6 16 12 1.06 0.28
-12 6 16 1.23 0.26
-16 -6 12 1.36 0.3
12 6 -16 1.35 0.28
-16 -12 -6 0.77 0.22
6 -16 12 1 0.29
6 16 -12 1.09 0.32
-16 12 6 1.25 0.25
-6 12 -16 0.74 0.27
12 16 6 1.36 0.3
-6 -12 16 0.78 0.31
-12 6 16 0.71 0.23
16 -12 6 1.37 0.22
16 12 -6 1.33 0.29
-16 6 -12 2.37 0.31
12 -6 16 1.4 0.24
6 12 16 0.79 0.25
-12 -16 6 1.2 0.31
-12 16 -6 0.82 0.29
-12 -7 16 0.23 0.28
16 -12 -7 0.17 0.19
-7 -16 12 0.02 0.3
7 -12 16 -0.03 0.26
16 7 -12 0.17 0.27
-12 -16 -7 -0.05 0.23
12 7 16 -0.21 0.16
-16 7 12 0.05 0.22
-16 -12 7 0.16 0.29
16 -7 12 0.07 0.15
-12 16 7 0 0.26
-7 -12 -16 -0.26 0.3
16 12 7 -0.02 0.24
12 16 -7 -0.3 0.28
-7 12 16 0.09 0.25
-12 7 -16 0.18 0.19
-7 16 -12 0.12 0.3
12 -16 7 -0.14 0.25
-16 7 12 0.08 0.22
7 12 -16 0.37 0.27
-16 12 -7 -0.25 0.25
7 -16 -12 0.14 0.2
7 16 12 0.15 0.29
12 7 16 0.52 0.2
7 16 -12 0.59 0.31
-12 7 16 0.41 0.22
7 -12 -16 0.17 0.18
-16 7 -12 0.04 0.15
-16 -12 -7 0.23 0.19
12 7 -16 -0.26 0.25
16 7 12 -0.08 0.13
-12 -16 7 -0.1 0.3
16 -12 7 0.1 0.2
-7 12 -16 0.16 0.26
12 -7 16 -0.15 0.23
16 12 -7 -0.17 0.27
-12 7 16 0.03 0.23
-7 16 12 -0.13 0.23
-16 -7 12 -0.09 0.27
12 16 7 0.14 0.27
7 -16 12 0.48 0.28
-16 12 7 0.03 0.24
-12 16 -7 0.24 0.28
12 -16 -7 -0.01 0.2
7 12 16 -0.35 0.41
-7 -12 16 -0.3 0.27
-7 -16 -12 0.06 0.22
16 7 12 0.1 0.1
-12 -8 16 0.83 0.29
-12 8 -16 0.49 0.22
8 16 12 0.84 0.32
-8 16 -12 0.94 0.32
-16 -12 8 0.78 0.29
-16 12 -8 0.4 0.27
8 -16 -12 0.62 0.22
16 8 -12 0.58 0.27
16 -12 -8 0.82 0.22
16 12 8 0.56 0.26
12 8 16 0.46 0.23
-12 -16 -8 0.73 0.25
-8 12 16 0.4 0.26
-16 8 12 0.87 0.25
-8 -12 -16 1 0.21
8 -12 16 0.35 0.29
-12 16 8 0.71 0.28
8 12 -16 0.54 0.27
16 -8 12 0.72 0.19
12 -16 8 0.99 0.28
-8 -16 12 0.94 0.31
12 16 -8 0.8 0.31
12 -16 -8 0.57 0.22
-8 16 12 0.58 0.27
-16 12 8 0.54 0.25
-16 -12 -8 0.83 0.2
8 -12 -16 0.83 0.2
16 -12 8 0.97 0.22
16 12 -8 0.51 0.31
8 -16 12 0.34 0.29
-8 -16 -12 0.91 0.23
12 8 -16 0.89 0.3
-16 -8 12 0.52 0.3
-16 8 -12 0.76 0.2
-8 12 -16 0.55 0.27
-12 -16 8 0.8 0.31
16 8 12 0.94 0.19
-12 8 16 0.68 0.24
-12 8 16 0.63 0.28
8 12 16 0.75 0.29
12 16 8 0.7 0.31
8 16 -12 0.64 0.28
12 -8 16 0.59 0.25
-12 16 -8 0.2 0.31
-8 -12 16 0.68 0.31
-12 16 9 -0.16 0.27
-16 9 12 0.21 0.24
-9 -16 12 -0.31 0.31
-9 16 -12 -0.27 0.31
16 9 -12 0.26 0.28
16 -9 12 -0.3 0.19
16 12 9 0.12 0.23
-9 12 16 0.13 0.27
-12 -9 16 -0.06 0.31
-9 -12 -16 0.21 0.19
12 16 -9 0 0.28
12 9 16 -0.34 0.23
16 -12 -9 -0.18 0.2
12 -16 9 -0.26 0.28
-16 -12 9 -0.16 0.28
9 -16 -12 -0.12 0.2
-16 12 -9 0.49 0.27
-16 -9 -12 -0.09 0.13
9 12 -16 0.01 0.27
-12 9 -16 0.66 0.23
-12 -16 -9 0.51 0.24
9 16 12 0.05 0.3
9 -12 16 0.54 0.28
16 9 12 -0.19 0.19
-9 -12 16 0.2 0.3
12 9 -16 0.02 0.29
12 -9 16 -0.17 0.24
-12 9 16 0.61 0.26
-9 16 12 -0.02 0.25
-12 -16 9 -0.45 0.29
-16 9 -12 0.09 0.2
9 16 -12 0.63 0.3
12 16 9 0.2 0.32
9 -12 -16 0.15 0.2
16 12 -9 -0.03 0.28
16 -12 9 0.19 0.21
-16 12 9 -0.21 0.25
-16 -9 12 0.32 0.29
12 -16 -9 0.19 0.21
9 -16 12 0.23 0.29
-9 -16 -12 -0.14 0.22
-16 -12 -9 -0.05 0.18
-12 16 -9 0.31 0.29
-9 12 -16 -0.14 0.28
9 12 16 0.19 0.26
-16 -12 10 0.68 0.3
-12 10 -16 0.23 0.23
-16 10 12 0.33 0.24
16 -10 12 0.04 0.21
-10 12 16 0.57 0.28
-12 -16 -10 0.48 0.37
-12 -10 16 0.37 0.31
-10 -12 -16 0.49 0.19
-12 16 10 0.73 0.27
16 -12 -10 0.43 0.2
16 10 -12 0.32 0.3
12 -16 10 0.82 0.28
10 -16 -12 0.63 0.22
10 12 -16 0.45 0.29
10 16 12 0.7 0.3
16 12 10 0.51 0.25
-16 -10 -12 0.28 0.15
12 10 16 0.38 0.25
12 16 -10 0.4 0.3
-10 16 -12 -0.18 0.32
-16 12 -10 0.22 0.26
-10 -16 12 0.17 0.3
16 -10 -12 0.31 0.2
-12 16 -10 0.31 0.32
10 16 -12 0.47 0.3
-12 -10 -16 0.67 0.17
12 -10 16 0.71 0.27
-10 -12 16 0.83 0.3
-16 12 10 0.34 0.26
10 -16 12 0.45 0.3
-12 -16 10 0.64 0.32
16 12 -10 0.77 0.3
-10 -16 -12 0.28 0.22
16 -12 10 0.3 0.22
-12 10 16 0.19 0.25
12 10 -16 0.34 0.31
-16 10 -12 0.47 0.23
10 12 16 0.19 0.27
-16 -12 -10 0.47 0.19
12 16 10 1.05 0.55
16 10 12 0.24 0.21
-16 -10 12 0.44 0.31
12 -16 -10 0.31 0.22
10 -12 -16 0.89 0.21
-10 16 12 0.59 0.28
13 0 16 0.85 0.16
0 -16 -13 0.76 0.22
-13 0 16 0.69 0.21
-13 0 16 0.28 0.27
-16 0 13 0.99 0.28
13 0 16 0.91 0.2
-13 -16 0 1.1 0.29
13 16 0 0.85 0.33
13 -16 0 0.95 0.25
0 13 -16 0.97 0.3
16 -13 0 0.94 0.22
-16 0 13 1.03 0.22
0 16 -13 1.12 0.33
-16 -13 0 0.94 0.28
-16 13 0 0.89 0.28
0 13 16 1.71 0.28
0 -13 16 1.25 0.32
0 16 13 0.72 0.28
-13 16 0 1.02 0.3
0 -13 -16 1.49 0.22
16 13 0 0.67 0.28
0 -16 13 0.91 0.31
16 13 1 -0.25 0.27
13 -16 1 0.08 0.22
-16 1 13 0.27 0.21
1 13 -16 -0.02 0.28
16 -13 -1 0 0.23
-1 -16 13 -0.11 0.29
13 16 -1 -0.19 0.29
-13 -1 16 0.17 0.19
-16 1 13 0.12 0.25
13 1 16 0.05 0.17
1 16 13 -0.12 0.27
-13 -16 -1 0.12 0.27
13 1 16 0.21 0.14
-16 -13 1 0.25 0.27
1 -16 -13 0.08 0.2
-13 -1 16 -0.09 0.27
-1 -13 -16 0.04 0.19
-13 16 1 -0.19 0.28
-16 13 -1 -0.13 0.27
1 -13 16 0.48 0.3
-1 13 16 0.18 0.26
-1 16 -13 0.1 0.3
-16 13 1 -0.07 0.26
-1 16 13 0.06 0.27
-1 -16 -13 -0.16 0.2
-1 -13 16 0.1 0.28
-1 13 -16 -0.14 0.29
-13 16 -1 0.07 0.27
-13 1 16 0.08 0.25
13 -1 16 -0.13 0.18
-13 1 16 0.28 0.21
-13 -16 1 0.1 0.27
-16 -13 -1 0.02 0.25
1 16 -13 -0.17 0.3
16 -13 1 0.19 0.21
16 13 -1 0.27 0.26
-16 -1 13 -0.52 0.26
1 13 16 0.3 0.26
1 -16 13 -0.07 0.3
-16 -1 13 0.29 0.19
13 -1 16 0.04 0.13
1 -13 -16 -0.17 0.19
13 16 1 0.04 0.29
13 -16 -1 0.05 0.22
13 16 -2 0.22 0.29
13 2 16 0.39 0.15
-2 16 -13 0.42 0.29
16 -13 -2 0.46 0.21
-16 2 13 0.15 0.24
-16 -13 2 0.31 0.26
-16 13 -2 0.13 0.25
2 16 13 0.15 0.26
16 13 2 -0.12 0.25
2 -16 -13 0.25 0.2
-2 13 16 0.19 0.26
13 -16 2 0.35 0.22
-16 2 13 0.44 0.2
-13 16 2 0.17 0.27
-13 -2 16 0.46 0.2
2 -13 16 0.47 0.29
2 13 -16 0.63 0.28
-13 -16 -2 0.1 0.33
-2 -13 -16 0.42 0.19
13 2 16 0.15 0.17
-13 -2 16 0.1 0.27
-2 -16 13 0.03 0.29
-16 13 2 0.36 0.3
2 13 16 -0.24 0.25
-2 -13 16 0.08 0.28
-13 16 -2 -0.07 0.27
-16 -2 13 -0.12 0.26
13 -16 -2 0.41 0.21
2 -13 -16 0.35 0.2
-2 16 13 0.3 0.26
-13 2 16 0.14 0.21
13 16 2 0.17 0.35
16 -13 2 0.26 0.2
-16 -13 -2 0.07 0.25
13 -2 16 0.21 0.18
2 -16 13 0.54 0.28
-13 2 16 0.11 0.26
2 16 -13 0.31 0.29
-13 -16 2 0.32 0.27
-2 -16 -13 0.18 0.19
-2 13 -16 -0.08 0.27
16 13 -2 0.24 0.27
-16 -2 13 0.12 0.18
13 -2 16 0.39 0.12
-3 16 -13 -0.2 0.27
-13 16 3 -0.07 0.26
13 16 -3 0.04 0.28
-16 3 13 -0.1 0.24
13 3 16 0.03 0.15
-13 -16 -3 0.06 0.44
-13 -3 16 -0.23 0.28
-3 -13 -16 -0.07 0.18
13 3 16 -0.12 0.14
3 13 -16 -0.01 0.27
-16 3 13 0.28 0.21
-16 13 -3 -0.25 0.24
3 16 13 -0.34 0.26
16 13 3 -0.19 0.24
16 -13 -3 -0.18 0.18
3 -16 -13 -0.25 0.19
-3 13 16 -0.09 0.24
-3 -16 13 -0.66 0.28
13 -16 3 -0.19 0.22
3 -13 16 -0.07 0.26
13 -3 16 -0.15 0.17
-16 -3 13 0.01 0.25
13 -3 16 0.02 0.11
-3 13 -16 0.15 0.26
-16 -3 13 -0.25 0.17
-13 -16 3 -0.18 0.27
-13 3 16 -0.3 0.25
-16 13 3 -0.07 0.24
3 16 -13 0.12 0.28
-16 -13 -3 0.02 0.22
-13 3 16 -0.01 0.2
-3 -16 -13 0.11 0.18
13 -16 -3 -0.42 0.2
3 -16 13 -0.08 0.27
-3 -13 16 0.05 0.27
-13 16 -3 0.57 0.28
3 13 16 -0.27 0.22
13 16 3 -0.68 0.5
-3 16 13 -0.12 0.25
3 -13 -16 -0.3 0.18
16 -13 3 -0.19 0.19
13 16 -4 0.2 0.27
13 4 16 -0.01 0.14
-13 -16 -4 0.01 0.24
-16 -13 4 -0.44 0.25
-4 -13 -16 -0.09 0.18
16 -13 -4 -0.16 0.17
4 16 13 0.04 0.26
-4 16 -13 -0.02 0.27
16 13 4 0.17 0.24
-16 4 13 -0.06 0.18
-13 16 4 -0.13 0.25
-4 13 16 0.02 0.23
13 4 16 -0.07 0.14
-16 13 -4 0.11 0.25
13 -16 4 0.13 0.22
-13 -4 16 -0.24 0.27
4 -13 16 -0.26 0.26
4 13 -16 0.17 0.27
4 -16 -13 -0.22 0.19
-16 4 13 -0.02 0.21
-4 -16 13 0.01 0.29
13 -16 -4 0.15 0.2
-13 -16 4 0.29 0.26
-16 -4 13 -0.1 0.24
-13 4 16 0.11 0.21
-4 -16 -13 0.04 0.18
13 -4 16 0.15 0.18
16 13 -4 -0.05 0.25
-4 16 13 -0.02 0.23
-16 -13 -4 -0.22 0.21
4 -16 13 -0.25 0.26
4 16 -13 -0.12 0.28
-13 4 16 -0.23 0.21
13 16 4 0.31 0.27
-13 16 -4 -0.24 0.26
-4 13 -16 0.16 0.25
4 -13 -16 -0.31 0.17
-16 13 4 -0.63 0.23
16 -13 4 0.04 0.18
4 13 16 -0.3 0.21
-4 -13 16 0.15 0.26
13 5 16 -0.2 0.16
-5 -16 13 0.06 0.28
-16 13 -5 0.2 0.24
-16 5 13 -0.09 0.2
-16 -13 5 0.15 0.25
16 -13 -5 -0.16 0.19
16 -5 13 0.02 0.1
-13 5 -16 0 0.15
13 5 16 0.08 0.15
-13 -5 16 0.13 0.28
-13 -16 -5 0.1 0.23
5 13 -16 0.08 0.26
13 16 -5 0.15 0.29
-13 16 5 -0.17 0.26
-5 -13 -16 0.09 0.18
5 -13 16 0.09 0.26
-16 5 13 0 0.21
13 -16 5 -0.11 0.23
16 13 5 -0.17 0.24
5 -16 -13 -0.15 0.19
-5 13 16 -0.32 0.22
5 16 13 -0.02 0.27
-5 16 -13 0.18 0.28
16 5 -13 0.06 0.26
13 -16 -5 -0.02 0.19
5 16 -13 -0.29 0.3
16 13 -5 -0.31 0.27
-13 16 -5 0.02 0.26
-16 -13 -5 0.21 0.21
5 13 16 -0.07 0.23
-13 5 16 0.04 0.23
-16 13 5 -0.31 0.23
-5 -16 -13 -0.05 0.18
13 5 -16 0.06 0.26
-5 13 -16 -0.2 0.25
5 -16 13 -0.17 0.26
-13 5 16 0.14 0.2
-13 -16 5 -0.05 0.27
13 -5 16 -0.17 0.19
13 16 5 0.14 0.28
-5 16 13 -0.31 0.21
-5 -13 16 -0.12 0.26
5 -13 -16 -0.1 0.18
-16 -5 13 0.02 0.27
16 -13 5 0.15 0.19
-16 6 13 -0.11 0.24
-6 -13 -16 0.06 0.18
13 6 16 0.16 0.15
6 -16 -13 -0.1 0.19
13 16 -6 -0.2 0.28
6 16 13 -0.28 0.27
-16 6 13 -0.09 0.2
-13 -16 -6 -0.16 0.22
-6 16 -13 -0.35 0.29
-16 -13 6 0.06 0.26
6 13 -16 -0.19 0.27
-13 -6 16 0.19 0.28
-6 -16 13 -0.19 0.27
6 -13 16 -0.34 0.26
13 6 16 0.02 0.18
-13 16 6 0.28 0.25
16 6 -13 -0.22 0.24
-13 6 -16 -0.16 0.16
16 -13 -6 -0.01 0.19
16 13 6 -0.16 0.23
13 -16 6 -0.13 0.22
-6 13 16 0.09 0.24
-16 13 -6 0.28 0.26
16 -6 13 -0.26 0.13
-16 -13 -6 -0.1 0.2
-16 6 -13 0.02 0.13
16 13 -6 -0.31 0.26
-13 6 16 -0.05 0.21
-16 13 6 -0.12 0.24
6 13 16 0.03 0.25
13 -16 -6 0.24 0.19
13 6 -16 0.02 0.24
-6 -16 -13 0.16 0.19
-13 6 16 -0.01 0.21
-6 16 13 0.05 0.23
13 -6 16 0 0.21
6 16 -13 -0.32 0.28
-6 -13 16 0.22 0.29
-13 -16 6 0 0.28
-13 16 -6 -0.3 0.27
-16 -6 13 -0.04 0.26
6 -16 13 0.19 0.27
16 -13 6 -0.16 0.2
-6 13 -16 0.05 0.25
13 16 6 -0.08 0.28
6 -13 -16 0.22 0.21
13 7 16 0.52 0.21
-7 16 -13 0.81 0.31
-13 7 -16 0.18 0.19
-7 13 16 0.6 0.24
13 7 16 0.25 0.16
-7 -13 -16 0.5 0.19
16 -13 -7 0.1 0.19
16 -7 13 0.32 0.16
16 7 -13 -0.19 0.28
13 -16 7 0.15 0.25
13 16 -7 0.54 0.29
-13 16 7 0.38 0.27
-16 13 -7 0.53 0.27
-13 -16 -7 0.22 0.23
-13 -7 16 0.24 0.29
7 -16 -13 0.34 0.2
-16 7 13 0.1 0.22
16 13 7 0.27 0.25
7 16 13 0.15 0.28
7 -13 16 0.42 0.29
-16 -13 7 -0.08 0.28
-16 7 13 0.38 0.23
7 13 -16 0.59 0.3
-7 -16 13 0.4 0.3
13 7 -16 -0.01 0.26
13 -7 16 0.36 0.23
7 -16 13 -0.17 0.27
-13 16 -7 0.69 0.3
-7 -13 16 0.47 0.29
-7 13 -16 0.15 0.25
-16 7 -13 0.11 0.16
-13 -16 7 0.37 0.3
16 7 13 0.22 0.15
-16 13 7 0.04 0.24
-16 -13 -7 0.07 0.2
16 7 13 0.26 0.11
13 16 7 -0.01 0.28
16 -13 7 0.33 0.21
-7 16 13 -0.01 0.26
7 -13 -16 0.48 0.21
-16 -7 13 0.13 0.28
-7 -16 -13 -0.23 0.2
7 13 16 0.08 0.26
13 -16 -7 0.14 0.21
-13 7 16 0.05 0.23
-13 7 16 0.24 0.22
16 13 -7 0.16 0.27
7 16 -13 -0.07 0.27
-13 16 8 0.75 0.29
16 -13 -8 0.54 0.21
-16 8 13 0.64 0.26
8 13 -16 0.44 0.32
16 13 8 0.26 0.26
-8 13 16 0.26 0.26
16 -8 13 0.89 0.2
8 -13 16 1.02 0.29
13 -16 8 0.5 0.27
13 16 -8 0.32 0.3
16 8 -13 0.76 0.28
-13 -16 -8 0.63 0.24
-8 -16 13 0.15 0.31
-16 -13 8 0.43 0.3
-16 13 -8 0.06 0.28
13 8 16 0.6 0.22
-13 -8 16 0.79 0.29
13 8 16 0.56 0.18
-13 8 -16 0.48 0.21
-16 8 13 0.42 0.26
8 16 13 0.35 0.3
8 -16 -13 0.67 0.22
-8 -13 -16 0.68 0.2
-8 16 -13 0.17 0.32
16 -13 8 0.71 0.22
-13 8 16 0.68 0.27
-8 -13 16 0.54 0.31
16 8 13 0.34 0.18
-13 16 -8 0.64 0.31
8 13 16 0.24 0.27
-13 8 16 0.61 0.23
-13 -16 8 0.61 0.29
13 -8 16 0.77 0.25
-16 13 8 0.4 0.26
-8 -16 -13 0.87 0.22
-16 -8 13 0.52 0.3
-8 13 -16 0.26 0.26
-8 16 13 0.32 0.26
8 -13 -16 0.71 0.21
8 -16 13 0.95 0.28
-16 8 -13 0.56 0.18
16 13 -8 0.38 0.29
13 8 -16 0.5 0.28
8 16 -13 0.45 0.3
13 -16 -8 0.56 0.21
13 16 8 1 0.3
-16 -13 -8 0.33 0.21
9 -13 16 0.42 0.28
-9 -16 13 0.35 0.31
-13 -9 16 0.64 0.31
9 -16 -13 0.28 0.21
16 -9 13 0.03 0.2
9 13 -16 -0.04 0.28
9 16 13 0 0.31
16 9 -13 0.3 0.28
13 16 -9 0.25 0.29
13 -16 9 0.16 0.27
-16 -9 -13 0.19 0.12
13 9 16 0.27 0.25
-16 13 -9 -0.08 0.27
-9 13 16 0.59 0.25
-13 -16 -9 0.34 0.23
-13 16 9 0.02 0.27
16 13 9 0.12 0.25
-9 -13 -16 0.26 0.23
-13 9 -16 -0.1 0.21
16 -13 -9 0.33 0.21
-9 16 -13 0.53 0.32
-16 -13 9 0.01 0.29
-16 9 13 0.02 0.24
-9 -16 -13 0.23 0.21
-13 16 -9 -0.04 0.29
16 9 13 0.15 0.2
9 -13 -16 0.28 0.2
-16 9 -13 0.19 0.21
13 -16 -9 0.06 0.19
16 -13 9 0.59 0.23
-9 -13 16 -0.07 0.28
9 16 -13 0.04 0.31
9 13 16 0.13 0.29
13 -9 16 0.47 0.24
13 16 9 0.38 0.29
9 -16 13 0.2 0.29
-13 9 16 0.31 0.26
-13 -16 9 0.03 0.31
16 13 -9 0.45 0.3
13 9 -16 0 0.28
-9 13 -16 0.38 0.26
-16 -13 -9 0.15 0.19
-16 13 9 0.59 0.26
-9 16 13 -0.09 0.27
-16 -9 13 0.02 0.28
14 -16 0 1.22 0.25
14 0 16 1.22 0.16
0 -16 14 1.01 0.31
0 14 16 1.79 0.29
14 0 16 1.06 0.18
-14 16 0 1.1 0.3
0 -14 -16 1.47 0.22
-16 -14 0 0.88 0.28
-16 0 14 0.87 0.22
16 -14 0 1.18 0.23
0 -14 16 1.07 0.33
0 16 -14 0.78 0.31
14 16 0 1.08 0.32
-14 0 16 1.15 0.23
0 -16 -14 1.34 0.23
-14 -16 0 0.88 0.29
-14 0 16 1.38 0.3
-16 0 14 0.86 0.28
0 16 14 2.02 0.31
16 14 0 1.14 0.31
0 14 -16 0.49 0.31
-16 14 0 0.93 0.32
14 -16 1 0.07 0.23
-14 -1 16 0.12 0.19
-1 16 -14 0.19 0.29
14 1 16 -0.05 0.16
16 14 1 -0.23 0.26
-16 -14 1 0.48 0.32
1 -14 16 -0.32 0.28
1 14 -16 -0.16 0.28
-14 -16 -1 0.7 0.27
16 -14 -1 -0.26 0.2
-14 16 1 -0.36 0.27
-16 1 14 0.02 0.21
1 16 14 -0.16 0.25
-1 -14 -16 -0.05 0.2
14 16 -1 -0.18 0.29
-14 -1 16 -0.18 0.27
-16 14 -1 0.04 0.31
-16 1 14 0.15 0.25
14 1 16 0.07 0.13
-1 14 16 -0.59 0.25
1 -16 -14 -0.13 0.2
-1 -16 14 0.12 0.29
1 14 16 -0.14 0.25
-1 -16 -14 -0.04 0.2
-14 1 16 0.13 0.25
-16 -1 14 0.11 0.18
-1 14 -16 -0.26 0.27
-1 -14 16 0.19 0.3
14 -1 16 0.03 0.12
14 -16 -1 -0.4 0.21
16 14 -1 0.18 0.33
-16 14 1 -0.22 0.26
14 16 1 -0.27 0.3
-1 16 14 -0.09 0.26
-14 1 16 0.16 0.22
-14 -16 1 0.19 0.27
-16 -1 14 0.04 0.25
-14 16 -1 0.08 0.27
-16 -14 -1 0.16 0.25
14 -1 16 -0.4 0.16
1 16 -14 0.11 0.29
1 -14 -16 0.05 0.21
1 -16 14 0.05 0.28
2 -16 -14 0.19 0.2
2 14 -16 0.59 0.27
2 16 14 0.23 0.26
-2 16 -14 0.7 0.3
-14 -2 16 0.35 0.2
14 2 16 0.29 0.15
-2 14 16 0.28 0.25
-14 -16 -2 0.03 0.26
-16 14 -2 0.09 0.26
2 -14 16 0.71 0.29
-2 -14 -16 0.43 0.19
-14 16 2 -0.06 0.27
-16 -14 2 0.5 0.27
14 16 -2 0.43 0.28
-2 -16 14 0.35 0.3
14 -16 2 0.42 0.22
14 2 16 0.27 0.15
16 -14 -2 0.57 0.21
-16 2 14 0.11 0.25
16 14 2 0.64 0.28
-14 -2 16 0.36 0.27
-16 2 14 0.26 0.21
2 14 16 0.33 0.23
-2 14 -16 0.5 0.27
2 -16 14 0.31 0.29
-16 -2 14 0.32 0.19
-14 -16 2 0.15 0.27
14 -2 16 0.52 0.17
-2 -16 -14 0.8 0.21
-2 16 14 0.5 0.26
-14 16 -2 0.07 0.28
-2 -14 16 0.43 0.3
16 14 -2 0.4 0.27
2 16 -14 0.14 0.29
-14 2 16 0.18 0.2
16 -14 2 0.69 0.21
2 -14 -16 0.42 0.19
-16 -2 14 0.23 0.26
14 16 2 0.42 0.3
14 -16 -2 0.25 0.22
14 -2 16 0.3 0.12
-14 2 16 0.34 0.24
-16 -14 -2 0.14 0.24
-16 14 2 0.54 0.27
16 -14 -3 0.25 0.19
16 14 3 -0.23 0.25
3 16 14 -0.16 0.25
14 3 16 -0.14 0.14
-14 -3 16 0.1 0.19
14 -16 3 -0.07 0.21
3 -16 -14 0 0.17
-3 -16 14 -0.19 0.29
-16 14 -3 0.17 0.25
14 3 16 0.13 0.14
-3 -14 -16 -0.24 0.18
14 16 -3 0.24 0.28
-3 14 16 -0.22 0.23
-3 16 -14 -0.23 0.29
-16 3 14 0.21 0.25
-14 16 3 0.05 0.26
3 -14 16 0.04 0.28
3 14 -16 -0.21 0.26
-14 -3 16 -0.02 0.26
-16 3 14 0.11 0.2
-16 -14 3 -0.32 0.25
-16 -3 14 0.1 0.25
-16 14 3 0.28 0.26
-16 -14 -3 -0.24 0.22
-14 3 16 -0.08 0.25
16 -14 3 0.04 0.2
-3 -16 -14 0.12 0.2
3 14 16 -0.25 0.23
14 -16 -3 -0.02 0.2
-14 3 16 0.02 0.19
3 -14 -16 -0.08 0.18
-14 16 -3 0.67 0.28
3 16 -14 0.49 0.3
3 -16 14 0.05 0.26
-3 -14 16 -0.17 0.28
-3 16 14 -0.03 0.24
-3 14 -16 0.11 0.25
-14 -16 3 -0.13 0.26
14 -3 16 -0.04 0.17
16 14 -3 -0.31 0.25
14 -3 16 0.08 0.11
-16 -3 14 0.13 0.18
14 -16 4 -0.15 0.21
14 4 16 0.04 0.14
-14 16 4 -0.19 0.25
-14 -4 16 -0.03 0.25
-16 4 14 -0.05 0.22
-16 -14 4 0.58 0.26
-4 14 16 -0.09 0.25
-4 -16 14 0.15 0.28
-4 -14 -16 -0.32 0.17
4 16 14 -0.11 0.26
4 -16 -14 -0.05 0.17
16 14 4 0.28 0.26
-16 4 14 -0.13 0.19
-14 -16 -4 -0.23 0.29
16 -14 -4 -0.13 0.18
4 -14 16 0.62 0.27
14 16 -4 0.06 0.29
14 4 16 -0.1 0.15
4 14 -16 -0.07 0.25
-4 16 -14 -0.32 0.28
-16 14 -4 0.11 0.25
4 16 -14 0.3 0.28
4 -16 14 0.16 0.27
-14 4 16 0.03 0.18
-4 -16 -14 -0.09 0.19
14 -4 16 -0.43 0.17
4 14 16 -0.18 0.24
4 -14 -16 -0.19 0.18
-4 16 14 -0.35 0.23
-14 -16 4 0.28 0.26
16 14 -4 0.01 0.25
-4 14 -16 -0.25 0.23
14 16 4 -0.07 0.34
-16 14 4 0.34 0.24
-16 -4 14 -0.06 0.24
14 -4 16 -0.13 0.11
16 -14 4 0.14 0.2
-14 16 -4 0.07 0.26
14 -16 -4 -0.12 0.19
-4 -14 16 -0.15 0.27
-16 -14 -4 0 0.21
-14 4 16 0.17 0.22
-14 -5 16 -0.15 0.26
16 14 5 0.2 0.26
14 16 -5 -0.07 0.27
14 -16 5 -0.05 0.22
-14 16 5 -0.25 0.26
5 -14 16 0.35 0.27
16 -14 -5 0.22 0.18
-14 -16 -5 0.53 0.24
5 14 -16 0.24 0.26
16 -5 14 0.01 0.12
14 5 16 0.15 0.17
5 16 14 0.02 0.26
-16 5 14 0.2 0.23
-16 5 14 0.17 0.21
-5 -16 14 0.24 0.29
5 -16 -14 -0.05 0.17
-16 -14 5 -0.23 0.26
-5 14 16 -0.06 0.25
14 5 16 0.22 0.14
-5 -14 -16 0.27 0.18
-16 14 -5 0.47 0.26
-5 16 -14 0.02 0.28
-14 -16 5 -0.24 0.26
-14 16 -5 0.42 0.27
16 -14 5 -0.05 0.2
5 16 -14 0.52 0.27
-5 -14 16 0.07 0.27
-5 14 -16 0.25 0.25
-5 16 14 0.07 0.24
14 16 5 0.11 0.26
14 -5 16 -0.24 0.18
14 5 -16 0.47 0.27
5 14 16 0.11 0.25
14 -16 -5 0.1 0.2
-14 5 16 0.34 0.24
-16 14 5 -0.16 0.24
-16 -5 14 -0.25 0.27
-5 -16 -14 0.3 0.19
16 14 -5 0.12 0.27
5 -16 14 0.06 0.27
5 -14 -16 0.34 0.19
-14 5 16 -0.12 0.19
-16 -14 -5 0.07 0.21
16 6 -14 0.38 0.25
16 14 6 -0.22 0.26
-16 -14 6 0.09 0.26
-16 6 14 0.09 0.23
14 -16 6 -0.3 0.23
-6 16 -14 -0.11 0.28
-14 -16 -6 0.13 0.22
14 6 16 0.03 0.14
6 14 -16 -0.04 0.27
16 -6 14 -0.12 0.15
-6 -16 14 -0.07 0.28
14 16 -6 -0.18 0.28
14 6 16 0.17 0.18
6 -16 -14 0.25 0.2
-6 14 16 -0.19 0.25
-16 14 -6 0.14 0.26
6 -14 16 -0.06 0.27
6 16 14 0.11 0.28
16 -14 -6 0.2 0.2
-16 6 14 0.1 0.2
-6 -14 -16 0.32 0.18
-14 16 6 0.16 0.26
-14 6 -16 -0.08 0.16
-14 -6 16 0.21 0.28
14 -16 -6 0.17 0.21
-16 -6 14 0.02 0.27
-14 -16 6 -0.36 0.26
-14 16 -6 -0.11 0.28
6 -16 14 0.45 0.28
6 14 16 0.04 0.25
-6 16 14 0.18 0.24
6 -14 -16 -0.17 0.19
-6 -16 -14 0.03 0.19
16 -14 6 0.15 0.21
6 16 -14 0.47 0.27
16 14 -6 -0.02 0.28
14 -6 16 -0.33 0.2
-14 6 16 0 0.21
-6 14 -16 0.09 0.25
-16 14 6 -0.02 0.25
-14 6 16 -0.19 0.22
14 6 -16 0.47 0.25
-6 -14 16 -0.11 0.26
14 16 6 0.29 0.28
-16 6 -14 -0.15 0.13
-16 -14 -6 0.01 0.21
7 -14 16 0.23 0.28
-7 -16 14 0.78 0.3
-7 14 16 0.81 0.28
-7 16 -14 0.55 0.29
14 7 16 0.42 0.21
16 7 -14 0.74 0.28
16 -14 -7 0.16 0.2
14 -16 7 0.21 0.24
14 16 -7 0.9 0.3
-16 7 14 0.45 0.22
-16 -14 7 0.59 0.29
-14 -7 16 0.5 0.32
-14 7 -16 0.58 0.19
7 14 -16 0.87 0.28
-14 -16 -7 0.99 0.24
16 -7 14 0.53 0.19
16 14 7 0.67 0.28
-16 7 14 0.65 0.25
-16 14 -7 0.86 0.28
-7 -14 -16 0.6 0.2
7 -16 -14 0.49 0.21
7 16 14 0.76 0.3
-14 16 7 0.91 0.28
14 7 16 0.6 0.16
-14 7 16 0.45 0.23
-14 16 -7 0.27 0.29
-14 7 16 0.45 0.24
-16 14 7 0.66 0.25
-7 -14 16 0.36 0.3
16 7 14 0.55 0.13
7 -16 14 0.46 0.28
-16 -14 -7 0.51 0.22
7 -14 -16 0.46 0.21
16 -14 7 0.98 0.23
14 16 7 0.72 0.3
-14 -16 7 0.82 0.29
7 14 16 0.8 0.28
-7 -16 -14 0.48 0.2
14 -7 16 0.73 0.22
-16 -7 14 0.5 0.29
-7 16 14 0.41 0.28
14 -16 -7 0.6 0.22
-16 7 -14 0.64 0.17
-7 14 -16 0.73 0.27
14 7 -16 0.29 0.26
7 16 -14 0.5 0.28
16 14 -7 1.11 0.29
16 7 14 0.56 0.17
0 -15 -16 0.84 0.22
-16 0 15 0.48 0.3
15 -16 0 0.84 0.23
16 -15 0 0.82 0.23
-15 16 0 0.34 0.29
-16 0 15 0.47 0.21
0 16 15 0.69 0.28
15 0 16 0.61 0.12
-15 0 16 0.45 0.29
16 15 0 0.47 0.3
0 -16 15 0.73 0.3
0 -16 -15 0.7 0.21
-15 0 16 0.39 0.22
15 0 16 0.63 0.15
0 16 -15 1 0.33
0 -15 16 0.22 0.29
0 15 -16 0.21 0.27
-16 15 0 0.6 0.29
15 16 0 0.18 0.31
-15 -16 0 0.41 0.28
-16 -15 0 0.15 0.28
0 15 16 0.38 0.26
16 -15 -1 -0.6 0.19
15 1 16 -0.15 0.11
-16 15 -1 0.1 0.26
-15 -1 16 -0.05 0.25
-15 -16 -1 -0.32 0.26
1 16 15 -0.17 0.27
-1 -15 -16 -0.36 0.19
-15 -1 16 -0.11 0.19
-1 15 16 -0.55 0.25
15 16 -1 0.04 0.29
1 15 -16 -0.1 0.27
-1 -16 15 -0.26 0.29
1 -16 -15 -0.27 0.19
-16 1 15 -0.04 0.25
15 -16 1 -0.44 0.21
16 15 1 -0.35 0.5
-1 16 -15 -0.26 0.29
-16 1 15 -0.04 0.2
-15 16 1 -0.13 0.27
-16 -15 1 -0.3 0.26
15 1 16 -0.19 0.13
1 -15 16 -0.12 0.29
-16 -15 -1 -0.16 0.33
1 15 16 0.12 0.23
1 -16 15 -0.25 0.28
-16 15 1 0.24 0.26
-1 15 -16 -0.31 0.27
15 -1 16 -0.33 0.14
15 -1 16 -0.23 0.11
-15 1 16 -0.28 0.26
-15 16 -1 0.05 0.27
-16 -1 15 0.08 0.26
1 -15 -16 -0.3 0.18
-16 -1 15 0 0.19
1 16 -15 0.21 0.29
-1 -16 -15 -0.14 0.18
15 16 1 -0.24 0.28
16 15 -1 0.16 0.29
16 -15 1 -0.53 0.21
15 -16 -1 -0.3 0.22
-1 16 15 -0.25 0.25
-15 1 16 -0.11 0.2
-15 -16 1 0.21 0.27
-1 -15 16 0.11 0.28
2 16 15 0.44 0.25
15 -16 2 0.65 0.22
-2 -16 15 0.11 0.29
-16 -15 2 0.59 0.27
15 2 16 0.05 0.13
-2 15 16 0.28 0.27
2 15 -16 0.25 0.28
-15 -2 16 0.03 0.19
2 -15 16 -0.38 0.28
2 -16 -15 0.2 0.18
-16 2 15 0.01 0.21
-16 2 15 -0.17 0.24
15 16 -2 -0.11 0.28
-2 -15 -16 0.22 0.2
-15 16 2 0.04 0.27
-2 16 -15 -0.13 0.28
-15 -2 16 0.29 0.27
16 -15 -2 0.57 0.2
16 15 2 -0.14 0.27
15 2 16 -0.09 0.13
-15 -16 -2 0.12 0.25
-16 15 -2 0.02 0.27
2 15 16 0.3 0.25
-2 16 15 0.31 0.24
-15 -16 2 0.04 0.26
-2 -15 16 -0.06 0.29
2 -16 15 -0.02 0.28
-2 -16 -15 0.33 0.2
2 16 -15 0.06 0.26
15 16 2 0.13 0.29
-2 15 -16 0.35 0.27
-15 16 -2 0.56 0.28
2 -15 -16 0.34 0.2
-16 -15 -2 0.12 0.24
-15 2 16 0.12 0.25
-15 2 16 -0.16 0.2
-16 -2 15 0.15 0.19
16 -15 2 0.67 0.21
-16 -2 15 -0.18 0.26
16 15 -2 0.12 0.27
15 -2 16 0.21 0.15
15 -2 16 0.27 0.11
15 -16 -2 0.29 0.21
-16 15 2 -0.01 0.27
3 16 15 0.64 0.26
-3 -16 15 0.16 0.27
16 15 3 -0.09 0.26
-15 -3 16 -0.11 0.18
-16 3 15 -0.05 0.21
15 3 16 -0.16 0.13
3 15 -16 -0.03 0.28
15 -16 3 -0.12 0.2
-3 16 -15 -0.19 0.27
16 -15 -3 -0.37 0.19
-15 16 3 -0.21 0.25
-3 -15 -16 0.01 0.19
3 -16 -15 -0.09 0.2
-3 15 16 0.3 0.26
3 -15 16 0.16 0.27
-16 3 15 -0.52 0.24
-15 -3 16 0.32 0.28
15 16 -3 -0.28 0.28
15 3 16 -0.2 0.13
-16 15 -3 0.2 0.27
-15 -16 -3 -0.07 0.4
-16 -15 3 -0.17 0.26
-15 3 16 0.06 0.2
-3 -15 16 -0.53 0.28
-15 16 -3 -0.18 0.27
3 -15 -16 0.03 0.19
3 -16 15 -0.3 0.28
3 16 -15 -0.11 0.25
16 -15 3 -0.05 0.2
15 -3 16 -0.27 0.16
15 -3 16 -0.03 0.1
-16 -15 -3 0.3 0.24
16 15 -3 -0.23 0.27
15 16 3 -0.34 0.44
15 -16 -3 0 0.19
-3 15 -16 0.17 0.25
-3 -16 -15 0 0.18
3 15 16 -0.05 0.25
-16 15 3 0.13 0.26
-3 16 15 0.02 0.23
-16 -3 15 0.12 0.18
-15 -16 3 0.08 0.27
-15 3 16 -0.17 0.24
-16 -3 15 -0.05 0.26
4 15 -16 0.13 0.29
-16 4 15 -0.11 0.19
15 16 -4 -0.26 0.29
-16 15 -4 0.14 0.45
15 4 16 0.03 0.13
15 -16 4 0.03 0.21
16 15 4 -0.61 0.27
-4 -16 15 -0.2 0.27
-15 16 4 0.04 0.25
-16 4 15 -0.17 0.23
4 -16 -15 0.18 0.2
-16 -15 4 0.15 0.26
4 -15 16 -0.31 0.26
15 4 16 0.35 0.15
16 -15 -4 -0.07 0.19
-15 -16 -4 0.04 0.3
4 16 15 0.15 0.26
16 -4 15 0.1 0.12
-15 -4 16 -0.03 0.26
-4 15 16 -0.17 0.23
-4 16 -15 -0.39 0.26
-4 -15 -16 0.08 0.19
16 -4 15 0 0.08
4 15 16 0.06 0.25
15 -16 -4 0.01 0.19
-15 16 -4 0.16 0.27
4 16 -15 0.15 0.26
-4 -15 16 0.14 0.28
4 -15 -16 -0.08 0.18
-15 -16 4 -0.06 0.26
-16 -15 -4 0.34 0.23
4 -16 15 -0.29 0.26
16 15 -4 0.13 0.26
-16 15 4 -0.03 0.26
-16 -4 15 -0.26 0.25
-4 16 15 -0.17 0.24
15 -4 16 0.18 0.1
-15 4 16 0.03 0.19
-4 -16 -15 -0.2 0.18
15 -4 16 0.2 0.16
15 16 4 -0.06 0.33
16 -15 4 -0.22 0.25
-4 15 -16 0.12 0.27
-15 4 16 0.16 0.24
16 -5 15 0.03 0.09
15 -16 5 -0.26 0.21
-16 -15 5 -0.54 0.26
16 15 5 0.11 0.26
-5 -16 15 0.29 0.29
16 -5 15 0.07 0.14
5 16 15 0.31 0.27
-5 15 16 0.09 0.24
16 -15 -5 -0.18 0.18
-15 16 5 0.02 0.26
-5 -15 -16 -0.09 0.19
-15 -5 16 0.09 0.27
5 -15 16 -0.06 0.28
15 5 16 0.28 0.16
-5 16 -15 -0.17 0.28
-16 5 15 0.02 0.23
5 15 -16 -0.01 0.28
15 16 -5 0.34 0.29
-15 -16 -5 0.08 0.23
5 -16 -15 0 0.19
-16 5 15 -0.08 0.2
15 5 16 0.09 0.13
-16 15 -5 -0.04 0.41
-15 5 16 0.04 0.23
-16 -15 -5 -0.09 0.22
15 16 5 0.09 0.28
5 -16 15 -0.24 0.26
-16 15 5 0 0.25
5 -15 -16 0.03 0.18
-16 -5 15 0.31 0.28
5 16 -15 0.6 0.28
15 -5 16 -0.01 0.17
-15 16 -5 -0.32 0.27
-5 16 15 -0.09 0.25
-15 -16 5 -0.01 0.26
5 15 16 -0.25 0.34
16 15 -5 0.32 0.27
-15 5 16 -0.05 0.2
-5 -15 16 0.38 0.28
-5 15 -16 -0.42 0.27
-5 -16 -15 0.04 0.19
15 -16 -5 -0.16 0.2
-16 -16 0 1.11 0.29
-16 0 16 0.68 0.28
-16 0 16 1.22 0.24
-16 16 0 0.91 0.3
0 -16 -16 1.04 0.23
0 -16 16 1.3 0.32
0 16 -16 0.73 0.29
0 16 16 0.46 0.28
16 -16 0 1 0.25
16 16 0 1.12 0.31
-16 -16 -1 -0.3 0.26
-16 -16 1 -0.13 0.26
-16 -1 16 0.13 0.26
-16 -1 16 -0.03 0.19
-16 1 16 0.03 0.26
-16 1 16 0.09 0.2
-16 16 -1 -0.16 0.27
-16 16 1 0.48 0.28
-1 -16 -16 0.05 0.2
-1 -16 16 -0.22 0.29
-1 16 -16 0.08 0.26
-1 16 16 -0.33 0.24
1 -16 -16 -0.27 0.2
1 -16 16 0.16 0.29
1 16 -16 0.03 0.28
1 16 16 0.22 0.27
16 -16 -1 -0.17 0.22
16 -16 1 -0.16 0.21
16 16 -1 -0.29 0.29
16 16 1 0.57 0.3
-17 0 0 -0.13 0.15
-17 0 0 -0.27 0.13
0 -17 0 -0.15 0.23
0 0 17 -0.33 0.21
0 0 17 -0.15 0.15
0 17 0 0.03 0.27
-17 0 -1 0.11 0.14
-17 0 -1 0.07 0.11
-17 0 1 0.17 0.17
-17 0 1 -0.1 0.13
-1 -17 0 0.3 0.24
-1 17 0 -0.01 0.26
0 -1 17 -0.05 0.22
0 -1 17 0 0.16
0 1 17 0.2 0.21
0 1 17 -0.02 0.16
1 -17 0 0.21 0.24
1 17 0 -0.16 0.25
0 17 1 0.26 0.28
1 0 17 0.02 0.21
1 0 17 0.13 0.16
0 -17 -1 0.09 0.22
0 -17 1 0.07 0.22
0 17 -1 0.37 0.27
-1 0 17 0.06 0.21
-1 0 17 -0.04 0.15
-17 1 0 0.01 0.15
-17 1 0 0.09 0.13
-17 -1 0 0.02 0.12
-17 -1 0 0.05 0.16
-1 -17 1 -0.23 0.23
-1 -1 17 -0.01 0.21
-1 -1 17 -0.05 0.15
-17 1 1 -0.13 0.15
-17 1 1 -0.29 0.13
1 17 1 -0.35 0.25
1 17 -1 -0.07 0.26
1 1 17 0.01 0.22
1 1 17 -0.25 0.16
1 -1 17 -0.09 0.21
1 -1 17 -0.31 0.15
-1 17 1 -0.23 0.27
1 -17 -1 -0.21 0.24
1 -17 1 -0.06 0.23
-1 1 17 -0.01 0.22
-1 1 17 -0.14 0.17
-1 17 -1 -0.21 0.26
-17 -1 -1 -0.3 0.14
-17 -1 -1 -0.2 0.11
-17 -1 1 -0.05 0.16
-17 -1 1 -0.25 0.12
-17 1 -1 -0.08 0.13
-17 1 -1 -0.24 0.12
-1 -17 -1 -0.07 0.23
2 17 0 0.7 0.28
2 -17 0 0.48 0.22
0 -2 17 0.35 0.23
0 2 17 0.18 0.22
0 2 17 0.37 0.17
-17 0 -2 0.36 0.14
-17 0 -2 0.27 0.11
-17 0 2 0.44 0.17
-17 0 2 0.35 0.14
-2 -17 0 0.51 0.23
-2 17 0 0.16 0.27
0 -17 -2 0.38 0.23
0 -17 2 0.47 0.23
0 17 -2 0.03 0.26
0 17 2 0.56 0.27
-17 2 0 0.44 0.14
2 0 17 0.14 0.22
2 0 17 0.3 0.15
-2 0 17 -0.08 0.31
-2 0 17 0.44 0.19
-17 -2 0 0.37 0.16
-17 -2 0 0.55 0.12
-17 2 0 0.37 0.15
-17 2 -1 0.29 0.14
-2 17 1 0.31 0.26
2 1 17 0 0.21
-1 17 -2 -0.27 0.25
-17 -1 -2 -0.03 0.1
1 -17 -2 0.23 0.22
-17 -2 1 0.09 0.12
-1 -17 2 0.16 0.23
-17 -1 -2 0.07 0.14
-1 2 17 0.05 0.16
1 -2 17 -0.25 0.22
-17 -2 1 0.23 0.17
2 -17 1 -0.01 0.23
1 17 2 0.32 0.26
-17 1 2 0.09 0.16
-17 1 2 0.23 0.14
2 17 -1 0.01 0.26
2 1 17 0.07 0.15
-2 -1 17 0.1 0.19
-2 -17 -1 0.02 0.23
-17 2 -1 0.02 0.13
-1 2 17 0.21 0.21
-2 -1 17 -0.28 0.35
-1 17 2 0.29 0.26
-17 -1 2 0.07 0.13
1 -17 2 -0.07 0.23
2 -17 -1 0.25 0.22
-2 -17 1 -0.09 0.22
1 2 17 0.2 0.16
-2 17 -1 0.11 0.27
-2 1 17 0.19 0.34
2 17 1 -0.23 0.26
-17 -1 2 -0.14 0.17
1 17 -2 -0.1 0.24
2 -1 17 -0.08 0.21
-17 2 1 0.06 0.15
-17 2 1 0.01 0.14
-17 1 -2 0.04 0.13
-1 -17 -2 0.15 0.23
1 2 17 0.12 0.2
-1 -2 17 0.2 0.23
-17 1 -2 0.08 0.11
-17 -2 -1 0.24 0.1
-2 1 17 -0.01 0.2
-17 -2 -1 0.16 0.16
2 -1 17 -0.08 0.14
-17 -2 2 -0.07 0.17
2 17 2 -0.33 0.25
-17 -2 -2 -0.4 0.13
-17 -2 2 -0.12 0.12
2 -17 -2 -0.36 0.2
2 -17 2 -0.27 0.23
2 -2 17 -0.32 0.21
-17 -2 -2 -0.3 0.09
-17 2 -2 -0.22 0.12
-17 2 2 -0.3 0.16
-17 2 2 -0.31 0.14
-2 -17 -2 -0.27 0.23
-2 -17 2 -0.56 0.22
2 2 17 -0.41 0.19
2 2 17 -0.14 0.15
2 17 -2 0.01 0.27
-2 17 -2 -0.32 0.27
-2 17 2 -0.36 0.27
-2 2 17 -0.15 0.27
-17 -3 0 0.48 0.11
-3 0 17 0.28 0.18
-17 -3 0 0.19 0.17
-17 0 -3 0.29 0.12
-17 0 -3 0.46 0.1
-17 0 3 0.12 0.18
-17 0 3 0.28 0.14
-3 -17 0 0.31 0.22
-3 17 0 -0.04 0.26
0 -3 17 0.13 0.22
0 3 -17 0.52 0.21
0 3 17 0.14 0.2
0 3 17 0.44 0.17
3 -17 0 0.3 0.22
3 17 0 0.52 0.27
0 17 3 0.32 0.27
3 0 17 0.13 0.2
3 0 17 0.32 0.15
-17 3 0 0.41 0.15
0 17 -3 0.3 0.27
-3 0 17 0.5 0.24
-17 3 0 0.27 0.14
0 -17 -3 0.28 0.21
0 -17 3 0.21 0.23
1 -3 17 -0.16 0.21
1 3 -17 -0.17 0.2
-17 3 -1 -0.26 0.13
1 17 3 0.08 0.26
3 1 17 -0.26 0.19
-17 -1 -3 -0.35 0.1
-17 -1 -3 -0.12 0.08
-17 -3 1 -0.16 0.11
-3 -1 17 -0.08 0.22
-3 -1 17 -0.11 0.16
-1 3 17 -0.23 0.16
-17 1 3 -0.16 0.16
-17 1 3 -0.17 0.13
-3 -17 -1 -0.17 0.21
-1 17 -3 -0.02 0.24
-3 17 1 -0.23 0.25
1 -17 -3 -0.19 0.2
3 17 -1 -0.41 0.25
-17 -3 1 -0.2 0.17
-1 3 17 -0.12 0.21
-17 3 -1 -0.11 0.13
3 -17 1 -0.19 0.22
-1 -17 3 -0.22 0.22
3 1 17 0.01 0.15
3 -1 17 -0.22 0.2
3 -1 17 -0.21 0.14
-1 3 -17 -0.07 0.2
-17 -1 3 0.01 0.17
-3 1 17 -0.06 0.2
-17 -3 -1 -0.17 0.15
-17 -3 -1 -0.16 0.1
-17 3 1 0.07 0.14
-17 -1 3 -0.08 0.14
-17 1 -3 -0.01 0.11
-17 1 -3 -0.12 0.1
-1 -17 -3 -0.4 0.2
1 3 17 0.1 0.19
1 17 -3 -0.07 0.24
-3 -17 1 -0.43 0.21
-1 17 3 -0.2 0.24
-17 3 1 0.01 0.15
-1 -3 17 -0.2 0.23
3 17 1 0.07 0.26
3 -17 -1 0.09 0.21
-3 17 -1 -0.25 0.24
1 3 17 0 0.15
-3 1 17 -0.04 0.16
1 -17 3 -0.39 0.21
3 2 17 -0.12 0.19
2 17 3 0.18 0.25
-2 3 17 -0.28 0.3
-2 -17 3 -0.2 0.25
-2 17 -3 -0.06 0.26
-2 3 17 -0.49 0.28
2 -17 -3 0.07 0.21
2 3 -17 0.12 0.36
3 17 -2 -0.2 0.24
-17 -2 -3 -0.09 0.11
-3 -2 17 -0.11 0.24
-17 -3 2 -0.08 0.17
-17 3 -2 -0.08 0.12
-17 3 -2 -0.03 0.13
-17 2 3 -0.26 0.16
-17 2 3 0.05 0.15
-3 -17 -2 -0.01 0.21
3 -17 2 -0.25 0.21
2 -3 17 0.07 0.21
-3 17 2 -0.3 0.25
-17 -2 -3 -0.05 0.08
3 2 17 0.01 0.15
-3 -17 2 0.16 0.23
-2 17 3 -0.34 0.25
-2 -17 -3 -0.18 0.22
2 -17 3 0.1 0.24
2 3 17 -0.07 0.19
2 3 17 0.16 0.16
3 -17 -2 -0.09 0.2
-2 3 -17 0.1 0.19
-17 -3 -2 -0.09 0.14
-17 -2 3 0.01 0.12
3 17 2 0.11 0.26
3 -2 17 -0.08 0.2
2 17 -3 -0.22 0.26
-2 -3 17 0.08 0.3
-17 3 2 -0.07 0.15
-17 3 2 -0.12 0.15
-3 17 -2 -0.25 0.24
-3 2 17 -0.19 0.22
-3 2 17 -0.14 0.18
-17 -2 3 -0.16 0.18
-17 2 -3 -0.11 0.11
-17 2 -3 0.13 0.11
-17 -3 -2 -0.03 0.09
-3 -3 17 0.03 0.23
-17 3 -3 -0.07 0.11
-17 -3 3 -0.13 0.18
-17 3 3 -0.25 0.15
-17 3 3 -0.12 0.15
-3 -17 -3 -0.34 0.22
-3 -17 3 -0.26 0.23
3 3 17 -0.02 0.19
3 3 17 -0.14 0.16
3 17 -3 -0.15 0.25
-17 3 -3 -0.12 0.12
-3 17 3 0.32 0.26
-17 -3 -3 -0.17 0.11
-3 3 -17 -0.28 0.18
-17 -3 -3 -0.04 0.08
3 3 -17 -0.07 0.21
3 17 3 0.12 0.26
3 -17 3 -0.16 0.23
3 -3 17 -0.29 0.21
3 -17 -3 0.18 0.21
-3 3 17 -0.31 0.16
-3 17 -3 -0.22 0.25
-3 3 17 -0.1 0.21
4 17 0 -0.11 0.25
0 4 17 0.36 0.17
-17 4 0 0.19 0.14
0 -4 17 0.4 0.23
-4 0 17 0.25 0.16
-17 4 0 0.03 0.15
-4 0 17 0.37 0.23
4 -17 0 -0.29 0.23
-17 0 4 0.36 0.18
-17 0 4 0.19 0.13
-4 -17 0 0.06 0.23
-4 17 0 0.26 0.26
0 -17 -4 0.3 0.22
0 -17 4 0.22 0.25
0 17 -4 0.24 0.27
0 17 4 0.36 0.24
4 0 17 0.14 0.19
4 0 17 0.09 0.14
-17 -4 0 0.21 0.17
0 4 17 0.38 0.2
0 4 -17 0.05 0.21
4 -17 1 -0.36 0.22
-4 17 1 -0.26 0.26
-1 17 -4 -0.32 0.24
-17 4 -1 0.04 0.13
-17 -4 1 0.14 0.17
-4 -1 17 -0.03 0.24
-1 -17 4 0.09 0.23
-17 1 4 0.04 0.17
-17 4 -1 -0.1 0.14
1 -17 -4 0.02 0.21
4 1 17 0 0.15
4 17 -1 0.21 0.25
1 -4 17 -0.01 0.23
1 4 -17 -0.04 0.36
-4 -1 17 0.05 0.16
-4 -17 -1 -0.18 0.21
1 17 4 -0.33 0.26
-17 1 4 -0.06 0.14
-1 4 17 0.01 0.23
-1 4 17 -0.08 0.29
4 1 17 0.23 0.19
4 -1 17 -0.12 0.21
-4 -17 1 0.13 0.22
-17 -4 -1 -0.25 0.14
-1 4 -17 0.01 0.2
-4 1 17 -0.08 0.15
1 -17 4 0.14 0.23
4 17 1 0.05 0.26
-1 17 4 0.05 0.26
1 4 17 0.11 0.19
1 4 17 0.11 0.16
-1 -17 -4 -0.22 0.19
-4 1 17 -0.09 0.2
4 -17 -1 0.29 0.22
4 -1 17 0.15 0.14
-17 -1 4 0.08 0.14
-17 -1 4 0.15 0.19
1 17 -4 -0.02 0.25
-17 4 1 -0.1 0.14
-17 4 1 0.05 0.15
-4 17 -1 -0.03 0.25
2 17 4 -0.1 0.26
2 -17 -4 0.25 0.21
4 2 17 -0.01 0.18
4 -17 2 -0.23 0.22
-17 2 4 0.21 0.15
-2 4 17 0.05 0.2
-4 17 2 -0.26 0.24
-2 -17 4 -0.01 0.24
-2 17 -4 0.03 0.26
-4 -17 -2 -0.12 0.21
-17 -4 2 -0.03 0.17
-17 4 -2 0 0.14
-17 2 4 -0.08 0.17
2 -4 17 0.1 0.22
4 17 -2 -0.54 0.25
-4 -2 17 -0.19 0.22
4 2 17 -0.05 0.15
-2 4 17 -0.05 0.18
2 4 -17 0.12 0.22
2 -17 4 -0.07 0.21
4 -2 17 -0.04 0.2
-4 17 -2 0 0.25
4 -17 -2 0.38 0.22
-17 4 2 0.23 0.15
-17 -4 -2 -0.02 0.13
2 4 17 0.23 0.16
-4 2 17 -0.27 0.22
-2 17 4 0.06 0.25
2 4 17 -0.09 0.18
-17 -2 4 0.1 0.17
-17 4 2 -0.15 0.15
-2 -17 -4 -0.06 0.2
-2 -4 17 0.1 0.22
-2 4 -17 0.04 0.2
2 17 -4 0.35 0.27
-4 -17 2 0.02 0.24
-4 2 17 -0.07 0.18
-17 -2 4 0.07 0.13
-17 2 -4 -0.1 0.09
4 17 2 -0.24 0.25
-17 -4 3 -0.05 0.17
-3 4 17 0.01 0.2
3 -17 -4 0.08 0.21
-4 -17 -3 0.15 0.22
-4 -3 17 0.06 0.26
4 3 17 0.16 0.19
-17 3 4 0.16 0.17
-17 3 4 -0.07 0.15
-3 17 -4 0.25 0.26
-4 17 3 -0.2 0.24
-4 3 -17 -0.16 0.18
-3 -17 4 -0.18 0.25
4 17 -3 -0.02 0.25
3 -4 17 -0.14 0.21
3 4 -17 -0.09 0.21
4 3 17 -0.21 0.14
4 -17 3 -0.14 0.21
3 17 4 0.07 0.24
-3 4 17 -0.03 0.18
-17 4 -3 0.12 0.13
3 17 -4 -0.06 0.24
-17 4 3 -0.1 0.16
-17 4 3 0.01 0.15
-3 -4 17 -0.18 0.24
3 4 17 -0.15 0.16
4 -17 -3 0.04 0.22
-3 4 -17 0.15 0.2
3 4 17 -0.12 0.18
-4 3 17 -0.08 0.22
-4 3 17 0.02 0.17
-3 -17 -4 0 0.21
-4 -17 3 -0.12 0.23
-4 17 -3 -0.09 0.24
-3 17 4 -0.01 0.26
-17 3 -4 -0.15 0.09
3 -17 4 -0.15 0.23
-17 3 -4 -0.02 0.1
-17 -4 -3 0.06 0.13
4 -3 17 -0.06 0.21
4 3 -17 -0.07 0.22
-17 -3 4 0.21 0.18
4 17 3 -0.23 0.25
-17 -4 -4 -0.06 0.1
4 17 4 -0.09 0.26
-17 4 4 -0.24 0.17
-17 4 -4 -0.18 0.11
-4 -17 -4 -0.02 0.21
4 4 -17 -0.04 0.23
4 4 17 0.34 0.18
4 4 17 -0.1 0.15
4 17 -4 0.13 0.25
-4 4 17 0.13 0.22
-4 4 17 -0.04 0.18
-4 17 -4 -0.17 0.25
-17 4 4 0.08 0.16
-4 4 -17 -0.22 0.2
-4 17 4 -0.2 0.26
4 -17 -4 0.14 0.21
4 -17 4 0.11 0.23
4 -4 17 0.01 0.22
-4 -4 17 0.06 0.23
-17 -4 -4 0.09 0.07
-17 -4 4 -0.22 0.17
-4 -17 4 0.02 0.24
17 5 0 0.36 0.16
-5 0 17 -0.06 0.16
0 -17 -5 0.45 0.22
0 17 -5 0.66 0.28
0 5 -17 0.54 0.24
0 5 17 0.3 0.2
-17 0 5 0.04 0.19
0 17 5 0.44 0.26
5 0 17 0.29 0.19
5 0 17 0.24 0.14
-17 0 5 0.3 0.15
-5 -17 0 0.09 0.23
-5 17 0 0.17 0.26
0 -5 17 0.02 0.37
5 17 0 0.25 0.26
-5 0 17 -0.05 0.22
5 -17 0 0.19 0.23
-17 -5 0 0.33 0.16
-17 5 0 0.23 0.16
0 5 17 0.15 0.17
0 -17 5 0.43 0.24
5 -17 1 0.03 0.22
-1 -17 5 0.04 0.25
-1 5 17 -0.23 0.24
-5 17 1 -0.08 0.26
-5 -1 17 0.11 0.25
5 1 17 -0.22 0.14
-17 1 5 -0.14 0.15
-17 -5 1 -0.1 0.17
5 17 -1 -0.01 0.25
-17 1 5 -0.09 0.17
-5 -17 -1 -0.28 0.22
-5 -1 17 -0.06 0.17
1 -5 17 -0.11 0.24
1 5 -17 0.12 0.22
1 17 5 -0.12 0.25
5 1 17 0.08 0.18
17 5 1 -0.15 0.14
1 -17 -5 0.37 0.2
-1 5 17 0.06 0.24
-1 17 -5 -0.04 0.25
-17 5 -1 0.18 0.15
5 -1 17 -0.03 0.13
-5 -17 1 -0.03 0.23
-1 -5 17 0.12 0.25
-1 17 5 0.09 0.26
-17 -5 -1 0.02 0.15
5 17 1 -0.13 0.25
-5 1 17 -0.23 0.15
1 -17 5 -0.17 0.25
5 -17 -1 -0.04 0.21
-1 5 -17 0.05 0.21
-5 1 17 -0.02 0.21
17 5 -1 -0.23 0.16
5 -1 17 -0.21 0.19
1 17 -5 -0.01 0.25
1 5 17 -0.14 0.17
-17 -1 5 -0.25 0.14
-1 -17 -5 0.05 0.22
-17 -1 5 -0.04 0.18
-5 17 -1 -0.19 0.27
1 5 17 0.09 0.19
-17 5 1 -0.12 0.16
-2 -17 5 -0.19 0.23
-2 5 17 0.05 0.17
-5 17 2 -0.09 0.25
2 -5 17 -0.22 0.23
5 -17 2 -0.04 0.22
-17 5 -2 -0.08 0.15
-5 -2 17 -0.27 0.22
2 5 -17 0.1 0.22
5 17 -2 0.03 0.26
17 5 2 -0.07 0.12
-5 -17 -2 -0.09 0.22
-2 5 17 0 0.19
-2 17 -5 -0.15 0.25
2 17 5 0.32 0.26
5 2 17 -0.09 0.2
5 2 17 0.06 0.14
-17 -5 2 0.18 0.17
-17 2 5 -0.13 0.18
-17 2 5 -0.06 0.15
2 -17 -5 0.05 0.21
-5 2 17 -0.07 0.22
-5 17 -2 0.23 0.25
-2 17 5 0.11 0.27
17 5 -2 -0.13 0.17
5 -2 17 -0.19 0.19
-17 5 2 0.05 0.16
-17 -2 5 -0.16 0.18
-17 -2 5 0 0.13
-5 2 17 -0.24 0.18
-2 -17 -5 0.07 0.2
2 5 17 -0.12 0.19
-5 -17 2 -0.07 0.25
5 17 2 -0.04 0.25
2 -17 5 0.11 0.24
-2 -5 17 -0.19 0.25
-2 5 -17 0.06 0.21
-17 -5 -2 0.01 0.16
2 5 17 -0.18 0.17
5 -17 -2 -0.1 0.21
2 17 -5 -0.12 0.26
3 -17 -5 0.1 0.21
-3 5 17 0.26 0.2
-3 5 17 0.16 0.16
-3 -17 5 -0.06 0.23
3 17 5 0.41 0.27
-3 17 -5 0.29 0.26
-17 3 5 0.27 0.18
3 5 -17 0.14 0.21
5 3 17 0.08 0.18
5 3 17 0.12 0.15
-5 17 3 0.12 0.25
-17 -5 3 0.17 0.18
-17 5 -3 0.04 0.13
-5 -17 -3 -0.04 0.21
-5 -3 17 -0.01 0.25
-5 3 -17 -0.12 0.19
5 17 -3 0.01 0.25
5 -17 3 0.47 0.23
-17 3 5 0.35 0.16
3 -5 17 0.18 0.23
-17 -3 5 0.08 0.18
3 -17 5 0.34 0.22
-17 -5 -3 0.13 0.14
-3 17 5 -0.12 0.25
3 5 17 0.42 0.17
5 -17 -3 -0.06 0.19
-5 3 17 -0.05 0.17
-5 3 17 0.26 0.22
5 -3 17 0.12 0.2
5 3 -17 -0.28 0.21
17 5 -3 0.13 0.18
-17 5 3 0.34 0.16
-3 -5 17 0.04 0.24
-3 -17 -5 -0.02 0.2
5 17 3 0.04 0.24
-5 17 -3 0.11 0.25
-3 5 -17 0.24 0.2
3 17 -5 0.06 0.25
3 5 17 0.17 0.19
-5 -17 3 0.32 0.24
4 -5 17 0.02 0.22
-5 17 4 -0.15 0.26
-5 4 -17 0.09 0.19
-17 -5 4 0.23 0.18
-17 5 -4 0.1 0.13
5 -17 4 -0.04 0.24
5 17 -4 0.12 0.26
-17 4 5 -0.14 0.18
-17 4 5 0.12 0.15
4 17 5 0.15 0.26
-4 5 17 -0.07 0.21
-5 -4 17 -0.17 0.25
5 4 17 0.14 0.18
4 5 -17 -0.15 0.22
-5 -17 -4 -0.03 0.22
4 -17 -5 -0.13 0.19
-4 17 -5 0.18 0.26
-4 -17 5 0 0.25
5 4 17 0.13 0.16
-4 5 17 0.15 0.17
17 5 -4 0.24 0.18
-17 -5 -4 0.15 0.12
-4 5 -17 0.29 0.2
-4 17 5 0.28 0.24
5 -17 -4 -0.09 0.19
-17 -4 5 0.21 0.19
-17 4 -5 0.1 0.12
5 17 4 -0.1 0.25
4 5 17 0.08 0.19
-5 17 -4 0 0.25
-5 -17 4 0.34 0.24
4 17 -5 -0.26 0.26
-5 4 17 0.38 0.21
-5 4 17 0.01 0.18
-4 -17 -5 0.13 0.2
5 4 -17 -0.24 0.2
4 -17 5 0.48 0.22
5 -4 17 0.06 0.21
4 5 17 0.32 0.16
-4 -5 17 0.19 0.25
-17 5 4 0.27 0.16
-5 17 5 -0.12 0.24
17 5 -5 -0.19 0.19
-17 -5 -5 0.07 0.09
-5 17 -5 -0.21 0.27
5 17 5 -0.11 0.27
-17 5 5 0.01 0.17
-17 5 5 0 0.16
5 -17 -5 -0.37 0.19
17 -5 5 -0.09 0.08
-5 5 17 0.02 0.21
-17 -5 5 -0.28 0.19
-17 5 -5 -0.09 0.14
5 17 -5 0.05 0.27
-5 -5 17 -0.12 0.25
5 5 -17 0.13 0.21
5 5 17 -0.29 0.17
-5 5 17 -0.08 0.17
5 -5 17 0.19 0.23
-5 -17 -5 -0.01 0.19
5 -17 5 0.07 0.23
5 5 17 -0.09 0.16
-5 5 -17 0.12 0.2
-5 -17 5 -0.15 0.24
-6 -17 0 0.49 0.25
6 0 17 0.44 0.2
0 6 -17 0.2 0.28
17 -6 0 0.56 0.13
-6 17 0 0.52 0.28
-17 0 6 0.58 0.17
6 0 17 0.62 0.16
-17 -6 0 0.6 0.19
17 6 0 0.66 0.17
-17 6 0 0.71 0.17
-6 0 17 0.67 0.24
-6 0 17 0.42 0.17
0 -17 -6 0.62 0.23
0 -17 6 0.44 0.26
0 17 -6 0.08 0.27
0 17 6 0.48 0.27
-17 0 6 0.72 0.21
6 -17 0 0.6 0.22
6 17 0 0.61 0.26
0 -6 17 0.31 0.26
-1 -17 6 0.27 0.24
6 17 -1 0.26 0.27
-6 -1 17 0.12 0.27
-1 6 17 0.33 0.19
1 -17 -6 0.43 0.2
-6 -17 -1 0.31 0.23
17 6 1 0.12 0.15
-6 17 1 0.18 0.26
-1 17 -6 0.38 0.26
6 -17 1 0.47 0.23
-17 -6 1 0.05 0.18
-1 6 17 0.32 0.2
6 1 17 0.28 0.14
1 17 6 0.52 0.28
-6 -1 17 0.13 0.17
-17 6 -1 0.59 0.16
17 -6 -1 0.37 0.13
-17 1 6 0.28 0.19
1 -6 17 0.56 0.38
-17 1 6 0.22 0.15
1 6 -17 0.09 0.22
6 1 17 0.33 0.19
-6 17 -1 0.13 0.27
-6 -17 1 0.65 0.26
-6 1 17 0.25 0.17
1 -17 6 0.33 0.24
-17 -6 -1 0.13 0.18
-6 1 17 0.03 0.21
17 6 -1 0.4 0.17
-1 17 6 0.31 0.26
-17 -1 6 0.33 0.19
6 -17 -1 0.35 0.21
6 -1 17 0.34 0.2
6 -1 17 0.31 0.14
1 17 -6 0.28 0.26
1 6 17 0.12 0.18
-17 6 1 0.59 0.17
6 17 1 0.4 0.27
-1 -6 17 0.23 0.25
-1 -17 -6 0.49 0.23
1 6 17 0.33 0.2
17 -6 1 0.38 0.12
-1 6 -17 0.42 0.26
-17 -1 6 0.16 0.15
-6 -17 -2 0.09 0.22
-2 -17 6 0.34 0.25
6 2 17 0.21 0.15
17 -6 -2 0.23 0.13
-17 2 6 0.25 0.19
-6 17 2 0.53 0.26
2 17 6 0.02 0.25
6 2 17 0.09 0.18
-17 6 -2 0.02 0.15
-6 -2 17 0.14 0.24
17 6 2 0.5 0.15
6 -17 2 0.43 0.23
-2 6 17 0.22 0.2
2 -6 17 0.49 0.24
2 6 -17 0.42 0.23
-2 17 -6 0.1 0.27
6 17 -2 0.18 0.25
-17 -6 2 0.08 0.19
-2 6 17 0.11 0.18
-17 2 6 0.05 0.15
2 -17 -6 0.09 0.2
2 -17 6 0.63 0.25
17 6 -2 0.14 0.18
2 6 17 0.22 0.19
17 -6 2 0.12 0.12
6 -2 17 0.15 0.21
6 -2 17 0.14 0.14
-6 -17 2 0.57 0.25
-6 17 -2 0.36 0.26
-17 -2 6 0.1 0.14
6 17 2 0.24 0.26
2 17 -6 0.19 0.27
-6 2 17 0.07 0.22
-6 2 17 0.14 0.19
-17 -2 6 0.25 0.19
-17 6 2 0.15 0.17
6 -17 -2 0.27 0.21
-2 -6 17 0.32 0.25
2 6 17 0.24 0.18
-2 -17 -6 0.7 0.22
-17 -6 -2 0.22 0.17
-2 6 -17 0.53 0.22
-2 17 6 0.55 0.24
-3 6 17 0.22 0.21
-17 -6 3 0.17 0.19
6 3 17 -0.1 0.18
-6 17 3 0.11 0.26
3 -17 -6 0.17 0.2
-17 3 6 0.06 0.18
-17 3 6 0.03 0.16
-6 -17 -3 -0.1 0.22
-3 -17 6 0.09 0.25
17 6 3 -0.07 0.13
-6 -3 17 0.17 0.24
3 -6 17 0.17 0.23
-3 6 17 -0.05 0.2
6 3 17 -0.11 0.15
6 -17 3 -0.03 0.22
6 17 -3 0.26 0.26
-3 17 -6 0.42 0.27
3 6 -17 0.36 0.22
3 17 6 0.04 0.25
-17 6 -3 -0.01 0.15
-3 -6 17 -0.07 0.24
-17 6 3 0.14 0.16
-17 -3 6 0.08 0.19
-17 -6 -3 -0.11 0.15
6 17 3 -0.09 0.25
-3 17 6 -0.34 0.25
-6 3 17 -0.02 0.17
-3 -17 -6 0.15 0.21
-6 -17 3 -0.02 0.24
3 6 17 0.07 0.17
6 -3 17 0.15 0.22
6 3 -17 0 0.24
-6 17 -3 -0.03 0.25
6 -17 -3 0.32 0.21
17 -6 3 0.15 0.11
17 6 -3 -0.02 0.18
3 6 17 0.18 0.2
-3 6 -17 0.03 0.21
3 17 -6 0.17 0.27
3 -17 6 0.12 0.26
-6 3 17 -0.07 0.21
-4 -17 6 -0.11 0.24
-17 6 -4 0.17 0.15
-4 17 -6 -0.14 0.26
-6 17 4 0.1 0.25
6 -17 4 -0.07 0.23
-6 -4 17 -0.16 0.24
-6 4 -17 0.2 0.18
6 4 17 0.08 0.17
4 -6 17 0.19 0.23
-17 4 6 0.22 0.15
-6 -17 -4 -0.22 0.22
4 17 6 -0.02 0.26
6 17 -4 0 0.27
-17 4 6 -0.01 0.18
-17 -6 4 0.15 0.2
4 6 -17 0.11 0.23
6 4 17 0.14 0.15
-4 6 17 0.18 0.21
17 6 4 -0.01 0.12
-4 6 17 -0.02 0.18
4 -17 -6 0.11 0.19
-4 17 6 0.23 0.26
6 17 4 0.15 0.26
4 -17 6 0.14 0.24
6 4 -17 0.13 0.22
-17 -4 6 0.01 0.19
17 6 -4 -0.02 0.19
-4 -17 -6 0.1 0.22
6 -4 17 -0.09 0.21
4 17 -6 0.25 0.27
-6 4 17 0.27 0.18
-4 -6 17 -0.05 0.26
-4 6 -17 0.12 0.21
17 -6 4 -0.07 0.11
-17 6 4 0.08 0.17
-6 17 -4 -0.15 0.25
-6 -17 4 -0.08 0.25
-17 -6 -4 0 0.13
-6 4 17 -0.15 0.19
4 6 17 -0.03 0.18
4 6 17 -0.05 0.18
6 -17 -4 0.02 0.21
17 5 -6 -0.06 0.2
-17 5 6 0.15 0.17
6 17 -5 0.13 0.27
-6 -17 -5 0.24 0.21
5 6 -17 0.17 0.24
5 17 6 0.29 0.26
-17 -6 5 0.46 0.2
-5 6 17 0.17 0.2
6 5 17 0.16 0.17
5 -6 17 -0.19 0.22
-17 6 -5 0.07 0.16
-6 -5 17 -0.49 0.26
6 -17 5 0.3 0.24
-6 5 -17 0.24 0.19
17 6 5 0.18 0.11
-17 5 6 0.38 0.18
17 -5 6 0.12 0.08
-5 -17 6 0.22 0.26
-5 17 -6 0.26 0.26
6 5 17 0.13 0.17
5 -17 -6 0.02 0.21
-6 17 5 -0.11 0.25
-5 6 17 -0.04 0.19
-6 5 17 0.06 0.17
-5 6 -17 0.01 0.21
-5 17 6 -0.27 0.26
-17 6 5 0.04 0.16
-17 -5 6 0.17 0.2
-6 17 -5 0.19 0.27
5 -17 6 0.27 0.23
-17 5 -6 0.06 0.13
-5 -17 -6 0.02 0.21
-6 -17 5 -0.2 0.24
5 6 17 -0.08 0.17
6 17 5 -0.13 0.26
17 -6 5 0.26 0.1
17 6 -5 0.25 0.2
-6 5 17 0.24 0.21
6 -5 17 0.11 0.22
-17 -6 -5 0.04 0.12
-5 -6 17 -0.15 0.24
5 6 17 0.09 0.18
6 5 -17 0.18 0.23
6 -17 -5 0.09 0.19
5 17 -6 -0.07 0.26
-6 -17 6 -0.02 0.27
6 6 17 0.05 0.18
6 6 17 -0.03 0.17
-6 -6 17 -0.03 0.26
-17 -6 -6 -0.08 0.09
-6 -17 -6 0.07 0.22
6 17 6 -0.44 0.25
17 -6 6 -0.07 0.1
6 6 -17 -0.15 0.21
-17 -6 6 -0.05 0.21
-17 6 -6 -0.11 0.15
-6 17 -6 0.02 0.25
-6 17 6 -0.12 0.26
6 -17 6 0.01 0.24
6 17 -6 -0.3 0.28
17 6 6 -0.18 0.09
-17 6 6 -0.15 0.16
6 -6 17 0.08 0.23
17 6 -6 -0.02 0.2
-6 6 -17 -0.13 0.2
-6 6 17 -0.08 0.21
-6 6 17 -0.23 0.19
6 -17 -6 0.07 0.19
-17 7 0 -0.04 0.17
0 17 7 0.12 0.27
-7 0 17 0.34 0.25
-7 0 17 0.03 0.18
-17 0 7 -0.59 0.19
-7 17 0 0.04 0.27
7 0 17 -0.06 0.2
7 0 17 -0.04 0.15
17 -7 0 0.06 0.13
17 7 0 0.29 0.18
-17 -7 0 -0.1 0.2
0 -17 -7 0.18 0.21
0 -17 7 -0.45 0.26
0 7 17 -0.01 0.18
7 -17 0 0.09 0.22
0 -7 17 -0.08 0.25
0 17 -7 0.64 0.29
0 7 -17 -0.04 0.22
7 17 0 -0.22 0.27
-7 -17 0 -0.31 0.23
-17 0 7 0.12 0.16
-7 -17 -1 0.31 0.24
-17 1 7 0.37 0.16
-7 17 1 0.23 0.27
1 7 -17 0.22 0.24
1 -17 -7 0.01 0.2
-7 -1 17 0.12 0.27
17 7 1 0.22 0.17
1 17 7 0.33 0.27
7 -17 1 0.09 0.22
-1 -17 7 0.26 0.25
-1 17 -7 0.05 0.27
-17 7 -1 0.18 0.17
-1 7 17 -0.02 0.18
7 1 17 0.23 0.15
17 -7 -1 0.04 0.13
7 1 17 0.42 0.19
-7 -1 17 0.08 0.18
-17 1 7 -0.09 0.19
-17 -7 1 0.07 0.21
7 17 -1 0.35 0.27
1 -7 17 0.2 0.27
-17 -7 -1 -0.11 0.19
-1 7 -17 0.34 0.25
1 17 -7 0.25 0.28
-7 1 17 0.04 0.19
7 -1 17 0.14 0.19
7 -1 17 0.07 0.14
-7 17 -1 0.14 0.27
7 -17 -1 0.33 0.22
17 7 -1 0.32 0.18
7 17 1 0.25 0.26
-1 17 7 0 0.25
-7 -17 1 -0.02 0.26
-1 -17 -7 0.3 0.21
-17 -1 7 0.12 0.19
17 -7 1 0.16 0.14
-7 1 17 0.01 0.23
1 -17 7 0.15 0.25
-1 -7 17 0.61 0.26
-17 -1 7 -0.05 0.15
-17 7 1 -0.01 0.16
7 2 17 0 0.14
-17 2 7 -0.08 0.19
-2 7 17 -0.14 0.19
7 -17 2 -0.05 0.22
7 17 -2 0.18 0.26
2 -17 -7 0.17 0.2
-17 -7 2 -0.03 0.2
-17 7 -2 0.15 0.17
-2 -17 7 -0.09 0.26
-7 -2 17 0.17 0.25
-7 17 2 0.44 0.26
17 7 2 0.07 0.16
17 -7 -2 0.21 0.14
2 17 7 0.33 0.27
7 2 17 -0.08 0.18
-17 2 7 0.25 0.16
2 7 -17 -0.22 0.23
-7 -17 -2 -0.29 0.22
-2 17 -7 0.04 0.26
-2 -7 17 0.02 0.25
-7 2 17 0.03 0.23
-17 -2 7 0.01 0.14
7 -17 -2 -0.1 0.21
2 -17 7 0.05 0.25
-2 17 7 -0.37 0.26
2 7 17 -0.38 0.2
-17 7 2 -0.38 0.17
-2 7 -17 0.13 0.32
17 -7 2 0.05 0.12
17 7 -2 0.07 0.19
-7 -17 2 0.15 0.25
-17 -7 -2 -0.04 0.18
2 17 -7 -0.38 0.27
-17 -2 7 -0.01 0.2
7 -2 17 -0.03 0.2
7 -2 17 -0.07 0.14
7 17 2 -0.18 0.25
-7 2 17 -0.15 0.19
-2 -17 -7 0.16 0.22
-7 17 -2 0.17 0.26
17 -7 -3 0.08 0.14
-3 -17 7 0.18 0.26
-7 17 3 0.05 0.26
3 17 7 -0.13 0.27
-7 -3 17 0.26 0.25
-7 -17 -3 0.08 0.23
-17 -7 3 -0.11 0.2
7 17 -3 0.2 0.28
7 3 17 -0.08 0.16
7 -17 3 0.22 0.23
-3 7 17 0.22 0.19
-3 17 -7 0.03 0.26
17 7 3 -0.01 0.15
7 3 17 0.1 0.18
3 -7 17 -0.16 0.24
3 7 -17 0.28 0.26
-17 7 -3 0.19 0.17
-17 3 7 0.06 0.19
3 -17 -7 0.23 0.22
-17 3 7 0.04 0.16
-7 3 17 -0.22 0.17
-3 -17 -7 0.38 0.22
17 -7 3 0.01 0.11
3 -17 7 -0.06 0.23
-17 -7 -3 -0.1 0.17
-7 17 -3 -0.1 0.26
-17 7 3 -0.15 0.17
-3 17 7 0.14 0.27
7 -3 17 0.06 0.21
-7 3 17 -0.42 0.22
-7 -17 3 -0.13 0.24
17 7 -3 -0.09 0.2
3 17 -7 -0.42 0.27
3 7 17 0.27 0.19
7 -17 -3 -0.04 0.21
-3 7 -17 0.12 0.21
-17 -3 7 0.04 0.19
-3 -7 17 0.09 0.26
7 17 3 0.33 0.27
-17 4 7 0.02 0.16
4 -17 -7 0.19 0.2
-7 17 4 0.09 0.26
-17 7 -4 0.13 0.17
-4 -17 7 -0.08 0.27
-4 17 -7 0.03 0.26
17 7 4 0.15 0.14
-7 -17 -4 0.12 0.22
-17 -7 4 0.15 0.21
17 -7 -4 0.12 0.15
7 17 -4 0.18 0.27
4 -7 17 0.37 0.25
4 7 -17 0.07 0.23
-4 7 17 0.12 0.19
-7 4 -17 0.12 0.18
7 4 17 0.28 0.18
-7 -4 17 -0.19 0.23
-17 4 7 0.07 0.18
7 -17 4 0.07 0.24
7 4 17 -0.03 0.15
4 17 7 0.16 0.27
4 17 -7 -0.04 0.27
4 -17 7 0.16 0.25
7 4 -17 0.25 0.22
-4 7 -17 0.25 0.21
-7 -17 4 0.19 0.25
-7 17 -4 0.29 0.28
4 7 17 -0.17 0.18
7 -4 17 0.14 0.21
-4 17 7 -0.34 0.26
-4 -7 17 -0.01 0.26
17 7 -4 -0.12 0.2
-7 4 17 0.32 0.23
-7 4 17 0.22 0.19
-4 -17 -7 0.03 0.21
-17 -4 7 0.19 0.2
7 -17 -4 0.36 0.2
-17 7 4 -0.12 0.16
-17 -7 -4 0.01 0.15
7 17 4 0.11 0.27
17 -7 4 0.09 0.12
17 -5 7 0.03 0.07
-5 -17 7 -0.16 0.25
5 7 -17 0.21 0.24
17 7 5 0.24 0.13
5 -7 17 0.2 0.23
-17 5 7 -0.1 0.17
17 -7 -5 0.19 0.16
-5 7 17 0.02 0.19
7 17 -5 -0.27 0.26
5 17 7 -0.22 0.26
-17 -7 5 0.19 0.22
-17 7 -5 -0.06 0.17
7 5 17 0 0.17
-7 -5 17 0.02 0.25
-7 5 -17 0.07 0.19
17 5 -7 -0.04 0.21
7 -17 5 -0.12 0.23
-5 17 -7 -0.45 0.26
7 5 17 -0.02 0.17
-7 17 5 0.33 0.25
-17 5 7 -0.3 0.16
5 -17 -7 0.01 0.19
-7 -17 -5 -0.11 0.21
-17 7 5 0.13 0.17
7 17 5 0.06 0.26
17 -7 5 -0.01 0.12
-5 -7 17 -0.04 0.26
-7 5 17 0.3 0.23
-7 5 17 -0.12 0.17
-5 -17 -7 0.08 0.21
-5 7 -17 0.05 0.2
-7 -17 5 -0.11 0.24
7 5 -17 0.13 0.25
-7 17 -5 0.09 0.26
-5 17 7 -0.5 0.25
5 7 17 0.12 0.18
7 -17 -5 -0.21 0.2
17 7 -5 0.14 0.21
5 17 -7 -0.16 0.29
-17 5 -7 0.07 0.12
7 -5 17 -0.26 0.22
-17 -5 7 -0.02 0.21
-17 -7 -5 -0.12 0.13
5 -17 7 -0.27 0.24
-7 -17 -6 -0.15 0.21
6 -17 -7 -0.42 0.19
7 -17 6 0.19 0.25
7 17 -6 -0.17 0.29
6 17 7 0.13 0.27
-17 -7 6 -0.06 0.23
-7 17 6 -0.24 0.24
7 6 17 -0.22 0.17
7 6 17 0.13 0.17
17 -6 7 -0.01 0.09
-6 17 -7 0.07 0.27
-6 7 17 0.15 0.2
-17 6 7 -0.15 0.17
6 7 -17 -0.2 0.24
-7 6 -17 0.07 0.2
6 -7 17 0.15 0.23
-6 -17 7 -0.25 0.25
-17 7 -6 -0.24 0.17
17 7 6 -0.29 0.12
-7 -6 17 -0.08 0.26
17 6 -7 0.01 0.22
-6 -17 -7 -0.14 0.2
6 -17 7 -0.04 0.23
7 -17 -6 0.13 0.21
-17 7 6 -0.13 0.17
-17 -6 7 -0.18 0.23
17 -7 6 -0.12 0.11
6 7 17 0.31 0.18
6 17 -7 0.09 0.28
-7 6 17 0.03 0.19
7 -6 17 -0.05 0.23
7 6 -17 -0.14 0.22
-6 -7 17 -0.12 0.28
-6 7 -17 -0.09 0.2
-17 -7 -6 0.03 0.12
-6 17 7 0.18 0.26
-7 -17 6 0.05 0.27
-7 17 -6 0.29 0.26
7 17 6 -0.22 0.26
-7 6 17 0.16 0.19
-17 6 -7 0.11 0.15
17 7 -6 -0.08 0.21
-7 7 17 -0.09 0.2
-7 7 17 0.21 0.24
-7 -17 -7 0.19 0.21
-17 -7 -7 0 0.1
17 7 7 0.02 0.11
7 -17 -7 -0.16 0.19
7 -17 7 0.27 0.24
7 17 7 -0.15 0.27
17 -7 7 0.05 0.12
-17 -7 7 0.48 0.24
7 -7 17 0.01 0.24
-17 7 -7 -0.24 0.16
7 7 -17 0.23 0.26
7 7 17 0.1 0.18
-7 -7 17 0.09 0.28
-7 7 -17 0.23 0.21
-17 7 7 -0.14 0.18
7 17 -7 0.25 0.27
-7 -17 7 -0.12 0.27
-7 17 -7 0.16 0.28
-7 17 7 0.05 0.26
17 7 -7 0.09 0.23
0 17 8 1.41 0.3
-17 0 8 1.13 0.24
0 -17 8 0.89 0.27
17 -8 0 1.08 0.18
0 -8 17 1.18 0.3
0 8 -17 1.13 0.27
0 8 17 1.47 0.24
0 17 -8 0.99 0.32
-17 8 0 1.24 0.22
-8 -17 0 0.95 0.27
-8 0 17 1.6 0.22
0 -17 -8 1.31 0.24
0 -8 -17 1.47 0.21
8 -17 0 1.25 0.26
8 0 17 1.27 0.23
17 8 0 1.69 0.23
-17 -8 0 0.99 0.24
-8 17 0 1.23 0.29
8 0 17 1.17 0.18
-17 0 8 1.27 0.2
-8 0 17 1.36 0.29
8 17 0 1.24 0.32
-1 17 -8 0.97 0.3
-17 8 -1 0.47 0.19
-1 -8 -17 0.67 0.18
-17 1 8 0.5 0.21
1 17 8 0.7 0.27
17 -8 -1 0.91 0.17
-8 -17 -1 0.49 0.25
-17 1 8 0.72 0.18
8 -17 1 0.6 0.24
8 17 -1 0.48 0.27
17 8 1 0.49 0.2
8 1 17 1.1 0.17
-8 17 1 0.78 0.27
-8 -1 17 0.95 0.29
-8 -1 17 0.88 0.21
-1 -17 8 0.63 0.28
1 -8 17 0.58 0.27
-1 8 17 0.89 0.24
1 8 -17 0.87 0.25
1 -17 -8 0.54 0.22
8 1 17 1.29 0.2
-17 -8 1 0.56 0.23
-1 -8 17 0.5 0.28
-8 17 -1 0.77 0.28
-17 -8 -1 0.28 0.21
-8 -17 1 0.55 0.27
17 8 -1 0.5 0.21
8 -17 -1 0.29 0.23
1 -17 8 1 0.28
8 -1 17 1.07 0.16
8 17 1 0.47 0.28
-17 -1 8 1.17 0.18
1 8 17 0.68 0.21
1 17 -8 0.39 0.3
-1 17 8 0.24 0.27
-8 1 17 0.68 0.27
1 -8 -17 1.39 0.2
-1 -17 -8 1 0.23
-1 8 -17 0.6 0.26
-17 8 1 0.59 0.2
-17 -1 8 0.63 0.22
-8 1 17 0.87 0.2
8 -1 17 0.79 0.22
17 -8 1 0.71 0.16
-8 -2 17 0.23 0.25
-2 -8 -17 0.06 0.26
2 -17 -8 0.05 0.19
-17 2 8 -0.07 0.19
8 2 17 0.21 0.19
17 8 2 -0.08 0.18
-8 17 2 -0.01 0.27
-2 8 17 0.06 0.21
8 -17 2 0.49 0.22
8 17 -2 -0.18 0.27
2 -8 17 -0.17 0.26
2 8 -17 -0.02 0.23
-17 -8 2 -0.01 0.23
-8 -17 -2 0.17 0.24
2 17 8 -0.15 0.27
-17 2 8 0.06 0.17
-2 17 -8 -0.3 0.27
-2 -17 8 0.09 0.28
-17 8 -2 0.37 0.19
8 2 17 0.25 0.15
17 -8 -2 0.05 0.15
2 17 -8 0.73 0.29
8 -2 17 0.12 0.13
17 8 -2 0.22 0.22
-8 17 -2 0.55 0.28
8 -17 -2 -0.08 0.22
2 -17 8 -0.09 0.25
8 -2 17 0.19 0.21
-2 -8 17 0.05 0.28
-17 8 2 0.18 0.18
-8 -17 2 0.38 0.25
-17 -2 8 -0.31 0.21
2 -8 -17 0.17 0.18
-8 2 17 0.21 0.25
17 -8 2 -0.22 0.14
-2 8 -17 0.1 0.25
8 17 2 0.32 0.27
-17 -8 -2 0.29 0.19
-17 -2 8 0.02 0.15
-8 2 17 0.02 0.19
-2 -17 -8 0.06 0.21
2 8 17 -0.12 0.29
-2 17 8 -0.2 0.27
-3 8 17 1.02 0.23
-8 -3 17 1.19 0.29
8 3 17 1.49 0.19
-3 -8 -17 1.5 0.2
3 8 -17 0.83 0.25
-17 3 8 1.29 0.2
8 -17 3 0.81 0.26
3 17 8 0.81 0.29
-8 17 3 1.04 0.29
-8 -17 -3 1.18 0.27
3 -17 -8 1.26 0.23
-3 17 -8 0.83 0.3
8 3 17 1.1 0.22
3 -8 17 0.63 0.35
8 17 -3 0.99 0.31
-3 -17 8 1.28 0.29
17 -8 -3 1.22 0.19
-17 8 -3 0.95 0.21
-17 3 8 1.15 0.22
-17 -8 3 0.98 0.24
17 8 3 1.19 0.19
-3 -17 -8 1.2 0.23
3 -17 8 1.11 0.27
-3 -8 17 1.38 0.3
-17 8 3 0.85 0.21
-8 3 17 0.98 0.21
-3 17 8 1.53 0.3
17 -8 3 1.11 0.17
-8 3 17 1.1 0.26
3 17 -8 1.04 0.32
3 8 17 1.11 0.23
8 -17 -3 1.36 0.24
-8 17 -3 1.16 0.29
-17 -3 8 1.08 0.23
8 17 3 0.85 0.28
-17 -8 -3 1.04 0.21
-8 -17 3 0.71 0.27
17 8 -3 1.13 0.23
8 -3 17 1.02 0.24
-17 4 8 0.32 0.18
17 8 4 0.23 0.16
8 17 -4 0.25 0.27
4 17 8 0.29 0.27
-4 17 -8 -0.16 0.27
8 -17 4 0.14 0.24
8 4 17 0.23 0.19
-8 4 -17 0.36 0.18
17 -8 -4 0.05 0.15
4 -8 17 0.31 0.28
4 8 -17 0.24 0.25
-4 -17 8 -0.1 0.24
-17 4 8 0.2 0.17
8 4 17 0.17 0.17
-8 -4 17 0.05 0.25
-17 -8 4 0.12 0.23
-17 8 -4 0.01 0.18
-4 -8 -17 0.52 0.16
-8 -17 -4 0.04 0.23
-8 17 4 0.61 0.27
4 -17 -8 0.33 0.21
-4 8 17 -0.18 0.21
-8 4 17 0.16 0.21
-8 17 -4 -0.18 0.27
-4 -8 17 0.53 0.26
-4 8 -17 0.44 0.23
-4 17 8 0.04 0.26
17 -8 4 0.23 0.14
17 8 -4 -0.03 0.21
-17 -4 8 0.48 0.23
8 17 4 0.11 0.26
-8 -17 4 0.32 0.26
4 -17 8 0.08 0.25
-4 -17 -8 -0.01 0.2
-17 -8 -4 0.24 0.17
8 -4 17 0.21 0.22
8 4 -17 0.11 0.22
-17 8 4 0.27 0.19
4 8 17 0.22 0.19
8 -17 -4 0.03 0.2
4 17 -8 0.13 0.29
-8 4 17 0.09 0.19
8 17 -5 0.45 0.3
-8 -5 17 -0.13 0.24
-8 5 -17 0.08 0.18
8 5 17 0.07 0.17
-17 5 8 -0.13 0.19
5 8 -17 -0.13 0.25
17 8 5 -0.05 0.15
17 -8 -5 -0.08 0.15
5 -17 -8 0.24 0.19
-17 -8 5 0.19 0.23
8 5 17 0.03 0.16
-5 17 -8 -0.19 0.26
-8 17 5 0.07 0.26
8 -17 5 0.36 0.25
17 5 -8 0.14 0.22
-5 8 17 0.14 0.19
5 -8 17 0.4 0.25
-17 8 -5 0.2 0.19
5 17 8 -0.36 0.26
-17 5 8 -0.05 0.17
-8 -17 -5 0.02 0.22
-5 -17 8 -0.08 0.25
-17 -8 -5 -0.1 0.15
5 8 17 -0.07 0.2
5 17 -8 0.35 0.27
17 -8 5 0.2 0.14
-8 17 -5 -0.15 0.26
8 5 -17 0.14 0.24
8 -17 -5 0.01 0.2
5 -17 8 -0.06 0.25
-17 8 5 -0.11 0.18
8 -5 17 0.2 0.21
-5 17 8 0.05 0.26
-8 5 17 0 0.21
-8 -17 5 -0.1 0.26
8 17 5 -0.07 0.26
-17 -5 8 0.33 0.24
-5 -8 17 0.12 0.26
-5 8 -17 0.27 0.22
-8 5 17 -0.14 0.18
-5 -17 -8 0.23 0.21
17 8 -5 0.04 0.22
6 -17 -8 -0.3 0.2
-17 -8 6 0.35 0.24
8 6 17 0.27 0.18
17 6 -8 0.08 0.29
-8 -6 17 0.13 0.25
-6 -17 8 0.21 0.26
8 17 -6 0.23 0.27
17 8 6 0.1 0.15
-6 17 -8 0.3 0.27
-8 -17 -6 0.05 0.21
-17 6 8 0.31 0.24
17 -6 8 0.19 0.09
6 8 -17 0.09 0.25
-17 8 -6 0.17 0.19
-8 6 -17 0.3 0.2
6 -8 17 0.48 0.24
6 17 8 -0.1 0.27
-17 6 8 0.03 0.36
8 -17 6 0.24 0.25
8 6 17 0.37 0.19
17 -8 -6 0.23 0.16
-8 17 6 0.23 0.25
-6 8 17 0.21 0.21
-8 6 17 0.26 0.23
-17 8 6 0.19 0.19
8 6 -17 0.62 0.25
-17 6 -8 0.27 0.14
8 17 6 0.75 0.28
-6 8 -17 0.33 0.22
-6 17 8 0.14 0.27
17 -8 6 0.09 0.13
-17 -6 8 0.21 0.29
-6 -17 -8 0.22 0.22
6 -17 8 0.16 0.26
6 17 -8 0.39 0.28
-8 6 17 0.07 0.2
8 -6 17 0.26 0.24
6 8 17 0.29 0.19
-8 17 -6 0.08 0.27
-6 -8 17 -0.26 0.27
17 8 -6 0.21 0.24
-17 -8 -6 0.15 0.14
8 -17 -6 0.33 0.2
-8 -17 6 0.39 0.26
-8 17 7 0.08 0.26
7 8 -17 0.09 0.25
7 17 8 -0.22 0.27
8 17 -7 0.25 0.3
17 -8 -7 0.16 0.17
-17 7 8 -0.01 0.2
-8 7 -17 0.34 0.21
17 7 -8 0.26 0.25
-7 17 -8 -0.07 0.27
-17 -7 -8 0.12 0.09
-17 -8 7 0.02 0.35
8 7 17 0.28 0.19
8 7 17 0.32 0.19
7 -17 -8 -0.16 0.21
17 -7 8 0.11 0.11
-8 -7 17 0.37 0.27
-7 8 17 0.15 0.21
8 -17 7 0.12 0.26
17 8 7 0.1 0.14
-7 -17 8 0.23 0.28
-8 -17 -7 0.14 0.22
7 -8 17 0 0.24
-17 8 -7 0.04 0.19
7 -17 8 -0.05 0.25
-17 -8 -7 0.18 0.13
7 17 -8 0.07 0.3
7 8 17 0.02 0.19
8 17 7 0 0.28
-8 7 17 0.24 0.2
17 -8 7 0.4 0.13
17 8 -7 0.34 0.35
-8 -17 7 -0.16 0.27
-17 8 7 0.22 0.23
-8 7 17 -0.06 0.22
-17 7 -8 0.61 0.18
8 -7 17 0.11 0.23
-7 -8 17 0.16 0.27
-7 8 -17 0.26 0.23
-7 17 8 0.1 0.26
-8 17 -7 0.12 0.28
-17 -7 8 0.05 0.26
8 -17 -7 0.09 0.21
-7 -17 -8 0.3 0.22
17 7 8 0.16 0.1
8 7 -17 0.22 0.25
-8 17 -8 -0.3 0.28
-8 17 8 -0.11 0.25
-8 -17 -8 -0.13 0.22
8 -17 8 -0.2 0.25
8 -8 17 -0.08 0.24
8 8 -17 -0.22 0.24
8 8 17 -0.02 0.21
8 17 -8 -0.09 0.28
-17 -8 8 -0.45 0.25
-17 -8 -8 -0.18 0.12
17 8 -8 0.08 0.25
17 8 8 -0.14 0.14
-8 -8 17 -0.11 0.26
-8 8 17 -0.19 0.2
8 17 8 0.1 0.28
17 -8 8 -0.23 0.13
-8 -17 8 0.01 0.28
8 -17 -8 -0.17 0.19
-8 8 -17 -0.55 0.22
-17 8 8 0.06 0.2
-17 8 -8 -0.13 0.19
0 9 -17 0.33 0.25
-9 -17 0 0.34 0.25
-17 0 9 0 0.21
0 17 9 0.24 0.28
-9 17 0 -0.23 0.26
0 17 -9 0.18 0.3
-9 0 17 0.04 0.24
17 9 0 0.05 0.21
-17 0 9 0.12 0.17
-17 9 0 0.5 0.21
9 0 17 0.18 0.2
0 -9 17 0.25 0.28
9 -17 0 0.2 0.23
9 17 0 0 0.27
0 9 17 0.33 0.22
0 -17 9 0.28 0.28
9 0 17 0.23 0.15
-9 0 17 0.12 0.18
0 -17 -9 0.16 0.21
0 -9 -17 0.33 0.18
17 -9 0 0.11 0.16
-17 -9 0 0.03 0.23
-1 -9 -17 -0.16 0.17
1 17 9 0.39 0.28
1 9 -17 0.52 0.25
-9 17 1 -0.41 0.26
-17 9 -1 0.02 0.2
-1 17 -9 -0.1 0.28
9 -17 1 -0.23 0.23
1 -17 -9 -0.17 0.2
-17 1 9 -0.03 0.21
17 -9 -1 -0.01 0.15
9 17 -1 -0.14 0.28
-17 -9 1 -0.06 0.22
-9 -17 -1 -0.22 0.25
9 1 17 -0.04 0.19
9 1 17 0.07 0.14
-1 -17 9 -0.26 0.27
-1 9 17 0.11 0.21
17 9 1 -0.23 0.19
1 -9 17 -0.07 0.25
-9 -1 17 -0.48 0.26
-17 1 9 -0.12 0.16
-9 -1 17 -0.05 0.18
-17 9 1 -0.1 0.2
-17 -9 -1 -0.1 0.22
-9 1 17 -0.04 0.18
1 -9 -17 -0.05 0.18
9 17 1 -0.02 0.29
9 -1 17 -0.16 0.14
-9 -17 1 -0.03 0.26
-9 17 -1 -0.1 0.27
-17 -1 9 -0.07 0.21
17 -9 1 0.07 0.16
-1 17 9 -0.29 0.26
-17 -1 9 -0.06 0.16
1 -17 9 -0.22 0.27
1 17 -9 0.01 0.31
9 -17 -1 -0.5 0.22
9 -1 17 -0.22 0.2
17 9 -1 0.09 0.22
-9 1 17 -0.33 0.24
-1 -9 17 0.5 0.29
-1 9 -17 -0.17 0.23
-1 -17 -9 -0.08 0.2
1 9 17 0.28 0.2
9 -17 2 0.23 0.22
-17 2 9 -0.13 0.3
17 -9 -2 0.16 0.16
9 2 17 -0.28 0.18
-9 -2 17 0.15 0.25
-17 2 9 -0.06 0.19
9 2 17 -0.07 0.15
-17 9 -2 0.38 0.2
-9 17 2 0.26 0.28
-2 -17 9 -0.04 0.27
-2 17 -9 0.27 0.29
2 17 9 0.07 0.27
2 -17 -9 0.25 0.2
-9 -2 17 -0.05 0.19
2 -9 17 0.26 0.27
17 9 2 -0.03 0.19
2 9 -17 -0.25 0.24
-17 -9 2 0.07 0.23
-2 9 17 0.26 0.21
-9 -17 -2 -0.12 0.25
9 17 -2 0.14 0.29
-2 -9 -17 -0.02 0.17
2 -17 9 -0.02 0.25
9 -2 17 0.04 0.14
-9 2 17 0.21 0.2
-17 9 2 0.06 0.19
-17 -9 -2 0.12 0.2
-9 -17 2 -0.37 0.26
2 9 17 0.27 0.21
-9 2 17 -0.07 0.23
-9 17 -2 -0.27 0.28
-2 -17 -9 -0.08 0.21
-17 -2 9 0.03 0.15
-2 -9 17 0.1 0.28
-2 9 -17 0.35 0.24
2 17 -9 0.54 0.3
9 -2 17 -0.14 0.2
-2 17 9 0.22 0.27
17 -9 2 0.02 0.15
9 17 2 -0.04 0.27
17 9 -2 0.15 0.22
9 -17 -2 0.15 0.22
-17 -2 9 0.03 0.24
2 -9 -17 0.18 0.18
9 -17 3 0.36 0.24
3 17 9 0.03 0.26
3 9 -17 -0.17 0.27
9 3 17 0.14 0.15
17 9 3 0.16 0.19
17 -9 -3 0.01 0.16
9 3 17 0.14 0.18
9 17 -3 -0.32 0.28
-17 -9 3 -0.01 0.24
3 -17 -9 0.02 0.19
-9 17 3 -0.36 0.26
-17 9 -3 0.05 0.19
3 -9 17 -0.26 0.25
-9 -3 17 -0.05 0.26
-3 9 17 -0.22 0.2
-3 17 -9 -0.03 0.27
-3 -9 -17 0.13 0.17
-9 -17 -3 -0.06 0.24
-3 -17 9 -0.01 0.27
-9 3 17 0.2 0.23
17 -9 3 0.03 0.15
-3 9 -17 0.26 0.24
-17 -9 -3 -0.35 0.19
-9 3 17 0.12 0.2
-17 -3 9 0.15 0.33
-9 17 -3 -0.13 0.27
-3 -9 17 0.3 0.27
3 -9 -17 0.11 0.18
-3 -17 -9 0.05 0.2
9 17 3 0.01 0.27
-9 -17 3 -0.02 0.27
-17 9 3 -0.1 0.19
9 -17 -3 0.03 0.21
9 -3 17 -0.02 0.2
-3 17 9 -0.33 0.27
3 17 -9 -0.17 0.26
3 -17 9 -0.08 0.26
3 9 17 0.07 0.22
17 9 -3 -0.09 0.22
17 9 4 0.01 0.18
-9 17 4 -0.04 0.25
-17 4 9 -0.19 0.19
9 -17 4 0 0.23
-9 -4 17 -0.2 0.24
-9 4 -17 -0.05 0.18
4 -17 -9 -0.1 0.2
9 4 17 0.1 0.16
-4 -17 9 0.12 0.26
-4 17 -9 -0.28 0.28
4 9 -17 0.1 0.24
-4 -9 -17 0.1 0.21
4 17 9 0.38 0.28
-4 9 17 0 0.22
4 -9 17 0.35 0.26
-17 9 -4 0 0.2
9 4 17 -0.2 0.17
-17 4 9 -0.15 0.19
17 -9 -4 0.07 0.16
-17 -9 4 0.04 0.23
9 17 -4 -0.1 0.29
-17 -9 -4 -0.48 0.17
4 9 17 -0.25 0.26
9 -17 -4 -0.21 0.2
-9 -17 4 -0.48 0.24
17 -9 4 0.02 0.15
-9 4 17 0 0.2
4 -17 9 -0.1 0.26
9 4 -17 -0.09 0.24
4 -9 -17 -0.02 0.17
9 -4 17 0.01 0.21
-17 -4 9 -0.1 0.4
-17 9 4 0.09 0.19
4 17 -9 0.07 0.28
-4 -17 -9 0.37 0.2
-9 4 17 0.02 0.24
-9 17 -4 -0.21 0.26
-4 -9 17 -0.14 0.25
-4 9 -17 0.19 0.23
17 9 -4 -0.21 0.22
-4 17 9 -0.01 0.27
-9 17 5 -0.05 0.26
-5 -17 9 0.33 0.27
-17 5 9 0.12 0.18
5 17 9 0.33 0.28
-5 -9 -17 0.02 0.16
-17 -9 5 -0.1 0.23
-5 9 17 0.31 0.22
17 9 5 0.01 0.17
5 9 -17 -0.02 0.22
17 5 -9 0.07 0.23
-17 5 9 0.15 0.2
-9 -5 17 -0.15 0.24
-9 5 -17 0.09 0.18
9 5 17 0.03 0.16
17 -9 -5 0.08 0.16
5 -17 -9 0.12 0.22
-17 9 -5 -0.01 0.2
-5 17 -9 -0.38 0.28
-9 -17 -5 0.09 0.22
9 5 17 -0.01 0.17
9 17 -5 0.39 0.29
9 -17 5 0.56 0.25
-5 -17 -9 -0.11 0.21
9 17 5 0.15 0.27
17 9 -5 -0.21 0.24
-17 9 5 0.16 0.21
17 -9 5 0.06 0.14
5 9 17 0.15 0.2
5 17 -9 0.16 0.28
9 -17 -5 0.06 0.21
9 -5 17 -0.06 0.22
9 5 -17 0.16 0.22
5 -9 -17 -0.09 0.18
-5 17 9 0.12 0.26
-9 5 17 0.12 0.19
-5 -9 17 0.15 0.27
-17 -9 -5 0.1 0.16
-17 -5 9 0.08 0.24
-9 17 -5 0.18 0.27
-9 5 17 0.01 0.21
-9 -17 5 0.09 0.28
5 -17 9 0.14 0.26
-9 -17 -6 -0.42 0.21
-9 -6 17 0.17 0.26
9 6 17 0.07 0.17
17 -9 -6 -0.14 0.2
-6 17 -9 -0.1 0.28
-9 6 -17 -0.1 0.19
-6 -17 9 0.09 0.28
9 -17 6 0.12 0.25
-9 17 6 -0.03 0.26
-6 9 17 -0.08 0.23
-17 9 -6 -0.06 0.2
9 17 -6 -0.4 0.28
6 -9 17 -0.16 0.24
6 9 -17 0.13 0.23
-17 6 9 0.01 0.2
-17 -9 6 0.16 0.25
17 -6 9 0.07 0.09
17 6 -9 0.21 0.24
17 9 6 0.09 0.16
9 6 17 -0.17 0.17
-6 -9 -17 0.14 0.16
6 -17 -9 -0.18 0.19
6 17 9 0.38 0.27
-17 6 9 0.23 0.19
-17 -6 9 -0.1 0.24
-6 9 -17 0.2 0.22
-9 -17 6 -0.05 0.25
-9 17 -6 -0.01 0.28
17 9 -6 -0.14 0.23
9 17 6 0.41 0.27
6 -9 -17 -0.09 0.18
-17 9 6 -0.3 0.37
-17 -9 -6 0.07 0.15
-9 6 17 -0.16 0.2
-6 -17 -9 -0.32 0.2
-9 6 17 0.12 0.22
6 17 -9 -0.02 0.28
6 -17 9 -0.15 0.26
9 6 -17 -0.1 0.25
-6 -9 17 -0.25 0.28
9 -6 17 -0.01 0.22
9 -17 -6 0.1 0.2
17 -9 6 -0.06 0.15
6 9 17 -0.14 0.2
-6 17 9 0.08 0.26
-17 6 -9 -0.19 0.13
9 17 -7 -0.15 0.29
9 7 17 -0.03 0.18
-9 17 7 0 0.27
17 9 7 -0.14 0.17
17 7 -9 0.16 0.24
9 -17 7 -0.33 0.24
-17 -9 7 -0.19 0.25
9 7 17 -0.1 0.2
17 -9 -7 -0.17 0.17
7 -9 17 0.06 0.26
-7 -17 9 0.1 0.29
-7 9 17 -0.33 0.22
-17 7 9 0 0.2
-17 9 -7 -0.12 0.21
-9 7 -17 -0.29 0.2
-7 17 -9 0.07 0.29
7 17 9 -0.37 0.27
7 -17 -9 -0.1 0.18
-7 -9 -17 -0.13 0.16
17 -7 9 -0.03 0.12
-9 -17 -7 -0.33 0.22
7 9 -17 0.11 0.25
-9 -7 17 -0.24 0.27
-17 -7 9 -0.12 0.26
-7 17 9 -0.06 0.24
9 -7 17 -0.01 0.23
7 -17 9 -0.38 0.26
-7 9 -17 -0.11 0.22
-17 -9 -7 -0.08 0.15
-7 -9 17 -0.15 0.29
9 -17 -7 0.18 0.21
9 7 -17 -0.05 0.23
7 -9 -17 -0.27 0.18
-9 7 17 -0.13 0.2
-9 17 -7 -0.08 0.28
-17 7 -9 -0.15 0.15
-7 -17 -9 -0.27 0.21
9 17 7 -0.12 0.27
17 -9 7 0.12 0.15
-17 9 7 -0.39 0.2
7 9 17 0.16 0.21
-9 -17 7 -0.28 0.26
7 17 -9 -0.02 0.28
17 9 -7 -0.34 0.24
-9 7 17 -0.27 0.21
17 9 8 -0.1 0.17
-17 9 -8 -0.4 0.2
9 8 17 -0.19 0.21
-8 17 -9 -0.27 0.28
9 -17 8 -0.13 0.27
-9 17 8 0.46 0.28
-17 -9 8 0.05 0.25
8 17 9 -0.17 0.28
-8 -17 9 -0.08 0.28
17 -9 -8 -0.28 0.17
8 -9 17 -0.15 0.25
9 17 -8 -0.36 0.29
-17 -8 -9 -0.19 0.11
-9 -8 17 -0.54 0.27
8 -17 -9 -0.22 0.2
8 9 -17 -0.03 0.27
-17 8 9 -0.05 0.2
-9 -17 -8 -0.23 0.22
-8 -9 -17 -0.18 0.16
17 -8 9 -0.37 0.14
-9 8 -17 0.09 0.22
-8 9 17 -0.1 0.23
17 8 -9 -0.21 0.25
17 8 9 -0.2 0.14
-9 8 17 -0.05 0.2
-8 -9 17 -0.26 0.28
9 -8 17 -0.01 0.25
-9 -17 8 -0.14 0.28
-8 17 9 -0.37 0.26
-8 -17 -9 -0.09 0.21
-17 9 8 -0.42 0.21
17 9 -8 0.09 0.26
9 17 8 -0.43 0.28
17 -9 8 -0.12 0.15
8 17 -9 0.05 0.3
9 -17 -8 -0.25 0.19
8 9 17 0.02 0.22
-17 -9 -8 -0.11 0.13
-8 9 -17 -0.22 0.22
-17 -8 9 -0.17 0.25
-9 17 -8 -0.11 0.29
9 8 -17 -0.17 0.25
8 -17 9 -0.04 0.26
-17 8 -9 -0.4 0.18
17 9 9 -0.23 0.17
17 9 -9 -0.17 0.27
-9 9 17 -0.36 0.23
-17 9 9 0.11 0.23
9 17 9 0.15 0.3
17 -9 -9 0.07 0.19
17 -9 9 0.3 0.16
-17 -9 -9 -0.21 0.13
-9 -17 -9 0 0.22
-17 9 -9 0.05 0.21
-9 17 -9 -0.18 0.28
9 -17 9 -0.21 0.27
9 9 17 -0.32 0.21
-17 -9 9 -0.07 0.27
9 -9 17 -0.08 0.25
9 9 -17 -0.15 0.28
-9 -9 -17 -0.19 0.16
9 -17 -9 0.2 0.19
9 17 -9 0.23 0.31
-9 -9 17 -0.54 0.29
-9 17 9 -0.01 0.27
-9 -17 9 -0.24 0.3
-9 9 -17 -0.41 0.21
-10 -17 0 0.68 0.28
-17 0 10 0.4 0.24
-10 0 17 0.78 0.21
-10 17 0 0.9 0.29
0 -17 -10 0.63 0.22
0 -17 10 0.81 0.28
10 -17 0 0.55 0.25
0 -10 -17 1.08 0.2
-17 0 10 0.62 0.19
-17 10 0 0.69 0.23
0 17 -10 0.54 0.3
17 10 0 0.46 0.23
0 -10 17 0.5 0.29
0 10 -17 0.87 0.28
10 0 17 0.77 0.16
-17 -10 0 0.36 0.24
0 10 17 0.44 0.23
10 0 17 0.61 0.2
10 17 0 0.44 0.29
17 -10 0 0.68 0.18
0 17 10 0.58 0.28
-10 0 17 0.51 0.26
-10 -1 17 0.09 0.26
-17 10 -1 0.56 0.23
1 10 -17 0.42 0.24
17 -10 -1 0.45 0.18
10 1 17 0.42 0.15
-10 -1 17 0.3 0.19
-1 10 17 0.25 0.22
-17 1 10 0.26 0.23
-17 -10 1 0.67 0.25
10 1 17 0.16 0.19
1 -10 17 0.47 0.27
-1 -10 -17 0.37 0.18
17 10 1 0.45 0.22
10 -17 1 0.47 0.23
-1 -17 10 0.24 0.28
10 17 -1 0.76 0.31
1 17 10 0.55 0.29
-10 -17 -1 0.45 0.26
1 -17 -10 0.56 0.22
-10 17 1 0.38 0.28
-1 17 -10 0.15 0.3
-17 1 10 0.16 0.17
10 -17 -1 0.44 0.22
17 -10 1 0.57 0.17
-1 17 10 -0.03 0.27
10 17 1 0.2 0.28
1 -17 10 0.43 0.3
17 10 -1 0.27 0.23
10 -1 17 0.39 0.14
-10 1 17 0.21 0.21
-10 -17 1 0.53 0.27
-10 1 17 0.5 0.27
1 10 17 0.09 0.23
-1 -17 -10 0.52 0.22
-17 -1 10 0.2 0.24
-1 -10 17 0.49 0.28
10 -1 17 0.02 0.2
-17 10 1 0.2 0.22
1 -10 -17 0.47 0.2
-17 -10 -1 0.6 0.23
-17 -1 10 0.46 0.17
-1 10 -17 0.23 0.26
1 17 -10 0.68 0.3
-10 17 -1 0.48 0.28
-2 17 -10 0.55 0.31
17 -10 -2 0.42 0.18
-2 -10 -17 0.93 0.19
-2 10 17 0.44 0.22
-17 2 10 0.35 0.22
17 10 2 0.36 0.21
2 10 -17 0.72 0.26
-10 17 2 0.5 0.29
-2 -17 10 0.43 0.29
-10 -2 17 0.5 0.19
-17 10 -2 0.51 0.23
2 -17 -10 0.46 0.22
-10 -2 17 0.47 0.25
-17 2 10 0.44 0.19
2 -10 17 0.57 0.29
10 -17 2 0.79 0.25
2 17 10 0.46 0.28
10 17 -2 0.5 0.29
-10 -17 -2 0.49 0.25
10 2 17 0.39 0.19
10 2 17 0.62 0.16
-17 -10 2 0.69 0.24
10 -2 17 0.65 0.15
2 10 17 0.46 0.23
-2 -17 -10 0.37 0.21
-2 10 -17 0.63 0.28
2 17 -10 0.16 0.3
2 -17 10 0.67 0.27
17 10 -2 0.61 0.24
-10 -17 2 0.35 0.28
2 -10 -17 0.83 0.19
-17 10 2 0.51 0.23
10 -2 17 0.58 0.21
-17 -10 -2 0.41 0.22
-10 2 17 0.6 0.22
-10 2 17 0.54 0.27
-10 17 -2 0.77 0.29
-17 -2 10 0.73 0.17
-17 -2 10 0.53 0.25
-2 17 10 0.46 0.28
10 17 2 0.48 0.29
10 -17 -2 0.52 0.22
17 -10 2 0.46 0.17
-2 -10 17 0.13 0.29
3 -10 17 0.07 0.26
-10 -17 -3 0.04 0.24
-17 -10 3 0.32 0.25
10 17 -3 0.41 0.29
17 10 3 0.25 0.19
10 3 17 0.1 0.16
17 -10 -3 0.24 0.17
-3 -17 10 0.18 0.28
10 -17 3 0.3 0.22
-17 10 -3 0.22 0.22
-17 3 10 0.49 0.21
-3 10 17 -0.03 0.21
-17 3 10 0.25 0.17
-10 17 3 -0.04 0.26
-3 -10 -17 0.21 0.18
3 17 10 0.38 0.27
3 -17 -10 0.09 0.21
-3 17 -10 0.24 0.28
10 3 17 0.45 0.18
-10 -3 17 0.45 0.26
3 10 -17 0.16 0.25
10 17 3 0.17 0.27
-17 -10 -3 0.33 0.21
3 -17 10 0.13 0.26
-17 -3 10 0.19 0.16
-17 10 3 0.14 0.2
10 -17 -3 0.14 0.21
3 -10 -17 0.37 0.19
3 17 -10 0.27 0.3
17 -10 3 0.25 0.16
3 10 17 0.17 0.2
-3 10 -17 0.31 0.24
-17 -3 10 0.34 0.25
-3 17 10 0.36 0.27
-10 -17 3 0.1 0.26
-3 -10 17 0.25 0.29
-10 17 -3 0.26 0.27
10 -3 17 0.53 0.14
17 10 -3 0.05 0.23
-10 3 17 0.44 0.25
-10 3 17 0.1 0.21
-3 -17 -10 0.15 0.21
10 -3 17 0.02 0.21
-4 10 17 0.77 0.23
10 4 17 0.2 0.18
-17 4 10 0.25 0.19
-10 -17 -4 0.59 0.24
10 17 -4 0.5 0.29
10 4 17 0.79 0.17
-10 -4 17 0.3 0.26
17 -10 -4 0.57 0.18
-17 -10 4 0.58 0.26
17 10 4 0.56 0.2
4 -17 -10 0.47 0.2
-10 17 4 0.54 0.28
-4 -10 -17 0.77 0.18
4 17 10 0.32 0.27
4 -10 17 0.11 0.25
-17 10 -4 0.31 0.21
-4 17 -10 0.62 0.29
4 10 -17 0.38 0.24
10 -17 4 0.77 0.24
-17 4 10 0.77 0.22
-4 -17 10 0.36 0.29
17 -10 4 0.43 0.16
10 -4 17 0.34 0.22
-10 4 17 0.71 0.23
-17 10 4 0.53 0.21
-17 -4 10 0.62 0.25
-4 -10 17 0.57 0.28
-17 -10 -4 0.82 0.2
-4 10 -17 0.29 0.25
17 10 -4 0.1 0.24
-10 17 -4 0.4 0.27
4 -17 10 0.99 0.28
10 -17 -4 0.63 0.22
4 17 -10 0.32 0.29
-10 4 17 0.64 0.22
4 -10 -17 0.46 0.18
-4 -17 -10 0.53 0.21
10 4 -17 0.48 0.27
10 17 4 0.29 0.28
-4 17 10 0.3 0.26
-10 -17 4 0.36 0.26
4 10 17 0.27 0.22
10 5 17 -0.13 0.17
10 -17 5 -0.09 0.24
-17 5 10 0.09 0.2
-17 5 10 -0.21 0.18
-10 -17 -5 0.15 0.24
-17 10 -5 0.05 0.21
17 10 5 -0.4 0.18
-17 -10 5 -0.54 0.24
10 5 17 0.14 0.17
17 -10 -5 0.11 0.31
5 -17 -10 0.1 0.17
-5 10 17 0.01 0.21
17 5 -10 0.05 0.24
-10 5 -17 -0.23 0.18
5 17 10 -0.08 0.28
5 10 -17 0.24 0.25
10 17 -5 0.03 0.28
-10 -5 17 -0.1 0.24
-5 -17 10 0.2 0.29
-10 17 5 0.36 0.26
-5 -10 -17 0.09 0.29
-5 17 -10 -0.02 0.29
5 -10 17 -0.22 0.24
-10 17 -5 -0.12 0.27
10 17 5 0.05 0.26
-10 5 17 0.2 0.24
-5 -17 -10 -0.07 0.2
5 17 -10 0.14 0.28
-17 -5 10 0.53 0.25
-5 17 10 0.01 0.25
-17 -10 -5 0.24 0.18
10 5 -17 0.12 0.23
5 10 17 -0.02 0.37
10 -17 -5 0.01 0.2
-5 10 -17 -0.16 0.24
-5 -10 17 0.18 0.26
17 -10 5 0.37 0.16
17 10 -5 0.04 0.23
5 -17 10 0.19 0.26
5 -10 -17 -0.11 0.18
10 -5 17 0.12 0.21
-10 -17 5 -0.1 0.27
-10 5 17 -0.17 0.19
-17 -10 6 -0.16 0.27
-17 10 -6 -0.48 0.21
17 10 6 -0.34 0.19
-10 -6 17 -0.05 0.26
-10 6 -17 -0.13 0.19
-6 17 -10 0.07 0.29
10 6 17 -0.01 0.17
10 6 17 -0.16 0.18
17 -10 -6 -0.19 0.17
-6 10 17 -0.16 0.23
6 -17 -10 -0.09 0.19
17 -6 10 -0.06 0.09
6 17 10 -0.05 0.28
-6 -10 -17 -0.3 0.17
17 6 -10 -0.04 0.24
-6 -17 10 -0.06 0.29
-17 6 10 -0.36 0.19
6 -10 17 -0.1 0.26
6 10 -17 -0.34 0.26
10 17 -6 0.1 0.29
-10 17 6 -0.14 0.25
-10 -17 -6 -0.22 0.21
10 -17 6 -0.25 0.24
-17 6 10 -0.03 0.2
-17 -6 10 0 0.25
-6 -10 17 0.12 0.29
6 -17 10 0.11 0.26
6 17 -10 0.08 0.29
10 -17 -6 -0.34 0.22
-6 -17 -10 -0.07 0.21
10 17 6 -0.03 0.27
-17 10 6 -0.29 0.21
-6 17 10 -0.17 0.24
-10 -17 6 -0.32 0.27
-10 17 -6 -0.14 0.28
-10 6 17 -0.34 0.2
6 -10 -17 0 0.17
-17 6 -10 -0.02 0.12
10 -6 17 0.02 0.22
10 6 -17 -0.16 0.26
-10 6 17 0.01 0.22
17 -10 6 -0.2 0.16
6 10 17 -0.22 0.22
-6 10 -17 -0.68 0.24
17 10 -6 -0.05 0.26
-17 -10 -6 -0.02 0.16
-10 7 -17 -0.06 0.2
-17 -10 7 0.04 0.26
-17 10 -7 -0.16 0.22
17 7 -10 -0.12 0.25
-10 -17 -7 -0.32 0.22
-7 -10 -17 -0.04 0.16
-7 10 17 -0.09 0.22
-17 7 10 -0.35 0.21
10 7 17 -0.29 0.2
-7 -17 10 -0.27 0.27
7 -17 -10 -0.12 0.19
-17 7 10 0.14 0.22
17 -10 -7 -0.21 0.17
-10 -7 17 -0.19 0.28
10 -17 7 -0.21 0.26
-10 17 7 -0.09 0.26
7 17 10 -0.29 0.28
7 -10 17 -1.01 0.49
10 17 -7 -0.04 0.28
17 10 7 0.13 0.19
17 -7 10 -0.07 0.12
-7 17 -10 0.18 0.3
10 7 17 -0.3 0.17
7 10 -17 -0.06 0.25
-7 -10 17 0.11 0.27
10 -7 17 -0.46 0.23
-10 17 -7 -0.3 0.28
7 -17 10 0.18 0.27
-17 -7 10 -0.45 0.25
-10 -17 7 -0.02 0.28
-17 10 7 -0.17 0.22
-17 -10 -7 -0.21 0.16
7 -10 -17 -0.19 0.18
17 -10 7 -0.18 0.16
17 10 -7 -0.43 0.26
-10 7 17 -0.22 0.23
7 10 17 0.11 0.22
-10 7 17 -0.27 0.2
-7 -17 -10 -0.15 0.21
10 17 7 0.06 0.28
-17 7 -10 -0.02 0.15
10 7 -17 -0.18 0.23
10 -17 -7 0.04 0.19
7 17 -10 -0.32 0.3
-7 17 10 -0.06 0.26
-17 -10 8 -0.15 0.28
8 -17 -10 -0.08 0.19
10 8 17 -0.32 0.21
17 8 -10 0.08 0.26
17 -8 10 -0.01 0.14
-17 -8 -10 0 0.1
10 -17 8 0.15 0.27
10 17 -8 -0.33 0.32
-17 8 10 0.07 0.22
-17 10 -8 0.01 0.22
-8 17 -10 -0.24 0.3
8 17 10 0.23 0.29
17 10 8 0.21 0.19
-10 -8 17 0.2 0.29
-8 -10 -17 -0.01 0.17
17 -10 -8 0.06 0.19
-8 -17 10 -0.06 0.28
8 -10 17 0.11 0.27
-8 10 17 0 0.23
-10 17 8 -0.13 0.26
-10 8 -17 0.28 0.21
8 10 -17 0.3 0.27
-10 -17 -8 -0.07 0.23
-8 -17 -10 -0.12 0.22
-10 8 17 0.2 0.21
-17 8 -10 0.06 0.18
-17 -10 -8 0.09 0.16
10 -8 17 -0.1 0.24
10 8 -17 0.19 0.26
8 -17 10 0.08 0.28
-10 8 17 0.13 0.26
8 -10 -17 0.12 0.2
17 -10 8 -0.11 0.17
-8 -10 17 0.34 0.29
-8 10 -17 -0.15 0.24
-17 -8 10 -0.1 0.27
-10 -17 8 -0.34 0.29
-10 17 -8 -0.16 0.3
17 8 10 0.01 0.14
8 10 17 -0.11 0.22
10 -17 -8 0.36 0.19
-8 17 10 0.5 0.28
-17 10 8 -0.32 0.22
17 10 -8 -0.05 0.25
10 17 8 0 0.29
8 17 -10 0.24 0.31
9 -10 17 -0.17 0.26
10 -17 9 -0.04 0.28
-9 -17 10 0.22 0.29
9 10 -17 -0.04 0.27
-9 17 -10 0.55 0.32
-17 -9 -10 -0.03 0.12
-17 -10 9 0.11 0.28
9 17 10 -0.08 0.3
-10 17 9 0.29 0.28
10 17 -9 0.3 0.31
10 9 17 -0.06 0.23
17 -10 -9 0.05 0.18
-10 -17 -9 0.15 0.23
-9 -10 -17 0.22 0.17
17 10 9 0.08 0.2
9 -17 -10 0.3 0.21
17 -9 10 -0.05 0.16
17 9 -10 -0.06 0.27
-17 10 -9 0.07 0.24
-10 -9 17 -0.16 0.3
-10 9 -17 0.4 0.22
-17 9 10 -0.04 0.22
-9 10 17 0.07 0.24
9 -10 -17 -0.07 0.21
-10 -17 9 0.38 0.29
-10 17 -9 -0.25 0.29
10 -9 17 0.06 0.25
-17 9 -10 -0.16 0.2
-17 10 9 0.07 0.22
-10 9 17 -0.17 0.24
-17 -10 -9 -0.19 0.15
-17 -9 10 0.07 0.29
9 17 -10 0.24 0.29
-9 -10 17 -0.1 0.29
17 -10 9 0.13 0.18
10 9 -17 0.24 0.27
10 -17 -9 0.12 0.21
-9 -17 -10 0.26 0.23
9 10 17 0.07 0.24
17 10 -9 0.01 0.27
-9 17 10 0.59 0.27
10 17 9 0.15 0.29
17 9 10 0.02 0.17
-9 10 -17 0.09 0.24
9 -17 10 -0.1 0.27
10 17 -10 -0.12 0.3
10 17 10 0.13 0.3
17 -10 -10 0.03 0.2
10 10 17 0.06 0.24
-17 -10 -10 0.01 0.14
-17 -10 10 -0.14 0.28
-17 10 -10 -0.09 0.23
10 -17 -10 -0.08 0.21
17 10 -10 -0.19 0.27
-10 -17 10 0.31 0.29
-10 -10 -17 0.01 0.16
-10 -10 17 0.11 0.28
-10 10 -17 0.1 0.25
-10 10 17 -0.27 0.24
-17 10 10 -0.1 0.23
-10 -17 -10 0.1 0.22
-10 17 -10 -0.22 0.31
10 -10 17 -0.11 0.27
10 10 -17 -0.36 0.28
10 -17 10 0.11 0.28
17 10 10 0.02 0.19
-10 17 10 0.31 0.29
17 -10 10 0.31 0.18
0 -11 -17 0.14 0.18
11 0 17 0.08 0.19
-11 0 17 0.11 0.19
-17 0 11 0.1 0.24
17 -11 0 0.07 0.18
0 17 11 0.16 0.28
11 -17 0 0.05 0.22
11 0 17 -0.05 0.14
-11 17 0 0.15 0.27
0 17 -11 0 0.29
0 11 -17 0.17 0.26
0 11 17 -0.05 0.22
0 -17 -11 -0.04 0.22
-17 0 11 -0.02 0.19
-11 -17 0 0.03 0.27
11 17 0 0.16 0.29
0 -17 11 0.41 0.28
17 11 0 0.09 0.23
-11 0 17 -0.01 0.26
-17 -11 0 -0.17 0.24
-17 11 0 -0.27 0.23
0 -11 17 -0.46 0.28
11 -17 1 -0.37 0.23
-17 1 11 0.13 0.18
-1 17 -11 0.1 0.28
-17 1 11 -0.22 0.22
1 11 -17 -0.24 0.25
1 17 11 -0.42 0.26
17 11 1 0.28 0.22
11 1 17 -0.13 0.14
1 -11 17 -0.35 0.26
-1 11 17 -0.23 0.22
1 -17 -11 0.26 0.21
-17 11 -1 0 0.22
-17 -11 1 0.11 0.24
-11 -1 17 0.05 0.19
17 -11 -1 0.03 0.17
-1 -11 -17 -0.01 0.18
-11 -1 17 -0.03 0.28
-11 -17 -1 -0.15 0.24
11 1 17 -0.17 0.18
11 17 -1 -0.5 0.29
-11 17 1 -0.23 0.27
-1 -17 11 -0.15 0.27
1 -11 -17 0 0.18
17 -11 1 0.07 0.18
-17 -1 11 -0.15 0.24
-11 1 17 -0.38 0.18
-17 11 1 -0.19 0.23
-1 17 11 -0.17 0.26
-1 -11 17 0.04 0.28
-11 1 17 -0.14 0.26
-1 -17 -11 0.06 0.21
1 11 17 -0.03 0.22
1 -17 11 -0.61 0.26
11 17 1 -0.22 0.28
17 11 -1 0.08 0.24
-11 17 -1 0.21 0.28
11 -17 -1 -0.17 0.21
-11 -17 1 -0.03 0.26
-1 11 -17 -0.34 0.25
1 17 -11 -0.21 0.29
11 -1 17 0.01 0.19
-17 -11 -1 -0.01 0.23
11 -1 17 -0.01 0.14
-17 -1 11 -0.18 0.16
-2 11 17 0.08 0.23
-17 2 11 -0.09 0.18
-17 11 -2 0.13 0.23
-2 17 -11 0.17 0.29
-11 -2 17 0.14 0.27
11 -17 2 0.04 0.22
2 -11 17 -0.19 0.25
-17 -11 2 0.04 0.25
11 17 -2 -0.42 0.29
17 11 2 -0.26 0.21
2 17 11 -0.08 0.27
-17 2 11 -0.17 0.22
17 -11 -2 -0.08 0.18
2 -17 -11 0.08 0.21
-2 -11 -17 -0.16 0.18
11 2 17 0.16 0.17
-11 -2 17 -0.09 0.19
-11 17 2 -0.24 0.27
-11 -17 -2 -0.05 0.25
2 11 -17 -0.27 0.27
11 2 17 -0.12 0.15
-2 -17 11 0.1 0.27
-17 -2 11 -0.03 0.25
2 -17 11 -0.04 0.27
11 17 2 0.06 0.27
-2 17 11 -0.28 0.25
-11 17 -2 -0.2 0.26
-17 11 2 0.15 0.22
11 -2 17 0.16 0.2
-17 -2 11 -0.02 0.17
2 17 -11 -0.16 0.27
-11 2 17 -0.01 0.19
-2 11 -17 -0.03 0.23
-2 -11 17 0.03 0.28
-2 -17 -11 -0.2 0.19
-17 -11 -2 -0.2 0.22
-11 -17 2 -0.17 0.25
2 -11 -17 -0.14 0.18
2 11 17 -0.25 0.22
11 -17 -2 -0.11 0.22
17 11 -2 0.32 0.23
17 -11 2 -0.26 0.16
11 -2 17 -0.1 0.13
-11 2 17 0.05 0.23
17 -11 -3 0.04 0.17
11 3 17 -0.22 0.15
11 -17 3 -0.31 0.22
11 3 17 0.02 0.17
-3 11 17 0.04 0.22
-17 11 -3 -0.04 0.21
-17 3 11 -0.15 0.23
-11 17 3 0.13 0.26
-11 -17 -3 -0.18 0.23
3 17 11 -0.27 0.26
-17 -11 3 0.11 0.24
-3 17 -11 0.18 0.29
-11 -3 17 0.11 0.28
-3 -17 11 -0.15 0.27
3 -17 -11 0.01 0.19
11 17 -3 -0.01 0.29
3 11 -17 -0.06 0.25
-3 -11 -17 0.17 0.18
3 -11 17 0.16 0.25
17 11 3 0.04 0.21
-17 3 11 0.02 0.17
-11 -17 3 0.15 0.26
3 17 -11 -0.39 0.28
-11 3 17 0.23 0.19
17 11 -3 -0.36 0.23
-17 -3 11 0.27 0.24
17 -11 3 0 0.16
-3 -17 -11 -0.08 0.2
-3 17 11 0.07 0.24
-3 11 -17 0.29 0.25
11 17 3 -0.23 0.28
11 -17 -3 -0.12 0.2
-11 17 -3 0.17 0.27
-17 11 3 -0.31 0.22
3 -11 -17 -0.07 0.18
-11 3 17 -0.16 0.25
11 -3 17 -0.19 0.2
3 11 17 -0.03 0.22
3 -17 11 -0.03 0.26
11 -3 17 0.02 0.12
-3 -11 17 -0.25 0.28
-17 -11 -3 -0.07 0.2
-17 -3 11 -0.17 0.16
-17 11 -4 0.05 0.22
11 4 17 -0.2 0.16
4 -17 -11 0.03 0.19
-17 -11 4 -0.1 0.24
-11 17 4 -0.05 0.26
-4 -11 -17 -0.01 0.17
17 -11 -4 -0.14 0.2
11 -17 4 0.08 0.22
11 17 -4 -0.45 0.27
17 11 4 0.11 0.21
-11 -4 17 0.05 0.26
-17 4 11 -0.01 0.18
-4 17 -11 0.1 0.29
-4 11 17 -0.31 0.22
4 11 -17 0.2 0.23
-17 4 11 0.07 0.22
11 4 17 0.3 0.17
4 17 11 -0.31 0.27
-4 -17 11 -0.23 0.28
4 -11 17 -0.13 0.26
-11 -17 -4 0.11 0.23
-11 4 17 -0.01 0.2
-11 4 17 0.05 0.23
4 17 -11 -0.13 0.28
-17 -4 11 -0.07 0.25
11 17 4 0.36 0.27
-4 -11 17 -0.43 0.26
-4 11 -17 0.43 0.25
-4 17 11 -0.21 0.24
4 -11 -17 -0.16 0.17
4 11 17 -0.22 0.22
4 -17 11 -0.13 0.26
-11 -17 4 -0.1 0.25
-11 17 -4 0.07 0.26
-17 -11 -4 -0.25 0.19
11 -17 -4 -0.11 0.2
17 -11 4 -0.08 0.17
17 11 -4 -0.2 0.24
11 -4 17 -0.61 0.19
-4 -17 -11 0 0.2
17 -11 -5 -0.01 0.17
17 11 5 -0.16 0.21
-11 17 5 -0.19 0.26
-5 -11 -17 -0.12 0.17
11 5 17 -0.04 0.17
-17 -11 5 -0.34 0.32
-17 5 11 -0.09 0.21
5 -17 -11 -0.01 0.18
-11 -17 -5 -0.26 0.23
5 11 -17 -0.08 0.24
-17 5 11 0 0.19
17 5 -11 -0.21 0.25
11 17 -5 -0.06 0.29
-11 -5 17 0.23 0.25
-11 5 -17 0.08 0.17
-17 11 -5 0.27 0.22
-5 17 -11 -0.38 0.3
-5 11 17 -0.26 0.22
5 -11 17 0.25 0.27
11 -17 5 -0.12 0.23
5 17 11 -0.22 0.27
11 5 17 -0.25 0.17
-5 -17 11 -0.09 0.26
11 17 5 -0.32 0.27
17 -11 5 -0.13 0.17
-11 17 -5 0.03 0.27
11 5 -17 -0.1 0.23
11 -17 -5 -0.05 0.2
-11 5 17 0.03 0.19
-5 -17 -11 -0.24 0.2
-17 -5 11 0.06 0.25
-17 11 5 0.03 0.21
5 -17 11 -0.03 0.26
11 -5 17 -0.13 0.21
-11 5 17 -0.11 0.21
-5 11 -17 0.03 0.24
5 -11 -17 -0.22 0.19
-5 -11 17 -0.29 0.26
17 11 -5 -0.29 0.32
5 17 -11 -0.1 0.29
5 11 17 -0.11 0.22
-17 -11 -5 -0.15 0.18
-11 -17 5 -0.27 0.27
-5 17 11 0.15 0.25
6 17 11 0.36 0.29
11 6 17 0.1 0.19
-11 17 6 0.09 0.28
-6 -11 -17 0.48 0.19
-6 11 17 0.27 0.23
17 11 6 0.22 0.21
17 -11 -6 0.38 0.19
-6 17 -11 0.31 0.31
6 -17 -11 -0.12 0.18
-11 -6 17 0.26 0.27
-17 11 -6 0.01 0.23
11 6 17 0.38 0.17
-6 -17 11 0.17 0.28
11 -17 6 0.43 0.25
-11 -17 -6 0.3 0.22
-17 6 11 0.02 0.2
6 -11 17 0.11 0.26
-17 -11 6 0.22 0.27
17 6 -11 0.65 0.25
-11 6 -17 0.11 0.18
11 17 -6 -0.18 0.29
6 11 -17 0.4 0.25
17 -6 11 0.2 0.1
-17 6 11 0.08 0.22
17 11 -6 0.35 0.26
17 -11 6 0.27 0.18
11 -17 -6 0.29 0.2
11 17 6 -0.3 0.27
6 11 17 0.37 0.24
-6 -11 17 0.34 0.3
11 6 -17 -0.03 0.26
6 17 -11 0.32 0.29
-17 -6 11 0.19 0.27
-17 6 -11 -0.01 0.12
-11 6 17 0.22 0.22
-17 11 6 0.06 0.23
-11 -17 6 -0.14 0.27
-6 11 -17 0.11 0.24
-11 17 -6 -0.18 0.28
6 -11 -17 0.17 0.18
-11 6 17 0.15 0.25
6 -17 11 0 0.27
-6 -17 -11 -0.01 0.21
-6 17 11 0.27 0.27
-17 -11 -6 -0.02 0.18
11 -6 17 0.28 0.23
-11 -17 -7 0.06 0.23
-11 7 -17 -0.03 0.21
11 7 17 0.14 0.18
17 11 7 -0.11 0.21
17 -7 11 0.04 0.12
-7 -17 11 0.04 0.28
7 -11 17 0.05 0.26
-7 17 -11 0.04 0.3
7 17 11 0.19 0.29
-7 11 17 -0.29 0.22
-11 17 7 -0.22 0.27
-17 11 -7 -0.06 0.23
-17 7 11 0.01 0.22
-17 7 11 0.08 0.22
11 -17 7 -0.1 0.26
7 -17 -11 0 0.2
17 7 -11 -0.18 0.26
11 17 -7 0.04 0.31
-11 -7 17 0.33 0.29
-17 -11 7 -0.07 0.26
7 11 -17 0.19 0.27
17 -11 -7 -0.19 0.18
11 7 17 0.07 0.19
11 17 7 0.1 0.29
17 11 -7 -0.22 0.26
-7 -11 17 -0.14 0.28
-17 -7 11 -0.42 0.26
11 -7 17 0.21 0.24
-7 -17 -11 0.01 0.21
7 -11 -17 -0.19 0.18
-11 7 17 -0.16 0.23
7 -17 11 -0.21 0.27
7 17 -11 -0.39 0.3
-11 -17 7 -0.37 0.27
-7 17 11 0.2 0.28
-7 11 -17 0.12 0.25
11 7 -17 0.13 0.24
-17 7 -11 -0.21 0.14
-17 -11 -7 -0.13 0.18
11 -17 -7 0.13 0.21
17 -11 7 -0.28 0.18
-17 11 7 -0.23 0.22
-11 7 17 0.35 0.22
-11 17 -7 -0.1 0.29
-11 -17 -8 -0.08 0.23
-8 -11 -17 0.16 0.18
11 -17 8 0.17 0.28
11 17 -8 0.19 0.3
8 -17 -11 0.09 0.2
-8 11 17 -0.07 0.24
17 -11 -8 0.41 0.19
8 -11 17 0.14 0.26
11 8 17 0.11 0.19
17 8 -11 0.28 0.27
-17 8 11 0 0.23
-8 -17 11 -0.36 0.29
-8 17 -11 0.22 0.3
17 11 8 0.05 0.22
8 11 -17 0.64 0.29
-11 8 -17 0.04 0.2
-17 -11 8 0.19 0.27
-11 -8 17 0.02 0.29
-11 17 8 -0.04 0.27
-17 11 -8 0.1 0.24
17 -8 11 0.24 0.15
11 8 17 0.24 0.22
8 17 11 0.04 0.3
17 -11 8 0.36 0.19
17 11 -8 -0.03 0.28
-17 11 8 -0.08 0.24
-11 8 17 -0.02 0.24
-8 -11 17 0.3 0.32
-17 -8 11 -0.04 0.27
-8 17 11 0.05 0.26
11 8 -17 0.07 0.26
-17 -11 -8 0.15 0.17
-17 8 -11 0.15 0.17
11 -17 -8 0.07 0.2
-8 11 -17 -0.22 0.25
-8 -17 -11 0.06 0.21
8 17 -11 0.3 0.3
11 -8 17 -0.03 0.24
8 -11 -17 0.18 0.2
-11 8 17 0.21 0.21
-11 17 -8 0.37 0.31
8 11 17 0.21 0.24
17 8 11 0.2 0.14
8 -17 11 -0.16 0.28
-11 -17 8 0.1 0.3
11 17 8 0.15 0.3
-9 -11 -17 -0.01 0.17
11 9 17 -0.22 0.22
17 -9 11 -0.05 0.17
-11 17 9 -0.05 0.26
-17 -9 -11 -0.19 0.12
9 11 -17 0.06 0.27
17 9 -11 -0.21 0.27
17 -11 -9 0.07 0.19
9 -17 -11 -0.31 0.2
-11 -9 17 -0.29 0.29
-11 9 -17 -0.15 0.21
-9 -17 11 -0.23 0.28
-17 -11 9 -0.35 0.27
-17 11 -9 -0.42 0.25
-9 11 17 -0.03 0.24
-11 -17 -9 -0.38 0.22
17 11 9 -0.11 0.21
9 17 11 -0.18 0.29
11 -17 9 -0.53 0.27
11 17 -9 -0.3 0.29
9 -11 17 -0.11 0.35
-17 9 11 -0.27 0.22
-9 17 -11 -0.14 0.3
-9 -11 17 -0.02 0.29
17 11 -9 0.07 0.27
-17 11 9 -0.28 0.23
11 -17 -9 0.08 0.21
-17 -9 11 0.02 0.29
-17 9 -11 -0.15 0.2
-11 17 -9 -0.37 0.29
9 17 -11 -0.43 0.3
-11 -17 9 0.01 0.29
-11 9 17 -0.4 0.24
-9 -17 -11 -0.09 0.21
17 -11 9 -0.13 0.19
9 -11 -17 -0.19 0.21
11 -9 17 -0.1 0.26
11 17 9 0.1 0.3
-17 -11 -9 -0.28 0.16
11 9 -17 -0.13 0.27
-9 17 11 -0.06 0.28
9 -17 11 0.04 0.28
9 11 17 -0.13 0.24
17 9 11 -0.06 0.17
-17 10 11 -0.17 0.25
-10 -11 -17 -0.34 0.17
-17 11 -10 -0.2 0.25
-11 -17 -10 -0.16 0.22
-17 -10 -11 -0.37 0.13
-10 17 -11 -0.16 0.31
10 17 11 -0.14 0.29
-17 -11 10 0.23 0.29
11 17 -10 -0.37 0.3
10 -17 -11 -0.08 0.2
10 -11 17 -0.47 0.33
17 -10 11 -0.12 0.19
-10 11 17 -0.33 0.23
17 -11 -10 -0.02 0.2
-11 17 10 -0.36 0.28
11 10 17 -0.11 0.24
11 -17 10 -0.08 0.29
-11 -10 17 -0.44 0.27
-11 10 -17 -0.08 0.24
17 11 10 -0.71 0.21
17 10 -11 -0.3 0.28
-10 -17 11 -0.03 0.3
10 11 -17 -0.35 0.26
10 -17 11 -0.52 0.27
11 -17 -10 -0.19 0.19
-11 -10 -17 -0.3 0.15
10 11 17 -0.04 0.25
11 17 10 -0.34 0.29
17 -10 -11 -0.19 0.19
10 17 -11 -0.34 0.3
-10 -17 -11 -0.63 0.21
17 10 11 -0.24 0.19
-17 -11 -10 -0.25 0.16
11 -10 17 -0.1 0.26
11 10 -17 -0.11 0.28
-17 11 10 -0.45 0.23
-11 17 -10 -0.01 0.32
17 -11 10 -0.4 0.19
17 11 -10 -0.29 0.27
-11 10 17 -0.42 0.24
10 -11 -17 -0.26 0.2
-17 10 -11 0.04 0.21
-10 11 -17 0.22 0.24
-17 -10 11 0.04 0.27
-10 -11 17 -0.53 0.29
-11 -17 10 -0.63 0.28
-10 17 11 -0.37 0.25
0 -12 -17 1.06 0.21
0 -12 17 0.46 0.29
12 0 17 1.1 0.16
-12 17 0 0.64 0.28
17 -12 0 1.17 0.22
-17 0 12 0.84 0.21
-12 -17 0 0.97 0.29
12 0 17 0.82 0.21
-17 12 0 1.01 0.26
-12 0 17 0.64 0.26
-12 0 17 0.87 0.21
0 -17 -12 0.94 0.22
-17 -12 0 1.08 0.26
0 12 17 1.15 0.25
0 17 -12 0.46 0.31
-17 0 12 0.97 0.28
17 12 0 1.02 0.25
0 -17 12 0.47 0.29
12 17 0 0.79 0.31
0 17 12 1.07 0.28
0 12 -17 0.7 0.28
12 -17 0 0.95 0.23
1 12 -17 0.32 0.25
1 17 12 0.32 0.27
-1 12 17 -0.27 0.22
-12 -17 -1 0.27 0.24
-1 17 -12 0.61 0.3
-17 12 -1 0.25 0.24
-12 17 1 0.31 0.28
-1 -12 -17 0.15 0.19
-12 -1 17 0.36 0.26
12 17 -1 0.15 0.3
-1 -17 12 0.22 0.29
12 1 17 -0.06 0.18
-17 1 12 0.52 0.24
-17 1 12 0.4 0.19
-17 -12 1 0.34 0.25
17 -12 -1 0.24 0.18
1 -17 -12 0.27 0.19
-12 -1 17 0.35 0.18
1 -12 17 0.11 0.27
12 -17 1 0.34 0.23
17 12 1 -0.47 0.24
12 1 17 0.41 0.15
-17 -12 -1 -0.06 0.23
-1 17 12 -0.05 0.27
17 -12 1 0.5 0.18
-17 12 1 0.38 0.24
-1 -12 17 -0.06 0.27
12 17 1 -0.12 0.29
-12 1 17 -0.04 0.25
12 -1 17 0.21 0.14
17 12 -1 0.19 0.25
-12 1 17 0.16 0.21
1 -17 12 0.71 0.28
-17 -1 12 0.16 0.18
-1 -17 -12 0 0.2
-1 12 -17 0.2 0.26
12 -17 -1 -0.22 0.22
1 -12 -17 0.17 0.2
1 17 -12 0.1 0.29
-12 -17 1 -0.26 0.26
-12 17 -1 0.22 0.27
1 12 17 0.32 0.24
12 -1 17 0.36 0.19
-17 -1 12 0.25 0.25
-12 -2 17 -0.29 0.19
17 12 2 -0.09 0.22
-17 12 -2 -0.25 0.23
12 -17 2 -0.18 0.22
17 -12 -2 -0.07 0.18
-17 -12 2 -0.09 0.24
-12 17 2 0.22 0.26
-2 -12 -17 -0.04 0.18
-17 2 12 -0.3 0.18
12 2 17 -0.13 0.16
2 17 12 -0.05 0.26
-17 2 12 -0.04 0.22
-12 -17 -2 -0.08 0.24
-2 -17 12 -0.55 0.27
-2 17 -12 -0.24 0.29
12 17 -2 -0.44 0.29
-2 12 17 -0.24 0.21
12 2 17 0.01 0.14
2 -17 -12 -0.13 0.17
-12 -2 17 0 0.26
2 -12 17 0.11 0.26
2 12 -17 -0.24 0.25
-17 -2 12 -0.02 0.17
12 -17 -2 -0.04 0.21
-2 -12 17 -0.14 0.27
12 -2 17 -0.1 0.19
2 -12 -17 -0.05 0.18
2 17 -12 -0.03 0.28
-17 -12 -2 -0.41 0.22
-2 17 12 -0.26 0.26
2 12 17 -0.04 0.23
-12 17 -2 0.52 0.27
-2 -17 -12 -0.08 0.19
-12 2 17 -0.41 0.19
12 17 2 0.14 0.27
12 -2 17 0.01 0.12
-17 12 2 -0.39 0.23
17 -12 2 -0.24 0.17
-12 -17 2 -0.41 0.26
-12 2 17 0.32 0.25
-2 12 -17 -0.03 0.24
-17 -2 12 0.04 0.25
17 12 -2 -0.24 0.24
2 -17 12 -0.42 0.26
-17 3 12 0.05 0.18
-17 -12 3 0.31 0.24
-17 3 12 -0.02 0.22
12 3 17 0 0.16
12 3 17 -0.13 0.15
-3 12 17 -0.1 0.21
17 -12 -3 0.16 0.18
-3 17 -12 0.04 0.28
-12 -3 17 0.09 0.29
-17 12 -3 -0.1 0.23
-12 -17 -3 -0.23 0.23
3 12 -17 0.13 0.27
3 -17 -12 0.04 0.17
-3 -17 12 -0.5 0.27
-12 17 3 -0.02 0.26
3 17 12 0.21 0.27
3 -12 17 -0.06 0.27
12 -17 3 -0.03 0.22
12 17 -3 0.38 0.28
17 12 3 -0.13 0.22
-3 -12 -17 -0.03 0.18
-17 -3 12 0.19 0.17
3 -12 -17 -0.07 0.19
-12 17 -3 -0.02 0.26
12 -17 -3 -0.03 0.2
-17 -12 -3 0.25 0.21
-3 -12 17 -0.12 0.27
3 -17 12 0.07 0.27
-17 -3 12 0.08 0.25
12 -3 17 0.01 0.18
-12 3 17 0.1 0.23
12 17 3 0.16 0.26
17 -12 3 0.01 0.18
-17 12 3 0.2 0.24
-3 12 -17 0.12 0.25
12 -3 17 0.1 0.12
-3 -17 -12 0.05 0.2
-12 3 17 0.08 0.19
-12 -17 3 -0.12 0.25
17 12 -3 0.37 0.25
3 12 17 0.15 0.22
-3 17 12 0 0.26
3 17 -12 -0.27 0.29
-17 4 12 0.03 0.18
-12 -17 -4 -0.12 0.23
-4 12 17 -0.27 0.21
-12 17 4 -0.01 0.26
-17 -12 4 0.2 0.29
-17 12 -4 -0.09 0.23
-17 4 12 0.09 0.22
-12 -4 17 0.18 0.27
4 -17 -12 0.01 0.18
-4 -12 -17 -0.08 0.18
12 -17 4 -0.06 0.22
-4 -17 12 -0.4 0.26
-4 17 -12 -0.08 0.27
12 17 -4 -0.12 0.28
12 4 17 -0.21 0.15
12 4 17 0.01 0.16
4 -12 17 -0.12 0.27
17 12 4 0 0.22
4 12 -17 -0.25 0.26
4 17 12 -0.23 0.26
17 -12 -4 -0.18 0.17
-17 -4 12 -0.12 0.24
-12 4 17 0.08 0.24
-17 -12 -4 -0.06 0.2
-12 4 17 -0.01 0.2
-4 -12 17 -0.03 0.28
-4 12 -17 0.17 0.25
-17 12 4 -0.25 0.23
17 -12 4 -0.33 0.17
-4 17 12 -0.23 0.25
12 -4 17 -0.32 0.2
17 12 -4 -0.22 0.28
-12 17 -4 0.09 0.27
12 17 4 -0.11 0.28
4 17 -12 -0.35 0.28
-4 -17 -12 0.2 0.2
4 -12 -17 -0.14 0.17
-12 -17 4 -0.02 0.26
12 -17 -4 -0.08 0.2
4 12 17 -0.03 0.23
4 -17 12 -0.29 0.26
5 -17 -12 -0.07 0.18
-5 12 17 0.05 0.23
-12 17 5 -0.1 0.26
5 -12 17 -0.48 0.26
5 12 -17 0.02 0.26
12 5 17 -0.22 0.17
-12 -5 17 -0.34 0.26
5 17 12 -0.18 0.27
12 -17 5 -0.34 0.22
17 12 5 -0.18 0.22
-5 -17 12 -0.41 0.28
-5 17 -12 -0.15 0.28
-17 -12 5 -0.09 0.25
12 17 -5 -0.21 0.28
17 -12 -5 0.09 0.18
-17 5 12 -0.35 0.2
-12 -17 -5 -0.26 0.22
-17 5 12 -0.11 0.22
-12 5 -17 -0.03 0.16
12 5 17 -0.19 0.17
-5 -12 -17 0.11 0.18
-17 12 -5 -0.11 0.23
-12 -17 5 -0.43 0.26
12 -17 -5 -0.33 0.2
-17 -12 -5 -0.25 0.19
-5 17 12 -0.02 0.26
12 17 5 -0.25 0.28
-17 12 5 0.3 0.22
5 17 -12 -0.2 0.27
12 5 -17 -0.16 0.25
12 -5 17 -0.33 0.2
17 12 -5 -0.1 0.24
-5 -17 -12 0 0.21
-17 -5 12 0.1 0.26
-12 5 17 -0.05 0.21
-12 5 17 -0.18 0.19
-5 -12 17 -0.42 0.27
5 12 17 -0.32 0.23
-12 17 -5 0.04 0.28
-5 12 -17 -0.29 0.25
5 -17 12 -0.16 0.26
17 -12 5 -0.13 0.18
5 -12 -17 -0.18 0.18
-6 -17 12 0.08 0.29
12 6 17 0.14 0.18
-12 -6 17 0.09 0.27
17 -12 -6 -0.04 0.18
-6 12 17 -0.24 0.23
6 -12 17 0.37 0.28
-12 17 6 0.22 0.27
6 12 -17 0.04 0.24
17 6 -12 -0.52 0.24
-12 -17 -6 0.02 0.23
12 -17 6 -0.17 0.23
12 17 -6 -0.23 0.3
-6 -12 -17 -0.23 0.18
17 12 6 0.21 0.23
-17 -12 6 -0.19 0.26
6 17 12 0.03 0.28
17 -6 12 -0.14 0.1
-6 17 -12 -0.02 0.3
12 6 17 0.08 0.16
6 -17 -12 0.09 0.19
-17 6 12 -0.14 0.2
-17 12 -6 -0.21 0.24
-17 6 12 -0.16 0.23
-12 6 -17 0.04 0.17
-6 17 12 0.32 0.25
-6 -17 -12 -0.2 0.21
17 -12 6 0.06 0.18
12 17 6 0.24 0.28
6 -17 12 0.24 0.28
-12 6 17 -0.08 0.21
-17 12 6 0.11 0.23
12 -6 17 -0.39 0.22
12 -17 -6 -0.16 0.19
-17 -12 -6 -0.04 0.19
-6 12 -17 -0.16 0.25
6 -12 -17 -0.06 0.19
-12 6 17 -0.5 0.24
-12 -17 6 0.31 0.28
6 17 -12 0.13 0.3
-17 6 -12 0.01 0.11
12 6 -17 0.16 0.25
-6 -12 17 -0.13 0.27
-17 -6 12 0.32 0.29
17 12 -6 -0.08 0.27
6 12 17 -0.07 0.22
-12 17 -6 0.03 0.28
-12 7 -17 -0.21 0.19
-12 -17 -7 -0.04 0.23
7 -17 -12 0.28 0.19
17 -7 12 0 0.13
-7 17 -12 0.29 0.3
12 7 17 -0.2 0.2
-17 7 12 0.02 0.21
7 -12 17 0.09 0.27
7 17 12 -0.39 0.3
7 12 -17 0.29 0.26
17 -12 -7 -0.07 0.19
-7 -12 -17 -0.21 0.19
12 7 17 -0.08 0.16
17 12 7 0.09 0.24
-7 12 17 0.03 0.26
-17 12 -7 -0.25 0.24
-12 -7 17 0.24 0.29
-17 -12 7 -0.21 0.28
12 17 -7 0.12 0.3
17 7 -12 0.11 0.27
-12 17 7 0.27 0.27
-7 -17 12 -0.3 0.28
-17 7 12 -0.29 0.22
12 -17 7 -0.41 0.26
12 17 7 0.43 0.29
-12 7 17 0.38 0.23
7 12 17 0.15 0.25
-17 -12 -7 -0.12 0.19
12 -7 17 0.26 0.23
17 -12 7 0.01 0.19
-7 -12 17 -0.49 0.3
-7 12 -17 -0.04 0.26
-12 7 17 -0.23 0.23
7 17 -12 -0.1 0.3
12 -17 -7 0.07 0.19
7 -12 -17 -0.11 0.18
-17 7 -12 0.11 0.14
12 7 -17 -0.17 0.26
17 12 -7 -0.02 0.28
-7 -17 -12 0.13 0.22
-12 -17 7 -0.22 0.28
-7 17 12 0.05 0.26
-17 -7 12 0.21 0.27
-17 12 7 0.18 0.25
7 -17 12 -0.17 0.27
-12 17 -7 -0.25 0.29
-17 8 12 -0.12 0.23
-8 17 -12 -0.24 0.31
17 -8 12 0.3 0.16
12 8 17 -0.03 0.22
-8 12 17 0.07 0.26
8 12 -17 0.32 0.27
-12 -17 -8 0.05 0.23
17 -12 -8 0.05 0.2
12 -17 8 0.21 0.27
-12 -8 17 -0.11 0.29
-12 8 -17 0.02 0.2
-17 12 -8 0.16 0.26
12 8 17 0 0.17
8 -17 -12 0.04 0.2
12 17 -8 -0.02 0.3
-17 8 12 0.16 0.24
17 12 8 0.29 0.24
17 8 -12 0.02 0.26
-8 -12 -17 0.35 0.19
-8 -17 12 0.12 0.31
8 17 12 0.3 0.3
8 -12 17 0.52 0.28
-12 17 8 0.27 0.27
-17 -12 8 0.08 0.27
-17 -12 -8 -0.01 0.18
-12 8 17 0.23 0.23
8 -17 12 -0.31 0.28
8 17 -12 0.47 0.31
17 8 12 0.15 0.15
-12 17 -8 0.28 0.31
12 17 8 -0.4 0.28
17 -12 8 0.2 0.2
8 12 17 -0.07 0.26
-17 8 -12 -0.05 0.17
12 8 -17 0.21 0.26
-8 -12 17 0.23 0.28
12 -8 17 0.33 0.25
-12 8 17 -0.29 0.21
-8 -17 -12 0.19 0.22
-12 -17 8 0.28 0.3
8 -12 -17 0.11 0.19
17 12 -8 -0.25 0.28
-17 -8 12 0.32 0.3
-17 12 8 -0.09 0.24
-8 17 12 0.29 0.26
-8 12 -17 0.27 0.26
12 -17 -8 0.17 0.21
13 0 17 0.04 0.13
0 -13 -17 0.03 0.19
0 -17 -13 0.18 0.18
13 -17 0 -0.26 0.22
0 13 -17 -0.26 0.27
17 13 0 0.07 0.25
0 13 17 -0.06 0.25
-17 13 0 -0.39 0.24
-17 0 13 -0.02 0.19
-13 0 17 0.01 0.26
17 -13 0 -0.03 0.19
-13 0 17 0.14 0.2
0 17 13 -0.38 0.26
0 -13 17 0.2 0.27
0 -17 13 -0.16 0.27
0 17 -13 0.17 0.29
-17 -13 0 -0.2 0.25
-17 0 13 -0.17 0.27
13 17 0 -0.17 0.29
13 0 17 0 0.18
-13 17 0 -0.33 0.26
-13 -17 0 0.17 0.27
-17 -13 1 0.07 0.26
-17 1 13 0.04 0.24
-1 -17 13 -0.33 0.28
-13 -1 17 -0.14 0.26
13 1 17 -0.24 0.13
-17 13 -1 -0.3 0.25
1 17 13 0.04 0.26
13 -17 1 -0.23 0.21
13 1 17 0.06 0.17
1 -13 17 0.15 0.29
17 -13 -1 0.15 0.24
1 -17 -13 -0.03 0.18
-1 17 -13 -0.41 0.28
13 17 -1 -0.1 0.29
-1 13 17 -0.15 0.25
-1 -13 -17 -0.22 0.18
-13 -1 17 -0.01 0.18
-17 1 13 -0.16 0.19
-13 -17 -1 0.05 0.24
17 13 1 -0.23 0.24
-13 17 1 0.07 0.27
1 13 -17 -0.2 0.25
13 -1 17 0.12 0.13
-1 13 -17 0.2 0.26
-17 -1 13 -0.04 0.17
-13 -17 1 -0.42 0.25
1 -17 13 0.02 0.28
13 17 1 0.45 0.29
-17 -13 -1 -0.12 0.24
-13 1 17 -0.11 0.2
-17 -1 13 -0.22 0.25
17 13 -1 -0.6 0.23
-1 -13 17 0.23 0.26
1 13 17 -0.38 0.23
-1 -17 -13 -0.14 0.19
-13 17 -1 -0.14 0.27
13 -17 -1 -0.31 0.2
1 17 -13 0.18 0.3
1 -13 -17 -0.01 0.19
-13 1 17 -0.32 0.23
13 -1 17 -0.2 0.18
-1 17 13 -0.13 0.25
17 -13 1 -0.2 0.18
13 2 17 0.03 0.14
-13 -17 -2 0.07 0.24
-13 -2 17 0.02 0.25
2 13 -17 -0.07 0.25
-13 -2 17 -0.22 0.18
-17 2 13 -0.44 0.23
2 17 13 0.29 0.27
-2 -13 -17 0.25 0.19
13 17 -2 0.02 0.28
-2 13 17 0.07 0.24
-17 -13 2 -0.13 0.26
-17 13 -2 -0.14 0.24
17 13 2 0.06 0.24
13 2 17 0.05 0.16
-17 2 13 -0.15 0.19
17 -13 -2 -0.06 0.18
-2 -17 13 0.26 0.27
2 -17 -13 -0.05 0.19
2 -13 17 0.13 0.28
13 -17 2 -0.05 0.21
-13 17 2 0.26 0.26
-2 17 -13 0.21 0.28
13 -2 17 -0.03 0.12
2 -13 -17 0.13 0.19
-2 -13 17 0 0.26
13 -2 17 0.04 0.17
2 -17 13 -0.34 0.26
17 -13 2 -0.09 0.19
13 17 2 0.29 0.29
13 -17 -2 -0.08 0.2
-13 17 -2 0.17 0.26
-17 -13 -2 0.04 0.24
-13 -17 2 0.28 0.26
-13 2 17 0.06 0.23
-13 2 17 0.14 0.19
-2 -17 -13 -0.11 0.18
2 13 17 0.02 0.24
17 13 -2 -0.36 0.26
-17 13 2 0.02 0.24
-2 13 -17 0.25 0.27
-17 -2 13 0 0.17
-17 -2 13 0.13 0.27
-2 17 13 0 0.24
2 17 -13 -0.31 0.28
3 -17 -13 -0.19 0.2
-13 -17 -3 -0.18 0.23
13 17 -3 -0.21 0.28
-13 -3 17 0.19 0.2
3 -13 17 0.18 0.27
-17 3 13 -0.22 0.22
-3 13 17 -0.12 0.23
-3 -17 13 0.07 0.26
13 -17 3 -0.13 0.22
-17 13 -3 0.12 0.24
3 17 13 0.25 0.26
-3 -13 -17 -0.06 0.17
-17 3 13 -0.31 0.19
13 3 17 -0.18 0.15
17 -13 -3 0.03 0.17
-3 17 -13 -0.33 0.27
13 3 17 -0.25 0.15
-13 -3 17 0.22 0.26
-17 -13 3 0.4 0.25
-13 17 3 0.02 0.26
17 13 3 0.32 0.24
3 13 -17 0.21 0.26
17 13 -3 -0.13 0.25
3 -13 -17 -0.17 0.19
13 -17 -3 0.15 0.2
13 17 3 -0.48 0.27
-13 -17 3 -0.6 0.25
-13 17 -3 0.11 0.27
-13 3 17 -0.04 0.24
-17 -3 13 -0.19 0.25
-17 13 3 0.18 0.23
-17 -13 -3 0.09 0.21
-3 13 -17 0.09 0.26
3 17 -13 0.18 0.28
13 -3 17 0.15 0.12
-17 -3 13 0.06 0.17
-13 3 17 -0.11 0.19
-3 -17 -13 -0.15 0.18
13 -3 17 0.2 0.19
3 13 17 0.04 0.23
-3 -13 17 0.07 0.26
17 -13 3 -0.29 0.19
-3 17 13 -0.19 0.24
3 -17 13 -0.28 0.26
4 13 -17 -0.14 0.26
17 -13 -4 -0.3 0.18
-17 13 -4 -0.43 0.24
-4 -13 -17 -0.31 0.17
17 13 4 -0.13 0.23
-13 -4 17 0 0.26
-13 17 4 0.09 0.26
-17 4 13 0.27 0.23
-17 4 13 0.1 0.19
-13 -17 -4 0.27 0.23
4 17 13 -0.17 0.27
13 4 17 -0.06 0.15
-4 -17 13 -0.19 0.26
-4 17 -13 0.39 0.28
13 4 17 -0.29 0.16
-17 -13 4 -0.13 0.25
4 -17 -13 -0.16 0.19
4 -13 17 0.06 0.27
13 -17 4 0.07 0.22
-4 13 17 -0.09 0.21
13 17 -4 0.04 0.28
-13 4 17 -0.01 0.21
4 -13 -17 0.01 0.18
-13 17 -4 0.07 0.27
-17 -13 -4 -0.26 0.2
4 13 17 0.03 0.23
-17 -4 13 -0.56 0.23
17 13 -4 -0.07 0.26
-4 -13 17 -0.21 0.26
17 -13 4 -0.06 0.18
13 -17 -4 0.25 0.21
13 -4 17 -0.06 0.12
-4 17 13 -0.3 0.24
-4 13 -17 0.08 0.27
4 -17 13 -0.14 0.27
4 17 -13 -0.12 0.28
-13 -17 4 0.24 0.27
13 -4 17 -0.17 0.19
-13 4 17 -0.29 0.22
13 17 4 0.18 0.26
-4 -17 -13 -0.02 0.19
-17 13 4 -0.14 0.24
5 13 -17 -0.2 0.28
-5 -17 13 -0.26 0.27
5 -17 -13 -0.36 0.19
-13 -17 -5 -0.08 0.23
-17 5 13 -0.31 0.23
5 -13 17 -0.15 0.28
13 17 -5 0.16 0.29
-5 17 -13 -0.47 0.28
13 -17 5 -0.45 0.23
13 5 17 -0.14 0.15
-17 5 13 -0.01 0.22
-17 -13 5 -0.02 0.25
-17 13 -5 -0.01 0.24
17 13 5 -0.04 0.24
13 5 17 -0.14 0.17
17 -13 -5 0.06 0.18
-5 13 17 -0.16 0.23
5 17 13 -0.04 0.28
-13 17 5 -0.02 0.26
-5 -13 -17 -0.23 0.17
-13 -5 17 -0.08 0.28
5 -13 -17 -0.01 0.18
-13 -17 5 0.19 0.27
-5 -17 -13 -0.05 0.19
-13 5 17 -0.08 0.23
-13 17 -5 0.26 0.29
17 -13 5 0.01 0.19
-17 13 5 -0.19 0.24
-5 -13 17 -0.18 0.28
-5 13 -17 -0.51 0.26
13 -17 -5 0.2 0.19
-17 -5 13 -0.2 0.26
17 13 -5 -0.28 0.25
5 13 17 -0.12 0.23
5 17 -13 0.03 0.29
13 -5 17 -0.03 0.2
5 -17 13 0.05 0.26
13 17 5 -0.07 0.28
-13 5 17 0.12 0.2
-5 17 13 -0.05 0.25
-17 -13 -5 0.33 0.2
13 5 -17 0.13 0.26
-13 17 6 0.33 0.27
17 -13 -6 0.1 0.18
13 17 -6 0.08 0.29
-17 13 -6 0.4 0.26
-17 6 13 -0.12 0.21
-13 -6 17 0.38 0.28
6 17 13 0.17 0.29
17 -6 13 0.33 0.11
6 13 -17 0.01 0.29
-6 17 -13 0.03 0.31
-6 -13 -17 0.13 0.19
-17 -13 6 0.33 0.27
13 6 17 0.3 0.19
-13 -17 -6 -0.1 0.23
-6 -17 13 0.33 0.3
-6 13 17 0.04 0.23
13 6 17 0.03 0.16
6 -13 17 -0.06 0.26
-17 6 13 0.18 0.22
13 -17 6 -0.17 0.23
17 6 -13 -0.04 0.26
6 -17 -13 0.07 0.2
17 13 6 0.05 0.25
-13 6 -17 0.1 0.17
6 -13 -17 0.36 0.2
13 17 6 -0.15 0.29
13 -6 17 0 0.22
17 13 -6 0.23 0.27
6 -17 13 0.38 0.28
-13 6 17 -0.02 0.23
-17 13 6 -0.07 0.24
-6 17 13 0.21 0.26
-13 -17 6 -0.15 0.28
-13 17 -6 0.27 0.28
6 17 -13 0.55 0.31
-6 -17 -13 0.04 0.2
-17 -13 -6 0.11 0.2
13 6 -17 0.09 0.25
6 13 17 -0.35 0.25
13 -17 -6 0.03 0.19
-17 -6 13 0.27 0.28
-6 -13 17 -0.01 0.3
-6 13 -17 -0.03 0.27
-17 6 -13 0.02 0.11
17 -13 6 0.24 0.21
-13 6 17 0.18 0.21
-13 -7 17 -0.38 0.28
17 -7 13 -0.12 0.14
13 17 -7 0.06 0.29
7 -17 -13 -0.02 0.2
-17 7 13 0.11 0.21
-7 13 17 -0.05 0.23
7 13 -17 0.21 0.28
-7 -17 13 0.48 0.31
-13 17 7 -0.13 0.26
13 7 17 -0.16 0.21
-17 -13 7 -0.28 0.27
-17 13 -7 -0.09 0.26
-17 7 13 0.04 0.25
17 -13 -7 -0.16 0.19
-7 -13 -17 0.04 0.18
7 -13 17 -0.15 0.27
13 -17 7 -0.53 0.24
7 17 13 0.01 0.29
-13 7 -17 0.27 0.19
-7 17 -13 0.4 0.31
17 7 -13 0.2 0.26
-13 -17 -7 -0.35 0.23
13 7 17 0.22 0.16
17 13 7 -0.06 0.26
-17 13 7 -0.01 0.24
13 17 7 -0.32 0.28
7 -17 13 -0.17 0.28
7 17 -13 -0.36 0.29
-7 13 -17 0.31 0.27
-13 7 17 -0.31 0.22
17 -13 7 0.01 0.2
7 13 17 0.22 0.26
7 -13 -17 -0.01 0.2
-13 7 17 -0.08 0.23
-17 -13 -7 0.09 0.2
-17 -7 13 0.47 0.28
-7 -17 -13 -0.01 0.2
-7 -13 17 0 0.28
-17 7 -13 -0.13 0.14
-13 17 -7 0.19 0.29
13 -7 17 0.23 0.23
13 7 -17 0.09 0.26
-13 -17 7 0.27 0.29
17 13 -7 0.04 0.31
-7 17 13 -0.02 0.24
13 -17 -7 -0.37 0.2
-14 -17 0 0.29 0.28
0 -14 17 -0.18 0.3
-17 -14 0 0.14 0.25
0 -14 -17 0.31 0.2
14 17 0 -0.13 0.3
-14 0 17 0.17 0.19
0 17 14 0.3 0.26
14 0 17 0.35 0.17
14 0 17 0.16 0.13
17 -14 0 0.25 0.2
17 14 0 0.33 0.26
-17 0 14 0.22 0.26
0 -17 -14 0.27 0.2
0 -17 14 0.41 0.29
-14 17 0 0.22 0.27
0 14 -17 -0.14 0.27
0 17 -14 0.25 0.29
0 14 17 0.27 0.26
14 -17 0 0.54 0.22
-17 0 14 0.05 0.2
-17 14 0 0.15 0.26
-14 0 17 0.55 0.27
-1 -17 14 -0.49 0.27
17 -14 -1 -0.66 0.19
-17 14 -1 0.48 0.5
14 17 -1 -0.11 0.29
-14 -17 -1 0.22 0.25
14 1 17 -0.36 0.16
-14 17 1 -0.48 0.28
-1 -14 -17 0.2 0.18
-17 1 14 0.07 0.24
1 -17 -14 -0.09 0.2
-1 17 -14 -0.14 0.29
1 17 14 -0.11 0.26
1 14 -17 -0.19 0.27
-1 14 17 -0.14 0.24
14 -17 1 -0.15 0.22
-17 1 14 -0.27 0.19
17 14 1 -0.28 0.26
-14 -1 17 0.38 0.26
1 -14 17 0.12 0.28
14 1 17 -0.24 0.13
-14 -1 17 0.15 0.19
-1 -14 17 0.01 0.3
14 -17 -1 -0.12 0.21
-17 -14 -1 -0.02 0.24
17 -14 1 -0.01 0.23
1 -14 -17 0.12 0.19
-17 -1 14 0.24 0.26
-17 -1 14 -0.08 0.17
17 14 -1 -0.35 0.45
-14 1 17 -0.19 0.2
1 -17 14 -0.47 0.27
1 17 -14 -0.43 0.28
-1 14 -17 0.15 0.29
14 -1 17 -0.03 0.12
-14 17 -1 -0.33 0.26
-17 14 1 -0.15 0.26
14 -1 17 -0.08 0.17
-14 1 17 0.02 0.26
-1 17 14 -0.17 0.25
-1 -17 -14 -0.4 0.19
14 17 1 0.04 0.3
-14 -17 1 0.04 0.26
1 14 17 -0.1 0.25
-17 2 14 0.22 0.26
-14 -2 17 0.44 0.18
14 2 17 0.63 0.17
-17 -14 2 0.02 0.26
2 17 14 0.09 0.27
2 -17 -14 0.35 0.19
-14 -17 -2 0.51 0.26
2 14 -17 0.27 0.27
17 14 2 0.33 0.26
17 -14 -2 0.49 0.2
2 -14 17 0.06 0.28
-2 -17 14 0.14 0.28
14 -17 2 0.47 0.22
-14 -2 17 0.48 0.28
-14 17 2 0.15 0.27
-17 2 14 -0.1 0.2
14 17 -2 0.03 0.29
14 2 17 0.18 0.14
-2 14 17 -0.07 0.24
-2 -14 -17 0.16 0.18
-2 17 -14 0.39 0.3
-17 14 -2 0.02 0.26
2 17 -14 0.37 0.29
-14 2 17 0.1 0.2
-2 14 -17 0.23 0.28
14 17 2 0.69 0.29
-17 -2 14 0.17 0.27
-14 2 17 0.45 0.25
17 14 -2 -0.13 0.25
17 -14 2 0.27 0.24
-17 -14 -2 0.39 0.24
2 14 17 0.48 0.24
-14 -17 2 0.69 0.27
14 -2 17 0.21 0.12
-17 -2 14 0.09 0.18
-2 17 14 0.16 0.27
14 -2 17 0.26 0.17
-2 -14 17 -0.05 0.28
2 -14 -17 0.04 0.2
-14 17 -2 -0.1 0.27
-17 14 2 0.15 0.26
2 -17 14 0.19 0.28
-2 -17 -14 0.38 0.2
14 -17 -2 0.41 0.21
14 -17 3 0.3 0.22
3 -14 17 -0.34 0.27
-14 -17 -3 -0.08 0.24
-17 3 14 0.05 0.2
17 14 3 -0.08 0.24
-3 -14 -17 -0.01 0.17
-17 -14 3 0.17 0.25
-14 17 3 0.43 0.27
14 17 -3 0.08 0.28
14 3 17 -0.11 0.14
3 14 -17 -0.32 0.25
-3 17 -14 0.22 0.29
-17 3 14 -0.09 0.23
3 -17 -14 -0.28 0.17
-3 14 17 -0.12 0.25
17 -14 -3 0.07 0.18
-17 14 -3 0.14 0.24
-3 -17 14 0.14 0.28
-14 -3 17 -0.17 0.27
-14 -3 17 -0.17 0.19
14 3 17 -0.23 0.15
3 17 14 0.04 0.27
17 -14 3 -0.28 0.19
-3 14 -17 -0.12 0.26
-14 3 17 0.28 0.25
-14 -17 3 -0.17 0.25
-17 -3 14 -0.24 0.18
-14 3 17 0.07 0.2
-17 14 3 0.07 0.25
14 -3 17 0.01 0.11
-3 17 14 0.19 0.25
14 -17 -3 0.05 0.21
-3 -14 17 -0.15 0.28
-3 -17 -14 0.09 0.19
-17 -14 -3 -0.14 0.22
14 17 3 0.52 0.29
-14 17 -3 0.21 0.27
3 -17 14 0.07 0.27
3 14 17 0.08 0.23
14 -3 17 -0.15 0.17
3 17 -14 0.12 0.29
17 14 -3 -0.27 0.25
3 -14 -17 -0.14 0.18
-17 -3 14 0.24 0.26
4 -14 17 0.14 0.28
-14 -17 -4 0.13 0.24
-14 17 4 -0.21 0.26
-4 -17 14 -0.25 0.28
-17 4 14 0.17 0.23
-17 4 14 -0.02 0.19
-4 17 -14 -0.08 0.27
-4 14 17 -0.51 0.25
-17 -14 4 -0.29 0.26
4 14 -17 -0.26 0.25
17 -14 -4 -0.02 0.18
-17 14 -4 -0.06 0.25
4 -17 -14 -0.03 0.17
14 4 17 -0.2 0.15
4 17 14 0.55 0.27
-4 -14 -17 0.13 0.18
17 14 4 -0.03 0.26
14 -17 4 -0.38 0.22
14 4 17 -0.17 0.16
-14 -4 17 0.1 0.25
14 17 -4 0.2 0.29
14 -4 17 0.18 0.19
14 -4 17 0.04 0.11
-17 14 4 0.2 0.24
-17 -4 14 0.07 0.25
-4 17 14 -0.11 0.23
-14 4 17 0.09 0.23
-14 -17 4 -0.12 0.27
-14 17 -4 -0.07 0.27
-4 -17 -14 0.17 0.18
17 14 -4 0.03 0.26
14 17 4 -0.2 0.28
-4 14 -17 0.15 0.26
-4 -14 17 -0.26 0.27
4 -14 -17 -0.01 0.19
17 -14 4 -0.11 0.19
4 17 -14 -0.15 0.29
4 14 17 -0.25 0.23
-14 4 17 0.08 0.19
4 -17 14 0.33 0.27
14 -17 -4 0.1 0.19
-17 -14 -4 0.11 0.22
14 5 17 -0.1 0.17
5 -14 17 -0.17 0.26
-14 17 5 -0.06 0.26
-5 -17 14 0 0.29
-5 17 -14 0.02 0.27
17 -14 -5 -0.19 0.19
5 -17 -14 -0.05 0.18
14 -17 5 -0.12 0.23
17 14 5 0.25 0.25
-17 14 -5 -0.09 0.25
-17 5 14 0.08 0.24
-17 -14 5 0.42 0.27
-14 -17 -5 -0.12 0.23
5 14 -17 -0.06 0.26
14 5 17 -0.09 0.15
14 17 -5 -0.01 0.29
-17 5 14 0.17 0.2
-5 14 17 -0.3 0.24
5 17 14 -0.23 0.27
-14 -5 17 -0.02 0.27
-5 -14 -17 -0.25 0.17
-5 -17 -14 -0.18 0.18
-14 -17 5 0.11 0.27
-14 5 17 -0.21 0.2
5 -14 -17 -0.19 0.19
14 -17 -5 0.07 0.2
-5 -14 17 -0.04 0.27
5 -17 14 -0.33 0.28
5 17 -14 0.46 0.29
-17 -5 14 -0.18 0.27
17 14 -5 -0.01 0.28
-5 17 14 0.2 0.24
17 -14 5 -0.11 0.19
-17 -14 -5 0.11 0.21
-17 14 5 0.01 0.25
-14 5 17 -0.01 0.24
14 17 5 0.01 0.26
-14 17 -5 -0.11 0.28
-5 14 -17 -0.31 0.26
14 -5 17 -0.22 0.19
5 14 17 -0.1 0.25
-18 0 0 1.07 0.18
-18 0 0 0.93 0.16
0 -18 0 0.22 0.26
0 0 18 0.38 0.25
0 18 0 0.46 0.29
-18 0 -1 4.12 0.42
-18 0 1 4.1 0.47
-1 -18 0 2.4 0.36
-1 18 0 4.73 0.65
0 1 18 2.47 0.38
1 -18 0 2.38 0.35
1 18 0 2.57 0.38
0 18 1 2.38 0.38
1 0 18 4.24 0.56
1 0 18 3.59 0.42
-1 0 18 2.17 0.33
-1 0 18 3.25 0.43
0 -18 -1 2.41 0.35
0 -18 1 2.03 0.33
0 18 -1 1.93 0.36
-18 -1 0 3.82 0.36
-18 -1 0 3.25 0.44
-1 1 18 0.55 0.19
-1 1 18 0.52 0.26
1 -18 1 0.22 0.27
1 -1 18 0.76 0.24
1 -1 18 0.68 0.18
1 1 18 0.68 0.24
1 1 18 0.68 0.19
1 18 -1 1.08 0.31
1 18 1 0.42 0.29
-18 1 -1 0.6 0.17
-18 1 -1 0.87 0.15
-18 -1 -1 0.66 0.17
-18 -1 -1 0.84 0.14
-18 -1 1 0.89 0.2
-1 18 -1 0.58 0.31
-1 18 1 0.28 0.3
1 -18 -1 0.44 0.25
-18 1 1 0.64 0.18
-18 1 1 0.97 0.16
-1 -18 -1 0.8 0.27
-1 -18 1 0.89 0.28
-1 -1 18 0.64 0.26
-1 -1 18 0.91 0.19
-18 -1 1 0.66 0.15
0 18 2 0.52 0.3
2 0 18 0.16 0.23
2 0 18 0.18 0.17
0 -18 -2 -0.07 0.25
0 -18 2 0.17 0.25
-18 0 -2 0.29 0.14
-18 0 -2 0.21 0.12
-18 0 2 0.16 0.19
-18 0 2 0.32 0.15
-2 -18 0 0.17 0.24
-2 18 0 0.14 0.29
0 -2 18 -0.26 0.41
2 -18 0 -0.02 0.25
2 18 0 0.39 0.29
0 18 -2 -0.11 0.28
-2 0 18 0.33 0.24
-2 0 18 0.19 0.19
-18 -2 0 0.3 0.18
-18 -2 0 0.19 0.13
-18 2 0 0.59 0.16
-18 2 0 0.25 0.15
2 1 18 0.29 0.22
-2 -1 18 -0.12 0.22
-18 2 -1 -0.15 0.14
1 -18 -2 -0.55 0.21
-2 -18 -1 -0.27 0.23
-18 -1 -2 -0.13 0.15
-18 -1 -2 -0.17 0.11
-2 -1 18 -0.13 0.17
-1 2 18 -0.03 0.23
-1 2 18 -0.51 0.18
1 -2 18 -0.12 0.25
-18 1 2 -0.35 0.17
-18 1 2 -0.16 0.15
2 -18 1 -0.14 0.23
-18 -2 1 -0.24 0.13
2 18 -1 -0.41 0.26
-2 18 1 -0.15 0.29
1 18 2 -0.84 0.27
-18 2 -1 -0.16 0.14
-1 18 -2 -0.45 0.28
-1 -18 2 -0.59 0.23
2 1 18 -0.04 0.17
-18 -2 1 -0.33 0.17
2 -18 -1 -0.59 0.24
-2 18 -1 0 0.28
-2 1 18 -0.18 0.17
-2 1 18 0.11 0.25
-18 -2 -1 -0.4 0.16
-18 2 1 0.05 0.17
-18 2 1 -0.18 0.15
-1 -2 18 -0.36 0.24
-18 -1 2 -0.22 0.17
-18 -1 2 -0.14 0.14
-18 1 -2 -0.23 0.13
-18 1 -2 -0.15 0.13
1 18 -2 -0.34 0.27
-18 -2 -1 -0.2 0.11
-1 18 2 -0.4 0.26
-2 -18 1 -0.08 0.25
2 18 1 -0.48 0.29
1 -18 2 -0.39 0.25
2 -1 18 -0.07 0.22
1 2 18 -0.39 0.17
2 -1 18 -0.35 0.16
-1 -18 -2 -0.21 0.25
1 2 18 -0.54 0.21
-18 -2 2 7.18 0.62
-18 -2 2 7.65 0.69
-2 -18 -2 7.13 0.74
-2 -18 2 6.61 0.76
-2 -2 18 7.21 0.77
-2 2 18 6.63 0.74
-2 2 18 7.5 0.66
-2 18 -2 6.1 0.8
-2 18 2 6.1 0.81
2 -18 -2 7.59 0.73
-18 2 -2 7.28 0.62
-18 -2 -2 7.12 0.62
-18 -2 -2 6.97 0.58
2 2 18 6.56 0.65
2 18 -2 6.45 0.8
2 18 2 6.17 0.79
-18 2 -2 7.16 0.6
-18 2 2 6.88 0.67
-18 2 2 6.91 0.64
2 2 18 7.59 0.74
2 -2 18 7.21 0.77
2 -18 2 6.08 0.74
3 0 18 1.82 0.26
0 18 3 1 0.3
-18 0 -3 2.07 0.28
-18 0 -3 2.51 0.25
-18 0 3 1.6 0.23
-3 18 0 0.77 0.3
0 -3 18 1.25 0.3
0 3 -18 1.37 0.31
0 3 18 1.15 0.32
0 3 18 1.01 0.28
3 -18 0 1.39 0.29
3 18 0 1.25 0.31
-18 0 3 1.58 0.2
-3 -18 0 1.36 0.28
-18 -3 0 1.42 0.23
-18 3 0 2.84 0.39
-18 3 0 1.39 0.2
-3 0 18 1.97 0.29
-3 0 18 1.76 0.23
0 -18 -3 1.7 0.28
0 -18 3 1 0.28
0 18 -3 1.44 0.32
3 0 18 2.94 0.37
-1 3 18 0.07 0.18
-1 3 18 0.27 0.21
-1 -18 3 0.01 0.23
-18 1 3 0.17 0.18
-18 -3 1 -0.2 0.17
-18 -3 1 -0.12 0.12
-18 3 -1 0.12 0.15
-18 3 -1 -0.08 0.15
3 1 18 0.09 0.17
-3 -1 18 0.28 0.24
1 -3 18 -0.11 0.28
-3 -1 18 -0.01 0.17
-1 18 -3 0.13 0.27
3 1 18 -0.03 0.21
3 -18 1 -0.07 0.24
3 18 -1 -0.05 0.28
-3 18 1 -0.11 0.27
1 -18 -3 -0.07 0.21
-18 1 3 0.08 0.15
-18 -1 -3 0.05 0.12
-18 -1 -3 0.01 0.09
1 18 3 -0.38 0.28
1 3 -18 -0.17 0.21
-3 -18 -1 -0.22 0.23
-18 3 1 -0.05 0.15
-18 1 -3 -0.07 0.11
-18 -3 -1 0.14 0.11
-3 1 18 -0.07 0.23
-18 -1 3 -0.09 0.19
-18 -1 3 -0.02 0.14
-18 -3 -1 -0.23 0.16
1 3 18 0.28 0.22
1 3 18 -0.02 0.18
3 -18 -1 -0.01 0.22
-18 1 -3 -0.07 0.12
-1 -3 18 -0.15 0.25
-3 18 -1 -0.3 0.26
1 18 -3 -0.35 0.25
-3 -18 1 0.07 0.23
-1 -18 -3 -0.19 0.23
3 -1 18 0.18 0.22
3 -1 18 0.1 0.15
-1 18 3 0.09 0.29
-18 3 1 -0.09 0.16
1 -18 3 -0.09 0.23
3 18 1 -0.13 0.28
-1 3 -18 0.1 0.24
-3 1 18 0.1 0.17
-2 3 18 -0.13 0.21
-2 3 18 0.16 0.18
2 -3 18 0.21 0.23
-3 18 2 -0.42 0.29
3 18 -2 0.01 0.27
-18 -3 2 -0.1 0.18
-18 -2 -3 -0.15 0.11
-2 -18 3 -0.22 0.24
-2 18 -3 -0.08 0.26
-3 -18 -2 -0.3 0.22
2 -18 -3 -0.43 0.22
-3 -2 18 0.12 0.24
3 -18 2 -0.37 0.24
-18 -2 -3 -0.19 0.09
-18 2 3 -0.33 0.15
-18 -3 2 -0.07 0.13
-18 3 -2 -0.03 0.13
-18 3 -2 -0.19 0.14
2 3 -18 -0.18 0.22
3 2 18 0.04 0.2
3 2 18 -0.44 0.16
2 18 3 0.06 0.28
-18 2 3 -0.49 0.17
2 -18 3 -0.55 0.24
-2 18 3 -0.1 0.26
2 3 18 -0.09 0.21
2 3 18 -0.12 0.18
-18 2 -3 -0.26 0.12
-2 -3 18 0.06 0.23
-2 3 -18 0.01 0.21
3 -2 18 -0.2 0.22
-3 -18 2 -0.47 0.23
-3 18 -2 -0.2 0.26
-18 3 2 -0.17 0.17
-18 3 2 -0.27 0.16
-18 2 -3 -0.17 0.12
-3 2 18 0.1 0.22
-3 2 18 -0.07 0.18
-2 -18 -3 -0.27 0.22
2 18 -3 -0.11 0.28
-18 -2 3 -0.35 0.19
-18 -2 3 -0.2 0.14
-18 -3 -2 -0.27 0.14
-18 -3 -2 -0.2 0.1
3 18 2 -0.23 0.28
3 -18 -2 -0.2 0.21
-3 18 3 -0.17 0.26
3 18 3 0.39 0.27
3 -18 -3 -0.09 0.22
3 -3 18 -0.13 0.23
3 3 -18 -0.28 0.24
3 3 18 0.11 0.21
-18 -3 3 -0.07 0.13
-18 3 -3 -0.04 0.12
-18 3 -3 -0.08 0.13
-18 3 3 -0.15 0.17
-18 3 3 -0.12 0.17
-3 -18 -3 -0.17 0.22
-3 -18 3 0.56 0.27
-3 -3 18 -0.35 0.25
-3 3 18 -0.06 0.21
-3 3 18 0.3 0.19
3 18 -3 -0.03 0.28
3 3 18 -0.14 0.17
-18 -3 -3 -0.13 0.12
-18 -3 -3 -0.06 0.09
-18 -3 3 0.09 0.19
-3 18 -3 -0.45 0.26
3 -18 3 0.16 0.25
0 18 -4 0.63 0.28
0 -4 18 0.4 0.24
4 18 0 0.27 0.27
4 -18 0 0.29 0.22
4 0 18 0.16 0.22
4 0 18 0.65 0.16
0 18 4 0.46 0.28
-18 0 4 0.29 0.19
-18 0 4 0.53 0.15
0 4 -18 0.73 0.22
0 4 18 0.38 0.21
0 4 18 0.51 0.18
-4 18 0 0.25 0.28
0 -18 -4 0.27 0.23
-18 -4 0 0.63 0.18
-18 4 0 0.41 0.16
-18 4 0 0.25 0.16
-4 0 18 0.49 0.24
-4 0 18 0.82 0.19
-4 -18 0 0.19 0.24
0 -18 4 0.3 0.23
-4 -18 -1 0.15 0.23
4 18 -1 0.11 0.27
-1 -18 4 0.37 0.27
-4 18 1 -0.01 0.26
4 1 18 0.32 0.16
1 18 4 0.22 0.27
4 -18 1 0.11 0.25
-18 4 -1 0.24 0.14
-18 4 -1 0.37 0.15
-1 18 -4 -0.04 0.26
1 -18 -4 0.37 0.22
-18 1 4 0.16 0.18
-18 1 4 0.25 0.15
-1 4 18 0.14 0.18
1 -4 18 0.61 0.41
1 4 -18 0.22 0.21
-18 -4 1 0.05 0.18
-4 -1 18 0.12 0.26
-4 -1 18 0.12 0.17
-1 4 18 0.18 0.2
4 1 18 -0.04 0.2
-18 4 1 0.15 0.16
-4 18 -1 0.04 0.27
-4 1 18 0.34 0.18
-18 -4 -1 0.06 0.16
-18 -1 4 -0.03 0.15
1 -18 4 0.22 0.24
1 18 -4 0.47 0.28
-4 -18 1 0.42 0.24
4 -1 18 0.29 0.23
4 -1 18 0.15 0.15
-1 -4 18 0.21 0.23
-1 -18 -4 -0.03 0.22
4 18 1 0.24 0.27
-1 18 4 0.24 0.26
-18 4 1 0.38 0.16
4 -18 -1 0.22 0.22
-18 -1 4 0.16 0.19
-4 1 18 0.15 0.23
-4 -2 18 0.19 0.25
-2 18 -4 -0.02 0.27
2 -18 -4 -0.1 0.22
-18 4 -2 -0.18 0.13
-18 4 -2 0.15 0.15
-4 -18 -2 0.43 0.24
2 18 4 -0.09 0.28
-2 4 18 0.17 0.21
4 2 18 -0.33 0.21
4 2 18 0.03 0.16
-2 4 18 -0.24 0.18
-2 -18 4 0.15 0.26
4 18 -2 -0.44 0.26
-18 -4 2 0.06 0.19
2 -4 18 -0.09 0.23
2 4 -18 -0.06 0.21
-4 18 2 -0.4 0.27
4 -18 2 -0.17 0.24
-18 2 4 -0.07 0.18
-18 2 4 0.23 0.17
2 4 18 -0.21 0.16
4 18 2 -0.14 0.27
-2 18 4 -0.06 0.27
2 -18 4 0.02 0.23
2 18 -4 0.03 0.3
-4 2 18 -0.02 0.22
4 -2 18 -0.03 0.22
-18 -2 4 -0.17 0.19
-18 -2 4 -0.15 0.14
4 -2 18 0.25 0.16
-18 -4 -2 0.02 0.1
-18 4 2 0.06 0.16
-4 -18 2 0.12 0.24
-4 18 -2 0.17 0.28
2 4 18 0.04 0.2
-2 -4 18 0.18 0.24
-2 4 -18 0.1 0.21
-18 4 2 -0.14 0.16
4 -18 -2 0.17 0.23
-4 2 18 0.25 0.18
-2 -18 -4 -0.2 0.21
-18 -4 -2 0.11 0.15
-18 4 -3 1.08 0.16
-3 -18 4 1.35 0.28
-18 4 -3 1.3 0.18
3 -4 18 1.59 0.27
3 4 -18 1.57 0.26
-18 -4 3 1.27 0.23
4 18 -3 1.11 0.3
-18 3 4 1.08 0.22
-3 4 18 0.98 0.24
-4 -18 -3 1.15 0.26
-3 4 18 1.64 0.23
-3 18 -4 1.51 0.3
4 3 18 1.08 0.23
4 3 18 1.12 0.2
-18 3 4 1.13 0.2
-4 18 3 1.35 0.3
4 -18 3 1 0.26
3 18 4 1.24 0.31
-4 -3 18 0.88 0.28
3 -18 -4 1.29 0.25
-18 4 3 1.6 0.21
-3 -4 18 1.36 0.28
4 3 -18 1.18 0.26
-3 18 4 1.14 0.3
-3 -18 -4 0.96 0.25
3 -18 4 1.27 0.27
3 18 -4 1.01 0.29
-18 -3 4 1.6 0.24
3 4 18 1.49 0.24
3 4 18 1.79 0.21
4 -3 18 1.17 0.26
-18 3 -4 2.17 0.25
-18 3 -4 2.3 0.26
-4 3 18 1.25 0.25
-18 -3 4 1.45 0.18
4 -18 -3 1.38 0.26
-18 4 3 1.28 0.2
-3 4 -18 1.08 0.23
4 18 3 1.5 0.3
-18 -4 -3 1.92 0.22
-18 -4 -3 1.24 0.18
-4 3 18 1.55 0.22
-4 18 -3 1.22 0.3
-4 -18 3 1.11 0.29
4 4 18 0.25 0.17
-4 18 -4 0.82 0.27
-18 4 4 0.81 0.19
-18 4 -4 0.58 0.13
-4 18 4 0.47 0.28
4 -18 -4 0.49 0.22
-4 -4 18 0.2 0.25
-4 4 -18 0.53 0.2
-4 4 18 0.47 0.21
-4 4 18 0.65 0.21
4 18 -4 0.46 0.27
4 18 4 0.65 0.28
4 -18 4 0.84 0.27
4 -4 18 0.3 0.24
4 4 -18 0.53 0.22
4 4 18 0.45 0.2
-4 -18 4 0.48 0.25
-18 -4 -4 0.52 0.12
-18 -4 -4 0.64 0.09
-18 -4 4 0.56 0.2
-18 4 -4 0.56 0.12
-4 -18 -4 0.5 0.22
-18 4 4 0.67 0.18
0 18 5 -0.16 0.25
0 18 -5 0.07 0.28
-18 5 0 0.09 0.16
-5 0 18 -0.07 0.22
-5 0 18 0.14 0.17
0 -18 -5 0.14 0.22
0 -18 5 -0.08 0.26
0 -5 18 0.26 0.24
0 5 -18 0.1 0.22
0 5 18 -0.07 0.2
0 5 18 -0.01 0.17
5 -18 0 -0.07 0.22
5 18 0 -0.3 0.27
-5 18 0 -0.02 0.26
-5 -18 0 -0.14 0.23
-18 0 5 0.02 0.15
5 0 18 -0.03 0.2
5 0 18 -0.1 0.15
-18 -5 0 -0.06 0.17
-18 0 5 0.1 0.19
-5 -1 18 0.44 0.18
-1 5 18 0.21 0.21
-5 18 1 0.18 0.27
5 18 -1 0.26 0.26
5 1 18 0.05 0.15
1 -5 18 0.29 0.25
-5 -1 18 0.06 0.24
-18 1 5 0.02 0.19
-18 1 5 0.27 0.16
-5 -18 -1 -0.19 0.23
5 1 18 -0.03 0.2
1 18 5 -0.01 0.27
-18 -5 1 0.04 0.18
-18 5 -1 0.12 0.16
1 5 -18 -0.11 0.21
1 -18 -5 0.48 0.21
-1 5 18 0.09 0.18
5 -18 1 -0.14 0.22
-1 -18 5 0.11 0.24
-1 18 -5 -0.08 0.27
-1 18 5 -0.09 0.27
-5 1 18 0.16 0.23
1 5 18 -0.14 0.21
1 18 -5 0 0.26
-5 1 18 0.05 0.17
-18 -1 5 -0.04 0.2
-18 -1 5 0.09 0.15
5 -18 -1 -0.06 0.22
-1 -18 -5 0.34 0.23
-1 5 -18 0.21 0.21
-18 5 1 0.17 0.17
-1 -5 18 0.17 0.25
-5 18 -1 -0.15 0.27
-18 -5 -1 -0.14 0.16
5 -1 18 -0.11 0.21
1 5 18 0.11 0.2
-5 -18 1 0 0.22
1 -18 5 0.3 0.24
18 5 -1 0.32 0.17
5 18 1 -0.01 0.26
5 -1 18 0 0.14
-2 5 18 0.32 0.21
-18 -5 2 -0.01 0.18
-2 5 18 0.03 0.18
2 5 -18 0.01 0.22
5 18 -2 0.26 0.28
-18 2 5 -0.01 0.16
2 18 5 -0.04 0.26
2 -18 -5 -0.13 0.21
-18 2 5 -0.01 0.18
-2 -18 5 0.11 0.24
5 -18 2 0.19 0.25
-18 5 -2 0.15 0.16
5 2 18 -0.14 0.16
-5 -2 18 0.04 0.25
-5 -18 -2 0.2 0.24
5 2 18 0.44 0.2
-5 18 2 0.2 0.26
-2 18 -5 0.34 0.27
5 18 2 -0.46 0.27
5 -2 18 -0.08 0.21
-18 -2 5 -0.09 0.18
-2 -18 -5 0.3 0.22
2 5 18 -0.16 0.2
-18 5 2 0.22 0.17
-18 5 2 0.14 0.17
-2 5 -18 -0.59 0.34
-2 18 5 0.22 0.27
-18 -2 5 0.16 0.15
2 -18 5 -0.21 0.24
-5 2 18 0.09 0.18
-5 -18 2 0.15 0.24
-5 18 -2 0.02 0.27
2 18 -5 -0.09 0.26
-2 -5 18 -0.15 0.25
-5 2 18 -0.05 0.22
5 -2 18 0.08 0.14
18 5 -2 0.02 0.17
5 -18 -2 -0.23 0.22
2 5 18 -0.02 0.23
-18 -5 -2 0.2 0.16
5 -18 3 0.14 0.24
-18 3 5 -0.09 0.19
-3 5 18 -0.3 0.17
-18 5 -3 -0.26 0.13
5 3 18 -0.23 0.15
3 18 5 -0.36 0.26
-5 -3 18 -0.19 0.27
5 3 18 0.1 0.19
-18 -5 3 -0.04 0.19
-5 -18 -3 -0.09 0.22
3 -18 -5 0.23 0.22
3 5 -18 -0.32 0.23
-18 3 5 -0.15 0.16
5 18 -3 -0.16 0.26
-3 18 -5 -0.29 0.26
-5 18 3 -0.03 0.27
-3 5 18 -0.03 0.2
3 -5 18 -0.14 0.23
-3 -18 5 0.15 0.25
-3 -5 18 0.2 0.25
-18 5 3 0.02 0.17
5 -3 18 0.03 0.21
-5 -18 3 0.23 0.26
-5 3 18 -0.11 0.18
3 18 -5 0.13 0.26
18 5 -3 -0.04 0.18
-3 18 5 0.32 0.27
-3 5 -18 0.18 0.2
-18 -3 5 -0.08 0.14
-18 -3 5 0.05 0.19
5 -18 -3 -0.05 0.21
-5 3 18 0.25 0.21
-18 -5 -3 -0.03 0.15
3 -18 5 0.06 0.23
-5 18 -3 -0.29 0.27
-18 5 3 -0.19 0.17
3 5 18 0.27 0.19
3 5 18 -0.14 0.17
5 18 3 0.13 0.26
-3 -18 -5 0.09 0.21
-5 -18 -4 0.16 0.22
4 -18 -5 -0.1 0.2
-4 5 18 -0.11 0.17
-5 4 -18 0.04 0.19
4 18 5 0.24 0.27
5 -18 4 -0.02 0.23
5 18 -4 0 0.26
-4 -18 5 -0.06 0.26
5 4 18 0.07 0.16
-5 18 4 0.19 0.27
-18 5 -4 0.01 0.15
5 4 18 0.17 0.19
4 5 -18 0.15 0.23
-5 -4 18 -0.28 0.25
-4 18 -5 0 0.26
-18 4 5 -0.06 0.18
-18 -5 4 -0.03 0.19
4 -5 18 -0.17 0.23
-18 4 5 0.18 0.17
-4 5 18 0.22 0.21
5 18 4 -0.17 0.26
-5 18 -4 -0.32 0.26
-4 5 -18 -0.02 0.19
-5 4 18 0.04 0.19
-4 -18 -5 -0.02 0.21
-4 -5 18 -0.11 0.26
-5 -18 4 0.09 0.24
18 5 -4 -0.15 0.19
-18 5 4 -0.07 0.17
-18 -4 5 -0.14 0.19
-5 4 18 0.11 0.21
5 -18 -4 0.07 0.22
-18 4 -5 -0.13 0.09
-18 4 -5 -0.03 0.12
4 5 18 0.35 0.2
-4 18 5 0.01 0.26
-18 5 4 -0.12 0.17
4 -18 5 0.25 0.23
4 18 -5 -0.18 0.27
-18 -5 -4 0.02 0.12
5 -4 18 -0.21 0.22
5 4 -18 0.02 0.22
4 5 18 0.22 0.17
-5 5 18 0.36 0.19
-5 -18 5 -0.08 0.26
-18 -5 5 0.18 0.2
-18 5 -5 0.35 0.15
-18 5 5 0.56 0.19
5 -5 18 0.31 0.24
5 5 -18 0.47 0.25
-5 5 18 0.19 0.23
-5 -5 18 0.43 0.25
-5 5 -18 -0.05 0.19
5 5 18 0.2 0.17
5 18 -5 0.45 0.28
5 18 5 0.42 0.29
18 5 -5 0.14 0.2
-5 -18 -5 0.06 0.21
5 -18 5 0.17 0.24
-5 18 -5 0.3 0.27
5 -18 -5 0.29 0.21
5 5 18 0.47 0.19
-5 18 5 0.04 0.25
-18 5 5 0.23 0.17
-18 -6 0 -0.19 0.18
6 0 18 -0.27 0.2
-18 0 6 -0.08 0.15
18 6 0 -0.02 0.16
-6 18 0 -0.24 0.26
0 -6 18 0.17 0.25
0 6 -18 0.37 0.23
0 6 18 -0.15 0.18
-6 -18 0 -0.04 0.23
6 18 0 -0.24 0.26
0 18 6 -0.22 0.27
0 6 18 0 0.19
-18 0 6 -0.06 0.19
6 -18 0 0.02 0.22
6 0 18 0.04 0.15
-18 6 0 0.13 0.16
-6 0 18 -0.16 0.22
-6 0 18 -0.04 0.17
0 -18 -6 -0.49 0.22
0 -18 6 0.35 0.25
0 18 -6 -0.51 0.26
-18 1 6 -0.07 0.16
6 18 -1 -0.26 0.26
-18 -6 1 -0.19 0.18
-6 -18 -1 -0.12 0.24
-6 18 1 -0.28 0.25
-6 -1 18 -0.1 0.24
1 18 6 0.16 0.26
6 1 18 -0.16 0.19
-18 1 6 0.07 0.18
6 1 18 -0.15 0.15
1 6 -18 -0.01 0.22
-6 -1 18 0.01 0.17
18 6 1 -0.12 0.15
-1 18 -6 0 0.25
1 -18 -6 -0.29 0.21
-18 6 -1 -0.16 0.16
-1 6 18 0.01 0.19
1 -6 18 -0.18 0.24
-1 -18 6 -0.36 0.24
-1 6 18 -0.1 0.18
6 -18 1 0.03 0.21
-1 -18 -6 0.07 0.22
-18 -1 6 -0.21 0.15
1 6 18 -0.11 0.18
-6 -18 1 -0.12 0.23
6 -1 18 -0.14 0.14
18 6 -1 0.17 0.17
1 18 -6 -0.06 0.26
-6 18 -1 -0.27 0.28
-18 -6 -1 -0.12 0.18
18 -6 1 -0.05 0.12
1 6 18 0.14 0.19
-6 1 18 -0.13 0.23
6 -18 -1 -0.07 0.22
-18 -1 6 0.1 0.2
6 -1 18 0.03 0.2
-1 6 -18 0.04 0.22
1 -18 6 0.07 0.25
-18 6 1 -0.1 0.17
-1 18 6 0.17 0.27
6 18 1 -0.04 0.26
-1 -6 18 -0.1 0.26
-6 1 18 -0.2 0.16
-2 6 18 0.31 0.2
-18 2 6 -0.13 0.16
-18 2 6 0.13 0.19
18 6 2 0 0.14
-6 -18 -2 0.14 0.23
6 -18 2 -0.04 0.24
6 18 -2 0.12 0.26
-2 6 18 -0.02 0.18
-2 -18 6 0.18 0.25
-6 18 2 -0.18 0.26
6 2 18 0.28 0.19
6 2 18 -0.04 0.16
-2 18 -6 -0.05 0.27
2 -6 18 0.13 0.24
2 -18 -6 0.02 0.2
2 18 6 0.1 0.27
-6 -2 18 -0.35 0.24
-18 -6 2 -0.21 0.18
2 6 -18 0.34 0.24
-18 6 -2 -0.17 0.15
-18 -6 -2 -0.03 0.17
18 6 -2 -0.2 0.18
-2 -6 18 0.05 0.25
-6 -18 2 0.01 0.25
-6 18 -2 0.15 0.27
2 18 -6 0.14 0.26
2 -18 6 0.28 0.26
-18 6 2 -0.09 0.18
18 -6 2 -0.04 0.11
6 -2 18 0.1 0.14
6 18 2 -0.18 0.25
-6 2 18 -0.16 0.22
-6 2 18 -0.08 0.18
-2 -18 -6 0.28 0.21
-18 -2 6 -0.09 0.14
-18 -2 6 -0.1 0.19
-2 18 6 -0.04 0.25
-2 6 -18 0.05 0.22
2 6 18 0.11 0.35
2 6 18 0.09 0.3
6 -18 -2 0.23 0.21
6 -2 18 -0.11 0.21
-6 -3 18 -0.06 0.27
18 6 3 0.08 0.13
-18 -6 3 -0.2 0.19
-6 -18 -3 0.21 0.22
-6 18 3 0.22 0.27
6 3 18 -0.07 0.15
-3 6 18 -0.22 0.19
-18 3 6 0.08 0.17
3 18 6 -0.35 0.26
-3 -18 6 0.09 0.26
6 3 18 0.06 0.19
-3 6 18 -0.08 0.2
-18 6 -3 -0.12 0.15
6 -18 3 0.05 0.23
3 -18 -6 0.02 0.2
-18 3 6 -0.09 0.19
-3 18 -6 -0.1 0.27
3 6 -18 -0.1 0.22
6 18 -3 0.02 0.26
-3 6 -18 -0.03 0.34
-18 -3 6 0.11 0.14
-6 3 18 0.04 0.18
-18 -6 -3 -0.3 0.15
3 -18 6 -0.29 0.23
3 18 -6 -0.18 0.28
-3 18 6 0.34 0.26
6 -18 -3 0.12 0.22
3 6 18 -0.12 0.19
3 6 18 -0.09 0.18
-3 -6 18 0.34 0.25
6 -3 18 0.29 0.23
-18 -3 6 -0.19 0.2
18 -6 3 -0.05 0.1
-6 -18 3 0 0.25
-18 6 3 -0.2 0.16
-3 -18 -6 -0.22 0.22
18 6 -3 0.27 0.19
-6 18 -3 0.18 0.26
-6 3 18 0.02 0.22
6 18 3 0.07 0.27
4 -18 -6 -0.11 0.2
-4 6 18 0.09 0.22
-6 -4 18 -0.22 0.26
4 -6 18 0.01 0.23
-4 -18 6 -0.16 0.25
-4 6 18 0.11 0.18
-4 18 -6 -0.06 0.27
-6 -18 -4 0.09 0.23
-6 18 4 0.15 0.27
-18 -6 4 -0.02 0.2
-6 4 -18 -0.03 0.18
-18 6 -4 -0.18 0.15
4 18 6 -0.17 0.27
6 4 18 0.08 0.19
-18 4 6 -0.31 0.18
-18 4 6 0.14 0.16
6 -18 4 -0.04 0.24
6 4 18 -0.03 0.16
18 6 4 0.13 0.12
4 6 -18 0.21 0.24
6 18 -4 0.18 0.27
-4 6 -18 -0.36 0.21
-6 18 -4 -0.31 0.25
-18 6 4 0.2 0.17
4 6 18 0.04 0.18
-4 18 6 -0.17 0.26
4 6 18 0.2 0.19
18 6 -4 0.02 0.2
4 18 -6 0.14 0.27
6 -4 18 -0.2 0.21
6 18 4 0.03 0.26
-6 4 18 -0.16 0.23
-6 4 18 -0.02 0.19
-4 -18 -6 -0.11 0.22
6 -18 -4 -0.11 0.2
18 -6 4 0.06 0.1
-18 -6 -4 -0.04 0.13
-4 -6 18 0.22 0.27
4 -18 6 -0.09 0.23
6 4 -18 -0.04 0.21
-18 -4 6 0.16 0.2
-6 -18 4 0.05 0.24
-5 6 18 -0.23 0.19
-6 18 5 0.18 0.24
-6 -5 18 0.06 0.27
-18 5 6 -0.08 0.17
6 18 -5 -0.18 0.27
5 -6 18 -0.03 0.23
-6 -18 -5 -0.09 0.22
-5 6 18 -0.09 0.21
-6 5 -18 0.2 0.19
-18 6 -5 -0.3 0.15
5 -18 -6 0.13 0.19
6 5 18 0.18 0.17
-18 -6 5 -0.04 0.2
5 18 6 0.21 0.27
6 -18 5 -0.06 0.24
-5 -18 6 -0.09 0.25
6 5 18 0.06 0.18
18 5 -6 0.38 0.21
5 6 -18 -0.01 0.21
-18 5 6 -0.19 0.19
-5 18 -6 -0.09 0.26
-18 5 -6 -0.07 0.13
-6 5 18 0.22 0.21
5 6 18 -0.03 0.19
-5 6 -18 0.07 0.21
18 6 -5 -0.05 0.21
-6 18 -5 -0.38 0.26
-18 6 5 -0.07 0.16
-6 5 18 -0.28 0.18
-5 18 6 0.11 0.27
-5 -18 -6 0.04 0.22
5 -18 6 -0.07 0.24
5 18 -6 0.07 0.28
6 -18 -5 -0.19 0.19
6 -5 18 0.06 0.22
6 5 -18 -0.09 0.23
6 18 5 -0.28 0.26
-18 -6 -5 -0.11 0.11
-5 -6 18 -0.2 0.24
-6 -18 5 -0.3 0.25
-18 -5 6 0.33 0.2
18 -6 5 -0.05 0.09
6 6 18 0.07 0.18
-18 6 6 0.03 0.17
-6 -18 -6 -0.08 0.21
-6 -18 6 0.3 0.25
-6 -6 18 0.06 0.26
-6 6 -18 -0.23 0.2
-6 6 18 0.11 0.21
-6 6 18 -0.19 0.19
-6 18 -6 -0.03 0.26
-6 18 6 -0.04 0.26
18 6 -6 0.22 0.22
6 -18 6 -0.19 0.25
6 -6 18 -0.22 0.24
-18 6 -6 0.01 0.15
-18 6 6 0.09 0.19
-18 -6 6 -0.1 0.21
6 18 -6 0.15 0.28
6 18 6 0.23 0.28
6 6 -18 -0.06 0.23
6 6 18 0.05 0.19
6 -18 -6 0.18 0.21
18 -6 6 -0.06 0.09
-18 -7 0 0.23 0.2
-7 18 0 -0.05 0.26
-7 0 18 -0.07 0.23
-7 0 18 0.12 0.16
0 -18 -7 0.38 0.22
0 -7 18 -0.02 0.25
7 0 18 0.2 0.2
-18 7 0 0 0.17
0 -18 7 0.08 0.24
18 -7 0 0.01 0.13
7 0 18 0.19 0.15
-18 0 7 0.08 0.16
-7 -18 0 -0.2 0.23
7 18 0 0.03 0.27
0 7 -18 0.21 0.23
0 7 18 0.08 0.19
0 18 -7 0.54 0.28
0 18 7 0.03 0.27
-18 0 7 0.14 0.2
7 -18 0 0.35 0.23
18 7 0 0.17 0.18
-1 7 18 -0.12 0.18
-7 -1 18 -0.1 0.16
7 1 18 -0.09 0.15
18 -7 -1 0.01 0.13
7 1 18 -0.03 0.19
18 7 1 -0.24 0.16
-1 -18 7 0.23 0.26
1 7 -18 -0.12 0.24
1 18 7 0.13 0.27
1 -18 -7 0.01 0.21
7 18 -1 -0.06 0.27
-7 18 1 -0.03 0.25
-7 -18 -1 -0.03 0.23
7 -18 1 -0.29 0.21
-1 18 -7 -0.06 0.26
1 -7 18 -0.29 0.25
-18 1 7 -0.05 0.16
-18 -7 1 -0.24 0.2
-18 7 -1 -0.07 0.17
-18 1 7 0.32 0.2
-7 -1 18 0.21 0.24
7 -18 -1 0.02 0.21
-1 18 7 0.09 0.26
-18 -1 7 -0.08 0.15
-18 -1 7 -0.02 0.19
-7 18 -1 -0.34 0.27
7 18 1 0.03 0.25
1 18 -7 0.05 0.28
1 7 18 -0.01 0.19
7 -1 18 -0.13 0.14
-18 7 1 -0.28 0.16
-18 -7 -1 -0.17 0.19
-1 -7 18 -0.22 0.25
18 -7 1 -0.19 0.12
18 7 -1 0.12 0.18
-7 -18 1 -0.21 0.23
-1 7 -18 -0.12 0.23
-7 1 18 0.13 0.25
-7 1 18 0.05 0.16
7 -1 18 0.05 0.19
-1 -18 -7 -0.21 0.21
1 -18 7 -0.11 0.26
2 18 7 -0.01 0.27
-2 7 18 0.06 0.19
2 -7 18 -0.02 0.24
-18 -7 2 -0.19 0.2
-18 7 -2 -0.1 0.16
-7 -2 18 -0.28 0.17
-18 2 7 -0.08 0.16
-7 -18 -2 -0.16 0.22
7 -18 2 0.19 0.23
2 -18 -7 0.07 0.2
-2 -18 7 0.02 0.26
-2 7 18 0.29 0.23
7 18 -2 -0.13 0.26
-7 18 2 0.22 0.27
2 7 -18 0.05 0.23
18 -7 -2 -0.02 0.14
18 7 2 0 0.15
7 2 18 0.12 0.18
7 2 18 -0.06 0.14
-18 2 7 0.01 0.19
-2 18 -7 0.1 0.25
-7 -2 18 -0.26 0.24
2 7 18 0.09 0.19
-18 7 2 0 0.17
-18 -2 7 0.14 0.19
7 18 2 0.27 0.27
-18 -7 -2 -0.12 0.18
-7 2 18 0.01 0.17
-7 18 -2 0.07 0.26
18 -7 2 0.11 0.12
2 18 -7 -0.23 0.27
-2 7 -18 -0.25 0.24
7 -2 18 -0.16 0.2
2 -18 7 -0.02 0.24
-7 -18 2 0.04 0.25
18 7 -2 0 0.19
-2 -18 -7 -0.06 0.22
-18 -2 7 -0.23 0.15
7 -2 18 -0.13 0.13
7 -18 -2 0.02 0.22
-2 -7 18 0.05 0.24
-7 2 18 0.29 0.24
-2 18 7 0.03 0.26
-18 3 7 -0.07 0.19
7 -18 3 -0.03 0.24
-3 7 18 0.13 0.2
-3 -18 7 -0.06 0.25
-3 18 -7 0.16 0.26
7 3 18 0.24 0.2
18 -7 -3 0.23 0.14
3 -18 -7 0.06 0.19
-3 7 18 0.05 0.23
18 7 3 0.08 0.15
3 -7 18 -0.14 0.23
3 7 -18 0.15 0.24
7 3 18 0.02 0.16
-18 3 7 0.26 0.17
-18 -7 3 0.15 0.21
3 18 7 -0.09 0.26
7 18 -3 0.02 0.27
-7 -18 -3 0.07 0.23
-7 18 3 -0.41 0.26
-7 -3 18 0.07 0.27
-18 7 -3 0.08 0.17
3 7 18 -0.12 0.32
7 -18 -3 -0.11 0.21
-7 -18 3 -0.17 0.25
-18 -3 7 -0.06 0.2
7 18 3 -0.14 0.26
3 7 18 0.08 0.31
-3 7 -18 0.02 0.23
3 -18 7 0.28 0.26
3 18 -7 -0.58 0.27
-3 -7 18 -0.23 0.25
-3 18 7 0.21 0.27
-18 7 3 -0.16 0.18
18 -7 3 0.19 0.12
18 7 -3 0.03 0.19
-7 18 -3 -0.35 0.26
7 -3 18 0.04 0.22
-7 3 18 0.1 0.19
-18 -7 -3 -0.03 0.16
-18 -3 7 0.12 0.15
-7 3 18 0.4 0.24
-3 -18 -7 -0.01 0.22
7 4 18 0.12 0.16
7 -18 4 -0.49 0.23
7 18 -4 0.21 0.27
-4 -18 7 -0.53 0.23
-4 7 18 -0.04 0.18
-18 7 -4 0.13 0.17
-7 -4 18 0.04 0.26
18 7 4 0.07 0.13
-7 4 -18 -0.13 0.18
7 4 18 0.04 0.19
4 -7 18 0.35 0.36
4 7 -18 0.3 0.23
-7 -18 -4 -0.06 0.23
-18 -7 4 0.12 0.21
-7 18 4 0.03 0.27
-18 4 7 -0.07 0.16
-4 18 -7 0.23 0.27
4 18 7 -0.04 0.26
-18 4 7 0.15 0.18
-4 7 18 -0.03 0.21
4 -18 -7 0.26 0.21
7 -18 -4 -0.21 0.19
-7 -18 4 0.01 0.24
-18 7 4 -0.03 0.17
-7 4 18 -0.19 0.19
4 7 18 -0.01 0.18
-7 4 18 -0.09 0.22
-4 -18 -7 -0.09 0.22
4 18 -7 0.28 0.28
-18 -7 -4 -0.24 0.15
-18 -4 7 -0.23 0.2
-7 18 -4 0.17 0.26
18 7 -4 -0.17 0.2
7 -4 18 -0.11 0.22
7 4 -18 0.2 0.24
-4 -7 18 -0.08 0.27
4 -18 7 0.15 0.26
18 -7 4 -0.23 0.11
-4 18 7 -0.39 0.26
4 7 18 0.39 0.21
7 18 4 -0.23 0.27
-7 18 5 -0.07 0.25
-18 7 -5 -0.38 0.17
7 -18 5 -0.04 0.25
-7 -5 18 0.06 0.26
7 18 -5 0.25 0.27
-7 -18 -5 0.24 0.22
-5 7 18 0 0.19
-18 5 7 0.14 0.2
7 5 18 -0.11 0.17
-7 5 -18 0.19 0.2
5 -7 18 0 0.25
18 7 5 0.06 0.12
-5 7 18 0.18 0.22
5 18 7 0.15 0.28
7 5 18 0.15 0.18
-5 18 -7 -0.56 0.27
-18 -7 5 0.07 0.21
5 -18 -7 0.05 0.2
5 7 -18 0.2 0.25
-5 -18 7 0.01 0.26
-18 5 7 0.2 0.17
18 5 -7 -0.07 0.22
7 18 5 0.31 0.27
7 -5 18 -0.02 0.22
-18 -5 7 -0.17 0.2
-7 18 -5 0.18 0.26
-7 -18 5 -0.2 0.24
5 7 18 0.15 0.2
7 5 -18 -0.23 0.22
7 -18 -5 -0.2 0.22
-18 -7 -5 -0.05 0.13
-5 18 7 -0.32 0.27
5 -18 7 0.26 0.24
-18 7 5 -0.06 0.17
5 18 -7 -0.36 0.28
18 -7 5 0.14 0.11
-5 7 -18 0.23 0.23
-7 5 18 -0.13 0.2
-7 5 18 0.05 0.18
-5 -18 -7 -0.02 0.21
18 7 -5 0.08 0.21
5 7 18 0.03 0.18
-5 -7 18 0.26 0.26
-6 7 18 0.28 0.22
7 -18 6 0.02 0.25
18 7 6 0.24 0.11
6 -7 18 -0.04 0.24
-7 18 6 -0.09 0.25
6 -18 -7 -0.04 0.19
-18 7 -6 0.12 0.17
18 6 -7 0.05 0.22
-7 -18 -6 -0.17 0.21
6 18 7 0.36 0.27
18 -6 7 0.19 0.09
7 18 -6 0.16 0.29
7 6 18 0.09 0.18
7 6 18 0.21 0.18
-6 7 18 -0.4 0.19
-7 6 -18 -0.05 0.2
-18 -7 6 0.23 0.24
6 7 -18 -0.08 0.24
-6 18 -7 0.31 0.28
-18 6 7 0.31 0.22
-6 -18 7 0.23 0.27
-18 6 7 0.2 0.18
-7 -6 18 0.2 0.26
-7 6 18 -0.09 0.19
-6 -18 -7 0.44 0.21
6 7 18 0.03 0.19
6 18 -7 -0.22 0.28
7 -18 -6 -0.15 0.19
-6 -7 18 0.03 0.29
-7 -18 6 0.36 0.27
7 18 6 0.15 0.27
-18 7 6 0.09 0.18
18 -7 6 0.07 0.11
-7 18 -6 -0.12 0.27
6 -18 7 -0.02 0.24
18 7 -6 0.19 0.22
-18 -6 7 -0.03 0.23
7 -6 18 0.08 0.22
-6 7 -18 0.18 0.22
-6 18 7 -0.13 0.27
7 6 -18 0.29 0.24
-18 -7 -6 0.08 0.11
6 7 18 0.32 0.18
-18 6 -7 0.04 0.15
-7 6 18 0.09 0.22
7 -18 -7 -0.12 0.2
7 18 -7 -0.06 0.28
-18 -7 -7 -0.14 0.09
7 7 -18 -0.73 0.23
7 -7 18 0.18 0.24
-7 7 18 -0.38 0.21
-18 7 -7 -0.25 0.16
7 18 7 -0.12 0.28
18 -7 7 -0.31 0.1
7 7 18 -0.2 0.18
-7 -18 7 0.15 0.28
-7 7 -18 -0.31 0.22
-18 7 7 -0.32 0.22
-7 -7 18 0.05 0.27
-18 -7 7 0.34 0.3
-7 18 -7 -0.03 0.28
-7 18 7 -0.16 0.26
-7 -18 -7 -0.29 0.21
7 -18 7 0.26 0.25
7 7 18 -0.09 0.19
-7 7 18 -0.13 0.19
18 7 -7 -0.24 0.28
-8 18 0 -0.03 0.27
0 -8 18 0.05 0.25
-8 -18 0 -0.18 0.23
-18 0 8 -0.16 0.16
-18 8 0 -0.04 0.17
-8 0 18 -0.52 0.24
0 -18 8 0.34 0.26
8 18 0 -0.34 0.28
0 -18 -8 -0.44 0.21
-18 -8 0 -0.2 0.21
0 8 18 -0.18 0.2
8 -18 0 0.19 0.23
8 0 18 -0.11 0.2
18 -8 0 -0.29 0.14
0 18 8 -0.06 0.26
0 8 -18 0.01 0.24
0 18 -8 0.31 0.27
-18 0 8 -0.14 0.2
-8 0 18 -0.13 0.18
18 8 0 -0.13 0.18
8 0 18 -0.14 0.14
8 1 18 0.24 0.19
-1 8 18 0.25 0.21
1 -8 18 -0.01 0.25
-18 1 8 0.02 0.16
-18 8 -1 -0.22 0.17
8 -18 1 0 0.22
-1 -18 8 -0.17 0.26
-1 18 -8 0.3 0.28
-8 -18 -1 -0.09 0.24
-18 -8 1 0.5 0.22
1 8 -18 -0.3 0.23
1 18 8 -0.1 0.27
8 1 18 0.19 0.15
-18 1 8 -0.08 0.19
-8 18 1 0.03 0.26
1 -18 -8 0.25 0.22
18 8 1 0.15 0.18
-8 -1 18 0.13 0.18
-8 -1 18 0.07 0.26
18 -8 -1 0.08 0.14
8 18 -1 -0.16 0.26
-1 -8 18 0.12 0.25
8 -1 18 0 0.14
-18 8 1 0.16 0.18
18 8 -1 -0.09 0.19
-1 8 -18 0.18 0.22
-8 1 18 0.2 0.27
-8 1 18 0.22 0.19
18 -8 1 0.16 0.14
8 -18 -1 -0.3 0.21
1 -18 8 0.25 0.26
-8 -18 1 -0.08 0.25
8 18 1 -0.01 0.26
-1 -18 -8 0.41 0.21
-1 18 8 -0.3 0.25
1 8 18 0.09 0.19
-18 -1 8 -0.09 0.2
1 18 -8 0.12 0.28
8 -1 18 0.11 0.2
-8 18 -1 0 0.26
-18 -8 -1 0.16 0.2
-18 -1 8 -0.04 0.16
2 18 8 0.27 0.28
-18 2 8 0.33 0.19
-2 18 -8 0.47 0.28
8 18 -2 -0.08 0.27
-8 -2 18 0.09 0.19
-8 -18 -2 -0.05 0.23
-18 8 -2 0.37 0.18
18 8 2 0.18 0.17
8 2 18 0.3 0.15
-18 2 8 0.15 0.16
-2 8 18 0.12 0.21
2 -8 18 0.38 0.26
8 -18 2 0.13 0.22
-8 18 2 0.35 0.27
8 2 18 0.4 0.19
-18 -8 2 -0.04 0.22
18 -8 -2 0.21 0.15
2 8 -18 0.46 0.25
-8 -2 18 0.17 0.25
-2 -18 8 0.11 0.25
2 -18 -8 0.49 0.21
-2 -18 -8 0.31 0.21
18 -8 2 0.28 0.13
18 8 -2 0.26 0.2
-8 2 18 0.16 0.24
8 -2 18 0.33 0.22
-18 -2 8 0.41 0.21
2 -18 8 0.33 0.25
-2 -8 18 -0.11 0.26
8 -2 18 0.13 0.14
-18 -8 -2 0.08 0.19
2 18 -8 0.27 0.28
-8 2 18 0.05 0.19
2 8 18 0.3 0.2
8 -18 -2 0.12 0.23
-8 -18 2 0.06 0.26
-2 8 -18 0.38 0.23
8 18 2 -0.06 0.27
-8 18 -2 0.31 0.26
-18 8 2 0.34 0.18
-2 18 8 0.07 0.27
-18 -2 8 0.47 0.16
-18 3 8 -0.07 0.2
-18 -8 3 -0.26 0.21
8 3 18 0.08 0.18
-3 8 18 -0.01 0.2
-8 -3 18 -0.14 0.27
3 -18 -8 -0.19 0.19
-8 18 3 -0.22 0.27
3 -8 18 -0.15 0.25
8 -18 3 -0.3 0.23
8 18 -3 -0.06 0.28
-8 -18 -3 -0.06 0.23
18 -8 -3 -0.15 0.15
-3 -18 8 -0.07 0.26
-18 8 -3 -0.04 0.18
8 3 18 0.02 0.15
18 8 3 0.04 0.16
3 8 -18 -0.09 0.23
3 18 8 -0.17 0.27
-3 18 -8 0.14 0.28
-18 3 8 -0.13 0.16
3 8 18 0.15 0.19
3 -18 8 -0.48 0.25
-3 -8 18 0.07 0.27
8 -3 18 -0.21 0.21
8 -18 -3 -0.3 0.2
-18 -8 -3 -0.03 0.18
3 18 -8 0.19 0.29
-8 -18 3 -0.31 0.25
-3 8 -18 0.02 0.22
-8 3 18 -0.34 0.18
-18 8 3 -0.13 0.18
-8 3 18 -0.03 0.22
18 8 -3 -0.35 0.2
-18 -3 8 -0.31 0.2
-3 18 8 0.07 0.27
-18 -3 8 -0.07 0.15
8 18 3 0.04 0.26
-8 18 -3 -0.26 0.26
-3 -18 -8 -0.31 0.21
18 -8 3 -0.06 0.13
-4 18 -8 0.28 0.27
-8 18 4 0.28 0.27
18 8 4 0.56 0.16
4 18 8 0.41 0.27
-4 8 18 0.44 0.2
-8 -4 18 0.36 0.26
4 -8 18 0.23 0.24
-8 4 -18 0.56 0.2
18 -8 -4 0.54 0.16
4 8 -18 0.66 0.27
8 4 18 0.42 0.19
8 18 -4 0.95 0.29
-18 8 -4 0.55 0.19
-18 4 8 0.32 0.21
8 -18 4 0.32 0.25
-18 -8 4 0.7 0.24
-4 -18 8 1.14 0.28
4 -18 -8 0.41 0.2
-18 4 8 0.24 0.33
8 4 18 0.6 0.18
-8 -18 -4 0.64 0.24
-8 4 18 0.25 0.2
-18 8 4 0.54 0.2
-8 4 18 0.57 0.23
8 -18 -4 0.63 0.22
-18 -8 -4 0.52 0.17
-4 -18 -8 0.48 0.22
-4 8 -18 0.4 0.23
8 4 -18 0.61 0.24
-8 -18 4 0.73 0.28
8 -4 18 0.5 0.22
-4 18 8 0.8 0.28
-4 -8 18 0.25 0.28
4 8 18 0.5 0.23
4 18 -8 0.51 0.3
8 18 4 0.25 0.27
4 -18 8 0.63 0.26
-18 -4 8 0.48 0.23
18 -8 4 0.6 0.14
18 8 -4 0.68 0.23
-8 18 -4 0.35 0.28
5 18 8 -0.3 0.26
-5 -18 8 -0.06 0.25
-18 -8 5 -0.12 0.24
-18 5 8 -0.26 0.19
18 -8 -5 0.17 0.16
18 8 5 -0.17 0.14
-8 -18 -5 0.28 0.22
8 -18 5 0.42 0.24
8 5 18 0.14 0.18
8 18 -5 -0.18 0.28
-18 8 -5 -0.04 0.19
-8 18 5 0 0.26
-8 -5 18 -0.15 0.25
5 -18 -8 0.04 0.19
-5 8 18 -0.02 0.2
5 -8 18 0.23 0.26
5 8 -18 0.01 0.24
-5 18 -8 -0.05 0.26
8 5 18 -0.08 0.16
-18 5 8 -0.16 0.21
-8 5 -18 -0.13 0.19
-5 -18 -8 0.01 0.2
-8 5 18 0.33 0.23
8 -18 -5 -0.04 0.19
5 18 -8 0.49 0.28
18 8 -5 0 0.22
8 -5 18 0.33 0.23
-5 8 -18 -0.07 0.28
5 -18 8 0.23 0.25
-18 -8 -5 0.12 0.15
-5 18 8 0.5 0.27
18 -8 5 0.01 0.13
-8 18 -5 -0.21 0.25
-18 8 5 -0.24 0.18
-5 -8 18 0.35 0.26
-8 5 18 -0.11 0.18
-8 -18 5 -0.36 0.24
8 5 -18 0.01 0.23
5 8 18 -0.06 0.21
8 18 5 0.18 0.27
6 -8 18 0 0.35
8 6 18 -0.13 0.18
-6 -18 8 -0.27 0.26
-8 18 6 -0.11 0.26
-8 -18 -6 0 0.21
-18 6 8 -0.21 0.18
6 18 8 0.19 0.28
18 8 6 0.01 0.13
-18 6 8 0.1 0.19
-6 8 18 -0.1 0.2
8 6 18 -0.06 0.17
8 18 -6 -0.35 0.28
6 8 -18 -0.14 0.23
-8 -6 18 0.25 0.25
-8 6 -18 -0.13 0.2
-18 8 -6 0.35 0.19
18 -6 8 -0.18 0.08
6 -18 -8 0.01 0.2
8 -18 6 0.02 0.26
-6 18 -8 0.13 0.28
18 6 -8 -0.07 0.23
-18 -8 6 -0.08 0.24
-18 -8 -6 -0.11 0.13
-18 8 6 -0.45 0.29
18 8 -6 -0.39 0.22
-18 6 -8 0.09 0.13
6 -18 8 -0.15 0.24
-6 -8 18 0.08 0.28
6 8 18 0 0.19
-18 -6 8 0.11 0.24
-8 6 18 0.04 0.19
-6 -18 -8 -0.05 0.21
-6 8 -18 -0.03 0.24
-6 18 8 -0.28 0.26
18 -8 6 -0.22 0.12
8 -6 18 0.13 0.24
-8 -18 6 -0.08 0.26
-8 18 -6 -0.43 0.27
8 -18 -6 -0.01 0.21
6 18 -8 -0.01 0.27
8 6 -18 0.1 0.24
8 18 6 -0.17 0.27
-8 6 18 -0.03 0.22
8 7 18 0.33 0.19
18 8 7 0.15 0.13
-7 8 18 0.08 0.19
7 -18 -8 0.16 0.2
-18 -8 7 0.29 0.25
18 -7 8 0.21 0.1
-7 -18 8 0.29 0.28
-8 7 -18 0.35 0.22
-18 7 8 0.06 0.19
-18 8 -7 -0.27 0.19
7 8 -18 0.18 0.26
-8 -7 18 0.11 0.27
7 -8 18 0.31 0.25
-7 18 -8 -0.18 0.27
8 7 18 0.26 0.19
-8 18 7 -0.01 0.25
7 18 8 0.06 0.28
8 -18 7 -0.11 0.25
8 18 -7 0.06 0.29
-8 -18 -7 -0.07 0.23
18 7 -8 0.37 0.25
18 -8 7 0.05 0.13
7 8 18 0.05 0.2
8 7 -18 0.36 0.25
-7 8 -18 0.48 0.22
-8 7 18 0.53 0.2
-18 -7 8 -0.02 0.24
8 -18 -7 -0.01 0.2
-8 -18 7 0.27 0.27
8 -7 18 -0.09 0.23
-7 18 8 -0.03 0.26
-7 -8 18 0.09 0.26
-8 18 -7 0.49 0.29
-18 8 7 0.01 0.2
-18 7 -8 0.17 0.17
7 -18 8 0.12 0.25
7 18 -8 -0.34 0.29
18 8 -7 0.11 0.24
-8 7 18 0.07 0.22
8 18 7 0.29 0.28
-18 -8 -7 0.19 0.12
-7 -18 -8 0.22 0.23
18 -8 8 0.68 0.14
18 8 8 0.67 0.14
8 18 8 0.54 0.3
-18 -8 -8 0.72 0.12
-18 -8 8 0.65 0.28
-18 8 8 0.68 0.22
-8 -18 -8 0.65 0.24
8 -18 -8 0.57 0.22
18 8 -8 0.38 0.26
8 -18 8 0.56 0.27
8 -8 18 0.71 0.26
8 8 18 0.64 0.22
-8 -8 18 0.7 0.28
-8 8 -18 0.59 0.23
-8 8 18 0.69 0.26
-18 8 -8 0.8 0.2
8 18 -8 1.02 0.31
-8 18 8 0.76 0.29
-8 8 18 0.77 0.22
8 8 -18 0.86 0.28
-8 -18 8 0.35 0.28
-8 18 -8 0.71 0.3
-18 -9 0 0.09 0.22
0 18 9 0.27 0.27
-9 0 18 0.06 0.25
9 0 18 -0.19 0.14
0 9 -18 -0.06 0.23
0 9 18 0.15 0.2
-18 0 9 -0.06 0.25
-18 0 9 -0.43 0.28
18 -9 0 -0.06 0.15
-9 18 0 -0.03 0.27
9 0 18 0.18 0.2
-9 0 18 0.05 0.18
-18 9 0 -0.01 0.19
0 -9 -18 0.08 0.17
18 9 0 -0.09 0.2
0 -18 -9 0.14 0.2
0 -18 9 0.16 0.25
-9 -18 0 0.12 0.24
0 18 -9 -0.1 0.27
9 18 0 -0.09 0.27
0 -9 18 -0.01 0.27
9 -18 0 0.19 0.23
-18 1 9 -0.19 0.21
-9 -1 18 -0.29 0.27
-1 9 18 0.05 0.2
9 -18 1 -0.17 0.22
1 -9 18 0.22 0.27
-1 -18 9 -0.18 0.26
-1 18 -9 0.02 0.28
9 18 -1 0.08 0.27
18 9 1 0.33 0.2
-18 -9 1 0.07 0.22
-9 -18 -1 -0.21 0.25
-18 1 9 -0.17 0.2
-1 -9 -18 -0.2 0.16
-9 18 1 -0.25 0.26
1 9 -18 -0.16 0.25
-18 9 -1 0.04 0.2
1 -18 -9 -0.05 0.2
18 -9 -1 -0.11 0.15
1 18 9 -0.36 0.26
9 1 18 0.24 0.19
9 1 18 -0.17 0.14
-9 -1 18 -0.33 0.17
-18 -9 -1 0.02 0.21
-9 1 18 0.13 0.18
-1 18 9 -0.04 0.26
9 18 1 -0.1 0.28
18 -9 1 0.14 0.15
-9 18 -1 -0.12 0.26
-18 -1 9 -0.44 0.29
9 -18 -1 -0.15 0.22
1 9 18 -0.01 0.2
-9 1 18 0.23 0.25
9 -1 18 0.04 0.2
-1 -18 -9 -0.39 0.21
-1 -9 18 -0.03 0.26
-1 9 -18 -0.5 0.24
18 9 -1 -0.23 0.2
9 -1 18 0.11 0.14
1 -9 -18 -0.31 0.17
-9 -18 1 -0.18 0.27
-18 9 1 -0.09 0.19
1 -18 9 0.06 0.26
-18 -1 9 -0.34 0.24
1 18 -9 -0.17 0.29
2 -9 18 -0.11 0.25
-2 9 18 -0.24 0.21
-9 -18 -2 -0.43 0.23
-2 -18 9 0.29 0.29
2 -18 -9 -0.35 0.2
9 -18 2 -0.13 0.22
-9 -2 18 -0.51 0.25
9 2 18 0.13 0.19
9 2 18 -0.11 0.15
18 9 2 -0.13 0.18
-18 -9 2 0.12 0.22
-18 9 -2 -0.21 0.19
2 18 9 -0.05 0.26
-9 18 2 -0.33 0.26
2 9 -18 -0.04 0.22
-18 2 9 -0.16 0.19
-18 2 9 -0.01 0.18
18 -9 -2 -0.29 0.16
-9 -2 18 -0.21 0.18
-2 -9 -18 -0.3 0.16
9 18 -2 0.24 0.29
-2 18 -9 -0.36 0.28
-9 2 18 0.06 0.22
-9 -18 2 0.15 0.25
2 18 -9 0.29 0.29
-18 -2 9 0.02 0.2
2 -9 -18 0.14 0.18
9 -18 -2 0.26 0.21
9 -2 18 -0.21 0.2
9 -2 18 -0.2 0.13
-9 18 -2 -0.08 0.27
-18 -9 -2 -0.04 0.19
-2 -9 18 0.23 0.25
-2 9 -18 0.09 0.24
18 9 -2 -0.06 0.21
-9 2 18 -0.04 0.2
-2 18 9 -0.15 0.27
-2 -18 -9 -0.06 0.22
18 -9 2 -0.16 0.14
-18 -2 9 -0.15 0.22
-18 9 2 -0.32 0.18
2 9 18 0.19 0.2
2 -18 9 -0.16 0.25
9 18 2 -0.35 0.27
-9 -3 18 -0.39 0.27
18 -9 -3 0.02 0.16
-3 -18 9 0 0.27
-9 18 3 0.41 0.28
-18 -9 3 -0.29 0.23
-18 3 9 0.01 0.2
-18 9 -3 0.06 0.19
-3 18 -9 -0.24 0.28
3 -18 -9 -0.02 0.2
-18 3 9 -0.06 0.16
-9 -18 -3 -0.01 0.24
9 3 18 -0.22 0.15
9 -18 3 0.01 0.22
-3 9 18 -0.31 0.21
3 18 9 0.46 0.28
3 -9 18 -0.1 0.25
9 18 -3 -0.25 0.27
18 9 3 -0.17 0.17
3 9 -18 0.17 0.24
9 3 18 0.01 0.17
-3 -9 -18 -0.04 0.16
9 -3 18 -0.05 0.2
-18 -3 9 0.05 0.15
-3 9 -18 -0.22 0.22
-9 -18 3 0.26 0.26
-9 3 18 0.51 0.25
-3 -18 -9 0.06 0.21
3 9 18 -0.1 0.2
3 -18 9 0.07 0.26
3 18 -9 -0.31 0.28
-18 -9 -3 -0.19 0.18
9 -18 -3 0.11 0.21
9 -3 18 -0.09 0.13
18 9 -3 0.5 0.23
-3 18 9 -0.33 0.26
-18 9 3 0.04 0.18
9 18 3 0.08 0.27
-3 -9 18 0.02 0.26
18 -9 3 0.12 0.14
-18 -3 9 0.04 0.21
3 -9 -18 0.06 0.18
-9 3 18 -0.14 0.2
-9 18 -3 -0.11 0.27
9 4 18 -0.22 0.17
-18 9 -4 0.06 0.19
-9 18 4 -0.04 0.26
-4 18 -9 -0.24 0.29
9 -18 4 -0.05 0.25
9 18 -4 0.09 0.29
18 -9 -4 0.02 0.16
-4 -9 -18 -0.06 0.16
-4 9 18 -0.09 0.2
4 9 -18 -0.17 0.23
-4 -18 9 0.06 0.26
-18 4 9 -0.18 0.17
4 -18 -9 -0.06 0.2
9 4 18 -0.24 0.16
-18 -9 4 0.32 0.24
4 18 9 0.07 0.28
-9 -4 18 -0.3 0.25
-9 -18 -4 -0.07 0.23
18 9 4 -0.04 0.16
-18 4 9 0.19 0.19
4 -9 18 -0.2 0.25
-4 -18 -9 0.07 0.21
-9 18 -4 -0.29 0.27
9 18 4 -0.05 0.27
-4 9 -18 0.04 0.23
-18 -9 -4 0.01 0.17
-9 4 18 -0.03 0.23
-9 4 18 -0.05 0.2
4 -18 9 0.14 0.25
9 -4 18 0.22 0.22
18 9 -4 -0.34 0.22
-4 18 9 -0.23 0.26
-4 -9 18 -0.28 0.27
-9 -18 4 0.24 0.26
9 4 -18 -0.2 0.24
-18 -4 9 0.3 0.23
4 9 18 0.11 0.2
9 -18 -4 -0.15 0.21
-18 9 4 -0.1 0.19
18 -9 4 -0.01 0.13
4 18 -9 0.11 0.28
9 18 -5 -0.4 0.28
-5 9 18 0.25 0.23
5 -9 18 -0.11 0.24
18 9 5 0.04 0.17
-5 -9 -18 -0.1 0.16
-18 9 -5 0.01 0.2
18 -9 -5 0.32 0.2
-18 -9 5 0.13 0.23
-9 18 5 -0.27 0.27
5 9 -18 -0.23 0.24
5 18 9 0.29 0.28
-18 5 9 0.02 0.18
-18 5 9 0.03 0.18
-9 -18 -5 -0.19 0.23
-5 18 -9 -0.06 0.29
9 5 18 -0.12 0.18
-5 -18 9 -0.02 0.27
-9 5 -18 -0.09 0.18
9 5 18 0.09 0.17
-9 -5 18 0.2 0.25
5 -18 -9 0.1 0.2
9 -18 5 0.05 0.24
5 -18 9 0.06 0.26
18 -9 5 0.1 0.14
9 5 -18 -0.36 0.23
-5 -9 18 0.07 0.27
-5 9 -18 0.15 0.23
-9 5 18 -0.16 0.21
-9 5 18 0.19 0.19
-5 18 9 -0.08 0.27
5 9 18 0.15 0.2
9 -18 -5 0.34 0.2
-9 18 -5 0.02 0.27
5 18 -9 0.03 0.27
9 18 5 0.33 0.27
-18 -9 -5 -0.02 0.16
9 -5 18 -0.05 0.22
18 9 -5 0.21 0.23
-5 -18 -9 0.09 0.21
-18 9 5 0.01 0.21
-9 -18 5 -0.06 0.26
-18 -5 9 -0.03 0.24
9 -18 6 0.15 0.26
18 6 -9 0.22 0.23
-6 -18 9 0.2 0.29
6 18 9 0.54 0.29
-18 6 9 0.46 0.2
-18 6 9 0.28 0.2
-9 -18 -6 0.35 0.22
6 -9 18 0.29 0.24
9 6 18 0.29 0.19
-9 18 6 0.07 0.28
18 9 6 0.6 0.17
-9 -6 18 0.33 0.26
-6 9 18 0.34 0.23
9 18 -6 0.39 0.29
6 9 -18 0.13 0.26
-6 18 -9 -0.03 0.28
18 -9 -6 0.65 0.17
6 -18 -9 0.09 0.2
9 6 18 0.15 0.19
-9 6 -18 0.41 0.2
-18 9 -6 0.5 0.21
9 -18 -6 0.45 0.2
-9 6 18 0.14 0.24
9 -6 18 0.5 0.24
9 18 6 0.03 0.28
-6 -18 -9 0.42 0.22
6 18 -9 0.36 0.3
18 -9 6 0.4 0.14
-18 9 6 0.29 0.2
-9 6 18 0.19 0.2
6 9 18 0.05 0.35
-6 18 9 0.51 0.27
-18 -6 9 0.62 0.25
6 -18 9 0.19 0.27
-9 -18 6 0.43 0.28
-6 9 -18 0.49 0.24
-6 -9 18 0.27 0.29
-18 -9 -6 0.17 0.15
-18 6 -9 0.2 0.12
-9 18 -6 0.57 0.29
9 6 -18 0.43 0.26
-9 18 7 0.13 0.27
18 -7 9 -0.04 0.1
-9 -18 -7 0.23 0.24
-18 -9 7 -0.09 0.26
-18 9 -7 0.32 0.22
7 -9 18 -0.1 0.35
-18 7 9 0.15 0.2
9 -18 7 0.05 0.27
7 18 9 0.09 0.29
9 7 18 -0.14 0.19
7 9 -18 -0.04 0.28
-7 -18 9 -0.17 0.27
-7 18 -9 -0.32 0.28
-7 9 18 -0.25 0.21
18 9 7 0.11 0.16
9 7 18 0.01 0.2
18 7 -9 0.2 0.26
-9 7 -18 -0.31 0.21
-9 -7 18 0.24 0.28
9 18 -7 0.24 0.31
18 -9 -7 -0.06 0.18
7 -18 -9 0.24 0.21
-18 7 9 -0.05 0.21
-18 -7 9 0.2 0.27
-7 18 9 -0.06 0.26
7 -18 9 0.05 0.26
9 -7 18 0.03 0.23
-18 -9 -7 0.17 0.14
-9 -18 7 0.09 0.27
9 18 7 0.26 0.28
18 -9 7 -0.13 0.14
-7 -18 -9 0 0.21
-7 9 -18 0.11 0.45
-9 7 18 0.19 0.23
-7 -9 18 -0.25 0.27
-9 7 18 -0.22 0.2
9 7 -18 -0.17 0.25
9 -18 -7 0.2 0.23
18 9 -7 0.03 0.26
-9 18 -7 0.21 0.29
-18 9 7 -0.01 0.2
7 18 -9 -0.11 0.29
7 9 18 0.23 0.22
-18 7 -9 -0.26 0.15
-8 -18 9 0.54 0.28
-9 18 8 0.06 0.29
-18 9 -8 0.28 0.22
18 -8 9 0.06 0.13
-9 -18 -8 0.17 0.24
-18 -9 8 0.42 0.28
-9 8 -18 -0.04 0.22
18 9 8 0 0.15
9 18 -8 0.3 0.29
8 -9 18 -0.02 0.3
8 -18 -9 -0.01 0.19
-8 18 -9 -0.26 0.28
-18 -8 -9 0.05 0.09
8 18 9 0.08 0.29
8 9 -18 0.1 0.28
-8 9 18 0.1 0.24
-9 -8 18 0.39 0.29
-18 8 9 0.08 0.21
9 -18 8 0.64 0.28
9 8 18 0.02 0.2
9 8 18 0.2 0.21
18 -9 -8 -0.08 0.18
18 8 -9 0.25 0.26
-18 -9 -8 0.11 0.13
-8 18 9 -0.19 0.28
9 -8 18 -0.09 0.26
8 9 18 0.45 0.23
-8 -18 -9 0.01 0.22
-18 -8 9 0.13 0.27
-18 9 8 -0.02 0.21
-18 8 -9 -0.17 0.18
9 -18 -8 0.06 0.2
-9 18 -8 -0.01 0.3
9 18 8 -0.61 0.28
18 -9 8 -0.1 0.15
-9 8 18 0 0.22
9 8 -18 -0.23 0.27
8 -18 9 0.6 0.27
18 8 9 0 0.11
8 18 -9 -0.1 0.3
-9 -18 8 -0.12 0.28
18 9 -8 0.2 0.26
-9 8 18 0.41 0.24
-8 -9 18 -0.27 0.3
-8 9 -18 0.24 0.25
-18 9 9 0.89 0.25
-18 9 -9 0.79 0.23
-9 9 -18 1.23 0.26
-9 -18 9 0.98 0.32
-9 -9 18 0.73 0.32
9 9 -18 0.75 0.29
-9 9 18 0.64 0.26
-18 -9 -9 0.68 0.14
-9 -18 -9 0.78 0.24
-18 -9 9 0.55 0.28
9 -9 18 0.49 0.27
9 18 9 0.63 0.32
18 9 -9 0.67 0.28
18 9 9 0.79 0.17
9 -18 9 0.81 0.29
18 -9 9 0.81 0.17
-9 18 -9 0.55 0.3
-9 18 9 0.49 0.28
9 9 18 0.87 0.24
9 18 -9 0.49 0.33
9 -18 -9 0.53 0.2
10 18 0 0.42 0.28
0 -18 -10 0.66 0.2
0 -18 10 0.32 0.27
-18 0 10 0.65 0.18
-10 0 18 0.58 0.2
0 10 -18 0.27 0.25
-18 10 0 0.75 0.22
18 -10 0 0.53 0.17
10 -18 0 0.57 0.24
0 -10 18 0.71 0.27
0 18 -10 0.73 0.31
-18 0 10 0.39 0.23
0 10 18 0.54 0.22
-10 -18 0 0.52 0.25
-10 0 18 0.75 0.24
-10 18 0 0.63 0.27
0 -10 -18 0.55 0.19
0 18 10 0.38 0.28
10 0 18 0.78 0.2
10 0 18 0.63 0.16
-18 -10 0 0.53 0.24
18 10 0 0.55 0.22
1 10 -18 -0.24 0.23
1 18 10 0.14 0.27
-18 -10 1 0.12 0.23
-18 1 10 0.11 0.21
-18 1 10 0.14 0.16
1 -10 18 -0.04 0.26
10 1 18 0.01 0.14
-1 -18 10 0.23 0.27
-10 -1 18 -0.14 0.18
-1 -10 -18 0.04 0.17
18 10 1 0.06 0.2
-1 18 -10 0.02 0.31
18 -10 -1 0.02 0.16
10 -18 1 0.04 0.22
-10 18 1 -0.45 0.26
-1 10 18 0.26 0.21
10 1 18 0.01 0.18
1 -18 -10 0.11 0.19
-10 -1 18 0.01 0.25
10 18 -1 0.02 0.29
-18 10 -1 -0.08 0.21
-10 -18 -1 0.24 0.25
-1 -18 -10 -0.06 0.2
1 -10 -18 0.03 0.17
-1 -10 18 -0.05 0.25
10 -1 18 0.01 0.2
10 -1 18 0.13 0.14
-10 18 -1 0.02 0.27
18 -10 1 -0.04 0.16
-1 10 -18 0.14 0.23
-10 1 18 -0.01 0.23
-10 1 18 -0.05 0.18
-18 -1 10 0.2 0.22
-18 -1 10 -0.03 0.16
1 18 -10 0.26 0.29
18 10 -1 -0.04 0.22
-18 -10 -1 -0.1 0.21
1 10 18 -0.24 0.22
10 -18 -1 -0.11 0.21
-18 10 1 0.06 0.21
-1 18 10 0.02 0.27
-10 -18 1 0.01 0.26
1 -18 10 0.29 0.26
10 18 1 0.19 0.27
-10 18 2 0.48 0.28
-2 10 18 0.55 0.22
-10 -2 18 0.15 0.18
-18 10 -2 0.46 0.22
10 -18 2 0.18 0.23
-2 -10 -18 0.22 0.17
-2 -18 10 -0.03 0.26
-2 18 -10 -0.02 0.29
-10 -18 -2 0.45 0.24
18 10 2 0.2 0.2
-10 -2 18 0.46 0.27
10 18 -2 0.4 0.29
-18 -10 2 0.24 0.23
2 10 -18 0.28 0.25
2 18 10 0.17 0.27
-18 2 10 0.55 0.21
18 -10 -2 0.36 0.17
10 2 18 0.53 0.19
2 -10 18 0.06 0.26
2 -18 -10 0.3 0.19
10 2 18 0.23 0.15
-18 2 10 0.29 0.18
18 10 -2 0.45 0.23
-2 -10 18 0.23 0.26
-10 2 18 0.52 0.19
-10 18 -2 0.04 0.28
10 -2 18 -0.11 0.2
10 -2 18 0.25 0.14
-18 -2 10 0.33 0.16
-10 -18 2 0.25 0.25
2 -18 10 -0.05 0.25
2 -10 -18 0.39 0.18
-2 -18 -10 0.23 0.21
2 18 -10 -0.35 0.27
-18 -2 10 0.52 0.24
10 -18 -2 0.43 0.21
-2 18 10 0.28 0.25
-18 10 2 0.35 0.21
10 18 2 -0.01 0.28
-18 -10 -2 0.26 0.21
-10 2 18 0.22 0.25
2 10 18 0.22 0.21
18 -10 2 0.23 0.16
-2 10 -18 0.32 0.23
-18 10 -3 -0.31 0.2
18 10 3 -0.08 0.19
10 18 -3 0 0.28
10 3 18 -0.01 0.16
3 -18 -10 -0.19 0.19
-10 -3 18 -0.11 0.28
-18 3 10 0.13 0.16
-3 -18 10 -0.03 0.27
3 18 10 0.16 0.26
-3 10 18 -0.02 0.21
10 -18 3 0.08 0.22
3 10 -18 -0.1 0.27
-10 18 3 -0.07 0.26
10 3 18 0.03 0.17
-3 18 -10 0.12 0.28
18 -10 -3 -0.01 0.17
-10 -18 -3 -0.33 0.24
3 -10 18 -0.21 0.26
-3 -10 -18 -0.05 0.16
-18 3 10 0.07 0.2
-18 -10 3 0.04 0.23
10 -3 18 0.12 0.13
3 10 18 0.23 0.2
3 -18 10 0.13 0.27
3 18 -10 0.46 0.28
-3 10 -18 0.19 0.24
10 -3 18 -0.15 0.21
18 10 -3 0.16 0.23
-10 -18 3 0.13 0.26
10 -18 -3 -0.38 0.21
-10 3 18 0.09 0.23
-10 3 18 -0.1 0.2
-18 10 3 0.32 0.2
-10 18 -3 0.19 0.27
3 -10 -18 0.18 0.18
18 -10 3 -0.35 0.15
10 18 3 0.11 0.27
-18 -10 -3 0.12 0.2
-18 -3 10 0.08 0.22
-18 -3 10 -0.07 0.15
-3 -18 -10 0.22 0.2
-3 18 10 0.12 0.26
-3 -10 18 -0.13 0.26
4 -10 18 -0.01 0.25
-10 -4 18 -0.03 0.26
4 -18 -10 -0.16 0.19
-4 -10 -18 -0.12 0.16
-18 10 -4 -0.17 0.2
10 4 18 -0.1 0.16
-10 -18 -4 0.13 0.23
-18 -10 4 -0.01 0.24
-18 4 10 -0.44 0.19
-10 18 4 0.11 0.27
-18 4 10 0 0.18
4 10 -18 -0.22 0.24
18 10 4 -0.03 0.19
-4 10 18 -0.28 0.2
18 -10 -4 -0.17 0.19
4 18 10 0.08 0.28
10 4 18 -0.21 0.17
10 18 -4 0.12 0.29
-4 -18 10 -0.61 0.27
-4 18 -10 0.2 0.28
10 -18 4 -0.12 0.23
10 -18 -4 -0.03 0.2
-10 18 -4 -0.02 0.27
-4 -18 -10 0.13 0.2
4 18 -10 -0.22 0.28
10 18 4 -0.67 0.26
-10 4 18 -0.34 0.22
18 -10 4 0.05 0.16
-18 -4 10 -0.27 0.24
4 -10 -18 -0.26 0.17
4 10 18 0.04 0.2
4 -18 10 -0.13 0.25
-4 10 -18 -0.23 0.22
-10 4 18 0.03 0.21
10 -4 18 -0.06 0.21
-4 18 10 -0.09 0.26
-10 -18 4 -0.04 0.26
-4 -10 18 -0.69 0.27
18 10 -4 -0.12 0.23
-18 -10 -4 0.07 0.18
-18 10 4 -0.11 0.2
-5 10 18 0.07 0.22
-18 5 10 -0.11 0.18
-10 18 5 -0.49 0.26
-10 -5 18 0.03 0.26
10 -18 5 -0.08 0.25
10 18 -5 -0.37 0.28
5 18 10 0.16 0.29
18 -10 -5 0.07 0.17
-5 -10 -18 -0.1 0.16
5 10 -18 0.32 0.24
-10 -18 -5 0.07 0.23
-18 5 10 0.06 0.19
-10 5 -18 0.1 0.18
-18 -10 5 0.14 0.3
18 10 5 0.03 0.18
5 -18 -10 0.03 0.2
-5 18 -10 0.18 0.29
10 5 18 -0.04 0.18
-5 -18 10 -0.38 0.27
-18 10 -5 0.17 0.21
5 -10 18 0.24 0.24
10 5 18 -0.11 0.17
-18 -10 -5 0.14 0.17
10 18 5 -0.51 0.27
-10 18 -5 -0.15 0.27
-5 10 -18 0.21 0.23
10 -5 18 0.15 0.22
5 18 -10 0.06 0.29
18 -10 5 -0.01 0.15
-18 10 5 0.1 0.22
10 5 -18 -0.17 0.23
-10 -18 5 0.11 0.26
-5 18 10 0.26 0.25
-5 -10 18 0.33 0.28
-10 5 18 -0.08 0.19
-18 -5 10 0.04 0.24
-5 -18 -10 0.02 0.21
5 10 18 0.16 0.22
10 -18 -5 0.28 0.21
5 -10 -18 -0.07 0.18
-10 5 18 0.16 0.22
5 -18 10 0.23 0.26
18 10 -5 0.21 0.32
-18 6 10 -0.19 0.2
18 -10 -6 0.23 0.18
10 6 18 -0.1 0.18
6 -18 -10 0.24 0.2
-10 6 -18 0.26 0.19
6 18 10 0.05 0.28
10 6 18 -0.06 0.18
-18 6 10 -0.06 0.21
-6 10 18 0.02 0.22
-18 -10 6 0.08 0.25
-18 10 -6 0.02 0.22
-10 -18 -6 0.11 0.22
18 6 -10 0.21 0.25
10 -18 6 0.18 0.26
-6 -18 10 0.21 0.28
-6 -10 -18 -0.17 0.16
-6 18 -10 -0.12 0.29
18 10 6 0 0.18
-10 18 6 -0.01 0.27
-10 -6 18 -0.09 0.26
6 10 -18 -0.26 0.25
6 -10 18 0.24 0.26
10 18 -6 0.31 0.3
18 -10 6 0.13 0.15
6 18 -10 0.27 0.28
10 6 -18 -0.34 0.25
-10 6 18 0.01 0.21
-6 10 -18 -0.02 0.23
18 10 -6 -0.08 0.25
10 -6 18 0.21 0.23
-18 -10 -6 -0.09 0.19
6 10 18 0.02 0.23
-6 -10 18 -0.19 0.27
-10 18 -6 0.24 0.3
-10 -18 6 0.22 0.29
10 18 6 0.38 0.28
-6 -18 -10 0.16 0.22
-6 18 10 -0.05 0.26
6 -18 10 0.08 0.27
10 -18 -6 0.23 0.21
-10 6 18 0.38 0.24
6 -10 -18 0.02 0.18
-18 10 6 -0.09 0.21
-18 -6 10 0.17 0.26
10 7 18 0.53 0.22
-18 10 -7 0.45 0.23
18 -10 -7 0.45 0.19
10 7 18 0.82 0.2
10 18 -7 0.79 0.31
-7 10 18 0.86 0.25
7 10 -18 0.29 0.28
7 -18 -10 0.65 0.21
18 10 7 0.76 0.19
7 18 10 0.56 0.3
-10 -18 -7 0.4 0.24
-10 18 7 0.47 0.28
-7 -10 -18 0.98 0.31
-10 7 -18 0.25 0.22
-18 -10 7 0.65 0.27
18 7 -10 0.7 0.28
-7 18 -10 0.26 0.31
-10 -7 18 0.73 0.3
7 -10 18 -0.01 0.28
-18 7 10 0.68 0.23
-18 7 10 0.34 0.23
18 -7 10 0.63 0.12
-7 -18 10 0.21 0.28
10 -18 7 0.78 0.28
-7 18 10 0.55 0.29
-7 10 -18 0.75 0.24
-7 -18 -10 0.42 0.23
7 -10 -18 0.68 0.21
-7 -10 18 0.66 0.3
-18 7 -10 0.66 0.15
18 10 -7 0.7 0.27
-18 10 7 1.02 0.24
10 -7 18 0.89 0.26
10 7 -18 0.88 0.28
7 18 -10 0.36 0.31
-18 -7 10 0.42 0.28
7 10 18 0.56 0.4
10 -18 -7 0.52 0.21
7 -18 10 0.36 0.29
-18 -10 -7 0.75 0.18
-10 7 18 0.67 0.22
-10 18 -7 0.52 0.3
10 18 7 0.51 0.31
18 -10 7 0.74 0.18
-10 7 18 0.67 0.23
-10 -18 7 0.9 0.3
10 8 18 0.47 0.23
-18 8 10 0.52 0.23
-10 -8 18 0.34 0.31
-8 18 -10 0.13 0.32
18 10 8 0.66 0.19
10 -18 8 0.72 0.29
-10 8 -18 0.63 0.23
8 10 -18 0.29 0.29
10 18 -8 0.24 0.33
18 -10 -8 0.77 0.2
8 -18 -10 0.18 0.19
8 18 10 0.73 0.32
-8 -18 10 0.52 0.31
18 -8 10 0.64 0.14
18 8 -10 0.82 0.28
-18 10 -8 0.4 0.23
-10 -18 -8 0.35 0.25
-10 18 8 0.18 0.29
8 -10 18 0.23 0.27
10 8 18 0.59 0.2
-8 -10 -18 0.82 0.18
-18 -10 8 0.35 0.29
-8 10 18 0.54 0.25
18 10 -8 0.39 0.28
-8 10 -18 0.44 0.25
-18 -10 -8 0.51 0.16
10 8 -18 0.38 0.27
8 18 -10 0.29 0.33
18 -10 8 0.58 0.17
8 10 18 0.24 0.25
10 -18 -8 0.48 0.21
-18 10 8 0.32 0.23
10 -8 18 0.8 0.26
10 18 8 0.15 0.3
-8 -18 -10 0.26 0.23
-18 -8 10 0.6 0.28
-8 18 10 0 0.27
8 -18 10 0.53 0.28
-10 18 -8 0.26 0.31
-18 8 -10 0.38 0.18
-8 -10 18 0.49 0.3
-10 -18 8 0.22 0.29
-10 8 18 0.22 0.23
-10 8 18 0.51 0.23
9 -10 18 0.11 0.37
-10 18 9 0.05 0.28
-18 -10 9 0.37 0.28
-10 -9 18 0.28 0.3
9 -18 -10 -0.04 0.21
-9 -18 10 -0.14 0.29
10 18 -9 0.03 0.32
10 9 18 0.18 0.22
18 -9 10 -0.03 0.15
10 -18 9 0.24 0.29
-9 18 -10 0.43 0.32
-10 9 -18 0.32 0.24
-18 9 10 -0.09 0.22
-10 -18 -9 0.15 0.23
9 10 -18 -0.05 0.29
-18 10 -9 0.09 0.23
-18 -9 -10 0.13 0.11
-9 10 18 0.29 0.24
18 9 -10 -0.07 0.27
9 18 10 0.25 0.3
18 -10 -9 0.12 0.19
-9 -10 -18 0.54 0.17
18 10 9 0.25 0.18
-10 18 -9 0.16 0.3
10 -9 18 0.39 0.27
10 9 -18 -0.12 0.27
9 10 18 0.25 0.22
-18 10 9 0.11 0.23
-18 -9 10 0.66 0.3
-9 18 10 -0.07 0.27
10 -18 -9 0.13 0.21
10 18 9 0.47 0.3
-18 -10 -9 0.1 0.15
9 18 -10 0.05 0.3
18 9 10 0.07 0.15
9 -18 10 -0.01 0.28
-9 -10 18 0.41 0.28
18 10 -9 0.58 0.38
-10 -18 9 -0.05 0.29
-10 9 18 0.32 0.25
-9 -18 -10 0.3 0.23
18 -10 9 0.14 0.17
-18 9 -10 0.5 0.2
0 18 11 -0.31 0.27
-18 0 11 -0.09 0.17
-11 18 0 -0.29 0.26
-18 0 11 -0.25 0.22
0 -18 11 -0.36 0.27
11 0 18 0.11 0.19
11 18 0 0 0.29
11 0 18 0 0.13
0 -11 -18 0.09 0.18
0 11 -18 0.31 0.25
0 11 18 -0.02 0.2
11 -18 0 -0.4 0.21
-11 0 18 0.12 0.24
0 18 -11 -0.04 0.27
18 -11 0 0.03 0.17
-18 -11 0 -0.32 0.23
-18 11 0 -0.11 0.22
-11 -18 0 0.01 0.25
-11 0 18 -0.17 0.18
0 -18 -11 0.08 0.2
0 -11 18 -0.15 0.26
18 11 0 0.16 0.23
-18 1 11 -0.37 0.21
1 18 11 -0.17 0.26
11 -18 1 -0.24 0.22
-11 -1 18 0.2 0.17
-11 18 1 -0.41 0.26
-11 -1 18 -0.14 0.24
11 1 18 0.03 0.14
18 -11 -1 -0.04 0.16
18 11 1 0.04 0.22
-18 11 -1 0.33 0.22
1 11 -18 0.31 0.23
-18 1 11 -0.14 0.16
-11 -18 -1 -0.49 0.24
-1 18 -11 -0.1 0.28
1 -11 18 -0.16 0.26
-1 -18 11 -0.33 0.25
-1 -11 -18 0.02 0.17
11 18 -1 -0.12 0.27
11 1 18 -0.13 0.18
-1 11 18 0.08 0.21
1 -18 -11 -0.06 0.2
-18 -11 1 -0.31 0.23
-1 -11 18 -0.36 0.26
-18 -11 -1 -0.11 0.22
-18 11 1 -0.12 0.22
1 -18 11 -0.03 0.27
-11 1 18 0.09 0.24
18 11 -1 -0.12 0.22
-1 18 11 -0.29 0.26
-11 18 -1 -0.11 0.26
1 -11 -18 0 0.18
-11 -18 1 -0.14 0.26
11 -18 -1 -0.15 0.21
-11 1 18 -0.36 0.2
11 -1 18 0.02 0.13
1 11 18 0.3 0.21
18 -11 1 -0.03 0.16
1 18 -11 0.08 0.28
-1 11 -18 0.46 0.25
11 18 1 0.11 0.27
-1 -18 -11 0.32 0.2
-18 -1 11 -0.16 0.16
11 -1 18 -0.16 0.19
-18 -1 11 -0.2 0.23
2 11 -18 -0.31 0.24
-18 2 11 0.02 0.22
-2 -11 -18 -0.04 0.17
-11 -18 -2 0.29 0.24
11 -18 2 -0.45 0.21
-2 11 18 0.31 0.22
-11 -2 18 0.02 0.25
-11 18 2 -0.35 0.27
2 -18 -11 -0.05 0.19
-11 -2 18 0.03 0.19
18 11 2 -0.27 0.2
2 -11 18 0.16 0.27
-2 -18 11 -0.08 0.26
2 18 11 -0.03 0.27
11 2 18 -0.04 0.17
11 18 -2 -0.1 0.27
-18 11 -2 -0.42 0.21
-18 2 11 0.07 0.18
-18 -11 2 -0.2 0.24
18 -11 -2 -0.08 0.16
-2 18 -11 -0.33 0.28
11 2 18 -0.19 0.15
2 -18 11 0.05 0.25
2 -11 -18 -0.01 0.17
-2 -11 18 -0.2 0.26
-11 -18 2 -0.26 0.25
2 18 -11 0.22 0.29
-2 18 11 -0.18 0.26
-11 2 18 0.16 0.19
11 -2 18 -0.15 0.13
11 -2 18 -0.19 0.2
-18 -11 -2 -0.34 0.2
2 11 18 -0.07 0.21
-18 -2 11 -0.34 0.24
-18 -2 11 -0.31 0.15
-2 -18 -11 -0.1 0.19
11 -18 -2 0 0.21
-18 11 2 0.23 0.21
-11 2 18 0.01 0.22
11 18 2 -0.32 0.26
18 11 -2 0.37 0.23
-2 11 -18 -0.04 0.25
-11 18 -2 0.16 0.27
18 -11 2 -0.01 0.17
3 11 -18 -0.09 0.25
-3 18 -11 -0.75 0.28
3 -18 -11 -0.06 0.19
11 3 18 -0.19 0.17
-3 11 18 -0.28 0.22
-18 11 -3 -0.39 0.2
-18 3 11 0.09 0.17
-11 -3 18 -0.12 0.28
-18 3 11 -0.43 0.21
-3 -18 11 0.18 0.25
11 3 18 -0.12 0.15
3 -11 18 -0.33 0.24
3 18 11 -0.45 0.26
18 -11 -3 0.25 0.28
11 18 -3 0.06 0.29
-11 -18 -3 -0.15 0.24
-18 -11 3 -0.13 0.23
18 11 3 -0.2 0.19
-11 18 3 0.21 0.26
11 -18 3 -0.27 0.22
-3 -11 -18 -0.08 0.17
-3 -18 -11 -0.05 0.2
11 18 3 -0.4 0.27
-11 -18 3 0.08 0.26
-11 18 -3 0.27 0.27
-11 3 18 -0.43 0.18
-3 11 -18 0.09 0.25
-3 -11 18 -0.15 0.24
11 -3 18 0.26 0.2
3 -18 11 -0.1 0.25
-18 -3 11 0.21 0.23
-18 -3 11 -0.1 0.16
-3 18 11 -0.4 0.25
-11 3 18 0.05 0.24
3 -11 -18 -0.06 0.18
-18 -11 -3 -0.46 0.19
-18 11 3 0.26 0.26
18 -11 3 0.03 0.17
3 11 18 -0.03 0.21
11 -3 18 -0.08 0.13
18 11 -3 0.11 0.24
11 -18 -3 -0.16 0.2
3 18 -11 0.23 0.29
-4 -18 11 -0.07 0.26
18 11 4 -0.21 0.2
-11 -18 -4 -0.19 0.23
-4 18 -11 0.05 0.3
-4 11 18 0.06 0.21
-18 -11 4 -0.05 0.25
4 11 -18 -0.06 0.24
4 18 11 -0.1 0.26
-18 11 -4 -0.19 0.22
-18 4 11 -0.07 0.21
-11 -4 18 -0.03 0.27
11 -18 4 -0.12 0.21
11 4 18 0.12 0.17
18 -11 -4 0.19 0.17
4 -18 -11 0.01 0.18
11 18 -4 0.12 0.28
4 -11 18 -0.06 0.25
-11 18 4 -0.23 0.26
-18 4 11 0 0.18
-4 -11 -18 0.01 0.17
11 4 18 -0.1 0.17
-4 -18 -11 -0.1 0.2
4 -18 11 -0.23 0.26
4 11 18 -0.06 0.22
11 -18 -4 0.03 0.2
18 -11 4 0.15 0.16
-18 11 4 0.09 0.21
-11 4 18 -0.11 0.2
11 -4 18 0.07 0.21
-11 -18 4 0.35 0.26
-18 -11 -4 -0.02 0.19
-4 18 11 -0.08 0.25
4 18 -11 0 0.28
-11 18 -4 0.13 0.27
-4 -11 18 -0.16 0.25
-4 11 -18 0.26 0.24
-18 -4 11 0.05 0.26
4 -11 -18 -0.23 0.17
18 11 -4 0.35 0.28
-11 4 18 0.04 0.22
11 18 4 -0.17 0.28
-5 -11 -18 0.42 0.18
11 5 18 0.28 0.18
-18 11 -5 0.24 0.23
-18 5 11 0.12 0.21
18 11 5 0.2 0.2
5 -11 18 -0.31 0.27
11 -18 5 0.15 0.24
-11 -18 -5 0.02 0.24
11 5 18 0.13 0.18
-5 -18 11 0.17 0.27
-5 18 -11 -0.08 0.3
-11 5 -18 0.1 0.18
5 11 -18 -0.08 0.25
18 -11 -5 0.39 0.19
-11 18 5 0.45 0.28
-18 5 11 -0.05 0.2
5 18 11 0.09 0.29
-11 -5 18 -0.28 0.26
11 18 -5 0.01 0.29
5 -18 -11 -0.01 0.18
-5 11 18 0.12 0.22
-18 -11 5 -0.04 0.25
-18 11 5 0.21 0.22
-11 5 18 0.31 0.25
18 -11 5 0.05 0.16
18 11 -5 0.07 0.24
5 11 18 -0.02 0.22
11 18 5 -0.02 0.28
5 -18 11 0.16 0.26
-11 -18 5 -0.06 0.28
5 18 -11 0.25 0.28
-5 -18 -11 0.03 0.21
-5 -11 18 0.04 0.29
-18 -5 11 0.11 0.25
-11 18 -5 0.39 0.28
-11 5 18 0.08 0.2
-5 18 11 0.23 0.26
11 -5 18 -0.15 0.21
-5 11 -18 0.42 0.26
5 -11 -18 -0.06 0.19
11 -18 -5 0.34 0.21
-18 -11 -5 0.11 0.18
11 5 -18 0.22 0.25
6 -11 18 0.41 0.29
-11 6 -18 1.11 0.22
-18 -11 6 1.43 0.3
-6 18 -11 0.14 0.31
18 11 6 0.92 0.22
18 -11 -6 0.84 0.2
-18 6 11 0.98 0.22
11 -18 6 1.16 0.28
11 18 -6 1.06 0.31
6 11 -18 0.54 0.3
11 6 18 0.86 0.2
-11 -6 18 0.53 0.29
-6 11 18 1.31 0.25
11 6 18 0.53 0.21
6 -18 -11 0.58 0.2
-11 -18 -6 0.63 0.25
-6 -11 -18 1.18 0.2
-18 11 -6 1.13 0.25
-6 -18 11 0.66 0.31
6 18 11 0.97 0.31
18 6 -11 1.15 0.28
-11 18 6 0.96 0.3
-18 6 11 0.93 0.24
18 11 -6 0.79 0.28
11 18 6 0.63 0.3
-6 -18 -11 0.79 0.23
-18 -6 11 1.2 0.3
11 -18 -6 1.07 0.24
6 -11 -18 0.96 0.21
6 18 -11 1.09 0.33
18 -11 6 1.13 0.2
-6 -11 18 0.53 0.3
-6 11 -18 0.78 0.27
11 -6 18 1.01 0.25
-11 -18 6 0.75 0.3
-11 18 -6 0.68 0.31
6 -18 11 0.64 0.29
-11 6 18 1.06 0.24
11 6 -18 1 0.27
-18 -11 -6 1.03 0.2
-11 6 18 0.84 0.24
-6 18 11 0.79 0.29
6 11 18 1.4 0.26
-18 11 6 0.79 0.25
-7 -11 -18 0.33 0.18
-11 7 -18 0.07 0.21
18 11 7 -0.06 0.21
-7 18 -11 0.37 0.31
11 7 18 0.05 0.18
11 18 -7 -0.24 0.3
18 -7 11 0.08 0.11
-11 -7 18 -0.22 0.29
18 -11 -7 -0.1 0.18
-18 7 11 -0.28 0.22
-11 18 7 0.17 0.29
7 -18 -11 -0.08 0.19
11 7 18 0.23 0.21
-18 11 -7 0.36 0.24
11 -18 7 0.39 0.27
-7 -18 11 -0.13 0.31
-7 11 18 0.03 0.24
7 -11 18 0.34 0.28
-18 -11 7 0.17 0.27
-11 -18 -7 0.2 0.24
7 18 11 -0.11 0.29
-18 7 11 0.26 0.24
18 7 -11 -0.35 0.26
7 11 -18 -0.13 0.27
11 -7 18 0.09 0.24
-7 18 11 -0.1 0.26
-11 18 -7 0.08 0.3
-18 11 7 0.05 0.23
18 11 -7 -0.27 0.28
-11 7 18 -0.11 0.23
7 -11 -18 0.17 0.2
-7 -18 -11 0.17 0.22
7 18 -11 -0.05 0.32
18 -11 7 0.04 0.17
11 7 -18 0.09 0.28
-7 11 -18 0.43 0.26
-7 -11 18 -0.13 0.31
-18 -7 11 0.29 0.28
-11 -18 7 -0.07 0.28
-18 -11 -7 0.05 0.18
7 11 18 0.01 0.24
11 -18 -7 0.45 0.21
7 -18 11 -0.03 0.28
-11 7 18 0.12 0.21
-18 7 -11 0.27 0.14
11 18 7 -0.52 0.29
-11 -18 -8 -0.22 0.24
-18 8 11 -0.3 0.22
18 -8 11 -0.22 0.14
-18 11 -8 -0.37 0.23
-11 8 -18 0.01 0.22
8 11 -18 -0.33 0.27
-11 18 8 -0.13 0.28
-8 -11 -18 -0.21 0.17
8 -11 18 -0.34 0.28
18 11 8 -0.7 0.2
11 8 18 -0.22 0.21
8 18 11 0.25 0.31
11 18 -8 -0.26 0.31
-18 -11 8 0.4 0.28
-8 18 -11 0.02 0.31
-8 11 18 0.01 0.23
8 -18 -11 -0.03 0.21
-18 8 11 -0.06 0.23
-8 -18 11 -0.76 0.29
11 -18 8 0.38 0.28
-11 -8 18 -0.55 0.29
11 8 18 -0.47 0.18
18 8 -11 0.11 0.27
18 -11 -8 -0.08 0.19
-18 8 -11 -0.08 0.16
8 -18 11 -0.53 0.28
-11 18 -8 0.01 0.32
8 11 18 -0.04 0.23
11 -18 -8 -0.53 0.19
11 8 -18 -0.42 0.25
11 -8 18 0.03 0.25
-18 11 8 -0.18 0.24
8 18 -11 -0.3 0.29
-18 -11 -8 -0.22 0.17
-11 8 18 -0.5 0.21
18 -11 8 -0.52 0.18
-11 -18 8 -0.13 0.29
-8 -11 18 0.09 0.3
-18 -8 11 -0.13 0.28
-8 11 -18 -0.14 0.26
11 18 8 -0.08 0.31
-8 -18 -11 -0.14 0.22
8 -11 -18 -0.44 0.2
18 11 -8 0.04 0.27
-8 18 11 -0.42 0.27
-11 8 18 -0.12 0.24
0 12 18 0.07 0.22
-18 0 12 -0.18 0.24
0 -12 -18 -0.2 0.18
-12 -18 0 0.08 0.25
-18 -12 0 -0.21 0.22
-18 12 0 -0.24 0.23
18 12 0 -0.31 0.23
12 0 18 0.05 0.18
-12 0 18 -0.24 0.19
12 -18 0 -0.21 0.21
12 18 0 0.14 0.28
12 0 18 -0.1 0.14
-18 0 12 -0.24 0.17
18 -12 0 -0.25 0.17
0 -12 18 0.11 0.27
0 12 -18 0.13 0.26
-12 0 18 0.08 0.24
0 18 12 0.19 0.26
0 -18 -12 -0.16 0.19
-12 18 0 -0.12 0.26
0 -18 12 -0.08 0.26
0 18 -12 -0.24 0.28
-18 1 12 0.01 0.23
-18 1 12 -0.26 0.17
-12 -18 -1 0 0.24
1 12 -18 0.24 0.26
-1 18 -12 0.49 0.29
18 -12 -1 0.17 0.17
12 -18 1 -0.09 0.21
-12 -1 18 -0.04 0.18
1 -12 18 -0.19 0.25
1 18 12 -0.2 0.26
-1 -12 -18 0.05 0.17
1 -18 -12 -0.06 0.19
18 12 1 0.05 0.22
12 18 -1 0.16 0.28
-12 18 1 -0.09 0.26
-18 12 -1 0.65 0.24
-1 -18 12 -0.25 0.27
-1 12 18 -0.14 0.2
12 1 18 0.02 0.14
-18 -12 1 -0.17 0.23
12 1 18 0.21 0.18
-12 -1 18 0 0.26
-1 -12 18 -0.39 0.27
1 -18 12 -0.24 0.25
18 -12 1 -0.1 0.17
-18 -12 -1 -0.44 0.22
-18 -1 12 -0.01 0.24
12 -1 18 -0.05 0.18
1 18 -12 -0.01 0.28
12 18 1 0.18 0.29
-18 -1 12 -0.05 0.17
12 -18 -1 -0.34 0.2
-12 18 -1 -0.57 0.26
-1 -18 -12 0.05 0.19
-1 12 -18 -0.39 0.24
-12 1 18 -0.28 0.22
-12 1 18 0.04 0.19
12 -1 18 0.05 0.14
-1 18 12 -0.02 0.26
1 12 18 0.23 0.23
-12 -18 1 -0.09 0.25
18 12 -1 -0.17 0.24
-18 12 1 0.41 0.23
1 -12 -18 0.07 0.18
12 18 -2 -0.38 0.29
-12 -2 18 -0.03 0.17
-18 2 12 -0.45 0.23
18 -12 -2 0.03 0.24
-18 12 -2 -0.37 0.22
12 2 18 -0.2 0.14
2 -12 18 -0.46 0.25
2 18 12 -0.04 0.27
12 -18 2 0.13 0.22
-12 -2 18 -0.68 0.24
-2 -18 12 -0.19 0.27
-2 12 18 0.2 0.21
-12 18 2 -0.2 0.27
-12 -18 -2 -0.2 0.24
2 -18 -12 0.01 0.18
-18 2 12 -0.09 0.18
-2 18 -12 -0.07 0.28
-2 -12 -18 -0.02 0.17
12 2 18 -0.14 0.17
-18 -12 2 -0.01 0.24
18 12 2 -0.21 0.2
2 12 -18 0.18 0.25
12 -2 18 0.12 0.2
18 12 -2 -0.13 0.23
-18 -2 12 -0.03 0.26
12 -18 -2 -0.11 0.2
-18 -12 -2 -0.1 0.22
-12 2 18 -0.32 0.24
18 -12 2 -0.25 0.17
12 18 2 -0.45 0.27
-2 12 -18 0.18 0.24
2 18 -12 -0.01 0.27
2 12 18 -0.18 0.23
12 -2 18 -0.05 0.13
-2 -18 -12 0.02 0.2
-2 18 12 -0.12 0.26
-2 -12 18 -0.3 0.28
-12 -18 2 -0.04 0.25
2 -18 12 -0.19 0.27
2 -12 -18 -0.15 0.17
-12 2 18 0.14 0.18
-18 -2 12 0.11 0.16
-12 18 -2 -0.06 0.27
-18 12 -3 -0.02 0.23
-3 12 18 0.22 0.22
3 18 12 -0.24 0.27
-3 -18 12 -0.15 0.27
-18 3 12 0.35 0.23
3 -18 -12 0.09 0.18
-18 -12 3 0.29 0.3
12 3 18 0 0.16
3 -12 18 0.3 0.27
12 18 -3 0.04 0.28
18 12 3 0.4 0.22
-12 -18 -3 -0.12 0.24
-3 18 -12 -0.12 0.28
-12 18 3 -0.07 0.26
-3 -12 -18 0.08 0.17
18 -12 -3 -0.41 0.17
-18 3 12 0.05 0.17
12 3 18 -0.17 0.17
3 12 -18 -0.32 0.25
12 -18 3 0.03 0.22
-12 -3 18 -0.64 0.25
-12 -3 18 -0.15 0.19
-12 3 18 -0.38 0.22
12 -18 -3 -0.53 0.2
-3 18 12 0.1 0.26
-18 -3 12 0 0.24
-18 12 3 0 0.23
-3 -18 -12 0.06 0.21
18 -12 3 -0.03 0.17
-12 3 18 0.01 0.19
3 12 18 -0.03 0.22
-18 -12 -3 -0.1 0.2
3 18 -12 0.07 0.28
18 12 -3 -0.27 0.27
12 18 3 0 0.26
3 -18 12 0.31 0.26
3 -12 -18 -0.06 0.18
-12 -18 3 -0.34 0.25
-12 18 -3 -0.04 0.26
12 -3 18 0.07 0.2
-3 12 -18 -0.16 0.23
-18 -3 12 -0.15 0.16
-3 -12 18 -0.25 0.27
12 -3 18 -0.04 0.12
-18 12 -4 0.36 0.24
18 12 4 -0.11 0.21
4 18 12 0.15 0.27
-4 18 -12 0.12 0.3
4 12 -18 -0.17 0.25
-4 -12 -18 0.32 0.18
12 -18 4 0.09 0.23
-12 18 4 0.17 0.27
-18 4 12 0.09 0.23
18 -12 -4 0.39 0.17
-18 4 12 0.16 0.19
-18 -12 4 0.06 0.25
-4 -18 12 -0.34 0.28
4 -12 18 0.24 0.28
-4 12 18 0.11 0.24
-12 -18 -4 0.07 0.23
12 4 18 0.17 0.17
12 4 18 -0.01 0.17
4 -18 -12 0.02 0.17
-12 -4 18 0.02 0.27
12 18 -4 0.02 0.3
4 12 18 0.44 0.23
12 18 4 0.32 0.29
-12 4 18 0.05 0.2
-4 -12 18 0.22 0.27
18 12 -4 0.21 0.25
-4 -18 -12 0.34 0.2
-18 12 4 0.26 0.23
-4 12 -18 0.29 0.24
-4 18 12 0.36 0.26
-18 -12 -4 -0.43 0.2
-12 4 18 0.31 0.25
-12 18 -4 0.29 0.28
-18 -4 12 -0.1 0.26
18 -12 4 0.23 0.17
-12 -18 4 0.04 0.26
4 18 -12 0.53 0.29
4 -18 12 0.14 0.26
4 -12 -18 0.25 0.18
12 -4 18 0.17 0.13
12 -4 18 0.2 0.2
12 -18 -4 0.3 0.2
-5 -18 12 -0.01 0.29
-5 -12 -18 0.15 0.18
-5 12 18 0.36 0.24
-18 12 -5 0.03 0.24
18 -12 -5 -0.09 0.18
12 5 18 0.23 0.17
12 5 18 0.1 0.18
-12 18 5 -0.05 0.27
-18 5 12 0.3 0.2
18 12 5 -0.06 0.23
5 18 12 0.21 0.28
12 18 -5 0.12 0.28
5 12 -18 0.41 0.25
-18 -12 5 0.29 0.26
-18 5 12 0.01 0.22
5 -12 18 0.21 0.27
5 -18 -12 0.16 0.19
-12 -5 18 -0.04 0.28
-5 18 -12 0.35 0.3
12 -18 5 0.12 0.23
-12 -18 -5 0.35 0.25
12 -18 -5 0.07 0.21
-18 -5 12 -0.35 0.25
-5 18 12 -0.41 0.25
-18 12 5 -0.24 0.22
-5 -12 18 0.13 0.27
12 18 5 0.04 0.28
-18 -12 -5 0.17 0.2
12 -5 18 0.05 0.22
-12 5 18 -0.01 0.22
5 18 -12 0.65 0.3
5 12 18 0.2 0.24
18 12 -5 0.37 0.28
12 5 -18 -0.04 0.25
-12 -18 5 0.28 0.28
5 -12 -18 0.22 0.19
-12 18 -5 -0.13 0.29
18 -12 5 -0.1 0.19
-5 -18 -12 -0.01 0.21
5 -18 12 0.21 0.28
-5 12 -18 0.05 0.25
-12 5 18 0.06 0.19
12 6 18 0.21 0.17
6 -12 18 0.37 0.28
6 12 -18 0.2 0.26
12 6 18 -0.18 0.19
12 18 -6 -0.16 0.29
-18 12 -6 -0.15 0.24
-18 6 12 0.05 0.2
-12 -18 -6 0.09 0.23
-12 -6 18 -0.42 0.26
6 18 12 -0.01 0.3
-6 12 18 -0.02 0.26
6 -18 -12 -0.26 0.2
-18 6 12 -0.1 0.22
18 6 -12 0.15 0.27
-6 -12 -18 -0.14 0.18
-6 18 -12 0.09 0.3
18 -12 -6 -0.35 0.19
12 -18 6 -0.14 0.25
-12 6 -18 0.09 0.18
-12 18 6 0 0.27
-6 -18 12 -0.19 0.27
18 12 6 0.05 0.22
-18 -12 6 -0.09 0.27
-12 6 18 -0.39 0.21
-6 12 -18 -0.38 0.24
12 -6 18 -0.2 0.22
-18 -6 12 0.07 0.28
12 18 6 -0.24 0.28
-12 6 18 -0.07 0.22
-12 18 -6 0.01 0.29
6 -18 12 -0.01 0.27
-6 18 12 -0.08 0.26
-6 -18 -12 0.11 0.21
6 18 -12 0.15 0.3
18 -12 6 0 0.18
12 -18 -6 -0.09 0.2
-18 -12 -6 -0.1 0.19
12 6 -18 0.09 0.25
-12 -18 6 0.12 0.28
6 12 18 -0.06 0.23
-18 12 6 0.01 0.23
18 12 -6 -0.57 0.26
-6 -12 18 -0.37 0.29
6 -12 -18 -0.11 0.19
0 13 -18 -0.21 0.24
-18 0 13 -0.02 0.18
-13 0 18 -0.09 0.26
0 -13 -18 -0.08 0.18
13 0 18 -0.22 0.18
0 -18 13 -0.24 0.27
-18 -13 0 -0.34 0.24
-18 13 0 -0.5 0.27
0 18 13 0.32 0.28
-13 -18 0 0.02 0.26
0 -18 -13 -0.04 0.18
0 -13 18 -0.18 0.26
0 18 -13 0.47 0.29
0 13 18 -0.05 0.24
-13 0 18 0.02 0.17
13 -18 0 -0.03 0.21
13 18 0 0.18 0.29
18 13 0 -0.17 0.23
-18 0 13 -0.02 0.25
-13 18 0 -0.51 0.27
13 0 18 -0.26 0.13
13 -18 1 -0.38 0.21
-18 1 13 -0.12 0.23
1 -13 18 -0.14 0.28
-18 13 -1 0.29 0.25
13 1 18 -0.19 0.14
1 -18 -13 -0.16 0.17
-1 -13 -18 -0.04 0.18
-18 1 13 -0.12 0.18
-13 -1 18 0.17 0.25
-13 -1 18 -0.11 0.19
1 18 13 -0.74 0.26
13 1 18 -0.11 0.17
-1 13 18 -0.11 0.23
-13 -18 -1 -0.25 0.24
-1 -18 13 0.36 0.26
-1 18 -13 -0.52 0.28
-13 18 1 0.21 0.27
1 13 -18 -0.27 0.26
18 13 1 -0.34 0.23
18 -13 -1 -0.09 0.18
13 18 -1 -0.23 0.3
-18 -13 1 0.08 0.26
-1 -18 -13 -0.33 0.18
18 -13 1 0.03 0.19
1 18 -13 -0.66 0.28
-18 13 1 0.04 0.25
13 -1 18 -0.03 0.18
-1 -13 18 -0.28 0.25
1 13 18 -0.06 0.23
-13 -18 1 -0.19 0.26
-13 18 -1 -0.25 0.27
-1 18 13 0.01 0.26
13 -18 -1 -0.02 0.21
-13 1 18 0.14 0.2
1 -18 13 -0.12 0.26
-18 -13 -1 -0.48 0.23
1 -13 -18 -0.03 0.18
13 -1 18 -0.01 0.13
-13 1 18 0.02 0.25
13 18 1 0.08 0.29
-18 -1 13 -0.01 0.17
18 13 -1 0.17 0.24
-18 -1 13 -0.14 0.25
-1 13 -18 0.22 0.26
18 13 2 0.11 0.24
2 13 -18 0.38 0.26
2 -13 18 -0.06 0.28
-18 13 -2 0.06 0.24
-2 -13 -18 -0.04 0.18
13 2 18 0.3 0.17
-13 -2 18 0.01 0.17
-2 -18 13 0.18 0.27
13 2 18 0.09 0.15
18 -13 -2 -0.01 0.18
-13 -18 -2 0.15 0.25
2 -18 -13 0.21 0.18
-18 2 13 0.22 0.25
13 18 -2 -0.01 0.28
-2 18 -13 0.27 0.28
-18 2 13 0.16 0.19
2 18 13 -0.16 0.26
13 -18 2 -0.24 0.22
-2 13 18 -0.15 0.22
-13 18 2 -0.05 0.28
-13 -2 18 -0.02 0.27
-2 18 13 -0.25 0.25
2 13 18 -0.12 0.23
2 -13 -18 0.03 0.19
13 -2 18 0.04 0.12
-2 13 -18 0.14 0.25
13 18 2 0.12 0.3
-18 -2 13 -0.17 0.17
-18 -13 -2 -0.05 0.24
-2 -18 -13 -0.12 0.18
-18 13 2 0.07 0.23
-13 2 18 0.28 0.19
-13 2 18 -0.05 0.24
13 -18 -2 -0.12 0.21
-2 -13 18 0.45 0.27
-18 -2 13 0.55 0.28
-13 18 -2 0.07 0.27
-13 -18 2 0 0.26
13 -2 18 0.04 0.19
18 -13 2 0.07 0.18
2 -18 13 0.33 0.26
2 18 -13 0.06 0.3
18 -13 -3 -0.34 0.18
13 3 18 -0.16 0.15
-13 18 3 -0.11 0.26
-18 3 13 0.2 0.22
-13 -3 18 0.2 0.27
13 18 -3 -0.01 0.29
-3 -18 13 -0.15 0.27
-13 -3 18 -0.18 0.18
-18 3 13 0.07 0.19
-13 -18 -3 -0.33 0.24
3 -13 18 -0.56 0.27
-3 -13 -18 -0.1 0.18
-3 18 -13 0.28 0.28
3 13 -18 0.05 0.26
3 -18 -13 0.22 0.19
13 3 18 0.09 0.16
3 18 13 -0.03 0.28
18 13 3 -0.28 0.23
-3 13 18 -0.23 0.22
13 -18 3 0.17 0.22
-18 -13 3 -0.23 0.25
-18 13 -3 0.16 0.24
-3 -18 -13 0.02 0.19
-13 -18 3 -0.17 0.26
-3 13 -18 0.21 0.26
-13 3 18 -0.06 0.19
-18 -3 13 0.17 0.26
13 -18 -3 -0.18 0.2
18 13 -3 -0.24 0.25
-18 -13 -3 0.17 0.22
3 -18 13 -0.3 0.28
13 18 3 -0.18 0.27
3 13 18 0.23 0.24
3 -13 -18 0.09 0.18
13 -3 18 0.1 0.13
-13 3 18 -0.04 0.24
-13 18 -3 0.03 0.27
18 -13 3 0.18 0.18
-3 -13 18 -0.16 0.26
-3 18 13 -0.33 0.25
13 -3 18 -0.33 0.19
3 18 -13 -0.23 0.29
-18 -3 13 0.17 0.17
-18 13 3 0.05 0.23
-18 4 13 0.3 0.25
-18 4 13 -0.07 0.19
-13 -4 18 -0.13 0.26
-4 -18 13 -0.39 0.27
-4 18 -13 -0.36 0.29
-18 13 -4 -0.33 0.24
4 13 -18 -0.28 0.26
13 4 18 0.1 0.17
13 18 -4 0.33 0.28
-13 -18 -4 -0.05 0.24
13 4 18 0.17 0.16
-4 -13 -18 -0.03 0.18
18 -13 -4 0.12 0.18
13 -18 4 0.07 0.22
4 -13 18 -0.53 0.26
-4 13 18 -0.11 0.22
-18 -13 4 0.24 0.26
18 13 4 -0.2 0.24
4 18 13 -0.27 0.28
4 -18 -13 -0.14 0.2
-13 18 4 -0.13 0.27
-18 -13 -4 -0.43 0.21
-18 13 4 0.3 0.24
13 -4 18 -0.11 0.13
-13 4 18 -0.16 0.21
18 13 -4 -0.2 0.25
4 -18 13 -0.4 0.26
13 18 4 -0.41 0.27
-13 18 -4 0.05 0.27
4 18 -13 -0.25 0.29
13 -18 -4 -0.11 0.21
-18 -4 13 0.19 0.27
-4 13 -18 0.25 0.25
18 -13 4 -0.09 0.19
-4 -18 -13 0.17 0.2
-4 18 13 -0.06 0.26
-4 -13 18 0.08 0.28
13 -4 18 0.27 0.2
-18 -4 13 -0.04 0.18
4 -13 -18 0.21 0.19
-13 4 18 -0.03 0.24
-13 -18 4 -0.28 0.25
4 13 18 0.05 0.25
-19 0 0 -0.06 0.2
-19 0 0 0.36 0.16
0 -19 0 0.23 0.29
0 0 19 0.67 0.28
0 0 19 0.48 0.2
0 19 0 -0.11 0.31
-19 0 -1 1.88 0.25
-19 0 -1 3.23 0.37
-19 0 1 2.14 0.27
-19 0 1 2.91 0.4
-1 -19 0 2.04 0.36
-1 19 0 1.79 0.39
0 -1 19 1.6 0.32
0 -1 19 3.59 0.45
0 1 19 2.35 0.32
0 1 19 2.01 0.28
1 -19 0 1.65 0.32
1 19 0 1.8 0.39
-19 1 0 2.95 0.39
-1 0 19 1.69 0.33
-1 0 19 2 0.27
0 -19 -1 2.05 0.36
0 -19 1 1.96 0.33
0 19 -1 1.61 0.39
0 19 1 2.07 0.38
1 0 19 1.73 0.33
1 0 19 1.88 0.27
-19 -1 0 3.58 0.37
-19 1 0 1.88 0.26
-19 -1 0 1.9 0.27
-19 -1 1 -0.21 0.21
-19 -1 -1 0.03 0.19
-19 -1 -1 0.05 0.15
-19 1 1 -0.04 0.19
-19 1 1 0.08 0.17
-1 -19 -1 0.02 0.27
-1 -19 1 -0.07 0.29
-1 -1 19 0.11 0.28
-1 -1 19 -0.23 0.2
-1 1 19 0.02 0.25
-1 1 19 0.02 0.2
-1 19 -1 -0.34 0.32
-1 19 1 -0.21 0.31
1 -19 -1 0.37 0.28
1 -19 1 0.04 0.3
1 -1 19 0.09 0.26
1 -1 19 0.07 0.19
1 1 19 0.33 0.25
1 1 19 0.02 0.21
1 19 -1 0.19 0.3
1 19 1 0.51 0.33
-19 1 -1 0.02 0.17
-19 1 -1 -0.05 0.15
-19 -1 1 0.11 0.16
2 -19 0 10.17 1.07
2 19 0 9.7 1.09
0 2 19 11.63 0.99
0 -2 19 11.05 0.97
0 2 19 12.71 1.07
-19 0 -2 10.73 0.94
-19 0 -2 11.3 0.91
-19 0 2 12.09 1
-19 0 2 11.07 0.93
-2 -19 0 12 1.06
-19 -2 0 11.4 0.97
-19 -2 0 13.03 0.92
-19 2 0 12.33 0.96
-19 2 0 11.44 0.94
-2 0 19 10.46 1.06
-2 0 19 10.98 0.97
0 -19 -2 10.83 1.05
0 -19 2 11.11 1.06
0 19 -2 10.15 1.09
0 19 2 11.02 1.11
0 -2 19 11.17 1.08
-2 19 0 11.36 1.11
-2 -19 -1 0.91 0.29
-19 -2 1 1.2 0.18
-19 2 -1 0.85 0.19
-19 2 -1 0.92 0.19
-1 2 19 1.28 0.24
1 -2 19 0.74 0.29
-2 -1 19 1.08 0.28
-2 -1 19 1.31 0.22
-19 1 2 1.28 0.23
-1 2 19 0.87 0.28
2 -19 1 0.82 0.3
-1 -19 2 1.13 0.29
-1 19 -2 0.45 0.32
-19 1 2 1.41 0.2
1 -19 -2 0.94 0.3
-2 19 1 1 0.36
-19 -1 -2 1.1 0.16
1 19 2 0.78 0.33
1 -2 19 1.09 0.24
2 19 -1 0.98 0.33
-19 -2 1 1.11 0.23
-19 -1 -2 1.38 0.19
1 19 -2 1.03 0.34
-19 -2 -1 1.15 0.17
2 -1 19 1.07 0.51
-19 1 -2 1.13 0.18
1 -19 2 1.29 0.3
-19 1 -2 1.2 0.17
-2 1 19 1.38 0.3
-2 1 19 1.33 0.23
-19 2 1 1.32 0.21
-19 2 1 0.74 0.2
-19 -2 -1 0.83 0.21
1 2 19 0.92 0.27
1 2 19 1.12 0.22
2 -19 -1 0.94 0.28
-1 -19 -2 0.98 0.28
-19 -1 2 1.24 0.23
-19 -1 2 1.3 0.19
-2 -19 1 1.26 0.32
-2 19 -1 1 0.33
2 19 1 0.78 0.33
-1 -2 19 1.13 0.3
-1 19 2 1.38 0.35
-19 -2 -2 -0.11 0.16
-19 -2 2 -0.55 0.21
-19 -2 2 -0.28 0.16
-19 2 -2 -0.27 0.15
-19 2 -2 -0.32 0.15
-19 2 2 -0.11 0.19
2 -19 -2 -0.38 0.25
2 -19 2 -0.13 0.27
2 -2 19 0.04 0.32
-2 -19 -2 -0.46 0.27
-2 -19 2 -0.27 0.27
-19 -2 -2 -0.16 0.13
-19 2 2 -0.37 0.18
2 2 19 -0.34 0.34
2 19 -2 -0.48 0.3
2 19 2 0.19 0.31
-2 -2 19 -0.75 0.26
-2 2 19 -0.26 0.25
-2 2 19 -0.08 0.2
-2 19 -2 -0.45 0.31
-2 19 2 0.17 0.3
2 2 19 -0.62 0.43
2 -2 19 -0.33 0.24
0 19 -3 0.56 0.29
0 -19 3 0.62 0.27
0 -19 -3 0.35 0.25
-19 0 3 0.64 0.22
-19 0 3 0.46 0.18
-3 -19 0 0.56 0.27
-3 19 0 0.3 0.3
-19 3 0 0.83 0.18
0 -3 19 1.18 0.28
-19 -3 0 0.54 0.2
-19 -3 0 0.76 0.15
3 19 0 0.2 0.31
-19 3 0 0.42 0.18
-3 0 19 0.57 0.27
-3 0 19 0.51 0.21
-19 0 -3 0.62 0.14
-19 0 -3 0.7 0.12
3 -19 0 0.7 0.27
0 3 19 0.78 0.26
0 3 19 0.89 0.2
0 19 3 0.29 0.3
3 0 19 0.29 0.24
3 0 19 0.2 0.19
1 19 3 0.1 0.32
1 -3 19 0.1 0.25
1 -19 -3 -0.03 0.24
-1 -19 3 -0.26 0.27
3 1 19 -0.22 0.18
-19 -1 -3 -0.07 0.13
-19 -1 -3 0.05 0.11
-19 1 3 -0.06 0.18
3 -19 1 -0.33 0.27
3 19 -1 0.17 0.3
-1 19 -3 -0.28 0.3
-3 19 1 0.07 0.32
-19 3 -1 -0.03 0.15
-19 3 -1 0.22 0.17
-1 3 19 0.08 0.2
-19 -3 1 -0.26 0.2
-3 -1 19 -0.12 0.27
-3 -1 19 -0.05 0.19
-19 1 3 0.18 0.21
-1 3 19 0.09 0.26
-3 -19 -1 -0.22 0.27
3 1 19 -0.03 0.23
-19 -3 1 0.19 0.14
-1 -3 19 0.24 0.26
3 -19 -1 0.51 0.27
-19 -3 -1 0.06 0.13
-19 3 1 -0.12 0.18
-19 1 -3 -0.14 0.13
1 3 19 0.19 0.24
-19 3 1 -0.04 0.18
1 19 -3 0 0.3
-19 1 -3 0.05 0.12
1 3 19 0.19 0.19
-19 -1 3 -0.19 0.16
1 -19 3 0.04 0.27
-19 -3 -1 -0.25 0.17
-3 19 -1 -0.35 0.3
-3 1 19 -0.25 0.25
-3 -19 1 -0.04 0.27
3 -1 19 0.16 0.25
-1 19 3 0.23 0.31
-19 -1 3 -0.16 0.19
3 -1 19 -0.23 0.17
-3 1 19 -0.22 0.2
3 19 1 -0.47 0.3
-1 -19 -3 0.04 0.25
3 -19 2 0.72 0.29
-3 -2 19 1.14 0.22
-19 -3 2 2.53 0.34
2 19 3 1.21 0.33
-19 -2 -3 1.87 0.23
-19 -2 -3 1.09 0.16
-19 2 3 1.32 0.2
-2 3 19 1.51 0.23
-19 2 3 1.2 0.23
2 -3 19 0.81 0.27
3 19 -2 1.11 0.32
-2 -19 3 1.02 0.29
-19 3 -2 1.26 0.18
-19 3 -2 0.93 0.19
2 -19 -3 1.19 0.29
-3 -19 -2 1.13 0.29
-2 19 -3 1.3 0.33
-2 3 19 1.61 0.29
3 2 19 1.01 0.27
3 2 19 0.99 0.22
-3 -2 19 0.93 0.3
-19 -3 2 1.49 0.24
-3 19 2 0.87 0.33
3 -2 19 1.17 0.21
2 3 19 0.94 0.27
-19 -3 -2 2.16 0.26
3 -19 -2 1.09 0.28
3 -2 19 1.1 0.3
-2 19 3 1.31 0.35
-19 3 2 1.28 0.22
-3 19 -2 0.62 0.34
2 19 -3 1.02 0.32
-19 3 2 1.59 0.21
-19 2 -3 2.23 0.3
-3 2 19 1.6 0.24
-2 -19 -3 1.37 0.29
2 3 19 0.92 0.25
3 19 2 1.02 0.33
-3 -19 2 1.78 0.3
-19 2 -3 1.14 0.17
-2 -3 19 1.11 0.3
-3 2 19 1.23 0.27
-19 -2 3 0.96 0.24
-19 -2 3 1.08 0.19
2 -19 3 1.36 0.3
-19 -3 -2 1.02 0.19
3 3 19 -0.18 0.25
-3 19 -3 -0.23 0.29
3 -19 3 0.06 0.26
3 -19 -3 -0.09 0.24
-19 3 3 0.02 0.18
-3 -19 -3 -0.13 0.27
-3 -19 3 0.11 0.25
-3 -3 19 -0.26 0.26
-3 3 19 0.01 0.25
-3 3 19 0.15 0.2
-19 3 -3 0.11 0.14
-19 3 3 0.06 0.2
3 19 -3 -0.29 0.3
3 19 3 0.61 0.29
-19 -3 -3 -0.11 0.13
-19 -3 -3 0.06 0.1
-19 -3 3 0.23 0.2
-19 -3 3 0.17 0.15
-19 3 -3 0.05 0.13
3 3 19 0 0.21
-3 19 3 0.02 0.29
0 4 19 -0.16 0.19
0 4 19 -0.15 0.22
-4 0 19 -0.15 0.23
-4 0 19 -0.31 0.19
-19 -4 0 -0.21 0.12
-19 4 0 -0.17 0.16
-19 4 0 -0.17 0.17
4 0 19 -0.26 0.17
0 4 -19 0.11 0.24
-19 0 4 -0.27 0.2
-19 0 4 -0.32 0.16
-19 -4 0 -0.03 0.19
4 19 0 -0.5 0.28
0 19 -4 0.25 0.29
0 19 4 -0.16 0.31
4 -19 0 -0.22 0.25
-4 -19 0 -0.37 0.25
-4 19 0 -0.33 0.3
0 -4 19 -0.1 0.26
0 -19 -4 -0.13 0.24
0 -19 4 -0.49 0.26
4 0 19 0.09 0.23
-19 1 4 1.01 0.19
4 -19 1 1.12 0.27
-4 -1 19 1.42 0.21
-1 -19 4 1.03 0.27
-1 4 19 1.07 0.21
4 1 19 1.56 0.26
-19 1 4 1.05 0.23
-4 19 1 1.08 0.31
-4 -19 -1 0.91 0.28
-4 -1 19 0.82 0.27
4 1 19 0.99 0.2
1 4 -19 1.26 0.26
1 19 4 1.3 0.32
-1 4 19 0.81 0.26
-19 -4 1 0.69 0.22
-19 -4 1 0.95 0.16
-19 4 -1 0.99 0.18
-19 4 -1 0.97 0.18
-1 19 -4 0.62 0.31
1 -4 19 0.56 0.27
1 -19 -4 0.74 0.25
4 19 -1 0.89 0.3
-4 1 19 1.13 0.27
-19 -4 -1 1.13 0.2
-19 4 1 1.02 0.2
-19 -1 4 1.14 0.19
-1 -4 19 1.12 0.28
-1 4 -19 0.87 0.25
-19 -4 -1 1.06 0.15
-19 -1 4 0.77 0.23
-19 4 1 0.95 0.2
4 -1 19 1.26 0.19
1 4 19 0.87 0.24
1 4 19 0.97 0.21
-1 -19 -4 1.17 0.27
-4 19 -1 1.01 0.32
4 -1 19 1.1 0.26
4 19 1 1.09 0.31
-4 1 19 1.36 0.22
-1 19 4 0.96 0.32
-4 -19 1 0.9 0.28
1 -19 4 0.76 0.27
1 19 -4 0.72 0.31
4 -19 -1 0.85 0.25
2 19 4 2.57 0.42
2 -19 -4 5.1 0.59
4 2 19 5.29 0.59
-19 2 4 4.84 0.56
4 19 -2 4.99 0.67
-4 -19 -2 4.52 0.61
-2 4 19 4.44 0.52
-19 4 -2 3.86 0.44
-19 4 -2 4.44 0.45
4 2 19 3.87 0.48
-19 2 4 4.72 0.47
4 -19 2 4.47 0.62
-4 -2 19 2.43 0.4
-4 -2 19 4.41 0.49
2 -4 19 2.61 0.39
-2 4 19 2.6 0.39
2 4 -19 4.24 0.59
-2 -19 4 2.64 0.41
-19 -4 2 4.34 0.53
-4 19 2 2.84 0.43
-19 4 2 4.9 0.51
-19 -4 -2 4.41 0.45
-19 4 2 5.25 0.48
-4 2 19 4.24 0.61
-4 -19 2 2.57 0.4
4 -2 19 4 0.47
2 4 19 3.63 0.47
-2 -4 19 4.62 0.63
-19 -2 4 4.95 0.56
-19 -2 4 4 0.46
4 -2 19 4.24 0.61
2 4 19 4.12 0.56
-19 -4 -2 3.84 0.37
-2 -19 -4 4.91 0.57
-4 19 -2 2.48 0.43
4 -19 -2 2.51 0.38
2 19 -4 2.47 0.43
-2 4 -19 4.33 0.55
-4 2 19 4.21 0.51
-19 4 -3 0.25 0.14
4 19 -3 0.36 0.29
-19 3 4 0.57 0.21
4 -19 3 0.24 0.26
-4 19 3 0.29 0.28
4 3 19 0.47 0.22
-3 19 -4 0.06 0.29
-3 4 19 -0.07 0.24
-3 4 19 0.14 0.2
-4 -3 19 0.32 0.28
-19 4 -3 0.27 0.15
-19 3 4 -0.03 0.17
4 3 19 0.26 0.17
-3 -19 4 0.36 0.28
3 19 4 0.13 0.31
3 -19 -4 0.27 0.23
3 4 -19 0.21 0.23
-19 -4 3 0.18 0.2
3 -4 19 0.25 0.27
-4 -19 -3 0.19 0.26
4 -19 -3 0.63 0.25
-3 4 -19 0.07 0.31
-19 4 3 0.02 0.18
-19 3 -4 0.15 0.11
-19 3 -4 0.19 0.11
-3 -4 19 0.01 0.24
-19 -4 -3 0.37 0.15
-19 -4 -3 0.3 0.1
3 -19 4 -0.07 0.25
4 19 3 0.31 0.29
-4 3 19 0.34 0.25
-19 -3 4 0.24 0.22
-19 4 3 -0.26 0.17
3 19 -4 0.41 0.27
4 -3 19 0.26 0.24
-4 3 19 0.35 0.21
-3 -19 -4 0.44 0.25
-19 -3 4 0.31 0.15
-4 -19 3 0.11 0.26
-4 19 -3 0.13 0.29
-3 19 4 0.34 0.27
-19 4 4 0.02 0.19
-19 4 -4 -0.03 0.12
-4 19 4 0.18 0.27
4 4 19 0.05 0.17
4 19 -4 0.2 0.28
-4 -19 -4 0.36 0.24
-4 -19 4 -0.1 0.27
-4 -4 19 -0.03 0.26
4 -19 -4 -0.12 0.22
-19 4 -4 -0.13 0.13
4 -19 4 -0.06 0.26
4 -4 19 -0.35 0.28
-4 4 -19 -0.12 0.21
-4 4 19 0.01 0.24
-4 4 19 -0.2 0.2
-4 19 -4 -0.14 0.27
4 19 4 0.28 0.28
4 4 19 -0.45 0.2
-19 -4 4 -0.46 0.19
4 4 -19 -0.07 0.24
-19 4 4 -0.32 0.17
5 19 0 0.33 0.28
5 -19 0 0.09 0.23
-19 0 5 0.19 0.21
-19 0 5 0.18 0.16
5 0 19 0.05 0.22
0 5 19 0.27 0.18
-5 19 0 0.33 0.29
-19 5 0 0.21 0.17
0 5 -19 0.22 0.25
0 5 19 0.75 0.22
0 -19 -5 0.38 0.23
-5 -19 0 0.32 0.25
-5 0 19 0.1 0.23
-5 0 19 0.18 0.19
-19 -5 0 0.28 0.19
-19 5 0 0.15 0.16
5 0 19 0.03 0.17
0 -19 5 0.57 0.26
0 19 -5 0.64 0.3
0 -5 19 0.15 0.26
0 19 5 0.29 0.29
1 -19 -5 -0.12 0.22
-19 -5 1 -0.11 0.18
-5 -1 19 -0.11 0.24
5 -19 1 -0.48 0.25
1 5 -19 0.01 0.24
-1 19 -5 0.21 0.29
5 1 19 -0.08 0.2
-19 5 -1 0.11 0.15
-19 5 -1 -0.02 0.17
-1 5 19 -0.15 0.22
5 19 -1 0.17 0.29
-5 -19 -1 -0.07 0.24
-19 1 5 -0.09 0.2
-1 5 19 -0.07 0.19
1 -5 19 0.14 0.26
-1 -19 5 0.22 0.27
5 1 19 0.09 0.16
-5 19 1 -0.21 0.27
-5 -1 19 -0.08 0.18
-19 1 5 -0.14 0.16
1 19 5 -0.05 0.27
-19 -5 -1 -0.23 0.17
-19 5 1 0.1 0.16
5 -1 19 0.12 0.16
-5 -19 1 -0.14 0.24
1 -19 5 -0.4 0.26
5 -1 19 -0.5 0.22
-1 -5 19 -0.03 0.26
-1 5 -19 -0.19 0.23
1 19 -5 -0.1 0.27
-5 1 19 -0.32 0.23
-5 1 19 -0.13 0.19
-1 -19 -5 0.17 0.25
-19 -1 5 -0.04 0.16
5 19 1 0.24 0.28
-19 -1 5 0.04 0.2
-19 5 1 0.09 0.18
1 5 19 -0.1 0.18
5 -19 -1 -0.07 0.23
-5 19 -1 0.17 0.29
-1 19 5 -0.31 0.26
1 5 19 0.1 0.2
2 19 5 -0.2 0.29
2 -19 -5 0.44 0.23
5 -19 2 0.33 0.25
5 19 -2 0.23 0.28
-2 -19 5 0.3 0.27
-2 19 -5 0.22 0.28
-19 2 5 0.28 0.21
-19 -5 2 0.1 0.2
-5 -2 19 0.14 0.19
5 2 19 0.15 0.17
-5 -2 19 0.17 0.25
2 5 -19 0.11 0.24
-2 5 19 0.29 0.23
-2 5 19 0.31 0.19
2 -5 19 0.14 0.27
-5 19 2 0.38 0.28
-19 2 5 0.35 0.18
-5 -19 -2 0.4 0.25
-19 5 -2 0.11 0.14
-19 5 -2 0.06 0.16
5 2 19 0.25 0.21
5 -2 19 0.26 0.23
5 -2 19 0.23 0.16
5 -19 -2 0.61 0.25
2 5 19 0.26 0.21
2 5 19 0.44 0.2
-19 -5 -2 0.26 0.18
-2 19 5 0.36 0.28
5 19 2 0.39 0.28
-5 -19 2 0.37 0.26
-5 19 -2 -0.04 0.3
-19 5 2 0.3 0.18
-2 -5 19 0.43 0.26
-2 5 -19 0.09 0.23
-5 2 19 0.09 0.23
-5 2 19 0.19 0.21
-2 -19 -5 0.58 0.24
2 19 -5 0.28 0.27
-19 -2 5 0.39 0.21
-19 -2 5 0.26 0.16
-19 5 2 0.43 0.18
2 -19 5 0.15 0.24
-3 5 19 0.18 0.18
3 -5 19 -0.08 0.24
-5 19 3 0.49 0.27
-19 3 5 0.07 0.2
-19 -5 3 0.01 0.2
-19 5 -3 0 0.13
5 -19 3 -0.04 0.25
5 19 -3 0.13 0.27
-19 5 -3 -0.08 0.14
-3 -19 5 0.18 0.26
-3 5 19 0.26 0.22
-3 19 -5 0.12 0.27
3 19 5 -0.43 0.27
3 -19 -5 0.41 0.23
5 3 19 -0.11 0.2
-19 3 5 0.35 0.17
3 5 -19 0.3 0.24
-5 -3 19 0.29 0.25
-5 -19 -3 -0.1 0.25
5 3 19 -0.04 0.16
3 -19 5 0.17 0.26
3 5 19 -0.06 0.18
-3 -5 19 0.02 0.25
-19 5 3 -0.15 0.18
-3 5 -19 0.08 0.23
5 -19 -3 -0.37 0.21
5 -3 19 0.09 0.23
-5 3 19 0.18 0.25
-19 -3 5 0.15 0.15
3 5 19 0.19 0.22
3 19 -5 -0.06 0.27
-3 19 5 0.02 0.29
-19 -5 -3 0.07 0.15
-5 -19 3 0.27 0.26
-5 3 19 -0.18 0.2
5 19 3 -0.1 0.28
-5 19 -3 -0.48 0.28
-3 -19 -5 0.15 0.24
-19 -3 5 0.39 0.2
-19 5 3 0.12 0.17
4 19 5 0.5 0.29
5 4 19 0.14 0.18
-19 5 -4 0.43 0.12
-4 -19 5 -0.05 0.26
-5 4 -19 0.66 0.22
4 -5 19 0.38 0.32
5 4 19 0.48 0.21
-5 -4 19 0.6 0.25
5 19 -4 0.38 0.27
-4 5 19 0.61 0.19
-4 19 -5 0.13 0.27
-19 4 5 0.34 0.2
4 5 -19 0.58 0.24
4 -19 -5 0.24 0.22
-4 5 19 0.2 0.22
5 -19 4 0.2 0.25
-5 19 4 0.3 0.27
-19 -5 4 0.33 0.2
-5 -19 -4 0.3 0.24
-19 5 -4 0.37 0.15
-19 4 5 0.4 0.19
-5 4 19 0.27 0.23
4 19 -5 -0.17 0.27
5 4 -19 0.27 0.24
-19 -5 -4 0.2 0.09
-5 -19 4 0.44 0.27
-19 -5 -4 0.23 0.13
4 5 19 0.27 0.23
5 19 4 0.01 0.27
-19 4 -5 0.28 0.12
-19 4 -5 0.16 0.1
-19 5 4 0.64 0.2
-19 5 4 0.02 0.17
-19 -4 5 0.35 0.2
-4 19 5 0.33 0.3
-5 19 -4 0.33 0.27
5 -4 19 0.23 0.23
4 5 19 0.42 0.22
5 -19 -4 0.08 0.23
4 -19 5 0.02 0.24
-4 -19 -5 0.24 0.23
-5 4 19 0.28 0.21
-4 -5 19 0.43 0.29
-19 5 -5 0.05 0.11
5 5 19 -0.04 0.19
5 19 5 0.18 0.28
-5 -5 19 -0.07 0.25
-5 5 19 0.18 0.2
5 5 19 0.01 0.17
5 19 -5 0.09 0.29
5 5 -19 -0.13 0.21
5 -19 5 0.08 0.24
5 -5 19 0.2 0.24
-19 5 5 -0.14 0.19
5 -19 -5 -0.23 0.2
-19 -5 5 -0.23 0.2
-5 -19 5 -0.17 0.25
-5 19 -5 0.19 0.26
-5 19 5 -0.27 0.28
-5 -19 -5 -0.23 0.22
-5 5 19 -0.12 0.18
-5 5 -19 -0.15 0.21
-19 5 5 0.13 0.18
-19 5 -5 0.06 0.14
6 -19 0 0.3 0.22
0 6 19 -0.01 0.22
0 6 19 0.34 0.19
-6 -19 0 0.37 0.24
0 -6 19 0.52 0.27
-6 0 19 0.02 0.18
0 -19 -6 0.28 0.24
0 6 -19 0.17 0.23
-19 0 6 0.19 0.2
-19 0 6 0.2 0.17
-19 -6 0 0.06 0.19
0 -19 6 0.22 0.26
0 19 -6 -0.14 0.27
0 19 6 0.45 0.27
6 0 19 -0.02 0.22
6 19 0 0.24 0.27
19 6 0 0.48 0.16
-19 6 0 0.25 0.17
6 0 19 0.19 0.16
-6 0 19 0.32 0.23
-6 19 0 0.13 0.27
1 6 -19 -0.14 0.21
-19 -6 1 0.03 0.19
-6 -1 19 -0.31 0.17
1 -6 19 -0.16 0.25
6 19 -1 -0.34 0.28
6 -19 1 -0.16 0.24
-19 1 6 -0.13 0.16
-6 -19 -1 -0.15 0.23
1 19 6 -0.16 0.28
-1 -19 6 -0.06 0.26
-1 19 -6 -0.01 0.26
-19 6 -1 -0.06 0.16
1 -19 -6 0.05 0.22
-6 19 1 0.11 0.29
6 1 19 -0.33 0.15
6 1 19 -0.11 0.2
-19 1 6 -0.1 0.19
-1 6 19 -0.12 0.22
-1 6 19 -0.06 0.19
-6 -1 19 0.23 0.23
19 6 1 0.2 0.15
1 19 -6 0.26 0.27
-19 -6 -1 -0.03 0.18
-6 1 19 -0.07 0.23
-6 1 19 -0.22 0.19
19 6 -1 0.09 0.17
-1 6 -19 -0.14 0.22
6 -19 -1 0.11 0.24
-1 -19 -6 -0.4 0.23
6 -1 19 -0.19 0.21
6 19 1 0.19 0.28
1 6 19 -0.08 0.2
-19 -1 6 0.2 0.21
-19 -1 6 0.03 0.16
1 6 19 -0.05 0.18
-6 -19 1 -0.09 0.24
6 -1 19 -0.09 0.15
-6 19 -1 -0.25 0.27
1 -19 6 0.5 0.26
-1 -6 19 -0.14 0.27
-19 6 1 -0.08 0.18
-1 19 6 0.24 0.28
6 2 19 -0.2 0.19
-6 19 2 -0.25 0.26
-6 -2 19 0.11 0.24
6 2 19 -0.14 0.16
-19 -6 2 -0.23 0.19
-6 -19 -2 -0.05 0.25
2 -19 -6 -0.15 0.21
-2 -19 6 -0.08 0.26
-2 19 -6 -0.38 0.27
6 19 -2 0.18 0.27
-19 2 6 -0.16 0.17
-2 6 19 -0.03 0.22
-2 6 19 0.08 0.19
2 -6 19 0.27 0.25
19 6 2 -0.02 0.14
-19 2 6 -0.42 0.2
2 6 -19 -0.14 0.22
-19 6 -2 -0.05 0.15
-6 -2 19 -0.21 0.17
2 19 6 0.32 0.27
6 -19 2 -0.06 0.23
-19 6 2 -0.1 0.18
6 -2 19 -0.03 0.14
2 6 19 0.13 0.21
-2 -6 19 -0.03 0.26
-2 19 6 -0.36 0.29
-2 -19 -6 -0.33 0.22
2 6 19 0.1 0.18
6 -19 -2 -0.12 0.21
-6 -19 2 0.51 0.26
6 -2 19 -0.04 0.22
-6 19 -2 -0.29 0.28
-19 -2 6 -0.11 0.19
-19 -2 6 -0.09 0.15
-2 6 -19 -0.1 0.22
-6 2 19 0.29 0.24
-6 2 19 -0.15 0.19
-19 -6 -2 -0.16 0.18
2 -19 6 0.08 0.25
19 6 -2 -0.36 0.18
6 19 2 0.13 0.27
2 19 -6 -0.28 0.27
6 3 19 0.23 0.21
6 3 19 0.16 0.16
-6 -19 -3 0.13 0.24
-3 19 -6 0.14 0.28
6 19 -3 -0.25 0.26
-6 -3 19 0.22 0.26
-19 3 6 0.03 0.17
-3 6 19 0.11 0.21
3 -19 -6 0.22 0.2
-19 6 -3 0.26 0.16
3 19 6 0.36 0.28
-19 -6 3 0.21 0.2
-3 -19 6 0.05 0.25
3 6 -19 0.12 0.23
-6 19 3 0.2 0.27
-19 3 6 0.09 0.2
-3 6 19 0.28 0.2
3 -6 19 0.24 0.25
6 -19 3 0.23 0.25
-19 -6 -3 0.2 0.16
-6 19 -3 0.34 0.28
-19 6 3 -0.33 0.17
3 19 -6 0.33 0.29
6 19 3 -0.3 0.28
3 6 19 -0.04 0.18
6 -19 -3 0.13 0.23
3 6 19 0.02 0.21
-19 -3 6 0 0.2
-19 -3 6 0.23 0.15
19 6 -3 0.23 0.19
3 -19 6 0.14 0.24
-6 -19 3 0.13 0.25
-6 3 19 0.57 0.26
-3 6 -19 0.08 0.22
6 -3 19 0.17 0.24
-3 -19 -6 0.04 0.22
-3 19 6 0.25 0.29
-3 -6 19 -0.28 0.25
-6 3 19 0.01 0.2
-6 -4 19 0.27 0.26
-6 19 4 -0.04 0.27
-4 -19 6 0.59 0.26
-4 19 -6 0.4 0.28
-19 4 6 0.07 0.19
4 6 -19 0.11 0.21
-4 6 19 -0.01 0.21
-19 -6 4 -0.06 0.2
-19 6 -4 0.08 0.16
6 19 -4 0.33 0.28
-4 6 19 -0.16 0.18
4 19 6 -0.08 0.28
-6 4 -19 -0.26 0.19
4 -6 19 0 0.24
-6 -19 -4 0.12 0.24
-19 4 6 0.17 0.17
6 4 19 -0.09 0.19
6 -19 4 0.23 0.25
4 -19 -6 0 0.2
6 4 19 0.08 0.16
-19 6 4 0.15 0.19
-19 -4 6 0.16 0.21
-19 -6 -4 0.08 0.14
-4 -19 -6 -0.02 0.23
4 19 -6 0.32 0.29
-6 -19 4 0.51 0.26
4 6 19 0.19 0.24
-4 -6 19 0.48 0.27
-4 19 6 -0.17 0.27
-6 4 19 0.17 0.2
-19 6 4 0.2 0.18
-6 4 19 0.14 0.22
6 4 -19 -0.48 0.22
6 19 4 0.04 0.27
-4 6 -19 -0.06 0.21
-6 19 -4 -0.18 0.26
4 -19 6 0 0.23
6 -4 19 0.21 0.23
6 -19 -4 -0.03 0.19
4 6 19 0.41 0.22
19 6 -4 -0.01 0.19
6 19 -5 -0.25 0.28
-19 -6 5 -0.1 0.21
-19 6 -5 -0.18 0.16
-6 5 -19 0.27 0.2
5 -6 19 -0.32 0.3
-19 5 6 -0.06 0.17
6 5 19 0.05 0.17
6 -19 5 -0.07 0.24
5 -19 -6 -0.05 0.2
5 6 -19 -0.27 0.23
-19 5 6 -0.12 0.19
-5 19 -6 0.17 0.27
-6 -19 -5 -0.13 0.21
6 5 19 0.05 0.19
-5 6 19 0.16 0.2
-5 -19 6 -0.4 0.24
5 19 6 0.42 0.28
-6 -5 19 -0.23 0.26
-6 19 5 -0.12 0.27
-5 6 19 0.21 0.23
-19 6 5 0.18 0.18
-5 -19 -6 0.08 0.21
-19 6 5 -0.22 0.18
5 -19 6 -0.08 0.24
6 5 -19 -0.2 0.22
-5 19 6 0.5 0.27
-19 -6 -5 0.01 0.11
-19 -5 6 -0.06 0.2
-19 5 -6 0.1 0.09
-19 5 -6 0 0.12
5 19 -6 -0.21 0.27
6 19 5 -0.15 0.26
6 -5 19 0.06 0.23
-6 -19 5 0.37 0.26
-6 5 19 -0.1 0.21
5 6 19 0.19 0.19
5 6 19 -0.25 0.2
19 6 -5 0.28 0.2
-6 19 -5 -0.08 0.27
6 -19 -5 0.25 0.21
-5 -6 19 0.03 0.24
-6 5 19 0.11 0.19
19 6 -6 0.03 0.21
6 -19 -6 -0.24 0.19
6 -19 6 -0.19 0.25
6 -6 19 -0.11 0.24
6 6 -19 0.19 0.24
-6 -19 6 0.06 0.26
6 6 19 -0.07 0.18
6 19 -6 -0.1 0.28
6 19 6 -0.04 0.27
-6 -6 19 -0.35 0.26
-6 6 -19 -0.02 0.2
-6 19 6 -0.33 0.26
-6 19 -6 0.21 0.27
-6 6 19 -0.13 0.22
-6 6 19 -0.2 0.19
-19 -6 6 -0.04 0.21
-19 6 6 -0.1 0.17
-6 -19 -6 -0.07 0.21
-19 6 -6 -0.23 0.15
6 6 19 -0.11 0.18
-19 6 6 -0.13 0.18
0 7 19 0.28 0.19
0 -7 19 0.25 0.25
0 7 19 0.07 0.21
-7 -19 0 -0.13 0.24
-7 19 0 0.36 0.27
0 19 7 0.2 0.28
7 0 19 -0.04 0.21
7 0 19 0.09 0.15
-19 0 7 0.17 0.2
-19 0 7 -0.02 0.16
-19 7 0 0.04 0.17
-7 0 19 -0.23 0.22
0 -19 7 0.29 0.26
0 19 -7 0.79 0.27
0 7 -19 -0.12 0.22
7 -19 0 -0.1 0.23
7 19 0 0.06 0.28
19 -7 0 0.11 0.13
19 7 0 0.12 0.17
-19 -7 0 0.05 0.2
0 -19 -7 0.28 0.21
-7 0 19 -0.26 0.17
19 7 1 -0.23 0.16
-19 1 7 0.17 0.2
-19 1 7 0.08 0.17
-19 7 -1 -0.37 0.17
-1 -19 7 0.36 0.26
-1 19 -7 0.13 0.27
-7 19 1 -0.08 0.29
1 19 7 -0.45 0.27
1 -7 19 -0.21 0.25
1 7 -19 0.01 0.23
-1 7 19 -0.11 0.21
-1 7 19 0.05 0.19
-7 -1 19 -0.12 0.16
1 -19 -7 -0.22 0.21
7 1 19 -0.14 0.2
7 19 -1 0.07 0.27
-7 -1 19 0.06 0.23
19 -7 -1 -0.08 0.14
-7 -19 -1 0.05 0.24
7 1 19 0.18 0.15
7 -19 1 -0.3 0.21
-19 -7 1 -0.1 0.2
1 7 19 -0.1 0.19
-19 -1 7 -0.37 0.2
-7 1 19 -0.14 0.23
-7 1 19 -0.28 0.18
1 19 -7 -0.2 0.28
19 7 -1 0.22 0.18
7 19 1 0.15 0.26
1 7 19 -0.36 0.2
-7 -19 1 0.06 0.24
-7 19 -1 0.18 0.28
-1 19 7 0.08 0.28
-19 -1 7 0.11 0.17
1 -19 7 -0.3 0.24
-1 -19 -7 -0.05 0.21
-1 -7 19 0.07 0.26
-1 7 -19 -0.25 0.23
7 -1 19 0.06 0.21
7 -1 19 -0.13 0.15
19 -7 1 0.03 0.13
-19 7 1 -0.15 0.17
-19 -7 -1 -0.26 0.19
7 -19 -1 -0.11 0.22
-2 7 19 0.14 0.19
2 7 -19 -0.47 0.23
7 2 19 0.06 0.15
-19 2 7 -0.04 0.16
-2 7 19 0.01 0.21
7 -19 2 -0.33 0.23
-2 -19 7 0.08 0.25
-2 19 -7 -0.01 0.26
2 19 7 -0.28 0.26
-7 -2 19 0.17 0.18
7 19 -2 0.1 0.26
-19 7 -2 -0.21 0.17
-7 19 2 -0.14 0.26
-7 -2 19 0.06 0.25
2 -7 19 -0.17 0.25
-19 -7 2 0.05 0.21
-19 2 7 0.26 0.2
7 2 19 -0.06 0.2
2 -19 -7 -0.1 0.21
19 7 2 0 0.15
-7 -19 -2 -0.12 0.23
7 -2 19 0.07 0.21
2 7 19 0.25 0.21
2 7 19 0.22 0.2
7 -2 19 0.04 0.14
-7 -19 2 -0.19 0.25
-7 19 -2 -0.31 0.27
-19 7 2 -0.14 0.18
-2 -7 19 0.26 0.25
-2 7 -19 -0.05 0.23
7 -19 -2 -0.19 0.22
-7 2 19 -0.15 0.19
-19 -7 -2 -0.16 0.19
-2 -19 -7 0.02 0.22
-19 -2 7 -0.01 0.2
-19 -2 7 0.02 0.15
2 -19 7 0.05 0.26
19 -7 2 -0.05 0.12
19 7 -2 -0.11 0.19
-2 19 7 -0.35 0.27
2 19 -7 0.06 0.29
-7 2 19 0.22 0.24
7 19 2 0.3 0.28
3 19 7 -0.36 0.27
-19 3 7 0.1 0.18
3 -19 -7 0.03 0.2
-19 -7 3 -0.23 0.2
-19 7 -3 -0.18 0.17
-7 19 3 -0.36 0.27
7 -19 3 0.27 0.24
7 19 -3 0.13 0.27
-3 7 19 0.01 0.22
-3 7 19 0.01 0.19
3 -7 19 0.38 0.25
7 3 19 0.06 0.16
-3 -19 7 -0.15 0.25
-3 19 -7 0.03 0.26
19 7 3 -0.11 0.14
3 7 -19 0.28 0.23
-7 -19 -3 0.18 0.23
7 3 19 0.08 0.19
-19 3 7 0.12 0.2
-7 -3 19 -0.09 0.27
-7 3 19 -0.18 0.19
7 -3 19 -0.23 0.22
3 19 -7 -0.34 0.27
19 -7 3 0.12 0.12
19 7 -3 -0.27 0.19
-7 -19 3 0.21 0.26
-3 -19 -7 -0.15 0.22
3 7 19 -0.01 0.2
3 7 19 0.13 0.2
-19 -7 -3 0.05 0.17
3 -19 7 0.03 0.24
-19 -3 7 -0.09 0.21
-19 7 3 -0.14 0.18
-19 -3 7 -0.17 0.15
-7 3 19 -0.31 0.24
-3 19 7 0.06 0.26
7 19 3 -0.08 0.26
-3 7 -19 0.27 0.23
-7 19 -3 -0.11 0.27
-3 -7 19 0.03 0.25
7 -19 -3 0.1 0.21
7 4 19 0 0.19
7 4 19 0.33 0.17
4 -19 -7 0 0.2
-4 7 19 -0.02 0.18
7 -19 4 0.12 0.23
-7 -19 -4 -0.22 0.23
-4 7 19 0.17 0.22
7 19 -4 0.29 0.29
4 -7 19 0.06 0.24
-19 4 7 -0.16 0.19
-19 -7 4 0.45 0.22
-19 7 -4 0.12 0.17
-19 4 7 -0.13 0.16
-7 -4 19 -0.37 0.26
4 7 -19 0.04 0.24
4 19 7 -0.22 0.27
19 7 4 0.01 0.13
-4 -19 7 0.05 0.24
-7 19 4 0.24 0.27
-4 19 -7 0.19 0.27
-4 -19 -7 -0.04 0.22
4 7 19 -0.03 0.19
4 7 19 -0.21 0.18
-7 4 19 -0.08 0.22
-19 -7 -4 -0.05 0.15
7 4 -19 0 0.24
-4 -7 19 -0.11 0.27
-19 7 4 -0.27 0.17
7 -4 19 -0.01 0.23
4 -19 7 -0.26 0.24
-4 7 -19 -0.22 0.22
-7 -19 4 0.24 0.25
-7 19 -4 -0.18 0.27
7 19 4 -0.06 0.27
7 -19 -4 0.08 0.21
19 -7 4 -0.1 0.11
19 7 -4 -0.02 0.2
4 19 -7 -0.32 0.27
-19 -4 7 0.31 0.21
-4 19 7 -0.1 0.26
-7 4 19 0.03 0.2
-7 19 5 0 0.25
-19 7 -5 -0.05 0.17
-19 -7 5 -0.29 0.21
-7 -5 19 -0.05 0.27
5 7 -19 0.01 0.22
-7 -19 -5 0.2 0.22
-19 5 7 -0.22 0.19
7 19 -5 -0.47 0.26
5 -7 19 -0.13 0.25
5 19 7 0.08 0.27
-7 5 -19 -0.36 0.18
5 -19 -7 -0.16 0.19
7 5 19 0.13 0.19
7 5 19 0.26 0.18
-5 -19 7 0 0.24
-5 19 -7 -0.51 0.27
19 7 5 -0.02 0.11
-19 5 7 0.01 0.33
-5 7 19 -0.06 0.2
7 -19 5 0.14 0.25
-5 7 19 -0.07 0.2
19 -7 5 -0.05 0.11
5 -19 7 -0.16 0.24
-7 -19 5 0.26 0.26
-7 19 -5 -0.38 0.27
7 5 -19 -0.12 0.22
5 7 19 0.07 0.24
-7 5 19 0.04 0.22
-19 7 5 -0.13 0.17
5 19 -7 -0.16 0.29
-5 -7 19 -0.15 0.26
7 -5 19 0.39 0.23
-7 5 19 -0.11 0.18
-5 -19 -7 -0.08 0.21
-19 -5 7 -0.14 0.2
19 7 -5 0.15 0.21
-5 19 7 -0.34 0.26
-19 -7 -5 -0.13 0.12
7 -19 -5 -0.09 0.2
7 19 5 0.23 0.27
5 7 19 0.09 0.25
-5 7 -19 0.19 0.22
7 6 19 -0.04 0.18
-6 19 -7 -0.21 0.28
7 -19 6 -0.1 0.25
-19 7 -6 -0.19 0.17
-6 -19 7 0.25 0.26
-7 -19 -6 0.04 0.22
-7 6 -19 -0.04 0.2
-19 -7 6 -0.02 0.24
6 -7 19 -0.02 0.25
7 6 19 0.08 0.18
-19 6 7 -0.09 0.19
-6 7 19 -0.03 0.2
6 -19 -7 -0.17 0.2
6 7 -19 -0.1 0.23
-7 -6 19 -0.44 0.26
19 6 -7 0.16 0.34
-19 6 7 -0.11 0.22
-7 19 6 0.32 0.27
7 19 -6 -0.1 0.3
6 19 7 0.04 0.27
-6 7 19 -0.12 0.22
-6 -7 19 -0.35 0.28
6 19 -7 0.25 0.29
-6 19 7 0.11 0.28
6 7 19 0 0.19
7 -19 -6 0.14 0.2
7 -6 19 0.04 0.23
7 6 -19 -0.28 0.24
-19 -6 7 0.37 0.41
-19 6 -7 -0.18 0.14
6 -19 7 -0.16 0.25
-7 19 -6 0.02 0.27
6 7 19 -0.13 0.2
-19 7 6 -0.07 0.21
-19 -7 -6 0.02 0.1
-6 -19 -7 -0.12 0.21
7 19 6 0.23 0.27
-7 6 19 0.16 0.21
-7 6 19 0.13 0.19
-6 7 -19 -0.14 0.37
19 -7 6 0.18 0.1
19 7 -6 0.09 0.23
-7 -19 6 -0.51 0.26
-7 -7 19 -0.23 0.27
-7 -19 7 -0.28 0.27
7 7 19 0.08 0.19
-7 -19 -7 -0.05 0.22
7 -7 19 -0.13 0.27
-7 7 19 -0.04 0.18
-7 19 -7 -0.09 0.29
7 -19 7 0.05 0.25
7 -19 -7 -0.14 0.19
7 7 19 0.13 0.2
-7 19 7 -0.23 0.26
-19 7 -7 -0.26 0.16
7 7 -19 0.26 0.25
-7 7 -19 -0.29 0.21
7 19 -7 0.39 0.3
7 19 7 -0.12 0.28
19 -7 7 -0.07 0.1
19 7 -7 0.02 0.25
-19 7 7 0.03 0.18
-7 7 19 0.14 0.21
-19 -7 7 0.2 0.25
-19 7 7 0.02 0.2
-8 -19 0 0.07 0.26
19 -8 0 0.66 0.15
-19 8 0 0.41 0.18
0 -8 19 0.52 0.26
0 8 -19 0.69 0.27
-8 19 0 0.27 0.28
8 0 19 0.58 0.15
-19 -8 0 0.67 0.22
-19 0 8 0.19 0.22
0 -19 -8 0.2 0.2
0 8 19 0.55 0.22
8 -19 0 0.46 0.25
8 19 0 0.01 0.29
0 -19 8 0.55 0.26
8 0 19 0.45 0.21
-19 0 8 0.63 0.17
0 19 -8 0.63 0.29
19 8 0 0.47 0.2
-8 0 19 0.35 0.24
-8 0 19 0.3 0.18
0 19 8 0.11 0.27
-1 19 -8 0.17 0.29
-8 -1 19 -0.14 0.18
1 -19 -8 0.2 0.21
-8 19 1 0.18 0.27
1 8 -19 -0.16 0.24
-19 -8 1 0.05 0.22
-8 -1 19 -0.15 0.23
8 -19 1 -0.17 0.22
-19 1 8 -0.09 0.23
-19 1 8 -0.07 0.17
-19 8 -1 -0.1 0.18
8 1 19 -0.14 0.16
8 1 19 -0.12 0.2
1 19 8 -0.1 0.28
-8 -19 -1 -0.36 0.24
19 8 1 0.13 0.18
8 19 -1 -0.31 0.26
19 -8 -1 0.1 0.14
-1 8 19 0.1 0.21
1 -8 19 0.48 0.25
-1 -19 8 0.13 0.27
-8 -19 1 0.02 0.24
-1 -8 19 -0.1 0.26
8 -1 19 -0.06 0.2
-8 1 19 0.01 0.25
8 -19 -1 -0.21 0.21
-8 1 19 0 0.17
-1 -19 -8 0.07 0.2
1 -19 8 0.02 0.25
-1 8 -19 -0.18 0.23
8 -1 19 -0.02 0.15
-8 19 -1 -0.22 0.28
-1 19 8 0.08 0.27
19 -8 1 -0.12 0.13
19 8 -1 0.04 0.19
1 19 -8 -0.38 0.27
-19 -8 -1 -0.17 0.2
8 19 1 -0.36 0.27
1 8 19 0.14 0.2
-19 8 1 -0.13 0.18
-19 -1 8 0.17 0.21
-19 -1 8 0.01 0.17
-8 -19 -2 -0.29 0.23
8 19 -2 -0.18 0.28
-2 -19 8 0.01 0.25
-8 -2 19 -0.14 0.24
-2 8 19 -0.08 0.2
8 2 19 -0.14 0.15
8 -19 2 -0.24 0.22
-8 19 2 -0.19 0.26
2 19 8 -0.15 0.27
-2 19 -8 0.03 0.29
-19 8 -2 -0.18 0.17
2 8 -19 -0.12 0.24
8 2 19 -0.14 0.18
-8 -2 19 -0.04 0.18
2 -19 -8 -0.14 0.2
19 8 2 -0.12 0.16
2 -8 19 0.32 0.26
19 -8 -2 -0.04 0.14
-19 -8 2 -0.06 0.22
-19 2 8 -0.07 0.24
19 8 -2 -0.08 0.2
8 -2 19 -0.11 0.22
-19 8 2 -0.14 0.17
-2 -19 -8 0.17 0.2
19 -8 2 -0.17 0.13
-19 -2 8 -0.37 0.24
8 -2 19 -0.22 0.14
-8 2 19 -0.24 0.23
-19 -2 8 -0.07 0.16
-2 -8 19 -0.41 0.25
-2 8 -19 -0.25 0.22
-8 -19 2 -0.29 0.26
-8 2 19 -0.07 0.19
2 19 -8 0.08 0.27
-2 19 8 -0.02 0.27
8 19 2 0.17 0.26
-19 -8 -2 -0.02 0.19
2 -19 8 0.05 0.26
-8 19 -2 0.11 0.27
2 8 19 -0.11 0.19
8 -19 -2 -0.26 0.22
-19 3 8 0 0.32
3 8 -19 0.53 0.25
19 8 3 0.01 0.15
19 -8 -3 0.16 0.15
3 -8 19 -0.31 0.26
-8 -3 19 0.2 0.27
-19 8 -3 0.14 0.18
-8 19 3 0.27 0.28
8 -19 3 -0.16 0.23
8 3 19 0.21 0.19
-8 -19 -3 -0.05 0.23
-19 -8 3 0.17 0.22
-3 8 19 -0.03 0.2
8 3 19 -0.1 0.16
3 19 8 0.14 0.28
-3 -19 8 -0.1 0.24
8 19 -3 -0.02 0.29
3 -19 -8 0.35 0.2
-3 19 -8 0.43 0.28
-19 3 8 0.19 0.24
-19 8 3 0 0.18
-3 -8 19 -0.22 0.25
-8 -19 3 0.03 0.26
-8 19 -3 0.26 0.28
3 8 19 -0.02 0.19
-19 -8 -3 -0.09 0.18
8 19 3 -0.18 0.27
8 -19 -3 0.12 0.2
8 -3 19 -0.32 0.21
8 -3 19 0.18 0.14
-8 3 19 0.08 0.2
-3 -19 -8 -0.14 0.21
19 -8 3 0.04 0.13
-8 3 19 -0.1 0.22
-3 19 8 0.22 0.27
-19 -3 8 0.08 0.24
3 -19 8 -0.24 0.25
3 19 -8 0.09 0.29
-3 8 -19 0.03 0.23
19 8 -3 0.03 0.21
-19 8 -4 0.28 0.18
4 8 -19 -0.05 0.24
-19 4 8 -0.38 0.16
19 -8 -4 -0.17 0.15
-8 -19 -4 -0.27 0.23
8 4 19 0.09 0.17
4 -19 -8 -0.05 0.2
8 4 19 0.08 0.18
-19 -8 4 0.01 0.21
-4 8 19 0.22 0.24
8 -19 4 -0.01 0.23
8 19 -4 0.1 0.28
-8 19 4 0.03 0.27
-4 -19 8 -0.38 0.24
-4 19 -8 -0.18 0.26
4 -8 19 0.16 0.24
-19 4 8 -0.11 0.19
-4 8 19 -0.16 0.19
19 8 4 0.25 0.15
4 19 8 0.03 0.27
-8 -4 19 -0.33 0.27
-4 19 8 -0.3 0.27
-8 19 -4 -0.16 0.27
-4 8 -19 -0.17 0.22
8 -19 -4 -0.02 0.2
4 8 19 0.12 0.19
-4 -19 -8 -0.41 0.21
-19 -8 -4 -0.07 0.16
-8 4 19 -0.09 0.2
4 -19 8 -0.12 0.26
-19 8 4 -0.38 0.18
8 -4 19 -0.13 0.22
8 19 4 0.19 0.27
-19 -4 8 -0.14 0.25
19 8 -4 0.13 0.22
4 19 -8 -0.26 0.3
-8 -19 4 -0.12 0.25
-4 -8 19 0.14 0.27
-8 4 19 -0.72 0.22
19 -8 4 0.04 0.12
-8 19 5 -0.1 0.26
-5 8 19 -0.25 0.22
8 5 19 -0.24 0.17
5 -8 19 0.05 0.25
5 8 -19 0.06 0.24
5 19 8 -0.35 0.27
-8 -19 -5 0.17 0.23
8 19 -5 -0.2 0.29
-19 -8 5 -0.37 0.23
5 -19 -8 -0.1 0.2
-5 8 19 -0.24 0.2
-8 -5 19 0.04 0.26
-5 -19 8 0.14 0.27
-8 5 -19 0.13 0.19
-19 8 -5 -0.02 0.18
-19 5 8 -0.11 0.18
19 8 5 -0.3 0.13
8 -19 5 0.09 0.25
-5 19 -8 -0.09 0.27
8 5 19 -0.12 0.19
-19 5 8 0.04 0.17
-19 -5 8 0.3 0.22
-5 -19 -8 -0.12 0.21
-5 8 -19 -0.21 0.23
-8 5 19 -0.39 0.2
5 -19 8 -0.42 0.26
5 8 19 0.14 0.21
-5 19 8 0.03 0.27
-8 -19 5 -0.14 0.25
8 19 5 0.16 0.28
-19 8 5 0.22 0.19
8 -19 -5 -0.46 0.2
8 -5 19 0.17 0.24
19 8 -5 -0.01 0.22
-8 19 -5 -0.1 0.27
-8 5 19 -0.2 0.18
-5 -8 19 0.04 0.26
19 -8 5 0 0.11
5 8 19 -0.11 0.19
5 19 -8 0.23 0.28
-19 -8 -5 -0.13 0.15
8 5 -19 -0.07 0.22
-8 -19 -6 0.22 0.22
-8 6 -19 0 0.2
8 6 19 0.17 0.19
8 6 19 0.03 0.18
19 8 6 0.16 0.13
-19 8 -6 -0.08 0.19
8 19 -6 0.05 0.29
-6 19 -8 0.41 0.28
6 19 8 0.51 0.28
-6 -19 8 0.52 0.29
-6 8 19 0.11 0.2
6 -8 19 -0.04 0.26
6 8 -19 0.28 0.26
-19 -8 6 0.58 0.42
-8 -6 19 0.2 0.26
-19 6 8 0.31 0.2
8 -19 6 0.33 0.27
6 -19 -8 0.17 0.19
-8 19 6 0.41 0.26
19 6 -8 0.11 0.24
-19 6 8 0.39 0.19
-6 8 19 0.24 0.22
-8 6 19 0.19 0.22
8 -19 -6 0.13 0.2
8 19 6 0.1 0.28
6 -19 8 0.39 0.25
-19 -6 8 -0.18 0.24
6 19 -8 0.44 0.29
-6 19 8 0.49 0.28
8 -6 19 0.07 0.23
-19 8 6 0.18 0.19
-8 6 19 0.19 0.19
-19 -8 -6 0.15 0.13
6 8 19 0.09 0.27
19 8 -6 0.44 0.37
-6 -8 19 0.13 0.27
6 8 19 0.31 0.24
-8 -19 6 0.06 0.25
-8 19 -6 -0.02 0.27
19 -8 6 0.32 0.12
8 6 -19 0.16 0.25
-6 -19 -8 0.55 0.23
-6 8 -19 0.07 0.23
-7 8 19 -0.1 0.23
-19 -8 7 -0.57 0.24
8 19 -7 -0.6 0.29
-8 19 7 -0.13 0.26
-19 8 -7 -0.29 0.18
7 -19 -8 -0.01 0.21
7 19 8 -0.02 0.28
-8 7 -19 -0.11 0.21
-7 19 -8 -0.24 0.28
-8 -7 19 0.33 0.27
7 -8 19 0.38 0.26
-19 7 8 0.1 0.19
-19 7 8 0.04 0.19
19 -7 8 0.02 0.09
19 7 -8 -0.01 0.24
-8 -19 -7 0.07 0.23
-7 -19 8 0.36 0.28
-7 8 19 0.16 0.2
8 7 19 -0.05 0.19
19 8 7 0.11 0.12
7 8 -19 0.23 0.26
8 -19 7 -0.2 0.25
8 7 19 0.08 0.19
-19 -8 -7 0.1 0.11
-19 7 -8 0.17 0.16
-8 -19 7 0.19 0.28
7 8 19 0.11 0.21
19 -8 7 0.08 0.12
-19 -7 8 0.13 0.24
8 19 7 -0.03 0.28
-7 8 -19 -0.09 0.25
7 19 -8 -0.28 0.29
-8 7 19 0.14 0.23
-7 19 8 0.36 0.27
7 -19 8 0.16 0.26
19 8 -7 0.24 0.24
-19 8 7 0.09 0.19
-7 -8 19 0.18 0.26
8 7 -19 -0.44 0.24
-8 19 -7 0.11 0.29
-8 7 19 -0.05 0.2
-7 -19 -8 0.32 0.23
8 -7 19 0.12 0.25
8 -19 -7 -0.17 0.21
7 8 19 -0.06 0.21
-19 -8 8 0.13 0.26
-19 8 8 -0.53 0.2
-8 -19 8 0.2 0.27
8 19 -8 -0.1 0.31
19 8 -8 -0.21 0.25
-8 8 -19 -0.14 0.31
-8 -8 19 -0.15 0.28
-8 8 19 -0.42 0.21
-8 19 -8 -0.1 0.3
-8 19 8 0.15 0.27
8 -19 -8 -0.04 0.22
8 -19 8 -0.04 0.27
8 8 -19 0.23 0.24
8 8 19 -0.24 0.2
-19 8 -8 -0.11 0.19
19 -8 8 -0.03 0.12
8 8 19 0.27 0.2
-8 -19 -8 -0.23 0.23
-8 8 19 -0.38 0.22
8 19 8 -0.46 0.29
-19 0 9 -0.3 0.16
19 9 0 0.04 0.2
0 19 9 0.1 0.26
-9 0 19 -0.13 0.24
-19 0 9 -0.18 0.2
0 9 -19 0.15 0.23
0 9 19 0.02 0.2
9 -19 0 -0.22 0.23
0 -9 19 -0.07 0.26
-9 -19 0 0.09 0.24
-19 -9 0 -0.31 0.21
-19 9 0 -0.06 0.19
9 19 0 -0.32 0.26
-9 0 19 -0.28 0.19
0 -19 -9 -0.25 0.19
0 -19 9 -0.18 0.25
0 19 -9 -0.16 0.28
19 -9 0 -0.11 0.15
9 0 19 -0.28 0.2
9 0 19 -0.19 0.14
-9 19 0 -0.02 0.27
19 9 1 0.02 0.19
-19 1 9 -0.08 0.2
1 9 -19 -0.17 0.25
1 -19 -9 -0.04 0.19
-9 -1 19 -0.05 0.17
-9 -1 19 -0.32 0.23
1 19 9 -0.07 0.28
-9 19 1 -0.29 0.26
9 19 -1 0.16 0.27
-1 9 19 -0.15 0.2
9 -19 1 0.08 0.22
-19 -9 1 0.04 0.22
-19 1 9 -0.1 0.16
-9 -19 -1 0.11 0.25
9 1 19 -0.16 0.19
9 1 19 -0.12 0.14
1 -9 19 -0.01 0.26
-1 -19 9 -0.21 0.26
-19 9 -1 -0.12 0.19
-1 19 -9 0.34 0.29
19 -9 -1 -0.22 0.15
1 9 19 -0.02 0.2
-1 19 9 0.19 0.27
-1 -19 -9 -0.2 0.2
-19 9 1 0.12 0.19
1 19 -9 -0.07 0.29
-19 -1 9 -0.15 0.21
-9 1 19 -0.25 0.19
-1 9 -19 0.11 0.23
9 -1 19 -0.18 0.14
-9 -19 1 -0.13 0.24
-9 19 -1 -0.13 0.28
-9 1 19 -0.02 0.23
-1 -9 19 -0.14 0.26
9 -1 19 -0.31 0.2
9 19 1 0.05 0.28
-19 -9 -1 -0.3 0.21
19 9 -1 0.18 0.2
9 -19 -1 -0.16 0.21
19 -9 1 -0.04 0.15
-19 -1 9 0.01 0.16
1 -19 9 0.01 0.25
9 2 19 0.1 0.16
-19 9 -2 0.03 0.19
2 9 -19 0.14 0.23
-19 2 9 -0.29 0.16
9 2 19 0.15 0.19
-2 -19 9 -0.13 0.25
-2 19 -9 -0.04 0.28
19 -9 -2 -0.06 0.15
2 -19 -9 -0.09 0.2
2 19 9 0 0.28
-19 2 9 -0.32 0.2
-2 9 19 -0.41 0.19
-9 -2 19 -0.01 0.17
9 -19 2 -0.45 0.22
9 19 -2 0.31 0.3
19 9 2 -0.03 0.18
-19 -9 2 0.41 0.24
-9 19 2 -0.08 0.27
2 -9 19 -0.21 0.25
-9 -2 19 -0.2 0.24
-9 -19 -2 -0.25 0.23
2 19 -9 0.31 0.3
-9 -19 2 -0.03 0.26
-19 -2 9 -0.01 0.16
19 -9 2 0.1 0.14
-2 19 9 0.04 0.27
-9 19 -2 0.2 0.27
-19 9 2 -0.13 0.19
-2 -9 19 -0.17 0.25
9 -19 -2 -0.09 0.2
9 -2 19 -0.14 0.21
2 9 19 -0.15 0.19
-9 2 19 -0.29 0.21
-9 2 19 -0.29 0.18
-2 -19 -9 0.32 0.21
-2 9 -19 -0.05 0.23
2 -19 9 0 0.26
-19 -2 9 -0.24 0.21
9 -2 19 0.06 0.14
9 19 2 0.06 0.27
-19 -9 -2 -0.05 0.19
19 9 -2 -0.09 0.2
3 -19 -9 -0.06 0.19
3 19 9 -0.07 0.28
-19 -9 3 0.05 0.23
-3 -19 9 -0.59 0.26
9 3 19 0.18 0.19
9 3 19 0.44 0.16
19 -9 -3 -0.21 0.15
-9 -3 19 -0.3 0.27
3 9 -19 0.08 0.26
-9 -19 -3 0.03 0.24
-19 3 9 0.09 0.19
-19 3 9 -0.09 0.17
9 19 -3 -0.38 0.28
-3 19 -9 -0.53 0.28
-3 9 19 -0.05 0.21
19 9 3 0.19 0.17
-19 9 -3 -0.1 0.19
9 -19 3 0 0.23
3 -9 19 0.51 0.26
-9 19 3 -0.44 0.27
-19 9 3 -0.17 0.18
-19 -3 9 0.09 0.15
9 -3 19 -0.11 0.21
9 -3 19 0.19 0.14
-3 19 9 -0.8 0.27
9 -19 -3 0.19 0.21
19 -9 3 -0.1 0.14
9 19 3 -0.25 0.26
3 9 19 -0.11 0.2
-3 9 -19 -0.02 0.22
3 -19 9 0.06 0.25
3 19 -9 -0.13 0.28
-9 3 19 -0.06 0.25
-3 -19 -9 -0.08 0.2
-9 3 19 0.01 0.19
19 9 -3 -0.16 0.21
-3 -9 19 0.23 0.25
-19 -9 -3 -0.24 0.18
-19 -3 9 0 0.21
-9 -19 3 -0.64 0.24
-9 19 -3 -0.24 0.27
-4 -19 9 0.07 0.28
-4 9 19 -0.07 0.22
9 -19 4 -0.19 0.23
-4 19 -9 -0.03 0.29
9 4 19 0.15 0.19
9 4 19 0.13 0.17
-19 4 9 0.31 0.2
-19 4 9 -0.08 0.17
-9 -19 -4 -0.15 0.23
9 19 -4 0.03 0.28
4 -9 19 -0.22 0.25
4 9 -19 0.2 0.24
-9 19 4 -0.11 0.27
19 -9 -4 0.14 0.16
19 9 4 0.02 0.16
-19 -9 4 -0.07 0.23
-19 9 -4 -0.01 0.19
4 19 9 -0.04 0.26
-9 -4 19 -0.2 0.27
4 -19 -9 0.19 0.18
-9 4 19 -0.13 0.21
-4 -19 -9 -0.02 0.21
9 -19 -4 0.19 0.21
-4 19 9 0.31 0.28
-9 4 19 0.19 0.21
4 -19 9 -0.21 0.26
19 -9 4 -0.14 0.13
4 19 -9 -0.56 0.28
-19 9 4 -0.14 0.19
-4 9 -19 0.24 0.22
-19 -4 9 -0.11 0.22
-9 -19 4 0.07 0.26
-9 19 -4 0.41 0.29
19 9 -4 0.02 0.23
9 -4 19 0.09 0.23
9 19 4 -0.17 0.27
-4 -9 19 0.59 0.27
4 9 19 0.23 0.21
5 -9 19 0.02 0.26
-5 9 19 0.13 0.23
-5 19 -9 -0.01 0.29
9 5 19 -0.13 0.17
-19 5 9 -0.22 0.19
-19 9 -5 0.12 0.2
-9 -19 -5 -0.15 0.22
9 -19 5 0 0.25
-19 5 9 -0.04 0.17
-19 -9 5 -0.06 0.23
-9 5 -19 -0.33 0.19
19 9 5 0.03 0.16
19 -9 -5 -0.27 0.17
-9 19 5 -0.22 0.27
9 19 -5 -0.18 0.3
-5 -19 9 -0.58 0.27
5 -19 -9 -0.03 0.19
9 5 19 -0.03 0.18
5 9 -19 -0.2 0.26
5 19 9 -0.06 0.27
-9 -5 19 0.11 0.27
9 -19 -5 0.16 0.2
-5 -19 -9 -0.14 0.21
-5 19 9 -0.2 0.27
-9 5 19 0 0.24
5 -19 9 0.01 0.28
19 9 -5 -0.23 0.23
-9 -19 5 0.14 0.27
-9 5 19 -0.68 0.18
-19 -5 9 0.23 0.25
9 19 5 -0.26 0.27
-5 -9 19 0.16 0.28
-19 9 5 -0.34 0.25
19 -9 5 -0.12 0.14
9 -5 19 0.05 0.23
9 5 -19 0.2 0.25
-9 19 -5 -0.1 0.27
-5 9 -19 0.21 0.22
5 19 -9 0.23 0.29
5 9 19 0.04 0.2
-19 -9 -5 -0.03 0.16
-19 9 -6 0.05 0.2
-6 19 -9 -0.04 0.29
-6 9 19 0.04 0.22
-19 6 9 -0.13 0.2
9 6 19 -0.05 0.19
-9 19 6 0.12 0.28
19 -9 -6 0.26 0.17
9 -19 6 0.2 0.26
9 6 19 0.09 0.19
6 19 9 0.36 0.28
6 9 -19 0.15 0.27
-19 6 9 -0.25 0.2
6 -19 -9 -0.05 0.22
9 19 -6 0.26 0.29
19 6 -9 0 0.25
-9 -6 19 0.09 0.27
6 -9 19 0.68 0.26
-19 -9 6 0.33 0.25
-9 -19 -6 0.32 0.22
-9 6 -19 0.34 0.21
19 9 6 0 0.15
-6 -19 9 0.21 0.28
9 6 -19 0.25 0.24
-9 -19 6 0.14 0.26
9 -6 19 0.22 0.24
6 19 -9 0.18 0.29
-19 -6 9 0.19 0.24
-6 9 -19 0.05 0.22
19 9 -6 0.04 0.24
-9 6 19 -0.07 0.22
-9 6 19 -0.3 0.2
6 9 19 0.27 0.21
-19 9 6 0.13 0.21
-19 -9 -6 -0.07 0.15
-6 19 9 -0.12 0.26
-6 -9 19 0.02 0.27
6 -19 9 -0.19 0.26
9 19 6 -0.26 0.29
19 -9 6 0.31 0.13
-6 -19 -9 0.04 0.21
9 -19 -6 0.53 0.21
-9 19 -6 0.07 0.29
-9 -7 19 -0.17 0.28
7 -9 19 -0.13 0.25
19 -7 9 -0.09 0.09
9 7 19 -0.07 0.19
-19 9 -7 0 0.21
-19 7 9 -0.12 0.19
-7 -19 9 -0.09 0.27
9 -19 7 0.09 0.28
-19 -9 7 0.33 0.26
-19 7 9 -0.34 0.2
-9 -19 -7 0.14 0.24
9 19 -7 0.04 0.3
-7 19 -9 -0.37 0.29
7 9 -19 -0.07 0.25
9 7 19 0.12 0.2
-9 7 -19 -0.04 0.21
7 -19 -9 -0.14 0.2
-9 19 7 0.18 0.29
7 19 9 -0.15 0.29
19 7 -9 -0.17 0.24
19 9 7 -0.01 0.14
-7 9 19 -0.21 0.23
9 -7 19 -0.07 0.24
19 9 -7 0.05 0.25
-7 -19 -9 0 0.22
-19 -9 -7 -0.04 0.14
-9 7 19 -0.04 0.22
-9 -19 7 0 0.29
-9 7 19 -0.12 0.2
-7 -9 19 0.14 0.29
-7 9 -19 0.14 0.23
-19 -7 9 -0.2 0.25
9 19 7 -0.32 0.28
-7 19 9 -0.04 0.26
7 9 19 0 0.22
9 -19 -7 -0.11 0.2
-19 9 7 -0.13 0.21
7 -19 9 -0.33 0.26
-19 7 -9 0.08 0.14
19 -9 7 -0.02 0.14
-9 19 -7 -0.07 0.29
7 19 -9 -0.25 0.3
9 7 -19 -0.24 0.25
-9 19 8 -0.02 0.28
-19 -9 8 0.19 0.27
8 9 -19 0.32 0.26
19 -8 9 0.06 0.12
9 -19 8 0.52 0.27
8 19 9 -0.39 0.3
19 9 8 0.03 0.14
-8 -19 9 0.41 0.29
8 -9 19 -0.28 0.27
-8 19 -9 -0.2 0.3
9 8 19 0.51 0.21
-19 9 -8 0.24 0.21
9 19 -8 0.09 0.29
8 -19 -9 -0.11 0.19
-9 8 -19 -0.12 0.23
-9 -19 -8 -0.13 0.24
19 8 -9 0.43 0.27
-8 9 19 0.04 0.24
9 8 19 -0.21 0.22
-8 9 19 -0.07 0.25
-9 -8 19 0.16 0.3
-19 8 9 -0.09 0.21
-19 8 9 -0.23 0.22
-9 8 19 -0.14 0.23
9 8 -19 0.34 0.25
-19 -8 9 0.24 0.28
-9 19 -8 0.12 0.31
8 19 -9 0.01 0.3
-19 -9 -8 -0.03 0.13
-8 9 -19 0.03 0.22
-9 -19 8 -0.4 0.28
19 9 -8 0.1 0.26
9 -8 19 0.11 0.27
-19 8 -9 0.07 0.18
-8 -9 19 0.36 0.3
-8 -19 -9 0.04 0.23
8 9 19 0.11 0.28
-9 8 19 0 0.22
-8 19 9 -0.1 0.29
19 -9 8 0.21 0.14
9 -19 -8 0.01 0.2
9 19 8 0.01 0.4
8 -19 9 -0.19 0.27
-19 9 8 0.03 0.22
-10 0 19 -0.17 0.24
0 -19 -10 0.08 0.2
-19 10 0 -0.09 0.2
19 -10 0 -0.06 0.15
0 10 19 -0.28 0.2
10 -19 0 0.1 0.23
-19 0 10 0.02 0.16
-10 19 0 -0.2 0.27
0 -10 -19 -0.15 0.17
0 -10 19 0.18 0.26
-19 0 10 -0.23 0.21
-10 -19 0 0.1 0.24
-10 0 19 0.07 0.17
10 0 19 -0.3 0.14
0 19 10 -0.16 0.27
10 0 19 0.21 0.2
0 10 -19 0.03 0.24
-19 -10 0 -0.08 0.22
10 19 0 -0.75 0.26
0 -19 10 -0.53 0.24
0 19 -10 -0.12 0.28
19 10 0 -0.43 0.2
-1 -10 -19 0.06 0.17
1 -10 19 -0.32 0.25
10 1 19 -0.11 0.14
-10 -1 19 0.19 0.26
10 -19 1 0.24 0.22
-1 10 19 0.22 0.21
-19 -10 1 0.1 0.23
-19 1 10 0.05 0.16
-10 -19 -1 0.53 0.24
-1 -19 10 -0.17 0.25
1 10 -19 0 0.24
-19 1 10 -0.02 0.2
-10 -1 19 -0.02 0.18
19 10 1 0.16 0.21
19 -10 -1 -0.05 0.16
10 19 -1 -0.33 0.29
-1 19 -10 -0.11 0.29
1 19 10 -0.01 0.27
1 -19 -10 0.15 0.2
-19 10 -1 -0.07 0.2
10 1 19 -0.21 0.18
-10 19 1 -0.16 0.27
19 -10 1 -0.14 0.15
1 -19 10 -0.03 0.26
-10 1 19 0.15 0.2
10 19 1 -0.03 0.27
-10 19 -1 -0.22 0.27
-19 -10 -1 -0.01 0.21
10 -1 19 -0.09 0.13
-19 -1 10 -0.23 0.21
-19 -1 10 -0.11 0.16
-10 -19 1 -0.16 0.26
10 -19 -1 -0.28 0.21
-1 19 10 -0.24 0.26
-10 1 19 -0.19 0.22
1 -10 -19 0.01 0.17
-1 -19 -10 -0.07 0.2
1 10 19 0.06 0.21
-1 -10 19 0.1 0.28
-1 10 -19 -0.26 0.25
1 19 -10 -0.04 0.28
10 -1 19 -0.43 0.2
-19 10 1 -0.12 0.2
19 10 -1 0.2 0.21
2 -10 19 -0.36 0.25
-10 -2 19 0.08 0.18
2 -19 -10 0.08 0.2
-2 -19 10 -0.16 0.28
-10 19 2 -0.22 0.26
10 19 -2 0.17 0.28
10 2 19 0.09 0.2
19 10 2 -0.16 0.19
-19 10 -2 -0.03 0.21
10 -19 2 -0.37 0.22
-2 -10 -19 -0.25 0.16
2 10 -19 -0.27 0.23
-19 2 10 -0.26 0.17
-10 -2 19 0.02 0.24
19 -10 -2 -0.11 0.16
-2 10 19 -0.08 0.2
-19 -10 2 -0.01 0.23
2 19 10 0.04 0.27
-2 19 -10 -0.08 0.27
10 2 19 0.06 0.15
-10 -19 -2 -0.04 0.23
-19 2 10 -0.11 0.21
-19 -2 10 -0.06 0.16
10 19 2 0.12 0.29
-19 -2 10 -0.43 0.21
2 10 19 0.02 0.21
-19 -10 -2 0.12 0.2
19 -10 2 -0.05 0.15
-2 -19 -10 0.18 0.2
-10 2 19 0.1 0.24
10 -2 19 -0.16 0.21
10 -2 19 -0.1 0.14
-2 10 -19 -0.13 0.24
2 -10 -19 0.06 0.17
-2 -10 19 0.07 0.29
-10 19 -2 -0.05 0.27
2 -19 10 0.24 0.26
10 -19 -2 -0.35 0.2
-19 10 2 -0.24 0.2
19 10 -2 0 0.22
-2 19 10 -0.05 0.26
-10 2 19 0.13 0.19
2 19 -10 -0.55 0.27
-10 -19 2 -0.07 0.25
19 10 3 0.11 0.18
10 -19 3 -0.27 0.22
3 -10 19 0.1 0.27
-10 -19 -3 -0.44 0.23
-10 19 3 -0.06 0.28
-3 -19 10 0.04 0.27
3 10 -19 -0.07 0.24
-19 3 10 0.01 0.17
-19 10 -3 -0.32 0.2
-19 3 10 0.09 0.2
10 3 19 0.05 0.17
19 -10 -3 0.07 0.16
-10 -3 19 -0.11 0.26
-10 -3 19 0.06 0.18
-3 10 19 -0.25 0.2
3 -19 -10 -0.11 0.2
10 19 -3 -0.03 0.28
-3 -10 -19 -0.15 0.16
3 19 10 0.02 0.29
10 3 19 -0.19 0.18
-3 19 -10 0.12 0.27
-19 -10 3 -0.26 0.23
-3 19 10 -0.05 0.26
3 19 -10 -0.39 0.28
3 -19 10 -0.22 0.25
-19 -3 10 0.01 0.15
-10 3 19 0.05 0.22
-19 -3 10 -0.17 0.21
10 -3 19 -0.07 0.14
-10 3 19 0.23 0.19
3 10 19 -0.17 0.2
-3 -19 -10 0.3 0.2
-19 10 3 0.34 0.2
10 -19 -3 -0.1 0.21
-19 -10 -3 -0.1 0.19
10 19 3 -0.51 0.27
-3 10 -19 0.14 0.24
-10 -19 3 0 0.26
3 -10 -19 0.07 0.18
19 -10 3 0.01 0.15
-10 19 -3 -0.01 0.28
10 -3 19 0.02 0.22
-3 -10 19 0.08 0.27
19 10 -3 -0.07 0.23
-10 19 4 0.44 0.27
-10 -4 19 0.01 0.28
4 10 -19 0.3 0.24
-10 -19 -4 0.17 0.24
-19 -10 4 0.49 0.25
10 -19 4 0.3 0.24
19 10 4 -0.16 0.18
-19 10 -4 0.21 0.21
-19 4 10 -0.2 0.18
-4 -19 10 0.32 0.27
4 -10 19 0.05 0.26
10 4 19 0.01 0.16
19 -10 -4 0.46 0.17
-4 -10 -19 0.07 0.17
-4 10 19 0.27 0.22
10 19 -4 0.37 0.3
-19 4 10 0.49 0.21
-4 19 -10 0.08 0.29
4 19 10 -0.18 0.28
10 4 19 0.15 0.18
4 -19 -10 0.16 0.22
-4 -19 -10 0.18 0.21
19 10 -4 0.27 0.23
-10 4 19 0.39 0.21
10 -19 -4 -0.02 0.21
-10 -19 4 0.39 0.26
-10 4 19 -0.4 0.24
10 19 4 -0.09 0.27
4 19 -10 -0.07 0.3
-19 -10 -4 -0.1 0.18
10 -4 19 0.03 0.22
-4 10 -19 -0.04 0.24
-19 10 4 0.19 0.29
-4 19 10 0.04 0.26
-10 19 -4 -0.18 0.28
4 -19 10 0.54 0.27
-19 -4 10 -0.06 0.16
-4 -10 19 0.45 0.27
4 10 19 -0.31 0.2
-19 -4 10 -0.01 0.25
19 -10 4 0.32 0.15
5 19 10 0.15 0.28
-10 19 5 -0.25 0.27
-19 5 10 0.25 0.2
5 10 -19 -0.41 0.25
-19 5 10 -0.09 0.18
5 -10 19 0.69 0.26
10 19 -5 -0.36 0.28
10 5 19 0.05 0.19
-5 19 -10 0.37 0.3
10 -19 5 -0.19 0.25
-5 10 19 0.06 0.21
-19 -10 5 0.17 0.28
19 -10 -5 -0.15 0.17
10 5 19 0.1 0.19
-10 -5 19 0.08 0.27
-19 10 -5 0.02 0.21
-5 -10 -19 -0.06 0.17
-10 -19 -5 -0.05 0.24
-5 -19 10 -0.19 0.27
19 10 5 0.02 0.18
5 -19 -10 0.02 0.2
-19 -10 -5 0.21 0.17
-5 -19 -10 -0.06 0.21
-10 5 19 -0.1 0.22
-10 5 19 0.02 0.2
10 -19 -5 0.37 0.21
19 -10 5 0.18 0.15
-19 10 5 -0.09 0.21
-19 -5 10 -0.22 0.25
5 10 19 -0.3 0.21
10 -5 19 0.13 0.23
10 19 5 -0.02 0.28
5 19 -10 0.25 0.29
5 -19 10 0.34 0.27
-10 19 -5 0.19 0.28
-10 -19 5 0.07 0.26
-5 19 10 -0.05 0.26
10 5 -19 -0.15 0.25
19 10 -5 -0.11 0.25
-5 10 -19 0.25 0.24
-5 -10 19 -0.06 0.28
-10 -6 19 0.29 0.27
6 -19 -10 0.3 0.2
-10 6 -19 0.21 0.2
10 19 -6 -0.08 0.31
6 10 -19 0.23 0.28
-6 -19 10 0.01 0.27
-19 -10 6 -0.5 0.24
10 6 19 -0.18 0.19
19 10 6 0.28 0.18
-19 6 10 0.06 0.21
-19 6 10 0.23 0.21
19 6 -10 0.19 0.27
10 6 19 -0.04 0.19
6 19 10 0.05 0.29
6 -10 19 -0.01 0.26
-10 19 6 0.33 0.28
-19 10 -6 0.07 0.22
-6 10 19 -0.24 0.22
19 -10 -6 0.03 0.18
10 -19 6 0.17 0.27
-10 -19 -6 0.09 0.23
-6 19 -10 0.13 0.31
10 -6 19 0.44 0.24
-10 -19 6 0.41 0.28
-6 19 10 0.01 0.28
19 10 -6 0.32 0.26
19 -10 6 0.1 0.16
10 6 -19 0.25 0.23
-19 -6 10 -0.03 0.25
-6 -19 -10 0.3 0.23
10 19 6 -0.22 0.29
-10 6 19 -0.31 0.22
6 10 19 0.16 0.24
-10 6 19 0.23 0.21
-10 19 -6 0.46 0.31
10 -19 -6 -0.3 0.2
-6 10 -19 -0.06 0.24
6 -19 10 0.33 0.28
-19 -10 -6 -0.01 0.16
-6 -10 19 0.07 0.28
6 19 -10 0.39 0.29
-19 10 6 0.34 0.22
19 -10 -7 -0.2 0.18
-7 -19 10 0.11 0.28
7 -10 19 -0.23 0.28
19 10 7 -0.29 0.17
10 19 -7 -0.27 0.3
-10 -7 19 0.13 0.3
19 7 -10 -0.12 0.25
-19 7 10 -0.21 0.2
7 19 10 -0.54 0.29
7 -19 -10 -0.11 0.18
-10 7 -19 -0.2 0.2
-19 7 10 0.03 0.21
10 7 19 -0.16 0.21
-10 -19 -7 -0.04 0.24
7 10 -19 -0.27 0.27
10 7 19 -0.35 0.19
-19 -10 7 -0.26 0.26
10 -19 7 0.15 0.27
-7 19 -10 -0.38 0.31
-10 19 7 0.29 0.28
-7 10 19 0.04 0.24
-19 10 -7 -0.15 0.23
7 -19 10 -0.11 0.27
7 10 19 -0.26 0.23
-19 7 -10 -0.11 0.13
10 -19 -7 0.15 0.22
19 10 -7 -0.07 0.27
-7 19 10 0.04 0.3
-10 -19 7 -0.02 0.29
-10 19 -7 0.38 0.3
10 7 -19 -0.37 0.27
-10 7 19 0.06 0.21
-19 -7 10 -0.36 0.27
10 -7 19 0.27 0.26
-7 -19 -10 -0.27 0.22
-19 -10 -7 -0.3 0.16
19 -10 7 -0.12 0.15
-7 10 -19 0.02 0.25
-19 10 7 -0.01 0.23
7 19 -10 -0.79 0.3
10 19 7 0.2 0.31
-7 -10 19 -0.52 0.28
-10 7 19 -0.11 0.25
-11 0 19 0.05 0.19
0 11 19 0.11 0.22
11 -19 0 -0.39 0.21
-19 11 0 -0.1 0.22
-11 -19 0 -0.08 0.24
19 -11 0 0.08 0.16
19 11 0 -0.16 0.21
0 -19 -11 -0.15 0.19
-11 19 0 0.07 0.28
-11 0 19 -0.03 0.24
0 19 11 0.23 0.28
11 0 19 -0.42 0.19
-19 0 11 0.35 0.22
0 11 -19 -0.37 0.24
0 -11 -19 -0.19 0.17
11 19 0 -0.31 0.28
-19 -11 0 -0.02 0.23
0 -11 19 0.18 0.27
0 -19 11 -0.32 0.26
0 19 -11 -0.35 0.28
11 0 19 -0.01 0.13
-19 0 11 -0.17 0.16
-1 11 19 -0.09 0.23
-11 -19 -1 0.26 0.25
1 19 11 -0.27 0.27
-11 -1 19 0.03 0.17
-11 19 1 -0.36 0.26
-1 -11 -19 0.06 0.17
-1 -19 11 0.04 0.26
-19 11 -1 0.24 0.21
-1 19 -11 -0.43 0.28
11 1 19 -0.33 0.18
11 1 19 -0.12 0.14
1 11 -19 -0.04 0.25
11 -19 1 -0.18 0.22
11 19 -1 0.18 0.28
-19 1 11 -0.18 0.16
-19 -11 1 0.17 0.23
1 -11 19 -0.52 0.27
-11 -1 19 0.14 0.26
19 -11 -1 -0.07 0.15
-19 1 11 0.25 0.21
19 11 1 -0.5 0.2
1 -19 -11 -0.12 0.2
-11 1 19 0.08 0.19
-1 -11 19 -0.35 0.26
-19 -11 -1 0.07 0.22
1 19 -11 0.07 0.29
-11 1 19 -0.34 0.24
19 11 -1 0.12 0.24
-11 -19 1 0.02 0.25
-1 11 -19 0.45 0.24
11 -19 -1 0.03 0.21
1 -11 -19 -0.05 0.17
-19 -1 11 -0.19 0.16
19 -11 1 -0.19 0.16
1 -19 11 -0.75 0.25
11 -1 19 0.01 0.2
-19 -1 11 0.16 0.23
-1 -19 -11 0.04 0.2
1 11 19 0.21 0.21
11 19 1 -0.32 0.27
11 -1 19 -0.22 0.13
-11 19 -1 -0.03 0.26
-19 11 1 0.18 0.22
-1 19 11 -0.15 0.28
-2 11 19 -0.06 0.22
-19 -11 2 -0.27 0.24
-11 -19 -2 0.21 0.24
11 19 -2 -0.54 0.27
11 -19 2 -0.23 0.22
2 -19 -11 -0.33 0.19
2 11 -19 -0.55 0.24
-19 2 11 -0.06 0.18
2 -11 19 -0.05 0.26
-11 -2 19 -0.13 0.18
-11 19 2 -0.36 0.27
-19 2 11 -0.16 0.21
-2 -11 -19 -0.37 0.16
2 19 11 -0.1 0.27
-19 11 -2 -0.17 0.22
11 2 19 -0.25 0.15
19 -11 -2 -0.01 0.17
-2 19 -11 0 0.28
19 11 2 -0.14 0.2
-2 -19 11 -0.29 0.25
11 2 19 0.22 0.19
-11 -2 19 0.16 0.26
19 -11 2 -0.12 0.16
-19 11 2 -0.34 0.21
-2 -11 19 -0.44 0.26
-2 -19 -11 -0.26 0.2
2 11 19 0.27 0.2
-11 19 -2 -0.27 0.27
-19 -2 11 -0.07 0.16
19 11 -2 0.18 0.23
2 19 -11 0.04 0.29
2 -11 -19 -0.01 0.17
-11 -19 2 -0.15 0.26
-2 11 -19 -0.13 0.23
11 -2 19 -0.1 0.21
-19 -2 11 -0.2 0.23
-11 2 19 0.02 0.23
-11 2 19 -0.07 0.19
11 -2 19 -0.14 0.14
11 19 2 -0.21 0.27
2 -19 11 -0.03 0.25
-2 19 11 -0.18 0.26
11 -19 -2 -0.19 0.21
-19 -11 -2 -0.06 0.21
11 -19 3 -0.17 0.23
-11 -19 -3 0.09 0.25
-19 3 11 0.17 0.17
3 -11 19 -0.32 0.25
3 11 -19 0.16 0.27
3 -19 -11 0.02 0.19
-3 -11 -19 -0.19 0.16
-3 19 -11 -0.34 0.3
11 3 19 -0.09 0.18
-11 -3 19 -0.09 0.18
-3 -19 11 -0.14 0.26
-19 -11 3 0.21 0.24
-11 19 3 0.11 0.27
-11 -3 19 0.11 0.26
19 -11 -3 -0.38 0.17
11 19 -3 -0.09 0.31
-3 11 19 -0.15 0.21
11 3 19 -0.11 0.16
3 19 11 -0.15 0.27
-19 11 -3 0.08 0.21
-19 3 11 0 0.21
19 11 3 -0.11 0.2
11 -19 -3 -0.08 0.2
-3 11 -19 -0.27 0.23
11 -3 19 0.05 0.14
3 -11 -19 0.04 0.18
3 -19 11 0.05 0.28
3 19 -11 -0.67 0.28
-11 3 19 -0.19 0.24
-19 -3 11 -0.05 0.23
11 -3 19 -0.09 0.2
-11 -19 3 -0.04 0.26
19 11 -3 -0.2 0.23
-3 -11 19 -0.38 0.26
-19 -11 -3 -0.13 0.2
-11 3 19 -0.23 0.2
-3 -19 -11 -0.04 0.2
-11 19 -3 0.02 0.27
-19 11 3 0.23 0.29
11 19 3 0.03 0.29
19 -11 3 0.02 0.16
-3 19 11 -0.17 0.26
-19 -3 11 -0.01 0.15
3 11 19 -0.15 0.21
4 -19 -11 -0.07 0.18
11 4 19 0.04 0.17
4 19 11 0.34 0.3
19 11 4 0.2 0.21
-4 19 -11 0.13 0.31
19 -11 -4 0.32 0.18
-19 -11 4 -0.03 0.29
-19 11 -4 0.3 0.23
-4 -11 -19 0.21 0.17
-11 -4 19 -0.16 0.27
4 11 -19 0.24 0.25
-11 19 4 0.68 0.28
-19 4 11 0.03 0.22
-4 11 19 0.23 0.22
11 4 19 -0.01 0.19
11 19 -4 -0.03 0.29
-4 -19 11 0.07 0.27
-19 4 11 -0.03 0.2
-11 -19 -4 0.54 0.25
4 -11 19 0.15 0.26
11 -19 4 0.33 0.23
19 -11 4 0.33 0.17
4 11 19 0.6 0.23
-11 -19 4 0.17 0.28
11 -4 19 0.4 0.22
-11 4 19 0.18 0.24
-11 19 -4 -0.23 0.28
11 -19 -4 0.29 0.21
19 11 -4 0.45 0.32
4 -11 -19 0.04 0.18
4 -19 11 0.03 0.26
-19 -4 11 0.23 0.16
-19 -11 -4 0.26 0.2
-4 11 -19 0.03 0.24
11 -4 19 0.17 0.14
4 19 -11 0.01 0.29
-4 19 11 0.36 0.28
-11 4 19 0.3 0.2
-4 -11 19 0.31 0.28
-4 -19 -11 0.2 0.21
11 19 4 0.35 0.31
-19 -4 11 0.22 0.26
-19 11 4 0.22 0.22
11 5 19 0.23 0.19
5 19 11 -0.41 0.29
19 -11 -5 0.04 0.18
11 19 -5 -0.18 0.3
5 -11 19 -0.05 0.27
-5 -11 -19 -0.04 0.17
19 11 5 0.1 0.2
-19 5 11 0.04 0.22
-19 5 11 -0.08 0.19
-11 -19 -5 -0.18 0.24
-19 11 -5 -0.32 0.22
-5 -19 11 -0.45 0.27
-5 19 -11 -0.05 0.3
-19 -11 5 -0.17 0.26
11 5 19 -0.08 0.18
-11 19 5 -0.09 0.29
5 -19 -11 -0.35 0.17
-5 11 19 -0.08 0.22
-11 -5 19 -0.06 0.28
5 11 -19 0.05 0.25
11 -19 5 -0.04 0.24
-5 -19 -11 0.16 0.21
-5 19 11 -0.07 0.28
5 -11 -19 -0.01 0.19
11 19 5 -0.45 0.28
5 19 -11 0.06 0.28
11 -5 19 -0.16 0.22
5 11 19 0.1 0.24
-11 -19 5 -0.16 0.26
-11 19 -5 -0.26 0.28
-11 5 19 -0.17 0.2
19 11 -5 0.11 0.26
11 -19 -5 -0.2 0.21
-19 11 5 0.23 0.22
-11 5 19 -0.23 0.24
5 -19 11 -0.41 0.27
-5 -11 19 -0.05 0.28
-5 11 -19 0.09 0.25
19 -11 5 -0.2 0.17
-19 -11 -5 -0.17 0.19
-19 -5 11 -0.25 0.25
-19 0 12 -0.02 0.18
12 -19 0 0.19 0.22
-12 19 0 -0.43 0.27
-19 0 12 -0.08 0.23
-12 -19 0 0.13 0.24
19 -12 0 -0.04 0.18
-12 0 19 0.05 0.18
0 -19 -12 -0.01 0.19
0 -19 12 -0.28 0.26
0 -12 19 -0.08 0.26
12 19 0 0.01 0.29
19 12 0 0.03 0.23
0 19 -12 0.07 0.29
0 19 12 -0.21 0.27
12 0 19 0.07 0.19
0 12 19 -0.17 0.22
-19 12 0 -0.07 0.23
0 -12 -19 -0.13 0.17
12 0 19 -0.07 0.14
0 12 -19 0.16 0.24
-19 -12 0 -0.01 0.23
-12 0 19 0.15 0.28
12 1 19 -0.12 0.15
-1 -12 -19 -0.2 0.18
-12 -19 -1 0.2 0.25
12 -19 1 -0.17 0.22
-12 -1 19 0.05 0.24
-1 19 -12 0.16 0.29
-19 12 -1 0.14 0.23
-12 -1 19 0.03 0.19
1 -19 -12 -0.26 0.19
-19 1 12 0.09 0.23
19 -12 -1 -0.2 0.26
12 19 -1 0.19 0.29
1 19 12 -0.17 0.28
-19 1 12 -0.12 0.18
-1 12 19 -0.12 0.21
1 -12 19 0.18 0.26
-19 -12 1 -0.21 0.24
-1 -19 12 -0.11 0.27
19 12 1 0 0.23
1 12 -19 0.04 0.26
12 1 19 0.04 0.19
-12 19 1 -0.24 0.27
12 -19 -1 0.24 0.21
1 -19 12 0.02 0.27
-19 12 1 -0.13 0.24
1 12 19 0.22 0.23
-1 12 -19 -0.43 0.25
-1 -19 -12 -0.18 0.2
-12 1 19 -0.33 0.2
-1 -12 19 0.38 0.27
-19 -1 12 -0.17 0.24
19 -12 1 0.1 0.17
19 12 -1 -0.31 0.22
12 -1 19 -0.27 0.19
-19 -12 -1 -0.26 0.23
12 -1 19 -0.12 0.14
-12 19 -1 -0.02 0.27
12 19 1 -0.22 0.29
1 19 -12 -0.11 0.28
1 -12 -19 0.01 0.17
-1 19 12 0.23 0.26
-12 -19 1 -0.2 0.27
-19 -1 12 0.19 0.17
-12 1 19 0.23 0.23
-2 -12 -19 -0.13 0.17
12 2 19 -0.35 0.18
-19 -12 2 0.22 0.24
-12 -2 19 -0.08 0.26
-2 19 -12 -0.52 0.29
19 -12 -2 0.06 0.17
2 -19 -12 0.08 0.19
12 2 19 -0.13 0.16
-19 12 -2 -0.17 0.22
-19 2 12 -0.08 0.22
12 -19 2 0.1 0.23
19 12 2 0.04 0.22
2 -12 19 0.18 0.27
12 19 -2 -0.51 0.3
-2 12 19 -0.09 0.23
-12 -2 19 -0.08 0.17
-12 19 2 0.57 0.28
2 19 12 -0.36 0.28
-12 -19 -2 -0.14 0.25
-19 2 12 0.19 0.19
-2 -19 12 0.06 0.28
2 12 -19 -0.2 0.23
-12 -19 2 -0.36 0.25
2 19 -12 -0.09 0.28
-2 19 12 -0.03 0.26
12 19 2 -0.26 0.34
12 -2 19 -0.02 0.13
-12 2 19 -0.17 0.18
2 12 19 0.07 0.23
-19 -12 -2 -0.42 0.22
19 12 -2 0.2 0.24
-19 -2 12 0.27 0.26
-19 12 2 0.48 0.24
19 -12 2 0.03 0.17
-2 -12 19 -0.22 0.26
-12 19 -2 0.33 0.29
-2 12 -19 0.04 0.25
12 -2 19 0.07 0.2
-2 -19 -12 0 0.22
-12 2 19 0.26 0.26
-19 -2 12 0.07 0.16
2 -12 -19 -0.14 0.18
12 -19 -2 -0.01 0.21
2 -19 12 -0.36 0.26
-20 0 0 24.74 2.05
-20 0 0 26.01 2.03
0 -20 0 25.63 2.12
0 0 20 26.02 2.12
0 0 20 30.12 2.07
0 20 0 24.17 2.15
-20 0 -1 0.28 0.2
-20 0 -1 0.32 0.17
-20 0 1 0.28 0.22
-20 0 1 0.31 0.19
-1 -20 0 0.68 0.31
-1 20 0 0.88 0.36
0 -1 20 0.34 0.3
0 -1 20 0.61 0.22
0 1 20 0.13 0.3
0 1 20 0.58 0.24
1 -20 0 0.69 0.32
1 20 0 0.27 0.34
1 0 20 0.46 0.22
0 20 -1 0.49 0.36
0 20 1 -0.22 0.35
1 0 20 0.33 0.29
-20 -1 0 0.34 0.21
-20 -1 0 0.45 0.18
-20 1 0 0.61 0.21
-20 1 0 0.2 0.19
-1 0 20 0.53 0.29
-1 0 20 0.98 0.23
0 -20 -1 0.42 0.3
0 -20 1 0.72 0.31
1 1 20 0.47 0.27
1 1 20 0.58 0.23
1 20 -1 0.01 0.35
1 -1 20 0.15 0.21
-20 -1 -1 0.3 0.2
-20 -1 -1 0.26 0.16
-20 -1 1 0.36 0.23
-20 -1 1 0.33 0.17
-20 1 -1 0.49 0.19
-20 1 -1 0.46 0.18
-20 1 1 0.63 0.23
-20 1 1 0.09 0.19
-1 -20 -1 0.2 0.3
-1 -20 1 0.13 0.3
-1 -1 20 0.41 0.3
-1 -1 20 0.51 0.23
-1 1 20 0.35 0.28
-1 1 20 0.16 0.24
-1 20 -1 -0.13 0.34
-1 20 1 0.44 0.33
1 -20 -1 0.57 0.32
1 -20 1 -0.13 0.31
1 -1 20 0.64 0.3
1 20 1 -0.04 0.35
-20 0 -2 -0.24 0.15
-20 0 2 0.42 0.23
-20 0 2 0 0.19
-20 0 -2 0.06 0.17
-2 0 20 0.21 0.31
-2 0 20 0.08 0.22
0 -20 -2 -0.17 0.29
0 -20 2 0.05 0.32
0 20 -2 -0.42 0.32
-2 -20 0 0.13 0.3
-2 20 0 0.03 0.35
0 -2 20 -0.64 0.29
0 -2 20 -0.39 0.22
0 2 20 -0.61 0.29
0 2 20 -0.21 0.22
2 -20 0 0.19 0.3
2 20 0 0.02 0.34
-20 2 0 -0.15 0.2
0 20 2 0.16 0.34
2 0 20 0.05 0.27
2 0 20 -0.04 0.21
-20 -2 0 -0.18 0.16
-20 -2 0 0.01 0.22
-20 2 0 -0.19 0.18
-2 -20 -1 6.28 0.77
2 -20 1 6.26 0.77
-20 -1 -2 5.01 0.58
-2 -1 20 5.97 0.78
-20 1 2 6.2 0.66
-20 2 -1 5.38 0.6
-20 2 -1 5.61 0.58
-1 2 20 5.37 0.79
-1 -20 2 6.05 0.77
2 1 20 6.08 0.65
1 -2 20 5.99 0.64
1 -20 -2 5.5 0.79
2 1 20 5.92 0.77
-20 -2 1 5.32 0.57
-20 -1 -2 5.63 0.53
-20 1 2 5.33 0.58
-2 -1 20 5.54 0.62
-1 2 20 5.38 0.67
1 -2 20 5.73 0.81
-20 -2 1 5.8 0.66
2 -1 20 5.4 0.61
-20 -2 -1 4.94 0.62
1 2 20 6.15 0.79
-20 -1 2 5.71 0.67
-20 -1 2 6.06 0.58
-20 2 1 6.23 0.59
1 -20 2 5.01 0.77
-20 -2 -1 5.52 0.54
-2 1 20 5.8 0.75
-20 1 -2 5.11 0.57
-1 -20 -2 6.07 0.76
1 2 20 4.78 0.66
-1 -2 20 5.19 0.63
1 20 -2 6.55 0.83
-2 1 20 6.25 0.65
-2 -20 1 5.15 0.78
-20 2 1 5.64 0.65
2 -20 -1 5.9 0.76
-20 1 -2 5.58 0.55
-20 -2 2 5.83 0.67
-20 -2 -2 5.13 0.51
-20 2 -2 4.55 0.56
-20 2 -2 5.66 0.55
-20 2 2 5.97 0.65
-20 2 2 5.6 0.6
-2 -20 -2 5.63 0.76
-2 -20 2 6.11 0.82
-2 -2 20 5.87 0.8
-20 -2 2 5.58 0.57
2 -20 2 5.67 0.78
2 -2 20 5.38 0.78
2 -2 20 6.04 0.63
2 2 20 4.75 0.72
2 2 20 5.69 0.64
2 20 -2 6.16 0.82
-20 -2 -2 5.66 0.57
2 -20 -2 5.77 0.71
-2 2 20 5.34 0.74
-2 2 20 5.99 0.64
-2 -2 20 5.82 0.62
-3 20 0 0.85 0.33
0 20 3 0.22 0.35
3 0 20 0.26 0.26
0 -20 3 0.65 0.29
0 20 -3 0.94 0.34
0 -20 -3 0.5 0.28
-3 0 20 0.55 0.31
-3 0 20 0.36 0.22
-20 0 -3 0.88 0.16
-20 0 -3 0.81 0.13
-20 0 3 0.25 0.24
3 0 20 0.55 0.21
-3 -20 0 0.44 0.29
0 3 20 1 0.23
3 -20 0 0.38 0.31
3 20 0 0.89 0.32
0 3 20 0.78 0.27
-20 3 0 0.47 0.2
-20 -3 0 0.34 0.22
-20 -3 0 0.79 0.17
-20 3 0 1.05 0.21
0 -3 20 0.82 0.29
-20 0 3 0.77 0.19
1 20 3 0.07 0.34
-3 20 1 0.52 0.36
-20 -3 1 0.11 0.22
-20 -1 -3 0.27 0.12
-20 3 -1 0.24 0.17
-20 1 3 -0.23 0.21
-20 1 3 0.13 0.19
-1 3 20 0.17 0.21
-1 3 20 -0.03 0.25
3 1 20 0.09 0.26
3 1 20 0.02 0.2
1 -3 20 -0.18 0.26
-1 -20 3 0.32 0.29
-3 -20 -1 0.04 0.29
-20 3 -1 -0.14 0.18
-1 20 -3 0.36 0.33
-3 -1 20 0.14 0.2
3 20 -1 0.21 0.33
-3 -1 20 -0.11 0.27
-20 -1 -3 -0.01 0.14
1 -20 -3 -0.22 0.27
-20 -3 1 0.04 0.16
3 -20 1 0.38 0.28
3 -20 -1 -0.17 0.25
1 -20 3 0.32 0.3
3 -1 20 -0.05 0.19
-3 -20 1 0.15 0.31
3 -1 20 -0.08 0.28
-20 3 1 0.41 0.19
-20 -3 -1 0.27 0.19
-20 1 -3 0.09 0.13
1 3 20 0.15 0.25
-3 1 20 0.21 0.22
-1 -20 -3 0.29 0.26
-3 1 20 0.24 0.27
-3 20 -1 -0.2 0.32
-20 -3 -1 0.12 0.14
-20 -1 3 0.06 0.17
-20 -1 3 -0.01 0.22
1 20 -3 -0.05 0.31
3 20 1 0.49 0.33
-20 3 1 0.1 0.19
-1 -3 20 0.12 0.3
-20 1 -3 0.21 0.14
-1 20 3 0.02 0.31
1 3 20 0.01 0.21
-20 2 3 2.18 0.27
-3 20 2 1.33 0.35
3 2 20 1.64 0.25
-2 3 20 1.48 0.31
2 20 3 1.34 0.37
3 2 20 1.25 0.3
-2 3 20 1.97 0.27
2 -3 20 1.92 0.32
-2 -20 3 1.25 0.33
-20 2 3 1.55 0.24
-3 -2 20 3.47 0.46
3 -20 2 2.7 0.34
3 20 -2 1.35 0.34
-20 3 -2 3.1 0.39
-20 3 -2 1.7 0.23
-20 -3 2 1.56 0.28
-20 -3 2 3.39 0.39
-3 -2 20 2.11 0.34
-2 20 -3 1.55 0.34
-20 -2 -3 2.26 0.27
2 -20 -3 1.52 0.31
-3 -20 -2 1.84 0.34
3 -20 -2 1.53 0.32
-3 2 20 3.54 0.47
-20 -3 -2 2.72 0.3
2 -20 3 1.91 0.32
-3 -20 2 1.22 0.32
3 20 2 1.84 0.36
-2 -3 20 1.69 0.33
-20 3 2 1.84 0.26
2 20 -3 1.1 0.35
-2 -20 -3 1.71 0.31
3 -2 20 3.21 0.44
-3 2 20 2.1 0.32
-20 -2 3 1.74 0.28
-20 -2 3 3.37 0.4
-20 2 -3 1.59 0.21
-20 2 -3 2.97 0.34
-2 20 3 1.08 0.36
2 3 20 1.62 0.26
-3 20 -2 1.49 0.37
3 -2 20 1.26 0.31
2 3 20 1.78 0.3
-20 3 2 1.63 0.24
3 20 3 -0.41 0.29
3 20 -3 -0.34 0.32
3 3 20 0.21 0.19
-3 -20 3 -0.19 0.27
-3 -3 20 -0.04 0.28
-3 3 20 -0.12 0.26
-3 3 20 0.17 0.21
-3 20 -3 -0.23 0.3
-3 20 3 -0.31 0.32
3 -20 -3 -0.09 0.25
-20 3 -3 -0.04 0.15
-20 3 3 -0.11 0.2
-20 3 3 -0.28 0.18
-3 -20 -3 -0.05 0.25
-20 3 -3 -0.09 0.14
3 3 20 -0.58 0.22
3 -20 3 -0.24 0.27
-20 -3 3 -0.13 0.15
-20 -3 -3 0.05 0.14
-20 -3 -3 -0.16 0.11
-20 -3 3 0 0.22
3 -3 20 0.2 0.27
-4 20 0 6.47 0.92
0 -4 20 7.84 0.86
-4 0 20 6.72 0.73
0 -20 -4 7.69 0.81
0 -20 4 6.63 0.84
0 20 -4 7.22 0.89
-4 -20 0 7.98 0.88
4 -20 0 7.11 0.82
4 20 0 6.79 0.89
0 20 4 7.46 0.87
-20 4 0 7.58 0.71
-20 0 4 7.63 0.79
-20 0 4 8.21 0.72
-20 -4 0 7.23 0.74
-20 -4 0 8.67 0.67
-20 4 0 8.4 0.73
4 0 20 6.44 0.94
-4 0 20 8.86 0.88
0 4 20 8.04 0.82
0 4 -20 8.04 0.85
1 -4 20 0.42 0.28
-20 -4 1 0.44 0.22
-4 -20 -1 0.96 0.29
4 1 20 0.19 0.33
-1 4 20 0.72 0.21
-1 4 20 0.21 0.24
-4 -1 20 0.6 0.21
-4 20 1 0.22 0.33
-20 -4 1 0.43 0.15
-20 4 -1 0.61 0.18
-20 4 -1 0.59 0.18
4 20 -1 0.54 0.3
-4 -1 20 0.63 0.26
4 1 20 0.34 0.48
-1 20 -4 0.04 0.29
-20 1 4 0.46 0.22
1 -20 -4 0.57 0.27
1 4 -20 0.14 0.25
-1 -20 4 -0.17 0.28
1 20 4 0.32 0.32
4 -20 1 0.2 0.27
-20 1 4 0.42 0.19
-20 4 1 0.31 0.19
-20 -1 4 0.35 0.18
1 4 20 0.17 0.25
-20 -1 4 0.57 0.22
4 -1 20 0.53 0.34
4 -1 20 0.66 0.24
1 4 20 0.33 0.2
-4 20 -1 0.86 0.33
-1 20 4 0.24 0.33
-20 -4 -1 0.55 0.14
-1 4 -20 0.43 0.24
-1 -4 20 0.1 0.29
-4 -20 1 0.72 0.3
-4 1 20 0.52 0.26
-20 -4 -1 0.81 0.2
-20 4 1 0.46 0.19
4 20 1 0.36 0.31
-1 -20 -4 -0.13 0.25
4 -20 -1 0.9 0.27
1 20 -4 0.23 0.33
-4 1 20 0.42 0.21
1 -20 4 0.52 0.27
-2 20 -4 -0.23 0.29
-4 -2 20 0.05 0.2
-20 2 4 -0.28 0.18
-4 -20 -2 -0.03 0.27
4 2 20 -0.5 0.29
-4 20 2 -0.03 0.3
2 -4 20 -0.35 0.26
2 20 4 -0.45 0.31
-20 -4 2 -0.35 0.14
-2 -20 4 -0.17 0.27
2 -20 -4 -0.44 0.25
-2 4 20 -0.39 0.23
-2 4 20 -0.1 0.21
-20 -4 2 -0.53 0.22
2 4 -20 -0.17 0.24
4 -20 2 -0.16 0.26
4 20 -2 0.1 0.31
-20 4 -2 -0.46 0.17
4 2 20 -0.23 0.22
-20 2 4 -0.24 0.2
-4 -2 20 -0.05 0.26
-20 4 -2 -0.13 0.16
-20 4 2 -0.14 0.19
-2 -4 20 -0.11 0.26
2 4 20 0.03 0.24
2 4 20 -0.22 0.19
-20 -2 4 -0.25 0.17
-20 4 2 -0.18 0.19
-4 2 20 -0.16 0.25
-4 2 20 -0.21 0.2
-4 -20 2 -0.54 0.25
-2 20 4 -0.03 0.31
2 20 -4 -0.22 0.32
-4 20 -2 0.12 0.31
4 -2 20 -0.08 0.25
4 -2 20 -0.36 0.18
-2 4 -20 -0.19 0.23
-20 -4 -2 -0.28 0.17
4 -20 -2 -0.46 0.23
-20 -2 4 -0.29 0.23
-2 -20 -4 -0.29 0.23
4 20 2 -0.25 0.3
2 -20 4 -0.47 0.27
-20 3 4 0.61 0.21
-3 4 20 0.15 0.22
-4 -20 -3 0.65 0.26
3 4 -20 0.61 0.27
-3 20 -4 0.47 0.31
-20 4 -3 0.54 0.16
3 -20 -4 0.13 0.24
4 -20 3 0.41 0.26
3 -4 20 0.15 0.26
4 20 -3 0.64 0.3
4 3 20 0.59 0.23
4 3 20 0.02 0.18
-20 -4 3 0.38 0.16
-20 3 4 0.52 0.19
3 20 4 0.68 0.32
-3 4 20 0.3 0.24
-3 -20 4 0.41 0.27
-20 -4 3 0.59 0.22
-4 20 3 0.55 0.3
-20 4 -3 0.28 0.15
-4 -3 20 0.46 0.27
-4 3 20 0.35 0.26
-20 4 3 0.35 0.19
4 -20 -3 0.47 0.25
-3 -20 -4 0.61 0.24
-3 4 -20 0.23 0.24
4 -3 20 0.47 0.25
-4 20 -3 0.67 0.3
3 4 20 0.35 0.19
-3 -4 20 0.01 0.26
3 4 20 0.16 0.24
-20 -3 4 0.4 0.17
-20 3 -4 0.59 0.12
-20 3 -4 0.51 0.13
-4 3 20 0.35 0.2
-4 -20 3 0.52 0.28
-20 -4 -3 0.39 0.11
-20 -3 4 0.5 0.23
-3 20 4 -0.23 0.31
-20 -4 -3 0.56 0.15
4 20 3 0.45 0.31
3 20 -4 0.66 0.29
3 -20 4 0.56 0.27
-20 4 3 0.25 0.2
4 -20 -4 1.18 0.26
-4 20 4 1.7 0.32
-4 20 -4 1.08 0.32
-20 4 4 1.44 0.24
-20 4 -4 1.1 0.18
-4 -20 4 1.15 0.3
-4 -4 20 1.47 0.29
-4 4 20 1.35 0.26
-4 4 20 1.17 0.23
-20 -4 4 1.25 0.25
4 4 -20 1.41 0.29
4 4 20 1.66 0.26
4 4 20 1.22 0.22
4 20 -4 1.01 0.32
4 20 4 1.1 0.31
-20 4 -4 2.29 0.29
4 -20 4 1.4 0.29
4 -4 20 1.27 0.29
-4 -20 -4 1.35 0.27
-20 4 4 1.33 0.22
0 -20 -5 0.97 0.25
-20 5 0 0.89 0.2
0 20 -5 0.73 0.32
0 20 5 0.1 0.3
5 0 20 0.71 0.26
5 0 20 0.76 0.2
0 5 20 0.96 0.21
-5 0 20 0.54 0.26
-5 0 20 1.19 0.21
-20 0 5 1 0.19
-5 -20 0 0.51 0.27
-5 20 0 0.89 0.32
0 -5 20 1 0.29
0 5 -20 0.82 0.24
0 5 20 0.8 0.25
0 -20 5 1.05 0.3
5 -20 0 0.95 0.27
5 20 0 0.67 0.31
-20 -5 0 0.42 0.21
-20 0 5 0.55 0.23
-20 5 0 0.8 0.19
-1 5 20 -0.17 0.2
5 -20 1 -0.29 0.25
-5 -20 -1 0.09 0.26
1 -20 -5 0.16 0.23
1 -5 20 -0.38 0.27
-20 1 5 -0.07 0.17
5 20 -1 0.08 0.29
-5 -1 20 0.15 0.26
-5 -1 20 -0.24 0.19
-5 20 1 -0.24 0.3
-20 -5 1 -0.21 0.19
-20 5 -1 -0.07 0.15
-20 5 -1 0.11 0.18
-1 5 20 -0.02 0.23
5 1 20 0.34 0.23
-1 20 -5 0.07 0.31
-20 1 5 0.25 0.22
1 5 -20 0.07 0.23
1 20 5 -0.18 0.3
5 1 20 -0.37 0.17
-1 -20 5 0 0.27
1 5 20 -0.09 0.23
-1 20 5 -0.21 0.29
-1 5 -20 -0.33 0.22
-5 20 -1 0.15 0.3
-20 -5 -1 -0.14 0.18
-5 1 20 -0.08 0.19
5 20 1 -0.1 0.28
5 -1 20 -0.17 0.17
-20 5 1 0.06 0.19
-1 -20 -5 -0.26 0.25
1 5 20 -0.02 0.19
-5 1 20 -0.01 0.24
1 -20 5 -0.22 0.24
1 20 -5 -0.19 0.29
-20 5 1 -0.01 0.17
-1 -5 20 -0.16 0.27
-20 -1 5 -0.01 0.16
5 -20 -1 0.03 0.23
5 -1 20 0.13 0.24
-20 -1 5 0.32 0.22
-5 -20 1 0.12 0.27
-5 -2 20 0.18 0.19
-2 -20 5 0.54 0.27
-2 20 -5 0.32 0.31
-20 5 -2 0.38 0.15
5 2 20 0.24 0.22
5 -20 2 0.2 0.25
5 20 -2 0.28 0.31
-5 -20 -2 0.45 0.27
-20 5 -2 0.2 0.17
-20 2 5 0.17 0.21
2 -20 -5 0.12 0.23
-5 20 2 0.44 0.3
-20 2 5 0.31 0.19
5 2 20 0.14 0.19
-2 5 20 0.34 0.23
2 20 5 -0.03 0.29
-5 -2 20 0.53 0.27
2 -5 20 -0.18 0.27
-2 5 20 0.44 0.2
-20 -5 2 0.39 0.21
2 5 -20 0.56 0.25
-20 5 2 0.11 0.19
-5 2 20 0.1 0.19
2 -20 5 0.13 0.26
5 -2 20 0.51 0.32
-20 -5 -2 0.18 0.18
-20 -5 -2 0.33 0.11
-2 -5 20 0.41 0.27
-5 -20 2 0.24 0.24
2 5 20 0.23 0.22
2 5 20 0.75 0.2
5 -20 -2 0.35 0.26
-2 20 5 0.55 0.3
-5 2 20 0.34 0.25
-20 5 2 0.39 0.19
-20 -2 5 0.43 0.23
5 -2 20 0.1 0.19
-2 -20 -5 0.09 0.24
5 20 2 0.63 0.3
2 20 -5 0.78 0.29
-20 -2 5 0.18 0.17
-5 20 -2 0.35 0.3
-2 5 -20 0.63 0.23
-5 -20 -3 -0.15 0.25
-5 -3 20 0.14 0.28
-3 -20 5 -0.05 0.26
-20 -5 3 -0.26 0.2
-5 20 3 0.06 0.28
3 5 -20 0.11 0.23
3 -20 -5 0.04 0.23
3 20 5 -0.31 0.29
5 -20 3 0.09 0.25
-3 20 -5 0.18 0.29
5 3 20 -0.31 0.21
-20 3 5 -0.02 0.2
-20 5 -3 0.14 0.15
-3 5 20 -0.02 0.2
5 20 -3 0.49 0.28
-20 5 -3 -0.23 0.13
5 3 20 -0.15 0.25
-20 3 5 -0.04 0.17
-3 5 20 -0.02 0.22
3 -5 20 -0.23 0.24
-20 5 3 0.2 0.18
-3 -5 20 0.05 0.27
-3 5 -20 -0.07 0.21
-20 -3 5 -0.02 0.16
-5 3 20 -0.15 0.24
3 20 -5 -0.11 0.28
-20 -5 -3 -0.15 0.15
-5 -20 3 0.18 0.27
-3 20 5 -0.15 0.28
-5 20 -3 -0.63 0.28
5 -3 20 -0.02 0.46
5 20 3 -0.06 0.29
3 5 20 0.06 0.22
-20 -5 -3 0.01 0.1
3 5 20 -0.17 0.18
5 -20 -3 -0.08 0.22
3 -20 5 -0.23 0.25
-20 5 3 -0.25 0.18
-3 -20 -5 -0.05 0.23
-20 -3 5 -0.09 0.21
-5 3 20 -0.29 0.19
4 20 5 -0.16 0.29
4 5 -20 -0.03 0.22
-4 5 20 -0.37 0.22
-4 5 20 -0.13 0.18
-5 -4 20 -0.37 0.26
-5 20 4 -0.13 0.28
5 -20 4 -0.03 0.25
-4 -20 5 -0.06 0.26
5 20 -4 -0.62 0.27
-4 20 -5 -0.16 0.28
-20 5 -4 -0.04 0.15
-20 -5 4 0.32 0.21
4 -20 -5 0.05 0.22
-20 4 5 -0.32 0.18
-5 -20 -4 -0.45 0.22
4 -5 20 -0.31 0.24
-20 5 -4 0.07 0.12
5 4 20 -0.09 0.41
-20 4 5 -0.18 0.2
5 4 20 -0.24 0.29
-4 5 -20 0.12 0.21
-5 4 20 -0.2 0.2
4 5 20 -0.27 0.18
5 -4 20 -0.03 0.24
-5 -20 4 -0.2 0.26
5 -20 -4 -0.17 0.23
-4 -5 20 0.04 0.27
-4 -20 -5 -0.2 0.22
-5 4 20 -0.21 0.22
4 5 20 -0.1 0.2
4 20 -5 -0.45 0.27
-20 -4 5 -0.2 0.15
-20 -4 5 -0.45 0.19
-5 20 -4 -0.22 0.27
-20 5 4 -0.3 0.18
4 -20 5 0.02 0.25
-4 20 5 -0.58 0.27
-20 -5 -4 -0.23 0.12
-20 -5 -4 -0.14 0.09
-20 5 4 -0.04 0.18
5 20 4 -0.3 0.27
-5 5 -20 0.2 0.21
-5 -5 20 0 0.27
-20 -5 5 -0.26 0.19
-20 5 -5 0 0.14
-5 5 20 0.24 0.23
5 20 -5 -0.12 0.29
5 20 5 -0.41 0.27
5 -5 20 -0.1 0.24
5 5 -20 0.24 0.23
5 5 20 0.4 0.21
5 5 20 0.02 0.18
-5 5 20 -0.02 0.18
-5 -20 5 -0.45 0.24
-20 5 -5 0.13 0.11
-20 5 5 0.16 0.19
-20 5 5 -0.2 0.18
-5 -20 -5 0.02 0.21
5 -20 -5 -0.13 0.2
5 -20 5 -0.18 0.23
-5 20 -5 -0.07 0.28
-5 20 5 0.32 0.28
-20 6 0 -0.19 0.18
-6 0 20 -0.34 0.24
-6 20 0 -0.09 0.3
0 -20 6 0 0.28
6 0 20 -0.22 0.23
6 0 20 -0.04 0.17
-6 -20 0 -0.21 0.25
0 -20 -6 -0.13 0.24
-20 -6 0 -0.24 0.19
0 20 -6 -0.96 0.27
0 20 6 -0.32 0.29
-6 0 20 -0.09 0.2
0 6 -20 0.06 0.24
0 6 20 0.07 0.22
0 6 20 0.16 0.19
-20 0 6 0.11 0.22
-20 0 6 0.16 0.17
0 -6 20 0.3 0.28
6 -20 0 -0.34 0.23
6 20 0 -0.13 0.28
-20 6 -1 0.15 0.18
1 20 6 0.24 0.28
-20 1 6 -0.02 0.22
-1 6 20 -0.24 0.22
6 1 20 0.14 0.21
-20 -6 1 -0.08 0.2
1 6 -20 0.12 0.24
-6 20 1 0.34 0.29
-6 -1 20 0.24 0.18
1 -20 -6 -0.05 0.24
-6 -20 -1 -0.19 0.24
6 20 -1 -0.14 0.3
-20 1 6 0.08 0.17
-6 -1 20 0 0.26
6 1 20 0.16 0.17
-1 -20 6 -0.21 0.25
-1 20 -6 0.22 0.28
-1 6 20 -0.14 0.2
6 -20 1 -0.08 0.23
1 -6 20 -0.79 0.25
-6 20 -1 -0.23 0.28
-1 6 -20 0.12 0.23
1 6 20 -0.17 0.19
6 -20 -1 0.03 0.24
-20 6 1 -0.11 0.18
1 -20 6 -0.33 0.26
-1 -6 20 -0.09 0.28
-6 1 20 0.04 0.23
-6 1 20 0.01 0.2
1 6 20 0.08 0.21
1 20 -6 -0.4 0.28
-20 6 1 -0.33 0.18
-1 20 6 -0.25 0.29
-20 -1 6 0.06 0.22
-20 -1 6 0.05 0.17
-6 -20 1 -0.2 0.26
6 -1 20 -0.15 0.16
6 20 1 -0.16 0.28
-1 -20 -6 -0.02 0.25
-20 -6 -1 -0.13 0.19
6 -1 20 0.14 0.21
6 20 -2 0.57 0.29
-20 2 6 0.9 0.22
-20 2 6 0.94 0.2
6 2 20 0.82 0.19
-6 -2 20 0.88 0.29
2 6 -20 0.94 0.25
6 -20 2 0.66 0.27
-6 -20 -2 0.72 0.27
-2 20 -6 0.47 0.3
-6 -2 20 0.65 0.19
-6 20 2 0.6 0.3
6 2 20 0.91 0.24
-2 6 20 0.95 0.22
-2 6 20 0.66 0.24
-20 6 -2 0.85 0.18
2 -20 -6 1.08 0.24
-2 -20 6 0.86 0.27
-20 -6 2 0.92 0.22
2 -6 20 1.22 0.28
2 20 6 0.78 0.31
6 -2 20 0.98 0.25
6 -20 -2 0.76 0.24
-20 -2 6 1.16 0.18
-2 6 -20 0.78 0.24
-20 -6 -2 0.87 0.2
-6 2 20 0.87 0.21
-20 6 2 1.33 0.2
-20 6 2 0.82 0.2
-6 -20 2 0.68 0.26
2 -20 6 0.98 0.26
-2 -20 -6 0.5 0.25
-2 -6 20 0.66 0.28
-2 20 6 1.01 0.3
-6 2 20 0.85 0.27
-20 -2 6 0.83 0.23
2 6 20 0.8 0.22
2 6 20 0.93 0.21
-6 20 -2 0.97 0.31
2 20 -6 0.75 0.3
6 -2 20 0.69 0.18
6 20 2 0.27 0.29
-3 6 20 0.06 0.21
3 -20 -6 0.21 0.2
-20 6 -3 0.04 0.16
6 3 20 0.05 0.21
-6 -20 -3 -0.06 0.25
-20 3 6 0.12 0.18
-3 -20 6 -0.17 0.25
-3 20 -6 -0.05 0.28
6 3 20 0.31 0.17
-6 20 3 0.2 0.27
3 6 -20 0.14 0.24
-20 3 6 -0.21 0.2
3 -6 20 0.25 0.26
-3 6 20 0.01 0.22
-6 -3 20 0 0.27
-20 -6 3 -0.06 0.2
6 -20 3 0 0.25
6 20 -3 -0.07 0.27
3 20 6 0.19 0.28
-3 -20 -6 0.21 0.23
-3 6 -20 -0.25 0.22
-20 6 3 0.2 0.19
-20 -6 -3 -0.11 0.16
-6 3 20 0.05 0.23
3 -20 6 -0.01 0.25
3 20 -6 0.15 0.29
-3 20 6 -0.04 0.28
6 -3 20 -0.37 0.24
6 -3 20 -0.03 0.15
3 6 20 0.27 0.21
-3 -6 20 -0.03 0.26
-20 -3 6 0.09 0.15
-6 -20 3 -0.06 0.27
-6 20 -3 0.06 0.28
3 6 20 0.02 0.18
6 -20 -3 0.3 0.23
-20 -3 6 -0.12 0.21
-20 6 3 -0.13 0.18
6 20 3 -0.1 0.28
-6 3 20 0.35 0.19
4 -20 -6 -0.21 0.2
6 4 20 0.2 0.2
-20 4 6 0.06 0.18
-6 -20 -4 -0.29 0.23
4 20 6 0.09 0.27
6 -20 4 -0.29 0.24
6 20 -4 0.43 0.29
-20 -6 4 -0.43 0.19
4 6 -20 -0.05 0.25
-4 6 20 -0.09 0.21
-4 -20 6 0.28 0.26
-4 20 -6 -0.16 0.28
-6 -4 20 -0.23 0.24
-20 4 6 -0.24 0.19
-6 20 4 0.18 0.28
4 -6 20 0.24 0.25
-20 6 -4 -0.07 0.16
6 4 20 -0.09 0.17
-4 6 20 -0.08 0.19
-4 -6 20 0.02 0.26
-4 20 6 -0.15 0.27
4 20 -6 0.03 0.29
-4 6 -20 -0.05 0.22
-20 6 4 0.12 0.19
6 -4 20 0.43 0.34
4 6 20 -0.03 0.19
-20 -6 -4 -0.1 0.13
-20 -4 6 0 0.15
6 20 4 -0.19 0.28
-4 -20 -6 -0.28 0.22
4 -20 6 0.35 0.25
-20 -4 6 -0.04 0.2
-6 4 20 0.36 0.23
-6 20 -4 0.28 0.27
6 -20 -4 -0.3 0.2
4 6 20 0.06 0.19
-6 -20 4 -0.02 0.26
-20 6 4 0.01 0.18
-6 4 20 -0.1 0.2
-6 -5 20 -0.01 0.26
-20 -6 5 -0.6 0.21
-20 5 6 -0.22 0.18
-6 5 -20 -0.17 0.29
-5 20 -6 -0.16 0.28
5 6 -20 0.16 0.23
5 -20 -6 -0.06 0.21
-5 6 20 -0.21 0.2
5 -6 20 -0.03 0.24
5 20 6 -0.05 0.29
-6 -20 -5 -0.16 0.21
6 -20 5 -0.1 0.25
-6 20 5 -0.2 0.28
-20 5 6 -0.02 0.19
6 20 -5 -0.31 0.27
-5 6 20 -0.2 0.19
-20 6 -5 -0.23 0.16
6 5 20 -0.1 0.22
-5 -20 6 -0.28 0.24
6 5 20 -0.19 0.27
5 6 20 0.1 0.19
6 -5 20 -0.33 0.26
6 20 5 -0.43 0.27
-20 6 5 0.31 0.19
5 20 -6 -0.4 0.28
-6 20 -5 0.39 0.29
6 5 -20 -0.08 0.22
5 -20 6 -0.18 0.24
-20 -5 6 0.37 0.21
-6 5 20 -0.24 0.22
-6 5 20 -0.2 0.18
-20 6 5 0.17 0.19
-5 20 6 -0.28 0.27
-5 -20 -6 -0.03 0.22
-5 6 -20 0.16 0.22
5 6 20 0 0.19
6 -20 -5 -0.06 0.21
-6 -20 5 -0.13 0.25
-20 -6 -5 -0.08 0.1
-5 -6 20 -0.12 0.25
6 -20 -6 0.1 0.21
-20 6 6 0.16 0.36
6 -6 20 -0.03 0.24
-20 -6 6 -0.1 0.21
6 -20 6 -0.2 0.25
-6 6 -20 0.27 0.21
6 6 -20 -0.06 0.24
6 6 20 0.22 0.21
-6 20 -6 -0.51 0.28
-6 20 6 0.26 0.27
6 6 20 0.16 0.22
6 20 -6 -0.72 0.27
6 20 6 -0.35 0.27
-20 6 6 0.14 0.2
-6 -20 -6 0.03 0.22
-6 -20 6 0.07 0.25
-6 6 20 -0.51 0.21
-6 6 20 -0.21 0.2
-20 6 -6 -0.04 0.15
-6 -6 20 -0.41 0.25
7 -20 0 0.62 0.23
-20 0 7 0.4 0.18
20 7 0 0.88 0.2
0 -7 20 0.28 0.28
-7 -20 0 0.61 0.27
-20 0 7 0.52 0.22
-7 0 20 0.58 0.2
0 -20 7 0.66 0.27
0 20 -7 0.44 0.29
0 20 7 0.73 0.3
7 0 20 0.26 0.22
7 0 20 0.52 0.17
0 -20 -7 0.45 0.22
7 20 0 0.26 0.29
0 7 -20 0.49 0.25
-20 -7 0 0.76 0.22
-20 7 0 0.57 0.2
0 7 20 0.8 0.21
0 7 20 0.48 0.22
-7 20 0 0.61 0.3
-7 0 20 0.58 0.25
1 -7 20 0.13 0.26
7 -20 1 -0.07 0.23
7 20 -1 0.28 0.29
-1 -20 7 0.23 0.25
-1 20 -7 -0.12 0.26
1 7 -20 0.09 0.23
-7 -1 20 0.08 0.17
20 7 1 -0.09 0.17
-1 7 20 -0.05 0.21
-1 7 20 -0.06 0.2
7 1 20 0.2 0.22
-7 20 1 -0.29 0.28
-20 1 7 0.02 0.22
-20 1 7 -0.07 0.18
-7 -20 -1 0 0.24
-7 -1 20 0.1 0.26
1 20 7 -0.08 0.27
-20 7 -1 0.16 0.18
1 -20 -7 0.12 0.21
7 1 20 0.01 0.16
-20 -7 1 -0.04 0.21
7 -1 20 0.28 0.22
-1 -20 -7 -0.06 0.21
7 -20 -1 -0.06 0.23
-20 -1 7 -0.07 0.22
1 -20 7 0.12 0.27
1 20 -7 0.64 0.29
-1 -7 20 -0.08 0.27
-1 7 -20 0.26 0.24
-20 7 1 0.07 0.17
1 7 20 0.02 0.21
-7 20 -1 0.16 0.28
-1 20 7 0.19 0.29
7 -1 20 -0.13 0.16
-20 -7 -1 0.01 0.2
-7 -20 1 0.14 0.24
-7 1 20 -0.05 0.23
-7 1 20 0 0.2
-20 -1 7 -0.05 0.17
7 20 1 0.05 0.28
20 7 -1 0.14 0.19
1 7 20 0.11 0.2
-2 7 20 -0.17 0.21
2 20 7 -0.32 0.28
-2 -20 7 0.01 0.25
-7 20 2 -0.3 0.28
-7 -2 20 -0.21 0.27
-7 -2 20 -0.21 0.18
7 2 20 -0.15 0.15
-20 2 7 0.08 0.2
2 -7 20 -0.36 0.25
-7 -20 -2 -0.08 0.24
7 2 20 -0.1 0.2
-20 7 -2 -0.16 0.17
7 -20 2 0 0.23
7 20 -2 0.2 0.27
-2 20 -7 0.48 0.27
20 7 2 -0.16 0.15
-20 2 7 -0.13 0.18
-2 7 20 -0.03 0.19
2 7 -20 0.05 0.24
-20 -7 2 -0.26 0.22
2 -20 -7 -0.07 0.21
2 7 20 -0.16 0.2
7 20 2 -0.23 0.28
20 7 -2 -0.2 0.2
-2 7 -20 0.41 0.24
-20 -2 7 -0.2 0.2
-20 -2 7 -0.12 0.16
2 -20 7 -0.01 0.25
7 -2 20 -0.05 0.21
-2 20 7 -0.34 0.28
-20 7 2 0.14 0.18
-2 -20 -7 -0.11 0.22
7 -20 -2 -0.27 0.22
-7 20 -2 0.01 0.28
-2 -7 20 -0.22 0.25
7 -2 20 -0.14 0.15
-7 -20 2 -0.06 0.25
2 20 -7 0.45 0.3
-20 -7 -2 0 0.23
-7 2 20 -0.28 0.18
2 7 20 0.05 0.21
-7 2 20 -0.04 0.24
-7 -3 20 -0.2 0.26
-3 7 20 0.32 0.21
7 -20 3 0.08 0.23
3 -7 20 -0.13 0.25
3 7 -20 -0.12 0.23
-20 7 -3 0.2 0.17
20 7 3 0.03 0.13
7 3 20 0.32 0.2
-3 7 20 -0.17 0.2
7 20 -3 -0.07 0.28
3 -20 -7 -0.1 0.21
-20 3 7 0.13 0.21
-20 3 7 -0.25 0.17
-7 -20 -3 -0.26 0.24
3 20 7 -0.04 0.28
-7 20 3 -0.16 0.26
-3 -20 7 -0.03 0.25
7 3 20 -0.01 0.17
-3 20 -7 0.21 0.26
-20 -7 3 0.35 0.2
3 7 20 -0.15 0.2
-7 3 20 0.04 0.19
-20 -3 7 -0.44 0.2
3 7 20 -0.1 0.21
20 7 -3 0.01 0.21
-7 3 20 0.03 0.22
-3 7 -20 -0.32 0.22
3 -20 7 -0.02 0.26
7 20 3 0.04 0.26
-20 -3 7 -0.27 0.15
7 -3 20 0.15 0.23
7 -3 20 -0.05 0.15
-20 -7 -3 0.08 0.17
-20 7 3 -0.14 0.18
-3 -20 -7 0.1 0.23
-7 -20 3 0.24 0.26
-7 20 -3 -0.08 0.28
-3 20 7 -0.07 0.27
-3 -7 20 0.18 0.25
3 20 -7 -0.35 0.29
7 -20 -3 -0.18 0.2
-4 20 -7 0.41 0.28
-20 7 -4 -0.05 0.17
7 20 -4 -0.24 0.29
-4 7 20 -0.33 0.22
-7 -20 -4 -0.22 0.24
7 -20 4 -0.25 0.24
-20 -7 4 0 0.22
4 20 7 0.22 0.29
4 -20 -7 0.1 0.21
-7 20 4 0.15 0.28
7 4 20 -0.12 0.16
-4 -20 7 -0.22 0.25
-7 -4 20 -0.12 0.25
7 4 20 -0.06 0.19
4 -7 20 -0.39 0.24
4 7 -20 0.14 0.23
-4 7 20 -0.19 0.19
-7 4 20 -0.14 0.24
-7 20 -4 0.01 0.27
-20 -4 7 -0.33 0.15
7 -4 20 0.29 0.24
7 -20 -4 -0.11 0.21
-20 -4 7 0.1 0.23
-4 -7 20 -0.35 0.28
20 7 -4 0.12 0.21
-4 -20 -7 0.1 0.23
-20 7 4 0.01 0.18
4 20 -7 -0.16 0.28
-4 7 -20 0.28 0.23
-20 -7 -4 -0.27 0.14
-7 4 20 -0.3 0.2
-7 -20 4 -0.46 0.25
4 -20 7 0.19 0.23
4 7 20 0.24 0.19
-4 20 7 -0.05 0.26
4 7 20 0.25 0.2
7 20 4 0.09 0.27
-5 7 20 0.15 0.2
5 -20 -7 0.03 0.19
-20 7 -5 -0.08 0.18
-5 -20 7 0.22 0.26
-20 5 7 0.04 0.19
-7 -5 20 0.15 0.27
-7 -20 -5 -0.08 0.22
7 20 -5 -0.04 0.28
-7 5 -20 -0.36 0.19
-5 20 -7 0.22 0.28
-20 5 7 -0.54 0.19
5 -7 20 -0.01 0.26
5 7 -20 -0.24 0.23
-7 20 5 -0.26 0.28
-20 -7 5 0.22 0.22
7 5 20 0.18 0.2
5 20 7 -0.05 0.28
-5 7 20 -0.08 0.21
7 5 20 0.17 0.19
7 -20 5 -0.27 0.25
5 7 20 -0.2 0.18
5 -20 7 0 0.25
-7 5 20 -0.15 0.18
7 -5 20 0.18 0.26
7 5 -20 -0.26 0.24
-7 5 20 0.04 0.21
-7 -20 5 -0.18 0.26
20 7 -5 -0.12 0.21
7 20 5 -0.32 0.28
-20 7 5 0.07 0.2
-20 7 5 -0.03 0.18
-20 -7 -5 -0.05 0.12
-5 -7 20 0.27 0.26
-5 -20 -7 -0.05 0.21
5 7 20 -0.01 0.2
5 20 -7 -0.02 0.29
7 -20 -5 -0.05 0.2
-5 7 -20 -0.13 0.22
-5 20 7 0.14 0.26
-7 20 -5 -0.35 0.28
-20 -7 6 0.37 0.28
6 -20 -7 -0.1 0.19
6 -7 20 -0.14 0.24
-6 20 -7 -0.36 0.29
-7 6 -20 -0.21 0.43
-7 20 6 0.14 0.27
-20 7 -6 -0.12 0.17
-7 -20 -6 -0.12 0.23
6 20 7 0.11 0.3
-7 -6 20 0.09 0.27
-20 6 7 -0.22 0.17
7 20 -6 0.05 0.3
-6 7 20 -0.5 0.2
6 7 -20 -0.12 0.24
-6 -20 7 0.27 0.25
7 6 20 -0.01 0.19
-20 6 7 -0.09 0.2
-6 7 20 -0.24 0.19
7 6 20 -0.16 0.19
7 -20 6 0.05 0.26
-20 6 -7 -0.12 0.13
7 -20 -6 -0.09 0.19
-20 -6 7 -0.08 0.22
-6 -20 -7 0.15 0.22
-7 6 20 0.21 0.22
7 6 -20 -0.05 0.22
7 -6 20 -0.03 0.27
-20 7 6 0.06 0.2
-20 7 6 -0.3 0.19
6 7 20 -0.15 0.19
-7 20 -6 -0.17 0.27
-6 -7 20 -0.08 0.28
-7 6 20 0.06 0.2
20 7 -6 -0.4 0.34
6 7 20 0.04 0.2
7 20 6 -0.09 0.28
6 20 -7 0.38 0.31
-6 7 -20 -0.3 0.21
-7 -20 6 -0.25 0.27
-6 20 7 -0.78 0.26
6 -20 7 0.12 0.26
7 20 -7 -0.39 0.29
7 -7 20 -0.02 0.25
7 -20 7 0.21 0.26
-7 7 20 -0.14 0.24
-7 7 20 -0.14 0.19
7 20 7 0.02 0.29
-7 -20 -7 -0.02 0.22
7 -20 -7 -0.07 0.21
-20 -7 7 -0.28 0.25
-20 7 -7 0.17 0.17
-20 7 7 0.18 0.2
-20 7 7 0.11 0.19
-7 -20 7 0.29 0.27
20 7 -7 -0.4 0.22
-7 20 -7 -0.26 0.29
-7 20 7 -0.28 0.28
7 7 20 0.17 0.23
-7 -7 20 -0.24 0.28
7 7 -20 -0.31 0.24
7 7 20 -0.02 0.26
-7 7 -20 -0.3 0.21
-8 20 0 0.1 0.28
0 20 8 -0.68 0.29
-20 -8 0 0.2 0.22
-20 8 0 -0.11 0.18
8 0 20 0.09 0.16
20 -8 0 0.07 0.14
8 -20 0 -0.09 0.23
8 0 20 -0.05 0.2
0 -8 20 -0.1 0.27
0 8 -20 0.09 0.25
20 8 0 -0.09 0.18
0 8 20 0.04 0.22
0 -20 -8 0.19 0.21
-20 0 8 -0.17 0.21
-20 0 8 0.01 0.22
-8 -20 0 -0.25 0.25
0 20 -8 0.05 0.3
-8 0 20 -0.16 0.18
-8 0 20 -0.21 0.24
0 8 20 -0.03 0.23
0 -20 8 0.05 0.27
8 20 0 -0.23 0.29
8 1 20 -0.41 0.21
-20 1 8 0.02 0.22
-8 -1 20 -0.17 0.18
-8 -20 -1 -0.25 0.25
-1 -20 8 -0.17 0.25
-1 20 -8 0.29 0.3
-8 20 1 0.1 0.28
1 -20 -8 -0.09 0.2
1 8 -20 0.09 0.24
-1 8 20 -0.17 0.23
-20 1 8 -0.13 0.19
8 -20 1 0.06 0.24
8 20 -1 0 0.27
-8 -1 20 -0.3 0.25
-20 -8 1 -0.25 0.22
20 8 1 0.02 0.18
20 -8 -1 0.01 0.15
8 1 20 0 0.16
1 -8 20 -0.05 0.26
1 20 8 -0.03 0.28
-20 8 -1 -0.1 0.18
-1 8 20 -0.12 0.21
-20 -1 8 -0.14 0.21
8 20 1 -0.05 0.29
-20 -8 -1 -0.09 0.21
-20 -1 8 0.05 0.23
-8 1 20 -0.26 0.24
-1 8 -20 0.05 0.24
-1 -20 -8 0.15 0.21
-1 -8 20 -0.16 0.27
1 -20 8 -0.32 0.26
1 8 20 0.15 0.21
-1 20 8 0.15 0.29
-8 1 20 0.1 0.2
8 -1 20 -0.03 0.21
8 -20 -1 -0.05 0.22
20 8 -1 -0.22 0.19
-8 -20 1 -0.06 0.24
-8 20 -1 0.06 0.28
1 8 20 -0.16 0.22
-20 8 1 -0.11 0.19
20 -8 1 -0.13 0.13
1 20 -8 -0.17 0.28
8 -1 20 -0.07 0.15
2 20 8 -0.05 0.28
-20 2 8 0.21 0.18
-2 8 20 0 0.2
20 8 2 -0.15 0.16
-8 -20 -2 -0.05 0.25
-2 -20 8 -0.28 0.25
-2 20 -8 -0.28 0.29
8 2 20 0.11 0.16
8 2 20 -0.01 0.2
2 -20 -8 -0.03 0.2
-8 20 2 -0.3 0.27
-20 2 8 -0.23 0.19
-20 8 -2 0.01 0.18
-8 -2 20 -0.09 0.27
8 -20 2 -0.1 0.22
8 20 -2 -0.03 0.29
-20 -8 2 -0.26 0.21
-8 -2 20 0.03 0.18
2 -8 20 -0.06 0.25
20 -8 -2 0.05 0.15
-2 8 20 0 0.22
2 8 -20 0.2 0.24
-20 -8 -2 0.22 0.2
-2 -8 20 -0.09 0.27
-2 -20 -8 -0.21 0.2
-20 -2 8 -0.08 0.17
-8 2 20 0.05 0.19
8 -2 20 -0.13 0.23
-20 8 2 -0.4 0.17
20 8 -2 -0.12 0.2
8 20 2 -0.05 0.26
2 -20 8 0.04 0.25
-2 20 8 -0.45 0.26
-8 -20 2 0 0.26
-8 2 20 -0.09 0.23
2 8 20 0.14 0.22
20 -8 2 -0.06 0.13
2 8 20 -0.14 0.19
8 -2 20 -0.05 0.14
8 -20 -2 -0.26 0.22
-20 -2 8 -0.14 0.2
-8 20 -2 0.44 0.28
2 20 -8 -0.39 0.27
-2 8 -20 -0.28 0.23
8 3 20 -0.3 0.2
-3 8 20 -0.22 0.2
-20 3 8 0.18 0.19
-20 -8 3 0.1 0.23
-3 -20 8 0.1 0.25
-3 20 -8 -0.1 0.28
-8 -3 20 -0.33 0.17
3 -20 -8 -0.14 0.19
8 3 20 0.13 0.16
20 8 3 0.2 0.15
3 20 8 -0.02 0.27
-8 20 3 -0.12 0.27
3 -8 20 0.29 0.27
-8 -3 20 0.08 0.26
8 -20 3 0.32 0.24
3 8 -20 -0.32 0.25
-20 3 8 -0.1 0.2
8 20 -3 0.17 0.29
-20 8 -3 0.37 0.19
-8 -20 -3 0.04 0.24
-3 8 20 -0.23 0.21
20 8 -3 -0.08 0.21
-3 8 -20 0.1 0.23
-20 8 3 0.09 0.19
-20 -3 8 -0.05 0.16
20 -8 3 0.02 0.12
8 -3 20 -0.02 0.22
8 -3 20 -0.05 0.14
3 -20 8 -0.24 0.27
-3 -20 -8 0.12 0.21
-8 -20 3 0.32 0.26
8 20 3 0.38 0.28
3 8 20 -0.12 0.2
3 20 -8 0.24 0.28
-3 20 8 0.11 0.26
-3 -8 20 -0.11 0.26
3 8 20 -0.07 0.19
-8 3 20 -0.22 0.18
8 -20 -3 -0.08 0.21
-8 3 20 0.19 0.23
-20 -3 8 -0.24 0.21
-20 -8 -3 -0.15 0.17
-8 20 -3 0.38 0.28
8 -20 4 0.14 0.24
-4 8 20 0.09 0.2
-4 8 20 -0.16 0.2
-20 -8 4 0.15 0.22
-20 4 8 -0.04 0.21
4 8 -20 -0.14 0.24
8 4 20 0.05 0.17
-8 -4 20 0.11 0.25
-4 -20 8 -0.06 0.25
-20 4 8 0.01 0.17
-8 -20 -4 0.13 0.24
4 -20 -8 -0.02 0.19
8 20 -4 0.47 0.29
-8 20 4 -0.02 0.28
20 8 4 -0.12 0.14
-20 8 -4 0.13 0.18
8 4 20 -0.2 0.2
4 20 8 -0.02 0.28
4 -8 20 0.08 0.25
-4 20 -8 0.01 0.28
-4 8 -20 0.12 0.23
-8 20 -4 -0.13 0.28
-20 -4 8 -0.23 0.21
-20 -8 -4 -0.19 0.15
-20 8 4 0.43 0.19
-8 -20 4 -0.11 0.26
8 -4 20 -0.21 0.23
-4 -20 -8 -0.05 0.22
-4 -8 20 0.26 0.27
20 8 -4 0.02 0.21
-4 20 8 -0.31 0.27
-8 4 20 0.15 0.2
4 -20 8 0.09 0.24
20 -8 4 0.18 0.12
-20 -4 8 -0.01 0.16
4 8 20 -0.04 0.21
4 8 20 -0.04 0.19
8 20 4 -0.41 0.27
-8 4 20 0.14 0.23
4 20 -8 0.06 0.31
8 -20 -4 0.28 0.2
5 -20 -8 0.14 0.21
-8 5 -20 0.02 0.2
-20 -8 5 0.14 0.23
-20 5 8 -0.13 0.18
8 5 20 0.13 0.19
8 -20 5 -0.18 0.25
-8 20 5 0.41 0.28
5 -8 20 -0.34 0.25
-5 20 -8 0.39 0.28
-8 -5 20 -0.29 0.27
-5 8 20 -0.04 0.23
-20 5 8 0.55 0.21
20 8 5 0.16 0.13
-8 -20 -5 -0.06 0.22
8 5 20 -0.17 0.18
8 20 -5 0.06 0.3
5 8 -20 0.06 0.25
-5 -20 8 -0.12 0.24
-5 8 20 0 0.2
5 20 8 -0.12 0.29
-20 8 -5 0.01 0.19
20 -8 5 -0.11 0.12
8 20 5 0.35 0.29
-20 -5 8 -0.17 0.21
-5 -8 20 -0.31 0.26
-20 -8 -5 0.14 0.14
5 -20 8 -0.47 0.24
5 20 -8 0.21 0.3
8 5 -20 -0.25 0.23
8 -5 20 -0.12 0.24
-8 -20 5 0.25 0.26
8 -20 -5 -0.26 0.21
-8 20 -5 0.06 0.28
-5 8 -20 0.16 0.23
-5 20 8 0.27 0.28
5 8 20 0.35 0.21
-8 5 20 0.3 0.24
-8 5 20 -0.05 0.19
-5 -20 -8 -0.08 0.22
5 8 20 0.08 0.2
20 8 -5 -0.04 0.22
-20 6 8 0.37 0.19
8 6 20 0.39 0.21
8 6 20 0.16 0.19
-20 8 -6 0.38 0.19
-8 -20 -6 0.31 0.23
6 -20 -8 0.11 0.2
-8 6 -20 0.35 0.21
-8 20 6 -0.02 0.27
-6 8 20 0.19 0.2
20 8 6 -0.05 0.12
6 -8 20 -0.03 0.26
6 8 -20 0.16 0.24
-6 20 -8 0.32 0.28
6 20 8 0.22 0.28
8 -20 6 0.4 0.27
8 20 -6 0.06 0.3
-8 -6 20 0.16 0.27
-20 6 8 0.05 0.2
-6 8 20 -0.11 0.21
-20 -8 6 -0.24 0.24
-6 -20 8 0.27 0.27
-20 8 6 0.46 0.2
-6 8 -20 0.38 0.24
-20 -6 8 0.11 0.25
8 -20 -6 -0.1 0.2
-6 -8 20 -0.05 0.27
20 -8 6 0.21 0.12
8 20 6 0.35 0.29
6 8 20 0.05 0.21
-6 20 8 -0.03 0.29
-6 -20 -8 0.19 0.23
6 -20 8 0.08 0.26
6 8 20 0.29 0.21
-20 -8 -6 0.05 0.12
20 8 -6 -0.2 0.24
8 6 -20 0.02 0.23
6 20 -8 0.42 0.29
-8 6 20 0.18 0.2
8 -6 20 -0.04 0.27
-8 20 -6 0.05 0.29
-8 6 20 -0.16 0.21
-8 -20 6 -0.03 0.27
8 7 20 0.36 0.2
-20 7 8 -0.09 0.2
-20 7 8 0.13 0.19
-8 -20 -7 0.22 0.23
8 7 20 -0.11 0.19
-7 20 -8 0.33 0.29
-20 8 -7 0.18 0.18
7 8 -20 -0.01 0.24
-8 20 7 0.03 0.28
20 7 -8 0.37 0.24
-20 -8 7 0.5 0.25
7 20 8 0.01 0.31
7 -8 20 -0.1 0.26
-7 8 20 0.09 0.21
-8 -7 20 -0.03 0.28
-8 7 -20 0.16 0.27
8 -20 7 0.09 0.26
8 20 -7 -0.19 0.29
7 -20 -8 -0.24 0.2
-7 -20 8 0.07 0.28
-7 8 20 0.39 0.22
-7 20 8 -0.49 0.28
-7 -20 -8 0.2 0.24
-20 -8 -7 0.07 0.1
-20 8 7 -0.18 0.2
-8 7 20 0.15 0.23
-20 7 -8 0.09 0.14
-7 8 -20 0.24 0.23
8 7 -20 -0.09 0.26
-8 20 -7 0.33 0.3
-8 7 20 -0.17 0.2
-20 -7 8 -0.24 0.24
-7 -8 20 0.07 0.27
20 -8 7 0.1 0.11
7 20 -8 -0.17 0.3
8 -20 -7 -0.07 0.2
-8 -20 7 0.07 0.26
7 -20 8 0.01 0.26
8 20 7 -0.2 0.29
7 8 20 0.2 0.21
7 8 20 0 0.2
20 8 -7 0.1 0.25
8 -7 20 0.12 0.26
-9 -20 0 0.09 0.25
20 -9 0 0.03 0.15
9 0 20 0.3 0.15
0 -9 20 0.16 0.27
-20 0 9 0.26 0.21
-9 0 20 -0.14 0.25
-9 20 0 0.15 0.27
0 20 9 0.07 0.27
0 -20 9 0.26 0.27
-20 -9 0 -0.03 0.22
0 9 20 0.03 0.21
-9 0 20 0.17 0.18
0 -20 -9 0.28 0.22
0 9 -20 -0.05 0.24
20 9 0 0.07 0.2
9 -20 0 0.04 0.23
9 20 0 -0.29 0.27
9 0 20 0.25 0.21
-20 0 9 0.03 0.17
-20 9 0 0.28 0.2
0 20 -9 -0.62 0.27
-20 1 9 0 0.17
20 -9 -1 0.03 0.15
-20 9 -1 0.47 0.21
9 1 20 0.35 0.21
1 20 9 -0.14 0.28
-20 -9 1 -0.24 0.22
9 -20 1 0.12 0.23
1 9 -20 -0.04 0.27
9 1 20 -0.21 0.15
-1 20 -9 -0.15 0.28
-9 20 1 -0.08 0.29
-9 -1 20 -0.4 0.18
1 -20 -9 -0.28 0.21
-9 -20 -1 -0.2 0.25
-9 -1 20 0.05 0.25
-1 9 20 0.11 0.21
-20 1 9 0.2 0.21
-1 -20 9 0.2 0.27
1 -9 20 -0.01 0.28
20 9 1 0.07 0.19
9 20 -1 -0.02 0.28
-20 -1 9 0.16 0.22
-1 20 9 -0.07 0.27
9 -1 20 0.11 0.22
20 9 -1 -0.24 0.21
-9 1 20 -0.05 0.24
-20 -1 9 0.08 0.17
9 -20 -1 0 0.22
9 -1 20 -0.18 0.15
-20 -9 -1 -0.06 0.21
9 20 1 0.1 0.3
-20 9 1 0.24 0.19
-1 -20 -9 0.01 0.21
1 -20 9 -0.13 0.25
-9 -20 1 0 0.25
-9 20 -1 -0.31 0.29
1 9 20 0.1 0.21
-1 -9 20 0.19 0.27
-1 9 -20 0.28 0.25
-9 1 20 -0.03 0.19
1 20 -9 0.23 0.29
20 -9 1 0.01 0.14
20 9 2 0.14 0.18
-20 -9 2 -0.18 0.24
9 20 -2 0.06 0.3
2 20 9 -0.03 0.29
-9 20 2 -0.3 0.26
9 2 20 0.03 0.2
20 -9 -2 -0.18 0.15
9 2 20 -0.1 0.17
9 -20 2 0.14 0.22
-9 -2 20 0.11 0.17
-20 2 9 -0.09 0.19
-20 2 9 -0.04 0.17
-9 -20 -2 -0.11 0.25
-2 20 -9 -0.41 0.28
2 9 -20 -0.14 0.25
2 -20 -9 0.08 0.21
-20 9 -2 -0.24 0.19
-2 9 20 0.12 0.21
-9 -2 20 -0.12 0.27
2 -9 20 -0.05 0.26
-2 -20 9 0.58 0.26
9 -2 20 0.21 0.15
-2 9 -20 0.08 0.24
-9 20 -2 -0.12 0.28
-2 -9 20 -0.13 0.27
20 9 -2 -0.22 0.22
9 20 2 -0.41 0.27
-20 -2 9 0.44 0.23
2 9 20 -0.16 0.2
9 -20 -2 0.05 0.21
-20 -9 -2 -0.27 0.19
20 -9 2 0.06 0.14
-2 -20 -9 0.23 0.21
-9 -20 2 0.09 0.25
-20 9 2 -0.03 0.19
-20 -2 9 -0.15 0.16
2 20 -9 -0.09 0.3
-9 2 20 0.05 0.2
-2 20 9 0.16 0.28
-9 2 20 0.37 0.24
2 -20 9 0.01 0.25
9 -2 20 -0.05 0.22
3 -20 -9 -0.13 0.2
9 3 20 0.09 0.19
-20 -9 3 -0.38 0.23
-20 3 9 -0.44 0.18
-9 -20 -3 -0.06 0.24
-20 9 -3 -0.19 0.19
3 20 9 -0.12 0.28
-3 -20 9 -0.01 0.25
-20 3 9 -0.15 0.2
3 -9 20 -0.07 0.26
-9 20 3 -0.11 0.28
9 3 20 -0.26 0.16
20 -9 -3 0.08 0.16
-3 9 20 -0.18 0.21
9 -20 3 0.03 0.23
3 9 -20 -0.07 0.25
-9 -3 20 0.02 0.19
-9 -3 20 -0.14 0.26
20 9 3 0.1 0.17
-3 20 -9 0.16 0.29
9 20 -3 -0.1 0.29
-20 -3 9 -0.22 0.16
-3 -9 20 -0.11 0.26
-9 3 20 -0.19 0.19
-9 -20 3 -0.14 0.26
3 20 -9 -0.21 0.29
-3 -20 -9 0.05 0.2
-20 9 3 -0.05 0.18
9 -3 20 -0.08 0.22
-3 20 9 -0.23 0.27
3 9 20 0.12 0.2
3 -20 9 0.17 0.26
9 -20 -3 0.03 0.21
-20 -9 -3 0 0.19
20 9 -3 -0.07 0.22
9 -3 20 0.02 0.15
-9 3 20 0.03 0.24
-20 -3 9 -0.01 0.22
-9 20 -3 -0.19 0.26
20 -9 3 -0.17 0.14
-3 9 -20 0.3 0.25
9 20 3 -0.32 0.27
9 -20 4 -0.05 0.24
9 4 20 0.11 0.19
-9 20 4 0.15 0.29
-20 4 9 -0.08 0.18
-9 -20 -4 0.07 0.25
4 -9 20 0.03 0.26
4 9 -20 0.19 0.25
-4 -20 9 0.05 0.26
-20 9 -4 0.03 0.2
9 4 20 -0.19 0.18
20 9 4 0.03 0.16
-4 9 20 0.05 0.23
-9 -4 20 0.08 0.26
-4 20 -9 0.21 0.3
4 -20 -9 0.18 0.2
4 20 9 0.29 0.29
9 20 -4 -0.08 0.29
-20 4 9 -0.23 0.21
-20 -9 4 0.09 0.25
20 -9 4 -0.21 0.13
-9 4 20 0.35 0.21
-4 -20 -9 -0.07 0.21
-20 9 4 -0.3 0.22
-4 -9 20 -0.08 0.26
-9 4 20 0.12 0.24
4 -20 9 -0.21 0.26
-20 -9 -4 -0.32 0.17
4 9 20 0.24 0.21
-20 -4 9 -0.34 0.22
-4 9 -20 -0.36 0.24
20 9 -4 0.03 0.22
-9 -20 4 -0.23 0.26
-9 20 -4 -0.08 0.29
-4 20 9 0.54 0.29
9 -20 -4 -0.24 0.22
9 -4 20 0.2 0.23
9 20 4 0.34 0.29
-20 -4 9 0.29 0.17
4 20 -9 0.01 0.29
-5 9 20 -0.27 0.21
-20 9 -5 0.28 0.21
5 9 -20 0.2 0.26
-20 5 9 0.11 0.18
20 -9 -5 -0.01 0.17
9 5 20 0.07 0.2
-5 -20 9 -0.42 0.27
20 9 5 -0.27 0.15
-20 5 9 -0.23 0.2
5 -20 -9 -0.13 0.2
-9 20 5 -0.22 0.28
9 20 -5 -0.32 0.3
-5 20 -9 0.22 0.3
-5 9 20 -0.11 0.24
-9 -5 20 -0.53 0.28
5 -9 20 -0.02 0.27
5 20 9 0.22 0.29
9 -20 5 -0.03 0.26
9 5 20 -0.01 0.18
-9 -20 -5 -0.36 0.24
-20 -5 9 0.13 0.24
5 9 20 -0.21 0.21
5 20 -9 -0.24 0.27
9 20 5 0.4 0.29
-9 5 20 0.39 0.19
-5 -20 -9 -0.02 0.21
-5 -9 20 0.18 0.29
-20 9 5 -0.32 0.19
9 -20 -5 -0.11 0.2
9 -5 20 0.24 0.24
-9 -20 5 0.13 0.27
-20 -9 -5 -0.45 0.15
-5 9 -20 0.13 0.24
9 5 -20 -0.26 0.25
-9 20 -5 -0.2 0.27
-9 5 20 -0.05 0.22
5 -20 9 -0.26 0.25
20 -9 5 -0.17 0.12
-5 20 9 -0.63 0.27
0 -20 -10 -0.1 0.21
-20 10 0 0.21 0.21
-20 0 10 -0.3 0.16
0 -10 20 -0.37 0.25
0 10 -20 0.1 0.23
0 10 20 -0.07 0.21
-10 20 0 0.04 0.28
-20 0 10 0.29 0.22
10 0 20 0.13 0.2
-10 -20 0 0.26 0.26
-10 0 20 0 0.28
0 20 -10 0.32 0.31
-20 -10 0 -0.15 0.22
0 -20 10 0.01 0.26
10 0 20 -0.13 0.15
20 -10 0 0.08 0.16
20 10 0 -0.14 0.21
10 -20 0 0.51 0.24
10 20 0 -0.39 0.27
-10 0 20 0.11 0.19
0 20 10 0.28 0.27
-10 20 1 -0.16 0.27
-20 1 10 0.05 0.17
10 1 20 -0.03 0.19
-1 10 20 0.09 0.21
1 -10 20 -0.4 0.26
1 10 -20 0.17 0.25
-1 20 -10 -0.14 0.3
10 -20 1 -0.04 0.23
10 1 20 -0.07 0.15
-1 -20 10 -0.14 0.26
10 20 -1 0.04 0.29
-20 -10 1 0.38 0.24
-10 -20 -1 0.26 0.25
20 10 1 -0.13 0.2
20 -10 -1 -0.18 0.16
-20 1 10 0.16 0.23
1 -20 -10 -0.15 0.19
-20 10 -1 -0.09 0.21
-10 -1 20 -0.02 0.18
-10 -1 20 0.11 0.23
1 20 10 -0.21 0.28
10 -1 20 -0.42 0.21
-10 -20 1 -0.26 0.24
-1 -20 -10 0.14 0.21
20 -10 1 -0.15 0.15
10 -20 -1 -0.06 0.22
1 -20 10 -0.18 0.25
10 -1 20 -0.39 0.15
-1 20 10 -0.02 0.27
1 10 20 -0.17 0.21
-10 1 20 -0.08 0.23
-10 1 20 0.1 0.2
-10 20 -1 -0.23 0.28
-20 -1 10 -0.36 0.17
-1 -10 20 -0.58 0.27
-20 10 1 0.23 0.21
-20 -10 -1 -0.19 0.22
-20 -1 10 -0.12 0.22
10 20 1 -0.01 0.28
1 20 -10 -0.31 0.29
-1 10 -20 -0.1 0.24
20 10 -1 0.33 0.21
-20 2 10 0.27 0.17
-2 10 20 -0.3 0.21
-10 -20 -2 -0.09 0.24
2 -10 20 0 0.27
-2 -20 10 0.07 0.27
-2 20 -10 -0.18 0.28
2 10 -20 -0.2 0.25
10 -20 2 0.35 0.23
10 20 -2 0.19 0.29
-10 -2 20 -0.11 0.18
10 2 20 -0.03 0.16
20 -10 -2 0.12 0.16
-20 10 -2 -0.08 0.22
-20 2 10 0.08 0.2
-10 20 2 -0.13 0.28
20 10 2 -0.01 0.19
2 -20 -10 0.11 0.19
-20 -10 2 0.1 0.23
2 20 10 -0.05 0.29
-10 -2 20 -0.42 0.26
10 2 20 -0.05 0.2
10 -20 -2 -0.35 0.21
10 -2 20 -0.16 0.22
10 -2 20 0.27 0.15
2 10 20 -0.12 0.22
-20 -2 10 -0.26 0.16
-20 10 2 -0.27 0.21
20 -10 2 0.19 0.15
2 20 -10 -0.9 0.28
-2 -10 20 -0.31 0.28
-2 20 10 0.17 0.28
-20 -10 -2 -0.43 0.2
-2 -20 -10 0.01 0.21
-20 -2 10 -0.15 0.22
-10 -20 2 -0.24 0.27
10 20 2 0.35 0.3
-10 2 20 -0.2 0.26
-10 2 20 -0.12 0.19
20 10 -2 -0.12 0.22
2 -20 10 -0.1 0.27
-10 20 -2 -0.53 0.27
-2 10 -20 -0.15 0.24
3 -10 20 -0.45 0.26
-20 3 10 -0.08 0.18
-3 10 20 0.14 0.21
20 -10 -3 -0.11 0.26
-10 -20 -3 -0.23 0.24
-3 -20 10 0.28 0.28
3 10 -20 0.1 0.26
20 10 3 -0.18 0.19
-20 10 -3 0.15 0.21
10 3 20 0.05 0.17
-3 20 -10 -0.27 0.28
10 20 -3 -0.07 0.29
-20 3 10 0.02 0.2
10 -20 3 -0.25 0.23
3 -20 -10 0.08 0.2
-20 -10 3 0.44 0.26
3 20 10 -0.01 0.29
-10 -3 20 0.39 0.28
-10 -3 20 -0.03 0.18
10 3 20 0.07 0.19
-10 20 3 -0.01 0.28
-3 10 -20 -0.1 0.23
-20 -3 10 0.01 0.16
-10 3 20 0.04 0.2
-3 20 10 0.22 0.27
-3 -20 -10 0.15 0.21
20 10 -3 0.27 0.23
-20 -3 10 0.02 0.22
-10 3 20 0.12 0.23
-10 -20 3 -0.06 0.26
-10 20 -3 0.15 0.29
10 -20 -3 -0.14 0.21
10 -3 20 0.06 0.22
-20 -10 -3 0.11 0.2
-20 10 3 -0.23 0.24
10 -3 20 -0.03 0.15
3 10 20 -0.21 0.21
10 20 3 0.06 0.29
-3 -10 20 0.25 0.29
3 -20 10 -0.07 0.26
20 -10 3 -0.37 0.14
3 20 -10 0.54 0.29
-21 0 0 -0.19 0.21
-21 0 0 -0.06 0.18
0 -21 0 0.03 0.31
0 0 21 -0.28 0.3
0 0 21 -0.14 0.22
0 21 0 -0.05 0.37
-21 0 -1 1.02 0.23
-21 0 -1 1.23 0.2
-21 0 1 0.99 0.26
-21 0 1 1.17 0.21
-1 -21 0 1.32 0.33
-1 21 0 1.03 0.37
0 -1 21 1.5 0.33
0 -1 21 1.75 0.25
0 1 21 1.06 0.31
0 1 21 1.56 0.26
1 -21 0 1.38 0.35
1 21 0 0.91 0.36
0 21 1 1.78 0.37
1 0 21 0.91 0.31
-21 -1 0 1.06 0.25
-21 -1 0 1.24 0.2
-21 1 0 0.98 0.23
-21 1 0 1.31 0.22
-1 0 21 1.09 0.31
-1 0 21 1.18 0.27
0 -21 -1 1.24 0.33
0 -21 1 1.5 0.33
0 21 -1 1.36 0.37
1 0 21 0.96 0.25
1 21 -1 0.57 0.34
1 1 21 0 0.23
-21 -1 -1 -0.16 0.21
-21 -1 -1 -0.11 0.16
-21 -1 1 -0.04 0.23
-21 -1 1 -0.02 0.19
-21 1 -1 0.12 0.2
-21 1 -1 -0.39 0.18
-21 1 1 -0.34 0.21
-21 1 1 0.03 0.19
-1 -21 -1 0.12 0.31
-1 -21 1 -0.16 0.31
-1 -1 21 0.01 0.28
-1 -1 21 -0.07 0.22
-1 1 21 -0.01 0.27
-1 1 21 0.12 0.24
-1 21 -1 -0.09 0.35
-1 21 1 -0.03 0.34
1 -21 -1 -0.39 0.29
1 -21 1 -0.11 0.29
1 -1 21 0.01 0.29
1 -1 21 0 0.21
1 1 21 -0.21 0.28
1 21 1 0.43 0.36
-21 0 -2 7.41 0.67
-21 0 -2 7.06 0.71
2 0 21 8.62 0.77
-21 2 0 7.84 0.72
-2 0 21 8.7 0.9
-2 0 21 8.02 0.76
0 -21 -2 8.57 0.86
-21 0 2 7.73 0.79
-21 0 2 8.55 0.73
-2 -21 0 6.66 0.92
0 -2 21 7.21 0.89
0 -2 21 8.52 0.77
0 2 21 7.18 0.86
0 2 21 8.06 0.78
2 -21 0 7 0.88
2 21 0 8.89 0.91
-21 2 0 7.12 0.76
0 -21 2 7.49 0.88
0 21 -2 6.68 0.94
0 21 2 5.66 0.93
2 0 21 7.26 0.9
-21 -2 0 7.88 0.78
-21 -2 0 7.08 0.69
2 21 -1 0.88 0.35
-1 2 21 0.6 0.3
1 21 2 0.78 0.35
2 -21 1 0.84 0.33
-1 2 21 1.45 0.24
-21 -1 -2 0.85 0.17
-21 1 2 0.86 0.21
-2 -21 -1 1.21 0.33
-1 21 -2 0.15 0.34
1 -2 21 1.34 0.32
1 -2 21 0.73 0.22
-2 -1 21 1.31 0.33
-2 -1 21 1.9 0.24
-21 -1 -2 0.76 0.2
2 1 21 1.09 0.23
-21 1 2 0.74 0.25
-21 -2 1 0.47 0.25
-21 -2 1 0.9 0.19
-21 2 -1 0.73 0.21
-21 2 -1 0.96 0.2
-2 21 1 0.51 0.35
2 1 21 1.17 0.3
1 -21 -2 0.95 0.31
-1 -21 2 0.99 0.33
-2 1 21 0.49 0.3
-2 1 21 1.11 0.25
-1 -21 -2 0.64 0.3
1 2 21 0.54 0.24
-21 1 -2 0.63 0.19
-1 21 2 0.74 0.37
-21 -2 -1 0.94 0.22
1 -21 2 0.78 0.32
1 21 -2 0.84 0.36
2 -21 -1 1.05 0.3
2 -1 21 1.22 0.31
2 -1 21 0.8 0.22
-21 2 1 0.96 0.21
1 2 21 0.71 0.28
-21 1 -2 0.85 0.18
-21 -2 -1 0.95 0.18
-21 -1 2 1.28 0.25
-21 -1 2 1.14 0.2
-2 -21 1 0.72 0.32
-2 21 -1 0.97 0.37
-21 2 1 0.67 0.22
-1 -2 21 0.92 0.31
-1 -2 21 0.97 0.24
2 21 1 0.54 0.35
-2 -2 21 -0.52 0.32
-2 -2 21 -0.22 0.22
-2 2 21 -0.9 0.28
-2 2 21 -0.45 0.21
-2 21 -2 -0.1 0.32
-2 21 2 -0.57 0.36
2 -21 -2 -0.45 0.26
2 -21 2 -0.04 0.28
2 -2 21 -0.42 0.28
2 -2 21 -0.11 0.2
2 2 21 -0.3 0.26
2 2 21 -0.27 0.21
2 21 -2 -0.61 0.3
2 21 2 -0.1 0.34
-21 2 2 -0.54 0.22
-21 2 2 -0.61 0.19
-2 -21 -2 -0.44 0.28
-2 -21 2 -0.49 0.29
-21 2 -2 -0.34 0.17
-21 2 -2 -0.41 0.16
-21 -2 2 -0.61 0.22
-21 -2 2 -0.38 0.17
-21 -2 -2 -0.33 0.18
-21 -2 -2 -0.5 0.14
-21 0 3 0.48 0.2
-3 -21 0 0.14 0.3
-21 0 -3 0.6 0.15
-21 0 3 0.25 0.24
-21 3 0 0.82 0.21
-21 3 0 0.47 0.2
-3 0 21 0.61 0.29
-3 0 21 0.59 0.22
0 -21 -3 0.55 0.27
0 -21 3 0.28 0.3
0 21 -3 0.52 0.32
0 21 3 0.53 0.36
3 0 21 0.23 0.27
3 0 21 0.39 0.22
-21 -3 0 0.68 0.17
0 3 21 0.62 0.23
3 -21 0 0.68 0.29
3 21 0 0.26 0.33
-3 21 0 0.98 0.34
0 -3 21 1.24 0.3
0 3 21 0.42 0.27
-21 -3 0 0.64 0.23
1 21 3 -0.24 0.32
3 21 -1 0.4 0.32
3 1 21 0.06 0.2
-3 -1 21 -0.24 0.21
-1 -21 3 -0.12 0.27
-21 -3 1 0 0.23
-21 -3 1 -0.29 0.16
1 -3 21 -0.07 0.27
-21 1 3 0.06 0.22
-21 1 3 -0.1 0.19
-3 -21 -1 -0.28 0.29
3 -21 1 -0.19 0.28
-1 3 21 -0.07 0.22
-3 21 1 0.18 0.34
-1 21 -3 -0.21 0.33
-1 3 21 -0.36 0.26
1 -21 -3 -0.21 0.26
-3 -1 21 0.19 0.27
-21 3 -1 0.05 0.19
3 1 21 -0.05 0.25
-21 3 -1 0 0.18
3 -1 21 0.17 0.27
3 -1 21 -0.21 0.19
1 -21 3 -0.35 0.3
-21 -1 3 -0.29 0.23
-1 -3 21 0.12 0.28
-3 -21 1 -0.08 0.3
-3 21 -1 -0.1 0.33
1 3 21 -0.05 0.25
1 21 -3 0.26 0.32
-3 1 21 -0.26 0.27
-3 1 21 0.06 0.22
-1 -21 -3 0.03 0.27
-21 3 1 -0.1 0.2
-21 3 1 0.09 0.19
-1 21 3 0.42 0.34
-21 -3 -1 0.4 0.2
3 21 1 0.12 0.33
1 3 21 -0.14 0.22
-21 -3 -1 -0.29 0.15
-21 -1 3 -0.15 0.18
-21 1 -3 0.14 0.15
-21 1 -3 0.02 0.14
3 -21 -1 0.13 0.28
2 21 3 0.82 0.34
-2 -21 3 0.65 0.29
2 -21 -3 0.9 0.28
-3 -21 -2 0.88 0.29
-21 2 3 0.93 0.24
3 -21 2 0.78 0.31
3 21 -2 1.46 0.35
-3 21 2 1.07 0.35
-21 -2 -3 0.97 0.15
-21 2 3 0.69 0.21
-3 -2 21 1.18 0.24
-2 3 21 0.51 0.27
-2 3 21 0.5 0.22
2 -3 21 1.01 0.3
-21 -3 2 0.91 0.24
-21 -3 2 0.88 0.19
-21 3 -2 0.72 0.18
-21 3 -2 0.84 0.19
-2 21 -3 0.95 0.34
3 2 21 0.83 0.28
-3 -2 21 0.5 0.3
3 2 21 0.68 0.22
-21 -3 -2 0.66 0.15
-3 2 21 0.49 0.22
-2 -21 -3 0.89 0.29
-21 3 2 0.86 0.21
3 21 2 0.74 0.33
-2 21 3 0.67 0.33
-3 21 -2 0.9 0.34
-21 -2 3 0.61 0.25
-21 -2 3 0.81 0.18
-21 2 -3 0.9 0.16
-21 2 -3 0.75 0.16
3 -2 21 0.89 0.21
2 3 21 0.58 0.27
2 3 21 0.99 0.23
-21 -3 -2 0.71 0.19
-2 -3 21 0.98 0.31
3 -2 21 0.98 0.29
2 21 -3 1.1 0.35
3 -21 -2 0.46 0.26
2 -21 3 0.81 0.29
-3 -21 2 0.7 0.29
-3 2 21 0.77 0.31
-21 3 2 0.87 0.23
-21 -3 -3 0 0.11
3 21 3 0.08 0.3
-21 -3 -3 -0.24 0.14
-3 3 21 0.06 0.21
-3 -3 21 0.17 0.27
-3 3 21 -0.11 0.24
-21 3 -3 -0.11 0.15
-21 3 -3 -0.22 0.15
-21 3 3 0.11 0.22
-21 3 3 -0.21 0.19
-3 -21 -3 0.13 0.26
-3 -21 3 -0.14 0.26
3 3 21 0.28 0.26
3 3 21 -0.04 0.19
3 21 -3 0.03 0.31
3 -3 21 -0.14 0.28
3 -3 21 -0.09 0.19
-21 -3 3 0.11 0.23
-21 -3 3 -0.22 0.17
-3 21 -3 -0.22 0.3
3 -21 -3 -0.19 0.27
3 -21 3 -0.07 0.28
-3 21 3 -0.06 0.3
-4 0 21 -0.36 0.19
0 -21 4 -0.16 0.27
0 21 -4 -0.16 0.33
0 21 4 0.43 0.33
0 -21 -4 -0.28 0.27
-21 4 0 -0.37 0.19
-4 0 21 -0.32 0.27
-21 -4 0 -0.42 0.2
4 0 21 0.28 0.26
0 4 21 -0.25 0.2
4 -21 0 -0.57 0.27
4 21 0 -0.16 0.32
-4 21 0 -0.46 0.3
-21 -4 0 -0.19 0.15
4 0 21 -0.3 0.2
0 -4 21 -0.1 0.29
-21 4 0 -0.15 0.19
-21 0 4 -0.24 0.23
-21 0 4 -0.38 0.18
-4 -21 0 -0.52 0.27
0 4 21 -0.18 0.26
-4 -1 21 0.89 0.22
-21 -4 1 0.46 0.23
-1 4 21 0.5 0.21
1 -4 21 0.26 0.29
1 21 4 0.45 0.34
-21 1 4 0.56 0.21
-1 -21 4 0.46 0.28
4 -21 1 0.79 0.3
-4 -1 21 0.69 0.28
-1 4 21 0.6 0.29
-1 21 -4 0.2 0.32
-4 21 1 1.04 0.35
-21 -4 1 0.4 0.16
-21 4 -1 0.56 0.19
-21 4 -1 0.66 0.19
4 21 -1 0.33 0.32
1 -21 -4 0.41 0.29
-21 1 4 0.9 0.24
-4 -21 -1 0.67 0.29
4 1 21 0.83 0.26
4 1 21 0.72 0.2
-21 4 1 0.73 0.21
1 4 21 0.26 0.2
-21 4 1 0.31 0.2
-21 -4 -1 0.79 0.2
-21 -4 -1 0.54 0.15
4 -1 21 0.63 0.2
4 -1 21 0.69 0.27
1 -21 4 0.66 0.29
1 21 -4 0.12 0.33
-4 1 21 0.51 0.27
-1 -4 21 0.86 0.29
-21 -1 4 0.53 0.19
4 -21 -1 0.75 0.26
-1 -21 -4 0.48 0.28
4 21 1 0.02 0.31
-4 1 21 0.64 0.22
-1 21 4 0.24 0.31
-21 -1 4 0.54 0.24
-4 -21 1 0.35 0.29
-4 21 -1 0.48 0.33
1 4 21 0.58 0.26
2 -4 21 4.89 0.72
-4 -2 21 2.82 0.48
-2 4 21 3.94 0.56
-21 4 -2 3.96 0.53
-4 21 2 5.19 0.74
-4 -2 21 4.52 0.56
-21 -4 2 4.78 0.61
4 2 21 4.59 0.66
4 2 21 4.39 0.56
-4 -21 -2 5.94 0.68
-21 4 -2 4.39 0.52
-21 2 4 5.78 0.62
2 -21 -4 5.48 0.66
-21 2 4 4.77 0.53
-21 -4 2 5.14 0.49
-21 4 2 5.3 0.59
4 -2 21 5.11 0.69
-21 -2 4 4.56 0.63
-4 2 21 4.4 0.57
-21 -4 -2 4.33 0.44
-21 -2 4 4.63 0.52
2 4 21 5.22 0.58
-2 -21 -4 4.94 0.64
4 -2 21 4.4 0.53
-21 4 2 4.44 0.56
4 -21 -2 4.59 0.65
-21 -4 -2 4.24 0.52
-2 -4 21 4.74 0.72
4 -21 3 0.12 0.27
3 21 4 0.24 0.31
-3 21 -4 -0.04 0.3
-4 -3 21 0.11 0.29
-21 3 4 0.38 0.22
-3 4 21 0.33 0.22
3 -4 21 -0.28 0.25
-21 3 4 0.13 0.2
-3 -21 4 -0.02 0.27
-4 -21 -3 0.57 0.26
-4 21 3 0.4 0.32
4 3 21 0.58 0.24
4 3 21 0.25 0.18
-21 4 -3 0.02 0.15
3 -21 -4 0.06 0.24
-21 -4 3 0.24 0.16
-21 4 -3 0.35 0.15
-21 -4 3 0.17 0.22
4 21 -3 -0.07 0.31
-3 4 21 0.18 0.26
-3 21 4 0 0.3
-3 -21 -4 -0.14 0.24
-21 4 3 -0.16 0.19
3 -21 4 0.07 0.25
3 4 21 -0.07 0.19
4 -21 -3 0.18 0.24
3 21 -4 0.13 0.3
-21 4 3 0.02 0.21
4 21 3 0.35 0.32
-21 -3 4 0.46 0.22
-21 -3 4 0.05 0.17
-4 -21 3 -0.06 0.25
-21 -4 -3 0.07 0.11
-4 21 -3 0.46 0.31
3 4 21 -0.2 0.23
-4 3 21 0.28 0.25
4 -3 21 0.16 0.25
4 -3 21 0.39 0.18
-21 -4 -3 0.21 0.15
-3 -4 21 0.27 0.28
-4 3 21 0.24 0.21
4 4 21 -0.03 0.22
4 21 -4 -0.05 0.29
4 21 4 0.1 0.29
-4 4 21 -0.12 0.21
-4 21 -4 0.13 0.3
-4 -21 4 -0.19 0.27
-21 -4 4 -0.1 0.15
-21 4 -4 -0.25 0.12
-4 4 21 -0.09 0.25
4 -4 21 -0.08 0.27
-21 -4 4 -0.22 0.22
4 -21 -4 -0.23 0.24
4 -21 4 -0.15 0.27
-21 4 -4 0.07 0.14
-21 4 4 0.05 0.21
4 4 21 -0.02 0.19
-4 -21 -4 -0.19 0.24
-21 4 4 -0.14 0.19
-4 -4 21 0.1 0.26
-4 21 4 -0.11 0.28
0 21 5 0.8 0.33
0 21 -5 0.78 0.32
-5 0 21 0.4 0.28
-5 21 0 0.53 0.31
0 -5 21 0.75 0.28
0 5 -21 0.83 0.26
0 5 21 0.7 0.24
5 0 21 0.15 0.26
5 0 21 0.62 0.2
-5 -21 0 0.64 0.27
-21 -5 0 0.54 0.15
0 5 21 0.52 0.21
5 -21 0 0.35 0.25
-21 0 5 0.93 0.25
-5 0 21 0.58 0.2
0 -21 -5 0.51 0.24
0 -21 5 0.59 0.26
5 21 0 0.36 0.3
-21 -5 0 0.64 0.22
-21 0 5 0.64 0.19
-21 5 0 0.88 0.19
-21 5 0 0.47 0.19
-5 21 1 0.04 0.31
-21 1 5 -0.1 0.19
-5 -21 -1 -0.44 0.27
-5 -1 21 -0.15 0.27
-1 5 21 -0.29 0.2
5 -21 1 0.03 0.25
-21 5 -1 -0.17 0.19
-21 1 5 -0.07 0.22
-1 5 21 -0.01 0.24
5 1 21 0.28 0.24
-21 -5 1 -0.21 0.2
-5 -1 21 -0.03 0.2
-21 5 -1 -0.19 0.17
1 5 -21 -0.28 0.23
5 21 -1 -0.27 0.3
-1 -21 5 0.02 0.28
-1 21 -5 -0.06 0.31
5 1 21 -0.15 0.18
1 -21 -5 -0.03 0.23
1 -5 21 0.2 0.28
-21 -5 1 -0.17 0.14
1 21 5 -0.21 0.31
1 21 -5 -0.08 0.29
5 -1 21 0.1 0.18
5 -21 -1 -0.4 0.26
-1 21 5 0.07 0.3
-21 -1 5 -0.05 0.22
1 -21 5 -0.27 0.26
-21 -5 -1 -0.13 0.2
-21 -5 -1 -0.09 0.13
5 21 1 0.42 0.31
5 -1 21 0.04 0.24
-5 1 21 0.02 0.24
-5 1 21 -0.21 0.2
-1 -21 -5 0.01 0.24
-21 -1 5 0.24 0.17
-21 5 1 0.07 0.18
-21 5 1 0.06 0.2
-5 -21 1 0.17 0.27
-5 21 -1 0.04 0.31
1 5 21 0.12 0.24
-1 -5 21 -0.25 0.26
-1 5 -21 0.06 0.24
1 5 21 -0.28 0.2
5 2 21 -0.27 0.19
-21 5 -2 0.1 0.17
5 -21 2 0.3 0.27
-2 21 -5 0.1 0.3
5 21 -2 -0.56 0.31
-21 2 5 -0.1 0.21
-21 2 5 -0.24 0.18
-5 -21 -2 0.07 0.27
-2 5 21 0.01 0.2
-5 -2 21 -0.09 0.19
-21 -5 2 -0.08 0.21
-21 -5 2 0.01 0.15
5 2 21 0.23 0.24
-21 5 -2 -0.1 0.17
2 -5 21 0.47 0.28
2 -21 -5 0.25 0.25
2 5 -21 0.21 0.24
2 21 5 -0.23 0.3
-5 21 2 0.09 0.3
-2 5 21 0.25 0.24
-5 -2 21 0.19 0.28
-2 -21 5 -0.08 0.28
-5 2 21 -0.07 0.28
-21 5 2 0.07 0.19
2 21 -5 -0.38 0.29
2 5 21 -0.33 0.22
5 -21 -2 -0.03 0.24
2 -21 5 -0.32 0.27
-21 -2 5 -0.16 0.22
-21 -5 -2 -0.1 0.12
5 -2 21 -0.16 0.17
2 5 21 0.25 0.2
-2 -21 -5 0.16 0.24
-2 5 -21 0.28 0.23
5 -2 21 0.01 0.25
-21 5 2 0.54 0.2
5 21 2 -0.13 0.3
-5 2 21 0.05 0.2
-21 -5 -2 -0.21 0.18
-2 21 5 0.27 0.29
-5 -21 2 0.21 0.27
-5 21 -2 -0.15 0.3
-21 -2 5 -0.14 0.18
-2 -5 21 0.15 0.27
5 -21 3 0.03 0.26
-5 -3 21 -0.03 0.18
5 21 -3 -0.19 0.28
-5 21 3 -0.1 0.29
-3 -21 5 0.19 0.29
-21 5 -3 -0.17 0.14
-21 5 -3 -0.18 0.16
3 -21 -5 0.15 0.24
3 21 5 0.21 0.32
-21 3 5 -0.22 0.21
-21 3 5 -0.05 0.19
5 3 21 -0.67 0.22
-3 21 -5 0.14 0.29
-5 -21 -3 0.16 0.25
5 3 21 -0.08 0.18
-21 -5 3 0.09 0.2
-5 -3 21 0.06 0.26
-3 5 21 0.12 0.23
-3 5 21 0.08 0.19
3 -5 21 0.01 0.25
3 5 -21 -0.12 0.24
3 5 21 -0.05 0.22
-21 5 3 -0.3 0.18
5 -21 -3 -0.11 0.23
-3 -21 -5 -0.2 0.22
-21 -5 -3 -0.1 0.15
-5 21 -3 -0.18 0.29
-21 -3 5 -0.11 0.23
5 21 3 -0.23 0.3
-3 -5 21 -0.47 0.27
-3 5 -21 -0.06 0.22
3 -21 5 -0.08 0.25
3 21 -5 0.24 0.28
3 5 21 0.05 0.19
-21 -5 -3 0.03 0.11
5 -3 21 -0.21 0.17
-3 21 5 0.05 0.29
-21 -3 5 -0.28 0.16
-5 -21 3 0.13 0.24
-5 3 21 0.14 0.23
-5 3 21 -0.21 0.2
5 -3 21 -0.13 0.24
-21 5 3 -0.11 0.19
-4 5 21 0.18 0.23
-21 -5 4 0.08 0.22
5 -21 4 0.21 0.25
-21 5 -4 -0.03 0.15
5 4 21 -0.09 0.21
-21 4 5 0.29 0.21
-5 -4 21 -0.38 0.24
4 5 -21 0.22 0.25
4 -21 -5 0.13 0.22
-21 4 5 -0.08 0.19
-5 -21 -4 -0.08 0.24
4 -5 21 0.19 0.26
5 21 -4 -0.27 0.28
-5 21 4 0.21 0.28
-21 5 -4 -0.03 0.13
-4 -21 5 0.27 0.28
4 21 5 0.1 0.29
5 4 21 -0.19 0.18
-4 5 21 0.1 0.19
-4 21 -5 0.31 0.28
-4 5 -21 0.01 0.22
-21 5 4 0.24 0.19
-21 5 4 0.36 0.2
5 -4 21 0.76 0.25
-4 21 5 0.06 0.28
-5 4 21 0.11 0.2
-5 -21 4 0.05 0.27
-5 21 -4 -0.47 0.28
-21 -5 -4 0.05 0.11
5 -21 -4 0.14 0.23
4 5 21 -0.36 0.21
-21 -5 -4 0.19 0.09
-4 -21 -5 -0.01 0.23
5 21 4 0.35 0.29
-5 4 21 -0.06 0.25
-21 -4 5 -0.17 0.21
4 5 21 0.14 0.19
-4 -5 21 -0.59 0.26
4 -21 5 -0.05 0.27
-21 -4 5 0.17 0.15
4 21 -5 -0.1 0.28
-21 5 5 0.28 0.2
-5 -21 -5 -0.27 0.23
-5 5 21 -0.11 0.18
-21 5 -5 -0.21 0.14
-5 21 -5 -0.44 0.27
5 21 5 0.16 0.28
-21 5 5 -0.34 0.18
-5 5 21 -0.25 0.21
-21 5 -5 -0.2 0.11
-21 -5 5 0.03 0.2
-5 -5 21 -0.08 0.28
5 -21 -5 -0.04 0.2
5 -21 5 0.09 0.24
5 21 -5 -0.05 0.3
5 5 -21 0.09 0.23
5 5 21 -0.09 0.22
5 5 21 -0.02 0.18
-5 21 5 -0.21 0.27
-5 5 -21 0.06 0.22
5 -5 21 -0.09 0.25
-5 -21 5 0.3 0.26
6 0 21 1.3 0.34
0 21 6 1.02 0.32
6 -21 0 0.72 0.26
-6 -21 0 0.61 0.28
0 6 -21 0.9 0.26
0 6 21 0.81 0.25
0 6 21 0.97 0.23
0 -6 21 0.81 0.3
6 21 0 1.41 0.32
0 21 -6 0.23 0.3
-6 21 0 0.39 0.32
6 0 21 0.6 0.24
-21 6 0 0.76 0.21
-6 0 21 0.84 0.29
-6 0 21 0.68 0.21
0 -21 -6 0.94 0.27
-21 0 6 1.55 0.26
-21 0 6 1.11 0.21
-21 6 0 0.87 0.2
-21 -6 0 1.02 0.23
0 -21 6 0.64 0.28
-6 21 1 0.18 0.29
-21 1 6 0.47 0.19
1 21 6 0.12 0.32
1 -6 21 0.48 0.28
-6 -1 21 0.15 0.19
-1 21 -6 0.14 0.29
-21 1 6 0.23 0.22
1 -21 -6 0.12 0.24
-6 -21 -1 0.66 0.27
1 6 -21 0.55 0.25
-21 -6 1 0.22 0.22
-21 6 -1 0.16 0.18
-21 6 -1 0.14 0.19
6 21 -1 0.03 0.31
-1 6 21 0.24 0.23
6 1 21 0.1 0.3
-1 6 21 0.1 0.21
6 1 21 0.26 0.22
-1 -21 6 0.13 0.29
6 -21 1 -0.43 0.25
-6 -1 21 0.18 0.27
-21 -1 6 0.24 0.23
1 6 21 0.16 0.2
-21 -6 -1 0.16 0.21
-6 -21 1 0.29 0.26
1 6 21 0.51 0.24
-21 6 1 0.02 0.19
-1 -6 21 0.46 0.29
6 21 1 -0.07 0.29
-1 21 6 0.12 0.29
-6 21 -1 -0.24 0.29
1 -21 6 0.56 0.25
1 21 -6 0.19 0.29
6 -21 -1 -0.19 0.24
6 -1 21 0.52 0.25
6 -1 21 0 0.19
-21 6 1 0.38 0.19
-1 -21 -6 0.21 0.25
-6 1 21 0.26 0.24
-21 -1 6 0.5 0.19
-1 6 -21 0.04 0.24
-6 1 21 0.42 0.21
-6 -2 21 -0.14 0.18
-2 6 21 -0.13 0.2
-21 6 -2 -0.17 0.17
-21 -6 2 0 0.2
6 2 21 -0.03 0.18
6 2 21 0.01 0.23
2 21 6 -0.07 0.3
2 6 -21 -0.04 0.25
2 -6 21 -0.1 0.26
6 21 -2 0.05 0.28
-21 2 6 0.05 0.22
-2 6 21 -0.11 0.22
-6 -2 21 -0.19 0.26
-21 2 6 0.04 0.19
2 -21 -6 -0.18 0.22
-21 6 -2 0.01 0.16
-6 -21 -2 -0.1 0.26
6 -21 2 -0.24 0.24
-2 -21 6 -0.24 0.28
-2 21 -6 -0.48 0.29
-6 21 2 0.12 0.31
2 6 21 0.14 0.2
6 -2 21 0.18 0.17
-6 -21 2 0.02 0.27
2 6 21 0.29 0.22
-21 6 2 -0.16 0.19
-2 -6 21 0.09 0.27
6 -2 21 -0.09 0.24
-21 -2 6 -0.01 0.23
-6 2 21 -0.13 0.27
-6 21 -2 -0.59 0.29
-2 -21 -6 -0.14 0.23
-2 6 -21 -0.26 0.23
-21 -2 6 -0.08 0.17
6 21 2 -0.14 0.28
6 -21 -2 -0.01 0.23
2 -21 6 -0.42 0.26
2 21 -6 0.15 0.29
-21 6 2 -0.17 0.19
-6 2 21 -0.14 0.2
-2 21 6 -0.26 0.28
-21 -6 -2 -0.32 0.18
-6 -3 21 0.52 0.2
3 -21 -6 0.05 0.2
6 3 21 0.36 0.18
-6 -21 -3 -0.28 0.24
-6 -3 21 -0.05 0.25
-3 -21 6 0.06 0.28
-3 21 -6 0 0.3
-3 6 21 0.13 0.21
3 -6 21 0.12 0.26
3 6 -21 0.13 0.24
-21 6 -3 0.09 0.15
3 21 6 0.05 0.29
-3 6 21 0.09 0.22
6 -21 3 0.26 0.24
6 21 -3 0.18 0.29
-21 3 6 0.01 0.18
6 3 21 0.26 0.22
-21 6 -3 0.07 0.17
-6 21 3 0.15 0.29
-21 -6 3 0.38 0.21
-21 3 6 0.18 0.22
3 6 21 -0.23 0.22
-3 -6 21 0.16 0.28
-21 6 3 0.31 0.2
-21 -3 6 0.11 0.16
-6 21 -3 -0.09 0.28
6 21 3 0.02 0.29
-3 21 6 0.23 0.29
-6 -21 3 0.32 0.25
-3 -21 -6 0.06 0.23
6 -3 21 0.18 0.16
3 21 -6 0.23 0.29
6 -21 -3 0.37 0.24
-21 -6 -3 0.02 0.16
-21 -6 -3 0.23 0.11
-6 3 21 0 0.23
6 -3 21 0.2 0.25
3 6 21 -0.06 0.19
-21 6 3 -0.17 0.2
-6 3 21 0.14 0.2
-3 6 -21 0.35 0.23
3 -21 6 -0.29 0.25
-21 -3 6 0.38 0.23
-4 -21 6 0.46 0.27
4 6 -21 0.21 0.23
6 4 21 0.06 0.21
6 4 21 0.03 0.18
6 -21 4 0.05 0.25
-21 4 6 -0.23 0.19
4 21 6 -0.26 0.29
-6 21 4 -0.12 0.26
4 -21 -6 0.27 0.2
-4 6 21 0.15 0.22
-4 6 21 -0.13 0.19
4 -6 21 0.1 0.26
-21 4 6 0.05 0.21
-6 -21 -4 0.05 0.23
6 21 -4 0.52 0.3
-21 6 -4 0.19 0.13
-21 -6 4 -0.05 0.21
-4 21 -6 0.78 0.31
-6 -4 21 -0.19 0.26
-21 6 -4 -0.06 0.16
6 21 4 -0.12 0.29
-6 21 -4 -0.44 0.27
-21 6 4 -0.05 0.19
-4 6 -21 0.09 0.22
-21 -4 6 0.16 0.21
4 21 -6 -0.1 0.3
4 6 21 0.04 0.21
-4 -6 21 0.01 0.26
4 6 21 -0.4 0.19
6 -21 -4 -0.05 0.2
-21 6 4 0.17 0.19
4 -21 6 -0.13 0.26
-6 4 21 0 0.25
-21 -6 -4 0.08 0.1
-4 -21 -6 0.12 0.23
-6 -21 4 -0.01 0.26
6 -4 21 -0.13 0.24
-21 -6 -4 -0.04 0.13
-4 21 6 0.27 0.29
-21 -4 6 -0.04 0.16
-6 4 21 0.09 0.2
-6 -5 21 0 0.27
-5 6 21 0.03 0.19
-21 -6 5 -0.22 0.21
-21 5 6 0.22 0.21
-5 -21 6 0.04 0.26
6 5 21 0.32 0.21
-21 6 -5 0.1 0.16
5 21 6 0.35 0.29
-5 21 -6 -0.14 0.29
6 21 -5 -0.2 0.29
6 5 21 -0.05 0.18
5 -6 21 -0.1 0.24
5 6 -21 0.07 0.23
6 -21 5 -0.28 0.25
-21 6 -5 -0.05 0.12
-6 -21 -5 0.08 0.22
-6 21 5 0.26 0.28
-5 6 21 -0.23 0.22
5 -21 -6 0.13 0.21
-21 6 5 -0.07 0.19
-5 21 6 -0.05 0.28
-6 5 21 0.09 0.18
6 21 5 0.04 0.29
-5 -6 21 -0.29 0.26
-6 -21 5 0.31 0.26
-5 -21 -6 -0.19 0.23
5 21 -6 -0.18 0.28
-5 6 -21 -0.25 0.21
5 6 21 -0.02 0.2
6 -21 -5 -0.22 0.21
-21 6 5 -0.15 0.18
-21 -5 6 0.17 0.22
5 -21 6 -0.17 0.24
-6 5 21 -0.24 0.22
5 6 21 0.06 0.2
6 -5 21 0.38 0.24
6 5 -21 -0.22 0.24
-6 21 -5 -0.52 0.27
-21 6 -6 0 0.14
-21 -6 6 0.55 0.41
6 -6 21 0.46 0.25
-6 6 21 0.07 0.2
-21 6 6 -0.3 0.19
-6 21 6 -0.56 0.28
6 6 -21 -0.06 0.21
6 6 21 -0.01 0.2
6 6 21 0.02 0.19
6 21 -6 -0.22 0.28
-21 6 -6 -0.04 0.11
-21 6 6 -0.01 0.2
-6 21 -6 -0.08 0.28
6 21 6 0.03 0.29
-6 6 21 -0.13 0.21
-6 -21 -6 0.01 0.23
-6 -21 6 -0.25 0.25
-6 -6 21 -0.26 0.25
6 -21 -6 -0.01 0.22
6 -21 6 -0.14 0.24
-6 6 -21 0.11 0.2
7 21 0 0.12 0.31
-7 0 21 0.57 0.28
-21 0 7 0.04 0.27
-21 -7 0 0.07 0.22
-21 7 0 0.07 0.2
0 -21 -7 0.02 0.21
0 -21 7 -0.23 0.27
0 21 -7 0.64 0.3
0 21 7 0.27 0.29
-21 0 7 -0.02 0.19
0 -7 21 0.09 0.28
-7 0 21 -0.23 0.2
7 0 21 0.12 0.24
7 -21 0 -0.13 0.24
0 7 -21 -0.21 0.24
-7 -21 0 0.23 0.27
-7 21 0 -0.28 0.31
0 7 21 0.19 0.23
0 7 21 0.03 0.2
7 0 21 -0.04 0.17
-1 7 21 -0.11 0.23
7 21 -1 0.04 0.3
-21 -7 1 0.16 0.22
-1 7 21 -0.11 0.2
1 -7 21 0.4 0.28
-7 21 1 -0.06 0.28
7 1 21 0.09 0.23
7 1 21 -0.01 0.18
7 -21 1 0.19 0.23
-1 21 -7 -0.15 0.28
-21 7 -1 -0.29 0.18
-21 1 7 -0.38 0.4
-21 1 7 -0.3 0.2
-7 -21 -1 -0.23 0.25
-7 -1 21 -0.16 0.18
1 -21 -7 -0.05 0.21
1 21 7 -0.3 0.3
-7 -1 21 0.11 0.27
-1 -21 7 -0.15 0.27
1 7 -21 0.37 0.24
1 21 -7 0.06 0.29
7 -1 21 -0.12 0.24
1 -21 7 -0.03 0.26
-21 -1 7 -0.54 0.27
-21 -1 7 -0.41 0.17
1 7 21 -0.1 0.22
1 7 21 0.1 0.2
7 -21 -1 -0.33 0.24
-7 1 21 0.05 0.24
-21 -7 -1 0.21 0.21
-7 21 -1 -0.38 0.28
7 21 1 0.38 0.29
-7 -21 1 -0.43 0.25
-21 7 1 -0.16 0.19
7 -1 21 -0.19 0.18
-1 7 -21 -0.29 0.23
-1 -21 -7 0.18 0.23
21 7 -1 -0.07 0.19
-7 1 21 -0.22 0.2
-1 -7 21 0.2 0.28
-1 21 7 -0.25 0.28
-2 -21 7 0.11 0.27
-2 21 -7 0.08 0.28
-7 21 2 0.11 0.3
7 21 -2 -0.01 0.28
-7 -2 21 -0.2 0.25
-7 -2 21 -0.09 0.18
-21 7 -2 -0.02 0.18
-2 7 21 -0.08 0.23
2 21 7 -0.24 0.29
2 7 -21 0.01 0.23
7 2 21 0.12 0.22
-2 7 21 0.14 0.2
2 -7 21 0 0.27
7 -21 2 -0.38 0.23
-7 -21 -2 0.01 0.25
2 -21 -7 0.3 0.21
-21 -7 2 0.13 0.23
7 2 21 0.07 0.17
2 21 -7 0.5 0.31
7 21 2 0.18 0.3
2 7 21 0.17 0.22
-7 2 21 0.29 0.27
-21 7 2 0.22 0.19
-21 -7 -2 -0.06 0.19
21 7 -2 0.01 0.2
-2 -7 21 -0.1 0.26
-2 21 7 -0.17 0.28
-7 21 -2 -0.19 0.3
2 -21 7 0.08 0.27
-7 2 21 0.14 0.19
-21 -2 7 0.02 0.26
-21 -2 7 -0.05 0.2
-2 7 -21 0.33 0.24
-7 -21 2 0.22 0.25
-2 -21 -7 0.32 0.23
7 -2 21 0.08 0.32
2 7 21 0.17 0.21
-21 7 2 0.33 0.2
7 -21 -2 0.3 0.23
7 -2 21 -0.11 0.25
3 -7 21 -0.07 0.25
7 21 -3 -0.33 0.29
7 3 21 -0.08 0.23
7 3 21 -0.17 0.22
-21 3 7 -0.04 0.23
-7 -3 21 0.16 0.19
3 7 -21 0.02 0.25
-3 21 -7 0.36 0.28
7 -21 3 -0.01 0.25
-7 21 3 -0.04 0.28
3 21 7 -0.6 0.29
-7 -21 -3 0.04 0.26
3 -21 -7 0.01 0.21
-3 7 21 -0.06 0.22
-3 7 21 -0.25 0.2
-3 -21 7 -0.02 0.27
-7 -3 21 -0.15 0.26
-21 -7 3 0.16 0.21
-21 3 7 -0.35 0.22
-21 7 -3 0.18 0.18
-7 3 21 0.01 0.2
7 -21 -3 0.01 0.22
-7 -21 3 -0.49 0.26
-7 21 -3 -0.17 0.28
-21 -3 7 -0.12 0.25
3 21 -7 0.28 0.3
3 7 21 0.07 0.21
-21 7 3 -0.18 0.2
-21 7 3 -0.05 0.2
-21 -7 -3 0.01 0.17
21 7 -3 -0.04 0.21
7 -3 21 0.08 0.32
7 -3 21 -0.02 0.27
3 -21 7 0.01 0.24
-3 -21 -7 -0.32 0.23
-3 21 7 -0.32 0.29
7 21 3 0.38 0.28
3 7 21 0.03 0.21
-7 3 21 0.48 0.24
-3 -7 21 -0.31 0.25
-3 7 -21 0.25 0.23
-21 -7 4 0.08 0.22
4 -7 21 0.18 0.26
-4 -21 7 0.23 0.27
-4 7 21 0.01 0.19
-21 4 7 -0.09 0.18
-7 -4 21 -0.24 0.27
4 -21 -7 0.01 0.22
7 -21 4 -0.38 0.25
7 21 -4 0.35 0.3
4 7 -21 0.16 0.24
-21 4 7 -0.07 0.21
4 21 7 0.16 0.28
-7 21 4 0.18 0.28
-7 -21 -4 0.16 0.24
-4 21 -7 0.37 0.27
-21 7 -4 -0.11 0.18
-4 7 21 0.1 0.21
-21 -4 7 0.14 0.21
-4 -7 21 0.18 0.28
-4 21 7 0 0.29
-21 -4 7 0.04 0.23
-7 -21 4 -0.3 0.25
-4 7 -21 0.23 0.22
-7 4 21 -0.49 0.24
7 21 4 0.15 0.29
4 7 21 0.27 0.2
-7 4 21 -0.17 0.19
4 7 21 0.19 0.2
-21 -7 -4 0 0.15
7 -21 -4 0.05 0.22
4 -21 7 0.61 0.26
-21 7 4 0.06 0.19
-21 7 4 -0.04 0.2
4 21 -7 0.15 0.29
21 7 -4 0.02 0.22
7 -4 21 0.2 0.24
-7 21 -4 0.05 0.28
-4 -21 -7 0 0.22
8 -21 0 -0.01 0.23
-8 0 21 0.04 0.26
-21 0 8 -0.13 0.22
-21 -8 0 -0.05 0.23
8 21 0 0.25 0.3
0 -21 8 0.41 0.27
-8 0 21 -0.05 0.19
8 0 21 0.16 0.17
0 8 21 -0.19 0.22
0 -21 -8 -0.14 0.22
-8 21 0 0.03 0.3
0 21 -8 -0.18 0.31
0 8 -21 0.18 0.26
21 8 0 0 0.2
-8 -21 0 -0.26 0.25
0 21 8 0.01 0.3
0 -8 21 0.82 0.29
-21 0 8 0.01 0.18
0 8 21 0.23 0.24
8 0 21 -0.14 0.21
-21 8 0 -0.1 0.19
-8 -1 21 -0.06 0.18
1 8 -21 0.08 0.26
-1 8 21 0.21 0.22
1 -21 -8 0.29 0.22
1 -8 21 0.43 0.28
-1 -21 8 -0.04 0.27
-21 1 8 0.33 0.18
1 21 8 0 0.29
8 1 21 0.09 0.17
-8 21 1 0.49 0.3
8 1 21 0.42 0.23
21 8 1 -0.12 0.18
-1 21 -8 0.06 0.31
-8 -1 21 0.12 0.27
-21 -8 1 0.09 0.23
-21 8 -1 -0.19 0.19
8 -21 1 0 0.24
8 21 -1 -0.27 0.29
-1 8 21 0.12 0.23
-21 1 8 0.05 0.23
-8 -21 -1 -0.23 0.26
-8 -21 1 0.23 0.27
-8 21 -1 -0.09 0.29
1 8 21 -0.32 0.22
21 8 -1 -0.11 0.21
8 -1 21 -0.06 0.23
8 -1 21 0.21 0.16
-1 -21 -8 -0.05 0.21
-1 21 8 -0.09 0.3
1 -21 8 0.17 0.27
-21 8 1 -0.13 0.2
-21 -8 -1 0.12 0.22
-8 1 21 0.2 0.21
8 -21 -1 -0.05 0.23
-1 -8 21 0.17 0.29
-8 1 21 0.21 0.26
-21 -1 8 0.11 0.17
1 21 -8 -0.66 0.29
1 8 21 0.13 0.21
-21 -1 8 -0.39 0.22
8 21 1 -0.06 0.3
-1 8 -21 -0.27 0.24
8 2 21 -0.06 0.17
2 -21 -8 0.4 0.22
-2 8 21 0.01 0.23
-2 8 21 -0.15 0.21
-8 -21 -2 0.28 0.25
-8 21 2 0.44 0.29
8 2 21 0.1 0.22
2 -8 21 0.13 0.27
2 21 8 0.14 0.29
-21 8 -2 -0.07 0.19
2 8 -21 -0.1 0.25
-8 -2 21 0.11 0.25
-8 -2 21 0.32 0.19
-21 -8 2 -0.02 0.23
-21 2 8 0.03 0.19
8 21 -2 0.3 0.3
21 8 2 0.32 0.17
-21 2 8 0.02 0.22
-2 -21 8 -0.05 0.26
-2 21 -8 -0.01 0.3
8 -21 2 0.2 0.24
-8 -21 2 0.39 0.25
-21 8 2 -0.34 0.18
-2 -8 21 0.08 0.28
21 8 -2 -0.17 0.22
-8 2 21 0.02 0.19
-2 21 8 0.25 0.3
-8 21 -2 0.33 0.3
-21 -2 8 0.18 0.18
2 8 21 0.12 0.21
8 21 2 -0.11 0.28
-2 8 -21 0.3 0.25
-21 -8 -2 0.11 0.2
-21 -2 8 -0.2 0.21
8 -2 21 0.21 0.16
8 -2 21 -0.02 0.25
2 8 21 0.02 0.22
-8 2 21 -0.03 0.25
2 -21 8 -0.02 0.28
8 -21 -2 0.02 0.24
2 21 -8 0.42 0.31
-2 -21 -8 0.12 0.21
-22 0 0 1.8 0.27
-22 0 0 1.56 0.23
0 -22 0 1.06 0.33
0 0 22 1.84 0.35
0 0 22 1.75 0.27
0 22 0 1.42 0.4
-22 0 -1 1.34 0.23
-22 0 -1 0.99 0.2
-22 0 1 1.19 0.26
-22 0 1 1.34 0.22
-1 -22 0 0.76 0.31
-1 22 0 1.08 0.38
0 -1 22 1.39 0.33
0 -1 22 1.24 0.24
0 1 22 1.01 0.33
0 1 22 1.26 0.26
1 -22 0 0.76 0.33
1 22 0 1.05 0.37
-1 0 22 0.93 0.25
0 -22 -1 1.08 0.35
0 -22 1 0.58 0.32
0 22 -1 1.12 0.36
0 22 1 1.35 0.35
1 0 22 1.29 0.31
1 0 22 1.15 0.25
-22 1 0 1.19 0.22
-1 0 22 1.17 0.3
-22 1 0 0.98 0.24
-22 -1 0 1.11 0.24
-22 -1 0 1.03 0.2
-22 -1 1 -0.25 0.22
-22 -1 -1 0.22 0.21
-22 -1 -1 -0.04 0.16
-1 -22 -1 0.25 0.32
-1 -22 1 -0.26 0.31
-1 -1 22 -0.32 0.29
-1 -1 22 -0.25 0.22
-1 1 22 0.3 0.29
-1 1 22 0.14 0.23
-1 22 -1 0.12 0.36
-1 22 1 0.02 0.33
1 -22 -1 -0.12 0.3
1 -22 1 -0.41 0.28
1 -1 22 -0.1 0.3
1 -1 22 -0.28 0.21
1 1 22 -0.12 0.28
1 1 22 -0.09 0.22
1 22 -1 0.16 0.33
1 22 1 0.28 0.36
-22 1 1 0.06 0.21
-22 1 1 -0.1 0.19
-22 1 -1 -0.19 0.2
-22 1 -1 0.05 0.18
-22 -1 1 0.03 0.19
0 2 22 0.29 0.23
0 -2 22 0.02 0.2
0 2 22 0.13 0.28
-2 22 0 -0.37 0.32
0 -2 22 -0.36 0.29
-22 0 -2 -0.5 0.18
-22 0 -2 -0.39 0.15
-22 -2 0 -0.02 0.22
-22 -2 0 -0.16 0.17
-22 2 0 -0.2 0.21
-22 2 0 -0.21 0.19
-2 0 22 -0.09 0.31
-2 0 22 -0.08 0.21
0 -22 -2 -0.15 0.28
0 -22 2 0.18 0.31
0 22 -2 -0.11 0.33
0 22 2 -0.27 0.32
2 0 22 -0.39 0.27
2 0 22 -0.33 0.22
-22 0 2 -0.01 0.19
2 -22 0 -0.63 0.31
2 22 0 -0.7 0.32
-2 -22 0 -0.4 0.29
-22 0 2 -0.15 0.23
-22 2 -1 0.09 0.19
-22 -2 1 0.05 0.17
1 -2 22 0.1 0.29
-2 -1 22 0.16 0.29
-2 -1 22 0.49 0.23
-22 1 2 0.23 0.2
-22 1 2 0.01 0.23
2 1 22 0.65 0.21
-1 -22 2 -0.2 0.3
-1 22 -2 0.04 0.31
-2 -22 -1 0.32 0.31
1 -22 -2 -0.01 0.26
1 22 2 -0.31 0.33
-2 22 1 0.49 0.34
-22 2 -1 0.38 0.19
2 1 22 -0.06 0.26
-1 2 22 -0.12 0.22
-22 -1 -2 -0.08 0.18
-22 -1 -2 -0.17 0.15
2 -22 1 0.12 0.3
2 22 -1 0.22 0.34
1 -2 22 -0.25 0.2
-1 2 22 -0.03 0.28
-22 -2 1 -0.25 0.23
-1 -2 22 0.4 0.31
-1 -2 22 0 0.21
-1 -22 -2 -0.24 0.28
-22 2 1 0.12 0.22
-22 2 1 0.07 0.2
-22 1 -2 0.16 0.18
1 2 22 -0.08 0.27
1 2 22 -0.18 0.22
-2 1 22 0.32 0.22
-22 -1 2 0.09 0.24
-22 -1 2 0.1 0.18
2 22 1 0.09 0.34
-2 22 -1 -0.1 0.36
1 22 -2 0.2 0.34
1 -22 2 -0.24 0.3
2 -1 22 0.36 0.28
2 -1 22 0.3 0.21
-22 -2 -1 0.5 0.21
-22 -2 -1 0.09 0.16
-2 1 22 0.9 0.28
-1 22 2 0.03 0.34
-2 -22 1 0.49 0.31
2 -22 -1 -0.28 0.27
-22 1 -2 0.13 0.16
-22 2 -2 5.68 0.6
-22 -2 2 5.88 0.58
-22 -2 -2 5.66 0.59
-22 -2 -2 5.39 0.53
-22 -2 2 5.77 0.69
2 -2 22 6.03 0.81
-22 2 -2 5.13 0.57
-22 2 2 5.56 0.68
-22 2 2 6.64 0.62
-2 -22 -2 4.96 0.76
-2 -2 22 5.52 0.63
-2 2 22 6.22 0.81
-2 2 22 4.83 0.66
2 2 22 6.07 0.66
2 -22 -2 6.55 0.73
2 -2 22 6.83 0.63
2 2 22 5.96 0.78
-3 0 22 0.87 0.23
-3 -22 0 0.51 0.3
-22 0 3 0.99 0.23
3 -22 0 0.89 0.29
3 22 0 0.9 0.35
-22 -3 0 1.19 0.19
-22 3 0 1.15 0.23
-22 3 0 1 0.22
-3 0 22 1 0.3
-22 0 3 1.08 0.25
0 -3 22 1.44 0.31
0 -3 22 1.16 0.23
0 3 22 1.11 0.29
0 3 22 1.82 0.26
0 22 -3 1.03 0.35
-22 -3 0 1.19 0.25
3 0 22 1.05 0.29
3 0 22 1.08 0.24
-3 22 0 0.31 0.33
0 -22 3 0.94 0.32
0 -22 -3 1.41 0.3
0 22 3 1.36 0.35
-1 -22 3 -0.15 0.29
1 -3 22 0.34 0.28
-22 1 3 -0.12 0.19
1 -22 -3 -0.02 0.28
3 22 -1 -0.22 0.32
-1 3 22 0.27 0.27
-22 -3 1 -0.06 0.22
1 22 3 -0.44 0.32
3 1 22 0.2 0.26
-22 -3 1 -0.22 0.16
-3 -1 22 0.03 0.21
-22 1 3 -0.14 0.24
-3 -1 22 -0.1 0.28
-3 -22 -1 -0.25 0.29
-3 22 1 0.33 0.33
-22 3 -1 -0.18 0.18
-1 22 -3 -0.12 0.32
-1 3 22 -0.09 0.22
3 -22 1 0.14 0.29
-22 3 -1 -0.43 0.18
3 1 22 -0.32 0.2
1 -3 22 -0.09 0.2
-22 -3 -1 0.53 0.21
-22 3 1 0 0.21
3 -1 22 -0.05 0.27
-22 -1 3 -0.26 0.17
3 -22 -1 0.03 0.26
1 3 22 0.2 0.29
1 3 22 0.05 0.22
-1 -3 22 -0.35 0.29
-1 -3 22 -0.28 0.2
-22 -3 -1 -0.05 0.15
-3 1 22 -0.26 0.22
-22 -1 3 0.38 0.24
-1 -22 -3 -0.04 0.26
-22 1 -3 -0.03 0.13
-1 22 3 0.25 0.36
-22 3 1 -0.18 0.2
1 -22 3 -0.05 0.28
3 -1 22 -0.36 0.19
1 22 -3 -0.01 0.33
-3 22 -1 0.34 0.35
-3 1 22 0.07 0.28
3 22 1 -0.11 0.32
-3 -22 1 -0.11 0.29
-2 3 22 0.49 0.26
-3 22 2 0.14 0.35
-3 -2 22 -0.09 0.2
2 -3 22 0.18 0.28
2 22 3 -0.44 0.33
-22 2 3 -0.29 0.2
-22 3 -2 -0.01 0.17
-22 2 3 0.34 0.22
-2 -22 3 -0.13 0.27
-3 -22 -2 0.07 0.26
-22 3 -2 -0.16 0.17
-22 -3 2 0.26 0.17
2 -3 22 0.2 0.2
3 -22 2 0.18 0.29
3 2 22 -0.14 0.25
3 2 22 -0.13 0.2
-3 -2 22 0.29 0.31
-2 22 -3 0.08 0.32
2 -22 -3 -0.05 0.27
3 22 -2 -0.26 0.32
-2 3 22 0.2 0.22
-22 -3 2 0.16 0.23
-22 -3 -2 -0.06 0.17
-3 2 22 0.33 0.21
3 22 2 -0.23 0.32
-3 -22 2 0.53 0.29
2 3 22 -0.12 0.2
2 -22 3 -0.07 0.27
2 22 -3 0.43 0.31
3 -22 -2 0.12 0.28
-22 -3 -2 0.01 0.14
-22 3 2 0.06 0.21
-3 2 22 -0.17 0.26
3 -2 22 -0.1 0.26
-2 22 3 -0.65 0.33
-3 22 -2 -0.27 0.31
2 3 22 0.14 0.26
3 -2 22 -0.06 0.19
-22 -2 3 0.23 0.23
-22 -2 3 -0.18 0.17
-22 2 -3 -0.15 0.14
-22 2 -3 0.22 0.14
-2 -22 -3 0.02 0.26
-2 -3 22 0.3 0.28
-22 3 2 -0.11 0.2
-2 -3 22 0.52 0.2
-3 22 -3 -0.39 0.3
-3 3 22 -0.28 0.21
-3 3 22 -0.81 0.24
-3 -3 22 0.38 0.3
-3 -3 22 0 0.19
3 22 3 -0.23 0.3
-22 3 -3 -0.03 0.15
-22 3 3 -0.33 0.21
-22 3 3 -0.05 0.19
-3 -22 -3 -0.13 0.26
-3 -22 3 0.23 0.27
-22 -3 -3 -0.16 0.11
-22 -3 3 -0.26 0.23
-22 -3 3 -0.16 0.17
-22 3 -3 -0.27 0.14
-3 22 3 -0.07 0.32
3 -22 -3 -0.02 0.25
3 -22 3 -0.36 0.27
3 -3 22 -0.1 0.27
3 -3 22 -0.01 0.18
3 3 22 0.29 0.25
3 3 22 -0.05 0.18
3 22 -3 -0.24 0.31
-22 0 4 2.01 0.3
0 4 22 1.51 0.31
0 4 22 3.59 0.45
4 -22 0 1.9 0.33
-22 -4 0 3.78 0.49
-22 4 0 1.75 0.27
-22 4 0 3.77 0.45
-4 0 22 1.87 0.33
0 22 4 1.72 0.39
-4 22 0 1.04 0.36
-22 0 4 3.43 0.45
-4 -22 0 1.61 0.33
0 -22 4 1.56 0.34
0 22 -4 1.63 0.37
0 -4 22 1.59 0.34
4 22 0 1.84 0.37
4 0 22 1.45 0.33
-4 0 22 3.76 0.52
0 -22 -4 2.31 0.33
4 0 22 3.67 0.47
-22 1 4 0.49 0.2
-4 -22 -1 0.87 0.3
-4 -1 22 0.55 0.21
4 1 22 0.26 0.25
4 1 22 0.79 0.21
-22 1 4 0.81 0.25
-1 22 -4 -0.06 0.32
4 22 -1 0.42 0.31
-22 -4 1 0.44 0.23
-22 -4 1 0.5 0.17
-22 4 -1 0.37 0.19
-22 4 -1 0.73 0.2
-1 4 22 0.46 0.26
-4 -1 22 0.59 0.3
1 -4 22 0.43 0.28
-4 22 1 0.78 0.32
-1 -22 4 0.78 0.28
1 22 4 0.69 0.34
1 -22 -4 0.31 0.26
-1 4 22 0.47 0.21
4 -22 1 0.48 0.27
-1 -4 22 0.66 0.31
-4 22 -1 0.1 0.33
1 4 22 0.55 0.26
-22 4 1 0.64 0.21
4 -22 -1 0.36 0.28
-22 4 1 0.41 0.21
-22 -4 -1 0.31 0.15
4 -1 22 0.34 0.2
1 4 22 0.53 0.21
-4 -22 1 0.51 0.29
-1 -22 -4 0.39 0.27
-22 -4 -1 0.65 0.2
-1 22 4 -0.07 0.33
-22 -1 4 0.52 0.25
1 -22 4 0.02 0.3
1 22 -4 0.59 0.33
4 22 1 -0.23 0.31
4 -1 22 0.38 0.27
-4 1 22 0.62 0.23
-4 1 22 0.42 0.27
-22 -1 4 0.48 0.19
4 2 22 -0.02 0.2
-22 -4 2 -0.07 0.16
4 22 -2 0.1 0.32
-22 2 4 -0.23 0.19
4 2 22 -0.17 0.25
2 -22 -4 -0.21 0.24
-22 4 -2 0.05 0.16
-22 4 -2 0.11 0.18
-2 22 -4 -0.81 0.29
-4 -22 -2 -0.36 0.25
-4 -2 22 -0.21 0.29
-4 -2 22 -0.41 0.19
-4 22 2 -0.3 0.33
2 22 4 0.03 0.32
-2 4 22 0.04 0.25
-2 -22 4 -0.36 0.26
2 -4 22 -0.7 0.26
-2 4 22 -0.37 0.2
-22 2 4 0.14 0.22
4 -22 2 -0.42 0.26
-22 -4 2 -0.25 0.22
-2 22 4 -0.18 0.31
-22 -4 -2 -0.24 0.12
4 -2 22 -0.05 0.26
4 -2 22 -0.17 0.18
4 -22 -2 0.13 0.25
-22 4 2 -0.16 0.2
-2 -4 22 -0.37 0.28
2 4 22 0.33 0.25
2 -22 4 -0.37 0.27
-22 -2 4 -0.11 0.24
-4 2 22 -0.17 0.2
-2 -22 -4 -0.16 0.24
-22 -4 -2 -0.09 0.18
4 22 2 -0.23 0.31
-22 4 2 -0.32 0.19
-4 -22 2 -0.05 0.28
-4 22 -2 -0.22 0.3
-4 2 22 -0.28 0.26
2 22 -4 -0.55 0.31
2 4 22 -0.26 0.2
-22 -2 4 -0.14 0.17
-3 4 22 0.4 0.26
-3 4 22 0 0.2
4 3 22 0.49 0.25
-4 -22 -3 -0.08 0.26
4 3 22 0.24 0.18
4 -22 3 0.16 0.27
3 22 4 0.63 0.32
-3 -22 4 0.21 0.26
-4 -3 22 0 0.26
-4 -3 22 0.26 0.2
3 -22 -4 0.33 0.25
-22 -4 3 0.22 0.23
-22 3 4 0.16 0.21
3 -4 22 0.69 0.28
-4 22 3 0.46 0.32
-22 3 4 0.19 0.2
-22 -4 3 0.24 0.17
-22 4 -3 0.11 0.15
4 22 -3 -0.21 0.3
-22 4 -3 0.2 0.16
-3 22 -4 0.32 0.3
3 4 22 0.15 0.19
-22 -4 -3 0.39 0.14
-3 -4 22 0.47 0.27
4 -3 22 0.39 0.18
4 -22 -3 0.45 0.23
-4 3 22 0.39 0.2
-22 4 3 0.3 0.2
-3 -22 -4 -0.09 0.23
3 4 22 0.39 0.24
-4 3 22 0.25 0.25
3 22 -4 0.13 0.31
-22 -3 4 0.29 0.23
-22 -3 4 0.5 0.18
4 -3 22 0.42 0.26
-22 -4 -3 0.48 0.12
3 -22 4 0.11 0.26
-22 4 3 0.21 0.21
-4 -22 3 -0.07 0.26
-4 22 -3 0.21 0.3
-3 22 4 -0.27 0.32
4 22 3 -0.07 0.32
5 22 0 -0.14 0.3
-22 -5 0 0.41 0.21
5 0 22 -0.37 0.25
0 5 22 0.17 0.21
5 0 22 0.17 0.19
-22 0 5 0.09 0.19
-5 0 22 -0.73 0.26
-5 22 0 -0.56 0.31
0 -5 22 0.11 0.27
0 5 -22 0.26 0.26
5 -22 0 -0.16 0.25
-22 5 0 -0.16 0.19
0 22 5 -0.07 0.32
-22 0 5 0.11 0.24
-5 0 22 -0.24 0.19
0 -22 -5 -0.09 0.24
0 -22 5 -0.09 0.26
-22 -5 0 0.01 0.14
-22 5 0 -0.06 0.19
0 5 22 -0.14 0.25
0 22 -5 0.45 0.31
-5 -22 0 -0.01 0.27
-22 -5 1 -0.07 0.14
-1 5 22 0.38 0.26
-1 5 22 0.11 0.2
1 -5 22 -0.42 0.27
5 -22 1 -0.44 0.27
-5 -1 22 -0.42 0.2
-5 -22 -1 -0.32 0.27
-5 -1 22 -0.35 0.27
-22 5 -1 0.04 0.18
1 -22 -5 -0.13 0.25
-22 -5 1 -0.28 0.21
-5 22 1 -0.17 0.31
5 1 22 -0.17 0.19
-22 1 5 -0.03 0.23
-22 1 5 -0.05 0.2
1 5 -22 -0.04 0.26
5 22 -1 -0.44 0.31
5 1 22 -0.1 0.24
-1 -22 5 -0.05 0.24
-1 22 -5 0.61 0.32
-22 5 -1 0.11 0.19
1 22 5 -0.16 0.3
5 -1 22 0.02 0.19
-5 1 22 0.11 0.25
-1 5 -22 0.52 0.26
-5 22 -1 -0.36 0.31
-22 -1 5 -0.13 0.18
5 -1 22 -0.27 0.24
5 -22 -1 -0.01 0.25
-5 1 22 -0.22 0.21
-5 -22 1 0.16 0.27
-1 -22 -5 -0.23 0.24
-22 -5 -1 -0.17 0.2
-1 -5 22 -0.24 0.27
-1 22 5 0.27 0.33
1 5 22 0.26 0.24
1 -22 5 -0.01 0.28
1 22 -5 -0.39 0.3
-22 5 1 -0.23 0.19
5 22 1 -0.95 0.3
-22 -5 -1 -0.21 0.14
-22 5 1 -0.04 0.2
1 5 22 0.08 0.21
-22 -1 5 0.02 0.23
2 -22 -5 0.49 0.26
5 22 -2 -0.01 0.31
-22 2 5 0.41 0.19
-22 -5 2 0.66 0.23
2 22 5 0.14 0.32
-22 5 -2 0.41 0.17
-22 5 -2 0.41 0.18
-2 5 22 0.16 0.25
-2 5 22 0.14 0.21
-5 -2 22 0.41 0.28
-5 -2 22 0.26 0.19
2 -5 22 0.13 0.28
5 2 22 0.11 0.19
-22 2 5 0.31 0.24
5 2 22 0.2 0.23
-2 22 -5 0.38 0.3
5 -22 2 0.19 0.27
2 5 -22 0.61 0.27
-2 -22 5 -0.04 0.25
-5 -22 -2 0.04 0.26
-5 22 2 0.71 0.31
-22 -5 2 0.12 0.15
2 -22 5 0.25 0.27
-22 -5 -2 0.4 0.19
-5 -22 2 0.14 0.28
-5 22 -2 0.33 0.3
-22 -2 5 0.35 0.17
2 5 22 0.34 0.26
-2 5 -22 0.37 0.26
-22 5 2 0.05 0.2
-22 5 2 0.25 0.21
-5 2 22 -0.03 0.26
-2 -22 -5 0.39 0.26
5 -2 22 0.01 0.26
2 5 22 0.22 0.2
5 -22 -2 0.2 0.24
5 22 2 -0.03 0.29
-5 2 22 -0.02 0.2
2 22 -5 0.26 0.3
-2 -5 22 0.34 0.29
-22 -2 5 0.33 0.23
5 -2 22 0.24 0.18
-2 22 5 0.06 0.31
-22 -5 -2 0.46 0.13
loop_
_platon_missing_refln_index_h
_platon_missing_refln_index_k
_platon_missing_refln_index_l
_platon_missing_refln_theta
0 1 1 1.126
0 0 2 1.592
0 1 2 1.780
1 1 2 1.950
