#------------------------------------------------------------------------------
#$Date: 2019-11-26 04:14:57 +0200 (Tue, 26 Nov 2019) $
#$Revision: 242585 $
#$URL: file:///home/coder/svn-repositories/cod/cif/4/13/26/4132638.cif $
#------------------------------------------------------------------------------
#
# This file is available in the Crystallography Open Database (COD),
# http://www.crystallography.net/
#
# All data on this site have been placed in the public domain by the
# contributors.
#
data_4132638
loop_
_publ_author_name
'Lee, Seungkyu'
'B\"urgi, Hans-Beat'
'Alshmimri, Sultan A.'
'Yaghi, Omar M.'
_publ_section_title
;
 Impact of Disordered Guest-Framework Interactions on the Crystallography
 of Metal-Organic Frameworks.
;
_journal_issue                   28
_journal_name_full               'Journal of the American Chemical Society'
_journal_page_first              8958
_journal_page_last               8964
_journal_paper_doi               10.1021/jacs.8b05271
_journal_volume                  140
_journal_year                    2018
_chemical_formula_moiety         '0.5(C129.36 H81.92 O64 Zr12)'
_chemical_formula_sum            'C64.5 H41 O28.5 Zr6'
_chemical_formula_weight         1819.29
_chemical_name_systematic        UiO-67
_space_group_crystal_system      cubic
_space_group_IT_number           225
_space_group_name_Hall           '-F 4 2 3'
_space_group_name_H-M_alt        'F m -3 m'
_atom_sites_solution_hydrogens   mixed
_audit_creation_date             2018-04-24
_audit_creation_method
;
Olex2 1.2
(compiled 2017.08.10 svn.r3458 for OlexSys, GUI svn.r5381)
;
_cell_angle_alpha                90
_cell_angle_beta                 90
_cell_angle_gamma                90
_cell_formula_units_Z            4
_cell_length_a                   26.6840(14)
_cell_length_b                   26.6840(14)
_cell_length_c                   26.6840(14)
_cell_measurement_reflns_used    2170
_cell_measurement_temperature    100
_cell_measurement_theta_max      35.297
_cell_measurement_theta_min      2.869
_cell_volume                     19000.0(17)
_computing_cell_refinement       'SAINT V8.38A (?, 2016)'
_computing_data_reduction        'SAINT V8.38A (?, 2016)'
_computing_molecular_graphics    'Olex2 (Dolomanov et al., 2009)'
_computing_publication_material  'Olex2 (Dolomanov et al., 2009)'
_computing_structure_refinement  'ShelXL (Sheldrick, 2015)'
_diffrn_ambient_temperature      100
_diffrn_detector                 'CCD area detector'
_diffrn_detector_area_resol_mean 7.9
_diffrn_detector_type            'Bruker SMART CCD 1K area detector'
_diffrn_measured_fraction_theta_full 1.000
_diffrn_measured_fraction_theta_max 1.000
_diffrn_measurement_device       'three-circle diffractometer'
_diffrn_measurement_device_type  'Bruker APEX-II CCD'
_diffrn_measurement_method       '\w scans'
_diffrn_radiation_monochromator  graphite
_diffrn_radiation_probe          x-ray
_diffrn_radiation_type           CuK\a
_diffrn_radiation_wavelength     1.54178
_diffrn_reflns_av_R_equivalents  0.1023
_diffrn_reflns_av_unetI/netI     0.0263
_diffrn_reflns_Laue_measured_fraction_full 1.000
_diffrn_reflns_Laue_measured_fraction_max 1.000
_diffrn_reflns_limit_h_max       20
_diffrn_reflns_limit_h_min       -20
_diffrn_reflns_limit_k_max       20
_diffrn_reflns_limit_k_min       -20
_diffrn_reflns_limit_l_max       20
_diffrn_reflns_limit_l_min       -20
_diffrn_reflns_number            6689
_diffrn_reflns_point_group_measured_fraction_full 1.000
_diffrn_reflns_point_group_measured_fraction_max 1.000
_diffrn_reflns_theta_full        36.303
_diffrn_reflns_theta_max         36.303
_diffrn_reflns_theta_min         2.868
_diffrn_source                   'sealed X-ray tube'
_diffrn_source_target            Mo
_diffrn_standards_number         0
_exptl_absorpt_coefficient_mu    2.869
_exptl_absorpt_correction_T_max  0.7472
_exptl_absorpt_correction_T_min  0.4676
_exptl_absorpt_correction_type   multi-scan
_exptl_absorpt_process_details
'SADABS-2016/2 (Bruker,2016/2) was used for absorption correction. wR2(int) was 0.1071 before and 0.0744 after correction. The Ratio of minimum to maximum transmission is 0.6258. The \l/2 correction factor is Not present.'
_exptl_crystal_colour            clear
_exptl_crystal_colour_lustre     clear
_exptl_crystal_density_diffrn    0.636
_exptl_crystal_description       'truncated octahedron'
_exptl_crystal_F_000             3584
_exptl_crystal_size_max          0.1
_exptl_crystal_size_mid          0.1
_exptl_crystal_size_min          0.1
_platon_squeeze_details
;
TITL 110K in Fm-3m #225
CELL   26.6840   26.6840   26.6840     90.00     90.00     90.00
SPGR Fm-3m
# Solvent Accessible Volume =     12984
# Electrons Found in S.A.V. =      2384
# Note: Atoms in Void are Labelled as Cxxx and Qxxx for all Others
C101 0.111 0.111 0.111 !       1.43 eA-3
C102 1.000 0.498 0.242 !       1.05 eA-3
C103 0.342 0.345 0.155 !       0.76 eA-3
C104 0.827 0.177 0.177 !       0.74 eA-3
C105 0.712 0.155 0.345 !       0.73 eA-3
C106 1.000 0.500 0.000 !       0.69 eA-3
C107 0.618 0.118 0.118 !       0.68 eA-3
C108 0.366 0.135 0.173 !       0.66 eA-3
C109 0.250 0.250 0.250 !       0.66 eA-3
C110 0.315 0.056 0.056 !       0.65 eA-3
C111 0.521 0.027 0.209 !       0.62 eA-3
C112 0.500 0.074 0.166 !       0.58 eA-3
Q113 0.500 0.504 0.109 !       0.56 eA-3
C114 0.828 0.172 0.328 !       0.53 eA-3
C115 0.322 0.093 0.093 !       0.53 eA-3
;
_refine_diff_density_max         0.207
_refine_diff_density_min         -0.601
_refine_diff_density_rms         0.048
_refine_ls_extinction_method     none
_refine_ls_goodness_of_fit_ref   1.166
_refine_ls_hydrogen_treatment    constr
_refine_ls_matrix_type           full
_refine_ls_number_parameters     40
_refine_ls_number_reflns         280
_refine_ls_number_restraints     39
_refine_ls_restrained_S_all      1.117
_refine_ls_R_factor_all          0.0572
_refine_ls_R_factor_gt           0.0486
_refine_ls_shift/su_max          0.000
_refine_ls_shift/su_mean         0.000
_refine_ls_structure_factor_coef Fsqd
_refine_ls_weighting_details
'w=1/[\s^2^(Fo^2^)+(0.0425P)^2^+414.4571P] where P=(Fo^2^+2Fc^2^)/3'
_refine_ls_weighting_scheme      calc
_refine_ls_wR_factor_gt          0.1148
_refine_ls_wR_factor_ref         0.1206
_reflns_Friedel_coverage         0.000
_reflns_number_gt                246
_reflns_number_total             280
_reflns_threshold_expression     'I > 2\s(I)'
_iucr_refine_instructions_details
;
TITL 110K in Fm-3m #225
    platon_sq.res
    created by SHELXL-2017/1 at 13:50:14 on 24-Apr-2018
REM reset to Fm-3m #225
CELL 1.54178 26.684 26.684 26.684 90 90 90
ZERR 4 0.0014 0.0014 0.0014 0 0 0
LATT 4
SYMM -Y,+X,+Z
SYMM -X,-Y,+Z
SYMM +Y,-X,+Z
SYMM +X,-Z,+Y
SYMM +X,-Y,-Z
SYMM +X,+Z,-Y
SYMM +Z,+Y,-X
SYMM -X,+Y,-Z
SYMM -Z,+Y,+X
SYMM +Z,+X,+Y
SYMM +Y,+Z,+X
SYMM -Y,-Z,+X
SYMM +Z,-X,-Y
SYMM -Y,+Z,-X
SYMM -Z,-X,+Y
SYMM -Z,+X,-Y
SYMM +Y,-Z,-X
SYMM +Y,+X,-Z
SYMM -Y,-X,-Z
SYMM -X,+Z,+Y
SYMM -X,-Z,-Y
SYMM +Z,-Y,+X
SYMM -Z,-Y,-X
SFAC C H O Zr
UNIT 258 164 114 24
DFIX 2.18 O0AA Zr1
DELU C1 C2
DELU C3 C4
SIMU 0.04 0.08 1.7 C3 C4
SIMU 0.04 0.08 1.7 C3 C4 C5 C2
ISOR 0.05 0.1 O2
ISOR 0.01 0.2 O2 O1
ISOR C1
EADP O2 O1

L.S. 5 0 14
PLAN  100
SIZE 0.1 0.1 0.1
TEMP -173.15
BOND
ABIN
fmap 2
acta
REM <olex2.extras>
REM <HklSrc "%.\\platon_sq.hkl">
REM </olex2.extras>

WGHT    0.042500  414.457062
FVAR       0.02435
ZR1   4    1.000000    0.500000    0.592447    10.12500    0.07394    0.07394 =
         0.06478    0.00000    0.00000    0.00000
PART 1
O3    3    1.073212    0.500000    0.631854    10.38500    0.07868    0.10966 =
         0.05694    0.00000    0.00030    0.00000
C1    1    1.116578    0.500000    0.616578    10.19250    0.05020    0.10377 =
         0.05020    0.00000    0.01614    0.00000
C2    1    1.157438    0.500000    0.657438    10.19250    0.04200    0.20537 =
         0.04200    0.00000    0.01758    0.00000
C5    1    1.229813    0.500000    0.729813    10.19250    0.08606    0.26229 =
         0.08606    0.00000   -0.04758    0.00000
C3    1    1.142277    0.500000    0.704404    10.38500    0.03092    0.31496 =
         0.07180    0.00000   -0.02274    0.00000
AFIX  43
H3    2    1.107480    0.500000    0.711934    10.38500   -1.20000
AFIX   0
C4    1    1.177369    0.500000    0.742955    10.38500    0.05668    0.35852 =
         0.08560    0.00000   -0.02496    0.00000
AFIX  43
H4    2    1.167072    0.500000    0.777035    10.38500   -1.20000
AFIX   0
O1    3    1.041549    0.541549    0.541549    10.08333    0.07781    0.07781 =
         0.07781   -0.00139   -0.00139   -0.00139
PART 0
PART 2
O2    3    1.049406    0.549406    0.549406    10.08333    0.07781    0.07781 =
         0.07781   -0.00139   -0.00139   -0.00139
H2    2   11.067301   10.567301   10.567301    10.08333   10.10000
PART 0
PART 1
O0AA  3    1.062782    0.500000    0.644953    10.11500   10.10000
HKLF 4




REM  110K in Fm-3m #225
REM R1 =  0.0486 for     246 Fo > 4sig(Fo)  and  0.0572 for all     280 data
REM     40 parameters refined using     39 restraints

END  
     
WGHT      0.0425    414.4708 

REM Highest difference peak  0.207,  deepest hole -0.601,  1-sigma level  0.048
Q1    1   1.0983  0.5983  0.5983  10.16667  0.05    0.21
Q2    1   1.1233  0.5354  0.7001  11.00000  0.05    0.18
Q3    1   1.0578  0.5578  0.5578  10.16667  0.05    0.15
Q4    1   1.1738  0.5000  0.6632  10.50000  0.05    0.15
Q5    1   1.0404  0.5404  0.6098  10.50000  0.05    0.15
Q6    1   1.0000  0.5000  0.6337  10.12500  0.05    0.15
Q7    1   1.0428  0.5000  0.5428  10.25000  0.05    0.15
Q8    1   1.1596  0.5000  0.6982  10.50000  0.05    0.15
Q9    1   1.2500  0.5000  0.7500  10.12500  0.05    0.12
Q10   1   1.2235  0.5000  0.7387  10.50000  0.05    0.12
Q11   1   1.1025  0.5000  0.6894  10.50000  0.05    0.12
Q12   1   1.1291  0.5495  0.6969  11.00000  0.05    0.12
Q13   1   1.0000  0.5000  0.6168  10.12500  0.05    0.12
Q14   1   1.0000  0.5000  0.9887  10.12500  0.05    0.12
Q15   1   1.1935  0.5000  0.7580  10.50000  0.05    0.11
Q16   1   1.1766  0.6299  0.6766  10.50000  0.05    0.11
Q17   1   1.0000  0.5000  0.7595  10.12500  0.05    0.11
Q18   1   1.1184  0.4601  0.7119  11.00000  0.05    0.11
Q19   1   1.0302  0.4698  0.6197  10.50000  0.05    0.11
Q20   1   1.0169  0.5280  0.6214  11.00000  0.05    0.10
Q21   1   1.1059  0.4780  0.6971  11.00000  0.05    0.10
Q22   1   1.0255  0.5000  0.6266  10.50000  0.05    0.10
Q23   1   1.1007  0.5000  0.6779  10.50000  0.05    0.10
Q24   1   1.0814  0.5000  0.6732  10.50000  0.05    0.10
Q25   1   1.1496  0.3504  0.8504  10.16667  0.05    0.10
Q26   1   1.1540  0.3460  0.6725  10.50000  0.05    0.10
Q27   1   1.0000  0.5000  0.8141  10.12500  0.05    0.10
Q28   1   1.1303  0.5000  0.7669  10.50000  0.05    0.09
Q29   1   1.1775  0.5591  0.6491  11.00000  0.05    0.09
Q30   1   1.1116  0.5000  0.7347  10.50000  0.05    0.09
Q31   1   1.0000  0.5000  0.7449  10.12500  0.05    0.09
Q32   1   1.1457  0.5000  0.7928  10.50000  0.05    0.09
Q33   1   1.1419  0.6419  0.6162  10.50000  0.05    0.09
Q34   1   1.1094  0.6001  0.6960  11.00000  0.05    0.08
Q35   1   1.2500  0.3724  0.7500  10.25000  0.05    0.08
Q36   1   1.1781  0.6781  0.7647  10.50000  0.05    0.08
Q37   1   1.1512  0.5260  0.7922  11.00000  0.05    0.08
Q38   1   1.0000  0.5000  0.9260  10.12500  0.05    0.07
Q39   1   1.0549  0.4451  0.8286  10.50000  0.05    0.07
Q40   1   1.1564  0.3981  0.7410  11.00000  0.05    0.07
Q41   1   1.1638  0.3687  0.6982  11.00000  0.05    0.07
Q42   1   1.0435  0.5000  0.8919  10.50000  0.05    0.07
Q43   1   1.1400  0.4289  0.8600  10.50000  0.05    0.07
Q44   1   1.1865  0.6865  0.7782  10.50000  0.05    0.07
Q45   1   1.1397  0.5548  0.8603  10.50000  0.05    0.07
Q46   1   1.1212  0.5000  0.7355  10.50000  0.05    0.07
Q47   1   1.1526  0.6029  0.7314  11.00000  0.05    0.07
Q48   1   1.1465  0.3993  0.6465  10.50000  0.05    0.07
Q49   1   1.0872  0.4612  0.9039  11.00000  0.05    0.07
Q50   1   1.1465  0.6464  0.7493  10.50000  0.05    0.06
Q51   1   1.1523  0.5843  0.6523  10.50000  0.05    0.06
Q52   1   1.0500  0.5500  0.8163  10.50000  0.05    0.06
Q53   1   1.1004  0.5000  0.7774  10.50000  0.05    0.06
Q54   1   1.1049  0.5891  0.6827  11.00000  0.05    0.06
Q55   1   1.0998  0.4002  0.6819  10.50000  0.05    0.06
Q56   1   1.0934  0.5000  0.7523  10.50000  0.05    0.06
Q57   1   1.1522  0.3654  0.7357  11.00000  0.05    0.06
Q58   1   1.1018  0.5418  0.8982  10.50000  0.05    0.06
Q59   1   1.0721  0.5000  0.7771  10.50000  0.05    0.06
Q60   1   1.0411  0.5000  0.8793  10.50000  0.05    0.06
Q61   1   1.0359  0.5000  0.9109  10.50000  0.05    0.06
Q62   1   1.1647  0.5272  0.8002  11.00000  0.05    0.06
Q63   1   1.1016  0.5700  0.7593  11.00000  0.05    0.06
Q64   1   1.0853  0.4147  0.7622  10.50000  0.05    0.05
Q65   1   1.0903  0.5000  0.6170  10.50000  0.05    0.05
Q66   1   1.1695  0.3305  0.7569  10.50000  0.05    0.05
Q67   1   1.0398  0.5282  0.7832  11.00000  0.05    0.05
Q68   1   1.0482  0.5000  0.7943  10.50000  0.05    0.05
Q69   1   1.0000  0.5000  0.8397  10.12500  0.05    0.05
Q70   1   1.2231  0.2939  0.7231  10.50000  0.05    0.05
Q71   1   1.0671  0.5000  0.7621  10.50000  0.05    0.05
Q72   1   1.1123  0.5568  0.7679  11.00000  0.05    0.05
Q73   1   1.1092  0.4593  0.8165  11.00000  0.05    0.05
Q74   1   1.0774  0.5588  0.8100  11.00000  0.05    0.04
Q75   1   1.1674  0.5787  0.7457  11.00000  0.05    0.04
Q76   1   1.2222  0.3907  0.7222  10.50000  0.05    0.04
Q77   1   1.0000  0.5000  0.8267  10.12500  0.05    0.04
Q78   1   1.0999  0.5000  0.7925  10.50000  0.05    0.04
Q79   1   1.1426  0.3574  0.7976  10.50000  0.05    0.03
Q80   1   1.1205  0.5000  0.8677  10.50000  0.05    0.03

  REM The information below was added by Olex2.
  REM
  REM R1 = 0.0486 for 246 Fo > 4sig(Fo) and 0.0572 for all 6689 data
  REM n/a parameters refined using n/a restraints
  REM Highest difference peak 0.21, deepest hole -0.60
  REM Mean Shift 0, Max Shift 0.000.

  REM +++ Tabular Listing of Refinement Information +++
  REM R1_all = 0.0572
  REM R1_gt = 0.0486
  REM wR_ref = 0.1206
  REM GOOF = 1.166
  REM Shift_max = 0.000
  REM Shift_mean = 0
  REM Reflections_all = 6689
  REM Reflections_gt = 246
  REM Parameters = n/a
  REM Hole = -0.60
  REM Peak = 0.21
  REM Flack = n/a

  
;
_cod_data_source_file            Uio-67_22defect_DMF_100K.cif
_cod_data_source_block           UiO-67_22defect_DMF_100K
_cod_original_cell_volume        19000(3)
_cod_original_formula_sum        'C64.50 H41 O28.50 Zr6'
_cod_database_code               4132638
_shelx_shelxl_version_number     2017/1
_shelx_space_group_comment
;
The symmetry employed for this shelxl refinement is uniquely defined
by the following loop, which should always be used as a source of
symmetry information in preference to the above space-group names.
They are only intended as comments.
;
_shelx_estimated_absorpt_t_max   0.762
_shelx_estimated_absorpt_t_min   0.762
_olex2_refinement_description
;
1. Fixed Uiso
 At 1.2 times of:
  All C(H) groups
2. Restrained distances
 O0AA-Zr1
 2.18 with sigma of 0.02
3. Rigid bond restraints
 C1, C2
 with sigma for 1-2 distances of 0.01 and sigma for 1-3 distances of 0.01
 C3, C4
 with sigma for 1-2 distances of 0.01 and sigma for 1-3 distances of 0.01
4. Uiso/Uaniso restraints and constraints
C3 \\sim C4: within 1.7A with sigma of 0.04 and sigma for terminal atoms of 0.08
C3 \\sim C4 \\sim C5 \\sim C2: within 1.7A with sigma of 0.04 and sigma for
terminal atoms of 0.08
Uanis(O2) \\sim Ueq: with sigma of 0.05 and sigma for terminal atoms of 0.1
Uanis(O2) \\sim Ueq, Uanis(O1) \\sim Ueq: with sigma of 0.01 and sigma for
terminal atoms of 0.2
Uanis(C1) \\sim Ueq: with sigma of 0.1 and sigma for terminal atoms of 0.2
Uanis(O2) = Uanis(O1)
5. Others
 Fixed Sof: O3(0.385) C1(0.1925) C2(0.1925) C5(0.1925) C3(0.385) H3(0.385)
 C4(0.385) H4(0.385) O1(0.08333) O2(0.08333) H2(0.08333) O0AA(0.115)
 Fixed Uiso: H2(0.1) O0AA(0.1)
 Fixed X: H2(1.067301)
 Fixed Y: H2(0.567301)
 Fixed Z: H2(0.567301)
6.a Aromatic/amide H refined with riding coordinates:
 C3(H3), C4(H4)
;
_shelx_fab_file
;
 1 1 1 -457.86 0.00
 0 0 2 -112.49 0.00
 0 2 2 225.70 0.00
 2 2 2 -325.76 0.00
 1 1 3 17.53 0.00
 1 3 3 176.22 0.00
 3 3 3 -44.81 0.00
 0 0 4 -382.38 0.00
 0 2 4 94.95 0.00
 2 2 4 -58.56 0.00
 0 4 4 204.26 0.00
 2 4 4 -16.16 0.00
 4 4 4 77.93 0.00
 1 1 5 -73.56 0.00
 1 3 5 -76.39 0.00
 3 3 5 -45.93 0.00
 1 5 5 33.64 0.00
 3 5 5 -60.98 0.00
 5 5 5 -73.62 0.00
 0 0 6 194.59 0.00
 0 2 6 -43.48 0.00
 2 2 6 107.62 0.00
 0 4 6 12.78 0.00
 2 4 6 28.42 0.00
 4 4 6 5.63 0.00
 0 6 6 -10.75 0.00
 2 6 6 -98.67 0.00
 4 6 6 -5.94 0.00
 6 6 6 -16.03 0.00
 1 1 7 15.78 0.00
 1 3 7 -4.95 0.00
 3 3 7 -2.01 0.00
 1 5 7 47.05 0.00
 3 5 7 15.09 0.00
 5 5 7 11.25 0.00
 1 7 7 7.77 0.00
 3 7 7 28.34 0.00
 5 7 7 15.29 0.00
 7 7 7 -7.24 0.00
 0 0 8 89.19 0.00
 0 2 8 -45.19 0.00
 2 2 8 -14.73 0.00
 0 4 8 -69.95 0.00
 2 4 8 -2.83 0.00
 4 4 8 55.82 0.00
 0 6 8 -30.71 0.00
 2 6 8 -9.67 0.00
 4 6 8 12.44 0.00
 6 6 8 -9.95 0.00
 0 8 8 83.91 0.00
 2 8 8 20.12 0.00
 4 8 8 -3.93 0.00
 6 8 8 -2.43 0.00
 8 8 8 18.51 0.00
 1 1 9 49.90 0.00
 1 3 9 -18.96 0.00
 3 3 9 -6.07 0.00
 1 5 9 -38.85 0.00
 3 5 9 27.74 0.00
 5 5 9 12.29 0.00
 1 7 9 -10.16 0.00
 3 7 9 -13.68 0.00
 5 7 9 -21.70 0.00
 7 7 9 15.17 0.00
 1 9 9 20.71 0.00
 3 9 9 -31.60 0.00
 5 9 9 -17.19 0.00
 7 9 9 -2.25 0.00
 9 9 9 -15.60 0.00
 0 0 10 -31.69 0.00
 0 2 10 50.34 0.00
 2 2 10 -33.87 0.00
 0 4 10 -35.00 0.00
 2 4 10 5.11 0.00
 4 4 10 46.49 0.00
 0 6 10 -11.01 0.00
 2 6 10 -7.05 0.00
 4 6 10 6.46 0.00
 6 6 10 -19.74 0.00
 0 8 10 23.90 0.00
 2 8 10 0.17 0.00
 4 8 10 -24.36 0.00
 6 8 10 5.00 0.00
 8 8 10 17.92 0.00
 0 10 10 -8.07 0.00
 2 10 10 -27.75 0.00
 4 10 10 -2.71 0.00
 6 10 10 -9.57 0.00
 8 10 10 5.19 0.00
 10 10 10 2.21 0.00
 1 1 11 -9.07 0.00
 1 3 11 6.27 0.00
 3 3 11 5.48 0.00
 1 5 11 21.63 0.00
 3 5 11 -0.97 0.00
 5 5 11 6.25 0.00
 1 7 11 11.94 0.00
 3 7 11 7.55 0.00
 5 7 11 -8.71 0.00
 7 7 11 22.73 0.00
 1 9 11 9.14 0.00
 3 9 11 6.72 0.00
 5 9 11 3.51 0.00
 7 9 11 3.66 0.00
 9 9 11 -5.84 0.00
 1 11 11 -4.53 0.00
 3 11 11 12.27 0.00
 5 11 11 7.11 0.00
 7 11 11 -2.25 0.00
 9 11 11 -1.31 0.00
 11 11 11 8.04 0.00
 0 0 12 -13.55 0.00
 0 2 12 -11.49 0.00
 2 2 12 4.67 0.00
 0 4 12 16.60 0.00
 2 4 12 -22.87 0.00
 4 4 12 -5.11 0.00
 0 6 12 2.30 0.00
 2 6 12 -6.46 0.00
 4 6 12 -11.65 0.00
 6 6 12 -3.71 0.00
 0 8 12 2.01 0.00
 2 8 12 -6.93 0.00
 4 8 12 27.47 0.00
 6 8 12 -11.34 0.00
 8 8 12 3.57 0.00
 0 10 12 -5.92 0.00
 2 10 12 -2.11 0.00
 4 10 12 10.04 0.00
 6 10 12 5.60 0.00
 8 10 12 -5.66 0.00
 10 10 12 -6.36 0.00
 0 12 12 11.55 0.00
 2 12 12 1.72 0.00
 4 12 12 -2.10 0.00
 6 12 12 -1.73 0.00
 8 12 12 8.21 0.00
 10 12 12 17.78 0.00
 1 1 13 -22.28 0.00
 1 3 13 22.52 0.00
 3 3 13 -1.18 0.00
 1 5 13 17.92 0.00
 3 5 13 -15.95 0.00
 5 5 13 -12.71 0.00
 1 7 13 -17.18 0.00
 3 7 13 -3.33 0.00
 5 7 13 26.38 0.00
 7 7 13 -8.24 0.00
 1 9 13 -11.02 0.00
 3 9 13 8.97 0.00
 5 9 13 -13.09 0.00
 7 9 13 -9.50 0.00
 9 9 13 -3.60 0.00
 1 11 13 -3.80 0.00
 3 11 13 -0.19 0.00
 5 11 13 -12.50 0.00
 7 11 13 -4.69 0.00
 9 11 13 2.45 0.00
 11 11 13 4.22 0.00
 1 13 13 1.85 0.00
 3 13 13 -2.35 0.00
 5 13 13 22.73 0.00
 7 13 13 11.22 0.00
 9 13 13 4.20 0.00
 0 0 14 10.63 0.00
 0 2 14 -15.89 0.00
 2 2 14 1.71 0.00
 0 4 14 27.02 0.00
 2 4 14 7.62 0.00
 4 4 14 -30.30 0.00
 0 6 14 18.35 0.00
 2 6 14 -11.60 0.00
 4 6 14 -0.54 0.00
 6 6 14 -4.03 0.00
 0 8 14 -25.49 0.00
 2 8 14 -4.36 0.00
 4 8 14 22.61 0.00
 6 8 14 2.70 0.00
 8 8 14 -15.99 0.00
 0 10 14 -0.04 0.00
 2 10 14 -1.32 0.00
 4 10 14 10.51 0.00
 6 10 14 -3.07 0.00
 8 10 14 10.19 0.00
 10 10 14 2.37 0.00
 0 12 14 13.44 0.00
 2 12 14 -0.58 0.00
 4 12 14 -4.06 0.00
 6 12 14 -4.77 0.00
 8 12 14 24.85 0.00
 0 14 14 -3.28 0.00
 2 14 14 -15.35 0.00
 4 14 14 -21.98 0.00
 1 1 15 -8.73 0.00
 1 3 15 -0.24 0.00
 3 3 15 6.23 0.00
 1 5 15 11.14 0.00
 3 5 15 -4.50 0.00
 5 5 15 -21.18 0.00
 1 7 15 14.33 0.00
 3 7 15 3.63 0.00
 5 7 15 1.23 0.00
 7 7 15 1.71 0.00
 1 9 15 -3.69 0.00
 3 9 15 8.52 0.00
 5 9 15 9.83 0.00
 7 9 15 -4.61 0.00
 9 9 15 11.93 0.00
 1 11 15 -5.85 0.00
 3 11 15 -15.34 0.00
 5 11 15 7.40 0.00
 7 11 15 -13.78 0.00
 1 13 15 7.67 0.00
 3 13 15 2.96 0.00
 5 13 15 -6.44 0.00
 0 0 16 22.28 0.00
 0 2 16 3.49 0.00
 2 2 16 -15.49 0.00
 0 4 16 -9.62 0.00
 2 4 16 6.10 0.00
 4 4 16 0.17 0.00
 0 6 16 -14.09 0.00
 2 6 16 -1.99 0.00
 4 6 16 0.50 0.00
 6 6 16 -3.45 0.00
 0 8 16 7.90 0.00
 2 8 16 -18.30 0.00
 4 8 16 7.33 0.00
 6 8 16 -2.15 0.00
 8 8 16 3.52 0.00
 0 10 16 2.44 0.00
 2 10 16 2.33 0.00
 4 10 16 1.34 0.00
 6 10 16 -0.44 0.00
 8 10 16 21.55 0.00
 0 12 16 -0.20 0.00
 2 12 16 18.74 0.00
 4 12 16 7.38 0.00
 1 1 17 2.71 0.00
 1 3 17 -6.15 0.00
 3 3 17 4.89 0.00
 1 5 17 -4.23 0.00
 3 5 17 6.46 0.00
 5 5 17 8.52 0.00
 1 7 17 -3.94 0.00
 3 7 17 4.45 0.00
 5 7 17 0.29 0.00
 7 7 17 -4.81 0.00
 1 9 17 1.46 0.00
 3 9 17 -10.48 0.00
 5 9 17 -2.62 0.00
 7 9 17 -1.77 0.00
 1 11 17 3.21 0.00
 3 11 17 -9.21 0.00
 0 0 18 37.15 0.00
 0 2 18 15.39 0.00
 2 2 18 8.78 0.00
 0 4 18 -18.08 0.00
 2 4 18 -9.24 0.00
 4 4 18 31.63 0.00
 0 6 18 -5.13 0.00
 2 6 18 -4.48 0.00
 4 6 18 8.47 0.00
 6 6 18 -10.49 0.00
 0 8 18 16.30 0.00
 2 8 18 25.22 0.00
 4 8 18 -19.01 0.00
 1 1 19 -3.52 0.00
 1 3 19 -1.62 0.00
 3 3 19 -11.58 0.00
 1 5 19 -7.97 0.00
 3 5 19 -0.98 0.00
 5 5 19 15.71 0.00
 1 7 19 3.46 0.00
 3 7 19 -20.90 0.00
 0 0 20 -35.71 0.00
 0 2 20 -8.91 0.00
 2 2 20 -4.60 0.00
 0 4 20 9.84 0.00
 2 4 20 5.45 0.00
 12 12 12 -24.45 0.00
 11 13 13 -9.01 0.00
 13 13 13 -10.45 0.00
 10 12 14 -31.46 0.00
 12 12 14 10.34 0.00
 6 14 14 -2.78 0.00
 8 14 14 -11.18 0.00
 10 14 14 1.01 0.00
 12 14 14 9.06 0.00
 14 14 14 -10.57 0.00
 9 11 15 -22.41 0.00
 11 11 15 14.76 0.00
 7 13 15 -9.72 0.00
 9 13 15 -8.74 0.00
 11 13 15 24.49 0.00
 13 13 15 -5.25 0.00
 1 15 15 13.28 0.00
 3 15 15 15.30 0.00
 5 15 15 -5.86 0.00
 7 15 15 -1.79 0.00
 9 15 15 6.81 0.00
 11 15 15 -5.94 0.00
 13 15 15 -2.62 0.00
 15 15 15 4.32 0.00
 10 10 16 -11.49 0.00
 6 12 16 12.62 0.00
 8 12 16 6.89 0.00
 10 12 16 5.55 0.00
 12 12 16 7.39 0.00
 0 14 16 -9.77 0.00
 2 14 16 -5.36 0.00
 4 14 16 -0.28 0.00
 6 14 16 -0.46 0.00
 8 14 16 8.52 0.00
 10 14 16 3.59 0.00
 12 14 16 -4.04 0.00
 14 14 16 -2.74 0.00
 0 16 16 18.88 0.00
 2 16 16 -19.94 0.00
 4 16 16 2.61 0.00
 6 16 16 10.55 0.00
 8 16 16 2.22 0.00
 10 16 16 -7.07 0.00
 12 16 16 -1.16 0.00
 14 16 16 -0.50 0.00
 16 16 16 6.60 0.00
 9 9 17 -19.44 0.00
 5 11 17 -8.72 0.00
 7 11 17 -7.40 0.00
 9 11 17 2.26 0.00
 11 11 17 -6.86 0.00
 1 13 17 4.37 0.00
 3 13 17 -7.05 0.00
 5 13 17 -4.03 0.00
 7 13 17 -7.06 0.00
 9 13 17 1.49 0.00
 11 13 17 0.11 0.00
 13 13 17 -7.46 0.00
 1 15 17 -5.28 0.00
 3 15 17 7.35 0.00
 5 15 17 7.38 0.00
 7 15 17 3.81 0.00
 9 15 17 2.69 0.00
 11 15 17 -6.66 0.00
 13 15 17 -3.83 0.00
 15 15 17 4.94 0.00
 1 17 17 -4.42 0.00
 3 17 17 2.67 0.00
 5 17 17 -5.87 0.00
 7 17 17 -1.82 0.00
 9 17 17 1.51 0.00
 11 17 17 4.86 0.00
 13 17 17 5.60 0.00
 15 17 17 1.78 0.00
 17 17 17 0.03 0.00
 6 8 18 0.88 0.00
 8 8 18 27.76 0.00
 0 10 18 6.64 0.00
 2 10 18 -3.02 0.00
 4 10 18 5.28 0.00
 6 10 18 -0.97 0.00
 8 10 18 -11.97 0.00
 10 10 18 2.89 0.00
 0 12 18 0.01 0.00
 2 12 18 -12.40 0.00
 4 12 18 8.94 0.00
 6 12 18 -1.11 0.00
 8 12 18 3.01 0.00
 10 12 18 6.96 0.00
 12 12 18 -5.61 0.00
 0 14 18 -12.10 0.00
 2 14 18 1.30 0.00
 4 14 18 -2.09 0.00
 6 14 18 -9.61 0.00
 8 14 18 1.22 0.00
 10 14 18 -0.69 0.00
 12 14 18 -4.05 0.00
 14 14 18 -0.08 0.00
 0 16 18 -2.79 0.00
 2 16 18 5.93 0.00
 4 16 18 -0.95 0.00
 6 16 18 -0.71 0.00
 8 16 18 -3.57 0.00
 10 16 18 -7.09 0.00
 12 16 18 3.15 0.00
 14 16 18 3.00 0.00
 16 16 18 -2.45 0.00
 0 18 18 17.41 0.00
 2 18 18 -10.62 0.00
 4 18 18 -0.54 0.00
 6 18 18 4.15 0.00
 8 18 18 -5.40 0.00
 10 18 18 0.46 0.00
 12 18 18 3.15 0.00
 14 18 18 -1.19 0.00
 16 18 18 -1.26 0.00
 18 18 18 -5.49 0.00
 5 7 19 -7.78 0.00
 7 7 19 21.76 0.00
 1 9 19 -4.01 0.00
 3 9 19 -4.73 0.00
 5 9 19 -2.81 0.00
 7 9 19 -3.45 0.00
 9 9 19 -2.33 0.00
 1 11 19 0.51 0.00
 3 11 19 10.76 0.00
 5 11 19 1.17 0.00
 7 11 19 -3.00 0.00
 9 11 19 10.31 0.00
 11 11 19 4.44 0.00
 1 13 19 0.15 0.00
 3 13 19 2.47 0.00
 5 13 19 4.13 0.00
 7 13 19 0.16 0.00
 9 13 19 -0.49 0.00
 11 13 19 -5.68 0.00
 13 13 19 6.87 0.00
 1 15 19 -0.37 0.00
 3 15 19 -5.31 0.00
 5 15 19 7.68 0.00
 7 15 19 2.05 0.00
 9 15 19 -2.36 0.00
 11 15 19 0.40 0.00
 13 15 19 -0.43 0.00
 15 15 19 3.37 0.00
 1 17 19 -0.88 0.00
 3 17 19 2.75 0.00
 5 17 19 -2.21 0.00
 7 17 19 -1.99 0.00
 9 17 19 -3.00 0.00
 11 17 19 0.15 0.00
 13 17 19 3.83 0.00
 15 17 19 -0.10 0.00
 17 17 19 -3.82 0.00
 1 19 19 1.30 0.00
 3 19 19 3.89 0.00
 5 19 19 -6.31 0.00
 7 19 19 6.38 0.00
 9 19 19 3.08 0.00
 11 19 19 -3.13 0.00
 13 19 19 -1.45 0.00
 15 19 19 -4.82 0.00
 17 19 19 0.93 0.00
 19 19 19 0.12 0.00
 4 4 20 3.05 0.00
 0 6 20 -9.51 0.00
 2 6 20 13.19 0.00
 4 6 20 3.65 0.00
 6 6 20 -12.70 0.00
 0 8 20 1.64 0.00
 2 8 20 4.06 0.00
 4 8 20 12.23 0.00
 6 8 20 -4.52 0.00
 8 8 20 -1.28 0.00
 0 10 20 3.37 0.00
 2 10 20 -3.44 0.00
 4 10 20 -8.62 0.00
 6 10 20 2.26 0.00
 8 10 20 2.46 0.00
 10 10 20 -2.65 0.00
 0 12 20 -0.54 0.00
 2 12 20 -0.47 0.00
 4 12 20 -1.83 0.00
 6 12 20 1.78 0.00
 8 12 20 4.74 0.00
 10 12 20 -1.96 0.00
 12 12 20 -1.20 0.00
 0 14 20 7.49 0.00
 2 14 20 -2.26 0.00
 4 14 20 8.69 0.00
 6 14 20 -0.08 0.00
 8 14 20 -2.34 0.00
 10 14 20 -5.71 0.00
 12 14 20 1.82 0.00
 14 14 20 9.17 0.00
 0 16 20 -5.33 0.00
 2 16 20 5.36 0.00
 4 16 20 3.35 0.00
 6 16 20 -1.49 0.00
 8 16 20 4.95 0.00
 10 16 20 5.02 0.00
 12 16 20 -1.93 0.00
 14 16 20 -0.21 0.00
 16 16 20 1.12 0.00
 0 18 20 -1.79 0.00
 2 18 20 -0.06 0.00
 4 18 20 -3.90 0.00
 6 18 20 0.91 0.00
 8 18 20 1.22 0.00
 10 18 20 1.76 0.00
 12 18 20 2.25 0.00
 14 18 20 -3.05 0.00
 16 18 20 -2.34 0.00
 18 18 20 3.74 0.00
 0 20 20 11.68 0.00
 2 20 20 -3.45 0.00
 4 20 20 1.64 0.00
 6 20 20 0.11 0.00
 8 20 20 -2.88 0.00
 10 20 20 4.25 0.00
 12 20 20 -0.51 0.00
 14 20 20 -0.85 0.00
 16 20 20 1.94 0.00
 18 20 20 2.94 0.00
 20 20 20 -4.35 0.00
 1 1 21 12.89 0.00
 1 3 21 11.08 0.00
 3 3 21 -12.74 0.00
 1 5 21 4.64 0.00
 3 5 21 -9.60 0.00
 5 5 21 -4.48 0.00
 1 7 21 -4.07 0.00
 3 7 21 -0.24 0.00
 5 7 21 5.11 0.00
 7 7 21 -10.49 0.00
 1 9 21 0.99 0.00
 3 9 21 -3.52 0.00
 5 9 21 1.81 0.00
 7 9 21 1.60 0.00
 9 9 21 1.53 0.00
 1 11 21 -0.36 0.00
 3 11 21 0.80 0.00
 5 11 21 1.05 0.00
 7 11 21 4.00 0.00
 9 11 21 -4.07 0.00
 11 11 21 -1.45 0.00
 1 13 21 -7.13 0.00
 3 13 21 1.97 0.00
 5 13 21 0.90 0.00
 7 13 21 0.81 0.00
 9 13 21 -4.90 0.00
 11 13 21 -5.21 0.00
 13 13 21 3.86 0.00
 1 15 21 3.50 0.00
 3 15 21 -4.19 0.00
 5 15 21 -8.02 0.00
 7 15 21 -3.21 0.00
 9 15 21 0.90 0.00
 11 15 21 5.56 0.00
 13 15 21 2.05 0.00
 15 15 21 -7.41 0.00
 1 17 21 4.59 0.00
 3 17 21 -3.83 0.00
 5 17 21 -0.27 0.00
 7 17 21 -4.42 0.00
 9 17 21 1.90 0.00
 11 17 21 4.40 0.00
 13 17 21 -3.89 0.00
 15 17 21 -3.23 0.00
 17 17 21 1.19 0.00
 1 19 21 -1.61 0.00
 3 19 21 -0.89 0.00
 5 19 21 2.82 0.00
 7 19 21 -0.55 0.00
 9 19 21 1.20 0.00
 11 19 21 -1.99 0.00
 13 19 21 -1.93 0.00
 15 19 21 1.04 0.00
 17 19 21 4.18 0.00
 19 19 21 -1.24 0.00
 1 21 21 -6.31 0.00
 3 21 21 4.82 0.00
 5 21 21 -2.73 0.00
 7 21 21 3.40 0.00
 9 21 21 -2.93 0.00
 11 21 21 -4.90 0.00
 13 21 21 2.26 0.00
 15 21 21 0.73 0.00
 17 21 21 0.17 0.00
 0 0 0 0.00 0.00
# SQUEEZE RESULTS (Version = 91117)
# Note: Data are Listed for all Voids in the P1 Unit Cell
# i.e. Centre of Gravity, Solvent Accessible Volume,
# Recovered number of Electrons in the Void and
# Details about the Squeezed Material
;
_platon_squeeze_void_probe_radius 1.20
_olex2_submission_original_sample_id UiO-67_22defect_DMF_100K
_olex2_submission_special_instructions 'No special instructions were received'
loop_
_space_group_symop_operation_xyz
'x, y, z'
'-y, x, z'
'-x, -y, z'
'y, -x, z'
'x, -z, y'
'x, -y, -z'
'x, z, -y'
'z, y, -x'
'-x, y, -z'
'-z, y, x'
'z, x, y'
'y, z, x'
'-y, -z, x'
'z, -x, -y'
'-y, z, -x'
'-z, -x, y'
'-z, x, -y'
'y, -z, -x'
'y, x, -z'
'-y, -x, -z'
'-x, z, y'
'-x, -z, -y'
'z, -y, x'
'-z, -y, -x'
'x, y+1/2, z+1/2'
'-y, x+1/2, z+1/2'
'-x, -y+1/2, z+1/2'
'y, -x+1/2, z+1/2'
'x, -z+1/2, y+1/2'
'x, -y+1/2, -z+1/2'
'x, z+1/2, -y+1/2'
'z, y+1/2, -x+1/2'
'-x, y+1/2, -z+1/2'
'-z, y+1/2, x+1/2'
'z, x+1/2, y+1/2'
'y, z+1/2, x+1/2'
'-y, -z+1/2, x+1/2'
'z, -x+1/2, -y+1/2'
'-y, z+1/2, -x+1/2'
'-z, -x+1/2, y+1/2'
'-z, x+1/2, -y+1/2'
'y, -z+1/2, -x+1/2'
'y, x+1/2, -z+1/2'
'-y, -x+1/2, -z+1/2'
'-x, z+1/2, y+1/2'
'-x, -z+1/2, -y+1/2'
'z, -y+1/2, x+1/2'
'-z, -y+1/2, -x+1/2'
'x+1/2, y, z+1/2'
'-y+1/2, x, z+1/2'
'-x+1/2, -y, z+1/2'
'y+1/2, -x, z+1/2'
'x+1/2, -z, y+1/2'
'x+1/2, -y, -z+1/2'
'x+1/2, z, -y+1/2'
'z+1/2, y, -x+1/2'
'-x+1/2, y, -z+1/2'
'-z+1/2, y, x+1/2'
'z+1/2, x, y+1/2'
'y+1/2, z, x+1/2'
'-y+1/2, -z, x+1/2'
'z+1/2, -x, -y+1/2'
'-y+1/2, z, -x+1/2'
'-z+1/2, -x, y+1/2'
'-z+1/2, x, -y+1/2'
'y+1/2, -z, -x+1/2'
'y+1/2, x, -z+1/2'
'-y+1/2, -x, -z+1/2'
'-x+1/2, z, y+1/2'
'-x+1/2, -z, -y+1/2'
'z+1/2, -y, x+1/2'
'-z+1/2, -y, -x+1/2'
'x+1/2, y+1/2, z'
'-y+1/2, x+1/2, z'
'-x+1/2, -y+1/2, z'
'y+1/2, -x+1/2, z'
'x+1/2, -z+1/2, y'
'x+1/2, -y+1/2, -z'
'x+1/2, z+1/2, -y'
'z+1/2, y+1/2, -x'
'-x+1/2, y+1/2, -z'
'-z+1/2, y+1/2, x'
'z+1/2, x+1/2, y'
'y+1/2, z+1/2, x'
'-y+1/2, -z+1/2, x'
'z+1/2, -x+1/2, -y'
'-y+1/2, z+1/2, -x'
'-z+1/2, -x+1/2, y'
'-z+1/2, x+1/2, -y'
'y+1/2, -z+1/2, -x'
'y+1/2, x+1/2, -z'
'-y+1/2, -x+1/2, -z'
'-x+1/2, z+1/2, y'
'-x+1/2, -z+1/2, -y'
'z+1/2, -y+1/2, x'
'-z+1/2, -y+1/2, -x'
'-x, -y, -z'
'y, -x, -z'
'x, y, -z'
'-y, x, -z'
'-x, z, -y'
'-x, y, z'
'-x, -z, y'
'-z, -y, x'
'x, -y, z'
'z, -y, -x'
'-z, -x, -y'
'-y, -z, -x'
'y, z, -x'
'-z, x, y'
'y, -z, x'
'z, x, -y'
'z, -x, y'
'-y, z, x'
'-y, -x, z'
'y, x, z'
'x, -z, -y'
'x, z, y'
'-z, y, -x'
'z, y, x'
'-x, -y+1/2, -z+1/2'
'y, -x+1/2, -z+1/2'
'x, y+1/2, -z+1/2'
'-y, x+1/2, -z+1/2'
'-x, z+1/2, -y+1/2'
'-x, y+1/2, z+1/2'
'-x, -z+1/2, y+1/2'
'-z, -y+1/2, x+1/2'
'x, -y+1/2, z+1/2'
'z, -y+1/2, -x+1/2'
'-z, -x+1/2, -y+1/2'
'-y, -z+1/2, -x+1/2'
'y, z+1/2, -x+1/2'
'-z, x+1/2, y+1/2'
'y, -z+1/2, x+1/2'
'z, x+1/2, -y+1/2'
'z, -x+1/2, y+1/2'
'-y, z+1/2, x+1/2'
'-y, -x+1/2, z+1/2'
'y, x+1/2, z+1/2'
'x, -z+1/2, -y+1/2'
'x, z+1/2, y+1/2'
'-z, y+1/2, -x+1/2'
'z, y+1/2, x+1/2'
'-x+1/2, -y, -z+1/2'
'y+1/2, -x, -z+1/2'
'x+1/2, y, -z+1/2'
'-y+1/2, x, -z+1/2'
'-x+1/2, z, -y+1/2'
'-x+1/2, y, z+1/2'
'-x+1/2, -z, y+1/2'
'-z+1/2, -y, x+1/2'
'x+1/2, -y, z+1/2'
'z+1/2, -y, -x+1/2'
'-z+1/2, -x, -y+1/2'
'-y+1/2, -z, -x+1/2'
'y+1/2, z, -x+1/2'
'-z+1/2, x, y+1/2'
'y+1/2, -z, x+1/2'
'z+1/2, x, -y+1/2'
'z+1/2, -x, y+1/2'
'-y+1/2, z, x+1/2'
'-y+1/2, -x, z+1/2'
'y+1/2, x, z+1/2'
'x+1/2, -z, -y+1/2'
'x+1/2, z, y+1/2'
'-z+1/2, y, -x+1/2'
'z+1/2, y, x+1/2'
'-x+1/2, -y+1/2, -z'
'y+1/2, -x+1/2, -z'
'x+1/2, y+1/2, -z'
'-y+1/2, x+1/2, -z'
'-x+1/2, z+1/2, -y'
'-x+1/2, y+1/2, z'
'-x+1/2, -z+1/2, y'
'-z+1/2, -y+1/2, x'
'x+1/2, -y+1/2, z'
'z+1/2, -y+1/2, -x'
'-z+1/2, -x+1/2, -y'
'-y+1/2, -z+1/2, -x'
'y+1/2, z+1/2, -x'
'-z+1/2, x+1/2, y'
'y+1/2, -z+1/2, x'
'z+1/2, x+1/2, -y'
'z+1/2, -x+1/2, y'
'-y+1/2, z+1/2, x'
'-y+1/2, -x+1/2, z'
'y+1/2, x+1/2, z'
'x+1/2, -z+1/2, -y'
'x+1/2, z+1/2, y'
'-z+1/2, y+1/2, -x'
'z+1/2, y+1/2, x'
loop_
_atom_site_label
_atom_site_type_symbol
_atom_site_fract_x
_atom_site_fract_y
_atom_site_fract_z
_atom_site_U_iso_or_equiv
_atom_site_adp_type
_atom_site_occupancy
_atom_site_site_symmetry_order
_atom_site_calc_flag
_atom_site_refinement_flags_posn
_atom_site_refinement_flags_adp
_atom_site_refinement_flags_occupancy
_atom_site_disorder_assembly
_atom_site_disorder_group
Zr1 Zr 1.000000 0.500000 0.59245(10) 0.0709(14) Uani 1 8 d DS T P . .
O3 O 1.0732(6) 0.500000 0.6319(5) 0.082(8) Uani 0.77 2 d S T P A 1
C1 C 1.1166(11) 0.500000 0.6166(11) 0.068(10) Uani 0.77 4 d S TU P A 1
C2 C 1.1574(8) 0.500000 0.6574(8) 0.096(10) Uani 0.77 4 d S TU P A 1
C5 C 1.2298(7) 0.500000 0.7298(7) 0.145(12) Uani 0.77 4 d S TU P A 1
C3 C 1.1423(7) 0.500000 0.7044(8) 0.139(8) Uani 0.77 2 d S TU P A 1
H3 H 1.107480 0.500000 0.711934 0.167 Uiso 0.77 2 calc RS T P A 1
C4 C 1.1774(7) 0.500000 0.7430(9) 0.167(9) Uani 0.77 2 d S TU P A 1
H4 H 1.167072 0.500000 0.777035 0.200 Uiso 0.77 2 calc RS T P A 1
O1 O 1.0415(10) 0.5415(10) 0.5415(10) 0.078(6) Uani 0.5 6 d S TU P B 1
O2 O 1.0494(10) 0.5494(10) 0.5494(10) 0.078(6) Uani 0.5 6 d S TU P B 2
H2 H 1.067301 0.567301 0.567301 0.100 Uiso 0.5 6 d S T P C 2
O0AA O 1.063(3) 0.500000 0.645(3) 0.100 Uiso 0.23 2 d DS T P A 1
loop_
_atom_site_aniso_label
_atom_site_aniso_U_11
_atom_site_aniso_U_22
_atom_site_aniso_U_33
_atom_site_aniso_U_23
_atom_site_aniso_U_13
_atom_site_aniso_U_12
Zr1 0.0739(17) 0.0739(17) 0.065(2) 0.000 0.000 0.000
O3 0.079(13) 0.110(10) 0.057(16) 0.000 0.000(17) 0.000
C1 0.050(13) 0.10(2) 0.050(13) 0.000 0.02(2) 0.000
C2 0.042(11) 0.21(3) 0.042(11) 0.000 0.018(16) 0.000
C5 0.086(15) 0.26(3) 0.086(15) 0.000 -0.05(2) 0.000
C3 0.031(16) 0.31(2) 0.072(16) 0.000 -0.023(12) 0.000
C4 0.057(16) 0.36(3) 0.086(17) 0.000 -0.025(13) 0.000
O1 0.078(6) 0.078(6) 0.078(6) -0.001(4) -0.001(4) -0.001(4)
O2 0.078(6) 0.078(6) 0.078(6) -0.001(4) -0.001(4) -0.001(4)
loop_
_atom_type_symbol
_atom_type_description
_atom_type_scat_dispersion_real
_atom_type_scat_dispersion_imag
_atom_type_scat_source
C C 0.0181 0.0091 'International Tables Vol C Tables 4.2.6.8 and 6.1.1.4'
H H 0.0000 0.0000 'International Tables Vol C Tables 4.2.6.8 and 6.1.1.4'
O O 0.0492 0.0322 'International Tables Vol C Tables 4.2.6.8 and 6.1.1.4'
Zr Zr -0.1862 2.2449 'International Tables Vol C Tables 4.2.6.8 and 6.1.1.4'
loop_
_geom_angle_atom_site_label_1
_geom_angle_atom_site_label_2
_geom_angle_atom_site_label_3
_geom_angle
_geom_angle_site_symmetry_1
_geom_angle_site_symmetry_3
O1 Zr1 O1 98(3) 3_765 .
O1 Zr1 O1 64.6(14) . 74_645
O1 Zr1 O1 64.6(14) 3_765 74_645
O1 Zr1 O1 64.6(14) 3_765 76_565
O1 Zr1 O1 64.6(14) . 76_565
O1 Zr1 O1 98(3) 76_565 74_645
O1 Zr1 O2 107.5(8) 74_645 76_565
O1 Zr1 O2 69.9(4) . 76_565
O1 Zr1 O2 69.9(4) 3_765 76_565
O1 Zr1 O2 69.9(4) . 74_645
O1 Zr1 O2 9(2) 76_565 76_565
O1 Zr1 O2 9(2) 74_645 74_645
O1 Zr1 O2 69.9(4) 3_765 74_645
O1 Zr1 O2 9(2) 3_765 3_765
O1 Zr1 O2 107.5(8) 76_565 74_645
O1 Zr1 O2 107.5(8) . 3_765
O1 Zr1 O2 69.9(4) 76_565 3_765
O1 Zr1 O2 69.9(4) 74_645 3_765
O1 Zr1 O0AA 146.1(9) 74_645 76_565
O1 Zr1 O0AA 146.1(9) 74_645 .
O1 Zr1 O0AA 91(3) 74_645 74_645
O1 Zr1 O0AA 91(3) 3_765 3_765
O1 Zr1 O0AA 91(3) . 74_645
O1 Zr1 O0AA 146.1(9) . 3_765
O1 Zr1 O0AA 146.1(9) . 76_565
O1 Zr1 O0AA 146.1(9) 76_565 3_765
O1 Zr1 O0AA 146.1(9) 3_765 74_645
O1 Zr1 O0AA 91(3) 74_645 3_765
O1 Zr1 O0AA 91(3) 76_565 76_565
O1 Zr1 O0AA 146.1(9) 3_765 .
O1 Zr1 O0AA 91(3) 3_765 76_565
O1 Zr1 O0AA 91(3) . .
O1 Zr1 O0AA 91(3) 76_565 .
O1 Zr1 O0AA 146.1(9) 76_565 74_645
O2 Zr1 O2 117(2) 3_765 .
O2 Zr1 O2 74.0(11) 76_565 .
O2 Zr1 O2 74.0(11) 3_765 76_565
O2 Zr1 O2 74.0(11) 74_645 .
O0AA Zr1 O2 143.0(5) 74_645 76_565
O0AA Zr1 O2 143.0(5) . 74_645
O0AA Zr1 O2 143.0(5) 76_565 74_645
O0AA Zr1 O2 143.0(5) . 3_765
O0AA Zr1 O2 83(2) 74_645 74_645
O0AA Zr1 O2 83(2) 76_565 76_565
O0AA Zr1 O2 83(2) 3_765 3_765
O0AA Zr1 O2 83(2) 3_765 74_645
O0AA Zr1 O2 143.0(5) 3_765 76_565
O0AA Zr1 O2 143.0(5) 74_645 3_765
O0AA Zr1 O2 83(2) 76_565 3_765
O0AA Zr1 O2 83(2) . 76_565
O0AA Zr1 O0AA 66(3) 74_645 3_765
O0AA Zr1 O0AA 100(6) 74_645 76_565
O0AA Zr1 O0AA 66(3) . 76_565
O0AA Zr1 O0AA 66(3) 76_565 3_765
O0AA Zr1 O0AA 100(6) . 3_765
O0AA Zr1 O0AA 66(3) . 74_645
C1 O3 Zr1 132(2) . .
O3 C1 O3 129(4) 71_564 .
O3 C1 C2 116(2) 71_564 .
O3 C1 C2 116(2) . .
O3 C1 O0AA 137(4) . 71_564
O3 C1 O0AA 8.4(17) . .
O3 C1 O0AA 137(4) 71_564 .
O3 C1 O0AA 8.4(17) 71_564 71_564
C2 C1 O0AA 107(3) . 71_564
C2 C1 O0AA 107(3) . .
O0AA C1 O0AA 146(5) 71_564 .
C3 C2 C1 117.1(16) 71_564 .
C3 C2 C1 117.1(16) . .
C3 C2 C3 126(3) 71_564 .
C4 C5 C5 120.9(15) . 145_766
C4 C5 C5 120.9(15) 71_564 145_766
C4 C5 C4 118(3) . 71_564
C2 C3 C4 120(2) . .
C3 C4 C5 118(2) . .
Zr1 O1 Zr1 114.5(10) 101_756 56_556
Zr1 O1 Zr1 114.5(10) . 101_756
Zr1 O1 Zr1 114.5(10) . 56_556
Zr1 O2 Zr1 105.6(13) . 56_556
Zr1 O2 Zr1 105.6(13) 56_556 101_756
Zr1 O2 Zr1 105.6(13) . 101_756
C1 O0AA Zr1 112(5) . .
loop_
_geom_bond_atom_site_label_1
_geom_bond_atom_site_label_2
_geom_bond_distance
_geom_bond_site_symmetry_2
Zr1 O1 2.074(12) 3_765
Zr1 O1 2.074(12) 76_565
Zr1 O1 2.074(12) .
Zr1 O1 2.074(12) 74_645
Zr1 O2 2.190(19) 76_565
Zr1 O2 2.190(19) 3_765
Zr1 O2 2.190(19) .
Zr1 O2 2.190(19) 74_645
Zr1 O0AA 2.18(2) 76_565
Zr1 O0AA 2.18(2) .
Zr1 O0AA 2.18(2) 74_645
Zr1 O0AA 2.18(2) 3_765
O3 C1 1.23(3) .
C1 C2 1.54(5) .
C1 O0AA 1.62(9) 71_564
C1 O0AA 1.62(9) .
C2 C3 1.32(2) 71_564
C2 C3 1.32(2) .
C5 C5 1.52(5) 145_766
C5 C4 1.44(2) 71_564
C5 C4 1.44(2) .
C3 C4 1.39(2) .
loop_
_platon_squeeze_void_nr
_platon_squeeze_void_average_x
_platon_squeeze_void_average_y
_platon_squeeze_void_average_z
_platon_squeeze_void_volume
_platon_squeeze_void_count_electrons
_platon_squeeze_void_content
1 0.328 -0.008 -0.005 12833 2419 ' '
loop_
_refln_index_h
_refln_index_k
_refln_index_l
_refln_F_squared_meas
_refln_F_squared_sigma
1 1 -1 997.15 43.89
1 1 1 1000 43.88
1 1 1 901.08 43.85
-1 1 1 917.64 43.87
0 0 2 777.01 36.26
2 0 0 781.92 36.25
0 2 0 805.45 36.26
0 2 -2 263.09 12.1
-2 0 2 255.18 12.07
-2 2 0 252.81 12.06
0 2 2 248.54 12.07
2 0 2 266.3 12.04
2 2 0 279.57 12.11
2 0 -2 262.6 12.07
2 2 2 243.08 11.21
2 2 -2 251.08 11.23
2 2 2 238.97 11.17
-2 2 2 233.19 11.2
3 1 1 112.61 5.05
1 1 3 102.48 5.02
-3 -1 1 105.87 5
-3 1 1 104.43 5.01
1 3 -1 113.34 5.07
1 3 1 112.1 5.05
3 -1 -1 102.54 4.98
3 1 -1 111.27 5.05
-1 3 -1 103.15 5.02
-1 3 1 107.38 4.99
-1 3 1 104.81 5.04
-1 1 3 106.85 5.04
-1 -1 3 108 5.05
3 1 -3 28.1 1.52
1 3 3 28.55 1.49
3 1 3 26.44 1.4
-3 -1 3 27.93 1.49
1 3 -3 26.93 1.54
-3 3 1 28.31 1.5
-1 3 3 26.74 1.53
1 3 3 26.33 1.5
3 3 1 29.99 1.56
-3 1 3 27.95 1.52
3 3 -1 27.95 1.55
3 3 3 57.85 2.84
-3 -3 -3 54.69 3.08
3 3 3 55.55 2.75
-3 3 3 53.42 2.82
3 3 -3 57.88 2.89
-3 -3 3 57.98 3.17
0 4 0 84.66 4.02
0 0 4 84.53 4.03
4 0 0 84.22 4.01
2 4 0 0.57 0.47
-2 4 0 0.63 0.36
4 0 2 0.52 0.42
-4 0 2 1.03 0.44
0 2 4 0.22 0.35
-4 2 0 0.44 0.36
-2 0 4 0.81 0.49
0 4 2 0.36 0.43
2 0 4 0.36 0.45
4 -2 0 0.44 0.34
0 4 2 0.72 0.39
0 4 -2 0.61 0.44
4 0 -2 0.24 0.39
4 2 0 0.43 0.44
2 2 4 1.47 0.4
-4 -2 2 2.85 0.51
-2 4 2 3.1 0.55
4 2 -2 2 0.58
4 2 2 2.76 0.61
-2 -4 2 3.29 0.94
-2 -2 -4 2.89 0.96
-2 -2 4 2.38 0.54
-2 2 4 1.38 0.45
2 4 -2 1.69 0.58
2 4 2 2.59 0.67
-4 -2 -2 2.94 0.81
-2 -4 -2 1.69 0.95
2 2 -4 1.76 0.58
-4 2 2 4.09 0.76
-2 4 2 2.04 0.45
4 0 4 13.22 0.98
-4 0 4 12.34 1.11
0 4 4 10.49 1.1
-4 -4 0 13.65 1.5
4 0 -4 11.92 0.99
4 4 0 10.62 1.12
-4 0 -4 14.33 1.82
0 4 4 12.69 0.98
-4 -2 -4 54.38 3.17
-4 -4 -2 51.98 3.09
-4 -4 2 53.51 3.11
2 4 4 54.08 2.79
-4 -2 4 56.92 2.81
-4 2 4 55.51 2.83
-4 4 2 53.84 2.81
-2 4 4 54.27 2.83
2 4 -4 54.88 2.88
2 4 4 56.65 2.84
4 2 4 50.91 2.71
4 2 -4 56.99 2.87
4 2 4 54.42 2.84
4 4 -2 56.22 2.86
4 4 2 59.91 2.9
-2 -4 -4 56.97 3.15
4 4 4 28.34 1.79
-4 -4 4 26.62 2.18
4 4 4 29.48 1.68
-4 -4 -4 28.58 2.1
-4 4 4 27.07 1.77
4 4 -4 30.22 1.88
1 5 -1 18.66 1.33
1 -1 5 20.31 1.31
-1 -5 1 19.17 1.86
5 -1 -1 19.86 1.22
5 -1 1 20.25 1.25
5 1 -1 21.34 1.31
1 5 1 21.94 1.33
1 1 5 20.73 1.33
-5 -1 1 20.92 1.22
-5 1 1 21.95 1.26
-1 -1 5 21.31 1.32
-1 1 5 21.5 1.36
-1 5 -1 20.59 1.33
-1 5 1 23.9 1.3
5 1 1 22.39 1.31
-5 1 3 88.64 4.37
-3 5 1 84.53 4.39
-5 -1 -3 86.78 4.62
1 5 3 92.58 4.4
5 1 -3 83.09 4.43
1 5 3 95.98 4.42
-3 -1 5 94.18 4.45
-1 -3 -5 88.18 4.77
3 5 -1 94.73 4.46
-5 -3 1 86.62 4.59
-1 3 5 89.81 4.41
3 1 5 89.58 4.36
5 3 1 101.25 4.5
-3 -5 -1 88.48 4.58
5 3 -1 96.28 4.47
-5 3 1 89.99 4.36
-5 -1 3 88.71 4.37
-5 -1 3 84.91 4.66
5 -1 -3 87.06 4.35
-5 1 -3 82.59 4.68
5 1 3 96.09 4.45
-3 -1 -5 90.59 4.71
-1 5 3 89.11 4.41
-3 -5 1 96.04 4.62
3 -1 5 91.87 4.37
-1 -5 -3 93.39 4.64
-3 1 5 95.41 4.43
-5 -3 -1 90.09 4.59
3 5 1 94.36 4.45
1 5 -3 92.81 4.46
1 3 5 90.95 4.41
-1 5 3 91.42 4.35
3 5 -3 47.95 2.54
3 5 3 45.37 2.46
5 3 -3 42.45 2.44
3 3 5 49.08 2.47
3 3 5 45.6 2.39
-3 5 3 46.73 2.45
-3 -3 -5 41.96 2.85
5 3 3 48.75 2.5
-3 -5 3 44.48 2.85
-5 -3 3 46.43 2.4
-5 -3 -3 42.92 2.76
-5 -3 3 47.44 2.77
-3 -5 -3 37.39 2.76
-5 3 3 47.32 2.44
-3 -3 5 45.69 2.46
-3 3 5 47.52 2.45
-3 5 3 43.12 2.27
3 3 -5 47.32 2.49
-5 1 5 59.88 2.98
1 -5 -5 63.87 3.58
-5 5 1 56 2.93
-1 5 5 58.6 2.98
-5 -5 -1 53.41 3.17
-1 5 5 58.4 2.9
1 5 5 58.91 2.96
5 1 -5 57.91 2.97
5 5 -1 58.59 3.05
5 5 1 58.36 3.02
1 5 5 57.59 2.95
-5 -5 1 55.34 3.23
-5 -1 -5 52.38 3.36
-5 -1 5 56.94 2.94
-1 -5 -5 59.67 3.41
5 -1 5 54.84 2.86
5 1 5 51.53 2.82
-5 -3 -5 136.54 7
3 5 -5 145.74 6.85
-5 -5 -3 131.13 6.96
-5 -5 3 136.34 6.96
-5 -3 5 145.8 6.78
-5 5 3 144.43 6.77
-3 5 5 140.61 6.77
3 5 5 138.6 6.72
5 3 5 138.08 6.67
5 5 3 146.58 6.84
5 3 5 141.73 6.82
-5 -3 5 143.16 6.97
-3 -5 -5 136.58 7
3 5 5 149.82 6.81
5 5 -3 139.91 6.86
5 3 -5 146.78 6.84
-5 5 5 174.78 8.38
5 5 5 181.24 8.45
-5 -5 5 172.28 8.58
-5 -5 -5 169.6 8.6
5 5 -5 182.17 8.48
5 5 5 174.81 8.31
6 0 0 605.15 27.23
0 6 0 577.29 27.23
0 0 6 584.54 27.23
6 2 0 9.11 1.04
-6 2 0 8.85 0.91
6 -2 0 7.81 0.98
-2 6 0 10.01 1
2 6 0 10.1 1.15
-2 0 6 8.38 1.14
6 0 2 9.93 1.07
0 -2 6 9.51 1.12
0 2 6 9.53 1.09
-6 -2 0 8.42 1.5
0 6 -2 10.79 1.13
0 6 2 10.27 0.96
2 0 6 8.95 1.13
-2 -6 0 10.59 1.56
0 -6 2 9.42 1.26
-6 0 2 9.07 1.03
6 0 -2 9.83 0.96
-6 0 -2 11.25 1.64
2 -2 6 9.17 1.13
6 2 -2 8.04 1.1
6 -2 -2 7.93 0.96
-2 2 6 11.66 1.13
-2 6 2 8.44 1.1
6 2 2 11.23 1.08
2 6 2 9.31 1.11
-2 -2 6 11.94 1.12
-6 -2 2 9.54 0.91
-2 -6 2 7.33 1.2
-2 -6 -2 13.19 1.65
6 -2 2 9.76 0.97
-6 -2 -2 8.51 1.6
-6 -2 2 11.01 1.63
2 2 6 9.17 1.07
2 6 -2 7.74 1.02
-6 2 2 8.63 1.03
-2 6 2 9.76 0.89
0 4 6 29.73 1.83
-6 0 4 34.54 2.32
6 0 4 30.21 1.83
4 6 0 31.62 1.88
6 0 -4 27.4 1.81
0 6 4 28.9 1.75
-6 0 4 30.33 1.8
-6 -4 0 27.33 2.1
0 6 -4 29.04 1.83
-4 -6 0 29.05 2.13
6 4 0 31.19 1.91
4 0 6 29.4 1.8
-4 0 6 29.56 1.84
0 6 4 29.78 1.79
0 -6 -4 27.74 2.4
-4 -6 -2 35.83 2.53
6 4 2 41.38 2.3
-2 -6 4 37.64 2.74
4 6 -2 38.31 2.29
2 6 4 40.52 2.19
6 2 -4 41.64 2.33
4 2 6 37.33 2.12
-6 2 4 38.17 2.18
-6 -4 2 40.18 2.55
-2 4 6 39.15 2.26
-6 -2 -4 35.36 2.61
-4 6 2 39.03 2.17
2 6 4 42 2.22
-2 -4 -6 40.68 2.8
-4 -2 6 40.17 2.22
-2 6 4 40.52 2.11
-4 2 6 38.05 2.2
-2 6 4 39.81 2.21
4 6 2 41.43 2.28
-6 -2 4 40.34 2.23
-4 -2 -6 38.91 2.8
-6 -2 4 32.14 2.63
2 6 -4 39.56 2.28
-4 -6 2 37.62 2.62
6 4 -2 42.49 2.3
-6 4 2 41.33 2.2
-2 -6 -4 39.56 2.63
-6 -4 -2 32.44 2.54
2 4 6 40.52 2.22
4 -2 6 36.93 2.19
6 2 4 42.15 2.29
4 6 -4 55.91 3.1
4 6 4 56.78 3.03
4 4 -6 58.98 3.09
4 4 6 57.1 3.08
-4 -4 -6 53.09 3.44
-6 -4 -4 54.64 3.26
-6 -4 4 53.64 3.33
-4 -6 -4 55.13 3.36
-4 -6 4 55.59 3.39
-6 -4 4 56.81 2.98
-6 4 4 58.11 2.99
-4 -4 6 56.01 3.03
-4 4 6 56.84 3.02
-4 6 4 57.78 3.01
4 4 6 57.28 2.94
6 4 -4 59.03 3.11
6 4 4 58.18 3.07
6 0 6 55.21 2.95
0 -6 -6 56.4 3.68
0 6 6 58.89 3.03
-6 -6 0 53.51 3.27
-6 0 6 59.58 3.05
6 6 0 59.91 3.15
0 6 6 59.82 3.02
-6 0 -6 54 3.49
6 2 -6 142.67 6.82
2 6 -6 143.38 6.84
2 6 6 144.21 6.78
-2 -6 -6 146.21 7.08
-6 -2 -6 130.95 7.04
-6 -2 6 138.42 6.98
-2 6 6 139.21 6.68
2 6 6 141.97 6.74
6 -2 6 134.97 6.69
-6 -2 6 143.36 6.76
-6 2 6 142.13 6.77
-6 6 2 137.72 6.72
-2 6 6 140.05 6.76
-6 -6 -2 123.42 6.89
-6 -6 2 140.7 6.95
6 2 6 144.84 6.85
6 6 -2 144.09 6.85
6 6 2 145.2 6.85
-6 -6 -4 133.81 6.84
-6 -6 4 136.38 6.85
-6 -4 -6 138.12 6.9
-6 -4 6 131.03 6.83
-4 -6 -6 127.61 6.89
-4 -6 6 137.63 6.89
6 6 4 136.43 6.71
6 4 6 137.54 6.69
-4 6 6 140.68 6.64
4 6 6 135.16 6.58
6 4 6 131.12 6.53
-6 -4 6 136.75 6.63
-6 4 6 137.75 6.63
-6 6 4 136.38 6.63
-4 6 6 132.92 6.5
4 6 -6 140.87 6.74
4 6 6 144.52 6.71
6 4 -6 141.93 6.74
6 6 -4 140.84 6.74
-6 -6 6 271.87 14.1
-6 -6 -6 304.52 14.18
6 6 -6 303.51 14.05
6 6 6 301.41 14.04
-6 -6 6 293.57 13.93
-6 6 6 300.61 13.94
1 7 -1 115.74 5.43
1 7 1 114.82 5.38
7 -1 -1 107.04 5.31
7 -1 1 100.78 5.32
-1 7 -1 110.25 5.36
-1 7 1 110.39 5.33
-7 -1 1 114.81 5.25
-7 1 1 110.17 5.27
-1 -1 7 113.27 5.4
-1 1 7 112.59 5.38
1 -1 7 117.78 5.4
1 1 7 107.95 5.36
1 -7 1 112.64 5.61
-1 -7 1 104.62 5.56
-1 -7 -1 112.19 5.53
-7 -1 -1 110.33 5.56
-7 -1 1 107.27 5.51
-7 1 -1 100.3 5.53
7 1 1 118.11 5.4
7 1 -1 112.06 5.38
-1 7 -3 4.72 0.83
-7 1 3 3.03 0.68
-7 -3 1 2.84 1
-7 -3 1 3.47 0.64
-3 -7 -1 4.32 1.13
-3 -1 7 3.31 0.79
-1 3 7 3.16 0.72
1 7 3 2.92 0.8
1 -7 -3 3.57 1.21
-7 -1 -3 4.31 1.1
7 1 -3 2.46 0.74
-3 7 1 3.68 0.73
3 7 -1 3.64 0.86
1 -3 7 2.69 0.79
3 1 7 2.92 0.79
7 -1 3 3.57 0.9
7 3 1 4.45 0.87
-1 -7 3 5.51 1.21
-1 7 3 2.36 0.7
-1 -3 7 2.9 0.76
-7 -1 3 2.73 1.06
-7 -1 3 3.72 0.77
1 3 7 3.33 0.69
-7 -3 -1 3.52 1
7 1 3 3.66 0.9
-1 -7 -3 2.88 1.15
3 7 1 3.23 0.77
-7 1 -3 2.24 1.14
-7 3 1 3.26 0.68
-3 -7 1 2.28 1.03
1 7 -3 3.43 0.95
-1 7 3 2.39 0.71
7 -3 1 2 0.71
7 3 -1 2.63 0.71
-3 1 7 3.7 0.76
3 -1 7 2.89 0.85
7 -1 -3 3.75 0.89
3 3 7 1.41 0.6
-3 7 3 3.06 0.69
-3 -3 7 2.46 0.71
-3 3 7 2.81 0.75
-3 7 3 1.59 0.61
-7 -3 -3 1.94 0.96
-7 -3 3 2.46 1.03
-3 -7 -3 2.63 1.11
-3 -7 3 4.11 1.15
-3 -3 -7 3.33 1.18
3 7 -3 2.62 0.91
-7 -3 3 2.81 0.67
-7 3 3 2.17 0.75
7 3 3 2.66 0.83
7 3 -3 1.29 0.78
3 7 3 2.5 0.9
3 -3 7 2.95 0.8
-1 5 7 10.85 1.33
1 -7 -5 14.59 2.45
5 1 7 14.27 1.33
7 5 1 10.79 1.42
-7 -5 1 14.68 1.77
-7 -1 -5 10.19 2
1 7 5 14.72 1.27
1 7 5 13.15 1.29
-5 -1 7 12 1.35
5 7 -1 12.86 1.4
-7 1 5 13.77 1.31
-7 1 5 12.16 2.14
7 1 -5 12.66 1.4
-1 -5 -7 11.94 2.32
-5 -7 -1 11.11 1.76
-7 5 1 11.55 1.24
-1 7 5 11.72 1.25
1 5 7 11.93 1.29
-7 1 -5 10.75 2.06
7 5 -1 8.95 1.44
-7 -1 5 10.83 1.94
-5 -7 1 11.94 1.74
1 5 7 12.6 1.34
-5 1 7 13.27 1.35
-1 -7 -5 10.35 2.09
-1 7 5 11.6 1.23
7 -5 1 9.99 1.21
-7 -1 5 12.37 1.33
-7 -5 -1 10.51 1.8
5 -1 7 13.1 1.44
7 1 5 12.57 1.3
5 7 1 13.14 1.38
1 7 -5 15.19 1.37
5 7 -3 45.82 2.77
5 3 7 49.76 2.82
-7 3 5 49.44 2.73
-7 -5 3 45.45 3.06
-7 -3 -5 50.48 3.12
-5 -3 7 49.28 2.71
3 7 5 49.63 2.75
7 3 -5 50.7 2.85
-3 -5 -7 47.83 3.34
-3 -7 5 49.85 3.14
3 7 5 51.13 2.71
-3 5 7 51.59 2.73
-5 -7 -3 48.28 3.06
7 5 3 46.71 2.82
-5 7 3 48.98 2.69
5 3 7 46.92 2.68
5 -3 7 49.95 2.77
-7 5 3 47.91 2.69
-5 -7 3 47.3 3.08
-5 -3 -7 47.32 3.27
5 7 3 51.52 2.83
3 5 7 48.15 2.75
7 3 5 49.97 2.82
-7 -3 5 48.31 2.67
-7 -5 -3 48.01 3.1
3 7 -5 47.76 2.83
-3 -5 7 49.9 2.77
-3 -7 -5 46.54 3.07
3 5 7 47.89 2.7
-3 7 5 52.12 2.66
-7 -3 5 48.42 3.11
-3 7 5 47.65 2.71
7 5 -3 49.57 2.83
-5 -7 5 118.43 5.97
5 5 -7 116.78 5.77
5 5 7 116.96 5.74
5 7 -5 113.34 5.79
5 7 5 123.52 5.78
7 5 -5 117.37 5.79
7 5 5 111.39 5.75
-5 5 7 113.6 5.67
-5 7 5 115.75 5.66
5 5 7 109.56 5.6
-7 -5 5 115.13 5.64
-7 5 5 115 5.66
-5 -5 7 111.7 5.68
-5 -7 -5 107.12 5.89
-7 -5 5 115.09 5.9
-7 -5 -5 113.16 5.93
-7 -7 -1 12.56 1.87
1 7 7 10.23 1.4
7 7 -1 11.21 1.55
7 7 1 11.67 1.55
-1 -7 -7 12.31 2.52
-1 7 7 11.14 1.42
1 7 7 12.05 1.45
7 1 7 9.66 1.52
-7 -1 7 11.55 1.45
-7 1 7 11.48 1.44
-1 7 7 12 1.4
-7 -1 -7 10.93 2.17
7 -1 7 11.99 1.6
-7 -7 1 13.58 1.85
-7 -1 7 13.25 2.2
-7 -3 7 44.31 2.62
-3 7 7 45.97 2.6
7 3 -7 43.3 2.7
-7 7 3 43.7 2.56
3 7 7 46.08 2.68
-7 3 7 45.41 2.61
-3 7 7 43.41 2.54
-7 -7 -3 44.17 2.97
-7 -7 3 40.56 2.99
-7 -3 -7 39.2 3.17
-7 -3 7 45.77 3.01
-3 -7 -7 45.52 3.22
3 7 7 44.02 2.58
7 -3 7 39.53 2.68
7 7 3 45.14 2.74
7 7 -3 44.4 2.76
7 3 7 46.58 2.72
-7 -5 7 170.93 8.51
-7 -5 -7 169.5 8.58
-5 7 7 158.82 8.12
5 7 -7 171.78 8.41
5 7 7 170.12 8.37
7 5 -7 178.41 8.42
7 5 7 175.89 8.4
7 7 -5 171.07 8.42
7 7 5 176.46 8.41
5 7 7 173.48 8.24
-5 -7 -7 177.2 8.61
-5 -7 7 167.88 8.52
-7 5 7 170.77 8.29
-7 7 5 172.37 8.28
-5 7 7 168.64 8.28
-7 -7 5 170.07 8.51
-7 -5 7 169.78 8.28
-7 -7 -5 168.09 8.5
7 7 7 252.49 12.48
-7 -7 7 261.86 12.38
-7 -7 -7 265.15 12.65
-7 -7 7 258.91 12.56
-7 7 7 256.67 12.36
7 7 -7 261.22 12.5
0 8 0 631.23 28.58
8 0 0 614.68 28.54
0 -8 0 595.47 28.6
0 0 8 625.12 28.55
-8 0 0 614.8 28.59
8 0 2 16.3 1.37
8 -2 0 15.33 1.35
8 2 0 15.92 1.49
-2 0 8 17.89 1.45
0 8 -2 16.19 1.46
8 0 -2 15.22 1.41
0 -8 -2 19.39 2.11
0 -8 2 18.13 2.15
0 8 2 16.65 1.36
-8 0 2 13.8 1.33
0 -2 8 15.02 1.39
0 2 8 16.67 1.46
-8 0 -2 13.07 2.02
-8 2 0 14.82 1.19
-2 -8 0 14.29 1.87
2 -8 0 13.89 2.2
-8 -2 0 13.41 1.89
-2 8 0 14.31 1.38
2 0 8 15.75 1.46
-8 0 2 14.94 1.93
2 8 0 15.88 1.47
-8 2 -2 16.96 2.39
-8 -2 -2 21.72 2.11
-2 -8 2 23.18 2.2
8 -2 2 24.6 1.65
8 2 -2 23.88 1.72
8 2 2 23.74 1.78
2 -8 2 25.73 2.47
-2 -8 -2 22.91 2.17
-8 -2 2 22.87 2.05
-2 8 -2 23.48 1.57
-2 8 2 22.33 1.59
2 8 2 24.92 1.7
8 -2 -2 19.88 1.56
2 -2 8 24.88 1.66
2 2 8 22.49 1.66
-2 2 8 21.02 1.69
-8 2 2 24.41 1.6
-2 -2 8 22.78 1.64
2 8 -2 22.58 1.79
-8 -2 2 20.22 1.58
0 8 -4 4.44 0.97
-8 0 4 6.41 1.28
0 8 4 5.47 0.89
-4 -8 0 3.9 1.15
0 -4 8 4.45 0.97
-8 0 -4 5.72 1.32
-8 0 4 4.12 0.87
8 0 4 3.62 1
8 4 0 4.81 0.94
0 -8 4 3.8 1.26
4 8 0 4.66 1.08
8 0 -4 5.01 1.07
0 8 4 4.13 0.93
4 0 8 4.9 0.97
0 4 8 2.86 0.7
-4 0 8 4.85 0.92
0 -8 -4 4.33 1.28
-8 -4 0 4.43 1.08
2 -8 -4 11.46 2.56
8 -2 4 6.63 1.26
4 2 8 7.67 1.3
-2 4 8 7.93 1.19
-8 -4 2 7.14 1.18
-8 -4 2 8.75 1.2
-4 -2 8 7.1 1.3
-4 -8 -2 5.84 1.21
8 2 -4 7.07 1.38
-8 -2 -4 6.37 1.23
-2 -8 4 4.59 1.31
4 8 -2 6.45 1.27
2 8 4 7.81 1.37
-8 2 4 8.9 1.31
2 -4 8 6.83 1.33
8 4 2 6.93 1.41
8 -2 -4 6.39 1.12
-8 -2 4 6.4 1.25
8 -4 2 7.1 1.23
-8 4 2 8.56 1.2
-8 -2 4 5.88 1.28
-2 -4 8 9.03 1.32
4 -2 8 4.63 0.9
4 8 2 6.6 1.33
-2 -8 -4 7.04 1.32
-4 -8 2 10.29 1.9
-4 2 8 7.49 1.22
8 2 4 7.18 1.31
-8 -4 -2 6.36 1.25
2 4 8 7.46 1.32
2 8 -4 6.57 1.31
-2 8 4 8.39 1.16
-2 8 4 7.04 1.19
8 4 -2 7.21 1.31
-4 -8 4 6.94 1.38
-4 8 4 9.19 1.29
4 -4 8 9.97 1.45
-8 -4 -4 9.14 1.82
4 8 -4 9.04 1.31
-4 -8 -4 10.52 1.95
-8 -4 4 9.66 1.26
-4 4 8 8.63 1.31
4 4 8 9.66 1.44
-8 -4 4 10.8 1.98
4 8 4 7.2 1.45
8 4 -4 9.41 1.53
8 4 4 6.83 1.3
4 4 8 9.37 1.44
-4 -4 -8 11.36 2.27
-4 -4 8 8.92 1.36
-8 4 4 9.46 1.38
0 6 8 0.94 0.89
-8 0 6 2.67 1.31
-8 0 -6 1.09 1.36
0 8 6 0.54 0.76
6 0 8 1.89 0.99
-6 -8 0 1.61 1.11
-8 0 6 0.07 0.81
6 8 0 1.8 1.01
8 0 6 2.17 1.03
0 -8 -6 1.13 1.52
0 6 8 0.13 0.87
-8 -6 0 0.05 1.04
0 8 6 0.44 0.85
8 6 0 0.57 0.8
-6 0 8 0.39 0.77
2 -8 -6 14.73 3.13
-8 2 6 11.05 1.68
6 2 8 10.66 1.59
8 2 -6 11.13 1.61
2 8 6 12.62 1.4
-2 -6 -8 11.58 1.88
6 8 -2 10.62 1.51
-8 -6 2 9.44 1.84
-8 2 6 11.45 1.4
-2 6 8 9.81 1.43
-6 -2 8 9.43 1.41
8 6 2 10.28 1.46
2 8 6 11.22 1.36
-2 -8 6 11.55 1.65
-8 -2 -6 12.31 2.17
-6 -8 -2 11.05 1.88
-6 2 8 10.48 1.44
-6 -8 2 7.07 1.39
2 6 8 9.71 1.5
-8 -2 6 10.84 1.51
-8 -6 -2 9.06 1.91
6 -2 8 10.63 1.74
-2 8 6 11.09 1.37
-2 -8 -6 10.88 2.27
8 6 -2 10.69 1.48
2 8 -6 10.82 1.45
-8 6 2 9.67 1.31
2 6 8 11.21 1.44
8 2 6 13.4 1.6
-2 8 6 10.99 1.53
-6 -2 -8 8.36 1.46
6 8 2 11.07 1.55
-8 -2 6 12.24 1.43
-4 -6 -8 53.49 3.56
-6 -8 -4 51.36 3.29
-6 8 4 49.51 2.88
6 4 8 49.7 3.07
-4 -8 6 53.47 3.45
8 6 4 51.57 3.06
4 8 6 52.62 3.05
-6 -4 8 48.83 2.91
-8 -6 4 50.41 2.87
8 4 -6 49.73 3.08
-4 6 8 56.04 2.96
6 4 8 48.09 2.89
6 8 -4 47.9 3.06
-8 -4 -6 51.58 3.42
-8 -6 4 52.08 3.31
-8 4 6 50.38 2.9
-6 -8 4 53.03 3.35
-8 -6 -4 49.27 3.29
-8 -4 6 51.28 3.32
4 6 8 51.44 3.01
-4 -6 8 50.82 2.97
8 4 6 47.77 3.02
8 6 -4 50 3.1
6 8 4 53.34 3.06
-4 -8 -6 43.95 3.38
4 8 -6 48.77 3.02
-8 6 4 45.62 2.87
4 6 8 50.76 2.92
-8 -4 6 46.87 2.85
-4 8 6 49.77 2.86
-6 4 8 55.96 2.97
-4 8 6 55.11 2.92
6 -4 8 46.73 3
-6 -4 -8 52.34 3.57
-8 -6 6 171.56 8.15
-6 -8 6 172.8 8.46
-8 -6 6 174.11 8.41
-6 -8 -6 175.45 8.49
6 6 -8 169.19 8.29
6 6 8 171.42 8.3
6 8 -6 164.95 8.26
6 8 6 166.69 8.25
8 6 -6 170.08 8.3
8 6 6 159.05 8.26
-6 -6 8 163.63 8.39
-6 -6 -8 161.93 8.5
-8 6 6 161.6 8.13
-6 -6 8 165.53 8.18
-6 6 8 171.16 8.16
-6 8 6 163.34 8.14
6 6 8 166.64 8.1
8 8 0 33.55 2.5
0 8 8 30.71 2.31
-8 -8 0 35.04 2.67
-8 0 8 29.77 2.9
0 -8 -8 34.17 3.44
-8 0 8 36.55 2.29
0 8 8 31.55 2.26
2 8 8 0.43 0.9
-8 -2 8 -1 1.31
-2 8 8 2.16 0.95
8 8 2 1.62 1.14
-8 -8 -2 0.95 1.24
-8 -2 8 0.82 0.96
-8 2 8 -0.59 0.9
-2 8 8 0.11 1.1
2 8 8 1.71 1.15
-2 -8 -8 0.75 1.56
-8 -8 2 2.65 1.19
8 -2 8 1.94 1.37
8 8 -2 0.35 0.91
-8 2 8 0.06 1.56
-8 -2 -8 1.54 1.43
8 2 8 1.04 1.02
-4 8 8 23.87 2.14
4 8 8 28.46 2.12
-4 -8 8 32.21 4.17
4 8 8 26.44 2.2
8 4 -8 24.08 2.21
8 4 8 29.88 2.31
8 8 -4 29.22 2.34
8 -4 8 28.43 2.44
-8 -4 8 23.8 2.15
-8 4 8 28.7 2.16
-8 8 4 24.47 2.05
-4 8 8 26.31 2.11
8 8 4 24.2 2.19
-8 -8 -4 26.43 2.86
-8 -8 4 27.14 2.71
-8 -4 -8 26.25 2.99
-8 -4 8 30.94 2.77
-8 4 8 21.17 3.39
-4 -8 -8 27.25 2.99
-6 8 8 113.82 5.67
6 8 8 110.34 5.76
8 6 -8 110.66 5.79
-8 -8 6 111.19 5.63
-8 -6 8 107.56 5.63
-8 6 8 110.7 5.64
-8 8 6 108.57 5.6
-6 -8 8 105.59 5.66
6 8 -8 110.54 5.79
-6 -8 -8 114.32 6.11
-8 -6 8 108.55 5.91
8 6 8 111.72 5.82
8 8 -6 108.65 5.84
8 8 6 106.78 5.79
-8 -8 6 102.57 6
8 8 -8 51.25 3.38
-8 8 8 45.54 3.22
-8 -8 8 54.16 3.3
8 -8 -8 42.59 4.8
-8 -8 -8 44.63 3.71
8 8 8 54.57 3.42
-9 1 -1 183.19 9.11
-9 -1 -1 179.44 9.08
-1 -9 -1 189.01 9.1
-1 -9 1 189.02 9.11
1 -9 -1 190.4 9.1
-9 1 1 178.4 9.07
9 1 -1 182.24 8.96
9 1 1 194.62 9
9 -1 -1 177.53 8.9
-1 1 9 188.28 8.95
1 -1 9 188.08 8.94
1 1 9 195.03 8.96
9 -1 1 193.83 8.96
1 -9 1 175.54 9.1
-9 -1 1 191.72 8.8
-9 1 1 186.84 8.8
-1 -1 9 191.29 8.96
-9 -1 1 182.98 9.07
-1 9 -1 184.69 8.93
-1 9 1 184.19 8.93
1 9 -1 208.35 9.07
1 9 1 188.94 8.96
-3 9 1 1.78 0.93
3 -9 1 0.69 1.5
1 9 3 1.59 0.89
9 -3 -1 1.38 0.94
-1 9 -3 2.08 0.86
3 9 -1 1.52 1
-1 3 9 2.2 0.79
1 -9 -3 2.89 1.44
-9 -3 1 3.93 1.2
9 -1 3 3.25 1
3 1 9 3.32 0.95
-1 -9 3 0.14 1.24
-9 1 3 1.74 1.32
9 3 1 1.77 0.86
1 -3 9 1.15 0.76
9 1 -3 1.1 0.89
-9 3 -1 4.22 1.6
-3 -1 9 3.6 1
-9 -1 -3 2.34 1.17
-9 -3 1 2.49 0.83
-3 -9 -1 1.18 1.11
-9 1 3 1.85 0.65
-1 -3 9 2.24 0.84
9 -3 1 0.92 1.05
-9 1 -3 2.34 1.33
1 9 -3 1.59 0.97
3 9 1 3.28 1.09
-9 -1 3 2.18 1.14
-3 1 9 2.01 0.84
9 3 -1 1.35 0.87
-1 -9 -3 2.13 1.33
-1 9 3 2.89 0.85
-9 3 1 3.17 0.79
-3 -9 1 3.56 1.23
3 -1 9 2.72 0.99
9 1 3 3.03 0.97
9 -1 -3 5.4 1.19
1 -9 3 2.56 1.44
-9 -3 -1 1.96 1.12
1 3 9 3.08 0.84
-9 -1 3 2.57 0.87
-3 3 9 0.53 0.78
-9 -3 3 1.52 1.15
-3 -9 -3 0.51 1.22
-9 3 3 1.31 0.91
3 3 9 1.42 0.82
9 -3 -3 2.42 0.87
3 9 3 0.92 0.86
-3 -3 9 2.21 0.89
-3 9 3 0.57 0.91
3 -3 9 2.51 0.93
3 9 -3 1.82 1.12
-9 -3 -3 1.54 1.13
9 3 -3 1.86 0.9
9 3 3 0.45 1.06
9 -3 3 1.99 1.04
-9 -3 3 2.01 0.82
3 -9 3 2.14 1.49
-3 -9 3 2.05 1.18
-9 -5 1 2.22 0.86
-5 -1 9 0.84 0.94
-9 -5 1 1 1.09
-1 5 9 1.55 0.91
-1 -9 5 0.54 1.25
9 -1 5 0.54 1.05
9 1 -5 1.37 1.08
5 1 9 1.21 0.97
-9 1 5 0.79 0.78
-9 1 5 0.86 1.43
1 9 5 1.69 0.89
1 -5 9 1.86 0.97
-5 -9 -1 1.13 1.05
1 9 5 0.44 0.98
-9 -1 -5 2.73 1.35
5 9 -1 0.56 1.05
9 5 1 1.93 0.98
1 -9 -5 2.72 1.65
1 5 9 1.18 0.87
-1 9 5 1.63 0.96
-1 -5 9 0.66 0.99
9 5 -1 2.28 1.09
-5 1 9 1.88 0.91
-9 1 -5 0.35 1.38
1 9 -5 1.85 0.95
9 1 5 2.35 1.07
-9 -5 -1 0.35 1.06
-5 -9 1 -0.35 1.03
-1 -9 -5 2.04 1.4
-9 -1 5 1.79 1.32
9 -1 -5 0.62 0.95
5 9 1 1.75 0.95
-9 -1 5 1.16 0.89
-1 9 5 1.3 0.94
9 -5 1 1.22 1.17
5 -1 9 0.31 1.11
-5 -9 -3 5.11 1.32
-9 -3 -5 2.53 1.35
-5 -3 9 6.03 1.18
-9 3 5 4.11 0.97
-9 -5 3 6.61 1.35
3 9 5 5.67 1.21
5 9 -3 3.64 1.25
-3 -9 5 5.24 1.51
9 -3 5 4.08 1.12
3 -5 9 3.45 1.08
5 3 9 4.94 1.09
3 -9 -5 7.96 2.27
9 3 -5 6.04 1.35
9 5 3 2.77 1.19
-9 -5 3 4.42 1.16
-3 5 9 6.84 1.4
5 9 3 4.32 1.14
9 -5 3 2.62 1.05
9 5 -3 2.58 0.97
-9 -3 5 5.27 1.05
-3 -9 -5 4.25 1.27
-9 -5 -3 4.76 1.2
3 5 9 3.72 1.11
-5 -9 3 5.59 1.31
3 5 9 5.13 1.13
3 9 -5 5.02 1.14
-5 3 9 7.07 1.4
-3 9 5 3.63 0.9
9 3 5 3.59 1.15
-3 9 5 3.26 1.03
5 -3 9 2.43 1.02
-9 5 3 4.62 0.98
-9 -3 5 5.53 1.38
-3 -5 9 3.52 1.01
-5 -9 -5 30.92 2.75
9 5 5 30.77 2.42
5 5 9 30.97 2.29
-9 -5 -5 32.21 2.82
-9 -5 5 30.45 2.67
-5 -5 -9 34.07 3.13
-9 5 5 30.24 2.21
-5 -5 9 32.4 2.27
-5 9 5 31.23 2.17
9 5 -5 29.79 2.41
-9 -5 5 30.76 2.16
5 5 9 30.49 2.44
5 9 -5 31 2.38
-5 5 9 31.5 2.25
-5 -9 5 33.94 2.77
5 -5 9 33.57 2.38
5 9 5 31.06 2.39
9 -1 7 13.71 1.79
1 9 7 13.46 1.76
-1 7 9 10.22 1.59
1 -9 -7 11.3 2.26
-1 7 9 10.78 1.74
-9 1 7 12.04 2.63
-7 -1 9 9.4 1.6
-9 -7 1 13.62 2.12
9 7 1 12.21 1.74
1 9 7 12.38 1.54
7 9 -1 10.95 1.75
7 1 9 9.99 1.8
-7 -9 -1 11.34 2.17
-9 -1 -7 10.8 1.83
-9 1 7 12.72 1.65
9 7 -1 11.76 1.76
-1 -9 -7 10.73 1.9
-1 9 7 10.16 1.78
-7 1 9 11.51 1.6
1 7 9 9.43 1.61
-9 -1 7 9.77 1.6
-9 -1 7 12.28 2.47
-1 9 7 11.67 1.52
9 1 7 11.05 1.78
1 7 9 9.44 1.59
-7 -9 1 14.63 2.05
-9 -7 -1 9.81 2.03
7 -1 9 10.35 1.53
7 9 1 13.23 1.69
-3 7 9 1.11 1.04
-3 -7 -9 2.21 1.76
-9 -3 -7 1.48 1.41
-7 -3 9 0.85 1
-9 -7 3 0.29 1.15
-3 -9 7 0 1.27
-7 -9 -3 -0.22 1.22
-9 3 7 0.64 0.98
3 9 7 -0.36 1.17
7 3 9 1.92 1.28
9 3 -7 0.91 1.17
3 9 7 -0.82 1.05
-3 7 9 -0.2 1.08
7 3 9 1.88 1.23
9 7 3 0.88 1.04
7 9 -3 0.43 0.8
-9 3 7 2.86 1.88
7 -3 9 0.82 1.1
-9 -3 7 0.77 1.42
3 7 9 1.87 1.23
-9 7 3 0.92 0.93
-9 -7 -3 0.26 1.31
3 9 -7 0.58 1.11
7 9 3 0.23 1.17
-7 -9 3 -0.2 1.33
9 3 7 -0.09 1.22
-3 9 7 -1.71 1.23
-3 -7 9 1.76 1.01
9 7 -3 0.94 0.95
-3 -9 -7 -0.03 1.4
-7 -3 -9 -0.01 1.38
3 7 9 -0.14 1.04
-9 -3 7 1.16 1.01
-3 9 7 0.05 0.89
-7 3 9 0.1 0.88
7 5 9 51.61 3.19
-5 7 9 53.26 3.14
-7 -9 -5 52 3.55
-7 9 5 51.19 3.07
-5 -7 -9 58.67 3.88
-7 -5 9 51.47 3.57
-7 -5 9 50.97 3.12
7 5 9 48.89 3.29
-5 7 9 50.22 3.04
9 5 -7 52.17 3.29
7 9 -5 50.64 3.32
-9 5 7 54.64 3.11
9 7 5 50.82 3.31
-9 -7 5 52.12 3.51
5 9 7 51.7 3.21
-9 -7 5 56.47 3.14
5 7 9 51.35 3.15
5 9 -7 50.15 3.29
7 9 5 46.46 3.25
7 -5 9 46.48 3.28
-9 7 5 51.45 3.06
-5 -9 -7 51.56 3.71
-9 -5 7 53.64 3.52
-5 9 7 51.6 3.06
-5 -7 9 47.37 3.16
-7 5 9 50.06 3.08
9 7 -5 53.32 3.29
-9 -5 7 52.7 3.17
9 5 7 46.81 3.28
5 7 9 52.58 3.27
7 7 9 58.1 3.78
-7 -7 9 60.02 3.62
-7 -9 -7 61.22 4.07
-9 7 7 57.24 3.58
-7 9 7 56.56 3.53
-7 -7 -9 69.48 4.25
-7 7 9 62.07 3.59
-9 -7 7 59.88 3.53
9 7 -7 63.94 3.81
9 7 7 57.12 3.72
7 9 7 58.77 3.74
7 9 -7 53.73 3.73
-9 -1 9 138.57 7.38
-9 1 9 143.22 7.46
-1 -9 -9 141.83 7.72
1 9 9 144.22 7.08
-1 9 9 141.06 7.11
-9 -1 9 143.17 7.08
-9 1 9 142.54 7.09
-1 9 9 145.44 7.08
9 1 9 143.65 7.32
9 9 -1 143.04 7.3
9 9 1 137.46 7.24
1 9 9 143.66 7.12
3 9 9 35.6 2.56
9 9 3 37.32 2.86
-9 -3 9 27.21 2.51
-9 3 9 30.87 2.55
-3 9 9 42.77 2.65
-3 9 9 32.9 2.61
-3 -9 -9 36.27 3.64
3 9 9 39.62 2.66
9 3 9 35.35 2.92
9 9 -3 39.54 2.79
-9 -3 9 33.29 3.2
-9 3 9 32.85 3.88
-5 -9 -9 -1.2 1.61
-5 9 9 0.41 1.84
-5 9 9 -1.99 1.14
9 5 9 -0.08 1.6
9 -5 9 -2.04 1.55
9 9 5 -0.24 1.36
-5 -9 9 -1.89 1.28
-9 -9 5 -0.75 2.12
5 9 9 -0.06 1.36
-9 5 9 1.34 1.26
-9 9 5 0.47 1.14
5 9 -9 3.25 3.52
-9 -5 9 -1.07 1.18
5 9 9 0.92 1.39
-7 -9 9 0.14 1.44
-9 7 9 1 1.24
7 9 9 -1.4 1.7
9 7 -9 -0.27 1.49
9 7 9 -2.11 1.31
-9 9 7 1.39 1.24
9 9 7 1.14 1.55
-9 -9 7 0.02 1.42
-9 -7 9 1.07 1.26
7 -9 -9 0.95 2.34
7 9 -9 -3.6 3.73
9 -7 -9 -1.63 2.49
-7 9 9 1.13 1.4
-7 -9 -9 1.05 1.76
-7 -9 9 -0.14 1.48
9 7 -9 2.69 3.93
9 9 -7 -0.3 1.53
-9 -9 -7 4.13 1.75
-9 -9 7 0.42 1.45
-9 -7 -9 0.24 1.58
-9 -7 9 0.84 1.49
-9 -9 9 35.82 3.06
-9 9 9 37.93 2.98
-9 -9 -9 39.65 3.59
-9 -9 9 34.79 3.38
9 9 -9 33.27 5.15
9 9 -9 40.38 3.19
9 -9 -9 37.02 4.6
9 9 9 35.92 3.34
0 0 10 155.64 7.4
-10 0 0 146.97 7.54
0 10 0 146.37 7.37
10 0 0 160.14 7.44
0 -10 0 150.45 7.58
0 -10 -2 45.75 3.31
0 10 -2 42.6 2.79
-2 10 0 44.84 2.71
10 -2 0 41.75 2.76
10 2 0 46.44 2.83
2 10 0 45.74 2.79
-2 0 10 47.72 2.76
10 0 2 46.83 2.84
-10 0 2 44.64 3.24
-10 2 0 44.95 3.43
0 10 2 49.86 2.78
0 -10 2 49.65 3.26
-10 0 -2 50.05 3.28
2 0 10 46.21 2.79
-2 -10 0 47.08 3.1
-10 0 2 50.65 2.65
0 -2 10 46.29 2.78
0 2 10 47.99 2.74
2 -10 0 35.82 3.34
-10 -2 0 48.22 3.16
10 0 -2 44.06 2.76
2 10 -2 60.2 3.39
2 10 2 64.84 3.43
2 -2 10 61.46 3.37
-2 -2 10 61.96 3.35
-2 2 10 58.91 3.3
-10 2 2 58.91 3.88
-10 -2 2 58.76 3.21
-2 10 2 60.52 3.25
-10 -2 2 61.66 3.64
-10 2 -2 55.71 3.89
-10 2 2 57.66 3.17
10 -2 2 61.1 3.37
10 2 -2 60.89 3.39
10 2 2 59.8 3.43
-2 -10 -2 59.11 3.7
-2 -10 2 55.67 3.69
2 -10 -2 68.17 4.03
-10 -2 -2 57.63 3.62
10 -2 -2 55.28 3.27
2 2 10 60.54 3.3
2 -10 2 56.44 3.89
-2 10 -2 55.09 3.23
-10 0 4 1.53 1.37
10 4 0 1.02 1.08
0 -10 -4 -0.42 1.48
-10 -4 0 0.41 1.18
0 10 -4 -0.17 0.91
-10 0 -4 1.77 1.43
10 -4 0 0.88 1.1
-4 -10 0 0.13 1.13
-10 0 4 1.16 0.92
4 10 0 2.04 1.16
10 0 -4 2.92 1.3
10 0 4 0.06 1.04
4 0 10 0.39 1.07
0 -10 4 1.33 1.39
0 -4 10 2.1 1.02
0 4 10 1.09 0.85
0 10 4 -0.53 0.94
-4 0 10 0.95 0.87
4 -10 0 0.42 1.91
4 10 -2 0.52 0.76
2 -4 10 0.08 1
10 -2 4 -0.15 1.15
10 2 -4 1.59 1.31
-10 -4 2 1.74 0.95
-10 2 4 2.1 0.94
-2 -10 4 -1.74 1.24
-4 -2 10 0.14 0.96
-2 4 10 -0.2 0.85
2 -10 -4 1.6 1.84
-10 -2 -4 1.36 1.27
-4 10 2 0.45 0.96
-10 2 4 -0.11 1.63
10 4 2 0.14 1.08
-10 -4 2 0.33 1.12
4 2 10 -0.6 0.94
2 10 4 0.35 0.97
-4 -10 -2 -0.42 1.16
10 4 -2 0.87 1.1
2 -10 4 1.4 1.47
-2 10 4 -0.04 1.2
4 -2 10 -0.02 1.13
-10 -2 4 1.28 1.3
2 4 10 0.73 1.03
-2 -10 -4 1.62 1.35
-2 -4 10 -0.48 0.86
-4 -10 2 0.56 1.23
10 -2 -4 1.52 1.14
2 10 -4 0.82 1.13
10 2 4 1.4 1.02
-10 2 -4 -0.01 1.49
-10 -4 -2 0.95 1.2
4 10 2 1.63 1.02
-4 2 10 0.46 0.86
10 -4 2 -0.63 1.06
-10 -2 4 2.4 0.99
-10 4 2 2.5 0.92
4 4 10 -2.11 1.03
-10 -4 4 -0.08 1.24
-4 -10 -4 0.81 1.28
-4 -4 10 0.85 0.87
10 4 4 0.5 1.23
-10 -4 4 -0.01 0.99
4 -4 10 0.85 1.01
-4 4 10 -0.07 0.78
-10 -4 -4 0.03 1.29
10 4 -4 0.66 1.26
10 -4 4 -0.37 1.31
-10 4 4 0.9 0.99
4 10 4 0.52 1.02
-4 -10 4 0.33 1.28
4 10 -4 -0.31 1.2
10 0 -6 -0.19 1.16
-6 0 10 0.1 0.95
-10 0 6 0.5 1.03
0 -6 10 1.16 1.07
10 0 6 0.08 1.29
0 10 6 -0.23 0.86
6 10 0 0.87 1.19
0 6 10 1.26 1.05
0 10 6 1.74 1.15
6 0 10 3.29 1.31
-10 0 -6 3.18 1.63
-10 0 6 0.63 1.56
0 -10 -6 -0.75 1.75
-10 -6 0 2.13 1.11
10 6 0 0.62 1.05
-6 -10 0 2.05 1.21
-10 -6 0 1.51 1.31
0 -10 6 3.48 1.42
-6 -10 -2 4.2 1.36
2 -10 -6 5.23 2.43
6 -10 2 6.64 2.4
10 2 -6 3.73 1.37
-10 2 6 2.75 1.09
-2 6 10 3.13 1.11
-2 -10 6 7.09 1.66
2 10 6 3.83 1.25
6 10 -2 4.46 1.32
-10 2 6 4.17 1.92
10 6 2 3.72 1.23
-10 -2 -6 3.08 1.58
-10 -6 2 2.84 1.26
2 -6 10 2.4 1.19
-10 -6 2 4.39 1.12
10 -2 6 3.64 1.56
-6 -2 10 3.61 1.13
6 2 10 2.13 1.07
2 10 -6 1.55 1
2 6 10 6.46 1.32
6 -2 10 6.12 1.42
-10 6 2 5.12 1.08
-10 -2 6 3.12 1.44
-2 -6 10 3.66 1.18
-6 -10 2 4.15 1.32
6 10 2 4.7 1.26
-2 -10 -6 1.15 1.53
-10 -2 6 4.86 1.16
10 6 -2 2.3 1.11
-10 -6 -2 2.63 1.31
2 6 10 1.96 1.21
10 -6 2 3.36 1.28
10 2 6 2.48 1.3
-2 10 6 3.98 1.14
-6 2 10 3.85 1.05
6 10 -4 5.94 1.44
6 4 10 7.6 1.45
-6 -4 10 5.58 1.2
-10 -6 4 3.52 1.12
6 4 10 5.32 1.44
10 6 4 4.24 1.41
-10 -4 -6 7.06 1.48
-4 -10 6 6.82 1.57
-4 6 10 5.38 1.34
-6 -10 -4 5.14 1.48
-10 4 6 7.91 1.27
4 10 6 7.26 1.45
10 4 -6 6.03 1.54
-10 -6 4 5.73 1.38
4 -6 10 6.71 1.3
10 -4 6 5.25 1.5
-4 10 6 3.95 1.22
-6 -10 4 6.9 1.58
6 10 4 6.24 1.44
-10 -4 6 8.43 1.69
-4 -10 -6 7.73 1.64
-4 -6 10 4.32 1.26
4 10 -6 5.21 1.4
-6 4 10 3.81 1.09
-4 10 6 4.3 1.09
10 6 -4 7.25 1.55
-10 -4 6 7.56 1.59
10 -6 4 5.34 1.42
-10 -6 -4 4.74 1.39
4 6 10 5.71 1.31
4 6 10 5.37 1.47
10 4 6 4.27 1.31
6 -4 10 5.29 1.33
-10 6 4 5.97 1.23
-10 6 6 34.06 2.47
6 -6 10 30.6 2.69
-6 6 10 34.41 2.53
6 10 -6 32.18 2.69
-10 -6 6 27.24 2.93
10 6 -6 26.53 2.7
-6 -10 -6 34.29 3.03
-6 -6 -10 32.55 3.31
10 6 6 32.28 2.73
-6 -6 10 35.9 2.56
-6 10 6 35.77 2.42
6 10 6 31.4 2.54
-6 -6 10 28.05 4.55
6 6 10 31.76 2.72
-10 -6 6 31.38 2.39
6 6 10 28.92 2.57
-8 0 10 136.63 6.8
0 8 10 129.56 6.77
10 8 0 138.98 6.99
-10 0 8 132.73 6.75
-10 -8 0 128.69 7.16
10 0 8 145.09 7.01
8 0 10 140.31 6.87
8 10 0 140.4 7
0 8 10 140.14 6.81
0 10 8 140.02 6.81
-10 0 8 132.49 7.05
0 -10 -8 122.37 7.51
0 10 8 131.91 6.76
10 -2 8 97.64 5.28
-8 -2 10 92.84 5.1
-10 -2 -8 93.64 5.67
10 8 2 100.05 5.32
-2 8 10 100.23 5.13
8 2 10 105.82 5.42
-10 -8 2 90.17 5.89
-2 8 10 91.17 5.08
-2 -10 8 94.41 5.51
-10 2 8 91.79 5.69
-8 -10 -2 82.62 5.38
-8 -2 10 96.54 5.51
8 10 -2 103.88 5.35
-10 2 8 101.59 5.11
2 10 8 97.93 5.07
2 10 8 93.58 5.16
8 2 10 96.78 5.71
8 -2 10 95.53 5.32
8 10 2 98.79 5.29
-10 -2 8 100.63 5.07
10 2 8 95.37 5.3
-10 -2 8 98.3 5.39
2 8 10 96.41 5.15
-2 -10 -8 97.77 5.83
-2 10 8 95.01 5.1
-2 -8 10 98.75 5.17
10 8 -2 104.03 5.31
-8 2 10 95.42 5.13
2 8 10 100.48 5.12
-2 10 8 98.69 5.09
-4 8 10 8.33 1.35
-10 4 8 7.88 1.39
10 4 -8 6.89 1.49
4 10 8 9.19 1.66
8 10 -4 7.82 1.8
-4 -10 8 12.82 2.65
-8 -10 -4 10.56 2.35
-4 -8 -10 9.24 2.1
4 8 -10 -5.3 4.19
-4 8 10 7.04 1.69
-10 -8 4 7.68 1.44
8 4 10 8.15 1.81
-8 -4 10 8.73 1.54
-8 -4 10 7.81 1.75
8 4 10 6.31 1.75
10 8 4 4.57 1.53
-4 -8 10 5.64 1.44
-4 -10 -8 8.22 1.89
4 8 10 8.14 1.65
-10 -4 8 9.35 1.72
8 10 4 7.67 1.67
-10 -4 8 7.85 1.43
4 10 -8 4.13 4.6
-8 4 10 11.8 1.91
-4 10 8 6.11 1.31
10 8 -4 10.23 1.88
8 -4 10 6.43 1.56
-4 10 8 10.01 1.66
10 4 8 7.76 1.76
4 8 10 10.02 1.46
-10 8 4 8.74 1.49
6 8 -10 4.84 3.36
-6 8 10 1.27 2.31
-8 -6 10 -0.87 1.24
8 10 -6 0.84 1.48
-6 8 10 -0.8 1.28
10 6 -8 1.3 1.61
6 10 8 0.35 1.48
10 8 6 -0.34 1.51
-10 -8 6 -1.96 1.36
-8 -6 10 -0.81 1.45
-6 -8 -10 0.5 1.88
8 -6 -10 0.89 2.46
8 6 10 0.38 1.58
-8 -10 -6 -0.39 1.4
-10 -8 6 -0.43 1.3
-10 6 8 -0.4 1.23
-8 10 6 -0.58 1.18
6 10 -8 0.17 1.31
-6 -10 -8 -0.47 1.57
-6 -8 10 -0.04 1.47
8 10 6 -0.31 1.41
-6 10 8 -0.81 1.15
8 -6 10 0.73 1.62
10 8 -6 2.69 1.63
10 6 8 0.43 1.37
6 8 10 0.78 1.55
-10 -6 8 0.46 1.42
6 8 10 1.2 1.5
-8 6 10 -0.85 1.28
6 -8 -10 -2.46 2.28
-6 -8 10 0.92 1.36
6 10 -8 12.4 4
-10 8 6 0.16 1.18
8 6 -10 -2.75 3.62
8 8 10 14.03 2.34
-10 -8 8 10.88 2.2
10 8 -8 8.9 1.86
10 8 8 6.92 1.92
-8 -10 -8 9.47 1.79
10 8 -8 14.01 4.87
-8 -8 -10 7.24 1.96
8 -8 -10 8.37 2.46
-10 -8 8 14.4 2.63
8 10 8 6.35 1.88
10 -8 -8 13.15 2.89
8 10 -8 9.42 2
-8 -8 10 11.09 1.85
8 8 -10 10.72 3.74
8 10 -8 10.13 4.54
-10 8 8 10.04 1.64
-8 -10 8 11.91 2.35
-8 -8 10 8.91 1.71
-8 8 10 10.04 1.65
-8 10 8 11.07 2.11
-8 -10 8 4.46 1.78
-10 -8 -8 4.69 1.78
-10 0 10 99.6 5.62
0 10 10 93.8 5.09
-10 0 10 97.33 5.06
10 10 0 90.78 5.34
10 0 10 86.9 5.35
0 10 10 90.3 5.03
-10 -10 2 82.68 5.99
-2 10 10 89.17 4.81
2 10 10 85.24 4.9
10 -2 -10 70.08 6.32
10 2 -10 70.21 7.78
10 10 -2 83.9 5.06
10 10 2 77.87 4.94
-10 2 10 83.57 4.84
-2 10 10 89.3 4.81
2 10 10 98.08 4.87
-10 2 10 88.65 5.68
-10 -2 10 92.37 4.85
10 2 10 91.92 5.19
-2 -10 -10 98.88 5.8
-10 -2 10 92.91 5.27
-4 10 10 15.3 2.73
4 10 10 16.24 2.31
4 10 -10 16.29 3.72
10 10 -4 15.24 2.47
-4 10 -10 10.89 3.94
-10 -10 -4 20.1 2.73
-10 -10 4 18.08 2.6
-10 -4 -10 20.76 3.04
-4 -10 -10 12.17 2.48
-4 -10 10 22.6 2.84
10 10 4 16.21 2.49
10 -4 -10 20.08 3.19
10 4 -10 24.15 3.76
10 4 10 17.34 2.7
-10 -4 10 20.32 2.39
-10 4 10 19.04 2.29
-4 -10 10 15.68 2.34
-4 10 10 22.88 2.25
4 10 10 20.26 2.46
-10 -10 6 4.27 1.76
-10 -6 10 2.7 1.56
-10 6 10 2.1 1.43
10 6 -10 9.49 4.12
10 10 -6 6.45 5.58
10 10 -6 3.3 1.72
10 10 6 2.35 1.44
-10 -10 -6 2.55 1.68
6 -10 -10 5.74 2.47
6 10 -10 5.29 3.86
10 -6 -10 5.03 2.55
6 10 10 2.56 1.87
10 6 10 3.09 1.81
-6 -10 10 3.3 1.58
-6 10 10 4.1 1.5
-10 10 6 2.12 1.61
-10 -10 6 0.04 1.64
-10 -6 -10 1.68 2.02
-10 -6 10 5.01 1.66
-6 -10 -10 3.92 2.01
-6 -10 10 3.05 1.8
-10 -10 -8 43.66 3.83
-10 -10 8 50.77 3.72
-10 -8 -10 43.22 4.02
-10 -8 10 39.98 3.66
-8 -10 -10 39.59 4.05
10 -10 -8 39.43 4.96
-8 -10 10 41.47 3.4
-8 10 10 43.8 3.23
-10 -10 8 38.73 3.46
-10 -8 10 40.28 3.43
-10 8 10 43.63 3.35
8 10 10 42.86 3.69
10 8 10 39.59 3.72
10 10 -8 45.86 3.54
10 10 8 38.14 3.48
8 10 -10 44.95 7.2
-10 10 8 42.23 3.28
8 -10 -10 43.25 4.64
10 -8 -10 41.93 4.81
10 8 -10 43.28 7.22
10 10 -8 34.87 5.67
-8 -10 10 47.03 3.7
10 10 -10 73.74 7.87
-10 -10 10 51.29 3.95
10 -10 -10 54.87 4.97
-10 -10 -10 55.28 4.51
10 10 10 47.66 4.32
-10 -10 10 52.85 4.14
-10 10 10 49.69 3.83
11 1 1 65.11 3.76
-1 11 -1 62.37 3.62
-1 11 1 64.71 3.7
-11 1 -1 66.02 4.19
-11 -1 -1 68.76 4.01
-11 -1 1 61.34 4.02
-1 -1 11 68.31 3.63
-1 1 11 67.34 3.64
1 -1 11 64.25 3.63
1 1 11 67.08 3.65
-1 -11 -1 64.92 4.08
-1 -11 1 64.06 3.98
1 -11 -1 68.33 4.16
1 11 -1 64.33 3.75
1 11 1 65.78 3.67
11 -1 -1 57.84 3.64
11 -1 1 65.51 3.68
11 1 -1 62.52 3.73
1 -11 1 71.52 4.19
-11 1 1 65.96 4.12
11 3 1 6.52 1.39
3 -11 1 6.97 1.96
-3 11 1 5.12 1.24
3 11 -1 3.57 1.08
3 1 11 9.25 1.77
-11 -3 1 6.62 1.48
-11 3 -1 2.11 1.93
11 1 -3 3.46 1.23
-11 1 3 10.12 1.74
-1 -11 3 5.52 1.49
1 -11 -3 7.97 1.9
-1 11 -3 6.74 1.28
1 -3 11 7.74 1.28
-11 -1 -3 5.4 1.51
1 11 3 8.5 1.8
11 -3 -1 4.34 1.37
-11 1 3 8.5 1.65
-3 -11 -1 4.03 1.36
11 -1 3 6.84 1.55
-1 3 11 6.39 1.13
-3 -1 11 6.17 1.24
-3 1 11 6.88 1.24
-3 -11 1 10.02 2.11
-11 3 1 5.8 1.08
11 -1 -3 7.72 1.62
11 1 3 6.04 1.49
-1 11 3 8.25 1.42
1 3 11 9.28 1.67
11 3 -1 5.98 1.41
3 11 1 6.83 1.38
-1 -11 -3 7.54 1.7
-1 -3 11 5.74 1.21
3 -11 -1 10.08 2.11
-11 -1 3 9.69 1.61
11 -3 1 7.95 1.46
3 -1 11 8.61 1.74
-11 -3 -1 6.72 1.51
1 11 -3 5.99 1.32
-11 -1 3 6.96 1.62
-11 1 -3 5.93 1.71
1 -11 3 8.67 1.7
11 -3 -3 10.26 1.83
-11 -3 3 13.46 1.76
-11 3 3 11.74 1.72
-3 -3 11 10.89 1.76
-3 -11 -3 12.29 2.48
3 -3 11 12.06 1.93
3 11 -3 9.7 1.88
11 3 -3 12.6 1.82
11 -3 3 7.11 1.46
-3 -11 3 10.41 2.38
-3 11 3 10.77 1.92
3 3 11 10.77 1.83
3 11 3 10.92 1.65
-11 -3 3 11.41 2.21
-3 3 11 13.45 1.7
-11 -3 -3 12.62 2.23
3 -11 -3 15.7 3.42
3 -11 3 11.71 2.09
11 3 3 9.62 1.91
-11 -5 1 -0.47 1.29
5 1 11 0.49 1.23
11 -1 5 1.26 1.32
-1 -11 5 -1.57 1.38
-11 -1 -5 -0.7 1.55
1 -5 11 0.73 1.13
5 11 -1 1.15 1.24
-1 5 11 -0.12 1.04
11 1 -5 -0.81 1.44
-5 -1 11 -0.81 0.97
11 5 1 -0.55 1.19
-11 -5 1 -0.48 1.13
-11 1 5 1.36 0.87
-11 1 5 -0.98 1.7
1 11 5 -1.85 1.11
5 -11 1 0.26 2.25
-5 -11 -1 2.68 1.31
1 -11 -5 0.91 2
1 -11 5 2.8 1.65
-1 11 5 -0.85 1.11
-1 -5 11 1.42 1
-11 -5 -1 0.77 1.33
-1 -11 -5 1.1 1.62
-11 -1 5 1.79 1.41
-5 -11 1 -0.88 1.28
5 -1 11 0.33 1.34
11 1 5 -0.09 1.2
1 5 11 0.22 1.11
5 11 1 -0.04 1.27
-5 1 11 0.39 1.05
-11 -1 5 1.29 1.11
11 -5 1 -1.01 1.54
-11 1 -5 2.12 1.72
11 -1 -5 2.03 1.36
1 11 -5 0.31 1.05
11 5 -1 0.2 1.31
3 11 5 -2.35 1.19
11 3 -5 -2.31 1.39
11 5 3 -0.56 1.2
5 3 11 -2.42 1.26
-11 3 5 -0.82 1.12
5 11 -3 1.36 1.28
-11 -5 3 -1.07 1.16
-3 5 11 -0.7 1.05
-3 -11 5 0.55 1.39
5 -11 3 0.34 2.17
-5 -3 11 0.18 1.1
-5 -11 -3 0.06 1.45
3 -11 -5 3.03 2.76
-11 -3 -5 0.11 1.45
3 -5 11 0.2 1.1
-11 -5 3 1.46 1.38
11 -3 5 1.4 1.47
3 -11 5 -1.26 1.71
-3 -5 11 -0.91 1.03
-11 5 3 -0.24 1.07
5 11 3 -0.48 1.1
3 5 11 -1.48 1.18
-3 -11 -5 1.23 1.52
-3 11 5 1.75 1.44
-5 -11 3 0.96 1.38
-11 -5 -3 0.58 1.26
3 11 -5 0.43 1.18
-11 -3 5 1.79 1.19
-11 -3 5 0.85 1.34
-5 3 11 -0.19 1
11 3 5 1.64 1.41
5 -3 11 -1.12 1.31
11 5 -3 -1.23 1.23
11 -5 3 1.84 1.37
5 11 5 5.66 1.46
5 5 11 8.02 1.59
11 -5 5 6.76 1.74
5 11 -5 12.91 2.07
-5 -11 5 9.41 1.69
11 5 -5 8.79 1.8
-11 -5 5 7.63 1.33
5 -5 11 4.1 1.29
-11 5 5 6.99 1.35
-5 5 11 10.2 1.86
-5 -11 -5 6.59 1.58
11 5 5 8.9 1.76
-11 -5 -5 5.99 1.82
-11 -5 5 6.24 1.58
-5 -5 11 5.99 1.2
-11 -7 1 59.74 3.55
-7 -11 -1 65.13 3.99
-1 -11 7 55.84 4.08
-11 1 7 58.9 4.32
-1 7 11 60.23 3.63
-11 -1 -7 56.21 4.25
11 7 1 61.92 3.77
-11 -7 1 56.48 3.95
1 11 7 61.27 3.61
11 -1 7 61.71 3.78
11 1 -7 54.52 3.67
-1 7 11 53.27 3.55
-11 1 7 61.22 3.53
1 -7 11 67.22 3.71
1 -11 -7 64.28 5.11
-7 -1 11 56.42 3.54
7 11 -1 63.88 3.76
7 1 11 53.43 3.73
11 7 -1 59.19 3.8
7 11 1 62.28 3.74
-11 -1 7 59.31 3.54
11 1 7 59.85 3.81
7 -1 11 60.61 3.86
-7 -11 1 63.08 3.89
-1 11 7 61.34 3.57
1 7 11 57.08 3.59
-7 1 11 58.89 3.56
-1 11 7 65.71 3.51
-1 -7 11 67.71 3.73
-11 -1 7 63.25 4.11
-11 -7 -1 49.02 4.81
-1 -11 -7 60.79 4.51
1 -11 7 62.7 4.21
1 7 11 60.09 3.6
-11 3 7 30.53 2.3
-7 -11 -3 29.5 2.9
11 -3 7 21.88 2.41
7 3 11 24.97 2.71
-7 -3 11 27 2.34
-3 -11 7 22.99 3.02
-11 -7 3 27.46 2.32
11 3 -7 24.35 2.52
7 11 -3 22.98 2.57
3 -7 11 23.04 2.46
3 11 7 24.87 2.4
-3 7 11 24.78 2.34
-3 7 11 25.18 2.28
7 3 11 24.2 2.55
11 7 3 27 2.64
7 11 3 25.86 2.47
3 7 11 25.59 2.43
-11 -3 7 27.45 2.97
11 -7 3 16.84 2.66
11 7 -3 27.61 2.53
3 7 11 27.95 2.4
3 11 -7 29.68 2.44
-11 7 3 20.24 2.17
-3 11 7 20.21 2.41
-7 3 11 29.26 2.36
-3 11 7 26.06 2.25
7 -3 11 22.37 2.77
3 11 -7 19.66 5.06
-3 -7 11 23.27 2.43
-3 -11 -7 26.04 3.32
-11 -3 7 21.42 2.3
-7 -11 3 18.54 2.54
11 3 7 29.77 2.6
-11 -7 5 -0.52 1.15
-5 7 11 1.57 1.27
7 11 -5 1.84 1.63
7 -5 -11 -0.45 2.24
-7 -5 11 3.42 1.33
-7 -11 -5 0.5 1.43
11 5 -7 0.12 1.53
5 7 -11 0.42 3.18
-5 -11 7 -1.03 1.47
11 7 5 1.58 1.49
5 11 7 2.03 1.41
5 -7 11 -0.69 1.35
-11 5 7 0.33 1.34
7 5 11 0.91 1.62
11 -5 7 0.25 1.59
-11 -5 -7 -0.53 1.54
7 5 11 0.79 1.81
5 7 11 3.67 1.63
-5 -11 -7 -0.22 1.62
-7 5 11 0.07 1.17
-5 -7 11 1.3 1.18
7 -5 11 0.78 1.42
11 -7 5 4.08 1.71
5 11 -7 -4.34 3.83
7 11 5 0.66 1.37
-11 -5 7 2.49 2.55
5 11 -7 1.42 1.56
-5 11 7 0.02 1.05
11 7 -5 -1.54 1.61
-11 -7 -5 -0.49 1.27
-11 -5 7 0.21 1.37
5 7 11 0.21 1.46
11 5 7 1.21 1.77
7 5 -11 3.72 2.92
-7 -11 5 -2.6 2.11
-11 7 5 0.04 1.23
-7 -11 7 2.36 1.56
-7 -11 -7 4.01 1.82
11 -7 -7 -0.93 2.81
7 -7 -11 2.56 2.3
7 7 11 -0.05 1.52
7 11 -7 1.66 1.65
7 11 7 -0.28 1.46
11 7 -7 -0.62 1.66
-7 -7 11 1.49 1.61
7 -7 11 -2.45 1.54
7 7 11 2.2 1.69
-7 11 7 1.62 1.27
-7 -7 11 1.44 1.18
-11 7 7 1.07 1.43
11 7 7 -0.24 1.68
-7 -7 -11 2.32 1.65
7 7 -11 5.56 3.5
-11 -7 -7 3.95 1.77
-11 -7 7 -0.94 1.48
7 11 -7 1.27 4.29
-11 -7 7 -1.25 1.44
-7 7 11 2.13 1.31
11 9 1 95.46 5.57
1 11 9 93.14 5.21
9 1 11 101.37 5.59
1 9 -11 83.13 7.31
9 -1 -11 93.79 6.34
11 -1 9 101.01 5.6
1 -9 11 99.5 5.33
-11 1 9 100.31 5.25
-9 -1 11 95.1 5.63
-1 9 11 103.33 5.33
-11 1 9 104.16 5.8
-9 -1 11 95.71 5.25
-1 9 11 95.77 5.3
-1 -11 9 95.16 5.69
1 11 9 105.06 5.35
9 11 -1 91.65 5.4
11 9 -1 92.81 5.46
-1 -11 -9 93.54 6.3
1 9 11 94.91 5.29
1 9 11 103.92 5.34
-1 -9 11 96.91 5.34
-9 1 11 96.15 5.26
-11 -9 -1 98.23 5.53
-11 -1 9 95.88 5.24
1 11 -9 88.87 8.99
-1 11 9 95.11 5.29
-1 11 9 100.02 5.22
11 1 9 97.12 5.53
9 1 -11 100.53 6.62
-9 1 11 95.18 5.77
-11 -1 9 102.55 5.67
9 11 1 94.84 5.46
-11 -9 3 47.33 3.37
-11 -9 3 48.75 3.48
-11 -3 -9 36.67 3.88
9 -3 -11 43.43 4.75
-3 9 11 45.1 3.22
-3 -11 9 46.57 3.8
-3 9 11 44.56 3.34
-9 -3 11 39.39 3.21
3 11 9 49.78 3.35
11 -3 9 48.58 3.52
-9 -11 -3 52.58 3.7
9 11 -3 50.68 3.57
3 9 -11 47.79 5.82
9 3 11 43.85 3.5
11 9 3 43.23 3.45
-11 3 9 44.28 3.25
3 9 11 43.88 3.38
-3 -9 11 45.7 3.34
-11 -3 9 44.51 3.68
3 -9 -11 48.83 4.45
-9 -11 3 41.48 3.96
-9 3 11 45.4 3.23
11 -3 -9 40.48 5.91
11 3 9 44.69 3.54
3 11 -9 59.26 6.02
9 11 3 47.97 3.38
11 9 -3 45.52 3.38
9 3 -11 40.84 5.29
3 9 11 51.4 3.29
-3 11 9 46.68 3.15
-3 11 9 47.09 3.43
-9 3 11 44.96 4.43
-3 -11 -9 52.77 4.38
-11 -3 9 54.76 3.26
-11 -9 -3 51.17 3.58
-5 9 11 4.08 2.04
9 11 -5 4.5 1.8
-11 5 9 3.91 1.54
-9 -11 -5 1.41 1.51
-9 -5 11 2.38 1.41
-5 9 11 2.84 1.44
9 11 -5 9.03 5
-11 -9 5 6.48 1.54
9 -5 -11 4.77 2.58
-11 -5 -9 7.31 2.14
-11 -9 5 -1.66 1.58
-5 -9 -11 3.52 1.89
5 11 9 3.98 1.73
-5 -11 9 1.4 1.74
9 5 11 3.38 1.93
-9 -5 11 2.05 1.73
11 9 5 1.34 1.72
5 9 -11 -4.63 3.1
11 5 -9 6.59 4.57
9 11 5 3.52 1.72
-5 -11 -9 6.03 2.05
-9 5 11 3.37 1.4
-9 -11 5 -0.26 1.45
-5 9 -11 6.53 4.27
5 9 11 1.05 1.54
11 -5 -9 6.16 2.9
-11 -5 9 3.39 1.64
5 11 -9 -3.9 3.47
-5 11 9 3.44 1.33
-5 -9 11 -0.52 1.8
-5 -9 11 2.4 1.49
5 9 11 3.83 1.68
11 5 9 2.65 1.58
9 5 -11 9.17 3.05
5 -9 -11 2.6 2.31
11 9 -5 3.5 1.79
-11 9 5 4.15 1.57
-11 -9 7 6.99 1.75
7 9 -11 3.83 3.51
-7 9 11 6.82 1.62
-11 7 9 7.02 1.68
9 7 11 7.31 2.03
-7 -11 9 8.12 1.71
11 9 7 8.19 2
9 11 -7 8.15 1.96
9 -7 -11 7.05 2.54
11 -9 -7 9.55 3.22
-9 -11 -7 13.91 2.86
9 11 -7 9.37 4.87
-7 -9 -11 7.82 2.12
-9 11 7 8.18 1.89
-9 -7 11 10.11 1.97
11 7 -9 11.15 4.76
11 7 -9 7.95 2.07
7 -9 11 8.95 1.96
-11 -9 7 12.31 2.75
-11 -7 -9 9.44 2.21
-7 -11 9 9.35 1.91
7 11 9 12.78 2.59
-9 -7 11 7.54 1.71
7 -9 -11 6.82 2.23
-7 -9 11 6.62 2
9 11 7 5.68 1.95
11 7 9 10.6 2.27
-11 -7 9 8.51 1.77
11 9 -7 6.77 2.04
7 9 11 4.69 1.82
-7 11 9 7.31 1.6
7 11 -9 11.21 3.99
-9 -11 7 6.88 1.88
9 7 -11 16.57 3.93
-11 -9 -7 7.35 2.06
-9 -11 7 7.67 1.84
-9 -7 -11 8.16 2
-7 -9 11 9.22 1.86
-7 -11 -9 13.32 3.02
7 11 -9 8.24 1.93
-11 9 7 7.07 1.74
11 9 -7 6.17 5.9
11 -7 -9 5.49 3.01
-9 7 11 6.12 1.6
-9 -11 -9 37.48 3.82
9 11 -9 34.84 3.37
9 11 9 38.96 3.46
11 9 -9 35.05 3.45
-11 -9 -9 36.33 3.79
-11 -9 9 35.34 3.58
9 -11 -9 38.76 4.71
9 -9 -11 36.96 4.35
9 9 -11 31.62 6.48
9 11 -9 40 7.25
11 -9 -9 28.33 4.56
11 9 -9 40.15 5.81
-11 -9 9 32.32 3.19
-11 9 9 32.36 3.19
-9 -11 9 36.82 3.46
-9 -9 11 36.25 3.24
-9 9 11 39.8 3.28
-9 11 9 39.34 3.19
9 -9 11 34.42 4
9 9 11 37.82 3.67
-9 -9 -11 36.85 3.97
11 9 9 35.13 3.51
-9 -11 9 34.4 3.51
-9 -9 11 34.42 3.56
1 11 11 79.93 5.12
11 1 11 79.46 5.15
11 11 -1 84.48 5.09
11 11 1 84.37 5.12
11 -1 -11 75.62 6.48
-1 11 11 91.06 4.86
-1 11 11 82.17 5.03
-11 1 11 87.08 4.86
11 -1 11 79.66 5.12
-11 -11 -1 87.96 5.23
-11 -11 1 85.53 5.19
-11 -1 11 75.47 5.58
-11 1 11 89.24 5.75
11 1 -11 86.95 6.5
1 11 -11 84.4 6.98
-1 11 -11 86.83 7.05
-11 -1 11 87.11 4.83
1 11 11 83.32 4.84
11 11 3 51.22 3.71
-11 3 11 50.46 3.63
-3 11 11 56.41 3.54
-3 -11 11 57.25 4.14
-11 -11 3 53.32 3.91
-3 11 11 48.01 3.96
-11 -11 -3 57.3 3.97
-3 11 -11 49.17 6.29
3 -11 -11 54.23 4.49
3 11 -11 49.42 6.37
11 -3 -11 48.17 5.27
11 3 -11 45.84 6.06
3 11 11 50.77 3.82
3 11 11 50.68 3.7
-11 -3 11 48.36 3.61
11 3 11 54.6 4.11
-3 -11 11 55.85 3.65
11 -3 11 46.08 3.87
11 11 -3 54.93 3.99
-11 -11 5 13.18 2.72
-11 -5 11 11.49 2.05
-11 5 11 9.09 1.84
-5 -11 11 9.19 1.84
-5 11 11 14.47 2.29
11 5 -11 19.24 4.17
-11 -11 5 8.98 2.11
-5 11 -11 6.52 4.07
5 -11 -11 10.17 2.6
-11 -11 -5 13.47 2.76
-11 -5 -11 15.37 3.31
5 11 11 13.01 2.74
11 5 11 7.71 2.24
11 11 -5 12.56 2.44
11 11 5 9.24 2.02
-5 -11 -11 19.9 3.67
-5 -11 11 9.73 2.12
11 -5 -11 11.61 2.94
5 11 -11 11.11 3.66
11 11 -7 28.71 3.26
11 11 -7 35.35 6.09
7 11 11 30.25 3.4
11 7 11 28.51 3.28
-11 -11 -7 29.01 3.44
-11 -11 7 28.19 3.28
-11 -7 -11 32.09 3.82
-11 -7 11 26.83 3.46
-7 -11 -11 33.03 4.02
-7 -11 11 28.23 3.54
-11 -7 11 29.16 3.2
-11 7 11 31.88 3.08
-11 11 7 30.08 3.04
11 11 7 27.52 3.43
11 7 -11 35.68 6.67
-11 -11 7 30.15 3.37
7 -11 -11 25.9 4.29
7 11 -11 29.76 4.56
11 -7 -11 31.04 4.25
-7 11 11 28.9 2.96
-7 -11 11 32.11 3.23
11 9 11 37.37 3.85
9 11 11 32.82 3.88
11 -11 -9 39.15 4.8
11 -9 -11 31.17 4.55
11 9 -11 44.18 7.71
11 11 -9 39.94 5.77
-11 -11 -9 34.35 3.89
-9 11 11 33.19 3.41
-11 9 11 28.73 3.38
-11 11 9 30.18 3.37
-9 -11 11 28.55 3.56
11 11 -9 33.16 3.63
11 11 9 38.75 3.71
-11 -11 9 40.04 3.77
-11 -9 -11 37.54 4.17
-11 -9 11 35.3 3.7
-9 -11 -11 37.92 4.35
-9 -11 11 41.74 3.82
9 -11 -11 43.9 4.29
9 11 -11 37.33 6.98
-11 -11 9 35.95 3.78
-11 -9 11 35.44 3.78
-11 -11 11 44.14 4.41
-11 11 11 37.34 3.86
11 -11 11 30.92 5.3
11 11 -11 40.72 7.63
-11 -11 11 40.8 4.13
11 11 11 39.36 4.36
-11 -11 -11 45.07 4.78
11 -11 -11 41.53 4.82
0 12 0 200.65 9.59
12 0 0 190.85 9.6
-12 0 0 201.22 9.77
0 0 12 191.59 9.55
0 -12 0 200.04 9.81
0 12 -2 19.45 2.1
-2 12 0 17.8 2.08
0 -12 2 17.23 2.83
-12 -2 0 19.03 2.77
0 -12 -2 24.17 3.18
-12 0 -2 22.75 2.91
-12 0 2 23.03 3.07
12 0 -2 16.87 2.18
2 -12 0 20.73 3.3
-12 2 0 20.87 3.27
-12 0 2 20.5 2.03
-2 0 12 21.03 2
2 0 12 19.95 2.1
-2 -12 0 21.72 2.69
12 0 2 24.82 2.28
0 12 2 20.19 2.14
12 -2 0 17.35 2.19
12 2 0 20.62 2.12
0 -2 12 22.79 2.13
2 12 0 17.23 2.05
0 2 12 22.18 2.06
-12 -2 2 5.17 1.13
2 2 12 3.48 1.2
-12 2 -2 6.94 1.98
2 -12 -2 4.22 2.18
-12 -2 2 4.07 1.59
-2 -2 12 2.49 1.15
-2 2 12 5.03 1.18
-12 2 2 3.51 1.15
-2 12 -2 4.29 1.26
-2 12 2 5.87 1.64
2 12 -2 6.2 1.53
-12 -2 -2 6.48 1.57
12 -2 -2 1.6 1.36
2 -12 2 7.73 1.95
12 2 -2 4.33 1.41
12 2 2 4.75 1.39
-2 -12 2 4.35 1.6
2 -2 12 5.51 1.32
2 12 2 4.37 1.39
-12 2 2 0.71 1.97
-2 -12 -2 4.89 1.67
12 -2 2 3.41 1.57
0 4 12 4.48 1.18
-4 0 12 5.15 1.24
-4 -12 0 5.33 1.51
12 4 0 4.28 1.3
12 0 4 5.19 1.71
0 -12 -4 3.74 1.93
-12 0 4 5.46 1.86
0 -4 12 6.13 1.53
4 12 0 6.05 1.53
12 0 -4 7.46 1.87
4 0 12 5.78 1.41
0 -12 4 5.49 1.7
-12 -4 0 6.74 1.63
0 12 -4 5.75 1.34
-12 0 4 4.49 1.29
4 -12 0 6.33 2.4
0 12 4 6.15 1.58
-12 0 -4 4.96 1.78
-12 -4 2 1.1 1.32
4 2 12 1.52 1.25
-12 -4 2 3.23 1.53
4 12 -2 -0.34 1.46
4 -12 2 -2.74 2.22
2 -4 12 0.61 1.34
12 4 2 1.15 1.29
-12 -2 -4 0.82 1.63
2 -12 -4 2.65 2.29
-12 2 4 0.98 1.26
-2 4 12 -0.96 1.01
12 2 -4 2.34 1.71
-4 -2 12 0.86 1.14
-4 12 2 3.2 1.36
12 -2 4 -1.77 1.29
-2 -12 4 1.81 1.56
-4 -12 -2 0.08 1.49
2 12 4 0.49 1.11
12 -2 -4 -1.63 1.49
12 -4 2 3.61 1.77
-2 -12 -4 0.29 1.69
2 -12 4 -3 1.75
-12 -2 4 -0.14 1.5
-2 -4 12 1.45 1.18
12 4 -2 2.1 1.35
-12 4 2 -2.34 1.15
4 -2 12 -2.05 1.34
4 12 2 0.66 1.29
2 12 -4 -0.5 1.28
12 2 4 0.82 1.49
-12 2 -4 1.11 1.79
-2 12 4 -0.19 1.37
-4 2 12 0.8 1.08
-12 -4 -2 1.78 1.45
-12 -2 4 0.7 1.23
-4 -12 2 0.47 1.37
2 4 12 1.05 1.27
-4 -4 12 -1.37 1.35
4 12 4 1.7 1.2
12 -4 4 -0.84 1.51
-12 4 4 -0.33 1.26
-12 -4 -4 -1.21 1.4
-4 4 12 -1.06 0.99
4 -12 4 3.76 2.08
-4 -12 4 1.7 1.55
-12 -4 4 0.01 1.52
-4 -12 -4 1.11 1.61
4 4 12 -0.68 1.31
12 4 -4 -1.62 1.54
12 4 4 -0.48 1.48
-12 -4 4 0.91 1.34
4 12 -4 1 1.55
4 -4 12 1.17 1.42
0 -12 6 20.95 3.03
12 0 -6 17.23 2.38
-12 0 -6 19.95 3.24
-12 -6 0 16.36 3.63
0 -12 -6 16.67 2.51
6 12 0 19.69 2.25
-6 0 12 18.38 2.16
12 6 0 19.5 2.49
-12 0 6 15.73 2.99
-6 -12 0 19.64 2.64
12 0 6 14.84 2.36
-12 0 6 21.8 2.17
0 -6 12 22.2 2.24
0 6 12 19.65 2.27
6 0 -12 9.87 3.04
6 0 12 14.41 2.57
0 12 6 18.44 2.24
-6 -12 -2 2.16 1.55
-12 -2 -6 2.47 1.75
-12 2 6 2.28 2.31
12 2 -6 0.46 1.66
6 12 -2 -0.56 1.57
12 -2 6 -0.75 1.66
-6 -2 12 -1.06 1.19
-12 2 6 1.72 1.28
-12 -6 2 3.26 1.94
12 6 2 5.03 1.6
2 -6 12 0.86 1.3
-12 -6 2 3.5 1.44
2 12 6 0.95 1.33
-2 -12 6 1.61 1.7
2 -12 -6 0.91 2.81
6 2 12 1.1 1.34
6 -2 -12 -0.87 2.44
-2 6 12 0.8 1.26
2 -12 6 3.81 1.93
2 6 12 1.02 1.35
2 6 12 2.58 1.48
-2 -12 -6 3.19 1.91
-2 12 6 0.54 1.36
6 -2 12 3.42 1.7
6 12 2 3.41 1.59
2 12 -6 1.45 1.32
12 2 6 0.77 1.39
12 6 -2 1.92 1.42
-12 -2 6 0.77 1.54
6 2 -12 2.59 2.41
-6 -12 2 2.23 1.43
-6 2 12 1.72 1.2
-12 -2 6 2.16 1.37
-2 -6 12 1.3 1.29
-6 -12 -4 0.85 1.6
4 -6 12 -0.32 1.26
12 4 -6 -2 1.62
12 6 4 0.92 1.45
-4 -12 6 1.79 1.61
6 4 12 3.23 1.71
12 -4 6 2.07 1.8
-4 6 12 1.59 1.3
-12 4 6 1 1.3
-6 -4 12 2.94 1.39
4 12 6 -0.7 1.34
6 -4 -12 -0.22 2.36
6 12 -4 -0.7 1.64
6 -12 4 -3.16 2.59
-12 -6 4 0.25 1.38
6 4 12 0.47 1.66
4 6 12 -0.19 1.39
4 -12 6 -0.51 2.03
12 6 -4 5.63 1.91
-4 -6 12 1.37 1.13
-12 -6 -4 -0.08 1.5
-4 -12 -6 -0.64 1.62
4 6 12 -2.07 1.42
6 -4 12 0.89 1.65
-6 4 12 1.19 1.1
4 12 -6 2.18 1.4
-12 -4 6 -1.46 1.38
-12 6 4 0.67 1.25
4 12 -6 3.79 3.73
12 4 6 -1.49 1.68
-6 -12 4 0.12 1.5
12 -6 4 -0.57 1.77
-12 -4 6 0.03 1.47
6 12 4 -0.79 1.34
6 4 -12 2.58 2.52
6 12 -6 5.15 1.71
6 12 -6 1.61 3.85
6 6 12 3.47 1.9
12 6 6 1.11 1.76
-12 -6 -6 4 1.67
-6 -12 6 4.21 1.65
12 6 -6 4.59 2.05
6 -6 -12 4.95 2.18
6 6 -12 -0.44 3
6 12 6 0.76 1.46
12 -6 6 4.53 2.19
-6 -12 -6 2.12 1.59
-6 6 12 7 1.6
6 -6 12 2.08 1.56
-12 -6 6 4.96 1.62
-12 6 6 2.62 1.52
-6 -6 12 3.49 1.59
6 6 12 2.22 1.81
6 -12 6 6.07 2.46
0 12 -8 77.72 6.39
8 0 12 63.84 4.55
-8 -12 0 66.52 4.34
8 0 -12 65.31 5.28
0 8 12 63.85 4.06
-12 -8 0 64.53 4.08
12 8 0 67.51 4.26
0 -8 12 65.37 4.14
12 0 8 69.5 4.37
-12 0 8 65.39 4
-8 0 12 62.74 4.02
0 12 8 68.21 4.03
-12 0 8 61.58 4.72
0 8 12 72.86 4.09
8 12 0 67.18 4.2
0 -12 -8 64.07 5.61
0 -12 8 71.73 4.51
-8 -12 -2 20.82 2.92
-2 8 12 20.22 2.49
8 2 12 21.59 2.8
8 -2 -12 29.13 4.14
-2 8 12 21.08 2.38
-2 -12 8 21.3 3.04
-12 -8 2 15.7 2.63
-12 -8 2 19.87 2.55
-12 2 8 23.57 2.48
12 -2 8 24.16 2.82
2 12 8 19.12 2.42
12 8 2 18.21 2.46
-12 2 8 22.32 3.13
2 -8 12 22.32 2.52
8 12 -2 19.24 2.37
2 8 -12 29.68 4.95
-8 -2 12 18.26 2.33
-8 -12 2 22.22 2.74
-2 12 8 16.6 2.63
8 2 -12 17.86 3.06
-2 -8 12 20.9 2.46
-12 -8 -2 25.67 2.92
2 12 -8 21.5 3.89
8 12 2 21.75 2.55
-2 -12 -8 22.75 3.94
2 8 12 20.76 2.64
2 8 12 20.5 2.59
12 2 8 24.51 2.77
2 -8 -12 22.43 3.52
12 8 -2 17.02 2.55
-2 12 8 21.68 2.22
-12 -2 8 13.55 2.45
2 -12 8 20.75 3.33
8 -2 12 20.04 3.29
-8 2 12 18.59 2.36
-12 -2 8 18.39 3.18
-12 -8 4 2.71 1.45
8 -4 -12 2.68 2.35
8 12 -4 2.33 1.77
-4 8 12 1.5 1.39
-8 -12 -4 8.3 1.84
4 12 8 4.19 1.64
12 -4 8 3.03 2.14
-12 -4 -8 6.75 1.88
8 4 12 2 1.81
12 8 4 3.02 1.72
-12 -8 4 4 1.72
12 4 -8 -0.15 1.78
4 8 -12 -3.24 2.93
4 -8 12 1.66 1.52
-12 4 8 3.21 1.62
-8 -4 12 5.43 1.48
-4 8 12 2.75 1.83
8 4 -12 3.33 2.81
8 12 4 2.02 1.43
-8 -12 4 2.81 1.53
4 8 12 3.13 1.93
-12 -4 8 4.14 1.65
-12 -8 -4 5.23 1.68
-4 8 -12 8.56 4.1
12 8 -4 4.26 1.98
-4 -8 12 3.82 1.42
-4 12 8 2.3 1.35
-4 -12 -8 2.18 1.94
12 4 8 3.77 1.58
-8 4 12 3.24 1.42
4 12 -8 -6.83 3.46
8 -4 12 7.02 2.16
6 12 8 -0.6 1.5
8 12 -6 0.25 1.7
12 8 6 0.96 1.56
-12 6 8 -0.35 1.55
-12 -6 -8 1.44 1.88
6 8 -12 5.38 3.07
12 6 -8 0.03 1.75
-6 8 12 0.11 1.34
-12 -8 6 1.03 1.78
6 -8 12 1.76 1.8
8 -6 -12 0.1 2.26
12 -6 8 -2.75 1.92
12 6 -8 -4.67 5.42
-8 -12 -6 4.01 1.61
12 -8 -6 1.12 3.28
-8 -6 12 -0.19 1.51
8 12 -6 1.22 4.34
-6 -12 8 0.99 1.63
8 6 12 1.36 2.02
-12 -8 -6 1.45 1.62
-12 8 6 0.68 1.55
6 12 -8 -0.08 3.93
-12 -6 8 3.29 1.64
-12 -6 8 0.26 1.68
-8 -12 6 3.35 1.65
-8 6 12 3.27 1.51
12 6 8 1.76 1.9
6 8 12 1.27 1.86
6 12 -8 0.94 1.75
12 8 -6 1.8 1.91
12 -6 -8 -2.86 3.07
6 -8 -12 1.73 2.18
8 -6 12 -2.4 1.72
8 6 -12 -3.17 3.25
-6 8 -12 5.37 5.02
-6 12 8 -1.35 1.48
8 12 6 1.33 1.57
-6 -8 12 1.78 1.51
-6 -8 12 3.26 1.67
-6 -12 -8 -0.03 1.79
-8 -12 8 -0.39 1.67
-8 -12 8 0.77 1.78
8 -8 -12 1.14 2.4
12 -8 -8 3.96 2.97
12 8 -8 8.22 5.95
-12 8 8 3.17 1.74
-8 -8 12 -0.35 1.73
12 8 -8 2.82 1.93
-8 -12 -8 1.4 2.12
-8 12 8 -0.08 1.46
8 8 -12 -3.99 3.3
8 12 -8 0.97 4.26
-8 -8 12 0.33 1.81
8 12 -8 3.8 1.93
-8 8 12 -0.95 1.38
8 8 12 -1.01 1.99
-12 -8 -8 2.41 1.67
-12 -8 8 0.36 1.71
8 -8 12 -1.45 2.08
-12 -8 8 1.01 1.74
8 12 8 2.26 1.9
12 8 8 1.11 2.01
12 10 0 78.07 4.79
0 -10 -12 67.01 5.5
10 12 0 76.43 4.76
0 -10 12 79.88 4.61
-10 -12 0 79.65 4.9
-10 0 12 76.76 4.53
0 12 10 71.22 4.69
-10 0 12 72.87 5.39
10 0 -12 63.02 5.89
-12 0 10 83.23 4.67
0 10 12 80 4.7
-12 0 10 78.83 5.35
12 0 -10 72.37 6.89
0 10 -12 66.58 6.82
12 0 10 77.98 4.91
0 12 -10 75.74 6.61
0 -12 10 73.93 5.08
0 12 10 80.67 4.52
0 10 12 82.42 4.56
10 0 12 77.2 4.93
-12 -10 0 78.2 4.88
-12 -10 2 52.2 3.83
-12 2 10 54.67 3.6
10 12 -2 51.79 3.69
-2 -12 10 53.76 4.05
2 10 -12 49.38 6.15
-2 -10 -12 49.42 4.83
-2 10 12 52.88 3.55
-2 10 12 50.77 3.66
12 -2 10 55.05 3.9
2 -10 12 46.09 3.49
12 2 -10 45.85 6.73
-12 -10 2 52.52 3.86
10 2 12 48.97 3.92
10 -2 -12 46.01 5.03
-10 -2 12 50.62 3.52
-2 12 -10 48.05 5.82
2 12 10 52.99 3.82
12 10 2 45.44 3.87
-10 -12 -2 48.53 3.93
10 2 -12 41.8 5.27
2 10 12 48.59 3.55
-2 10 -12 43.89 6.26
2 12 -10 44.4 6.19
12 2 10 47.18 3.84
-12 -2 10 48.59 3.61
-10 -12 2 50.94 3.83
10 12 2 45.35 3.68
12 10 -2 45.57 3.74
-10 2 12 47.7 3.51
-12 -10 -2 51.03 4
2 10 12 46.33 3.7
-2 12 10 41.42 3.77
2 -10 -12 49.45 4.54
12 -2 -10 54.37 5.41
-2 -12 -10 49.44 5.03
-2 -10 12 51.81 3.59
-2 12 10 52.36 3.37
-10 2 12 52.83 4.99
-12 -10 4 18.2 3.01
4 10 -12 10.29 3.68
12 -4 10 9.16 2.31
-4 10 12 11.81 2.44
-10 -4 12 16.15 2.49
12 10 4 13.25 2.58
-12 4 10 13.96 2.01
10 -4 -12 12.48 2.79
12 4 -10 22.47 4.18
-10 -12 -4 16.58 2.95
10 4 12 12.67 2.64
10 12 -4 14.24 2.43
-10 -4 12 14.18 2.27
4 -10 12 13.87 2.53
4 12 10 11.35 2.24
-12 -4 -10 10.87 2.37
-4 -12 10 16.92 3.12
-12 -10 4 15.39 2.76
-4 10 12 10.62 2.38
4 -10 -12 12.36 2.5
12 -4 -10 3.59 3.19
-12 -10 -4 15.49 2.86
-4 -12 -10 14.37 2.83
4 10 12 12.11 2.6
-12 -4 10 11.57 2.07
-10 -12 4 17.94 2.76
10 4 -12 14.46 3.25
4 10 12 11.29 2
-12 -4 10 19.24 3.1
-4 10 -12 6.54 4.22
12 10 -4 15.7 2.47
4 12 -10 16.71 3.72
10 12 4 12.15 2.5
-10 4 12 11.67 2.38
-4 12 10 14.92 2.3
-4 -10 12 15.28 2.39
-4 -10 12 9.22 1.84
12 4 10 17.57 2.81
10 -6 -12 4.19 2.81
-10 -6 12 7.35 2.05
12 -10 -6 6.7 3.49
-6 10 12 4.78 1.78
6 -10 12 2.9 1.88
6 12 10 5.61 2.19
10 12 -6 9.86 5.21
-12 6 10 6.04 1.88
-6 -10 -12 11.79 5
-10 -12 -6 4.22 1.79
-6 -12 10 5.12 1.96
12 -6 10 4.71 2.37
-10 -6 12 6.42 2.08
-12 -10 6 6.06 1.97
10 6 12 4.96 2.38
12 6 -10 13.31 4.87
12 10 6 5.75 2.11
-12 -10 6 3.54 1.77
-12 -6 -10 6.54 1.99
-6 -12 10 5.4 2.04
10 12 -6 3.93 2.17
6 10 -12 11.16 3.67
12 10 -6 8.94 2.23
12 6 10 7.75 2.64
-6 -10 12 5.92 1.89
-12 10 6 7.62 1.94
-10 6 12 5.72 1.8
-6 -12 -10 8.11 2.31
-12 -6 10 6.26 1.94
12 -6 -10 10.11 3.22
10 6 -12 5.91 3.78
-12 -6 10 5.76 1.83
6 12 -10 7.03 3.87
12 10 -6 12.52 6.51
-10 -12 6 4.26 1.73
10 12 6 4.18 1.81
-6 12 10 5.31 1.59
-6 10 -12 2.07 4.48
-6 -10 12 3.64 2.01
-12 -10 -6 2.68 1.66
6 10 12 3.99 2.08
-10 -12 6 8.06 1.95
6 -10 -12 5.57 2.26
-12 8 10 16.05 3
-10 12 8 22.87 2.79
8 -12 -10 23.69 4.3
-10 -12 -8 19.04 3.41
-8 -12 10 21.25 3.26
-8 -10 -12 18.42 3.66
-10 -8 12 18.72 3.06
-12 -10 8 19.54 3.04
-12 -10 8 17.65 3.09
12 8 -10 22.23 5.32
8 10 -12 24.64 4.37
10 8 12 14.63 3.09
10 12 -8 17.33 3.18
-8 10 12 16.11 2.86
-10 -8 12 20.85 3.22
-12 -8 -10 13.24 2.71
10 12 -8 20.88 5.23
-8 -12 10 22.78 3.18
12 -10 -8 19.99 3.33
8 12 10 19.63 3.19
10 -8 -12 20.41 3.96
12 -8 -10 19.48 3.17
-12 10 8 19.93 2.9
12 10 -8 19.53 3.23
10 12 8 14.62 2.68
-10 8 12 21.84 2.91
-8 -10 12 23.18 3.39
-12 -8 10 20.74 3.17
-8 -10 12 22.05 2.88
-12 -10 -8 20.22 3.42
12 8 10 10.68 2.86
-10 -8 -12 17.56 3.6
-10 -12 8 21.27 3.35
-8 -12 -10 23.95 3.82
-10 -12 8 20.17 3.2
-8 12 10 14.42 2.68
12 10 -8 16.12 5.79
8 12 -10 22.38 4.42
8 -10 -12 22.05 3.95
-12 -8 10 20.33 3.18
10 8 -12 21.8 4.09
8 10 12 16.22 3.38
-12 -10 10 22.01 3.82
-12 10 10 27.09 3.4
-10 -12 10 22.18 3.59
-10 -10 12 31.29 3.7
12 10 10 26.01 3.71
-12 -10 10 28.79 3.64
10 -12 -10 24.02 4.47
10 -10 -12 21.23 3.28
10 10 -12 18.47 4.79
-10 -12 -10 33.07 4.16
-10 12 10 29.21 3.36
10 -10 12 22.18 4.58
-12 -10 -10 23.29 4.06
-10 -10 -12 25.68 4.15
-10 -10 12 25.5 3.67
-10 10 12 30.51 3.3
10 10 12 18.69 3.79
10 12 -10 25.87 5.14
12 -10 -10 29 4.52
12 10 -10 34.99 5.97
-10 -12 10 23.89 3.57
10 12 10 24.05 3.58
0 12 12 87.94 4.91
-12 -12 0 85.54 5.35
0 12 12 69.25 5.21
0 -12 12 77.44 4.96
0 -12 -12 85.33 5.75
0 12 -12 77.9 7.07
12 0 -12 83.85 6.54
-12 0 12 77.42 4.99
12 0 12 83.05 5.45
12 12 0 79.88 5.18
2 12 -12 40.46 5.82
12 -2 -12 39.75 4.99
12 12 2 34.93 3.63
-12 2 12 39.99 3.47
12 12 -2 34.49 3.36
12 2 12 37.94 3.83
-12 -12 -2 43.71 3.8
-12 -12 2 39.35 3.63
-12 -2 12 37.28 3.32
-2 12 12 27.32 3.93
-2 -12 12 35.91 3.33
-2 12 12 38.47 3.28
2 12 12 40.9 3.43
-2 -12 12 34.97 3.83
12 -2 12 30.61 3.54
-2 -12 -12 29.47 4.59
-2 12 -12 38.63 5.83
2 -12 -12 31.54 4.23
12 2 -12 37.19 5.75
2 12 12 32.58 3.59
4 12 12 5.76 2.38
-4 -12 -12 14.75 3.36
-4 12 -12 7.94 3.86
4 -12 -12 18.29 3.82
4 12 -12 11.01 3.43
12 -4 -12 7.5 3.06
12 4 -12 11.52 3.74
12 -4 12 5.21 2.28
-12 -12 4 10.92 2.04
-12 -4 12 13.21 2.43
-4 -12 12 11.83 2.28
-4 12 12 9.95 1.94
-12 4 12 12.99 2.16
-12 -12 -4 8.02 2.14
12 4 12 11.46 2.65
12 12 -4 11.34 2.62
12 12 4 7 2.14
-12 -12 4 12.46 2.54
-4 -12 12 10.76 2.24
-12 -4 12 13.66 2.11
-12 -12 6 7.98 1.96
-6 -12 -12 14.64 3.5
-12 -12 -6 6.87 2.12
-12 6 12 7.57 2.09
-6 -12 12 9.47 2.08
-6 12 12 17.36 2.75
12 12 6 8.73 2.4
-12 -6 12 8.4 2.25
6 12 12 10.54 2.59
12 6 12 7.14 2.55
12 12 -6 11.41 2.6
-6 -12 -12 12.7 2.67
-12 -6 12 11.48 2.35
6 -12 -12 9.14 2.58
6 12 -12 10.89 3.81
12 -6 -12 6.33 3.01
12 6 -12 14.32 4.67
-12 -12 6 10.81 2.48
-6 -12 12 7.74 2.22
8 -12 12 22.39 3.64
-12 -8 12 20.05 3.45
12 8 -12 23.36 4.81
-12 8 12 19.21 3.34
-8 -12 12 11.2 2.39
-8 12 12 19.11 3.05
-12 -12 8 22.27 3.8
8 12 12 15.15 3.14
12 8 12 13.49 3.29
12 12 -8 14.65 2.9
12 12 8 14.45 2.98
12 12 -8 6.61 5.5
-12 -8 -12 21.83 3.92
-12 -8 12 16.96 3.49
-8 -12 -12 17.97 3.13
-8 -12 12 20.44 3.55
-12 -12 8 11.65 2.36
8 -12 -12 19.73 3.74
8 12 -12 20.52 4.13
12 -12 -8 15.15 3.6
12 -8 -12 14.25 3.24
-12 -12 -8 17.08 3.68
12 10 -12 20.29 5.33
10 -12 -12 28.51 4.38
10 12 -12 22.15 4.61
12 -12 -10 19.5 3.42
12 -10 -12 21.83 4.56
-12 -12 -10 25.93 4.2
-12 -12 10 25.2 3.53
-12 -10 -12 25.43 4.21
-12 -10 12 18.6 3.65
-10 -12 -12 22.04 4.49
-10 -12 12 19.28 3.79
-12 -10 12 22.1 4.09
-12 10 12 17.12 3.59
10 12 12 18.56 3.43
12 10 12 21.09 4.36
12 12 10 13.43 3.36
-10 12 12 18.77 3.39
-12 12 10 17.89 3.56
12 12 -10 23.25 5.75
-12 -12 10 15.39 3.51
13 -1 -1 70.33 4.33
-1 13 1 70.8 4.24
13 1 -1 67.21 4.31
13 1 1 74.18 4.34
-1 -13 -1 72.68 4.78
-1 -13 1 73.25 4.67
1 -13 -1 78.97 5.07
1 1 13 69.56 4.22
-13 -1 -1 75.98 4.6
-13 -1 1 77.37 4.68
1 13 -1 71.17 4.27
1 13 1 73.77 4.21
13 -1 1 73.72 4.34
-1 13 -1 69.62 4.19
-1 -1 13 75.43 4.22
-1 1 13 73.38 4.22
1 -1 13 75.29 4.21
1 -13 1 69.85 4.75
-13 1 -1 74.63 4.86
-13 1 1 69.45 4.78
-13 3 -1 0.53 2.41
-13 -3 1 0.52 1.65
1 13 3 2.47 1.53
13 -3 -1 0.64 1.72
-3 -1 13 -1.63 1.29
3 -13 1 -1.43 2.24
1 -13 -3 0.45 2.18
13 1 -3 1.04 1.9
-1 3 13 2.5 1.26
-13 1 3 4.39 2.17
-3 -13 -1 0 1.68
3 1 13 2.07 1.29
-13 -1 -3 0.4 1.71
13 -1 3 2.01 1.81
-13 1 3 1.21 1.35
13 3 1 1.59 1.44
-3 13 1 -0.56 1.5
-1 -13 3 1.69 1.78
3 13 -1 -1.73 1.48
1 -3 13 1.2 1.42
-1 13 -3 -0.1 1.31
13 1 3 1.45 1.58
-3 -13 1 0.35 1.49
-1 -13 -3 -0.08 1.94
-13 -1 3 0.58 1.75
3 13 1 1.1 1.46
13 -1 -3 -2.39 1.9
-13 -1 3 -0.21 1.34
13 -3 1 2.03 1.71
-3 1 13 0.72 1.27
3 -1 13 -1.33 1.46
1 -13 3 -1.9 1.83
-13 -3 -1 0.77 1.57
-13 1 -3 -2.94 1.87
1 13 -3 1.33 1.44
1 3 13 0.41 1.17
13 3 -1 1.3 1.52
3 -13 -1 -2.1 2.72
-1 -3 13 2.83 1.29
-1 13 3 -0.46 1.44
13 -3 3 11.28 2.13
3 -3 13 8.55 1.62
-3 -13 -3 14.2 2.96
-13 -3 3 13.39 2.1
3 13 -3 12.64 1.98
3 13 3 11.26 2.22
-13 -3 -3 10.59 2
3 3 13 14.71 2.24
3 -13 -3 15.58 3.45
-3 13 3 11.71 2.05
-13 3 3 11.4 2.03
-3 -3 13 13.56 2.2
-13 -3 3 12.31 2.34
13 3 -3 6.73 1.69
13 3 3 9.89 1.91
-3 3 13 6.9 1.5
-3 -13 3 11.09 1.9
3 -13 3 8.82 2.28
-1 -13 5 2.61 1.73
13 5 1 1.03 1.34
-13 1 5 5.47 2.43
-13 -1 -5 1.21 1.86
5 1 13 2.52 1.57
13 -1 5 2.32 1.5
13 1 -5 4.1 1.94
1 13 5 3.59 1.83
1 -13 -5 3.16 2.45
1 -5 13 0.06 1.18
-5 -1 13 2.6 1.37
-5 -13 -1 1.33 1.72
5 13 -1 0.18 1.15
-13 1 5 4.15 1.54
-1 5 13 -0.04 1.38
1 5 -13 3.01 2.86
-13 -1 5 1.23 1.3
1 5 13 2.48 1.39
-1 13 5 1.49 1.74
1 13 -5 2.06 1.47
-1 -13 -5 -0.76 2.02
-13 1 -5 4.2 2.04
13 5 -1 2.39 1.78
1 -5 -13 -1.27 2.76
-1 -5 13 3.92 1.53
-13 -1 5 1.91 1.87
1 -13 5 3.05 1.86
5 13 1 2.57 1.4
13 -1 -5 3.96 1.92
-5 -13 1 2.11 1.62
-5 1 13 3.74 1.41
5 -1 13 1.07 1.64
13 1 5 0.82 1.8
-5 -3 13 12.32 2.14
5 3 13 19.18 2.68
3 5 -13 12.24 3.07
-13 3 5 11.92 2.2
-3 -13 5 12.34 2.76
-3 5 13 11.41 1.75
5 13 -3 13.21 2.44
3 13 5 10.32 1.76
13 -3 5 9.27 1.98
-13 -5 3 12.66 1.86
-5 -13 -3 12.99 2.91
13 5 3 12.49 2.53
5 -13 3 10.56 2.92
13 3 -5 17.08 2.35
3 -5 13 16.99 2.25
3 5 13 13.03 1.97
-13 -3 5 15.05 2.75
3 -13 5 9.8 2.3
-3 13 5 12.24 2.44
3 13 -5 12.74 2.33
13 3 5 10.68 2.19
-5 -13 3 10.95 2.55
-13 -3 5 12.86 2.37
13 5 -3 15.7 2.42
-3 -5 13 10.85 1.85
5 13 3 11.74 2.13
5 -3 13 16.27 2.59
-5 3 13 10.15 2.08
3 -5 -13 9.05 2.57
-13 5 3 13.76 2.2
13 -5 3 12.09 2.46
-3 -13 -5 11.8 2.11
-13 -5 -5 10.39 2.07
-13 5 5 13.05 2.24
5 -5 -13 11.53 2.53
5 5 13 8.89 2.16
5 13 5 7.38 1.79
-5 -5 13 10.9 1.85
13 -5 5 6.11 2.11
-5 5 13 8.68 1.64
5 5 -13 10.29 2.73
5 -13 5 9.73 2.61
5 -5 13 12.18 2.06
13 5 5 9.67 1.99
5 13 -5 10.17 1.97
13 5 -5 9.22 2.35
-13 -5 5 11.7 1.84
-5 -13 5 13.77 2.78
5 5 13 9.14 2.03
-5 -13 -5 5.82 1.9
1 -13 -7 10.59 3.08
7 13 -1 7.35 1.68
-7 -1 13 8.29 1.57
13 7 1 9.19 2.12
-1 7 13 10.7 1.79
-1 7 13 8.12 1.9
-1 -7 -13 5.48 2.67
-13 -7 1 6.72 1.69
1 7 -13 14.74 3.13
1 13 7 5.61 1.72
-7 -13 -1 10.01 1.93
7 -1 -13 7.96 2.43
1 -7 13 7.03 1.57
-13 1 7 8.84 2.45
7 1 13 4.77 1.82
-13 -1 -7 5.93 2.38
13 -1 7 10.24 2.08
-1 -13 7 7.17 1.94
-13 1 7 5.47 1.61
-1 -7 13 6 1.49
-13 -1 7 7.3 2.05
-13 -7 -1 12.42 2.69
1 -13 7 11.61 2.22
-7 -13 1 12.43 2.64
7 1 -13 8.11 2.48
-1 13 7 8.29 1.79
-1 -13 -7 9.03 2.55
1 7 13 9.01 1.84
-7 1 13 11.59 2.07
1 7 13 3.86 1.71
7 13 1 9.12 1.87
13 7 -1 4.47 1.91
1 -7 -13 13.78 2.62
-13 -1 7 10.1 1.61
-1 7 -13 4.69 3.22
7 -1 13 8.35 2.17
13 1 7 5.66 1.93
-13 3 7 1.93 1.61
-7 -13 -3 4.93 1.75
-3 7 13 3.79 1.47
3 -7 13 2.86 1.59
7 3 13 3.06 1.9
-3 -13 7 4.47 1.78
3 7 -13 -1.55 2.91
-13 -3 -7 3.84 2.01
13 -3 7 -0.75 2.06
13 3 -7 2.9 2.03
-13 -7 3 3.23 1.62
7 13 -3 3.74 1.87
3 13 7 0.24 1.61
-13 -7 3 2.14 1.64
13 7 3 3.13 1.76
-7 -3 13 -0.46 1.35
7 3 13 3.87 2.1
13 7 -3 2.42 1.45
-13 -3 7 1.76 1.75
-13 -3 7 3.37 1.69
-3 -13 -7 5.35 2.38
3 -7 -13 0.07 2.27
3 7 13 0.7 1.78
7 -3 13 1.53 2.1
3 -13 7 1.14 2.18
-3 7 -13 -4.84 3.69
-3 -7 13 0.78 1.22
3 13 -7 -2.9 3.57
-3 13 7 -3.69 3.24
-13 -7 -3 6.48 1.59
-7 3 13 -1.19 1.23
13 3 7 0.8 1.92
7 13 3 2.62 1.77
-7 -13 3 4.62 1.64
3 7 13 2.01 1.71
7 3 -13 3.28 2.61
-7 -5 13 8.2 1.69
7 -5 -13 4.07 2.46
-13 -7 5 8.13 1.8
-5 7 13 5.64 1.52
5 -7 13 8.13 1.96
7 5 13 6.94 2.34
13 7 5 6.65 1.93
13 5 -7 6.1 2.16
-13 5 7 8.5 1.87
-13 -7 5 8.12 1.93
-5 -13 7 8.02 1.88
13 -5 7 0.7 3.21
-13 -5 -7 2.32 1.88
5 7 -13 12.08 3.28
5 13 7 8.02 1.85
7 13 -5 7.09 2.05
5 7 13 16.15 2.92
-5 7 -13 5.92 4.7
13 7 -5 5.53 2.16
-7 5 13 4.87 1.54
-7 -13 5 12.02 2.59
7 13 5 6.85 1.83
5 13 -7 14.26 3.92
-5 -13 -7 14.12 3.21
5 -7 -13 8 2.23
13 5 7 6.56 2.08
5 13 -7 6.9 1.71
13 -5 -7 10.1 4.66
5 7 13 7.73 2.26
7 5 -13 7.26 2.64
-13 -7 -5 8.41 1.95
-13 -5 7 3.96 1.84
-5 -7 13 6.51 1.42
5 -13 7 6.34 2.44
-13 7 5 8.24 1.66
7 -5 13 4.68 2.21
-13 -7 7 10.46 2.27
-7 -7 13 13.76 3.08
13 7 -7 13.38 2.44
7 -7 13 15.08 3.08
13 -7 -7 14.74 3.74
13 7 -7 28.44 7.83
7 13 -7 8.63 4.27
-7 -7 13 13.84 2.65
7 13 -7 14.11 2.69
-13 -7 7 15.89 2.78
-7 -13 -7 12.11 2.5
7 -13 7 11.89 3.03
13 7 7 9.7 2.39
7 13 7 12.62 2.31
7 -7 -13 9.87 2.41
-7 7 -13 20.32 6.05
-7 7 13 11.72 2.41
7 7 13 17.83 3.06
7 7 -13 13.61 3.57
-13 -7 -7 19.38 3.11
-13 7 7 13.67 2.57
-7 -13 7 13.66 2.87
9 -1 -13 32.32 4.43
9 13 -1 31.35 3.2
-13 1 9 39.85 4.34
13 -1 9 36.03 3.54
-1 -9 -13 27.2 4.54
13 9 1 34.84 3.25
9 1 13 30.54 3.48
-13 1 9 35.67 3.35
-1 9 13 35.33 3.31
1 13 9 39.02 3.13
1 9 -13 38.84 5.58
-13 -9 1 38.17 3.36
-9 -13 -1 33.74 3.52
-1 9 13 33.74 3.1
1 -9 13 38.32 3.13
13 1 -9 34.58 6.54
-9 -1 13 34.3 3.05
1 9 13 35.12 3.18
13 1 9 32.66 3.48
-1 -9 13 33.78 3.15
-9 1 13 41.01 3.05
-1 9 -13 28.78 5.92
-1 13 9 36.59 3.42
1 9 13 32.82 3.34
1 -9 -13 31.99 4.07
9 13 1 37.43 3.26
-1 -13 -9 39.31 5.11
-9 -13 1 37.66 3.4
1 -13 9 41.63 3.74
13 -1 -9 40.19 6.23
-13 -1 9 33 4.03
9 1 -13 32.36 4.55
-13 -1 9 44.21 3.32
-13 -9 -1 37.2 3.43
13 9 -1 37.58 3.24
1 13 -9 30.24 4.27
13 -3 9 4.24 2.34
3 -9 13 6.85 1.76
13 3 -9 4.07 4.57
-13 -3 -9 6.96 2.02
-3 9 13 2.7 1.53
13 9 3 4.28 1.73
-9 -13 -3 3.27 1.77
-13 -9 3 2.85 1.66
-3 -9 -13 11.19 2.96
9 -3 -13 6.28 2.53
-9 -3 13 1.71 1.47
3 13 9 3.18 1.79
-13 3 9 4.48 1.9
9 13 -3 2.83 1.99
-9 -3 13 6.36 1.93
9 3 13 2.43 2.35
-3 -13 9 3.1 1.8
-13 -9 3 0.47 1.75
-3 9 13 -0.91 2.12
3 9 -13 5.9 3.11
9 3 -13 2.46 2.65
-3 -9 13 1.25 1.56
3 9 13 -1.25 1.94
-3 -13 -9 5.88 2.7
3 9 13 4.36 1.88
-9 -13 3 3.41 1.82
13 9 -3 4.86 2.33
3 -9 -13 4.15 2.28
-3 9 -13 -0.41 3.8
13 -3 -9 10.19 3.65
9 13 3 4.55 2.05
3 13 -9 5.4 3.47
-3 13 9 1.99 1.32
3 -13 9 4.17 2.17
13 3 9 4.79 2.01
-9 3 13 0.74 1.3
-13 -9 -3 3.54 1.8
-13 -3 9 2.64 1.81
-9 -5 13 -0.21 1.62
13 -9 -5 0.06 3.98
-13 5 9 1.58 1.87
9 -5 -13 1.25 2.48
-5 -9 -13 0.25 3.63
-13 -5 -9 0.69 2.22
-5 -13 9 1.42 1.73
-13 -9 5 6.35 2.21
9 13 -5 0.51 2.03
-13 -9 5 2.03 1.66
13 5 -9 7.5 5.72
13 9 5 1.04 1.7
-5 9 13 0.43 1.49
13 -5 9 2.11 2.54
9 5 13 2.21 2.28
-9 -5 13 2.05 1.99
5 13 9 1.75 1.8
-9 -13 -5 -1.75 1.66
5 -9 13 1.85 1.79
5 9 -13 0.75 3.08
-5 9 -13 -6.24 4.14
-9 -13 5 0.46 1.66
5 9 13 -0.32 2.05
-5 -9 13 0.53 1.84
9 13 5 -0.49 1.69
9 5 -13 1.42 3.05
-13 -9 -5 -0.42 1.62
-5 13 9 2.89 1.61
13 -5 -9 -0.32 3.29
-13 -5 9 -0.33 1.81
13 5 9 0.02 2.23
5 -9 -13 1.85 2.23
5 13 -9 1.5 3.64
5 9 13 2.39 2.15
-5 -9 13 -0.14 1.62
-5 -13 -9 3.56 2.35
-9 5 13 2.16 1.58
13 9 -5 -0.21 2.1
9 -7 -13 -2.54 2.44
-13 -9 7 -0.42 1.72
-9 -7 13 -2.4 1.96
13 9 7 0.69 1.82
13 7 -9 0.24 2.07
-9 -7 13 -1.3 1.69
7 9 -13 -4.17 3.24
13 7 -9 8.08 5.69
9 13 -7 -1.91 4.5
-7 9 13 3.68 1.73
-9 -13 -7 -0.6 1.86
-13 -7 -9 -0.09 2.17
9 7 13 0.26 2.37
-13 -9 7 0.84 2.09
13 -9 -7 1.19 3.23
9 13 -7 3.78 2.13
13 -7 9 1.51 3.15
7 13 9 -0.02 1.79
-7 -13 9 0.01 1.8
-7 -13 9 -2.65 1.76
7 -9 13 -1.07 2.01
-13 7 9 -1.59 1.79
-13 -9 -7 -0.11 1.85
-13 -7 9 -0.3 1.86
9 7 -13 1.83 3.39
9 -7 13 -4.1 2.98
-13 -7 9 1.37 2.05
13 9 -7 2.77 6.76
-7 -9 13 0.76 1.58
-13 9 7 -1.09 1.89
13 9 -7 0.33 2.1
13 -7 -9 -0.53 3.02
-9 7 13 1.04 1.6
-7 -9 13 -2.11 1.93
7 9 13 -1.21 2.09
-7 9 -13 -8.26 4.97
7 -9 -13 2.4 2.39
-9 -13 7 1.28 1.77
13 7 9 1.06 2.2
7 13 -9 2.62 4.01
-7 13 9 2.13 1.71
-7 -13 -9 -1.82 1.95
9 13 7 0.04 1.79
9 13 -9 1.78 4.26
-13 -9 -9 9.21 2.62
-9 -9 13 8.27 2.29
13 -9 9 5.36 3.2
13 -9 -9 10.67 3.36
-13 -9 9 8.94 2.12
9 9 13 4.8 2.28
13 9 -9 7.91 6.42
-9 13 9 14.32 2.67
13 9 -9 6.52 2.18
9 -9 -13 6.45 2.56
9 13 9 11.07 2.39
9 9 -13 6.18 3.69
9 13 -9 3.25 1.98
-13 -9 9 7.47 2.56
-9 -13 9 10.32 2.2
-13 9 9 9.25 2.12
-9 -9 13 4.5 2.18
9 -9 13 9.25 2.79
-9 -13 -9 8.03 2.54
13 9 9 6.89 2.59
-9 9 13 10.65 2.17
-13 1 11 39.31 6.15
13 11 1 40.25 3.84
-1 13 -11 40.46 5.87
13 -1 11 38.82 4.01
-13 1 11 42.1 3.47
11 1 13 38.96 3.95
13 1 -11 58.88 6.45
11 -1 -13 41.41 5.2
-13 -11 1 43.07 3.73
-11 -13 -1 40.16 3.85
1 11 -13 40.41 5.59
1 13 11 39.23 3.83
-11 -1 13 53.84 4.49
-11 -1 13 46.05 3.49
-1 -11 -13 38.12 4.29
11 13 -1 35.64 3.61
1 -11 13 43.7 3.6
-1 11 13 41.78 3.46
-1 11 13 34.48 3.74
-1 -13 11 41.92 3.99
-11 1 13 44.08 3.48
11 13 1 41.46 3.65
-1 13 11 43.97 3.98
1 -13 11 44.49 4.1
-1 13 11 45.89 3.39
-13 -1 11 42.84 3.65
1 11 13 35.02 3.52
-11 -13 1 36.53 3.78
13 1 11 39.85 3.98
-1 -11 13 40.19 3.51
1 -11 -13 40.95 4.17
-13 -11 -1 43.21 3.84
1 13 -11 32.38 5.7
13 11 -1 39.43 3.72
11 -1 13 38.05 3.9
11 1 -13 51.6 5.22
1 11 13 42.22 3.59
13 -1 -11 43.46 6.07
-1 11 -13 37.04 5.92
-3 11 13 8.27 3.25
-13 3 11 9.01 2.02
3 13 11 6.93 2.33
11 3 13 9.93 2.57
3 11 -13 11.78 3.55
-3 -11 -13 4.84 2.8
-3 -13 11 5.45 2.15
-3 11 13 8.77 1.82
3 -11 13 7.15 2.09
-13 -11 3 5.8 1.93
-11 -3 13 10.13 2.36
13 3 -11 10.66 3.99
-13 -11 3 9.25 2.46
-11 -3 13 8.68 2.06
11 -3 -13 8.24 2.78
13 11 3 13.3 2.52
-11 -13 -3 6.13 1.88
13 -3 11 1.61 2.45
11 13 -3 9.55 2.47
-11 -13 3 6.26 1.97
3 -11 -13 5.95 2.24
11 3 -13 13.25 3.29
13 -3 -11 10.76 3.32
3 13 -11 11.13 3.49
-3 11 -13 8.48 3.98
-3 -11 13 9.95 2.15
-3 13 11 9.22 1.87
-13 -3 11 2.9 1.93
-13 -11 -3 4.87 2.08
-11 3 13 6.38 1.88
13 11 -3 10.15 2.37
3 11 13 6.54 2.11
-3 -11 13 6.87 2.09
-3 -13 -11 12.86 3.16
11 13 3 10.38 2.37
13 3 11 3.16 2.31
3 11 13 4.81 2.15
-5 -13 11 -3.59 1.69
13 -5 11 -0.15 2.18
13 5 -11 3.2 4.9
11 5 13 0.52 2.56
-5 -11 -13 3.73 3.31
13 11 5 -0.16 1.89
-11 -5 13 1.67 2.08
5 11 -13 0.88 3.43
5 13 11 -0.6 2.09
-5 11 13 -1.94 1.67
-13 -11 5 0.03 2.2
11 -5 -13 -2.34 2.58
5 -11 13 0.9 2.01
-5 -13 11 -0.71 1.94
-13 5 11 1.54 1.96
11 13 -5 0.54 2.29
-11 -5 13 1.92 1.82
-11 -13 -5 0.64 1.87
-13 -11 5 -0.87 1.7
-5 -11 13 1.41 2.05
-11 5 13 4.27 2.02
-5 11 -13 0.4 4.11
5 11 13 -0.82 2.58
-13 -11 -5 0.4 2.02
-13 -5 11 1.76 2.03
-5 13 11 -1.06 1.81
-11 -13 5 -2.41 1.78
-5 -11 13 -0.55 1.92
13 5 11 -2.86 2.11
5 -11 -13 4.23 2.23
-11 -13 5 -2.6 2.15
-5 -13 -11 0.2 2.54
11 13 5 2.32 1.99
-13 -5 11 3 2.04
11 5 -13 1.51 3.58
13 -5 -11 0.35 3.1
5 13 -11 4.19 3.6
13 11 -5 -2.07 2.29
-7 -13 11 4.69 2.12
7 -11 13 1.97 2.23
13 -11 -7 2.88 3.23
-11 -7 13 1.55 2.1
7 -13 -11 1.66 2.65
13 11 7 2.18 2.42
11 13 -7 2.5 2.25
13 -7 11 -1.05 2.58
-13 -7 -11 0.93 2.37
-11 -7 13 5.14 2.15
11 7 13 5.39 2.49
-7 -13 11 5.8 2.14
-11 -13 -7 2.01 2.05
7 11 -13 1.14 3.65
-13 -11 7 3.6 2.27
-13 -11 7 3.35 2.06
11 -7 -13 4.96 2.65
13 7 -11 5.78 5.11
-7 11 13 4.84 1.91
-7 -11 13 6.22 2.24
7 13 -11 1.73 3.83
-13 -11 -7 2.73 2.36
13 11 -7 9.17 6.7
-11 -13 7 2.13 1.92
13 -7 -11 2.62 3.09
-11 7 13 2.85 2.09
-7 13 11 6.02 1.89
13 11 -7 1.57 2.46
-7 -13 -11 2.56 2.44
7 11 13 6.74 2.73
-7 -11 13 2.99 1.8
11 7 -13 9.55 3.93
-13 -7 11 4.01 2.15
13 7 11 4.65 2.78
7 -11 -13 3.6 2.42
-13 -7 11 7.28 2.4
-11 -13 7 8.96 2.7
11 13 7 2.89 2.06
11 9 13 7.41 3.17
-13 -11 9 8.5 2.94
13 11 9 11.5 3
-13 -9 -11 7.6 2.85
-13 9 11 11.47 2.51
-11 -13 -9 3.86 2.28
-13 -11 9 6.14 2.15
9 -11 13 7.94 2.84
11 -9 -13 10.82 2.82
9 13 11 7.9 2.62
13 9 -11 5.55 5.6
11 13 -9 2.77 4.99
-11 -9 13 10.38 2.43
9 11 -13 15.33 4.28
-9 -13 11 11.18 2.42
9 -13 -11 10.47 2.87
13 -11 -9 13.73 3.36
11 13 -9 6.83 2.2
-9 -13 11 9.4 2.52
-11 -9 13 8.88 2.62
13 -9 11 5.77 3.22
-9 11 13 12.24 2.38
11 13 9 8.64 2.81
9 11 13 9.68 3.02
9 13 -11 9.75 4.26
-11 -13 9 6.55 2.22
9 -11 -13 14.44 2.89
-9 -13 -11 6.19 2.74
-13 -11 -9 9.16 2.74
11 9 -13 13.11 4.49
-9 13 11 8.07 2.18
13 11 -9 7.74 2.55
-13 11 9 9.79 2.46
13 -9 -11 14.96 3.09
-9 -11 13 7.14 2.43
-13 -9 11 11.77 2.78
-13 -9 11 16.11 3.54
-11 -13 9 7.92 2.72
13 11 -9 17.26 6.28
11 -13 -9 9.41 3.2
13 9 11 10.16 3.16
-9 -11 13 10.15 2.82
-11 9 13 12.91 2.5
13 -11 -11 6.49 3.1
-11 -13 -11 7.71 2.85
-11 -13 11 8.29 2.58
-11 -11 13 5.16 2.46
-11 -13 11 9.93 2.87
-11 -11 13 12.44 3.29
11 11 13 11.22 3.53
11 -13 -11 9.58 2.94
11 -11 -13 8.38 2.74
11 11 -13 11.73 4.74
11 13 -11 9.44 4.99
-13 -11 -11 6.76 2.69
-13 -11 11 7.59 2.29
-13 -11 11 9.21 3.31
-13 11 11 12.98 2.78
13 11 -11 17.4 5.69
11 13 11 9.89 3.28
13 11 11 10.27 3.06
-11 13 11 10.65 2.51
11 -13 11 13.84 3.52
-11 11 13 7.68 2.72
13 1 -13 34.15 5.37
1 13 13 20.66 3.5
-13 -13 1 23.6 3.82
-1 -13 13 28.21 3.47
-1 13 13 33.31 3.48
1 -13 13 37.13 3.42
-13 -13 -1 28.65 3.85
13 1 13 29.91 4.09
13 13 -1 28.19 3.61
-1 13 13 21.12 4.27
1 13 13 25.84 4.02
13 13 1 28.54 3.64
-1 -13 -13 36.99 4.61
-1 13 -13 34.35 5.5
1 -13 -13 31.55 4.27
1 13 -13 25.84 5.49
13 -1 -13 32.69 4.94
-1 -13 13 34.35 3.84
1 -13 13 31.33 4.26
13 -1 13 21.88 3.98
-13 -1 13 17.63 3.57
3 13 13 5.6 2.74
13 13 3 3.49 2.59
-13 -13 3 -0.09 2.99
-3 -13 -13 -2.46 2.65
-3 13 -13 -4.03 3.61
3 -13 -13 -3.19 2.27
13 -3 13 -2.67 2.59
13 3 13 1.99 2.62
13 13 -3 2.47 2.66
-3 13 13 -0.63 1.89
3 -13 13 -0.76 1.94
-13 -3 13 2.02 2.49
-3 -13 13 2.34 2.25
13 3 -13 2.95 3.48
3 13 -13 0.75 3.51
13 -3 -13 -0.07 2.92
-13 -13 3 -0.36 1.99
-13 -13 -3 1.06 1.9
-13 -3 13 -0.95 2.02
-13 3 13 6.26 2.15
-3 -13 13 -2.92 1.97
13 13 5 -0.79 2.69
5 -13 13 -3.83 2.2
-13 -13 5 2.64 2.85
-13 -5 13 -0.53 2.41
-5 -13 13 -0.77 2.11
-5 13 13 1.72 1.82
-13 5 13 2.79 2.39
-5 -13 -13 -2.83 3.06
5 -13 -13 1.98 2.24
5 13 -13 3.03 3.63
13 -5 -13 -4.19 2.85
13 5 -13 -6 4.15
5 13 13 2.83 2.93
13 -5 13 3.6 2.56
13 5 13 0.03 2.66
13 13 -5 -2.57 2.65
-13 -13 5 -2.03 1.85
-13 -5 13 -1.79 2.32
-5 -13 13 0.26 2.21
-13 -13 -5 2.11 2.12
-13 -13 7 1.74 1.92
-13 -7 13 4.5 2.41
-13 -7 13 -0.91 2.65
13 7 13 -0.39 3.14
13 13 7 1.89 2.67
7 13 13 0.71 2.75
7 -13 -13 4.58 2.38
7 13 -13 -1.78 3.81
13 -13 -7 0.3 3.47
13 -7 -13 0.92 2.95
-13 -13 -7 -0.99 2.31
7 -13 13 1.59 2.53
13 -7 13 0 2.86
-13 -13 7 5.31 2.83
13 13 -7 -1.19 2.51
13 7 -13 -3.59 4.5
-7 13 13 -0.61 1.9
-7 -13 13 0.79 2.09
-13 7 13 1.57 2.25
-7 -13 13 4.46 2.2
-9 -13 13 5.9 2.29
9 13 13 3.23 2.96
-9 13 13 6.08 2.52
-9 -13 13 3.52 2.38
-13 9 13 0.65 2.42
9 -13 -13 5.74 2.65
-13 -13 9 2.81 2.13
-13 -9 13 5.73 3.21
-13 -13 -9 4.76 2.5
-13 -13 9 -0.62 3.66
-13 -9 13 0.78 2.35
9 13 -13 9.09 4.27
13 -13 -9 4.54 3.1
13 -9 -13 5.97 3.16
13 9 -13 6.06 5.28
9 -13 13 3.51 3.13
13 -9 13 -1.21 3.3
13 13 -9 1.37 2.39
13 13 9 4.32 2.73
13 9 13 5.2 3.51
0 0 14 137 7.28
-14 0 0 146.73 7.74
0 -14 0 139.22 7.72
0 14 0 142.77 7.32
14 0 0 140.64 7.39
0 -2 14 17.51 2.48
-2 -14 0 23.05 3.2
-2 0 14 20.32 2.38
2 0 14 26.29 2.62
0 -14 -2 14.1 2.66
0 -14 2 17.32 3.26
-2 14 0 16.52 2.47
2 14 0 14.48 2.57
14 0 -2 19.34 2.71
0 14 -2 19.69 2.45
0 14 2 17.38 2.69
14 -2 0 19.82 2.92
14 2 0 19.11 2.73
0 2 14 13.22 2.38
-14 -2 0 21.15 3.1
-14 2 0 13.79 2.71
-14 0 -2 17.26 3.45
-14 0 2 16.85 3.42
2 -14 0 23.65 3.99
14 0 2 19.08 2.8
14 2 -2 3.88 1.76
14 -2 2 0.75 1.99
-2 -14 -2 6.42 2.22
2 -2 -14 -0.16 2.38
2 -14 -2 5.33 2.74
2 -14 2 3.42 2.18
-14 -2 -2 5.97 2.08
2 2 14 6.04 1.57
14 -2 -2 4.7 2.62
14 2 2 1.63 1.72
-14 2 -2 2.36 2.44
2 2 -14 -0.21 2.36
-2 -2 14 2.56 1.5
-2 2 14 2.42 1.41
-2 -14 2 5.09 1.83
2 14 2 1.27 1.56
-14 2 2 3.4 2.91
-14 -2 2 3.1 2
-2 14 2 3.38 1.96
2 14 -2 5.56 1.86
2 -2 14 5.29 1.75
0 14 4 1.64 1.7
0 -4 -14 -2.39 2.51
0 -14 -4 0.79 2.34
0 -14 4 0.51 1.97
0 14 -4 3.3 1.63
-14 0 -4 0.91 2.14
0 4 -14 -3.16 2.57
4 0 14 -1.75 1.6
0 -4 14 1.39 1.44
-14 0 4 -0.67 2.31
-4 -14 0 2.59 1.65
4 14 0 1.71 1.39
14 0 -4 2.31 2.34
14 0 4 1.94 2.01
14 4 0 3.42 1.98
0 4 14 -0.24 1.28
-4 0 14 3.11 1.43
4 0 -14 2.25 2.3
-14 0 4 2.59 1.71
4 2 14 10.76 1.91
14 2 -4 17.58 2.65
2 -4 14 16.48 2.48
-2 -14 4 19.76 3.09
14 -2 4 15.91 3.06
2 14 4 13.79 2.57
2 -14 -4 18.35 3.33
14 4 2 10.51 2.14
4 14 -2 19.06 2.64
-2 4 14 13.23 2.31
-14 2 4 14.21 2.54
-4 -2 14 19.82 2.36
4 -14 2 22.94 4.42
4 -2 -14 21.07 3.37
-4 -14 -2 21.46 3.3
-2 4 -14 9.14 3.52
2 14 -4 13.8 2.53
-2 14 4 16.4 2.99
-4 -14 2 13.54 2.85
-14 -2 4 15.44 3.33
-2 -14 -4 15.92 2.62
-14 -2 4 16.02 2.46
4 -2 14 16.21 2.72
-4 2 14 15.44 2.31
14 4 -2 18.82 2.76
-2 -4 14 18.33 2.38
2 -14 4 16.1 3.58
4 2 -14 13.72 2.66
2 4 14 14.14 2.66
14 2 4 16.87 2.76
4 14 2 14.81 2.47
2 -4 -14 20.92 3.97
-4 4 -14 59.31 11
-4 -14 4 68.87 4.5
-4 -4 14 67.67 4.16
4 -4 -14 55.07 5.04
4 14 -4 69.6 4.28
-14 -4 4 66.7 4.24
-14 4 4 63.52 4.05
4 4 14 75.81 4.39
14 -4 4 65.37 4.61
14 4 -4 65.83 4.61
-4 -14 -4 69.76 4.81
4 -14 4 58.17 5.3
14 4 4 58.22 4.3
4 -4 14 60.56 4.34
4 14 4 72.46 4.34
14 6 0 0.16 1.92
-14 0 6 1.5 1.66
6 14 0 -0.21 1.75
6 0 14 2 1.9
0 -6 14 0.38 1.73
6 0 -14 0.42 2.4
0 -14 6 1.13 1.86
-14 -6 0 3.48 1.7
-6 -14 0 2.13 1.59
-6 0 14 1.23 1.46
14 0 -6 4.31 2.07
14 0 6 0.99 2.3
0 -6 -14 0.77 2.64
0 -14 -6 4.8 2.75
0 14 6 1.8 1.96
-14 0 6 2.15 2.46
0 6 14 1.47 1.54
0 6 -14 -0.99 3.21
-14 2 6 4.46 1.8
-14 -2 -6 -0.99 1.87
-2 -14 6 4.71 1.85
2 -6 14 2.07 1.75
14 -2 6 2.86 1.92
-2 6 14 1.16 1.47
-14 -6 2 4.95 1.79
6 14 -2 3.31 1.93
-6 -2 14 4.97 1.48
2 14 6 4.11 1.65
6 -2 -14 3.55 2.25
14 6 2 1.57 1.73
2 6 -14 5.13 2.91
6 2 14 2.17 1.67
-2 14 6 1.89 2.06
-2 -14 -6 4.09 2.46
-2 6 -14 4.97 3.37
-14 -2 6 4.65 2.08
-6 2 14 0.89 1.34
6 2 -14 6.33 2.38
2 -6 -14 3.02 2.51
2 6 14 4.56 1.94
-6 -14 2 2.88 1.63
2 6 14 3.91 1.94
14 6 -2 1.84 1.72
6 -2 14 1.97 2
-14 -2 6 2.67 1.6
2 -14 6 5.96 2.24
14 2 6 2.07 2.12
-2 -6 14 0.89 1.55
6 14 2 4.39 1.92
4 14 6 41.58 3.27
-4 6 14 42.74 3.19
14 4 -6 47.73 3.8
-14 -6 4 37.28 3.57
-4 -6 -14 42.67 6.17
4 -6 14 38.71 3.58
14 6 4 43.73 3.66
-14 -4 -6 29.6 3.83
6 14 -4 45.87 3.58
6 4 14 32.14 3.8
6 -4 -14 36.16 4.2
-6 -14 -4 34.52 3.85
6 4 14 48.54 3.71
-14 4 6 38.88 3.42
-4 -14 6 37.8 3.66
-6 -4 14 40.03 3.22
4 6 -14 42.36 5.15
6 -4 14 44.82 3.91
-6 4 14 40.55 3.1
14 4 6 42.03 3.71
-4 -6 14 38.77 3.36
-14 6 4 37.81 3.23
4 6 14 41.19 3.75
-14 -6 -4 35.18 3.75
4 6 14 41.62 3.55
4 -14 6 42.32 4.64
-6 -14 4 46.03 3.53
4 14 -6 42.49 3.42
6 4 -14 38.76 4.77
14 6 -4 39.76 3.73
-4 6 -14 32.77 6.85
4 -6 -14 31.8 4.26
-14 -4 6 47.41 3.61
-4 -14 -6 46.7 4.34
6 14 4 40.14 3.49
-6 6 14 43.69 3.35
6 6 -14 30.66 5.37
6 -6 -14 40.48 4.37
6 -6 14 37.88 3.95
6 -14 6 37.38 5.37
6 14 6 41.62 3.45
6 6 14 43.29 4.06
-6 -6 14 38.16 3.3
-14 -6 -6 40.47 3.87
14 6 -6 34.74 3.82
-14 6 6 40.66 3.5
6 6 14 37.96 3.71
6 14 -6 38.96 3.56
-6 -14 -6 41.74 4.05
14 6 6 39.4 3.65
-6 -14 6 41.04 3.72
14 -6 -6 44.22 6.79
0 -14 -8 10.43 3.46
0 -8 14 14.41 2.53
0 8 14 13.69 2.82
0 8 14 12.61 2.54
14 0 8 8.03 2.28
14 8 0 11.83 2.19
-8 0 14 12.42 2.34
0 14 8 6.61 2.09
0 -8 -14 19.26 3.79
14 0 -8 13.84 6.68
-8 -14 0 13.52 2.16
0 8 -14 15.32 3.31
8 0 -14 14.05 2.72
-14 0 8 18.47 4.07
8 14 0 10.48 2.3
-14 -8 0 15.24 2.9
-14 0 8 12.11 2.17
14 8 2 2.6 2.14
2 14 8 5.05 1.91
8 -2 -14 2.3 2.35
-14 -8 2 -1.21 1.61
8 14 -2 0.43 2.05
-14 2 8 1.32 1.94
2 -8 14 1.97 1.54
2 8 -14 5.63 2.98
-8 -2 14 0.81 1.5
-2 8 14 2.05 1.61
-2 8 14 -2.19 2.22
8 2 14 0.87 2.17
-14 -2 -8 3.32 2.04
-2 -14 8 0.59 1.78
14 -2 8 -0.19 2.21
-8 -14 -2 2.77 1.87
14 8 -2 1.22 1.89
2 8 14 -2.34 2.1
-14 -8 -2 1.22 1.86
14 -2 -8 2.92 4.62
14 2 8 1.01 2.32
-2 -14 -8 2.46 2.7
-2 14 8 -0.75 3.21
-14 -2 8 -0.6 1.84
-8 -14 2 0.66 1.76
-2 -8 14 0.18 1.39
8 2 -14 1.2 2.48
-2 8 -14 0.4 3.56
2 -14 8 3.54 2.21
2 8 14 -1.54 1.89
8 14 2 0.1 1.72
2 -8 -14 -1.14 2.23
-8 2 14 0.65 1.48
-4 -14 8 9.33 2.12
4 -8 14 7.45 1.82
-14 -8 4 10.13 1.99
14 -4 8 7.77 2.81
14 4 -8 6.05 2.33
4 14 8 7.45 2.14
-4 8 14 13.14 2.52
8 -4 -14 8.55 2.57
14 8 4 11.1 2.37
4 8 -14 12.06 3.15
-14 -8 4 10.68 2.4
-14 -4 -8 9.67 2.3
8 14 -4 8.37 2.4
-8 -14 -4 7.84 2.01
-8 -4 14 9.68 2.37
-14 4 8 8.77 2.03
-4 -8 -14 19.12 3.74
8 4 14 9.85 2.9
-8 -4 14 12.5 2.58
14 4 -8 30.91 9.79
-4 8 14 5.77 2.62
4 8 14 13.39 2.56
14 -4 -8 12.32 4.37
14 4 8 11.51 2.57
-14 -8 -4 11.04 2.16
14 8 -4 7.53 2.46
8 14 4 8.04 2.29
-8 -14 4 4.97 1.83
4 -14 8 6.15 2.67
-4 -8 14 8.43 1.78
-14 -4 8 15.82 3.02
4 -8 -14 10.72 2.37
4 8 14 8.77 2.27
-8 4 14 9.74 1.87
-4 8 -14 11.01 4.18
-14 -4 8 9.77 2.3
8 4 -14 9.46 2.88
6 -8 14 15.74 3.07
-8 -6 14 19.31 3.3
-8 -14 -6 19.75 3.42
6 14 8 20.76 3.09
-6 -14 8 19.98 3.19
-6 8 14 21.59 2.75
8 14 -6 21.69 3.03
-14 -8 6 21.47 3.06
8 -6 -14 18.65 3.83
14 8 6 19.21 3.31
14 6 -8 35.64 7.69
-8 -6 14 17.26 2.93
14 -6 8 12.11 3.33
6 8 -14 15.89 3.51
8 6 14 20.98 3.38
14 6 -8 16.12 3.43
-14 -6 -8 16.88 3.58
-14 6 8 14.75 3.05
-14 -8 6 14.04 2.8
8 -6 14 28.62 4.21
6 14 -8 19.26 2.9
-6 -14 -8 25.5 3.92
-14 -6 8 15.88 2.54
14 8 -6 16.97 3.44
-14 -8 -6 18.91 3.24
-14 -6 8 18.05 3.13
-6 -8 14 17.94 3.48
-8 6 14 18.81 2.79
8 6 -14 18.64 3.64
14 6 8 14.46 2.88
8 14 6 17.45 2.92
6 8 14 19.67 3.27
-6 -8 14 20.67 3
-8 -14 6 18.81 3.1
6 8 14 20.52 2.99
6 -14 8 21.52 4.81
-14 8 6 14.7 2.99
6 -8 -14 19.82 3.49
-6 8 -14 16.32 5.14
14 -6 -8 21.53 4.16
-8 -8 14 6.29 1.95
-14 8 8 3.95 2.08
14 8 -8 11.4 2.77
8 -8 -14 3.93 2.39
8 14 -8 6 2.04
8 8 14 5.69 2.43
8 14 8 0.1 2.14
8 8 -14 7.68 3.3
-14 -8 8 4.67 1.92
-8 -14 -8 2.94 2.14
-8 -14 8 4.16 2.02
8 -14 8 3.31 4.93
-14 -8 -8 4.25 2.15
14 8 -8 6.87 7.54
14 -8 8 -1.82 4.11
-8 8 14 9.34 2.2
14 -8 -8 10.95 3.57
14 8 8 7.43 2.27
-14 -8 8 4.73 2.46
8 -8 14 1.6 2.38
-8 -8 14 5.77 2.23
-10 0 14 20.62 2.98
-10 -14 0 18.81 3.24
10 14 0 24.51 3.22
0 -10 14 24.8 3.11
0 10 -14 24.48 3.96
-14 0 10 23.9 3.11
-14 0 10 21.07 4.54
14 0 -10 35.11 6.91
0 10 14 22.22 3.38
10 0 14 28.49 3.52
0 -10 -14 24.13 3.99
14 10 0 26.81 3.24
0 -14 10 30.48 3.8
0 10 14 29.29 3.2
10 0 -14 27.37 4.28
14 0 10 25.94 3.65
0 14 10 21.28 3.57
-14 -10 0 26.74 3.36
-10 0 14 37.15 4.32
-2 -10 -14 14.1 2.94
10 14 -2 11.66 2.39
-10 -14 -2 10.69 2.2
-2 10 14 6.3 2.64
-10 -2 14 8.36 1.99
10 2 14 11.7 2.94
14 2 -10 14.36 4.67
-14 2 10 10.04 2.17
14 -2 10 5.29 2.67
14 10 2 10.71 2.54
-2 10 14 13.42 2.22
2 14 10 5.08 2.29
2 -10 14 6.48 1.97
-14 -10 2 9.28 2.01
-2 -14 10 9.19 2.28
10 -2 -14 3.66 2.63
2 10 -14 15.84 3.55
-10 -14 2 8.79 1.98
-2 10 -14 13.21 3.96
14 -2 -10 15.86 3.95
-10 2 14 4.5 1.69
2 10 14 9.95 2.14
2 14 -10 14.27 3.73
-14 -10 -2 13.79 3.03
2 -14 10 11.15 2.49
14 10 -2 5.7 1.84
14 2 10 6.22 2.36
2 10 14 6.05 2.35
-10 2 14 12.99 4.37
10 2 -14 9.53 2.93
-14 -2 10 14.89 3.06
2 -10 -14 12.07 2.5
10 14 2 9.57 2.4
-2 -10 14 9.49 1.87
-14 -2 10 11.55 2.54
4 14 10 -0.78 2.18
-14 -10 4 1.41 1.87
4 10 -14 0.27 3.44
-10 -4 14 0.61 2.2
-10 -4 14 1.4 1.67
14 -4 10 1.4 2.69
14 10 4 -2.59 1.91
-14 -10 4 4.93 2.82
10 -4 -14 0.98 2.46
-14 4 10 1.56 1.99
-4 -10 -14 -3.59 3.16
-14 -4 -10 0.52 2.12
4 -10 14 0.3 1.84
14 -10 -4 -0.72 4.48
-4 -14 10 0.18 1.88
-10 -14 -4 3.31 1.98
14 4 -10 -1.49 5.51
-4 -14 -10 4.25 3.09
-14 -4 10 1.55 2.04
-14 -10 -4 -0.56 1.83
10 4 -14 -0.21 2.77
4 10 14 1.78 2.34
4 10 14 -0.4 2.25
-10 4 14 2.1 1.79
14 4 10 2.19 2.78
4 -14 10 1.04 2.42
10 14 4 -2.78 2.07
14 10 -4 2.73 2.45
14 -4 -10 -0.43 3.6
-4 10 -14 0.93 4.01
-4 -10 14 -1.95 1.83
-4 -10 14 0.61 2.12
-14 -4 10 0.03 2.19
4 14 -10 -1.58 3.25
-10 -14 4 0.8 1.74
4 -10 -14 1.69 2.22
-6 -14 10 5.79 2.02
-14 6 10 2.2 2.22
14 -6 10 0.21 3.08
10 14 -6 2.43 2.31
6 10 -14 -1.36 3.38
-14 -10 6 -1.65 2.57
-6 -10 -14 7.96 5.9
-6 10 14 3.82 2
-10 -14 -6 1.19 1.98
6 -10 14 -0.62 2.03
-14 -10 6 0.59 1.88
-10 -6 14 4 2.3
-10 -6 14 4.96 2.12
-6 -14 10 -1.29 1.88
10 -6 -14 -3.1 2.49
14 10 6 0.6 2.25
14 -10 -6 6.74 3.56
10 6 14 -2.7 2.47
-14 -6 -10 -1.25 2.12
6 14 10 0.37 2.23
14 6 -10 1.32 5.73
6 -10 -14 3.22 2.32
14 10 -6 7.58 2.53
-10 -14 6 1.27 1.9
-14 -10 -6 1.79 2.1
10 6 -14 -0.78 3.37
-6 -14 -10 1.21 2.55
-14 -6 10 1.56 2.32
-6 10 -14 6.46 4.56
-10 6 14 5.45 2.07
14 -6 -10 -3.15 3.5
-14 -6 10 1.99 1.99
6 14 -10 6.95 3.7
-6 -10 14 2.31 2.18
14 6 10 5.52 2.7
6 10 14 -2.82 2.09
-6 -10 14 4.21 1.97
6 10 14 1.98 2.77
10 14 6 0.69 1.76
6 -14 10 -2.35 2.82
-8 -14 10 -1.2 2.27
8 14 10 0.16 2.29
8 -10 14 0.66 2.57
8 10 -14 2.67 3.83
10 -8 -14 1.55 2.58
-14 8 10 6.58 2.24
-14 -10 8 6.11 2.94
14 -8 10 -2.65 3.73
-10 -8 14 -0.11 2.31
-8 10 14 -1.28 2
-14 -10 8 2.63 2.09
-8 -14 10 4.87 2.21
14 -10 -8 1.26 3.45
10 14 -8 1.17 2.43
-14 -8 -10 3.3 2.49
-10 -8 14 1.26 2.35
14 8 -10 12.34 6.49
14 10 8 -0.75 2.52
-10 -14 -8 1.96 2.27
10 8 14 1.36 2.42
-14 10 8 0.31 2.45
-14 -8 10 4.91 2.58
14 -8 -10 2.58 3.59
-8 -14 -10 -2.44 2.41
-10 8 14 1.29 2.14
-10 -14 8 1.1 1.9
14 8 10 1.48 2.71
-8 -10 14 0.79 2.24
10 14 8 2.16 2.14
10 -8 14 0.77 6.65
10 8 -14 1.96 3.42
-10 -14 8 3.11 2.56
8 10 14 -1.21 2.97
-14 -10 -8 1.18 2.23
-14 -8 10 0.28 1.97
8 -14 10 2.37 3.72
-8 -10 14 3.74 2.22
8 14 -10 1.89 3.68
8 -10 -14 1.59 2.39
14 10 -8 7.32 7.2
14 10 -8 0.18 2.73
-14 -10 -10 2.98 2.33
10 10 14 4.47 3.36
-10 -10 14 5.33 2.39
10 -14 -10 2.89 2.93
10 10 -14 5.1 4.08
10 14 10 5.54 2.76
-10 -10 14 5.66 2.38
-14 -10 10 6.11 2.16
10 -10 -14 6.95 2.68
-10 -14 10 1.2 2.11
14 -10 -10 2.1 3.25
14 10 -10 -2.13 6.06
-10 10 14 7.81 2.59
14 10 10 1.93 2.86
-14 10 10 4.99 2.37
-10 -14 10 2.88 2.52
-10 -14 -10 7.93 2.88
10 14 -10 8.37 4.71
-14 -10 10 5.35 3.15
14 0 -12 29.24 4.2
0 -14 -12 25.04 4
0 -12 14 23.19 3.37
0 12 14 28.7 3.48
12 0 -14 25.67 4.81
0 14 -12 20.55 4.05
14 0 12 19.94 3.93
0 -14 12 20.38 3.93
14 12 0 20.8 3.58
12 14 0 23.78 3.51
-12 0 14 23.83 3.49
-14 -12 0 19.32 3.51
0 14 12 18.45 4.01
-12 0 14 27.69 3.34
12 0 14 24.67 3.91
-12 -14 0 24.94 3.68
0 12 -14 22.44 4.05
0 -12 -14 27.07 4.01
-14 0 12 30.19 3.5
0 12 14 19.5 4
12 14 -2 7.74 2.82
2 -14 -12 3.85 2.42
-2 -14 12 2.35 2.23
2 -12 14 3.25 2.02
-12 -14 -2 2.82 2.06
-2 -12 -14 1.9 2.74
2 12 -14 -1.63 3.15
-12 -2 14 6.75 2.71
2 14 12 0.17 2.45
14 2 -12 7 4.11
12 2 14 2.36 2.93
-2 12 14 4.72 2.06
12 -2 -14 0.24 2.84
-14 -12 2 2.45 2.05
14 12 2 3.73 2.6
-14 2 12 0.48 2.23
-2 -14 12 1.71 1.99
-12 -2 14 5.41 2.17
-2 12 14 4.63 5.94
2 -14 12 2.42 2.51
12 -2 14 6.68 2.67
-2 12 -14 1.71 3.76
-14 -2 12 10.07 2.36
-12 2 14 6.68 2.11
2 14 -12 -3 3.32
-2 -14 -12 2.57 2.69
14 -2 -12 3.94 3.46
-2 -12 14 3.61 2.41
-14 -2 12 4.79 2.8
14 12 -2 -0.89 2.76
-2 -12 14 0.07 2.07
2 12 14 -3.03 2.28
12 2 -14 4.67 3.01
2 12 14 5.05 3.01
-2 14 12 4.83 2.23
12 14 2 3.59 2.52
14 2 12 4.98 2.69
-14 -12 -2 0.93 1.9
-12 -14 2 -0.18 1.99
2 -12 -14 1.13 2.26
-14 -12 4 2.53 2.04
-4 -14 12 0.82 2.04
14 4 -12 1.99 4.76
14 12 4 0.37 2.4
4 -14 -12 3.09 2.45
12 14 -4 -1.26 2.45
-12 -14 -4 1.67 2.17
-4 12 14 0.28 1.91
4 -12 14 -0.07 2.06
12 4 14 -3.68 2.56
4 12 -14 -2.37 3.34
-4 -12 -14 1.9 3.02
-12 -4 14 0.67 2.39
-4 -14 12 2.25 2.27
-12 -4 14 0.82 2.25
12 -4 -14 -2.34 2.51
-14 4 12 5.62 2.51
4 12 14 4.78 2.82
-4 -14 -12 4.39 3.12
-12 4 14 1.18 2.08
14 -4 -12 6.5 3.18
4 -14 12 -2.64 2.68
-14 -4 12 0.61 2.49
-12 -14 4 3.31 2.89
4 14 -12 2.63 3.31
4 -12 -14 2.31 2.32
12 4 -14 -4.49 3.23
-4 -12 14 4.1 2.45
14 4 12 -2.72 2.24
-14 -12 -4 1.93 2.1
12 14 4 1.76 2.59
-4 12 -14 0.3 3.75
-12 -14 4 4.46 2.1
-4 -12 14 3.55 1.95
-4 14 12 1.85 2.12
12 -4 14 2.09 2.67
14 12 -4 2.93 2.73
12 -6 -14 -2.03 2.83
12 6 14 0.23 2.56
-14 6 12 1.99 2.44
6 12 -14 -4.12 3.54
14 12 6 -3.14 2.38
14 6 -12 -6.21 4.72
6 14 12 -1.62 2.44
-12 -6 14 -0.84 2.24
6 -14 -12 0.61 2.55
-6 -14 12 1.37 2.11
-14 -12 6 1.88 3.29
-6 -12 -14 -0.29 3.65
-12 -14 -6 3.22 2.47
12 14 -6 1.33 2.64
14 -12 -6 -2.02 3.8
-14 -12 6 1.77 2.13
-6 12 14 -0.54 2.02
-6 -14 12 -1.43 2.23
6 -12 14 2.44 2.36
-12 -6 14 2.27 2.4
6 12 14 2.53 3.1
6 -12 -14 1.17 2.41
-14 -6 12 -0.88 2.32
12 6 -14 -0.46 3.87
-6 -14 -12 2.01 3.61
-6 -12 14 -1.67 2.2
-6 -12 14 -0.25 1.97
-12 6 14 1.37 2.27
6 14 -12 3.1 3.78
-6 14 12 2.51 1.99
14 12 -6 1.42 2.8
14 6 12 -2.93 3.05
-14 -12 -6 2.27 2.05
-12 -14 6 -4.31 2.91
14 -6 -12 -0.32 3.22
12 14 6 -0.9 2.65
-14 -6 12 1.6 2.59
-6 -14 -12 3.45 3.01
-12 -14 6 1.85 1.93
-12 -8 14 4.82 2.47
14 -8 12 11.72 3.82
-8 -14 12 -1.89 2.14
12 8 14 1.25 3.51
-12 -8 14 1.6 2.88
8 -14 -12 1.37 2.51
8 -12 14 -0.7 2.86
12 14 -8 -1.86 2.71
-8 -14 12 0.56 2.54
14 12 8 -0.53 2.67
-14 8 12 2.81 2.42
8 14 12 0.16 2.68
14 -12 -8 1.09 3.5
12 -8 -14 -3.64 2.79
14 8 -12 -0.32 5.75
8 12 -14 2.49 3.92
-14 -12 8 -1.99 3.32
-12 -14 -8 0.68 2.4
-14 -12 8 2.3 2.13
-8 12 14 1.44 2.27
8 -12 -14 0.07 2.54
-8 -12 14 -0.56 2.09
8 14 -12 -3.59 3.76
14 -8 -12 -0.13 3.29
12 -14 -8 4.55 3.37
-14 -8 12 2.46 2.87
-12 8 14 0.94 2.56
14 12 -8 3.56 2.96
-8 14 12 -2.74 2.04
-8 -12 14 2.03 2.2
14 8 12 6.91 3.39
-14 -12 -8 -1.07 2.06
12 8 -14 4.33 4.17
-12 -14 8 0.91 3.02
-8 -14 -12 8.47 3.24
8 12 14 0.82 3.18
-12 -14 8 -1.06 1.97
-14 -8 12 1.75 2.33
12 14 8 -2.9 2.23
0 14 -14 26.14 5.55
14 0 -14 22.39 3.91
0 -14 14 24.11 3.66
0 14 14 31.92 4.92
14 0 14 23.25 4.51
14 14 0 19.46 3.8
-14 0 14 21.64 3.7
-14 -14 0 24.53 3.94
0 -14 -14 20.75 2.97
0 -14 14 34.08 4.38
14 2 14 1.39 3.2
14 -2 14 4.66 3.12
2 14 14 3.38 3.28
-14 -14 -2 3.95 2.28
-14 -2 14 2.47 2.4
-14 2 14 0.06 2.37
-2 -14 14 4.35 2.29
-2 14 14 4.83 2.39
2 -14 14 3.95 2.4
-14 -14 2 5.67 2.37
-14 -2 14 1.36 3.2
-2 -14 -14 -1.26 2.56
2 -14 -14 -0.38 2.27
2 14 -14 -0.64 3.31
14 -2 -14 5.54 3.16
14 2 -14 2.21 3.44
-2 -14 14 6.17 2.51
2 -14 14 3.46 2.86
14 14 2 0.71 2.87
14 14 -2 0.88 3.07
-14 -14 4 1.2 2.21
-4 -14 14 3.22 2.39
4 -14 14 10.6 3.33
14 14 4 3.56 3.1
-14 -14 -4 0.45 2.16
-4 -14 -14 4.66 3.08
4 -14 -14 3.95 2.37
4 14 -14 6.62 3.54
-14 -4 14 4.82 2.74
-14 4 14 3.92 2.65
-4 -14 14 1.32 2.36
-14 -4 14 3.52 2.99
4 -14 14 4.25 2.56
4 14 14 6.93 3.4
14 -4 14 4.84 3.48
14 4 14 2.12 3.19
14 14 -4 4.71 3.11
14 4 -14 0.61 4.45
-4 14 14 4.11 2.29
14 -4 -14 3.84 3.18
-15 -1 -1 42.09 4.11
15 -1 -1 35.26 3.52
1 -15 1 37.18 4.34
-1 15 1 31.68 3.32
-15 1 1 33.24 4.5
-1 -15 -1 37.85 4.11
-1 -15 1 31.07 3.87
1 -15 -1 32.94 4.8
-1 15 -1 34.21 3.13
1 -1 15 27.67 3.05
-15 -1 1 35.06 4.01
-15 1 -1 37.6 4.47
15 1 1 30.28 3.11
15 -1 1 27.5 3.19
1 -1 -15 41.69 4.5
15 1 -1 34.26 3.31
-1 -1 15 32.26 2.95
-1 1 15 32.38 2.89
1 1 -15 33.65 4.51
1 1 15 31.15 3.02
1 15 1 33.93 3.33
1 15 -1 43.43 3.36
3 1 15 2.1 1.79
1 -15 -3 -1.26 2.72
-1 3 15 -1.13 1.32
1 -3 15 1.14 1.61
15 -1 3 2.15 2.23
-1 -3 -15 5.81 2.78
-3 -1 15 0.01 1.51
3 15 -1 0 1.96
-1 -15 3 3.72 1.93
3 -15 1 -3.81 2.87
3 -1 -15 -1.55 2.3
1 3 -15 -1.19 2.5
-15 1 3 2.61 2.71
-3 -15 -1 1.53 1.99
1 15 3 2.83 1.87
-3 1 -15 2.73 3.19
-3 15 1 2.07 1.94
1 -15 3 -2.21 2.14
-15 -1 3 -2.11 2.25
-1 15 3 -3.99 2.18
1 -3 -15 -2.68 2.42
-1 -15 -3 2.83 2.45
-3 -15 1 -2.27 1.77
15 -1 -3 -0.88 2.8
-3 -1 -15 5 3.24
3 -1 15 0.59 1.79
1 15 -3 -0.33 1.74
3 1 -15 2.6 2.23
-3 1 15 -0.25 1.37
15 1 3 4.24 2.19
3 15 1 0.31 2.26
-1 3 -15 0.95 2.77
1 3 15 0.15 1.42
-15 1 -3 2.46 2.59
15 3 -1 2.35 1.96
-1 -3 15 -2.01 1.6
3 -15 3 22.2 4.36
-3 -3 15 19.35 2.6
3 15 -3 17.03 2.88
3 3 -15 17.67 2.74
-3 3 15 17.32 2.5
3 3 15 20.78 2.96
-3 -15 3 22.21 3.18
3 15 3 20.11 2.84
15 -3 3 15.97 2.78
15 3 -3 14.04 2.92
15 3 3 11.47 2.47
3 -3 15 15.39 2.92
-3 -15 -3 15.08 2.61
-3 3 -15 9.57 3.8
3 -3 -15 15.61 2.62
5 -1 -15 12.68 2.57
-5 -15 -1 12.43 2.19
-15 1 5 14.79 2.12
-1 -15 5 17.79 3.37
1 -15 -5 10.01 3.41
1 5 -15 11.76 3.21
-1 -5 -15 10.93 2.86
-1 5 15 13.08 2.11
1 -5 15 13.22 2.14
15 -1 5 10.41 2.87
5 15 -1 15 2.81
-15 -5 1 19.78 3.26
15 5 1 17.65 3.07
-5 -1 15 11.26 1.88
5 1 15 9.41 2.26
1 -15 5 16.27 3.51
15 5 -1 9.85 2.18
5 1 -15 19.89 2.79
5 -1 15 10.15 2.45
-1 5 -15 13.38 3.53
-15 -1 5 13.89 2.69
-5 -15 1 7.91 2.14
5 15 1 11.16 2.34
1 5 15 14.78 2.06
-1 -5 15 11.93 2.5
-5 1 15 9.86 1.82
-1 15 5 9.27 2.3
1 -5 -15 17.41 2.85
-15 -1 5 14.55 2.31
-15 -5 -1 20.58 3.07
15 1 5 17.42 3.23
-1 -15 -5 13.35 3.01
5 3 15 50.8 4.6
-15 -5 3 65.82 4.37
-3 -15 5 48.65 4.32
-15 3 5 60.14 3.98
5 -3 -15 52.39 4.73
3 15 5 53.34 4.18
-5 -3 15 57.33 3.92
5 15 -3 62.18 4.26
15 3 -5 48.11 4.7
3 -5 15 53.52 4
-3 -5 -15 57.12 5.99
-5 -15 -3 45.37 4.63
-3 5 15 58.01 3.95
3 5 -15 52.19 5.31
15 5 3 59.46 4.27
-15 -3 -5 60.32 4.66
-3 5 -15 40.15 6.35
15 5 -3 59.22 4.61
5 3 -15 57.73 4.91
3 -5 -15 59.08 4.81
3 5 15 60.99 4.31
-5 -15 3 63.45 4.28
15 3 5 53.91 4.34
5 15 3 58.37 4.1
-15 -5 -3 46.57 4.49
-5 3 15 54.95 3.9
-15 -3 5 68.92 4.71
3 -15 5 62.38 5.08
-3 -5 15 57.49 3.94
5 -3 15 58.8 4.45
3 15 -5 52.54 4.08
-15 -3 5 56.69 6.14
-3 -15 -5 60.03 4.79
5 -5 -15 99.46 6.38
-15 5 5 84.24 5.72
5 15 5 105.23 5.98
-5 -15 5 110.13 6.08
5 5 15 104.93 6.35
-5 -15 -5 113.67 6.43
-5 5 -15 98.94 8.76
5 15 -5 103.21 6
-5 5 15 101.45 5.79
5 -5 15 105.36 6.02
15 5 5 103.55 6.24
5 5 15 99.81 6.29
-5 -5 15 105.42 5.89
-15 -5 -5 100.9 6.27
-15 -5 5 95.77 6.08
5 -15 5 103.56 7.24
15 5 -5 90.58 6.32
7 15 -1 -1.13 2.1
-1 -7 -15 -0.7 2.68
-15 1 7 2.76 2.12
-1 -15 7 4.17 1.9
-7 -1 15 -0.41 1.71
-7 -15 -1 1.77 2
1 7 -15 0.6 3.01
1 -15 -7 3.15 4.01
-1 7 15 1.41 1.75
-15 -7 1 0.35 1.89
1 -7 15 1.49 1.83
15 7 1 -0.81 2.14
-1 7 15 1.95 2.01
7 -1 -15 0.88 2.29
1 15 7 -0.78 2.41
15 -1 7 2.57 2.76
7 15 1 -2.11 1.48
-1 7 -15 -1.37 3.22
1 -7 -15 0.9 2.57
-15 -1 7 0.62 2.63
1 7 15 0.6 1.95
1 -15 7 0.37 2.15
-1 -7 15 -0.68 1.79
7 1 -15 0.92 2.38
-15 -1 7 -1.89 2.02
1 7 15 -0.46 1.84
-1 -15 -7 2.88 3.01
-7 1 15 1.22 1.48
-7 -15 1 0.37 1.77
15 7 -1 -0.21 1.81
15 1 7 -0.81 2.51
-1 15 7 2.91 2.57
-15 -7 -1 -0.46 1.69
-3 7 15 21.28 2.75
-15 3 7 20.86 3.23
-3 7 15 14.37 3.05
-7 -3 15 11 1.98
-7 -15 -3 18.78 3.42
-3 -15 7 18.92 3.2
15 3 -7 10.16 2.95
15 -3 7 17.61 3.47
-15 -7 3 19.41 3.16
7 15 -3 17.06 3.01
15 7 3 14.34 2.93
3 15 7 12.52 2.71
7 3 15 19.67 3.4
3 7 -15 24.51 4.82
-3 -7 -15 16.65 3.4
7 -3 -15 17.07 2.71
3 -7 15 13.86 2.33
-15 -3 -7 10.4 2.58
-15 -7 -3 17.67 3.08
-3 -15 -7 18.08 3
3 7 15 12.12 2.78
-3 7 -15 14.76 4.01
-7 -15 3 12.8 3
7 -3 15 9.3 2.94
3 7 15 15.2 3.17
3 -15 7 18.1 3.95
-3 -7 15 14.27 2.3
15 3 7 9.27 2.77
-7 3 15 14.2 2.66
7 3 -15 16.32 2.87
-15 -3 7 22.41 3.4
15 7 -3 11.14 2.98
3 -7 -15 13.82 2.76
7 15 3 15.98 2.95
15 7 5 56.87 4.64
7 15 -5 51.23 4.24
5 -7 15 55.16 4.41
5 7 -15 51.58 5.84
-5 -7 -15 43.02 6.59
7 5 15 40.22 5.3
5 15 7 56.86 4.18
7 5 15 58.88 4.75
-5 -15 7 55.16 4.39
-7 -15 -5 53.7 4.58
-15 -7 5 57.02 4.38
-5 7 15 58.9 4.06
-15 5 7 51.26 4.19
7 -5 -15 58.75 4.74
-15 -5 -7 58.73 4.82
15 5 -7 58.1 4.67
-7 -5 15 53.33 4.14
15 -5 -7 62.35 8.01
15 7 -5 60.79 4.7
5 7 15 49.53 4.73
7 -5 15 59.31 5.01
5 -7 -15 53.87 4.82
7 15 5 60.13 4.41
-15 -5 7 62.13 4.45
5 7 15 51.64 4.61
5 -15 7 54.33 5.75
-15 -7 -5 59.57 4.53
7 5 -15 59.99 5.46
-5 7 -15 66.31 8.2
-7 5 15 51.27 3.96
-15 -5 7 55.38 4.69
5 15 -7 55.27 4.25
-5 -7 15 51.47 4.18
-5 -15 -7 64.03 5.13
15 5 7 54.7 4.66
-7 -15 5 57.3 4.29
15 7 7 26.56 3.72
7 15 -7 34.86 3.68
-15 -7 7 31.56 4.27
-7 7 -15 32.55 6.26
-7 -15 -7 43.56 4.28
7 7 -15 35.23 5.45
15 -7 -7 33.96 5.26
7 7 15 30.52 4.05
-15 7 7 29.05 3.63
7 15 7 31.38 3.55
7 -7 15 34.05 4.43
7 7 15 32.37 5.13
-7 -7 15 35.92 4.04
7 -7 -15 34.11 4.16
-15 -7 -7 38.39 4.03
-15 -7 7 33 3.7
-7 7 15 34.85 3.42
-7 -7 15 35.76 3.55
-7 -15 7 28.72 3.75
15 7 -7 39.4 4.13
-1 9 15 8.7 2.61
15 9 1 9.51 2.66
1 15 9 4.98 2.31
-1 -9 -15 7.05 2.64
15 1 -9 -9.78 5.43
-9 -1 15 6.43 2.66
-15 1 9 -0.66 2.19
9 1 15 0 2.4
-1 -15 9 5.04 2.15
-9 -1 15 8.61 1.98
9 15 -1 4.54 2.42
-1 9 15 7.37 1.97
9 -1 -15 4.44 2.54
15 -1 9 0.6 2.57
-15 -9 1 6.08 2.07
-9 -15 -1 8.09 2.19
1 9 -15 6.88 3.47
1 -9 15 7.23 1.95
-15 -1 9 4.41 3.2
1 -9 -15 1.7 2.36
15 1 9 3.56 2.35
-1 15 9 15.33 4.15
-15 -1 9 2.21 1.84
1 9 15 5.12 2.16
-1 -9 15 6.3 2
15 -1 -9 -7.7 4.71
15 9 -1 3.77 2.37
9 1 -15 7.24 2.55
-9 -15 1 7.34 2
9 15 1 9.82 2.38
1 -15 9 5.95 2.32
-15 -9 -1 5.56 1.91
-1 9 -15 6.97 3.56
-9 1 15 5.17 1.76
1 9 15 4.56 2.53
15 9 3 -5.21 2.55
-9 -3 15 -1.71 2.23
3 -9 15 -0.48 1.81
-3 9 15 -1.31 2.68
9 3 15 1.54 2.78
-3 -9 -15 0.46 3.16
-3 -15 9 1.34 1.94
-15 3 9 -2.31 2.17
-15 -9 3 2.42 1.83
-9 -15 -3 -0.51 1.89
3 15 9 0.97 2.1
-15 -3 -9 1.74 2.52
9 -3 -15 4.36 2.48
15 3 -9 0.73 8.63
15 -3 9 -1.64 2.53
3 9 -15 -0.15 3.05
15 -3 -9 -3.01 4.44
3 9 15 0.94 2.29
3 -15 9 1.55 2.5
9 3 -15 -1.2 2.57
9 15 3 -0.98 2.03
-3 9 -15 3.94 3.83
15 3 9 2.74 2.67
-15 -9 -3 3.04 2.05
15 9 -3 0.8 2.49
3 -9 -15 -3.86 2.13
-15 -3 9 -2.45 2.16
-9 -15 3 -1.38 1.81
-3 -9 15 -1.58 1.61
3 9 15 -2.75 2.39
-3 -15 -9 2.42 3.11
-5 -9 -15 15.76 4.05
-9 -5 15 20.45 3.18
15 -5 9 12.38 3.44
5 9 -15 13.07 3.38
-15 -5 -9 12.51 2.84
9 5 15 21.66 3.91
9 -5 -15 17.22 2.88
-5 -15 9 21.64 3.43
5 15 9 17.7 3.33
-15 5 9 17.25 2.62
15 9 5 20.37 3.49
-9 -5 15 16.9 2.81
5 -9 15 21.28 3.29
15 -9 -5 18.02 4.76
15 5 -9 22.83 7.49
9 15 -5 19.88 3.38
-15 -9 5 15.87 3.25
-9 -15 -5 11.23 2.31
-5 9 15 20.68 3.04
15 9 -5 12.09 3.13
5 -9 -15 18.34 3.6
-5 -9 15 13.75 2.71
15 -5 -9 20.82 4.51
5 -15 9 13.79 3.35
9 5 -15 17.88 3.43
-5 9 -15 20.19 4.77
15 5 9 17.71 3.25
9 -5 15 31.32 5.81
-15 -5 9 19.3 3.47
-9 -15 5 16.85 3.19
9 15 5 17.28 3.27
-5 -15 -9 24.29 4.73
5 9 15 13.28 3.18
-15 -5 9 18.87 3.76
-15 -9 -5 15.86 3.49
-5 -9 15 22.28 3.3
-9 5 15 21.62 3.04
5 9 15 13.89 3.08
-15 7 9 12.99 2.53
-15 -7 -9 5.14 2.7
-7 -15 9 7.03 2.32
-9 -7 15 6.62 2.67
7 15 9 7.51 2.62
7 -9 15 1.41 2.48
-9 -15 -7 4.77 2.41
9 -7 -15 7.08 2.67
9 7 15 8.55 3.21
9 15 -7 5.64 2.52
15 7 -9 9.31 2.77
-9 -7 15 8.06 2.57
-7 9 15 7.98 2.39
-15 -9 7 8.44 2.15
15 9 7 9.33 2.9
15 -7 9 6.02 3.73
-15 -9 7 10.64 3.11
7 9 -15 5.39 3.35
15 -9 -7 1.93 3.89
15 9 -7 4.42 2.72
7 -9 -15 6.23 2.47
-15 -7 9 4.03 2.1
9 15 7 5.64 2.31
7 -15 9 17.5 3.83
-7 9 -15 3.77 5.22
-15 -7 9 6.13 2.78
9 -7 15 10.92 3.96
-15 -9 -7 7.61 2.34
9 7 -15 14.12 3.58
7 9 15 12.37 3.55
15 -7 -9 10.72 3.94
-7 -9 15 6.52 2.54
-9 7 15 5.9 2.04
-7 -9 15 5.81 2.29
-7 -15 -9 6.28 2.74
15 7 9 6.77 2.9
7 9 15 4.58 2.87
-9 -15 7 9.25 2.22
9 9 15 2.44 2.74
-9 -15 9 0.8 2.01
-15 -9 -9 5.81 2.7
-9 -15 9 -0.03 2.51
-9 9 15 -0.87 2.08
9 9 -15 -2.78 3.5
-15 -9 9 1.15 2.12
9 15 9 1.99 2.54
-9 -9 15 -3.26 2.38
15 9 9 0.37 2.83
9 -9 15 6.96 3.81
15 9 -9 2.7 2.65
15 9 -9 11.79 7.71
-9 -9 15 -3.18 2.31
-9 -15 -9 -2.19 2.49
-15 9 9 -4.55 2.72
15 -9 -9 -7.94 3.8
9 -9 -15 3.27 2.67
15 11 1 2.68 2.51
1 11 -15 6.37 3.65
15 1 -11 13.24 4.68
-11 -1 15 8.08 2.14
11 1 15 4.66 2.89
-11 -15 -1 6.86 2.29
-1 -15 11 4.76 2.21
-1 -11 -15 6.73 2.72
-1 11 15 5.41 2.81
11 15 -1 7.33 2.66
11 -1 -15 5.02 2.59
15 -1 11 0.1 2.85
-15 -11 1 9.13 2.32
-1 11 15 7.34 2.31
1 -11 15 4.21 1.95
1 15 11 1.23 2.7
-15 1 11 9.91 2.57
-11 -1 15 10.64 3.02
-11 1 15 5.47 1.96
1 11 15 10.4 2.34
15 1 11 12 2.94
-1 11 -15 8.04 3.53
-15 -1 11 4.31 2.23
15 11 -1 5.22 2.12
15 -1 -11 2.93 4.19
11 15 1 4.66 2.02
1 -15 11 4.12 2.49
11 1 -15 4.39 2.79
-11 -15 1 7.7 2.21
1 -11 -15 8.77 2.57
-15 -11 -1 8.32 2.17
11 -1 15 3.98 2.58
-15 -1 11 0.24 3.12
1 11 15 6.05 2.7
-1 -11 15 6.42 2.11
-11 -3 15 -0.86 2.16
15 11 3 2.97 2.42
-3 -15 11 -0.57 2.05
11 -3 -15 1.18 2.56
-15 3 11 2.72 2.59
3 11 -15 0.24 3.39
-11 -15 -3 3.05 2.01
11 15 -3 0.14 2.55
3 15 11 -0.31 2.55
15 -3 11 -2.94 2.91
11 3 15 -0.92 2.89
-3 11 15 -0.3 2.07
15 3 -11 -3.49 5.19
-3 -11 -15 -0.49 2.84
-11 -3 15 0.76 2.51
15 -11 -3 8.19 5.43
3 -11 15 0.45 1.87
-15 -11 3 1.86 2.02
11 -3 15 2.05 2.76
-3 -11 15 3.59 2.48
-15 -3 11 1.31 2.44
11 3 -15 -0.25 2.77
-3 11 -15 0.42 3.79
3 -11 -15 3.59 2.35
15 3 11 2.78 3.23
15 11 -3 1 2.79
-15 -3 11 0.51 2.29
-11 -15 3 2.23 2.16
-3 -11 15 0.72 1.75
-15 -11 -3 -0.33 1.83
15 -3 -11 1.19 3.68
3 -15 11 -1.19 2.74
3 11 15 -2.85 2.65
11 15 3 -1.58 2.33
-11 3 15 -0.96 1.94
11 15 -5 2.69 2.73
11 5 15 0.91 3.13
-11 -5 15 6.27 2.63
15 11 5 5.35 2.17
-11 -15 -5 5.79 2.36
5 -11 15 9.31 2.35
5 11 -15 9.13 3.76
-5 -15 11 7.12 2.25
15 -5 11 3.12 3.37
-15 5 11 8.14 2.62
-15 -11 5 2.75 2.23
-11 -5 15 7.02 2.49
-5 11 15 7.08 2.12
-5 -15 11 4 2.37
-5 -11 -15 9.65 3.58
5 15 11 0.46 2.56
11 -5 -15 5.54 2.56
15 5 -11 15.35 5.78
15 -11 -5 11.16 4.02
15 5 11 10.26 3.43
-15 -11 -5 5.27 2.48
-5 11 -15 6.64 4.23
-11 5 15 6.87 2.3
-5 -15 -11 9.21 3.43
-5 -11 15 3.44 2.49
5 15 -11 8.03 3.61
15 11 -5 6.88 3.2
5 11 15 4.48 3.22
5 11 15 3.64 2.56
-5 -11 15 4.98 2.29
11 5 -15 7.66 3.67
11 15 5 3.87 2.61
5 -11 -15 4.35 2.39
15 -5 -11 4.25 3.62
5 -15 11 3.22 3.08
-11 -15 5 5.13 3.01
-15 -5 11 2.75 2.3
-11 -15 5 4.74 2.23
7 11 -15 2.72 3.76
7 -15 -11 3.99 2.83
-15 -7 -11 -0.12 2.28
11 -7 -15 -0.65 2.65
-15 7 11 -2.59 2.45
11 15 -7 0.65 2.5
7 -11 15 -2.24 2.66
-7 -15 11 0.29 2.14
11 7 15 -1.03 2.72
7 15 11 0.72 2.85
15 11 7 0.59 2.44
15 7 -11 -13.59 6.34
-15 -11 7 4.6 4.23
-7 11 15 2.05 2.34
-11 -15 -7 1.2 2.4
15 -11 -7 -0.57 3.77
-15 -11 7 4.82 2.35
-11 -7 15 0.21 2.4
-7 -15 11 -0.77 2.33
-11 -7 15 1.85 2.43
-7 -15 -11 -2.7 2.99
-11 -15 7 -1.23 2.83
-15 -7 11 -1.17 3.06
7 11 15 0.37 3.37
7 15 -11 1.58 3.67
-7 -11 15 0.21 2.34
-15 -11 -7 -0.57 2.04
7 -11 -15 -1.8 2.24
-11 -15 7 0.83 2.16
15 -7 -11 4.31 3.54
-11 7 15 2.54 2.55
7 -15 11 -4.38 3.67
11 7 -15 2.27 3.54
-15 -7 11 1.39 2.18
-7 -11 15 2.16 2.59
15 11 -7 -1.14 2.71
-7 -15 -11 8.97 4.15
15 7 11 3.2 3.27
11 15 7 -1.66 2.99
1 13 -15 4.23 3.75
-1 -15 13 5.58 2.41
-13 -15 -1 6.08 2.45
15 13 1 7.76 2.99
-1 -15 13 7.86 2.73
-15 1 13 6.86 2.69
13 15 -1 9.97 3.17
-1 -13 -15 8.91 2.71
1 -13 15 8.89 2.92
13 1 15 2.65 3.3
1 -15 -13 6.19 2.69
15 1 -13 12.34 3.98
13 -1 -15 6.36 3.06
-15 -13 1 5.28 2.23
-13 -1 15 10.71 3.47
-13 -1 15 1.89 2.24
1 -13 15 5.04 2.29
-1 13 15 7.36 2.62
15 -1 13 6.36 3.51
1 13 15 7.56 3
-1 -13 15 4.71 2.2
13 15 1 6.53 2.83
-1 -13 15 6.81 2.81
-1 -15 -13 7.78 2.85
13 -1 15 3.62 3.3
1 13 15 18.14 3.83
-1 13 -15 1.6 3.53
1 -13 -15 8.07 2.56
1 15 -13 12.32 3.48
1 -15 13 3.09 2.73
13 1 -15 6.98 3.18
-13 -15 1 5.6 2.33
-15 -13 -1 5.75 2.48
15 -1 -13 5.14 3.72
15 13 -1 5.6 3.17
15 1 13 -3.09 3.07
-13 1 15 2.18 2.41
1 -15 13 5.93 2.37
-15 -1 13 4.5 2.22
15 13 3 1.43 2.59
15 -3 13 -4.4 3.23
-3 -13 -15 5.05 2.94
-13 -3 15 2.37 2.96
13 3 15 1.91 3.39
-3 -15 13 1.07 2.44
-15 -13 3 1.01 2.23
3 -15 -13 -0.58 2.58
3 13 -15 3.72 3.52
-3 -15 13 3.84 2.39
-15 3 13 4.02 2.95
-13 -3 15 1.05 2.5
-3 13 15 2.02 2.3
3 -13 15 -0.81 2.27
3 15 13 0.12 3.23
-13 -15 -3 0.62 2.33
13 -3 -15 1.23 3
13 15 -3 -0.82 3.01
15 3 -13 0.44 4.65
13 15 3 1.18 2.56
3 15 -13 5.12 3.62
15 -3 -13 2.56 3.62
-3 13 -15 1.35 3.93
3 -13 -15 0.92 2.38
-3 -13 15 2.87 2.16
3 -15 13 0.83 2.27
-15 -3 13 0.96 2.61
15 13 -3 1.84 3.12
-13 3 15 0.72 2.43
15 3 13 -1.75 2.81
-15 -13 -3 2.16 2.34
-3 -15 -13 -0.59 2.88
13 3 -15 8.01 3.34
-15 -3 13 0.72 2.88
-3 -13 15 -1.44 2.45
3 13 15 0.36 3.43
-13 -15 3 2.46 2.21
13 -3 15 -2.98 3.07
3 -15 13 1.38 2.87
15 -5 13 2.7 3.59
-5 -15 13 6.73 2.49
13 -5 -15 10.03 3.05
15 5 -13 13.88 5.32
-13 -5 15 11.67 3.2
-15 -13 5 6.18 2.59
-5 13 15 10.05 2.46
5 -15 -13 6.56 2.7
-13 -15 -5 6.9 2.54
-5 -13 -15 7.52 3.45
13 5 15 3.55 3.29
13 15 -5 10.05 3.23
-15 5 13 11.59 2.86
5 -13 15 6.31 2.85
-5 -15 13 11.98 2.74
5 15 13 11.42 3.48
5 13 -15 12.7 3.81
-13 -5 15 11.94 3.01
15 -13 -5 14.79 4.44
15 13 5 6.26 3.4
5 13 15 5.8 3.7
-5 -13 15 7.94 2.73
13 5 -15 12.86 4.52
5 15 -13 13.58 4
15 -5 -13 9.17 3.55
-15 -13 -5 15.59 3.03
-15 -5 13 6.06 2.79
5 -13 -15 10.31 2.67
-13 -15 5 7.76 2.34
-5 -13 15 11.26 2.79
-5 -15 -13 9.39 3.21
-13 -15 5 18.77 4.27
13 15 5 11.03 3.31
15 5 13 18.35 4.12
5 -15 13 5.23 2.71
-13 5 15 5.61 3
15 13 -5 12.55 3.56
5 -15 13 8.16 3.32
-15 -5 13 15.61 3.17
13 -5 15 4.89 3
0 0 16 63.99 4.17
0 16 0 66.48 4.35
16 0 0 45.58 6.41
0 0 -16 57.72 5.23
-16 0 0 57.64 5.42
0 -16 0 59.56 5.44
2 -16 0 6.05 3.22
-2 -16 0 0.91 2.45
0 2 16 2.93 1.7
0 -2 -16 7.67 2.61
0 -2 16 4.73 1.75
0 16 2 9.08 2.6
-2 0 16 -0.3 1.72
2 0 16 -0.69 1.77
-16 0 -2 2.46 2.86
-16 0 2 7.3 2.82
0 16 -2 4.94 2.17
16 2 0 0.16 2.46
-2 16 0 4.76 2.14
2 16 0 3.63 2.32
0 -16 -2 3.64 3
0 -16 2 3.43 2.41
-16 -2 0 6.41 3.79
0 2 -16 2.97 2.57
-2 0 -16 1.4 3.04
2 0 -16 4.84 2.4
16 0 2 5.18 2.2
2 -2 16 0.84 1.73
-16 2 -2 1.74 3.06
2 2 16 -3.07 1.57
-2 2 -16 -4.4 3.03
2 -2 -16 3.01 2.47
2 2 -16 3.35 2.4
-2 -16 2 5.64 2.18
2 16 2 0.27 2.28
2 -16 2 -1.36 2.89
-16 -2 -2 -1.38 2.16
16 2 2 0 2.1
16 2 -2 -4.69 2.13
-2 -2 16 -1.12 1.73
-2 2 16 0.38 1.59
-2 16 2 -3.07 2.27
2 16 -2 1.36 2.02
-2 -16 -2 0.99 2.45
0 -4 -16 11.21 2.78
0 16 4 9.48 2.95
0 -4 16 8.42 2.16
0 4 -16 9.01 3.08
0 4 16 7.53 2.01
4 0 16 6.59 2.18
-4 0 16 8.05 1.94
-16 0 -4 1.61 2.65
16 4 0 4.89 2.41
4 0 -16 6.73 2.31
-4 -16 0 9.34 2.35
16 0 4 9.84 2.82
-16 -4 0 15.53 3.27
-4 0 -16 14.96 3.64
0 -16 4 5.99 2.39
0 -16 -4 13.43 3.25
4 16 0 9.8 2.47
-4 2 -16 17.92 4.22
4 -2 -16 20.83 3.9
-2 -4 -16 23.56 4.48
4 2 16 16.31 3.37
16 2 -4 17.61 3.59
2 4 -16 24.27 3.22
-2 4 16 19.79 2.7
16 -2 4 23.91 4.04
-16 -2 -4 30.62 4.04
-2 -16 4 15.71 2.53
-4 -2 16 18.17 2.8
2 -4 16 18.95 3.11
4 16 -2 18.59 3.26
2 16 4 22.75 3.37
-4 -2 -16 30.3 5.47
16 2 4 21.21 3.73
-2 4 -16 21.35 3.95
2 -4 -16 23.06 4.02
-4 2 16 22.34 2.87
-4 -16 2 22.36 3.43
4 -2 16 12.15 2.46
16 4 -2 19.77 3.3
4 16 2 24.12 3.15
2 16 -4 22 3.08
4 2 -16 19.22 4.08
-2 -4 16 20.62 2.98
-2 -16 -4 17.21 3.18
2 -16 4 18.05 3
2 4 16 26.37 3.28
4 -4 -16 49.43 4.58
16 4 4 44.4 4.29
4 16 -4 45.23 3.99
-4 -16 4 49.86 4.07
4 4 -16 46.13 4.88
16 4 -4 38.38 4.52
-4 -4 16 48.49 3.81
-16 -4 4 45.72 4.51
-4 -16 -4 59.33 4.69
-4 4 16 46.54 3.79
4 16 4 46.71 3.93
4 4 16 34.46 4.16
-4 -4 -16 33.38 6.12
4 -16 4 50.87 5.7
-4 4 -16 44.82 7.09
4 -4 16 45.38 4.1
-16 -4 -4 45.91 4.47
0 16 6 9.35 2.79
16 0 6 6.78 3.01
6 16 0 12.39 2.81
-6 -16 0 10.29 2.32
0 -16 -6 8.48 3.65
0 6 -16 8.64 3.28
0 -16 6 19.1 3.54
6 0 16 5.44 2.69
6 0 -16 6.43 2.33
0 -6 -16 13.4 2.79
0 6 16 9.48 2.2
16 6 0 7.81 2.54
-6 0 16 9.24 1.9
-16 0 6 13.71 4.33
0 -6 16 10.7 2.01
-16 -6 0 9.08 2.15
-16 2 6 18.69 2.93
6 -2 -16 29.4 4.17
-2 -16 6 26.34 3.73
-16 -6 2 26.85 3.72
16 2 -6 24.32 4.46
-2 6 16 22.18 3.19
6 2 16 20.71 3.31
-16 -2 -6 30.02 4.45
-6 2 -16 46.23 8.92
-6 -2 16 24.65 3.05
16 6 2 22.44 3.77
-2 -6 -16 26.44 4.83
-6 -16 -2 27.19 3.84
2 16 6 24.09 3.62
2 -6 16 29.34 3.27
2 6 -16 21.06 3.56
6 16 -2 22.23 3.52
16 -2 6 15.47 3.7
-2 6 -16 21.67 4
2 6 16 19.63 3.45
6 16 2 27.07 3.31
-16 -6 -2 30.67 3.58
2 -6 -16 22.97 4.19
-6 2 16 27.61 3.02
16 6 -2 20.5 3.48
16 2 6 16.97 3.06
6 -2 16 29.69 4.31
2 -16 6 29.01 4.26
-6 -16 2 24.19 3.44
6 2 -16 20.52 4.19
-2 -6 16 28.29 3.2
2 6 16 21.26 3.43
-16 -4 -6 76.04 5.41
-4 -6 -16 56.03 6.47
4 -6 16 72.96 4.86
-4 -16 6 71.52 4.85
-6 -16 -4 69.01 5.19
-6 -4 16 53.73 4.48
16 4 -6 68.51 5.33
6 4 16 62.18 5.16
6 4 16 62.57 5.59
4 6 -16 66.2 6.08
6 16 -4 63.58 4.77
-4 6 16 51.56 4.49
16 -4 6 48.05 6.04
4 16 6 71.47 4.9
16 6 4 67.22 4.98
6 -4 -16 69.06 5.13
-16 4 6 57.68 4.89
-16 -6 4 73.05 4.89
16 6 -4 65.3 5.17
4 -6 -16 69.53 5.17
6 16 4 70.39 4.85
4 6 16 70.21 5.08
-16 -4 6 61.63 5.19
16 4 6 64.39 4.95
4 -16 6 64.26 6
4 16 -6 67.82 4.72
6 -4 16 65.24 5.28
-16 -6 -4 63.59 4.99
-4 -16 -6 69.04 5.76
4 6 16 66.73 5
6 4 -16 63.24 5.48
-4 6 -16 68.02 7.09
-6 -16 4 65.87 4.76
-4 -6 16 60.28 4.65
6 6 16 80.82 6.31
6 -6 -16 87.47 5.74
-16 -6 6 93.34 5.71
-6 6 16 88.43 5.36
6 -6 16 77.89 5.95
-6 -16 -6 94.54 6.23
16 6 6 71.58 5.89
6 6 -16 77.66 6.52
6 16 6 84.9 5.64
6 6 16 78.06 5.93
6 16 -6 79.14 5.51
-6 -6 16 82.69 5.35
-16 -6 -6 87.62 5.87
-6 6 -16 71.27 9.48
-16 6 6 78.5 5.53
16 6 -6 89.76 6.02
-6 -16 6 86.34 5.48
-16 0 8 2.93 2.61
16 0 8 2.41 3.14
16 8 0 2.05 2.27
8 0 16 -2.67 2.98
0 -8 -16 -4.86 2.7
8 0 -16 2.23 2.31
-16 -8 0 2.63 2.03
0 8 -16 1.31 3.23
-8 -16 0 3.18 2.11
0 8 16 -3.17 2.46
0 8 16 3.83 1.94
-8 0 16 0.65 1.69
8 16 0 -3.73 2.5
0 -16 8 -3.42 2.14
0 16 8 11.59 3.33
0 -16 -8 4.2 4.19
-16 2 8 -0.8 2.44
-2 8 16 -3.95 2.62
8 -2 -16 6.43 2.27
-2 8 16 -0.57 1.99
2 -8 16 0.5 2.12
8 2 16 2.59 2.75
-16 -8 2 1.73 2.13
2 8 -16 7.43 3.07
16 -2 8 2.87 3.24
-2 -8 -16 4.67 2.97
16 8 2 -5.12 2.54
8 2 16 -7.9 5.84
-2 -16 8 0.31 2.06
-8 -16 -2 1.72 2.26
2 16 8 2.65 2.72
-8 -2 16 6.3 2.23
8 16 -2 2.29 2.51
8 16 2 -3.5 2.22
16 8 -2 -0.01 2.34
2 8 16 1.26 2.29
2 8 16 -0.41 2.65
-2 8 -16 4.45 3.96
-8 2 16 4.57 1.74
-8 -16 2 -1.28 1.91
16 2 8 4.01 2.9
-16 -8 -2 1.09 1.9
-16 -2 8 0 2.62
-2 -16 -8 6.95 3.46
2 -8 -16 -0.4 2.45
-2 -8 16 5.64 2.12
2 -16 8 6.44 2.58
8 2 -16 -0.22 2.42
16 4 -8 21.23 4.22
-8 -16 -4 19.1 3.67
16 8 4 22.27 3.44
-16 -8 4 23 3.53
8 16 -4 24.13 3.66
-4 8 16 22.46 3.2
4 16 8 16.88 3.32
-4 -8 -16 15.54 3.68
-8 -4 16 21.86 3.14
-16 -4 -8 21.23 4.28
8 -4 -16 14.27 2.69
4 -8 16 18.46 3.65
-4 -16 8 15.22 3.54
-4 8 16 15.07 3.43
8 4 16 19.98 4.05
4 8 -16 20.13 3.37
16 -4 8 21.71 4.32
-16 4 8 25.3 3.88
-8 -4 16 18.51 4.23
8 16 4 18.02 3.49
-16 -8 -4 22.07 3.65
16 8 -4 10.11 3.23
8 4 -16 17.12 2.94
-16 -4 8 28.7 4.02
-8 4 16 22.95 3.16
4 8 16 27.12 4.24
-16 -4 8 13.76 2.86
4 -8 -16 15.83 2.79
-8 -16 4 18.67 3.39
8 -4 16 14.72 3.71
-4 -16 -8 12.29 3.26
-4 -8 16 20.3 3.33
4 -16 8 16.22 3.27
16 4 8 18.26 3.4
4 8 16 19.21 3.36
-4 8 -16 20.48 4.64
8 16 -6 39.96 4.04
6 16 8 31.71 3.84
-6 -16 8 42.05 4.14
-16 -6 -8 33.22 4.59
-6 8 16 37.83 3.78
-8 -16 -6 33.15 4.58
8 -6 -16 35.52 4.44
8 6 16 28.96 4.5
6 -8 16 36.17 4.63
-16 6 8 42.43 4.41
-16 -8 6 35.98 4.02
16 -6 8 28.16 7.83
16 8 6 33.57 4.3
-8 -6 16 35.54 3.88
6 8 -16 35.48 5.35
-8 -6 16 37.21 4.3
6 8 16 38.06 4.59
-6 -8 16 33.14 3.89
6 -8 -16 36.9 4.33
-6 8 -16 28.5 5.64
-16 -6 8 32.8 4.04
-8 6 16 38.47 3.81
-6 -8 16 36.29 4.52
6 -16 8 51.58 5.92
8 6 -16 41.43 5.58
-6 -16 -8 35.37 5.1
6 8 16 31.37 5.17
16 -6 -8 51.6 7.89
16 8 -6 33.28 4.42
-8 -16 6 34.64 3.93
-16 -8 -6 38.52 4.33
-16 -6 8 37.51 6.78
16 6 8 28.51 4.27
8 16 6 39.41 4.18
8 8 -16 7.92 3.31
-16 -8 8 5.72 2.29
-8 -8 16 3.9 2.34
-8 -16 8 9.33 2.29
16 8 -8 4.82 3.03
8 16 -8 5.75 2.26
8 -8 16 9.54 3.78
8 -8 -16 9.04 2.61
-8 -16 -8 4.98 2.87
16 -8 -8 12.14 4.45
8 16 8 3.06 2.3
-16 8 8 -1 2.84
-8 -8 16 5.28 2.7
16 8 8 5.16 3.21
-16 -8 -8 5.62 2.66
8 8 16 6.99 3.29
-8 8 16 4.64 2.18
0 -16 10 2.79 2.4
16 0 10 5.89 3.53
0 10 -16 6.09 3.56
0 10 16 7.17 2.47
-16 0 10 5.19 2.64
16 0 -10 -0.01 5.11
-10 0 16 4.29 2.05
10 16 0 7.02 2.8
0 -10 -16 4.76 2.52
16 10 0 5.17 2.69
10 0 16 5.42 2.92
-10 -16 0 9.9 2.5
0 -10 16 4.79 2.35
-16 -10 0 3.65 2.15
-10 0 16 3.63 2.97
10 0 -16 9.7 2.7
0 10 16 5.02 3.04
-2 -16 10 0.13 2.18
-10 -16 -2 1.54 2.34
2 -10 16 1.86 1.94
-2 10 16 5.43 3.19
-10 -2 16 0.82 1.97
10 2 16 -0.34 2.94
16 2 -10 8.72 6.18
-2 -10 -16 -0.41 2.95
-2 10 16 -3.37 2.16
16 10 2 0.44 2.7
2 16 10 1.75 2.6
-16 2 10 -1.61 2.65
-16 -10 2 1.05 2.16
2 10 -16 -3.36 3.18
10 -2 -16 1.75 2.52
-10 -2 16 2.4 2.94
10 16 -2 0.6 2.52
10 2 -16 3.55 2.58
-10 2 16 0.11 3.47
2 -16 10 -1.43 2.63
10 16 2 0.53 2.62
-2 -16 -10 0.23 3.87
-10 2 16 1.11 1.83
2 -10 -16 0.62 2.24
16 -2 -10 -6.05 4.67
16 10 -2 1.13 3.08
-2 -10 16 -0.31 1.85
-16 -2 10 -1.02 2.2
-2 10 -16 -0.38 3.81
16 2 10 -1.25 3.16
-10 -16 2 0.08 2.07
-16 -10 -2 2.91 2.08
2 10 16 -2.46 2.84
-16 -2 10 1.92 3.04
2 10 16 8.23 2.64
-10 -4 16 4.84 2.87
-4 -10 -16 3.9 3.41
-16 -10 4 3.11 2.16
10 4 16 7.4 3.48
-10 -4 16 2.23 2.32
10 16 -4 2.38 2.65
-4 10 16 3.67 2.42
4 -10 16 4.2 2.4
-4 -16 10 3.19 2.26
10 -4 -16 2.84 2.48
4 16 10 3.61 2.61
-10 -16 -4 0.5 2.22
4 10 -16 4.98 3.45
16 -4 10 6.25 3.21
16 10 4 10.34 3.35
10 16 4 2.08 2.71
16 -4 -10 0.87 4.35
-10 -16 4 3.04 2.13
-16 -10 -4 3.34 2.19
4 -16 10 -0.66 2.91
16 4 10 8.18 3.4
-4 -10 16 4.1 2.51
-4 -10 16 2.66 2.31
4 10 16 6.22 2.89
-16 -4 10 5.97 2.59
-10 4 16 4.04 2.22
16 10 -4 1.78 3.1
4 -10 -16 7.63 2.38
-4 -16 -10 1.74 3.48
4 10 16 3.95 2.95
10 4 -16 1.61 2.84
-16 -4 10 5.92 2.91
-4 10 -16 1.33 4.17
-10 -16 -6 12.78 2.84
6 10 -16 10.02 3.82
6 16 10 5.41 2.88
16 -10 -6 7.07 4.58
-16 6 10 11.51 3
-16 -10 6 9.22 2.47
6 -10 16 7.59 3.32
-6 -16 10 10.13 2.92
10 16 -6 9.17 2.95
10 -6 -16 4.16 2.74
16 10 6 2.79 2.68
-6 10 16 8.8 2.52
-16 -6 -10 9.17 2.71
16 -6 10 9.95 3.86
-10 -6 16 5.42 2.41
-6 -16 10 7.59 2.39
-10 -6 16 7.04 2.87
10 6 16 2.37 3.27
16 -6 -10 6.77 4.04
16 10 -6 10.08 3.3
-10 6 16 5.58 2.29
10 6 -16 7.25 3.59
6 -10 -16 9.07 2.74
-6 -16 -10 4.92 3.43
-16 -6 10 7.79 2.57
6 -16 10 3.9 3.68
-6 -10 16 7.47 2.76
-10 -16 6 7 2.31
-6 10 -16 5.62 4.56
6 10 16 5.65 3.22
10 16 6 13.23 2.99
16 6 10 6.3 3.35
-16 -10 -6 5.15 2.7
-6 -10 16 8.45 2.85
-8 -16 10 0.31 2.17
10 8 16 -0.5 3.36
10 16 -8 2.9 2.46
16 10 8 5.16 2.98
-10 -8 16 -1.36 2.49
10 -8 -16 2.15 2.61
8 10 -16 2.43 3.62
8 16 10 -0.74 2.54
-16 -10 8 -4.41 2.08
16 -10 -8 -1.77 4.07
-8 -10 16 0.93 2.35
-16 -8 10 1.95 2.38
10 16 8 -0.12 3.28
16 10 -8 0.94 2.95
10 8 -16 4.74 3.52
8 10 16 -3.29 2.77
-10 -16 8 1.16 2.21
16 8 10 -0.12 3.28
16 -8 -10 1.27 4.08
8 -10 -16 -2.24 2.55
12 0 16 3.45 3.43
-12 0 16 5.19 2.29
16 0 12 2.42 3.24
0 -12 16 3.39 2.17
0 -12 -16 4.68 2.61
12 16 0 6.02 3.37
0 12 16 8.23 2.83
-16 0 12 5.33 3
12 0 -16 5.46 2.91
16 0 -12 11.2 4.53
0 12 -16 6.64 3.76
-12 -16 0 2.36 2.25
16 12 0 2.79 2.89
-16 -12 0 6.17 2.4
0 -16 12 6.5 2.72
-12 0 16 3.5 3.64
2 -12 16 -2.38 2.26
12 -2 -16 0.23 2.54
-12 -2 16 -0.45 2.31
-2 -16 12 3.07 2.39
-16 -12 2 -0.81 2.13
-12 -2 16 -5.42 3.02
12 16 -2 1.88 3.07
2 12 -16 0.51 3.19
-12 -16 -2 -1.2 2.02
-2 -12 -16 -0.65 2.58
12 2 16 -2.32 3.41
16 -2 12 -0.93 3.17
16 12 2 0.42 2.55
-2 12 16 0.05 2.59
16 2 -12 6.55 5.12
2 16 12 4.78 3.31
-16 2 12 3.46 3.07
-2 -16 12 1.39 2.62
-2 -12 16 0.05 2.55
2 -12 -16 2.41 2.36
16 2 12 3.14 3.93
2 -16 12 2.82 3.06
12 16 2 -3.73 2.57
-16 -2 12 6.68 4.44
16 -2 -12 9.67 4.26
-12 -16 2 -0.83 2.07
-16 -2 12 0.19 2.5
2 12 16 3.7 3.16
-16 -12 -2 -1.74 1.96
-2 12 -16 -1.14 3.7
-12 2 16 1.71 2.37
-2 -12 16 -1.68 1.94
16 12 -2 2.24 3.37
12 2 -16 0.69 2.99
12 -2 16 1.84 2.69
2 12 16 0.41 3.76
12 16 -4 5.75 3.12
-16 -12 4 4.87 2.35
4 16 12 5.73 3.25
-16 4 12 4.7 2.96
12 4 16 3.31 3.48
-12 -16 -4 1.6 2.16
16 12 4 3.96 3.11
-12 -4 16 7.03 3.02
4 -16 -12 7.98 2.89
4 -12 16 2.47 2.43
-4 -12 -16 4.93 3.53
-4 12 16 3.91 2.46
16 -4 12 -0.12 3.52
16 4 -12 5.63 5.95
12 -4 -16 5.88 2.79
-12 -4 16 4.9 2.54
4 12 -16 7.27 3.61
-4 -16 12 4.49 2.55
-4 -16 12 -0.08 2.34
16 -4 -12 11.67 4.08
-12 -16 4 5.7 2.38
-4 -16 -12 5.67 3.05
12 4 -16 3.08 3.45
-12 -16 4 0.86 3.68
-4 -12 16 3.13 2.21
-16 -12 -4 1.46 2.2
-16 -4 12 6.26 3.04
-12 4 16 1.94 2.5
4 -12 -16 3.37 2.41
16 4 12 3.33 3.7
12 16 4 2.03 2.97
-4 12 -16 5.12 3.93
-16 -4 12 5.73 3.08
12 -4 16 1.9 2.86
4 -16 12 -0.03 3.27
4 12 16 1.02 3.62
-4 -12 16 3.26 2.61
16 12 -4 1.08 3.31
-1 -17 -1 12.51 3.24
-17 1 -1 13.79 3.58
17 1 -1 4.72 2.96
17 1 1 10.26 3.12
-1 -1 17 8.71 2.13
-1 1 17 8.75 2.08
1 -1 17 10.45 2.37
1 1 17 8.56 2.12
1 1 -17 11.72 2.7
1 -17 1 16.42 3.57
1 -1 -17 11.7 2.59
-1 1 -17 12.92 3.01
-1 17 -1 11.62 2.62
-1 17 1 18.47 3.65
1 17 -1 8.94 2.52
1 17 1 17.28 2.98
-1 -1 -17 9.49 2.9
1 -17 -1 11.09 3.73
3 17 -1 2.64 2.5
-1 3 17 0.37 1.65
1 -17 -3 4.73 4.51
-3 -17 -1 4.71 2.67
17 1 -3 -5.84 3.74
1 -3 17 0.18 2.08
3 -1 -17 -1.71 2.32
1 3 -17 3.06 2.66
17 -1 3 1.4 2.84
3 1 17 1.37 1.98
17 3 1 -1.74 2.57
-3 -1 17 5.21 2.11
-1 -3 -17 -1.25 2.78
-17 -3 1 4.16 2.47
1 17 3 4.06 2.86
-1 -17 3 5.2 2.55
-3 1 -17 2.11 3.39
1 -17 3 1.49 2.96
-3 1 17 5.47 1.81
-1 3 -17 -0.45 2.89
-17 -3 -1 -4.15 2.61
-17 1 -3 8.26 4.82
-1 -17 -3 5.32 3.1
-3 -17 1 1.55 2.36
3 17 1 0.44 2.57
3 -1 17 -0.8 2.08
3 1 -17 -0.38 2.38
1 -3 -17 3.33 2.61
-1 17 3 9.49 3.2
17 3 -1 0.07 2.41
17 1 3 0.2 2.61
-1 -3 17 1.38 2.09
1 3 17 2.85 1.82
-3 -1 -17 3 3.27
1 17 -3 0.44 2.13
-3 -3 17 8.06 2.12
-3 3 17 7.33 1.85
3 -3 17 9.86 2.4
-3 -17 -3 10.72 2.85
-3 -17 3 13.25 2.62
-17 -3 -3 9.44 2.66
3 -3 -17 8.89 2.5
3 17 -3 8.79 2.73
3 17 3 4.55 2.08
17 3 -3 3.72 3.3
17 3 3 1.36 2.36
3 -17 3 13.31 3.74
-3 -3 -17 7.78 3.54
3 3 17 7.78 2.5
-3 3 -17 13.56 4.09
3 3 -17 10.59 2.82
-17 -3 3 5.32 2.6
-5 -17 -1 13.36 2.82
17 -1 5 10.11 3.41
-1 -17 5 17.13 3.77
-1 5 17 13.96 2.36
1 17 5 11.55 2.73
-5 -1 17 10.27 2.27
-17 -5 1 18 3.76
-5 1 -17 22.56 4.8
1 5 -17 14.73 3.46
5 17 -1 21.25 3.3
-17 -1 -5 23.75 4.85
-1 -5 -17 17.78 3.13
1 -5 17 19.25 3.25
17 5 1 12.03 3.04
5 1 17 19.97 4.02
17 1 -5 12.41 4.06
5 -1 -17 11.59 2.63
5 1 -17 15.19 2.72
1 -5 -17 16.57 2.93
-17 -5 -1 16.65 3.65
5 -1 17 13.53 2.75
-5 -17 1 10.18 2.49
5 17 1 17.92 3.02
1 5 17 11.22 2.47
-1 5 -17 11.11 3.74
-1 -5 17 11.97 2.42
-5 -1 -17 14.15 4.32
17 5 -1 6.88 2.55
17 1 5 10.32 3.22
-5 1 17 11.04 2.13
-17 -3 -5 31.29 4.65
3 -5 17 28.28 3.86
-3 -5 -17 34.3 5.32
-5 -17 -3 27.36 4.4
-5 3 -17 24.23 5.21
5 17 -3 25.33 3.75
-3 -17 5 30.17 3.78
-17 -5 3 32.25 4.17
-5 -3 17 27.01 3.41
17 -3 5 40.89 5.55
17 3 -5 25.62 4.7
3 5 -17 25.71 4.91
5 -3 -17 24.74 3.98
3 17 5 29.19 3.91
17 5 3 19.61 3.63
3 5 17 23.91 4.09
-3 -17 -5 29.37 5.3
-5 -17 3 30.37 3.8
-3 -5 17 24.19 3.51
-3 5 -17 27.35 4.45
3 -5 -17 30.42 4.19
5 3 -17 28.13 4.44
5 -3 17 22.79 4.18
-17 -5 -3 27.6 4.06
-5 3 17 26.86 3.36
17 3 5 29.68 4.4
-5 -3 -17 39.66 6.86
3 17 -5 28.45 3.62
17 5 -3 27.19 4.51
5 17 3 35.32 3.83
-5 -17 -5 57.31 5.18
5 -5 -17 50.98 4.68
5 5 -17 46.84 5.46
5 5 17 41.15 5.29
-17 -5 5 61.73 5.01
5 5 17 53.43 4.91
-5 -17 5 42.77 4.42
-5 5 -17 55.45 7.98
-5 -5 17 50.33 4.35
5 -5 17 50.97 4.91
17 5 -5 43.25 5.31
-5 5 17 48.7 4.1
5 17 -5 54.25 4.59
-5 -5 -17 45.77 7.28
5 17 5 54.31 4.51
-17 -5 -5 51.2 4.92
1 -7 17 6.49 2.66
17 7 1 -1.68 2.67
7 17 -1 7.35 2.8
-7 -17 -1 1.63 2.26
7 -1 -17 5.78 2.34
-1 7 17 3.35 2.7
-1 7 17 7.1 2.26
-7 -1 17 2.57 1.92
-1 -17 7 3.71 2.51
1 7 -17 0.11 3.05
17 -1 7 5.97 3.6
-1 -7 -17 3.76 2.93
7 1 17 3.69 3.57
1 17 7 3.56 2.89
-17 -7 1 3.45 2.09
17 7 -1 -3.23 2.38
7 -1 17 3.77 3.26
7 17 1 12.05 3.12
-17 -7 -1 2.03 2.02
-7 1 17 0.15 1.89
-1 7 -17 0.83 3.45
1 -7 -17 7.53 2.68
-7 -17 1 1.56 2.14
-1 -7 17 6.97 2.22
7 1 -17 -1.79 2.32
1 7 17 3.76 2.48
1 -17 7 -1.56 2.57
17 1 7 0.04 3.19
7 3 17 16.46 3.4
17 3 -7 11.89 3.74
-3 -17 7 20.54 3.8
7 -3 -17 22.83 4.11
7 17 -3 18.81 3.68
-3 7 17 18.64 3.77
17 -3 7 8.69 4.2
-17 -3 -7 19.23 3.11
-7 -3 17 21.97 3.32
-3 7 17 15.64 2.6
3 -7 17 19.74 3.76
7 3 17 20.89 4.14
3 7 -17 20.43 3.59
3 17 7 20.98 3.44
-7 -17 -3 24.54 4.02
-17 -7 3 15.52 2.73
17 7 3 22.49 3.77
-3 -7 -17 19.06 3.59
-3 -17 -7 16.78 3.73
3 -7 -17 26.32 3.87
3 -17 7 24.51 4.99
3 7 17 20.62 4.14
-3 7 -17 22.48 4.48
7 -3 17 11.15 3.69
-3 -7 17 14.14 2.56
-17 -7 -3 21.87 3.85
17 7 -3 9.43 3.67
7 17 3 20.74 3.53
-7 -17 3 16.12 3.57
7 3 -17 22.48 4.32
-17 -3 7 24.46 4.61
3 7 17 20.42 3.82
-5 -7 -17 42.18 6.39
7 -5 -17 47.03 4.6
-7 5 -17 37.21 9.06
5 17 7 38.57 4.63
-17 -7 5 48.68 4.45
-17 5 7 38.89 7.39
-7 -17 -5 47.38 4.83
-7 -5 17 43.64 4.14
7 5 17 44.45 5.1
7 17 -5 46.99 4.51
5 7 -17 52.38 5.64
7 5 17 38.67 6.11
5 -7 17 29.28 4.84
17 7 5 37.26 4.67
17 5 -7 44.73 5.38
-5 7 17 35.9 4.59
-5 7 17 44.71 4.15
-17 -5 -7 38.67 5.03
-5 -17 7 36.34 4.27
-5 -17 -7 40.43 5.59
7 17 5 48.08 4.5
-7 5 17 44.5 4.03
-17 -7 -5 39.85 4.67
-5 -7 17 42.07 4.18
-5 7 -17 55.99 7.74
17 7 -5 60.14 5.45
7 -5 17 54.17 5.55
-7 -17 5 44.85 4.38
-17 -5 7 51.87 4.78
5 7 17 44.15 5.43
7 5 -17 47.17 5.56
5 -7 -17 48.56 4.62
5 7 17 48.17 4.81
17 5 7 45.44 5.18
17 7 -7 31.64 4.94
-7 -17 7 34.74 4.12
-7 7 17 27.31 3.9
-7 -7 17 39.06 4.65
7 7 -17 39.34 5.62
-17 -7 7 32.88 4.48
7 -7 -17 42.6 4.4
-7 7 -17 31.58 6.48
7 17 7 34.81 4.41
7 17 -7 31.54 4.14
17 7 7 32.76 4.9
-7 -7 17 31.66 4.14
7 7 17 32.22 4.96
-7 -17 -7 29.81 5.37
-17 -7 -7 29.96 4.73
17 -1 9 -5.59 3.76
-1 9 17 -5.42 3.14
-17 -9 1 1.88 2.24
9 -1 -17 -0.98 2.3
-9 -1 17 1.68 3.16
1 9 -17 1.78 3.28
-1 -17 9 1.71 2.43
-9 -1 17 2.74 2.07
-17 1 9 2.32 3.11
-1 -9 -17 -0.72 2.74
9 1 17 0 2.94
-1 9 17 -0.74 2.53
-9 -17 -1 1.75 2.41
1 -9 17 2.11 2.57
9 17 -1 2.75 2.83
17 9 1 -0.58 2.38
1 17 9 -0.5 3.69
-1 -17 -9 8.47 4.58
-17 -9 -1 6.26 2.45
1 -17 9 3.88 2.64
1 9 17 5.49 3.23
1 9 17 0.57 2.8
-1 -9 17 2.33 2.28
-1 9 -17 4.99 3.98
-9 1 17 1.29 1.89
-17 -1 9 -1.16 5.15
9 1 -17 2.65 2.59
-9 -17 1 -2.22 2.16
9 17 1 4.15 3.22
17 9 -1 1.92 2.89
1 -9 -17 7.49 2.72
17 1 9 7.17 3.57
3 -9 17 1.24 2.69
9 17 -3 1.66 2.85
-3 -9 -17 -0.08 3.06
-9 -3 17 1.38 2.91
-17 3 9 1.18 3
-3 -17 9 -3.86 2.3
17 9 3 0.56 2.86
-17 -9 3 4.26 2.39
-9 -17 -3 -0.39 2.37
17 -3 9 5.81 4.14
-3 9 17 3 3.68
-9 -3 17 1.89 2.32
3 9 -17 1.21 3.39
-3 9 17 -1.01 2.43
9 3 17 0.04 3.03
9 -3 -17 0.83 2.4
3 -9 -17 -1.71 2.37
-9 -17 3 -3.11 2.18
-9 3 17 -1.72 2.09
9 3 -17 -0.37 2.63
3 9 17 -0.94 3.1
-3 -17 -9 1.45 4.2
17 3 9 -1.81 3.34
-17 -3 9 -5.14 3.18
17 9 -3 4.55 3.4
-17 -9 -3 -0.92 2.47
9 17 3 0.39 2.75
3 9 17 2.31 2.89
-3 9 -17 0.06 4.05
-3 -9 17 -1.64 2.27
3 -17 9 -0.96 2.97
5 17 9 10.11 3.62
9 -5 -17 8.69 2.61
-5 -17 9 10.62 2.58
9 5 17 4.62 3.59
17 9 5 6.74 2.68
5 -9 17 6.87 2.96
5 9 -17 13.33 3.5
-9 -5 17 7.47 2.63
17 -5 9 7.53 5.74
-5 9 17 9.8 2.65
-9 -17 -5 10 2.89
-5 -9 -17 6.85 4.02
-17 -9 5 8.26 2.48
9 17 -5 8.15 3
-9 -5 17 8.21 3.09
-17 -5 -9 9.2 2.89
9 5 -17 10.38 3.47
-9 -17 5 5.82 2.39
5 9 17 6.21 3.58
17 9 -5 8.4 3.75
5 -9 -17 11 2.68
17 5 9 8.35 3.34
-5 -9 17 11.13 2.9
9 17 5 5.75 2.89
5 -17 9 8.19 3.83
-17 -5 9 10.36 2.9
-9 5 17 10.88 2.63
-17 -9 -5 13.48 2.94
-5 -9 17 13 3.15
-5 -17 -9 13.49 3.88
-5 9 -17 22.97 4.92
17 9 7 1.52 2.87
-17 -7 -9 3.42 2.64
-9 -17 -7 5.42 3.16
-17 -9 7 1.93 2.51
-9 -7 17 2.6 2.83
-9 -7 17 0.94 2.54
9 17 -7 7.59 3.06
7 17 9 3.64 3.45
9 -7 -17 2.14 2.58
-17 7 9 0.06 3.44
7 9 -17 3.8 3.39
9 7 17 4.25 3.68
-7 9 17 1.56 2.37
7 -9 17 0.76 3.93
-7 -17 9 2.33 2.2
-7 -9 17 -0.72 2.52
-7 -9 17 4.55 2.71
7 -9 -17 6.71 2.59
-17 -7 9 2.24 2.55
17 7 9 7.53 3.69
17 9 -7 3.97 3.55
7 9 17 2.44 3.55
9 7 -17 4.03 3.34
9 17 7 2.52 3.15
17 -7 -9 14.73 4.8
-7 -17 -9 0.19 3.4
-17 -9 -7 4.54 2.47
-7 9 -17 11.4 5.49
-9 -17 7 0.15 2.27
-9 7 17 4.29 2.38
-11 -1 17 0.87 3.65
17 11 1 -0.41 2.7
17 -1 11 3.86 4.13
-17 -11 1 -2.42 2.15
-11 -1 17 0.2 2.27
-1 -11 -17 2.92 2.93
11 17 -1 1.79 3.12
11 -1 -17 2.88 2.69
1 11 -17 2.74 3.62
-1 11 17 3.06 3.62
1 -11 17 3.57 2.72
-1 -17 11 0.96 2.57
-11 -17 -1 -0.29 2.25
-1 11 17 0.29 2.56
11 1 17 -1.88 3.31
-17 1 11 6.71 3.53
-11 1 17 1 2.09
11 -1 17 4.69 2.88
-17 -1 11 8.38 3.33
17 1 11 3.89 4.05
-11 1 17 -6.77 4.11
17 -1 -11 -4.23 5.09
1 11 17 1.14 2.93
1 -11 -17 1.92 2.76
1 11 17 4.94 3.54
-1 11 -17 -1.21 3.65
1 -17 11 7.42 2.9
11 1 -17 -1.17 2.53
-17 -11 -1 1.79 2.26
17 11 -1 7.12 3.71
-11 -17 1 1.41 2.34
11 17 1 0.55 3.21
-1 -11 17 2.94 2.74
-17 -11 3 0.74 2.35
-3 11 17 1.7 2.56
3 11 -17 -0.4 3.47
3 17 11 0.04 4.4
-3 -11 -17 4.25 3.18
-3 -17 11 -1.65 2.29
-11 -17 -3 -0.62 2.19
-11 -3 17 -0.84 2.33
11 3 17 -0.06 3.4
11 -3 -17 0.49 2.59
17 11 3 4.81 3.49
11 17 -3 2.92 3.16
-17 3 11 0.05 3.31
17 -3 11 -2.76 3.54
3 -11 17 -0.83 2.97
-11 -3 17 2.09 3.29
-3 -11 17 1.15 2.71
-17 -3 11 -1.68 3.82
-3 11 -17 1.62 4.07
3 11 17 0.28 3.32
17 -3 -11 4.06 4.77
3 -17 11 -4.76 3.07
-3 -11 17 0.42 2.42
-11 3 17 -0.49 2.32
-17 -3 11 -1.09 3.51
3 -11 -17 3.99 2.63
-11 -17 3 2.24 2.25
-17 -11 -3 0.27 2.17
11 3 -17 4.03 2.94
11 -3 17 -1.34 2.91
3 11 17 -0.35 3.27
11 17 3 1.47 2.35
17 11 -3 0.47 3.46
17 3 11 -5.85 3.68
0 0 18 18.81 3.58
0 18 0 24.84 4.12
18 0 0 42.32 5.4
0 -18 0 33.12 4.29
0 0 -18 33.05 4.86
18 0 2 2.96 3.61
2 0 18 7.07 2.24
0 -2 -18 1.97 2.6
2 18 0 5.03 2.81
-2 0 18 5.18 2.09
-2 0 -18 -3.59 3.03
0 18 2 4.24 3.13
2 0 -18 4.42 2.59
-2 -18 0 7.42 3.15
0 2 -18 7.51 2.97
-18 -2 0 6.84 2.97
0 -18 2 13.25 3.21
18 2 0 2.74 3.11
2 -18 2 3.92 4.18
-2 -2 18 4.08 2.13
-2 2 18 6.52 1.96
2 18 -2 2.35 2.66
-18 -2 -2 -2.35 2.85
18 2 -2 2.64 4.11
18 2 2 -1.6 3.15
2 -2 -18 1.22 2.52
-2 -18 2 2.1 2.72
-2 -2 -18 0.99 3
-2 -18 -2 -5.67 3.03
-2 2 -18 2.69 3.13
2 2 18 2.35 2.1
2 2 -18 1.68 2.57
2 -2 18 5.26 2.34
2 18 2 -5.72 3.01
-4 0 -18 5.64 3.92
4 0 -18 3.68 2.46
18 4 0 7 2.94
0 18 4 9.2 4.42
-18 -4 0 7.12 2.7
0 4 18 5.28 2.42
4 18 0 10.04 3.12
0 -4 18 9.43 2.3
0 -4 -18 7.15 2.9
18 0 4 4.56 3.38
0 4 -18 5.2 3.45
-18 0 -4 12.27 3.39
0 -18 4 5.97 2.91
-4 0 18 2.25 2.06
4 0 18 7.8 2.79
-4 -18 0 4.68 2.85
4 2 18 2.79 3.02
-18 -4 2 7.59 2.62
-18 -2 -4 2.47 3.05
-4 2 -18 -1.26 4.35
-2 4 18 5.92 2.36
-4 -18 -2 3.21 2.86
-2 -4 -18 9.48 3.34
18 -2 4 6.54 3.66
-4 -2 18 0.12 2.2
18 4 2 8.31 3.2
2 4 -18 4.68 2.99
-2 -18 4 6.71 2.76
2 18 4 11.83 3.35
4 -2 -18 5.41 2.57
2 -4 18 3.76 2.45
18 2 -4 6.64 4.23
-2 -4 18 7.52 2.52
-4 -18 2 3.87 2.63
18 4 -2 8.99 3.78
-4 -2 -18 10.09 3.73
18 2 4 5.17 3.04
4 18 2 12.06 3.15
-2 4 -18 10.33 3.91
-18 -4 -2 4.89 2.66
4 2 -18 6.95 2.63
2 18 -4 8.83 2.58
-4 2 18 3.02 1.92
4 -2 18 6.92 2.71
2 -18 4 15.62 3.75
-2 -18 -4 10.74 3.64
2 -4 -18 3.48 2.57
4 18 -4 11.67 2.86
4 18 4 7.65 2.76
4 4 18 15.52 3.49
4 4 -18 11.52 2.73
4 -4 -18 14.1 2.58
4 4 18 10.18 3.35
-18 -4 4 7.66 2.93
-4 4 18 10.73 2.52
-4 -18 4 10.94 2.56
-18 -4 -4 7.04 2.82
18 4 -4 5.69 4.07
-4 -4 18 10.62 2.48
-4 -18 -4 8.91 3.08
-4 4 -18 16.48 4.54
-4 -4 -18 11.99 3.71
0 6 -18 4.5 3.36
6 18 0 2.86 2.92
0 -6 -18 0.89 2.7
18 0 6 4.12 3.73
-6 -18 0 3.23 2.73
-6 0 18 3.3 2.07
0 6 18 10.32 3.06
0 6 18 3.24 2.53
18 6 0 6.83 3.09
6 0 -18 6.28 2.49
-6 0 -18 6.42 6.8
0 -18 6 1.98 2.7
0 -6 18 1.81 2.38
6 0 18 2.36 3.1
-18 -6 0 4.96 2.52
6 2 18 12.16 3.67
6 18 -2 6.6 2.95
-6 -18 -2 8.65 2.8
-2 -6 -18 8.08 3.03
2 18 6 6.96 3.19
-18 -6 2 6.52 2.4
-6 2 -18 14.73 5.54
2 6 -18 6.31 3.32
-6 -2 18 7.04 2.42
-2 -18 6 9.23 2.63
-2 6 18 5.89 2.7
2 -6 18 8.14 2.82
18 -2 6 3.11 4.12
6 -2 -18 8.94 2.66
-18 -2 -6 4.08 3.14
18 2 -6 9.45 4.12
18 6 2 -0.22 3.24
-6 2 18 3.59 2.08
-2 6 -18 3.61 3.62
2 6 18 9.26 2.94
6 18 2 6.2 3.21
18 6 -2 14.25 3.67
-18 -6 -2 7.78 2.76
2 -18 6 6.68 3.25
2 -6 -18 10.27 2.8
6 -2 18 4.95 3.34
-6 -18 2 6.01 2.53
-2 -18 -6 2.65 3.96
-2 -6 18 7.16 2.76
6 2 -18 8.57 2.67
2 6 18 3.43 2.94
-18 -2 6 14.33 3.88
-4 6 18 23.2 3.77
4 -6 18 26.48 4.44
18 6 4 25.2 4.99
4 6 -18 28.64 5.32
-4 -18 6 14.16 2.9
-6 -18 -4 18.5 3.54
6 -4 -18 24 4.13
-18 -4 -6 24.26 5.02
6 4 18 22.04 4.33
-4 -6 -18 32.78 5.78
-6 4 -18 25.57 5.69
18 4 -6 29.25 5.31
4 18 6 26.59 4.41
-18 -6 4 21.69 4.32
-6 -4 18 18.93 3.68
6 18 -4 20.99 4.11
6 4 18 21.06 4.43
6 -4 18 9.09 3.79
4 6 18 22.78 4.03
-4 -18 -6 17.46 3.98
-6 -18 4 18.67 3.94
-4 -6 18 20.97 3.78
-18 -4 6 25.63 4.93
18 4 6 22.51 4.8
-4 6 -18 21.73 4.79
-18 -6 -4 21.78 4.41
6 4 -18 25.08 4.47
6 18 4 18.47 3.99
4 6 18 22.35 3.74
18 6 -4 32.9 5.08
-6 4 18 18.14 3.6
4 -6 -18 19.78 4.12
-6 -6 18 30.46 4.1
-18 -6 6 35.3 4.91
-6 -18 -6 33.92 5.52
-6 6 -18 34.37 6.06
18 6 -6 26.47 4.47
18 6 6 31.78 4.86
-6 -18 6 27.31 4.07
-6 6 18 29.92 3.94
6 6 18 27.09 4.91
6 -6 -18 32.6 4.29
6 -6 18 37.62 5.44
6 18 6 28.33 4.42
-18 -6 -6 28.4 4.93
6 18 -6 23.7 4.18
6 6 -18 26.32 5.42
8 18 0 0.97 3.11
8 0 -18 5.19 2.53
18 8 0 1.54 2.76
0 8 18 2.31 2.7
-8 0 18 5.87 2.3
0 -18 8 6.54 2.94
-8 -18 0 -0.06 2.52
0 -8 18 4.13 2.69
0 8 -18 -6.66 3.41
-18 -8 0 -1.3 2.29
18 0 8 3.89 3.91
0 -8 -18 3.65 2.88
0 8 18 2.33 3.58
8 2 18 4.99 3.3
2 18 8 -0.16 3.47
-2 -8 -18 -1.45 2.92
-8 -18 -2 1.18 2.5
-2 -18 8 -2.41 2.57
2 8 -18 0.44 3.35
-8 -2 18 1.65 2.23
-18 -8 2 0.69 2.42
18 8 2 2.38 2.97
8 18 -2 -0.16 2.9
2 -8 18 1.75 2.69
8 -2 -18 0.05 2.37
-2 8 18 8.34 3.61
-2 8 18 2 2.37
2 8 18 -1.52 3.22
-8 -18 2 0.59 2.27
2 -18 8 -1.21 3.16
-8 2 18 -1.94 1.84
-18 -8 -2 -1.57 2.67
-2 -18 -8 1.63 4.83
-2 -8 18 0.59 2.8
8 18 2 -2.07 3.15
18 2 8 -2.61 3.43
8 2 -18 -1.36 2.47
2 8 18 -2.21 2.94
2 -8 -18 -0.6 2.54
18 8 -2 -0.07 3.43
-2 8 -18 -4.01 4.17
4 18 8 8.09 3.58
8 18 -4 2.83 2.94
-8 -4 18 5.59 3.27
8 4 18 -0.15 3.6
-4 -18 8 16.56 3.73
-8 -4 18 5.35 2.63
4 8 -18 7.04 3.2
8 -4 -18 7.77 2.69
-4 8 18 10.55 2.92
4 -8 18 5.18 3.11
-18 -4 -8 8.19 3.2
-4 -8 -18 11.99 3.48
-8 -18 -4 9.08 2.82
18 8 4 2.85 3.6
-18 -8 4 7.07 2.73
-4 -8 18 4.77 2.46
18 8 -4 4.25 3.88
4 8 18 5.42 3.51
-4 8 -18 3.61 4.44
-18 -8 -4 9.48 2.86
4 -18 8 6.48 3.99
4 8 18 5.38 3.7
-18 -4 8 2.94 3.18
-4 -18 -8 9.44 4.46
-8 -18 4 4.43 2.33
18 4 8 -1.12 3.53
4 -8 -18 2.66 2.57
-8 4 18 8.28 2.41
8 4 -18 -1.34 2.81
8 18 4 8.38 2.74
-1 -19 1 13.59 3.83
19 1 -1 17.81 5.92
19 1 1 14.6 4.05
1 -1 -19 17.84 3.16
1 1 -19 23.62 4.51
1 19 -1 18.37 3.57
1 19 1 23.83 4.73
-1 -1 -19 18.3 3.31
-1 1 -19 15.66 3.49
-1 -1 19 21.3 3.68
-1 -19 -1 14.24 4.14
-19 -1 -1 18.8 4.18
-19 -1 1 22.55 6.16
1 -1 19 21.94 3.92
1 1 19 27.75 4.02
-1 1 19 18.16 3.77
1 -3 19 -1.42 2.42
3 19 -1 6.9 3.1
3 -1 -19 1.6 2.62
-3 -19 -1 -3.31 3.28
-3 1 -19 -1.31 3.4
-19 -1 -3 -0.62 3.67
-1 -19 3 -4.23 3
-1 3 19 -0.55 2.45
3 1 19 -0.07 2.47
-19 -3 1 -0.32 3.2
1 3 -19 1.86 3
-3 -1 19 -0.8 2.14
19 3 1 5.54 3.38
-1 -3 -19 -0.69 2.77
1 19 3 -3.53 3.82
-3 -19 1 -2.66 3.01
-1 -19 -3 3.16 3.99
3 1 -19 1.72 2.6
19 1 3 0.23 3.99
-19 -3 -1 4.48 3.05
19 3 -1 1.9 4.4
3 -1 19 -2 2.6
-3 -1 -19 2.15 3.4
1 -3 -19 0.84 2.67
3 19 1 -5.09 3.38
-1 3 -19 1.84 3.45
1 -19 3 0.67 3.85
-3 1 19 -1.29 2.1
1 3 19 1.25 2.63
-1 -3 19 2.03 2.43
-3 -19 -3 -1.26 3.42
-19 -3 -3 -4.87 3.02
3 3 19 -1.8 3.08
-3 -3 19 1.08 2.4
-3 3 -19 -1.78 3.99
-3 3 19 2.73 2.46
3 -3 19 -1.36 3.01
19 3 3 0.69 3.67
3 19 -3 -1.79 2.73
-19 -3 3 -0.99 3.16
3 3 -19 -1.67 2.58
3 -3 -19 -0.57 2.52
-3 -19 3 2.38 2.88
19 3 -3 -2.74 4.5
-3 -3 -19 -2.1 3.29
-5 -19 -1 1.63 3.09
19 5 1 -1.62 3.18
5 19 -1 -2.39 3
5 -1 -19 2.72 2.52
5 1 19 7.73 3.69
-1 -5 -19 1.24 2.94
-5 1 -19 4.69 5.02
1 -5 19 0.77 2.79
19 -1 5 -0.21 4.07
-1 -19 5 1 3.1
-19 -5 1 3.64 2.77
1 5 -19 2.03 3.39
-5 -1 19 0.34 2.27
-1 5 19 5.21 2.78
1 19 5 16.62 7.06
-1 5 -19 0.04 3.54
-5 -1 -19 7.06 4.28
5 -1 19 4.27 3.11
-1 -19 -5 -0.73 5.18
19 1 5 -4.78 3.59
-5 -19 1 4.4 2.9
-1 -5 19 2.75 2.73
1 -19 5 5.52 3.66
1 5 19 0.04 2.88
-19 -5 -1 0.25 2.76
19 5 -1 2.05 4.56
5 19 1 0.75 3.4
1 -5 -19 1.13 2.73
-5 1 19 2.21 2.05
5 1 -19 0.12 2.39
-3 -19 5 4.22 2.81
-19 -5 3 3.19 2.76
5 -3 -19 2.25 2.49
-3 5 19 7.02 2.64
3 -5 19 -1.39 2.94
-3 -5 -19 8.09 3.6
-5 3 -19 0.11 4.78
3 5 -19 9.24 3.27
5 3 19 10.57 3.75
-5 -19 -3 8.37 3.52
5 3 19 8.37 3.95
19 5 3 1.83 3.76
3 19 5 15.3 4.09
-5 -3 19 1.7 2.64
-19 -3 -5 2.85 3.39
5 19 -3 4.65 3.29
19 3 -5 7.57 4.73
5 -3 19 0.13 3.21
-19 -3 5 3.58 3.37
5 19 3 -1.06 3.58
-3 5 -19 8.07 4.04
-3 -5 19 4 2.49
3 -5 -19 7.06 2.74
19 3 5 3.45 3.43
-3 -19 -5 -1.25 4.11
5 3 -19 7.93 2.82
-5 -19 3 -0.12 2.72
19 5 -3 0.12 4.33
-5 3 19 4.92 2.54
-5 -3 -19 1.63 4.02
-19 -5 -3 1.39 2.92
3 5 19 0.33 3.25
3 5 19 1.99 3.21
-19 -5 -5 16.31 3.66
5 19 -5 8.72 3.02
5 5 -19 9.86 3.37
-5 -5 -19 2.27 4.2
5 5 19 6.87 4.26
5 5 19 4.17 4.19
5 -5 -19 7.72 2.7
-5 -19 5 5.53 2.55
19 5 5 7.19 3.55
-5 -5 19 5.33 2.68
-19 -5 5 9.07 3.28
5 -5 19 7.16 3.47
-5 5 -19 7.84 5.02
19 5 -5 -0.09 4.4
-5 -19 -5 3.76 3.92
5 19 5 4.74 3.08
1 7 -19 -2.02 3.15
-7 -1 19 3.28 2.36
19 -1 7 6.34 4.67
-1 7 19 -1.9 2.7
-1 -19 7 -0.56 2.82
19 7 1 2.62 3.41
-7 -19 -1 6.9 2.97
7 -1 -19 2.69 2.56
-1 7 19 2.32 3.24
7 19 -1 0.67 3.43
1 -7 19 -3.7 2.77
-19 -7 1 1.68 2.55
-1 -7 -19 1.97 2.96
1 7 19 1.75 3.46
-1 -7 19 -1.45 2.64
7 19 1 2.96 3.46
1 -7 -19 2.1 2.66
7 1 -19 -1.08 2.52
-7 -19 1 6.01 2.79
-1 7 -19 2.25 3.71
-7 1 19 0.32 2.2
1 7 19 2.13 3.33
7 -1 19 -4.82 3.96
19 7 -1 0.27 4.26
1 -19 7 1.6 3.25
19 1 7 -5.15 4.11
-19 -7 -1 5.4 2.76
-19 -7 3 0.51 2.62
-3 -7 -19 1.19 3.37
-19 -3 -7 4.25 3.44
7 3 19 -2.82 3.17
-7 -3 19 0.26 2.6
19 7 3 -6.95 3.55
-3 7 19 -0.88 2.57
3 -7 19 1.04 3.22
3 19 7 -3.42 3.67
-3 7 19 -1.69 3.56
3 7 -19 -0.82 3.15
7 19 -3 -1.73 2.98
-7 -19 -3 -2.41 2.88
7 -3 -19 2.14 2.51
-3 -19 7 1.29 2.54
19 3 7 4.73 4.15
3 7 19 -3.63 3.55
7 -3 19 7.46 4.31
-3 -19 -7 7.15 5.15
3 -19 7 10.63 4.14
7 19 3 2.23 3.5
3 7 19 -4.3 3.67
-7 3 19 0.85 2.48
19 7 -3 -2.25 4.24
-3 -7 19 2.66 2.71
3 -7 -19 0.42 2.51
-3 7 -19 4.28 4.38
-7 -19 3 -1.41 2.65
-19 -7 -3 -1.28 2.56
7 3 -19 0.62 2.74
0 0 20 33.92 4.73
2 0 -20 16.28 2.99
-2 0 20 18.51 3.01
-20 -2 0 22.14 4.37
0 -2 -20 15.08 3.23
0 2 -20 19.29 3.36
-2 0 -20 15.46 3.73
20 2 0 7.18 6.89
2 20 0 12.47 4.06
2 0 20 12.95 3.06
-2 -20 0 12.62 4.44
0 -20 2 11.08 4.66
0 2 20 11.14 2.7
0 -2 20 10.93 2.96
2 20 2 13.21 4.24
-20 -2 -2 9.37 4.09
2 2 20 10.26 3.43
-2 2 -20 11.66 4.01
2 20 -2 6.97 3.61
-2 2 20 7.59 2.62
-2 -20 -2 5.15 4.33
-2 -20 2 11.26 3.73
-2 -2 20 9.01 2.76
2 -2 -20 7.59 3
2 2 -20 9.37 2.93
2 -2 20 6.27 3.07
-2 -2 -20 9.62 3.36
4 0 20 1.66 3.08
-20 -4 0 3.14 3.48
0 -4 20 -2.11 2.75
4 0 -20 2.55 2.57
0 4 20 2.39 2.95
-4 0 20 -0.63 2.39
20 4 0 1.84 3.82
-4 0 -20 -0.25 4.16
-4 -20 0 3.4 3.54
0 -20 4 3.77 4.13
0 4 -20 2 3.69
0 -4 -20 3.09 2.76
4 20 0 -0.49 3.66
20 4 2 -1.69 3.88
4 20 -2 3.87 3.53
2 20 4 2.94 4.96
-4 2 -20 -5.6 4.56
-2 -4 -20 -0.54 3.22
2 4 -20 2.39 3.47
4 -2 -20 -3.37 2.44
-2 4 -20 7.98 4.1
4 20 2 -2.2 3.98
20 4 -2 0.72 5.21
-4 -2 -20 -2.16 3.87
20 2 4 -6.83 4.59
2 -4 -20 0.76 2.79
4 2 -20 -0.78 2.61
loop_
_smtbx_masks_void_nr
_smtbx_masks_void_average_x
_smtbx_masks_void_average_y
_smtbx_masks_void_average_z
_smtbx_masks_void_volume
_smtbx_masks_void_count_electrons
1 -0.848 -0.486 -0.267 13344.6 2913.8
