#------------------------------------------------------------------------------
#$Date: 2019-11-26 03:52:07 +0200 (Tue, 26 Nov 2019) $
#$Revision: 242549 $
#$URL: file:///home/coder/svn-repositories/cod/cif/4/13/26/4132602.cif $
#------------------------------------------------------------------------------
#
# This file is available in the Crystallography Open Database (COD),
# http://www.crystallography.net/
#
# All data on this site have been placed in the public domain by the
# contributors.
#
data_4132602
loop_
_publ_author_name
'Collet, Guillaume'
'Lathion, Timoth\'ee'
'Besnard, C\'eline'
'Piguet, Claude'
'Petoud, St\'ephane'
_publ_section_title
;
 On-Demand Degradation of Metal-Organic Framework Based on Photocleavable
 Dianthracene-Based Ligand.
;
_journal_issue                   34
_journal_name_full               'Journal of the American Chemical Society'
_journal_page_first              10820
_journal_page_last               10828
_journal_paper_doi               10.1021/jacs.8b05047
_journal_volume                  140
_journal_year                    2018
_chemical_formula_moiety         '2(C15 H10 O2), 2(C4 H9 N O)'
_chemical_formula_sum            'C38 H38 N2 O6'
_chemical_formula_weight         618.70
_space_group_crystal_system      triclinic
_space_group_IT_number           2
_space_group_name_Hall           '-P 1'
_space_group_name_H-M_alt        'P -1'
_atom_sites_solution_hydrogens   mixed
_atom_sites_solution_primary     dual
_audit_creation_date             2017-07-04
_audit_creation_method
;
Olex2 1.2
(compiled 2017.03.28 svn.r3405 for OlexSys, GUI svn.r5337)
;
_audit_update_record
;
2018-04-09 deposited with the CCDC.
2018-05-09 downloaded from the CCDC.
;
_cell_angle_alpha                66.913(5)
_cell_angle_beta                 74.315(5)
_cell_angle_gamma                74.609(4)
_cell_formula_units_Z            2
_cell_length_a                   9.2901(5)
_cell_length_b                   13.6758(7)
_cell_length_c                   14.4243(8)
_cell_measurement_reflns_used    5207
_cell_measurement_temperature    180.00(10)
_cell_measurement_theta_max      73.5480
_cell_measurement_theta_min      3.3690
_cell_volume                     1596.55(16)
_computing_cell_refinement       'CrysAlisPro 1.171.38.46 (Rigaku OD, 2015)'
_computing_data_collection       'CrysAlisPro 1.171.38.46 (Rigaku OD, 2015)'
_computing_data_reduction        'CrysAlisPro 1.171.38.46 (Rigaku OD, 2015)'
_computing_molecular_graphics    'Olex2 (Dolomanov et al., 2009)'
_computing_publication_material  'Olex2 (Dolomanov et al., 2009)'
_computing_structure_refinement  'ShelXL (Sheldrick, 2015)'
_computing_structure_solution    'ShelXT (Sheldrick, 2015)'
_diffrn_ambient_environment      N~2~
_diffrn_ambient_temperature      180.00(10)
_diffrn_detector                 'CCD plate'
_diffrn_detector_area_resol_mean 10.4679
_diffrn_detector_type            Atlas
_diffrn_measured_fraction_theta_full 0.998
_diffrn_measured_fraction_theta_max 0.966
_diffrn_measurement_details
;
List of Runs (angles in degrees, time in seconds):

  # Type    Start    End  Width  t~exp~   \w     \q     \k     \f   Frames
#--------------------------------------------------------------------------
  1  \w     46.00 148.00   1.00    2.00    --  110.40 -30.00 150.00  102
  2  \w     54.00 103.00   1.00    2.00    --  110.40 -94.00 -30.00   49
  3  \w     83.00 113.00   1.00    2.00    --  110.40-111.00 -90.00   30
  4  \w     37.00 143.00   1.00    2.00    --  110.40 -30.00  30.00  106
  5  \w     80.00 171.00   1.00    2.00    --  110.40  45.00-150.00   91
  6  \w     93.00 124.00   1.00    2.00    --  110.40 178.00-150.00   31
  7  \w    121.00 150.00   1.00    2.00    --  110.40 178.00-120.00   29
  8  \w     60.00  87.00   1.00    2.00    --  110.40 178.00-120.00   27
  9  \w    128.00 169.00   1.00    2.00    --  110.40 111.00  60.00   41
 10  \w    132.00 158.00   1.00    2.00    --  110.40 111.00 120.00   26
 11  \w    101.00 169.00   1.00    2.00    --  110.40 111.00 150.00   68
 12  \w     29.00  80.00   1.00    2.00    --  110.40 -30.00 -90.00   51
 13  \w      1.00  61.00   1.00    1.00    --   39.06 -99.00   0.00   60
 14  \w     38.00  92.00   1.00    1.00    --   39.06-125.00 120.00   54
 15  \w     36.00 111.00   1.00    2.00    --  110.40-111.00  90.00   75
 16  \w     30.00 131.00   1.00    2.00    --  110.40 -77.00 150.00  101
 17  \w   -101.00  -8.00   1.00    1.00    --  -39.06 -57.00 120.00   93
 18  \w   -112.00 -86.00   1.00    1.00    --  -39.06 -99.00 150.00   26
 19  \w   -118.00 -75.00   1.00    1.00    --  -39.06-125.00 -60.00   43
 20  \w   -121.00 -12.00   1.00    1.00    --  -39.06 -77.00-120.00  109
 21  \w   -117.00 -82.00   1.00    1.00    --  -39.06 -99.00-150.00   35
;
_diffrn_measurement_device       'four-circle diffractometer'
_diffrn_measurement_device_type  'SuperNova, Dual, Cu at zero, Atlas'
_diffrn_measurement_method       '\w scans'
_diffrn_orient_matrix_type
'CrysAlisPro convention (1999,Acta A55,543-557)'
_diffrn_orient_matrix_UB_11      0.0861106000
_diffrn_orient_matrix_UB_12      0.0274467000
_diffrn_orient_matrix_UB_13      0.0615362000
_diffrn_orient_matrix_UB_21      -0.1354949000
_diffrn_orient_matrix_UB_22      0.0890086000
_diffrn_orient_matrix_UB_23      0.0163692000
_diffrn_orient_matrix_UB_31      -0.0699053000
_diffrn_orient_matrix_UB_32      -0.0825927000
_diffrn_orient_matrix_UB_33      0.0995784000
_diffrn_radiation_monochromator  mirror
_diffrn_radiation_probe          x-ray
_diffrn_radiation_type           CuK\a
_diffrn_radiation_wavelength     1.54184
_diffrn_reflns_av_R_equivalents  0.0259
_diffrn_reflns_av_unetI/netI     0.0372
_diffrn_reflns_Laue_measured_fraction_full 0.998
_diffrn_reflns_Laue_measured_fraction_max 0.966
_diffrn_reflns_limit_h_max       11
_diffrn_reflns_limit_h_min       -11
_diffrn_reflns_limit_k_max       16
_diffrn_reflns_limit_k_min       -16
_diffrn_reflns_limit_l_max       17
_diffrn_reflns_limit_l_min       -14
_diffrn_reflns_number            10783
_diffrn_reflns_point_group_measured_fraction_full 0.998
_diffrn_reflns_point_group_measured_fraction_max 0.966
_diffrn_reflns_theta_full        67.684
_diffrn_reflns_theta_max         73.784
_diffrn_reflns_theta_min         3.391
_diffrn_source                   'micro-focus sealed X-ray tube'
_diffrn_source_type              'SuperNova (Cu) X-ray Source'
_exptl_absorpt_coefficient_mu    0.703
_exptl_absorpt_correction_T_max  1.000
_exptl_absorpt_correction_T_min  0.802
_exptl_absorpt_correction_type   gaussian
_exptl_absorpt_process_details
;
CrysAlisPro 1.171.38.46 (Rigaku Oxford Diffraction, 2015)
Numerical absorption correction based on gaussian integration over
			a multifaceted crystal model
Empirical absorption correction using spherical harmonics,
 implemented in SCALE3 ABSPACK scaling algorithm.
;
_exptl_crystal_colour            colourless
_exptl_crystal_colour_primary    colourless
_exptl_crystal_density_diffrn    1.287
_exptl_crystal_description       plate
_exptl_crystal_F_000             656
_exptl_crystal_size_max          0.174
_exptl_crystal_size_mid          0.162
_exptl_crystal_size_min          0.02
_refine_diff_density_max         0.516
_refine_diff_density_min         -0.291
_refine_diff_density_rms         0.051
_refine_ls_extinction_method     none
_refine_ls_goodness_of_fit_ref   1.017
_refine_ls_hydrogen_treatment    mixed
_refine_ls_matrix_type           full
_refine_ls_number_parameters     428
_refine_ls_number_reflns         6235
_refine_ls_number_restraints     2
_refine_ls_restrained_S_all      1.017
_refine_ls_R_factor_all          0.0548
_refine_ls_R_factor_gt           0.0418
_refine_ls_shift/su_max          0.000
_refine_ls_shift/su_mean         0.000
_refine_ls_structure_factor_coef Fsqd
_refine_ls_weighting_details
'w=1/[\s^2^(Fo^2^)+(0.0560P)^2^+0.3704P] where P=(Fo^2^+2Fc^2^)/3'
_refine_ls_weighting_scheme      calc
_refine_ls_wR_factor_gt          0.1030
_refine_ls_wR_factor_ref         0.1132
_reflns_Friedel_coverage         0.000
_reflns_number_gt                4970
_reflns_number_total             6235
_reflns_threshold_expression     'I > 2\s(I)'
_cod_data_source_file            ja8b05047_si_001.cif
_cod_data_source_block           ligand_dma
_cod_database_code               4132602
_shelx_shelxl_version_number     2017/1
_chemical_oxdiff_formula         'C38 H38 N2 O6'
_shelx_space_group_comment
;
The symmetry employed for this shelxl refinement is uniquely defined
by the following loop, which should always be used as a source of
symmetry information in preference to the above space-group names.
They are only intended as comments.
;
_reflns_odcompleteness_completeness 99.86
_reflns_odcompleteness_iscentric 1
_reflns_odcompleteness_theta     67.29
_olex2_refinement_description
;
1. Fixed Uiso
 At 1.2 times of:
  All C(H) groups
 At 1.5 times of:
  All C(H,H,H) groups, All O(H) groups
2. Restrained distances
 O1-H1
 0.85 with sigma of 0.02
 O18-H18
 0.85 with sigma of 0.02
3.a Ternary CH refined with riding coordinates:
 C11(H11), C28(H28)
3.b Aromatic/amide H refined with riding coordinates:
 C6(H6), C9(H9), C33(H33), C13(H13), C8(H8), C7(H7), C26(H26), C30(H30),
 C16(H16), C32(H32), C23(H23), C31(H31), C14(H14), C25(H25), C15(H15), C24(H24)
3.c Idealised Me refined as rotating group:
 C40(H40A,H40B,H40C), C36(H36A,H36B,H36C), C37(H37A,H37B,H37C), C43(H43A,H43B,
 H43C), C46(H46A,H46B,H46C), C45(H45A,H45B,H45C)
;
_shelx_res_file
;
TITL ligand_dma_a.res in P-1
    ligand_dma.res
    created by SHELXL-2017/1 at 15:33:20 on 04-Jul-2017
REM Old TITL ligand_DMA in P-1
REM SHELXT solution in P-1
REM R1 0.133, Rweak 0.005, Alpha 0.034, Orientation as input
REM Formula found by SHELXT: C43 N44 O6
CELL 1.54184 9.2901 13.6758 14.4243 66.913 74.315 74.609
ZERR 2 0.0005 0.0007 0.0008 0.005 0.005 0.004
LATT 1
SFAC C H N O
UNIT 76 76 4 12
DFIX 0.85 O1 H1
DFIX 0.85 O18 H18

L.S. 4
PLAN  7
TEMP -93
BOND $H
LIST 6
fmap 2
acta
OMIT 0 -3 1
REM <olex2.extras>
REM <HklSrc "%.\\ligand_DMA.hkl">
REM </olex2.extras>

WGHT    0.056000    0.370400
FVAR       6.70305
O1    4    0.293259    0.226262    1.007814    11.00000    0.02458    0.02135 =
         0.04000   -0.01087   -0.00203    0.00188
H1    2    0.385421    0.186381    0.998114    11.00000   -1.50000
O18   4    0.629241    0.258228    0.494050    11.00000    0.03623    0.02404 =
         0.03661   -0.01120   -0.01072   -0.00862
O42   4    0.551396    0.104829    0.998610    11.00000    0.03162    0.03359 =
         0.04207   -0.02143   -0.01161    0.00685
O39   4    0.724551    0.372484    0.562398    11.00000    0.03473    0.04084 =
         0.05539   -0.03171   -0.00330   -0.00814
O19   4    0.760280    0.109935    0.591433    11.00000    0.03818    0.03399 =
         0.04969   -0.01464   -0.02347   -0.00579
O2    4    0.402369    0.365389    0.900123    11.00000    0.02144    0.02991 =
         0.05176   -0.00986    0.00831   -0.00132
N35   3    0.681368    0.496112    0.637236    11.00000    0.03734    0.03608 =
         0.04110   -0.02223   -0.00141   -0.01125
C12   1   -0.134566    0.415405    0.994404    11.00000    0.01881    0.01922 =
         0.02052   -0.00373   -0.00308   -0.00402
C17   1    0.014954    0.377471    0.953959    11.00000    0.01795    0.01842 =
         0.02119   -0.00406   -0.00356   -0.00365
C5    1    0.098568    0.373903    1.104636    11.00000    0.01931    0.01673 =
         0.02124   -0.00398   -0.00265   -0.00424
C22   1    0.405224    0.124637    0.547081    11.00000    0.02051    0.01963 =
         0.01936   -0.00453   -0.00302   -0.00309
C10   1   -0.052072    0.411599    1.143348    11.00000    0.01919    0.01768 =
         0.02349   -0.00549   -0.00321   -0.00373
C27   1    0.304848    0.096978    0.508416    11.00000    0.02084    0.01846 =
         0.01935   -0.00306   -0.00407   -0.00263
C3    1    0.294104    0.330150    0.960120    11.00000    0.01868    0.02340 =
         0.02439   -0.00848   -0.00588   -0.00060
C11   1   -0.159001    0.474015    1.068624    11.00000    0.01589    0.02047 =
         0.02126   -0.00561   -0.00099   -0.00267
AFIX  13
H11   2   -0.265171    0.471912    1.108519    11.00000   -1.20000
AFIX   0

C34   1    0.602910    0.117937    0.394312    11.00000    0.02119    0.01741 =
         0.02064   -0.00598   -0.00370   -0.00238
C28   1    0.371604    0.037585    0.433204    11.00000    0.02036    0.02198 =
         0.02079   -0.00636   -0.00646   -0.00389
AFIX  13
H28   2    0.291063    0.047068    0.394790    11.00000   -1.20000
AFIX   0

C4    1    0.141763    0.400923    0.987702    11.00000    0.01560    0.01951 =
         0.02171   -0.00650   -0.00184   -0.00173
C29   1    0.499944    0.090697    0.357029    11.00000    0.02211    0.01775 =
         0.02112   -0.00573   -0.00406   -0.00180
C20   1    0.666694    0.152101    0.536986    11.00000    0.02216    0.02635 =
         0.02305   -0.01140   -0.00101   -0.00693
C6    1    0.199646    0.318597    1.171660    11.00000    0.02160    0.02188 =
         0.02707   -0.00534   -0.00571   -0.00270
AFIX  43
H6    2    0.302972    0.294790    1.145774    11.00000   -1.20000
AFIX   0
C9    1   -0.100082    0.390645    1.248256    11.00000    0.02409    0.02342 =
         0.02367   -0.00719   -0.00066   -0.00620
AFIX  43
H9    2   -0.202627    0.415881    1.274445    11.00000   -1.20000
AFIX   0

C33   1    0.725470    0.163027    0.326496    11.00000    0.02550    0.02370 =
         0.02631   -0.00836   -0.00178   -0.00720
AFIX  43
H33   2    0.797672    0.179127    0.351640    11.00000   -1.20000
AFIX   0

C13   1   -0.255652    0.397323    0.967872    11.00000    0.01850    0.02538 =
         0.02742   -0.00645   -0.00366   -0.00397
AFIX  43
H13   2   -0.356854    0.423188    0.995887    11.00000   -1.20000
AFIX   0

C21   1    0.575390    0.090422    0.510782    11.00000    0.01909    0.02002 =
         0.02034   -0.00700   -0.00363   -0.00397
N44   3    0.764926    0.018310    0.928163    11.00000    0.03241    0.03814 =
         0.06423   -0.02356   -0.00101   -0.00298
C8    1    0.000930    0.333058    1.314997    11.00000    0.03411    0.02719 =
         0.02137   -0.00529   -0.00473   -0.00860
AFIX  43
H8    2   -0.032535    0.317930    1.386734    11.00000   -1.20000
AFIX   0
C7    1    0.150499    0.297929    1.276251    11.00000    0.03187    0.02409 =
         0.02674   -0.00359   -0.01266   -0.00387
AFIX  43
H7    2    0.220222    0.259326    1.321578    11.00000   -1.20000
AFIX   0

C26   1    0.148638    0.125149    0.538732    11.00000    0.02128    0.02805 =
         0.02602   -0.00616   -0.00425   -0.00363
AFIX  43
H26   2    0.080867    0.105692    0.512743    11.00000   -1.20000
AFIX   0
C30   1    0.518863    0.112294    0.252139    11.00000    0.03215    0.02249 =
         0.02270   -0.00692   -0.00792   -0.00368
AFIX  43
H30   2    0.449028    0.094207    0.226664    11.00000   -1.20000
AFIX   0

C16   1    0.040011    0.323974    0.884815    11.00000    0.02279    0.02838 =
         0.02746   -0.01161   -0.00238   -0.00280
AFIX  43
H16   2    0.140989    0.299897    0.854983    11.00000   -1.20000
AFIX   0

C32   1    0.742696    0.184660    0.221799    11.00000    0.03289    0.02764 =
         0.02521   -0.00709    0.00454   -0.01009
AFIX  43
H32   2    0.825875    0.216431    0.175624    11.00000   -1.20000
AFIX   0
C23   1    0.346359    0.177988    0.617728    11.00000    0.02793    0.03137 =
         0.02582   -0.01345   -0.00304   -0.00478
AFIX  43
H23   2    0.413422    0.194683    0.646519    11.00000   -1.20000
AFIX   0
C31   1    0.639225    0.160099    0.184696    11.00000    0.04093    0.02848 =
         0.01834   -0.00635   -0.00206   -0.00724
AFIX  43
H31   2    0.650571    0.175952    0.113093    11.00000   -1.20000
AFIX   0

C38   1    0.633114    0.429823    0.610057    11.00000    0.03488    0.02701 =
         0.03122   -0.01055   -0.00702   -0.00666
C14   1   -0.230123    0.341738    0.900718    11.00000    0.02486    0.03495 =
         0.03327   -0.01218   -0.00821   -0.00846
AFIX  43
H14   2   -0.313265    0.328664    0.883474    11.00000   -1.20000
AFIX   0

C25   1    0.091112    0.181396    0.606575    11.00000    0.02231    0.03838 =
         0.03407   -0.01291    0.00171   -0.00117
AFIX  43
H25   2   -0.015543    0.202210    0.625564    11.00000   -1.20000
AFIX   0

C15   1   -0.082248    0.305586    0.859172    11.00000    0.03047    0.03590 =
         0.03346   -0.01821   -0.00677   -0.00518
AFIX  43
H15   2   -0.064009    0.267960    0.812832    11.00000   -1.20000
AFIX   0

C24   1    0.190300    0.206958    0.646389    11.00000    0.03198    0.04041 =
         0.03411   -0.02093    0.00250   -0.00255
AFIX  43
H24   2    0.151387    0.244565    0.693630    11.00000   -1.20000
AFIX   0

C41   1    0.635040    0.085882    0.920088    11.00000    0.03773    0.02861 =
         0.04934   -0.01480   -0.00830   -0.00528
C40   1    0.465842    0.426679    0.637021    11.00000    0.03358    0.03865 =
         0.04536   -0.01955   -0.00625   -0.00740
AFIX 137
H40A  2    0.446169    0.376997    0.609934    11.00000   -1.50000
H40B  2    0.408989    0.499254    0.606910    11.00000   -1.50000
H40C  2    0.433411    0.401738    0.711781    11.00000   -1.50000
AFIX   0
C36   1    0.581623    0.566315    0.692474    11.00000    0.04804    0.04222 =
         0.04620   -0.02778   -0.00480   -0.00652
AFIX 137
H36A  2    0.553948    0.638623    0.643321    11.00000   -1.50000
H36B  2    0.634728    0.571045    0.740339    11.00000   -1.50000
H36C  2    0.489430    0.536266    0.730734    11.00000   -1.50000
AFIX   0
C37   1    0.841313    0.506632    0.606771    11.00000    0.04218    0.05697 =
         0.06324   -0.03429    0.00317   -0.02300
AFIX 137
H37A  2    0.899808    0.450925    0.577623    11.00000   -1.50000
H37B  2    0.880006    0.497775    0.666945    11.00000   -1.50000
H37C  2    0.851461    0.578257    0.555299    11.00000   -1.50000
AFIX   0

C43   1    0.588045    0.138789    0.817836    11.00000    0.06416    0.04873 =
         0.03899   -0.01639   -0.00952    0.00695
AFIX 137
H43A  2    0.561759    0.084968    0.799163    11.00000   -1.50000
H43B  2    0.672068    0.169944    0.766058    11.00000   -1.50000
H43C  2    0.499488    0.196152    0.821229    11.00000   -1.50000
AFIX   0
C46   1    0.805636   -0.032538    1.030820    11.00000    0.04321    0.04253 =
         0.08284   -0.02235   -0.03298    0.00904
AFIX 137
H46A  2    0.833648    0.021193    1.048689    11.00000   -1.50000
H46B  2    0.891833   -0.092159    1.030524    11.00000   -1.50000
H46C  2    0.718478   -0.060436    1.081464    11.00000   -1.50000
AFIX   0
C45   1    0.867543   -0.013021    0.843914    11.00000    0.04047    0.05163 =
         0.07365   -0.02689    0.01587   -0.00375
AFIX 137
H45A  2    0.822201    0.021679    0.782200    11.00000   -1.50000
H45B  2    0.884444   -0.091691    0.862667    11.00000   -1.50000
H45C  2    0.964821    0.009934    0.830360    11.00000   -1.50000
AFIX   0

H18   2    0.669796    0.288635    0.522206    11.00000    0.07507
HKLF 4




REM  ligand_dma_a.res in P-1
REM R1 =  0.0418 for    4970 Fo > 4sig(Fo)  and  0.0548 for all    6235 data
REM    428 parameters refined using      2 restraints

END

WGHT      0.0560      0.3704

REM Highest difference peak  0.516,  deepest hole -0.291,  1-sigma level  0.051
Q1    1   0.6737  0.0411  0.9875  11.00000  0.05    0.52
Q2    1   0.7202  0.0716  0.8685  11.00000  0.05    0.31
Q3    1  -0.1023  0.4463  1.1081  11.00000  0.05    0.22
Q4    1   0.5984  0.0998  0.4511  11.00000  0.05    0.21
Q5    1   0.8022 -0.0769  0.8408  11.00000  0.05    0.18
Q6    1   0.4734  0.6023  0.6617  11.00000  0.05    0.18
Q7    1   0.1240  0.3894  1.0485  11.00000  0.05    0.18
;
_shelx_res_checksum              67479
_shelx_hkl_file
;
   0   0   1 3397.38 112.659  21
   0   0   1 3176.71 119.689  19
   0   0   2 436904. 1811.24  21
   0   0   2 457337. 1964.46  19
   0   0   3 57248.1 866.746  14
   0   0   4 18502.9 567.896  13
   0   0   4 16942.0 562.994  14
   0   0   5 36264.3 907.052  13
   0   0   5 33649.9 895.746  14
   0   0   6 21930.3 805.056  14
   0   0   6 24978.5 855.081  13
   0   0   7-32.2647 150.879  14
   0   0   7 128.403 170.915  13
   0   0   8 45104.9 1414.69  14
   0   0   8 50658.3 1453.73  13
   0   0   9-1.71955 132.370  14
   0   0   9 496.472 212.683  13
   0   0  10 7339.56 641.901  13
   0   0  10 7288.62 523.426   2
   0   0  10 7099.82 494.778   3
   0   0  10 7782.93 487.651  10
   0   0  10 6474.38 481.215  11
   0   0  11 4830.12 469.119   2
   0   0  11 5195.00 417.884  10
   0   0  11 5165.30 442.910   3
   0   0  11 5359.90 464.230  11
   0   0  12 2443.39 333.480  11
   0   0  12 1971.72 296.693  10
   0   0  12 1908.01 320.430   2
   0   0  13 1533.84 285.420   2
   0   0  13 1308.35 269.634  11
   0   0  14 1792.92 294.675   2
   0   0  14 2160.56 301.256  11
   0   0  15 98.2566 134.794  11
   0   0  15 130.696 139.651   2
   0  -1  15 1051.03 185.696   2
   0  -1  14 50.3332 167.975   2
   0  -1  14 160.790 144.164  11
   0  -1  13 1087.21 237.126   2
   0  -1  13 941.400 239.536  11
   0  -1  12 1115.97 265.798   2
   0  -1  12 1368.47 265.415  11
   0  -1  11 4370.39 446.812   2
   0  -1  11 4784.90 428.413  10
   0  -1  11 4857.66 442.629   3
   0  -1  11 4744.54 447.748  11
   0  -1  10 481.015 169.137  11
   0  -1  10 171.294 132.860  10
   0  -1  10 97.9885 176.161  13
   0  -1  10 570.507 195.016   3
   0  -1  10 512.850 237.739   2
   0  -1   9 10147.6 760.932  13
   0  -1   9 9756.26 743.357  14
   0  -1   8 1422.18 286.460  14
   0  -1   8 1578.47 301.163  13
   0  -1   7 6299.41 510.478  13
   0  -1   7 6059.37 503.567  14
   0  -1   6 933.441 229.400  13
   0  -1   6 835.418 228.939  14
   0  -1   5 243.326 153.828  13
   0  -1   5 300.991 150.289  14
   0  -1   4 83209.8 1307.72  14
   0   1  -4 84693.7 658.910  17
   0  -1   3 999999. 3947.84  14
   0  -1   2 24265.6 534.683  14
   0  -1   2 24930.5 515.299  13
   0  -1   1 96518.8 847.087  14
   0  -1   1 92699.3 742.728  13
   0  -1   0 751.309 61.6935  18
   0  -1   0 33.1040 17.4607  13
   0   1   1 143792. 839.840  20
   0   1   1 146610. 562.184  13
   0   1   2 26130.0 370.090  21
   0   1   2 26529.3 462.576  20
   0   1   2 26823.4 459.789  19
   0   1   2 27451.0 409.045  13
   0   1   3 181460. 1353.66  13
   0   1   3 184638. 1486.19  19
   0   1   4 28219.4 716.548  20
   0   1   4 25768.0 575.126  21
   0   1   4 27072.1 686.551  19
   0   1   4 26337.6 631.831  13
   0   1   5 82852.5 1293.09  13
   0   1   5 78478.1 1325.93  19
   0   1   6 13683.1 603.575  13
   0   1   6 12498.3 600.113  14
   0   1   7 7954.27 547.122  14
   0   1   7 8687.29 538.453  13
   0   1   8 7329.53 563.220  14
   0   1   8 8692.69 595.256  13
   0   1   9 3926.32 465.864  14
   0   1   9 3839.74 434.784  13
   0   1  10 367.962 143.316  13
   0   1  11 11973.8 678.828   2
   0   1  11 12549.0 677.963  15
   0   1  11 12485.7 690.131  11
   0   1  11 12381.7 630.615  10
   0   1  12 8984.66 609.038  11
   0   1  12 9006.53 604.779   2
   0   1  12 8028.82 523.860  10
   0   1  13 611.033 251.240  11
   0   1  13 416.680 200.326   2
   0   1  14 366.737 166.319  11
   0   1  14 171.451 153.305   2
   0   1  15 976.510 210.972   2
   0   1  15 837.778 200.678  11
   0  -2  15-104.988 109.178   2
   0  -2  14 3337.43 324.201   2
   0  -2  13 294.756 163.122  11
   0  -2  13 436.199 201.399   2
   0  -2  12 15268.6 745.160   3
   0  -2  12 15831.6 801.768   2
   0  -2  12 14186.4 703.500  11
   0  -2  11 469.926 201.255  10
   0  -2  11 185.167 171.551  11
   0  -2  11 242.481 202.296   2
   0  -2  11 163.607 182.881   3
   0  -2  10 8592.89 551.290  10
   0  -2  10 9660.17 582.441  11
   0  -2  10 9726.40 639.800   2
   0  -2  10 9681.45 604.234   3
   0  -2   9-159.102 154.251  11
   0  -2   9 55.7996 128.251  10
   0  -2   9-294.065 147.889   3
   0  -2   9-87.7451 123.786   9
   0  -2   9 171.312 139.175   2
   0  -2   9-5.69877 164.322  14
   0  -2   9 233.451 182.136  13
   0  -2   8-155.999 148.864  13
   0  -2   8 167.489 102.525  14
   0  -2   7 8750.50 630.859  14
   0  -2   7 10178.5 671.945  13
   0  -2   6 3415.41 369.524  14
   0  -2   6 3170.19 359.284  13
   0  -2   5 1788.22 265.376  14
   0  -2   5 2437.80 301.175  13
   0  -2   4 7921.89 457.569  14
   0  -2   4 7348.15 426.429  13
   0  -2   3 89692.8 1327.94  14
   0  -2   3 91789.2 1255.70  13
   0  -2   2 125659. 1393.36  14
   0  -2   2 126832. 1263.93  13
   0  -2   1 984.649 144.349  14
   0  -2   1 1127.46 119.326  13
   0  -2   0 19025.7 272.668  13
   0   2   0 19193.5 425.347  20
   0   2   1 3499.97 183.009  20
   0  -2  -1 3597.32 159.663  18
   0   2   2 2210.13 169.572  20
   0   2   2 2484.64 109.210  13
   0  -2  -2 2379.43 112.952  18
   0   2   3 9684.53 365.470  20
   0   2   3 10403.6 304.557  13
   0   2   3 10325.8 374.448  19
   0   2   4 98239.3 1300.84  20
   0   2   4 101029. 1308.09  19
   0   2   4 98985.5 1040.09  21
   0   2   5 20198.4 686.229  20
   0   2   5 21780.7 627.205  13
   0   2   5 20254.3 675.648  19
   0   2   6 195424. 2325.59  19
   0   2   6 191499. 2346.94  20
   0   2   7 2729.44 336.517  19
   0   2   7 3002.42 314.127  13
   0   2   8 10946.8 635.406  13
   0   2   8 9241.28 617.220  14
   0   2   9 7920.28 637.503  14
   0   2   9 9156.98 627.788  13
   0   2  10 62740.9 1779.33  13
   0   2  10 56614.4 1772.30  14
   0   2  11 93.9653 163.814   2
   0   2  11-250.230 169.601  10
   0   2  11-144.477 187.626  11
   0   2  11-59.3408 137.672  15
   0   2  11 225.511 232.046  13
   0   2  12 12148.7 698.300  15
   0   2  12 12809.0 701.413  11
   0   2  12 12184.5 618.912  10
   0   2  12 11886.4 663.109   2
   0   2  13 4941.39 410.101  10
   0   2  13 5325.73 469.505  11
   0   2  13 5038.23 437.374   2
   0   2  13 4394.70 418.249  15
   0   2  14 2737.46 351.148  11
   0   2  14 2354.41 301.650   2
   0   2  15-97.0376 133.525   2
   0   2  15 116.337 148.579  11
   0   2  16 2437.50 248.367  11
   0  -3  14-30.7676 120.471   2
   0  -3  13 20862.8 800.157   2
   0  -3  12 498.466 217.529   3
   0  -3  12 327.500 213.840   2
   0  -3  11 29282.1 985.118  11
   0  -3  11 28967.8 1025.15   3
   0  -3  11 26940.5 1060.79   2
   0  -3  10 88.7581 178.633   2
   0  -3  10-171.432 200.256   3
   0  -3  10-508.341 157.576  11
   0  -3  10-48.5651 151.943  10
   0  -3   9 73.7546 137.284  11
   0  -3   9 35.1188 147.436   9
   0  -3   9 204.845 265.707  13
   0  -3   9 287.520 169.674   3
   0  -3   9-38.8335 120.686   2
   0  -3   9 152.225 167.483  10
   0  -3   8 3569.70 452.614  14
   0  -3   8 3673.04 474.961  13
   0  -3   7 420.971 213.255  13
   0  -3   7-250.984 186.939  14
   0  -3   6 21004.2 924.033  14
   0  -3   6 22911.3 960.874  13
   0  -3   5 299909. 3133.66  13
   0  -3   5 307103. 3246.37  14
   0  -3   4 161.079 150.747  14
   0  -3   4 190.628 134.351  13
   0  -3   3 185099. 1959.33  13
   0  -3   3 201872. 2181.25  14
   0  -3   2 6450.25 322.606  13
   0  -3   1 343018. 1860.88  13
   0  -3   0 4687.37 169.235  13
   0   3   0 4580.78 270.599  20
   0   3   1 419196. 2327.69  20
   0  -3  -2 15405.6 374.376  18
   0   3   2 15970.5 475.576  20
   0  -3  -3 21383.0 381.943  18
   0   3   3 22004.5 588.914  20
   0   3   3 21278.0 365.327  13
   0   3   4 2895.08 191.398  13
   0   3   4 2563.94 248.418  20
   0  -3  -4 2647.33 121.805  18
   0   3   5 5481.66 385.612  19
   0   3   5 5463.42 376.220  20
   0  -3  -5 4454.97 115.684  18
   0   3   5 5502.87 298.934  13
   0   3   5 5789.32 285.246  21
   0   3   6 1240.90 255.459  19
   0   3   6 1390.32 254.351  20
   0   3   6 1675.43 221.230  13
   0   3   6 1422.25 172.753  21
   0   3   7 212905. 2333.68  13
   0   3   7 207662. 2711.25  20
   0   3   8 8039.27 525.263  13
   0   3   8 7919.46 602.217  19
   0   3   9 3435.56 382.941  13
   0   3   9 3592.56 443.383  14
   0   3  10 7060.17 589.698  13
   0   3  10 6029.25 606.072  14
   0   3  11 2953.41 339.096  11
   0   3  11 3012.56 321.611  10
   0   3  11 2753.67 305.282   2
   0   3  12 2725.31 364.627  11
   0   3  12 1976.93 315.846  15
   0   3  12 2272.57 325.058   2
   0   3  12 2318.30 301.729  10
   0   3  13 2778.71 359.076  15
   0   3  13 2430.71 295.333  10
   0   3  13 2095.91 311.846  11
   0   3  13 1962.36 290.028   2
   0   3  14 174.361 180.899  11
   0   3  14 319.164 136.454   2
   0   3  14 7.68126 124.540  15
   0   3  15 2781.68 338.928  11
   0   3  15 3217.58 303.344   2
   0   3  16 60.7948 135.523  11
   0  -4  14 26294.8 633.781   2
   0  -4  13 47.8115 164.778   2
   0  -4  12 4465.90 403.134   3
   0  -4  12 4154.83 413.417   2
   0  -4  11-102.747 208.553   2
   0  -4  11 588.582 210.315   3
   0  -4  10 9788.88 619.557   3
   0  -4  10 8651.21 620.289   2
   0  -4   9 1720.43 283.782   9
   0  -4   9 1853.23 301.506   2
   0  -4   9 1636.46 274.732  11
   0  -4   9 1349.25 288.948   3
   0  -4   8 2190.25 291.350  10
   0  -4   8 2082.23 312.522   2
   0  -4   8 2454.86 402.400  13
   0  -4   8 2242.34 308.775   3
   0  -4   8 2568.80 306.933   9
   0  -4   7 6523.75 605.688  13
   0  -4   6 29780.2 1148.92  13
   0  -4   5 16520.2 773.524  13
   0  -4   4 27500.3 906.637  13
   0  -4   3 1481.58 215.251  13
   0  -4   2 362742. 2514.03  13
   0   4  -1-24.6045 131.150  20
   0  -4   1 75.3070 71.6732  13
   0  -4   0 424206. 1809.28  13
   0   4   0 489908. 3022.12  20
   0   4   1 398.292 161.340  20
   0   4   2 173327. 1756.53  20
   0  -4  -3 10097.1 340.880  18
   0   4   3 11413.4 478.833  20
   0   4   4 4733.94 335.655  20
   0  -4  -4 4251.51 198.684  18
   0   4   5 18353.6 674.946  19
   0   4   5 16727.2 464.173  13
   0   4   5 17208.2 658.575  20
   0   4   5 17200.9 473.363  21
   0   4   6 7110.24 477.635  20
   0   4   6 7305.99 344.732  21
   0   4   6 7233.65 484.904  19
   0   4   6 7461.43 366.479  13
   0   4   7 9777.80 486.287  13
   0   4   7 9763.23 614.825  20
   0   4   7 9928.32 619.253  19
   0   4   8 15288.5 823.192  19
   0   4   8 14867.4 652.433  13
   0   4   8 15096.4 823.565  20
   0   4   9 53732.9 1635.30  19
   0   4   9 52968.0 1364.25  13
   0   4  10 8546.39 732.786  14
   0   4  11 3071.40 347.415  11
   0   4  12 4175.21 435.574  11
   0   4  12 4987.85 455.233  15
   0   4  12 4172.28 357.794  10
   0   4  13 298.087 165.495  15
   0   4  13 159.933 164.485  10
   0   4  13 31.6608 160.688  11
   0   4  14 11492.9 652.218  11
   0   4  14 10620.9 619.172  15
   0   4  15 532.221 180.093  15
   0   4  15 252.400 183.122  11
   0   4  16 176.504 143.982  11
   0   4  17 36.9353 84.5245  11
   0  -5  13 493.190 144.004   2
   0  -5  12 59.3706 177.489   3
   0  -5  12 33.1866 158.543   2
   0  -5  11 228.910 189.822   3
   0  -5  11 325.909 204.120   2
   0  -5  10 222.012 212.698   3
   0  -5  10 267.616 220.804   2
   0  -5   9 15968.2 816.697   2
   0  -5   9 16101.0 749.448   9
   0  -5   9 16677.4 805.652   3
   0  -5   8-261.673 162.377   2
   0  -5   8-6.15981 176.576   3
   0  -5   8-54.2836 164.394   9
   0  -5   7 7080.24 470.293   9
   0  -5   7 6537.21 589.161  13
   0  -5   6 14011.3 822.851  13
   0  -5   5 83032.7 1806.45  13
   0  -5   4 6318.77 472.453  13
   0  -5   3 183054. 2162.96  13
   0   5  -2 752.131 242.136  20
   0  -5   2 375.736 128.865  13
   0  -5   1 118646. 1300.07  13
   0   5  -1 114675. 1792.91  20
   0   5   0 930.616 206.785  20
   0  -5   0 883.478 106.210  13
   0   5   1 80176.2 1380.31  20
   0   5   2 5772.54 393.922  20
   0   5   3 8941.79 479.616  20
   0   5   4 28185.4 840.033  20
   0   5   5 382.992 186.459  20
   0   5   6 49304.4 1253.45  20
   0   5   6 50481.5 1268.72  19
   0   5   7 791.141 223.342  19
   0   5   7 608.111 217.187  20
   0   5   8 2743.29 395.724  19
   0   5   8 3268.28 421.407  20
   0   5   9 11405.4 759.399  19
   0   5   9 11324.3 799.168  20
   0   5  10 2464.92 387.242  19
   0   5  11 284.439 165.053  11
   0   5  12 3512.74 382.624  11
   0   5  13 6575.34 530.404  15
   0   5  13 6489.54 508.607  11
   0   5  14 704.391 221.384  11
   0   5  14 810.592 231.535  15
   0   5  15 329.449 173.129  15
   0   5  15 117.271 178.244  11
   0   5  16 246.363 139.580  11
   0   5  17-35.8131 86.6678  11
   0  -6  12 4966.87 337.665   2
   0  -6  11 390.819 187.085   2
   0  -6  11 601.343 199.412   3
   0  -6  10-276.158 195.474   2
   0  -6  10-208.051 202.197   3
   0  -6   9 931.564 246.653   2
   0  -6   9 1087.69 245.832   9
   0  -6   9 1305.96 275.823   3
   0  -6   8 55598.0 1471.16   3
   0  -6   8 53376.3 1466.75   2
   0  -6   8 55938.9 1367.03   9
   0  -6   7 336.155 194.993   9
   0  -6   6 46493.4 1188.62   9
   0   6  -6 47584.9 1740.54  20
   0  -6   5 2398.40 338.574  13
   0   6  -5 2079.45 357.027  20
   0  -6   4 228176. 2833.08  13
   0   6  -4 240927. 3471.87  20
   0  -6   3 10454.1 551.407  13
   0   6  -3 10597.9 712.398  20
   0   6  -2 56105.2 1466.25  20
   0   6  -1-173.176 184.770  20
   0   6   0 289.025 203.615  20
   0   6   1 22264.4 830.875  20
   0   6   2 75216.8 1485.94  20
   0   6   3 6312.57 454.900  20
   0   6   4 9274.30 552.354  20
   0   6   5 701.847 215.684  20
   0   6   6 83.6795 150.729  20
   0   6   7 12236.6 722.080  19
   0   6   7 12833.2 733.375  20
   0   6   8 29263.5 1173.71  19
   0   6   8 29031.4 1175.66  20
   0   6   9 1953.07 382.608  20
   0   6   9 3193.20 410.423  19
   0   6  10 16625.1 1056.64  20
   0   6  10 17317.0 1025.46  19
   0   6  11 30.1905 146.356  11
   0   6  11-8.29639 125.367   5
   0   6  12 8772.04 562.671  11
   0   6  13-116.739 165.118  11
   0   6  14 20494.8 824.924  11
   0   6  14 21926.2 895.864  15
   0   6  15-90.2795 156.174  11
   0   6  15 201.254 161.413  15
   0   6  16 1526.18 201.824  15
   0   6  16 1781.31 207.109  11
   0   6  17 30.9391 86.6210  11
   0  -7  11-17.5629 140.035   3
   0  -7  11-136.712 112.774   2
   0  -7  10 237.434 175.307   3
   0  -7  10 125.981 158.599   2
   0  -7   9 18950.4 803.346   3
   0  -7   9 18022.6 785.888   2
   0  -7   8 1180.02 263.007   9
   0  -7   8 1036.29 235.629   3
   0  -7   8 1262.58 253.991   2
   0  -7   7 77813.9 1715.84   2
   0  -7   7 82277.2 1649.44   9
   0  -7   6 1655.94 267.774   9
   0  -7   6 1823.53 285.713  16
   0  -7   5 22749.0 834.485   9
   0  -7   5 20612.2 783.384  16
   0   7  -5 23157.7 1210.58  20
   0   7  -4 13.4157 146.270  20
   0   7  -3 6753.04 590.243  20
   0   7  -2 18948.7 935.655  20
   0   7  -1 3148.14 399.168  20
   0   7   0 155.488 148.390  20
   0   7   1 10252.3 641.278  20
   0   7   2 5723.77 497.074  20
   0   7   3 23206.7 930.233  20
   0   7   4 45056.2 1287.87  20
   0   7   5 9762.00 614.750  20
   0   7   6 36927.7 1215.28  20
   0   7   7 11419.1 747.167  20
   0   7   7 11753.7 733.496  19
   0   7   8 7521.77 618.178  19
   0   7   8 7239.72 623.562  20
   0   7   9 5849.32 567.073  19
   0   7   9 4965.47 566.414  20
   0   7  10 4415.94 384.944  11
   0   7  10 5883.24 630.070  19
   0   7  10 5755.77 622.315  20
   0   7  10 5796.45 450.181   5
   0   7  11 558.956 227.226  11
   0   7  11 392.209 208.010   5
   0   7  12 1627.05 242.355   5
   0   7  12 1760.11 276.504  11
   0   7  13 5510.81 459.687  11
   0   7  14 4288.71 382.826  11
   0   7  14 4473.47 436.450  15
   0   7  15 2652.97 318.328  15
   0   7  15 2773.29 294.080  11
   0   7  16 145.807 134.059  15
   0   7  16 92.6869 131.131  11
   0  -8  10 80.0542 114.739   2
   0  -8  10 104.584 149.215   3
   0  -8   9 205.207 175.558   3
   0  -8   9 373.723 166.998   2
   0  -8   8 548.656 214.805   3
   0  -8   8 728.819 203.430   2
   0  -8   8 838.631 228.146   9
   0  -8   7 2420.93 317.010   9
   0  -8   7 2089.70 307.326   2
   0  -8   6 25186.0 922.493   9
   0  -8   6 28806.6 931.180  16
   0  -8   5 1946.00 287.544  16
   0  -8   5 1839.37 266.006   9
   0  -8   4 1556.64 255.674   9
   0  -8   4 1187.97 249.130  16
   0   8  -4 1486.50 327.755  20
   0  -8   3 3785.81 356.146  16
   0   8  -3 3848.35 528.823  20
   0   8  -2 58889.8 1815.27  20
   0   8  -1 256.543 178.248  20
   0   8   0 19460.7 981.328  20
   0   8   1 8810.80 653.366  20
   0   8   2 44885.4 1415.86  20
   0   8   3 6813.08 558.906  20
   0   8   4 44558.4 1394.10  20
   0   8   5 1791.70 351.607  20
   0   8   6 7262.66 615.745  20
   0   8   7 3352.42 449.317  19
   0   8   7 2830.85 412.624  20
   0   8   8 3502.53 454.770  19
   0   8   8 3862.08 504.454  20
   0   8   9 9072.91 769.478  20
   0   8   9 8330.94 731.529  19
   0   8   9 10006.2 577.788   5
   0   8  10 1283.17 248.285   5
   0   8  10 1940.27 364.007  19
   0   8  10 1120.37 398.484  20
   0   8  11 11275.2 640.091   5
   0   8  11 11617.1 606.724  11
   0   8  12 2938.97 322.370  11
   0   8  12 2494.49 320.932   5
   0   8  13 551.022 185.855   5
   0   8  13 919.110 208.525  11
   0   8  14 1066.78 212.682  11
   0   8  15 344.091 149.210  11
   0   8  15 321.699 168.168  15
   0   8  16 5821.11 321.967  11
   0   8  16 5660.44 356.128  15
   0  -9  10 974.657 142.843   3
   0  -9   9 164.696 147.225   3
   0  -9   8 1153.21 225.409   3
   0  -9   7 394.980 159.382  16
   0  -9   7 381.812 181.253   9
   0  -9   7 574.390 207.949   3
   0  -9   6 5803.73 439.337   9
   0  -9   6 5627.96 424.267  16
   0  -9   5 1470.41 272.860   9
   0  -9   5 2063.15 315.128  16
   0  -9   4 684.344 213.846  16
   0  -9   4 1154.61 246.051   9
   0  -9   3 7237.39 485.523   9
   0  -9   3 7596.67 517.688  16
   0   9  -2 214.843 161.520  20
   0  -9   2 82.2659 183.307   9
   0  -9   1 284.469 176.380  16
   0   9  -1 139.224 170.763  20
   0   9   0 5490.20 566.272  20
   0   9   1 2739.24 425.105  20
   0   9   2 13038.2 849.543  20
   0   9   3 3126.04 439.155  20
   0   9   4 713.709 290.064  20
   0   9   5 4817.88 524.377  20
   0   9   6 2213.03 379.534  20
   0   9   7 25301.2 1200.63  20
   0   9   8 218.508 240.791  19
   0   9   8 395.583 227.735  20
   0   9   8-278.387 149.416   5
   0   9   9 83.1073 148.072   5
   0   9   9 606.862 335.886  19
   0   9  10 5010.76 458.191   5
   0   9  11 1988.66 303.477   5
   0   9  12 9893.71 610.249   5
   0   9  13 130.522 144.037  11
   0   9  13 234.430 172.856   5
   0   9  14 1007.07 213.553   5
   0   9  14 1185.08 213.721  11
   0   9  15 221.266 161.027  15
   0   9  15 300.829 157.549  11
   0   9  16 147.834 107.993  15
   0 -10   8 37488.6 862.020   3
   0 -10   7 167.953 172.375   3
   0 -10   7 148.887 138.852  16
   0 -10   6 145.319 135.627  16
   0 -10   6-113.381 139.434   9
   0 -10   5 2438.15 289.519  16
   0 -10   5 1994.92 284.273   9
   0 -10   4 95.6843 175.721  16
   0 -10   4-79.8547 140.621   9
   0 -10   3 2214.35 288.246   9
   0 -10   3 1960.43 294.670  16
   0 -10   2 489.545 142.570   9
   0 -10   2 659.432 244.773  16
   0 -10   1-380.207 147.249   1
   0 -10   1 97.4742 199.818  16
   0  10   0 34800.4 1525.47  20
   0 -10   0 34406.3 1081.61   1
   0 -10   0 33406.8 1029.05  16
   0 -10  -1 4104.94 379.279  16
   0  10   1 3440.12 536.845  20
   0 -10  -1 3623.26 373.181   1
   0  10   2 3214.29 477.628  20
   0 -10  -2 2846.94 300.530  16
   0 -10  -2 2742.18 331.054   1
   0  10   3 17366.5 1039.63  20
   0 -10  -3 16783.5 750.075   1
   0  10   4 2924.47 457.461  20
   0 -10  -4 3029.11 309.522   1
   0  10   5 23563.0 1184.93  20
   0 -10  -5 23639.0 873.607   1
   0  10   6 5655.21 428.627   5
   0 -10  -6 5871.00 450.171   1
   0  10   6 5872.23 600.012  20
   0  10   7 471.473 198.305   5
   0  10   7 310.447 239.387  20
   0 -10  -7 480.069 165.889   1
   0 -10  -8 9695.52 566.545   1
   0  10   8 9777.80 595.938   5
   0  10   8 9750.74 830.598  20
   0 -10  -9 406.381 176.241   1
   0  10   9 101.237 180.842   5
   0  10  10 2572.48 345.316   5
   0  10  11 718.056 220.561   5
   0  10  12 7622.24 536.482   5
   0  10  13 563.889 204.502   5
   0  10  14 2974.89 286.474   5
   0  10  15 1337.72 203.566  15
   0  10  15 1082.35 162.025   5
   0  10  16 352.220 114.391  15
   0 -11   7 59350.2 1033.38   3
   0 -11   6 2379.16 284.331   3
   0 -11   6 2257.57 246.195  16
   0 -11   5 3868.02 355.422  16
   0 -11   5 3394.99 306.383   9
   0 -11   4 305.160 157.349   9
   0 -11   4 508.466 203.952  16
   0 -11   3 2760.09 300.621   9
   0 -11   3 2813.31 338.839  16
   0 -11   2 468.281 230.251  16
   0 -11   2 714.028 185.154   9
   0 -11   1 2258.33 323.216  16
   0 -11   1 2788.27 324.865   1
   0 -11   0 521.013 187.780   1
   0 -11   0 633.921 208.657  16
   0 -11  -1 8173.32 565.499   1
   0 -11  -1 8251.32 540.197  16
   0 -11  -2 1497.61 288.635   1
   0 -11  -2 1364.41 240.947  16
   0 -11  -3 1301.46 228.917  16
   0 -11  -3 1511.91 272.122   1
   0 -11  -4 481.864 178.039   1
   0 -11  -5 24838.5 946.282   1
   0  11   5 25221.9 890.795   5
   0  11   6 14393.2 692.270   5
   0 -11  -6 14459.7 730.738   1
   0 -11  -7 652.421 199.735   1
   0  11   7 873.929 243.619   5
   0 -11  -8-66.0397 138.556   1
   0  11   8 375.984 171.168   5
   0  11   9 4320.54 420.891   5
   0 -11  -9 4670.10 424.008   1
   0  11  10 21976.2 903.738   5
   0  11  11 3626.05 391.794   5
   0  11  12 1443.68 266.660   5
   0  11  13 2164.55 279.864   5
   0  11  14 922.799 197.539   5
   0  11  15 244.433 93.7970   5
   0  11  15 462.692 133.358  15
   0 -12   6 9754.67 352.890  16
   0 -12   6 10657.2 421.532   3
   0 -12   5-105.065 117.894  16
   0 -12   5-0.72964 157.279   3
   0 -12   4 816.825 211.650  16
   0 -12   4 520.432 135.062   9
   0 -12   3 1045.49 223.763  16
   0 -12   2-339.727 170.716  16
   0 -12   1 639.937 222.065  16
   0 -12   0 3823.23 375.770  16
   0 -12   0 3709.32 383.506   1
   0 -12  -1 1700.92 280.596  16
   0 -12  -1 955.149 228.067   1
   0 -12  -2 737.096 209.441   1
   0 -12  -2 433.559 187.617  16
   0 -12  -3 12141.3 621.556  16
   0 -12  -3 11660.0 676.756   1
   0 -12  -4 0.92296 206.870  16
   0 -12  -4 596.608 211.887   1
   0 -12  -5 493.484 205.876   1
   0 -12  -6 51954.6 1387.82   1
   0  12   6 52209.9 1301.24   5
   0 -12  -7 31728.2 1071.88   1
   0  12   7 32408.6 1051.68   5
   0 -12  -8 9645.45 597.565   1
   0  12   8 9451.59 588.213   5
   0  12   9 16734.6 783.102   5
   0 -12  -9 17343.9 759.878   1
   0  12  10 113.919 181.999   5
   0 -12 -10-123.797 138.897   1
   0  12  11 3616.57 384.351   5
   0  12  12-61.1258 152.948   5
   0  12  13 5440.27 391.931   5
   0  12  14 103.605 121.682   5
   0  12  15 172.767 107.627  15
   0 -13   4 632.572 144.371  16
   0 -13   3 2325.19 260.922  16
   0 -13   2 1137.59 227.258  16
   0 -13   1 25709.0 844.945  16
   0 -13   0 1873.10 260.155   1
   0 -13   0 1965.58 280.197  16
   0 -13  -1 3260.49 348.154  16
   0 -13  -1 3175.60 346.992   1
   0 -13  -2-88.8432 166.024  16
   0 -13  -2-29.8564 120.274   1
   0 -13  -3 575.207 196.552  16
   0 -13  -3 604.716 216.383   1
   0 -13  -4 15818.0 768.797   1
   0 -13  -4 15861.8 661.573  16
   0 -13  -5 275.642 213.874   1
   0 -13  -6 3740.03 403.339   1
   0  13   6 4391.60 390.364   5
   0  13   7 1921.41 271.909   5
   0 -13  -7 1957.75 304.282   1
   0  13   8 553.355 183.662   5
   0 -13  -8 509.391 170.197   1
   0 -13  -9 15.9170 131.991   1
   0  13   9-140.440 146.061   5
   0  13  10 1911.74 283.270   5
   0 -13 -10 1994.59 266.586   1
   0  13  11 20201.1 773.283   5
   0  13  12 383.596 166.107   5
   0  13  13 199.220 150.421   5
   0  13  14 87.9740 94.8574   5
   0 -14   3 477.073 117.083  16
   0 -14   2 3917.07 280.838  16
   0 -14   1 65.8773 114.071  16
   0 -14   0 8964.43 468.838  16
   0 -14  -1 985.065 196.046  16
   0 -14  -1 1121.97 229.203   1
   0 -14  -2 425.751 175.707  16
   0 -14  -2 463.978 178.119   1
   0 -14  -3 1756.24 266.420   1
   0 -14  -3 1960.97 254.527  16
   0 -14  -4 7686.99 527.967   1
   0 -14  -4 8336.44 448.948  16
   0 -14  -5-237.220 177.592   1
   0 -14  -6 187.964 190.764   1
   0  14   7 3263.46 311.758   5
   0 -14  -7 3260.84 356.559   1
   0  14   8 588.634 185.992   5
   0 -14  -8 355.796 188.263   1
   0 -14  -9 11.1276 124.775   1
   0  14   9 128.388 125.820   5
   0 -14 -10 907.085 185.447   1
   0  14  10 1021.85 210.349   5
   0  14  11 2597.60 268.920   5
   0  14  12 33087.7 805.826   5
   0  14  13 208.467 106.311   5
   0 -15   1 713.131 113.694  16
   0 -15   0 4969.93 282.630  16
   0 -15  -1 3228.66 245.723   1
   0 -15  -1 3741.73 261.895  16
   0 -15  -2 38.1376 100.820   1
   0 -15  -2-114.532 97.0632  16
   0 -15  -3 4390.00 339.649   1
   0 -15  -3 4443.98 283.842  16
   0 -15  -4 1951.01 250.008   1
   0 -15  -5 325.256 175.181   1
   0 -15  -6 126.080 137.020   1
   0 -15  -7 2783.79 279.500   1
   0  15   8 12169.1 460.757   5
   0 -15  -8 12062.1 539.163   1
   0 -15  -9 201.130 132.208   1
   0  15   9-274.377 129.649   5
   0  15  10 7844.98 371.760   5
   0 -15 -10 7692.33 360.986   1
   0  15  11 1081.36 160.526   5
   0 -16  -4 589.461 119.823   1
   0 -16  -5 4070.77 278.676   1
   0 -16  -6 5813.37 333.490   1
   0 -16  -7 878.352 157.869   1
   0 -16  -8-38.6553 76.4690   1
   1 -15  -9 265.087 107.134   1
   1 -15  -8 1536.24 203.035   1
   1 -15  -7 2697.84 259.728   1
   1 -15  -6 3217.17 298.786   1
   1 -15  -5 229.455 145.537   1
   1 -15  -4 1932.21 231.468   1
   1 -15  -3 490.551 159.863   1
   1 -15  -2 3.50404 73.6084   1
  -1  14  12 63.1156 97.6646   5
  -1  14  11-240.043 126.752   5
  -1  14  10 5376.18 347.136   5
  -1  14   9 314.326 147.831   5
   1 -14  -9 573.392 143.924   1
  -1  14   8 17179.8 620.560   5
   1 -14  -8 17205.2 661.840   1
   1 -14  -7 6114.09 421.791   1
   1 -14  -6 7744.32 502.161   1
   1 -14  -5 44.3568 174.121   1
   1 -14  -4 9551.87 560.300   1
   1 -14  -3-31.6939 111.806  16
   1 -14  -3 231.263 186.898   1
   1 -14  -2-131.956 135.847  16
   1 -14  -2 23.2891 125.929   1
   1 -14  -1 5509.98 367.245  16
   1 -14  -1 5630.82 386.387   1
   1 -14   0 171.385 137.219  16
   1 -14   0 262.921 119.745   1
   1 -14   1 557.445 139.598  16
  -1  13  13 257.143 104.936   5
  -1  13  12 2175.73 242.307   5
  -1  13  11 244.996 151.464   5
  -1  13  10 1692.90 252.924   5
   1 -13  -9 69.5395 144.005   1
  -1  13   9 71.3331 174.657   5
  -1  13   8 104.393 150.026   5
   1 -13  -8-40.6075 132.799   1
  -1  13   7 4040.41 363.602   5
   1 -13  -7 3777.37 378.850   1
   1 -13  -6 2494.61 316.777   1
   1 -13  -5 12505.5 686.755   1
   1 -13  -4 2253.10 319.085   1
   1 -13  -3 538.816 188.005  16
   1 -13  -3 345.186 193.708   1
   1 -13  -2 871.048 192.457  16
   1 -13  -2 739.161 220.723   1
   1 -13  -1 446.164 203.579   1
   1 -13  -1 596.601 195.572  16
   1 -13   0 134.479 152.592  16
   1 -13   0-115.292 141.321   1
   1 -13   1 2188.75 283.993  16
   1 -13   1 1964.64 259.248   1
   1 -13   2 1106.74 207.618  16
   1 -13   3 579.307 165.178  16
   1 -13   4 233.825 112.592  16
  -1  12  14 937.502 150.734   5
  -1  12  14 717.860 155.131  15
  -1  12  13 3199.43 285.276   5
  -1  12  12 3641.85 332.569   5
  -1  12  11 2295.26 312.791   5
  -1  12  10 18052.6 781.668   5
   1 -12  -9 3669.77 344.745   1
  -1  12   9 3957.26 399.475   5
  -1  12   8 8365.98 546.016   5
   1 -12  -8 8497.88 547.694   1
   1 -12  -7 5046.27 448.476   1
  -1  12   7 5483.11 458.003   5
  -1  12   6 750.056 211.702   5
   1 -12  -6 628.160 213.232   1
   1 -12  -5 261.215 197.885   1
   1 -12  -4 422.356 219.855   1
   1 -12  -3 2230.15 359.188   1
   1 -12  -3 2643.38 319.226  16
   1 -12  -2 5270.89 435.782  16
   1 -12  -2 5352.46 474.240   1
   1 -12  -1 677.765 238.893  16
   1 -12  -1 488.194 248.790   1
   1 -12   0 1798.72 289.996  16
   1 -12   0 1870.89 294.597   1
   1 -12   1 920.602 228.709  16
   1 -12   1 1048.90 233.510   1
   1 -12   2 450.712 152.263   9
   1 -12   2 84.9180 160.255  16
   1 -12   3 520.043 162.522   9
   1 -12   3 452.020 180.015  16
   1 -12   4 1004.32 169.056   9
   1 -12   4 757.717 194.896  16
   1 -12   5 1100.26 183.011   3
   1 -12   5 1037.65 158.052   9
   1 -12   5 1331.03 196.916  16
  -1  11  15 107.373 93.9220  15
  -1  11  14 6007.42 352.446   5
  -1  11  13 4035.41 339.871   5
  -1  11  12 3036.67 351.359   5
  -1  11  11 810.427 251.745   5
  -1  11  10 486.925 193.041   5
   1 -11  -9 2460.03 286.036   1
  -1  11   9 2423.57 347.271   5
  -1  11   8 1247.21 271.138   5
   1 -11  -8 1653.04 281.812   1
  -1  11   7 132.744 143.840   5
   1 -11  -7 15.2003 176.164   1
  -1  11   6 461.733 174.916   5
   1 -11  -6 630.611 209.391   1
   1 -11  -5 2670.26 341.641   1
  -1  11   5 3160.42 359.742   5
   1 -11  -4 1001.38 243.693   1
   1 -11  -3 374.505 137.282  16
   1 -11  -3 93.5203 200.191   1
   1 -11  -2 1431.28 262.887   1
   1 -11  -2 1176.49 258.207  16
   1 -11  -1 9934.74 579.586  16
   1 -11  -1 9451.22 616.357   1
   1 -11   0 2811.41 361.387   1
   1 -11   0 2330.12 322.267  16
   1 -11   1 1345.42 255.257   9
   1 -11   1 972.775 250.016  16
   1 -11   1 1398.75 268.852   1
   1 -11   2 154.051 207.051  16
   1 -11   2 750.983 200.715   9
   1 -11   3 5246.40 443.053  16
   1 -11   3 4901.15 396.802   9
   1 -11   4 278.263 152.610   9
   1 -11   4 84.3619 179.793  16
   1 -11   5 248.524 161.415  16
   1 -11   5 102.108 129.074   9
   1 -11   6 75.6699 136.952   3
   1 -11   6 50.4865 123.493   9
   1 -11   6-83.9307 137.555  16
   1 -11   7 401.532 121.382   3
  -1  10  15 225.779 134.404  15
  -1  10  14 0.72308 107.233   5
  -1  10  13 691.759 214.903   5
  -1  10  12-86.6609 157.182   5
  -1  10  11 255.754 180.827   5
  -1  10  10 13790.3 731.584   5
  -1  10   9 84.3991 177.513   5
  -1  10   8 8926.46 590.933   5
   1 -10  -8 9605.31 578.185   1
  -1  10   7-35.0142 113.858   5
   1 -10  -7 229.751 155.756   1
   1 -10  -6 3918.93 402.041   1
  -1  10   6 3821.22 396.700   5
  -1  10   6 3507.95 521.869  20
   1 -10  -5 1509.69 236.010   1
  -1  10   5 2129.51 291.603   5
  -1  10   5 1495.91 395.802  20
   1 -10  -4 34402.5 1103.07   1
  -1  10   4 36635.1 1487.32  20
  -1  10   3 1791.40 402.709  20
   1 -10  -3 1459.12 267.247  16
   1 -10  -3 1505.38 265.513   1
   1 -10  -2 9123.83 527.118  16
   1 -10  -2 9230.65 583.483   1
   1 -10  -1 4038.43 398.961   1
   1 -10  -1 4134.50 393.824  16
  -1  10   1 3930.28 528.369  20
   1 -10   0 28412.1 958.771  16
   1 -10   0 29569.8 1049.63   1
   1 -10   1-224.744 118.176   9
   1 -10   1-318.364 199.662  16
   1 -10   2 2385.24 334.602  16
   1 -10   2 2912.25 331.281   1
   1 -10   2 2285.89 311.012   9
   1 -10   3 14267.6 708.426  16
   1 -10   3 13778.9 675.641   9
   1 -10   4 274.848 179.939  16
   1 -10   4 173.788 153.845   9
   1 -10   5 627.140 191.754  16
   1 -10   5 673.458 218.205   9
   1 -10   6 5678.24 410.369  16
   1 -10   6 5840.40 406.466   9
   1 -10   7 9718.91 455.151  16
   1 -10   7 8616.68 459.066   9
   1 -10   7 9266.27 480.103   3
   1 -10   8 5136.03 303.778   3
  -1   9  16 123.686 79.1041  15
  -1   9  15 21.6270 128.938  15
  -1   9  14-110.345 121.809   5
  -1   9  14 107.893 175.215  15
  -1   9  13 5808.47 442.157   5
  -1   9  12 17508.0 795.557   5
  -1   9  11 2715.85 357.665   5
  -1   9  10 404.749 196.868   5
  -1   9   9 1410.38 255.781   5
  -1   9   8 773.420 258.602  19
  -1   9   8 1102.14 330.457  20
  -1   9   8 767.638 232.701   5
  -1   9   7 33.8764 211.106  20
   1  -9  -7 222.524 141.485   1
  -1   9   7 423.737 171.767   5
  -1   9   7 157.276 137.400  19
  -1   9   6 5158.43 572.988  20
  -1   9   5 1884.05 340.438  20
  -1   9   4 8804.55 701.260  20
  -1   9   3 29305.6 1261.88  20
  -1   9   2-462.857 255.224  20
  -1   9   1 6007.32 593.179  20
  -1   9   0 17083.3 1016.72  20
   1  -9   1-69.3398 144.741  16
  -1   9  -1-456.772 275.659  20
   1  -9   1-477.525 177.105   1
  -1   9  -2 1282.89 377.434  20
   1  -9   2 890.947 227.450  16
   1  -9   2 724.704 214.162   1
   1  -9   2 650.689 201.026   9
   1  -9   3 142.750 209.918  16
   1  -9   3-54.7135 164.746   9
   1  -9   4 2022.74 291.093   9
   1  -9   4 2350.90 336.977  16
   1  -9   5 59.6502 131.787  16
   1  -9   5 106.967 171.620   9
   1  -9   6 695.428 199.511   9
   1  -9   6 1024.85 234.717  16
   1  -9   7 1284.84 262.589   3
   1  -9   7 1768.16 279.354   9
   1  -9   7 1475.58 250.609  16
   1  -9   8 10027.2 509.827   3
   1  -9   8 10126.6 510.327   9
   1  -9   9 14775.0 517.163   3
  -1   8  16 1153.09 172.731  15
  -1   8  15 497.409 176.421  15
  -1   8  14 1234.94 259.719  15
  -1   8  13 369.980 173.624   5
  -1   8  12 518.186 166.290   5
  -1   8  11-205.766 128.699   5
  -1   8  10 5339.43 461.172   5
  -1   8   9 22165.8 1226.36  19
  -1   8   9 22051.7 886.079   5
  -1   8   8 10645.1 841.642  19
  -1   8   8 11047.1 616.751   5
  -1   8   8 10668.6 792.255  20
  -1   8   7 4101.20 489.115  19
  -1   8   7 3751.28 467.073  20
  -1   8   6 4232.46 475.659  20
  -1   8   5 1183.46 275.831  20
  -1   8   4 5128.94 491.127  20
  -1   8   3 47020.7 1453.46  20
  -1   8   2 3194.93 412.985  20
  -1   8   1-89.9301 190.533  20
  -1   8   0 23593.5 1094.43  20
  -1   8  -1 100.741 145.406  20
  -1   8  -2 81.8980 105.115  20
   1  -8   3 1107.81 224.411  16
   1  -8   3 789.627 193.787   9
  -1   8  -3 580.042 223.143  20
   1  -8   4 13778.6 690.304  16
   1  -8   4 14046.6 689.378   9
   1  -8   5 349.645 196.650   9
   1  -8   5 297.889 145.291  16
   1  -8   6 46779.2 1252.44   9
   1  -8   6 45997.5 1195.09  16
   1  -8   7 5713.70 427.398  16
   1  -8   7 5355.48 448.950   2
   1  -8   7 5844.16 465.541   9
   1  -8   8 1891.68 287.997   9
   1  -8   8 1216.26 256.145   2
   1  -8   8 2023.48 292.743   3
   1  -8   9 1996.38 272.961   9
   1  -8   9 1647.13 256.594   2
   1  -8   9 1827.87 256.071   3
   1  -8  10 4401.50 312.565   2
   1  -8  10 4218.67 298.029   3
  -1   7  16 1068.47 139.906  11
  -1   7  16 1350.00 181.752  15
  -1   7  15 282.782 159.388  15
  -1   7  15 285.624 128.250  11
  -1   7  14 1094.80 218.147  11
  -1   7  14 773.116 250.837  15
  -1   7  13 5398.09 409.245  11
  -1   7  12 706.047 182.733  11
  -1   7  12 672.937 192.096   5
  -1   7  11 1403.12 261.438   5
  -1   7  10 904.138 332.012  19
  -1   7  10 708.418 230.041   5
  -1   7   9 14196.1 916.356  20
  -1   7   9 15217.7 1003.70  19
  -1   7   9 15116.4 714.792   5
  -1   7   8 13533.5 888.387  19
  -1   7   8 14617.0 881.860  20
  -1   7   7 12746.9 781.222  20
  -1   7   7 13189.7 850.299  19
  -1   7   6 15794.3 815.295  20
  -1   7   5 20812.6 907.920  20
  -1   7   4 1193.08 282.454  20
  -1   7   3 71.6784 193.588  20
  -1   7   2 91182.7 1855.85  20
  -1   7   1 1805.45 302.235  20
  -1   7   0 10403.5 683.031  20
  -1   7  -1 100.262 171.261  20
  -1   7  -2 3274.57 404.089  20
  -1   7  -3 231.206 212.417  20
  -1   7  -4 1240.78 323.598  20
   1  -7   5 10686.5 589.781  16
  -1   7  -5 10015.4 853.665  20
   1  -7   5 11044.4 613.400   9
   1  -7   6 7082.38 481.321  16
   1  -7   6 6265.84 489.257   9
   1  -7   7 19941.2 828.677   9
   1  -7   8 6792.44 504.492   9
   1  -7   8 6291.38 506.863   2
   1  -7   8 6427.10 494.626   3
   1  -7   9 2910.12 342.956   9
   1  -7   9 2449.89 311.583   3
   1  -7   9 2673.03 345.783   2
   1  -7  10 618.053 217.601   2
   1  -7  10 640.135 204.907   3
   1  -7  11 235.185 127.569   3
   1  -7  11 239.693 141.829   2
  -1   6  16-12.9048 88.1228  11
  -1   6  16 23.8393 85.4089  15
  -1   6  15 3334.59 299.733  11
  -1   6  15 3167.69 322.097  15
  -1   6  14 698.649 212.539  15
  -1   6  14 815.865 219.005  11
  -1   6  13 2514.44 344.160  15
  -1   6  13 2176.44 287.711  11
  -1   6  12 13375.6 671.539  11
  -1   6  11 8775.77 544.038  11
  -1   6  11 8036.58 533.681   5
  -1   6  10 1753.77 271.177   5
  -1   6  10 1551.22 354.778  19
  -1   6  10 1830.27 241.533  11
  -1   6   9-384.616 239.657  20
  -1   6   9 530.913 245.906  19
  -1   6   8 32421.2 1335.53  19
  -1   6   8 33338.8 1268.44  20
  -1   6   7 4283.96 458.977  20
  -1   6   7 4686.79 499.405  19
  -1   6   6 7266.81 572.461  19
  -1   6   6 6160.97 494.258  20
  -1   6   5 1435.26 271.847  20
  -1   6   4 82260.2 1585.79  20
   1  -6  -4 80552.6 1366.18  18
  -1   6   3 52315.2 1262.93  20
   1  -6  -3 51184.1 1133.30  18
  -1   6   2 15031.0 696.970  20
  -1   6   1 21026.8 825.591  20
  -1   6   0 134598. 2123.15  20
  -1   6  -1 2175.40 336.921  20
  -1   6  -2 34991.7 1200.15  20
  -1   6  -3 20757.7 990.235  20
  -1   6  -4 2860.89 422.649  20
  -1   6  -5-225.543 212.227  20
  -1   6  -6 4374.25 528.727  20
   1  -6   6 4638.09 399.022   9
   1  -6   7 23948.8 893.169   9
   1  -6   8 7756.44 557.741   3
   1  -6   8 7792.66 538.370   9
   1  -6   9 2790.69 354.107   3
   1  -6   9 2993.72 339.211   9
   1  -6   9 2716.50 372.695   2
   1  -6  10 30230.8 1039.66   2
   1  -6  10 30798.5 967.631   3
   1  -6  10 31187.8 959.958   9
   1  -6  11 342.138 163.648   3
   1  -6  11 202.894 173.812   2
   1  -6  12 654.511 158.986   2
  -1   5  16-165.009 110.849  11
  -1   5  16-115.234 122.303  15
  -1   5  15 1033.14 223.083  15
  -1   5  15 1438.08 237.633  11
  -1   5  14 5565.68 468.032  15
  -1   5  14 5330.59 427.636  11
  -1   5  13-183.365 173.610  15
  -1   5  13 156.854 198.246  11
  -1   5  12 18290.4 811.126  11
  -1   5  11 2221.95 314.689  11
  -1   5  10 1563.17 319.984  19
  -1   5  10 1659.78 268.911  11
  -1   5   9 3368.65 483.899  19
  -1   5   8 684.211 171.563  20
  -1   5   8 496.087 180.940  19
  -1   5   7 111166. 2073.26  20
  -1   5   7 114396. 2250.47  19
  -1   5   6 10966.9 664.412  19
  -1   5   6 9363.93 573.736  20
  -1   5   5 278841. 2793.41  20
   1  -5  -5 275796. 2151.37  18
   1  -5  -4 67003.3 1118.53  18
  -1   5   4 67512.5 1302.90  20
  -1   5   3 30322.5 869.390  20
   1  -5  -3 29790.5 776.964  18
  -1   5   2 17493.6 661.888  20
   1  -5  -2 17640.6 624.513  18
   1  -5  -1 31811.1 876.283  18
  -1   5   1 32705.1 909.370  20
   1  -5   0 103277. 1058.34  13
  -1   5   0 105661. 1681.12  20
  -1   5  -1 29391.8 936.050  20
   1  -5   1 31887.0 699.247  13
  -1   5  -2 471.983 215.873  20
   1  -5   2 602.869 135.265  13
   1  -5   3 615.419 159.390  13
   1  -5   4 16073.9 734.448  13
   1  -5   5-47.0824 117.383  13
   1  -5   6 45141.0 1456.35  13
   1  -5   7 7655.03 698.817  13
   1  -5   7 8387.27 523.543   9
   1  -5   8 10593.9 551.774  10
   1  -5   8 10739.7 594.968   9
   1  -5   8 11056.9 641.792   3
   1  -5   9 9980.62 595.295   9
   1  -5   9 9784.87 610.876   3
   1  -5  10 5432.12 458.395   3
   1  -5  10 5076.86 482.112   2
   1  -5  10 5317.27 435.298   9
   1  -5  11 356.355 176.725   3
   1  -5  11 491.014 191.320   2
   1  -5  12 1458.71 244.504   2
   1  -5  13 355.315 142.022   2
  -1   4  16 538.516 116.353  15
  -1   4  16 647.047 161.321  11
  -1   4  15 127.685 107.068  15
  -1   4  15 81.7816 145.054  11
  -1   4  14 885.585 238.351  11
  -1   4  14 1153.69 239.752  15
  -1   4  13 6575.65 463.064   2
  -1   4  13 6662.61 512.924  11
  -1   4  13 6323.77 535.607  15
  -1   4  12 99.0508 109.205  11
  -1   4  12-39.1377 126.272   2
  -1   4  12 44.3007 163.235  15
  -1   4  11 305.171 169.930   2
  -1   4  11 366.000 167.684  11
  -1   4  10 6178.93 669.873  14
  -1   4   9 18965.8 1060.56  19
  -1   4   8 17898.4 906.799  20
  -1   4   8 18082.7 957.247  19
  -1   4   7 21766.0 896.939  20
  -1   4   7 22302.9 991.264  19
  -1   4   6 14555.6 745.743  19
  -1   4   6 13754.0 651.641  20
  -1   4   5 2016.38 258.955  20
  -1   4   5 2011.39 299.605  19
  -1   4   4 451.702 159.750  20
   1  -4  -3 5205.38 303.181  18
  -1   4   3 5119.47 336.535  20
  -1   4   2 33055.8 796.081  20
   1  -4  -2 33251.5 763.505  18
   1  -4  -1 57267.6 1037.23  18
  -1   4   1 56280.3 1041.10  20
  -1   4   0 158921. 1787.25  20
   1  -4   0 153202. 1789.10  18
  -1   4  -1 12091.2 546.071  20
   1  -4   1 11992.3 415.463  13
   1  -4   1 12962.9 569.060  18
   1  -4   2 11218.5 458.634  13
   1  -4   3 26102.6 784.526  13
   1  -4   4 15368.4 681.496  13
   1  -4   5 39664.5 1202.68  13
   1  -4   6 235.260 166.115  13
   1  -4   7 5022.70 525.770  13
   1  -4   8 3824.29 518.598  13
   1  -4   8 3914.50 378.111   9
   1  -4   8 4156.99 394.720   3
   1  -4   8 4299.02 366.098  10
   1  -4   9 33240.7 1095.84   3
   1  -4   9 31883.1 1010.91   9
   1  -4   9 32009.6 995.698  10
   1  -4  10 482.330 178.660   3
   1  -4  10 582.786 145.369  10
   1  -4  10 688.481 221.734   9
   1  -4  10 628.206 222.215   2
   1  -4  11 5973.84 503.590   2
   1  -4  11 6508.97 475.494   3
   1  -4  12 316.671 187.491   3
   1  -4  12-11.1911 178.148   2
   1  -4  13 2186.80 288.414   2
   1  -4  14 1168.95 164.878   2
  -1   3  16 2590.84 245.530  11
  -1   3  15 4472.02 360.739  15
  -1   3  15 4629.50 374.287  11
  -1   3  14 130.375 175.827  11
  -1   3  14 381.237 169.465   2
  -1   3  14 350.020 198.520  15
  -1   3  13 2529.69 350.383  15
  -1   3  13 2303.11 330.762  11
  -1   3  13 2221.07 308.908   2
  -1   3  12 583.728 195.522   2
  -1   3  12 489.049 217.940  15
  -1   3  12 643.509 222.316  11
  -1   3  11 12254.9 726.136  15
  -1   3  11 11403.5 633.314   2
  -1   3  11 12642.0 687.874  11
  -1   3  10-130.148 95.0852  14
  -1   3   9 8252.93 727.308  14
  -1   3   8 1902.06 343.800  19
  -1   3   7 2714.84 381.109  19
  -1   3   7 2754.51 336.931  20
  -1   3   6 67725.8 1548.94  19
  -1   3   6 65302.6 1379.38  20
  -1   3   5 31260.9 858.842  20
  -1   3   5 31972.7 974.050  19
  -1   3   4 8139.04 405.111  20
  -1   3   4 9021.91 477.966  19
  -1   3   3 172894. 1618.02  20
  -1   3   2 88123.3 1113.89  20
  -1   3   1 64096.9 947.056  20
   1  -3  -1 61830.0 950.878  18
  -1   3   0 36711.8 747.817  20
   1  -3   0 36679.2 778.313  18
   1  -3   1 47086.8 929.360  18
   1  -3   2 4335.27 278.728  13
   1  -3   3 42809.9 937.065  13
   1  -3   4 4921.13 379.902  13
   1  -3   5 56738.3 1338.65  13
   1  -3   6 26181.5 1001.48  13
   1  -3   7 7111.50 589.665  13
   1  -3   8 129.577 187.179  13
   1  -3   9 11097.8 589.372  10
   1  -3   9 11217.4 634.067   3
   1  -3   9 11878.7 879.367  13
   1  -3   9 10989.5 584.379   9
   1  -3  10 100.985 195.182   2
   1  -3  10-153.925 146.740  10
   1  -3  10-88.7775 110.834   9
   1  -3  11 1840.79 286.264  10
   1  -3  11 2273.50 350.991   2
   1  -3  11 1721.44 284.511   3
   1  -3  12 4996.59 464.867   2
   1  -3  12 5930.35 452.370   3
   1  -3  13 175.725 179.875   2
   1  -3  14 3781.74 351.287   2
  -1   2  15 1090.02 202.615  15
  -1   2  15 812.370 196.391  11
  -1   2  14 2201.04 320.713  11
  -1   2  14 2376.56 311.344  15
  -1   2  14 2757.73 322.971   2
  -1   2  13 2011.72 305.502  15
  -1   2  13 2002.11 312.410  11
  -1   2  13 2000.10 306.376   2
  -1   2  12 141.728 183.739  15
  -1   2  12 228.881 187.986   2
  -1   2  12 63.0146 162.041  11
  -1   2  11 1026.99 267.270  11
  -1   2  11 1057.07 281.516  15
  -1   2  11 962.192 212.086  10
  -1   2  11 532.721 187.551   2
  -1   2  10 9355.38 578.898  11
  -1   2  10 8449.93 575.553  15
  -1   2  10 7471.40 740.364  14
  -1   2   9 451.327 232.964  14
  -1   2   8 406.876 203.810  14
  -1   2   7 53983.1 1302.61  13
  -1   2   7 49246.5 1423.72  19
  -1   2   6 56448.3 1206.48  13
  -1   2   6 55703.5 1382.84  19
  -1   2   5 16713.1 620.842  20
  -1   2   5 17515.5 609.394  13
  -1   2   5 18091.8 720.948  19
   1  -2  -4 48484.5 742.915  17
  -1   2   4 46088.2 1011.96  19
  -1   2   4 45430.4 892.577  20
  -1   2   3 3622.08 294.800  19
   1  -2  -3 3957.23 226.622  17
  -1   2   3 3699.27 237.995  20
  -1   2   2 3589.62 208.631  20
   1  -2  -2 3661.53 224.842  17
  -1   2   1 318842. 1704.31  20
   1  -2  -1 309367. 1865.40  17
  -1   2   0 40341.8 651.179  20
   1  -2   0 43971.4 711.037  17
   1  -2   1 263220. 1888.54  18
   1  -2   2 643086. 3134.29  18
   1  -2   3 103986. 1343.70  13
   1  -2   4 59386.2 1165.17  13
   1  -2   4 57941.2 1092.23  14
   1  -2   5 31392.0 945.824  13
   1  -2   5 28376.0 846.175  14
   1  -2   6 13451.6 650.774  14
   1  -2   6 15336.8 735.394  13
   1  -2   7 60684.1 1596.48  13
   1  -2   7 55801.0 1425.97  14
   1  -2   8 14805.3 878.107  13
   1  -2   9 547.264 144.588  10
   1  -2   9 479.185 206.517  13
   1  -2  10 3505.18 355.945   9
   1  -2  10 3267.31 348.993  11
   1  -2  10 3522.79 376.209   3
   1  -2  10 2878.08 364.752   2
   1  -2  10 3806.26 369.212  10
   1  -2  11 1273.50 247.715  10
   1  -2  11 796.995 224.712  11
   1  -2  11 967.705 230.898   3
   1  -2  11 854.898 228.774   2
   1  -2  12 174.338 176.767   3
   1  -2  12 44.7732 124.006  11
   1  -2  12-2.61385 177.428   2
   1  -2  12 139.427 160.307  10
   1  -2  13 386.222 142.027  11
   1  -2  13 474.085 216.641   2
   1  -2  14 402.439 198.584   2
   1  -2  15 1771.10 212.969   2
  -1   1  15 18.4055 116.897   2
  -1   1  15 96.9706 115.474  11
  -1   1  14 2596.04 306.031  15
  -1   1  14 3189.37 348.628   2
  -1   1  14 2995.62 357.655  11
  -1   1  13 512.487 219.387  11
  -1   1  13 648.135 228.232   2
  -1   1  13 552.609 194.249  15
  -1   1  12 16471.6 801.314   2
  -1   1  12 15097.2 781.916  11
  -1   1  12 14696.7 765.908  15
  -1   1  11 699.380 222.364   2
  -1   1  11 954.152 231.636  15
  -1   1  11 814.634 230.244  11
  -1   1  10 353.071 122.157  10
  -1   1  10 586.928 217.415  11
  -1   1  10 473.150 141.968   7
  -1   1  10-74.2190 97.9956  14
  -1   1  10 105.313 160.833  15
  -1   1  10 600.048 165.658   2
  -1   1   9 4465.28 525.704  14
  -1   1   8 3115.59 429.590  14
  -1   1   8 4053.62 445.613  13
  -1   1   7 1615.36 274.355  13
  -1   1   7 1440.51 305.180  14
  -1   1   6 9186.53 578.118  19
  -1   1   6 10405.9 556.504  13
  -1   1   5 428.187 187.164  19
  -1   1   5 524.873 170.717  13
   1  -1  -5 459.737 76.5780  17
   1  -1  -4 26432.1 471.468  17
  -1   1   4 26064.3 687.151  13
  -1   1   4 25976.1 768.633  19
  -1   1   4 24602.2 661.932  20
  -1   1   3 104408. 1187.33  13
  -1   1   3 102213. 1117.33  20
  -1   1   3 104432. 1333.96  19
   1  -1  -3 104014. 955.373  17
  -1   1   2 44912.0 756.778  19
   1  -1  -2 46053.4 619.201  17
  -1   1   1 47226.1 489.008  20
   1  -1  -1 46952.6 618.611  17
   1  -1   0 369646. 1191.77  21
   1  -1   0 356597. 1670.43  17
   1  -1   1 20124.3 398.745  21
   1  -1   1 20013.4 396.449  17
   1  -1   2 182803. 1402.37  18
   1  -1   2 188689. 1476.89  21
   1  -1   3 87338.6 1018.72  14
   1  -1   3 88731.2 1146.39  13
   1  -1   4 54335.8 1028.73  13
   1  -1   4 50231.7 908.858  14
   1  -1   5 15675.7 581.150  14
   1  -1   5 16737.1 648.098  13
   1  -1   6 200.359 142.145  13
   1  -1   6 75.2315 121.850  14
   1  -1   7 4729.99 444.315  13
   1  -1   7 4018.56 366.804  14
   1  -1   8 3562.75 438.290  13
   1  -1   8 3076.81 351.165  14
   1  -1   9 1601.64 348.234  13
   1  -1  10 5091.90 437.055   3
   1  -1  10 4257.70 374.481  10
   1  -1  10 4280.34 424.162   2
   1  -1  10 4452.01 365.626   9
   1  -1  10 4717.73 416.379  11
   1  -1  10 4722.77 532.121  13
   1  -1  11 17307.8 771.348  11
   1  -1  11 17139.3 847.131   2
   1  -1  11 19379.8 808.074  10
   1  -1  11 18483.5 816.666   3
   1  -1  12 5297.48 443.193  10
   1  -1  12 4693.88 463.320   2
   1  -1  12 4708.72 419.265  11
   1  -1  13 124.140 139.538  11
   1  -1  13 279.743 206.716   2
   1  -1  13 133.455 160.145  10
   1  -1  14 1773.63 287.655   2
   1  -1  14 1616.38 236.486  11
   1  -1  15 6265.28 389.025   2
  -1   0  15 5466.21 342.685   2
  -1   0  14 366.515 174.610   2
  -1   0  14 515.579 184.929  11
  -1   0  13 941.222 212.573  15
  -1   0  13 315.102 202.474  11
  -1   0  13 761.773 236.973   2
  -1   0  12 771.783 248.663   2
  -1   0  12 845.572 269.001  11
  -1   0  12 285.183 162.612  15
  -1   0  11 15520.5 789.957  15
  -1   0  11 15407.7 788.039  11
  -1   0  11 14392.0 767.667   2
  -1   0  10 5263.07 442.935   3
  -1   0  10 5200.55 467.337   2
  -1   0  10 5545.93 458.606  11
  -1   0  10 5674.25 463.609  15
  -1   0  10 5506.19 436.896  10
  -1   0  10 5342.04 412.066   7
  -1   0  10 4449.12 552.878  14
  -1   0   9 7117.03 636.834  13
  -1   0   9 6990.72 638.186  14
  -1   0   8 5082.75 552.114  14
  -1   0   8 5235.83 485.521  13
  -1   0   7 20631.7 897.711  13
  -1   0   7 19228.3 923.858  14
  -1   0   6 32056.9 1087.43  14
  -1   0   6 33063.2 1016.29  13
  -1   0   5 5908.12 442.950  14
  -1   0   5 5822.86 407.284  13
  -1   0   4 98108.7 1394.10  13
  -1   0   4 93955.8 1498.76  14
   1   0  -4 95446.3 845.709  17
   1   0  -3 40602.7 558.157  17
  -1   0   3 40960.9 856.101  19
   1   0  -2 19978.7 388.914  17
  -1   0   2 19298.9 504.272  19
   1   0  -1 388023. 1614.32  17
  -1   0   1 375112. 1748.80  19
   1   0   0 70006.6 662.854  17
  -1   0   0 70402.8 536.291  19
   1   0   1 160731. 956.330  17
   1   0   2 24500.9 328.808  14
   1   0   2 24602.7 486.075  21
   1   0   2 24187.6 352.797  17
   1   0   3 86602.2 614.440  17
   1   0   3 85401.4 857.142  14
   1   0   3 93401.7 1107.70  21
   1   0   3 90801.0 855.866  18
   1   0   4 1307.56 197.124  21
   1   0   4 1463.73 161.343  14
   1   0   4 1495.15 200.181  13
   1   0   5 14164.8 510.352  14
   1   0   5 14776.2 575.668  13
   1   0   5 13759.9 575.599  21
   1   0   6 4107.13 364.218  13
   1   0   6 3894.48 307.599  14
   1   0   7 58773.6 1310.48  14
   1   0   7 60279.0 1416.37  13
   1   0   8 31880.6 1148.28  13
   1   0   8 30368.2 1034.65  14
   1   0   9 12227.6 783.268  13
   1   0  10 3636.77 482.928  13
   1   0  10 3688.95 345.141  10
   1   0  11 7024.56 522.304  11
   1   0  11 6923.80 502.009   3
   1   0  11 6311.35 515.105   2
   1   0  11 6160.59 453.842  10
   1   0  12 10404.7 652.582   2
   1   0  12 10231.6 599.785  10
   1   0  12 10042.1 628.209  11
   1   0  13 352.298 178.579  11
   1   0  13 273.669 190.825  10
   1   0  13 112.003 175.046   2
   1   0  14 3180.99 335.029  11
   1   0  14 2965.54 328.435   2
   1   0  15-34.9416 139.345   2
   1   0  15-118.893 119.389  11
   1   0  16 397.134 108.316   2
  -1  -1  15 506.836 151.180   2
  -1  -1  14 0.83582 176.896   2
  -1  -1  13-220.528 202.105   2
  -1  -1  13 167.118 170.823  11
  -1  -1  12 1404.12 264.699  15
  -1  -1  12 1045.30 251.179  11
  -1  -1  12 1558.89 309.110   2
  -1  -1  11 28051.1 1069.44   2
  -1  -1  11 26249.2 1002.62  11
  -1  -1  11 27649.5 1022.31  15
  -1  -1  11 26617.1 994.883   3
  -1  -1  10 999.764 236.214  15
  -1  -1  10 640.887 205.345   7
  -1  -1  10 557.895 227.916  11
  -1  -1  10 784.695 217.299   3
  -1  -1  10 850.390 271.180   2
  -1  -1  10 632.970 206.359  10
  -1  -1   9 10595.3 834.070  14
  -1  -1   8 20673.0 1017.83  13
  -1  -1   8 18334.5 1025.95  14
  -1  -1   7 17666.9 919.092  14
  -1  -1   7 17751.8 864.173  13
  -1  -1   6 50398.1 1312.43  13
  -1  -1   6 47950.4 1370.93  14
  -1  -1   5 5737.65 416.812  13
  -1  -1   5 5093.08 422.331  14
   1   1  -4 8417.48 288.684  17
  -1  -1   4 9053.87 466.520  13
  -1  -1   4 8890.71 498.329  14
  -1  -1   3 46484.0 984.263  14
   1   1  -3 46433.8 664.011  17
  -1  -1   3 48445.4 919.348  13
   1   1  -2 27391.4 500.223  17
  -1  -1   1 143642. 1253.75  14
   1   1  -1 146021. 1092.05  17
  -1  -1   0 211077. 1175.41  14
   1   1   0 203490. 854.911  20
   1   1   1 44112.3 456.376  20
   1   1   2 408999. 1203.45  19
   1   1   2 409447. 1873.52  20
   1   1   2 405144. 1530.36  17
   1   1   3 24825.7 543.330  21
   1   1   3 24907.0 340.284  17
   1   1   3 25306.2 317.653  18
   1   1   3 24031.4 442.500  19
   1   1   3 25840.6 591.982  20
   1   1   4 51628.2 761.672  14
   1   1   4 55058.1 889.562  13
   1   1   4 51941.9 901.740  21
   1   1   4 54817.5 1017.37  20
   1   1   5 44951.2 927.451  13
   1   1   5 42830.4 920.916  21
   1   1   5 43167.1 826.200  14
   1   1   6 931.773 195.814  21
   1   1   6 1329.23 220.162  13
   1   1   6 888.286 168.058  14
   1   1   7 14323.6 665.685  13
   1   1   7 12310.2 581.795  14
   1   1   8 7014.95 532.572  13
   1   1   8 6680.03 482.526  14
   1   1   9 12952.3 788.547  13
   1   1  10 8454.59 690.499  13
   1   1  11-165.088 159.364  11
   1   1  11 105.406 148.161   2
   1   1  11 118.683 145.276  10
   1   1  12-276.413 193.504  11
   1   1  12 180.970 156.455  10
   1   1  12-140.426 152.851   2
   1   1  13 144.646 160.221  11
   1   1  13 17.9323 147.842  10
   1   1  13-157.986 149.694   2
   1   1  14 561.074 191.113  10
   1   1  14 681.139 209.982   2
   1   1  14 716.636 207.096  11
   1   1  15 834.304 200.283  11
   1   1  15 766.536 195.158   2
   1   1  16 2185.24 222.531  11
   1   1  16 2452.53 227.386   2
  -1  -2  14 1892.82 248.059   2
  -1  -2  13 1676.83 295.479   2
  -1  -2  12 721.935 192.568  11
  -1  -2  12 381.832 207.491   2
  -1  -2  11 594.667 222.112  11
  -1  -2  11 941.902 280.978   3
  -1  -2  11 395.261 153.507  15
  -1  -2  11 828.808 243.916   2
  -1  -2  10 7846.59 513.343   7
  -1  -2  10 7655.32 590.976   2
  -1  -2  10 7149.34 529.678  11
  -1  -2  10 7044.22 514.157  15
  -1  -2  10 7373.85 542.120   3
  -1  -2   9 809.427 191.340  15
  -1  -2   9 1779.48 270.523  10
  -1  -2   9 1548.11 252.724   2
  -1  -2   9 1809.84 266.353   7
  -1  -2   9 1654.95 295.826   3
  -1  -2   9 473.668 198.775  14
  -1  -2   9 1642.76 258.821  11
  -1  -2   8 11926.2 844.089  14
  -1  -2   8 13620.9 860.981  13
  -1  -2   7 6093.90 579.131  14
  -1  -2   7 6586.38 562.833  13
  -1  -2   6 18491.1 852.233  13
  -1  -2   6 17402.2 870.254  14
  -1  -2   5 53.4865 146.158  14
  -1  -2   5 177.218 175.003  13
   1   2  -4 41.5013 52.8115  17
  -1  -2   4 67.0041 130.453  13
  -1  -2   4 85.9120 168.593  14
  -1  -2   3 41.7968 125.939  14
  -1  -2   3 29.7086 134.432  13
  -1  -2   2 25997.1 622.942  13
  -1  -2   1 82502.8 935.469  13
  -1  -2   0 2221.94 170.263  14
   1   2   0 2127.09 145.834  20
   1   2   1 226738. 1353.81  20
   1   2   2 1514.03 143.258  20
   1   2   3 125119. 1275.49  20
   1   2   3 124506. 1000.98  19
   1   2   4 37751.8 680.521  13
   1   2   4 35452.1 805.891  20
   1   2   4 36025.4 663.777  19
   1   2   5 6527.07 165.946  17
   1   2   5 7382.33 364.233  13
   1   2   5 6765.80 421.737  20
   1   2   5 6937.96 355.230  19
   1   2   5 7457.05 381.593  21
   1   2   6 1788.27 227.217  13
   1   2   6 1626.71 267.909  20
   1   2   6 1835.05 231.770  21
   1   2   6 1526.93 215.512  19
   1   2   7 65297.6 1337.79  13
   1   2   7 62439.0 1269.98  14
   1   2   7 65880.1 1337.20  21
   1   2   8 3350.14 360.953  13
   1   2   8 3079.26 338.267  14
   1   2   9 2510.70 330.029  13
   1   2  10 7144.10 599.408  13
   1   2  11 7041.82 458.613  10
   1   2  11 7337.69 513.824  11
   1   2  11 6985.54 440.101  12
   1   2  11 6519.72 497.665   2
   1   2  11 6878.34 616.674  13
   1   2  12 11527.3 661.395   2
   1   2  12 11763.9 583.084  12
   1   2  12 10968.2 668.612  11
   1   2  12 12074.1 632.182  10
   1   2  13 1105.91 235.338   2
   1   2  13 1286.52 237.103  10
   1   2  13 883.062 236.603  11
   1   2  14 2086.50 285.380  10
   1   2  14 1805.66 272.649   2
   1   2  14 2012.96 319.266  11
   1   2  15 662.945 198.508  11
   1   2  15 506.805 184.776   2
   1   2  16 252.493 139.113   2
   1   2  16 342.624 137.308  11
  -1  -3  14 2065.24 227.043   2
  -1  -3  13 1421.42 250.879   2
  -1  -3  12 377.482 232.269   2
  -1  -3  11 320.726 184.659   2
  -1  -3  11 36.5682 135.238  11
  -1  -3  11 387.765 209.303   3
  -1  -3  10 4134.03 431.785   3
  -1  -3  10 3921.05 396.722  15
  -1  -3  10 4138.92 406.657  11
  -1  -3  10 3783.03 422.024   2
  -1  -3   9 5119.32 438.005  15
  -1  -3   9 5268.86 463.765   3
  -1  -3   9 5147.63 439.929  11
  -1  -3   9 5425.25 471.293   2
  -1  -3   9 5207.89 425.473   7
  -1  -3   8 3800.52 510.436  13
  -1  -3   8 3753.61 363.366   3
  -1  -3   8 4015.89 347.973  10
  -1  -3   8 2755.60 423.406  14
  -1  -3   7 7993.44 661.002  13
  -1  -3   7 9085.87 706.708  14
  -1  -3   6 6832.52 553.681  13
  -1  -3   6 5859.84 552.293  14
  -1  -3   5 13546.6 692.385  13
  -1  -3   5 13730.0 748.689  14
  -1  -3   4 33449.4 1075.15  14
  -1  -3   4 34475.4 983.179  13
  -1  -3   3 189149. 2030.01  13
  -1  -3   3 211218. 2424.06  14
  -1  -3   2 20370.8 600.433  13
  -1  -3   2 20973.6 695.733  14
  -1  -3   1 430272. 2289.81  13
   1   3   0 621071. 2821.68  20
   1   3   1 9855.45 362.568  20
   1   3   2 233982. 1750.33  20
   1   3   3-9.75460 121.039  20
   1   3   4 22639.3 653.747  20
   1   3   4 23472.0 491.523  13
   1   3   5 215403. 1930.95  19
   1   3   5 216233. 2257.12  20
   1   3   5 220618. 1766.88  13
   1   3   5 213196. 1924.54  21
   1   3   6 86640.2 1587.78  20
   1   3   6 84009.8 1335.80  21
   1   3   6 82595.9 1361.74  19
   1   3   6 86556.9 1284.87  13
   1   3   7 67634.0 1285.94  13
   1   3   7 64457.7 1346.67  19
   1   3   7 63931.9 1524.42  20
   1   3   7 64872.5 1301.78  21
   1   3   8 64795.6 1397.40  21
   1   3   8 64284.4 1419.40  13
   1   3   9 3116.94 345.091  13
   1   3  10 9204.99 648.958  13
   1   3  11 18279.6 787.629  11
   1   3  11 17990.3 699.584  12
   1   3  11 17182.5 687.341  10
   1   3  11 17273.4 949.797  13
   1   3  12 4049.25 410.901  11
   1   3  12 3443.69 352.840  10
   1   3  12 3571.67 361.918   2
   1   3  12 3935.14 345.435  12
   1   3  13 2818.50 335.203   2
   1   3  13 3031.77 370.670  11
   1   3  13 2851.53 333.296  10
   1   3  14 6104.06 500.958  11
   1   3  14 5492.88 432.453   2
   1   3  14 6129.29 443.417  10
   1   3  15 1884.25 242.415   2
   1   3  15 1756.56 285.045  11
   1   3  16-86.8156 134.328  11
   1   3  17 1258.16 167.576  11
  -1  -4  14 787.322 128.032   2
  -1  -4  13 9723.15 471.476   2
  -1  -4  12-111.387 158.911   2
  -1  -4  11 12390.9 673.824   3
  -1  -4  11 12631.1 696.853   2
  -1  -4  10 1107.82 266.231   3
  -1  -4  10 1466.47 308.727   2
  -1  -4   9 2123.37 348.013   2
  -1  -4   9 2855.90 312.896  11
  -1  -4   9 1739.03 294.658   3
  -1  -4   9 2205.33 320.629   7
  -1  -4   9 2198.28 315.475  15
  -1  -4   8 4939.19 466.717   2
  -1  -4   8 5239.41 462.164   3
  -1  -4   8 5213.59 423.412   9
  -1  -4   8 5537.31 433.549   7
  -1  -4   8 5296.82 436.063  15
  -1  -4   8 4988.65 427.328  11
  -1  -4   7 1604.65 306.331  14
  -1  -4   7 2107.29 352.638  13
  -1  -4   6 1913.64 319.901  13
  -1  -4   6 1903.41 343.819  14
  -1  -4   5 1988.78 331.123  14
  -1  -4   5 2046.32 309.392  13
  -1  -4   4 2579.12 303.645  13
  -1  -4   4 2950.67 363.116  14
  -1  -4   3 5469.17 385.021  13
  -1  -4   3 6181.94 475.728  14
  -1  -4   2 875.575 157.029  13
  -1  -4   2 679.182 178.014  14
   1   4  -1 3966.65 312.410  20
  -1  -4   1 3991.61 252.138  13
   1   4   0 1227.52 198.958  20
   1   4   1 44177.7 883.468  20
   1   4   2 21548.7 631.205  20
   1   4   3 138942. 725.363  13
   1   4   3 148056. 1649.65  20
   1   4   4 200246. 1221.21  13
   1   4   4 207454. 2057.53  20
   1   4   5 5779.37 352.182  19
   1   4   5 5613.03 268.875  13
   1   4   5 5655.16 405.760  20
   1   4   6 9081.34 398.116  13
   1   4   6 10148.0 498.453  19
   1   4   6 9551.09 452.414  21
   1   4   6 9664.02 561.545  20
   1   4   7 32647.5 979.620  19
   1   4   7 34359.5 1124.11  20
   1   4   7 33068.0 899.317  21
   1   4   7 34984.6 879.450  13
   1   4   8 4715.54 377.834  21
   1   4   8 4538.09 371.869  13
   1   4   8 4594.07 493.438  20
   1   4   8 4954.15 444.972  19
   1   4   9 1838.25 308.139  19
   1   4   9 1956.76 272.549  21
   1   4   9 1321.49 221.442  13
   1   4  10 17964.5 860.849  13
   1   4  11 4638.34 475.265  13
   1   4  11 4567.11 410.207  11
   1   4  11 4641.08 369.152  12
   1   4  12 6204.60 492.923  11
   1   4  12 5713.75 414.758  10
   1   4  13-166.843 177.645  11
   1   4  13-116.056 118.563  10
   1   4  14 78.8698 141.075  10
   1   4  14 120.490 182.854  11
   1   4  15 3253.63 352.902  11
   1   4  16 518.950 182.230  11
   1   4  17 117.025 99.9952  11
  -1  -5  13 137.330 101.695   2
  -1  -5  12 222.410 162.183   2
  -1  -5  11 148.122 191.726   3
  -1  -5  11 15.8689 136.809   2
  -1  -5  10 1389.64 256.466   2
  -1  -5  10 1014.86 245.369   3
  -1  -5   9 2575.58 356.497   3
  -1  -5   9 2669.98 380.318   2
  -1  -5   8 33081.3 1127.78   3
  -1  -5   8 33599.2 1044.65   9
  -1  -5   8 33644.9 1040.08   7
  -1  -5   8 33322.2 1145.65   2
  -1  -5   7 5506.89 431.395   9
  -1  -5   7 5251.73 399.562   7
  -1  -5   7 5234.81 459.741   2
  -1  -5   5 8603.44 599.554  13
  -1  -5   4 13072.2 686.180  13
  -1  -5   3 11084.2 564.384  13
  -1  -5   2 113611. 1575.48  13
   1   5  -2 116221. 1893.57  20
   1   5  -1 16231.7 665.043  20
   1   5   0 23645.3 759.909  20
   1   5   1 211540. 2196.86  20
   1   5   2 13290.7 560.752  20
   1   5   3 24753.2 760.673  20
   1   5   4 29853.1 856.192  20
   1   5   5 42435.8 1072.48  20
   1   5   5 39251.3 572.202  13
   1   5   6 2000.01 188.775  13
   1   5   6 1912.02 264.260  19
   1   5   6 1641.28 289.428  20
   1   5   7 82374.8 1236.66  13
   1   5   7 81609.7 1583.36  19
   1   5   7 80032.9 1372.14  21
   1   5   7 83552.7 1773.06  20
   1   5   8 46208.7 1121.54  21
   1   5   8 46881.1 1453.77  20
   1   5   8 46058.2 1309.98  19
   1   5   9 42781.6 1364.98  19
   1   5   9 41420.8 1486.15  20
   1   5  10-36.3944 171.548  19
   1   5  11 433.167 153.882  11
   1   5  12 11618.4 649.955  11
   1   5  13 2551.80 341.996  11
   1   5  14 5718.64 394.014  10
   1   5  14 5118.24 432.636  15
   1   5  14 5091.53 452.848  11
   1   5  15 696.173 229.143  11
   1   5  16 74.2963 152.118  11
   1   5  17 409.788 143.056  11
  -1  -6  12 117.554 106.774   2
  -1  -6  11 2834.62 311.057   2
  -1  -6  11 2865.85 310.089   3
  -1  -6  10 3732.57 365.900   2
  -1  -6  10 3468.80 373.899   3
  -1  -6   9 173.514 189.729   2
  -1  -6   9 59.0108 186.386   3
  -1  -6   8 4087.82 440.679   3
  -1  -6   8 3547.72 397.398   2
  -1  -6   7 31459.2 979.147   7
  -1  -6   7 33221.7 1035.03   9
  -1  -6   7 32045.5 1108.53   2
  -1  -6   6 24770.3 933.759   2
   1   6  -6 25824.7 1259.95  20
  -1  -6   6 26787.4 902.591   9
  -1  -6   6 24182.5 822.691   7
   1   6  -5 66110.9 1907.47  20
   1   6  -4 401.570 210.749  20
   1   6  -3 14102.2 781.353  20
   1   6  -2 1843.89 284.473  20
   1   6  -1 16287.7 752.657  20
   1   6   0 9520.81 561.925  20
   1   6   1 84921.1 1567.35  20
   1   6   2 59186.6 1296.94  20
   1   6   3 39.1175 174.393  20
   1   6   4 61464.0 1340.38  20
   1   6   5 14395.4 689.454  20
   1   6   6 89928.9 1774.51  20
   1   6   7 16103.4 633.356  21
   1   6   7 15458.6 803.244  20
   1   6   7 14696.8 713.686  19
   1   6   8 5410.61 476.260  19
   1   6   8 5956.56 559.090  20
   1   6   9 15884.2 856.039  19
   1   6   9 15052.4 919.154  20
   1   6  10 2386.79 451.568  20
   1   6  10 3102.06 445.373  19
   1   6  11 105.644 155.404  11
   1   6  12 148.145 165.992  11
   1   6  13 622.419 222.965  11
   1   6  14-91.9519 169.656  15
   1   6  14 272.906 181.916  11
   1   6  15 4107.33 376.426  15
   1   6  15 3664.19 364.764  11
   1   6  16 1665.83 248.763  11
   1   6  17 2679.15 241.577  11
  -1  -7  11 1022.61 171.795   2
  -1  -7  11 1204.40 197.547   3
  -1  -7  10 1752.73 276.631   3
  -1  -7  10 1398.48 228.117   2
  -1  -7   9 14723.5 706.998   2
  -1  -7   9 15212.4 735.505   3
  -1  -7   8 8839.98 591.801   2
  -1  -7   8 7923.85 571.518   3
  -1  -7   7 83.4414 150.669   9
  -1  -7   7 101.581 183.375   2
  -1  -7   6 23217.9 864.744   9
  -1  -7   6 21043.2 878.743   2
  -1  -7   5 11930.8 564.026   7
  -1  -7   5 10141.9 567.330   9
   1   7  -5 10910.5 821.009  20
  -1  -7   5 11216.2 579.616  16
   1   7  -4 16570.3 964.460  20
   1   7  -3 24117.5 1106.04  20
   1   7  -2 2207.98 345.300  20
   1   7  -1 42312.1 1324.67  20
   1   7   0 14835.7 768.317  20
   1   7   1 54845.4 1420.17  20
   1   7   2 1771.15 304.239  20
   1   7   3 1159.08 241.299  20
   1   7   4 12159.8 678.749  20
   1   7   5 79024.7 1693.98  20
   1   7   6 9426.87 629.361  20
   1   7   7 30370.6 1070.47  19
   1   7   7 29153.7 1135.51  20
   1   7   8 1555.93 332.378  20
   1   7   8 2443.99 350.627  19
   1   7   9 28604.4 1292.38  20
   1   7   9 29624.1 1200.79  19
   1   7  10 5876.71 578.003  19
   1   7  10 6311.23 690.364  20
   1   7  11 6697.02 474.679  11
   1   7  11 6911.79 721.301  20
   1   7  11 6504.48 460.700   5
   1   7  12 12223.4 662.168  11
   1   7  13 3006.15 359.296  11
   1   7  14 23687.3 896.598  11
   1   7  15 1841.72 287.008  11
   1   7  15 2196.93 299.147  15
   1   7  16 953.285 206.681  11
   1   7  17 1048.96 168.748  11
  -1  -8  10 70.1266 95.1806   2
  -1  -8  10-19.1016 158.460   3
  -1  -8   9 3446.70 312.972   2
  -1  -8   9 3727.24 355.137   3
  -1  -8   8 346.991 182.557   2
  -1  -8   8 366.402 214.462   3
  -1  -8   7 20951.7 823.884   9
  -1  -8   6 32209.4 1025.76   9
  -1  -8   6 32625.5 980.457  16
  -1  -8   5 3588.62 360.646   9
  -1  -8   5 3420.70 357.763  16
  -1  -8   4 2402.34 298.928  16
  -1  -8   4 2594.80 298.869  15
   1   8  -4 1948.08 360.819  20
  -1  -8   4 2415.03 283.025   9
   1   8  -3 4554.93 536.772  20
   1   8  -2 7428.61 654.345  20
   1   8  -1 20134.7 1019.56  20
   1   8   0-155.820 149.189  20
   1   8   1 3673.10 431.940  20
   1   8   2 19555.8 924.132  20
   1   8   3 1649.93 309.437  20
   1   8   4 27132.3 1091.76  20
   1   8   5 16428.9 856.961  20
   1   8   6 458.480 208.712  20
   1   8   7-248.462 205.135  20
   1   8   8 3273.48 454.129  20
   1   8   8 3413.26 431.061  19
   1   8   9 17720.3 1059.18  20
   1   8   9 17920.4 981.460  19
   1   8  10 11154.2 893.027  20
   1   8  10 10136.6 581.691   5
   1   8  10 9347.68 548.154  11
   1   8  11-333.676 175.606   5
   1   8  11 309.756 179.419  11
   1   8  12 11334.8 623.159   5
   1   8  12 10686.5 602.209  11
   1   8  13 5284.43 423.097   5
   1   8  13 4427.57 405.196  11
   1   8  14 4160.98 395.492  11
   1   8  15 335.518 191.892  11
   1   8  15 150.897 138.225  15
   1   8  16 389.523 127.604  15
   1   8  16 170.806 143.942  11
   1   8  17 2724.58 222.624  11
  -1  -9  10 1245.19 162.635   3
  -1  -9   9 11138.2 498.923   3
  -1  -9   8 13675.4 635.341   3
  -1  -9   7 8370.82 557.805   3
  -1  -9   6 4699.68 402.186   9
  -1  -9   6 5136.01 396.466  16
  -1  -9   5 25539.6 901.873   9
  -1  -9   5 27833.1 941.400  16
  -1  -9   4 2413.20 318.653  16
  -1  -9   4 1931.43 276.460   9
  -1  -9   3 11868.9 595.444   9
  -1  -9   3 11582.8 620.153  16
  -1  -9   2 1637.00 261.668  16
   1   9  -2 2536.80 407.439  20
   1   9  -1 3207.70 429.971  20
   1   9   0 4848.08 516.950  20
   1   9   1 52628.0 1676.01  20
   1   9   2 34034.9 1322.96  20
   1   9   3 18702.9 970.436  20
   1   9   4 25247.2 1142.43  20
   1   9   5 542.992 261.324  20
   1   9   6 4062.24 514.688  20
   1   9   7 1850.83 361.657  20
   1   9   8 26162.1 1259.15  20
   1   9   8 25883.3 1166.07  19
   1   9   9 2933.99 459.704  20
   1   9   9 2072.22 352.509  19
   1   9   9 2696.87 307.839   5
   1   9  10 5990.81 420.763  11
   1   9  10 5997.49 478.224   5
   1   9  11 595.174 198.618   5
   1   9  11 909.416 217.984  11
   1   9  12 567.784 189.618  11
   1   9  12-466.425 146.277   5
   1   9  13 23980.4 860.457  11
   1   9  13 24853.7 892.708   5
   1   9  14 1139.59 214.436   5
   1   9  14 863.710 189.115  11
   1   9  15 401.872 171.015  11
   1   9  16 77.6256 119.468  15
   1   9  16 374.310 138.876  11
  -1 -10   9 1013.85 150.484   3
  -1 -10   8 13759.1 548.658   3
  -1 -10   7 26088.8 859.893   3
  -1 -10   6 107.502 152.150  16
  -1 -10   5 3256.67 326.124   9
  -1 -10   5 2887.01 332.370  16
  -1 -10   4 6816.16 488.083  16
  -1 -10   4 7028.28 472.280   9
  -1 -10   3 1263.85 241.829   9
  -1 -10   3 1464.42 273.793  16
  -1 -10   2 3330.85 357.235  16
  -1 -10   1 1467.48 259.175  16
  -1 -10   0 1443.65 257.558  16
  -1 -10   0 1155.68 225.050   1
   1  10   0 1396.89 329.444  20
  -1 -10  -1-405.887 186.821   1
  -1 -10  -1-246.727 170.939  16
   1  10   2 1202.00 306.140  20
   1  10   3 2858.30 442.528  20
   1  10   4 39356.5 1526.86  20
   1  10   5 12094.6 851.124  20
   1  10   6 57273.6 1826.57  20
   1  10   7 7648.75 493.288   5
   1  10   7 8176.63 714.932  20
   1  10   8 1726.02 272.416   5
   1  10   8 1006.22 378.866  20
   1  10   8 1553.43 344.431  19
   1  10   9 15556.5 739.227   5
  -1 -10  -9 15657.6 709.351   1
   1  10  10 18991.6 826.473   5
   1  10  11 251.824 189.269   5
   1  10  12 1.14358 175.744   5
   1  10  12 244.235 142.130  11
   1  10  13 3901.88 352.823  11
   1  10  13 3952.82 388.480   5
   1  10  14 139.046 137.479   5
   1  10  14-253.646 145.481  11
   1  10  15 2642.71 262.102  11
   1  10  16 568.497 114.229  11
   1  10  16 515.575 143.207  15
  -1 -11   7-46.9800 134.968   3
  -1 -11   6 35759.3 971.843   3
  -1 -11   6 34677.7 829.935  16
  -1 -11   5 11136.2 548.367  16
  -1 -11   4-349.113 189.882  16
  -1 -11   4 154.055 136.934   9
  -1 -11   3 542.456 216.539  16
  -1 -11   2 2181.71 323.790  16
  -1 -11   1 1444.37 282.249  16
  -1 -11   0 23165.3 884.064  16
  -1 -11   0 23662.9 887.173   1
  -1 -11  -1 5767.72 452.272  16
  -1 -11  -1 6097.91 476.601   1
  -1 -11  -2 12272.7 654.148   1
  -1 -11  -2 12937.2 641.970  16
   1  11   3 9879.37 847.913  20
  -1 -11  -3 10918.1 618.071   1
  -1 -11  -3 10330.7 553.742  16
   1  11   4 3050.33 513.970  20
  -1 -11  -4 2842.58 308.834  16
  -1 -11  -4 2799.06 340.190   1
   1  11   5 4496.34 595.498  20
   1  11   5 4642.44 390.760   5
  -1 -11  -5 4272.40 399.619   1
  -1 -11  -6 1858.21 317.093   1
   1  11   6 1631.02 269.592   5
  -1 -11  -7 26.9432 139.526   1
   1  11   7-82.7918 119.292   5
   1  11   8 12995.4 680.876   5
  -1 -11  -8 13227.5 680.351   1
  -1 -11  -9 304.794 130.620   1
   1  11   9 579.543 229.215   5
   1  11  10 9659.90 610.304   5
  -1 -11 -10 8936.86 545.910   1
   1  11  11 192.293 174.215   5
   1  11  12 8326.97 550.438   5
   1  11  13 175.183 186.426   5
   1  11  14 308.029 151.935   5
   1  11  15 223.774 117.214   5
   1  11  16-89.6447 87.2402  15
  -1 -12   6 192.939 132.289   3
  -1 -12   5 2143.34 238.670  16
  -1 -12   4 45.2174 149.640  16
  -1 -12   3 4960.85 406.516  16
  -1 -12   2 1077.72 247.119  16
  -1 -12   1 241.788 201.569  16
  -1 -12   0 33.4681 147.828   1
  -1 -12   0 33.2561 181.532  16
  -1 -12  -1 6878.78 508.628  16
  -1 -12  -1 7027.12 523.964   1
  -1 -12  -2 2845.28 340.413   1
  -1 -12  -2 2582.39 343.208  16
  -1 -12  -3 5079.41 455.657   1
  -1 -12  -3 4833.69 398.908  16
  -1 -12  -4 1271.26 257.180  16
  -1 -12  -4 1034.10 263.830   1
   1  12   5 31314.4 968.038   5
  -1 -12  -5 31894.2 1091.56   1
   1  12   6 6379.90 458.522   5
  -1 -12  -6 7063.03 520.489   1
   1  12   7 39805.7 1161.45   5
  -1 -12  -7 39679.0 1195.74   1
   1  12   8 4647.58 422.106   5
  -1 -12  -8 5032.45 436.700   1
  -1 -12  -9 1273.33 253.743   1
   1  12   9 1351.25 264.444   5
  -1 -12 -10 24183.6 866.276   1
   1  12  10 23968.8 926.205   5
  -1 -12 -11 3496.16 318.192   1
   1  12  11 3240.41 358.926   5
   1  12  12 5432.97 439.363   5
   1  12  13 5166.77 401.758   5
   1  12  14 1192.94 216.855   5
   1  12  15 327.812 123.096   5
  -1 -13   5-8.02156 93.7189   3
  -1 -13   4 61.7253 110.445  16
  -1 -13   3 402.114 165.256  16
  -1 -13   2 526.951 196.482  16
  -1 -13   1 807.173 212.140  16
  -1 -13   0 18950.4 758.662  16
  -1 -13  -1 955.783 227.982  16
  -1 -13  -1 788.742 209.551   1
  -1 -13  -2 811.231 206.730  16
  -1 -13  -2 919.277 208.676   1
  -1 -13  -3 3851.63 413.458   1
  -1 -13  -3 3869.16 368.123  16
  -1 -13  -4 598.765 185.086  16
  -1 -13  -4 292.657 199.784   1
  -1 -13  -5 16115.1 777.344   1
  -1 -13  -6 1687.03 291.073   1
   1  13   6 2034.20 281.281   5
   1  13   7 21757.7 841.927   5
  -1 -13  -7 23218.4 923.069   1
   1  13   8 153.449 161.563   5
  -1 -13  -8-204.983 182.084   1
  -1 -13  -9 2182.53 299.139   1
   1  13   9 1848.50 289.308   5
   1  13  10 115.352 143.111   5
  -1 -13 -10 99.2586 108.874   1
  -1 -13 -11 493.564 169.494   1
   1  13  11 494.837 199.990   5
   1  13  12 18972.5 738.693   5
   1  13  13 1162.92 209.091   5
   1  13  14 215.155 135.989   5
  -1 -14   3-195.318 107.618  16
  -1 -14   2 62.7712 128.960  16
  -1 -14   1 2016.75 248.050  16
  -1 -14   0 1542.92 233.478  16
  -1 -14  -1 11303.3 548.501  16
  -1 -14  -1 10842.7 528.801   1
  -1 -14  -2 1666.94 249.876   1
  -1 -14  -2 2039.19 260.934  16
  -1 -14  -3 1266.78 220.499  16
  -1 -14  -3 1471.32 263.618   1
  -1 -14  -4 1217.91 197.465  16
  -1 -14  -4 1242.85 245.365   1
  -1 -14  -5 3328.23 361.290   1
  -1 -14  -6-61.3379 189.546   1
  -1 -14  -7 8935.48 575.580   1
   1  14   7 8627.40 501.951   5
   1  14   8 598.342 198.620   5
  -1 -14  -8 512.521 199.691   1
   1  14   9 488.953 169.978   5
  -1 -14  -9 354.345 167.040   1
  -1 -14 -10 503.997 172.020   1
   1  14  10 607.562 181.957   5
   1  14  11 8707.23 490.928   5
  -1 -14 -11 9070.08 448.122   1
   1  14  12 1116.48 206.680   5
   1  14  13 5509.34 338.630   5
   1  14  14 97.2972 96.8269   5
  -1 -15   1-12.3282 100.371  16
  -1 -15   0 13504.5 475.390  16
  -1 -15  -1 315.603 136.208  16
  -1 -15  -2 597.907 163.150  16
  -1 -15  -2 498.295 151.947   1
  -1 -15  -3 1060.37 179.876  16
  -1 -15  -3 827.845 191.910   1
  -1 -15  -4 2334.02 279.656   1
  -1 -15  -4 2212.32 224.864  16
  -1 -15  -5-6.29566 157.782   1
  -1 -15  -6 894.543 210.696   1
  -1 -15  -7 661.853 197.548   1
   1  15   8 1066.15 199.426   5
  -1 -15  -8 842.410 204.732   1
   1  15   9 1553.90 221.654   5
  -1 -15  -9 1607.85 228.120   1
   1  15  10 743.144 169.216   5
  -1 -15 -10 519.824 155.474   1
   1  15  11 4539.76 311.535   5
  -1 -15 -11 4288.06 282.732   1
   1  15  12 7748.58 369.201   5
  -1 -16  -3 117.319 93.4505   1
  -1 -16  -4 1483.08 185.941   1
  -1 -16  -5 1010.35 170.183   1
  -1 -16  -6 839.400 177.471   1
  -1 -16  -7 7454.25 393.001   1
  -1 -16  -8 2209.44 234.163   1
  -1 -16  -9 198.981 105.702   1
  -1 -16 -10 25.1870 92.0351   1
   2 -15  -7 742.713 136.528   1
   2 -15  -6-131.475 105.608   1
   2 -15  -5 1053.65 158.771   1
   2 -15  -4 961.048 154.457   1
   2 -15  -3 1784.61 187.522   1
  -2  14  10 2612.90 213.119   5
  -2  14   9 145.044 110.721   5
  -2  14   8 2080.50 203.422   5
   2 -14  -8 1806.58 217.792   1
   2 -14  -7 277.843 128.915   1
   2 -14  -6 585.582 183.892   1
   2 -14  -5 309.630 177.784   1
   2 -14  -4 2796.57 302.516   1
   2 -14  -3 1373.06 229.566   1
   2 -14  -2 5196.39 370.040   1
   2 -14  -1 3219.03 281.802   1
   2 -14   0 1895.21 207.016   1
  -2  13  12 292.736 102.497  15
  -2  13  12 437.722 128.785   5
  -2  13  11 2942.64 268.158   5
  -2  13  10 6395.15 392.102   5
  -2  13   9 2612.24 284.054   5
   2 -13  -8 463.473 190.933   1
  -2  13   8 350.461 169.806   5
  -2  13   7 2046.16 262.089   5
   2 -13  -7 1584.98 262.370   1
   2 -13  -6 4264.12 395.394   1
   2 -13  -5 11509.2 633.034   1
   2 -13  -4 7507.11 532.606   1
   2 -13  -3 4963.63 447.129   1
   2 -13  -2 364.158 196.672   1
   2 -13  -2 477.995 184.538  16
   2 -13  -1 60.3657 173.737   1
   2 -13  -1 308.652 177.773  16
   2 -13   0 52.5119 147.983  16
   2 -13   0-127.395 137.715   1
   2 -13   1 102.951 144.013  16
   2 -13   1 197.128 132.136   1
  -2  12  13 34.4275 87.2221   5
  -2  12  13 142.833 109.483  15
  -2  12  12 3277.91 283.852   5
  -2  12  11 3132.96 322.893   5
  -2  12  10 372.204 164.940   5
  -2  12   9 2295.52 303.051   5
   2 -12  -8 5204.66 406.803   1
  -2  12   8 5055.40 419.283   5
   2 -12  -7 21542.3 837.725   1
  -2  12   7 19370.5 789.290   5
   2 -12  -6 5981.72 487.945   1
  -2  12   6 6336.07 454.536   5
   2 -12  -5 2407.51 335.265   1
   2 -12  -4 3022.43 376.037   1
   2 -12  -3 2033.60 281.991  16
   2 -12  -3 2066.48 334.590   1
   2 -12  -2 106.567 187.431   1
   2 -12  -2 354.805 173.843  16
   2 -12  -1 9059.34 535.871  16
   2 -12  -1 8835.66 598.108   1
   2 -12   0-93.5614 144.854   1
   2 -12   0 124.325 153.081  16
   2 -12   1 196.909 128.953   9
   2 -12   1 143.459 180.145  16
   2 -12   1 389.878 181.977   1
   2 -12   2 466.593 174.402   1
   2 -12   2 706.392 166.563   9
   2 -12   2 718.189 204.118  16
   2 -12   3 3997.92 340.286  16
   2 -12   3 3579.30 292.170   9
   2 -12   4 139.452 101.197   9
   2 -12   4 452.010 162.464  16
   2 -12   5 13.1751 74.5873   9
  -2  11  14 358.330 90.5790   5
  -2  11  14 365.439 126.702  15
  -2  11  13 753.592 180.123  15
  -2  11  13 969.529 178.310   5
  -2  11  12-66.2428 96.9575   5
  -2  11  11 21671.5 830.286   5
  -2  11  10 2074.63 305.562   5
  -2  11   9 297.327 189.226   5
  -2  11   8 4174.68 409.974   5
   2 -11  -8 3976.12 393.408   1
   2 -11  -7 6288.09 491.304   1
  -2  11   7 5936.01 469.902   5
  -2  11   6 645.345 189.802   5
   2 -11  -6 480.487 176.685   1
  -2  11   5 6931.20 499.691   5
   2 -11  -5 6380.16 524.812   1
   2 -11  -4 2308.21 325.871   1
   2 -11  -3 50227.7 1216.37  16
   2 -11  -3 49053.5 1390.69   1
   2 -11  -2 20462.6 905.271   1
   2 -11  -2 19975.0 791.170  16
   2 -11  -1 11610.0 693.353   1
   2 -11  -1 11557.3 629.020  16
   2 -11   0 1903.17 326.583   1
   2 -11   0 1546.01 277.431  16
   2 -11   0 1825.89 251.170   9
   2 -11   1 6604.32 461.956   9
   2 -11   1 6807.96 502.881  16
   2 -11   1 7574.54 545.526   1
   2 -11   2-17.0569 147.432   9
   2 -11   2-122.386 153.214   1
   2 -11   2 231.171 163.263  16
   2 -11   3 19456.2 785.045  16
   2 -11   3 18106.2 711.435   9
   2 -11   4 410.135 165.480   9
   2 -11   4 740.936 231.591  16
   2 -11   5 4605.67 356.029  16
   2 -11   5 4942.47 352.569   9
   2 -11   6 7343.57 377.957   9
  -2  10  15 1571.16 168.447  15
  -2  10  14 551.408 142.394   5
  -2  10  14 248.168 137.258  15
  -2  10  13 5.54590 126.076   5
  -2  10  12 5157.13 412.708   5
  -2  10  11 508.176 217.391   5
  -2  10  10 5177.68 459.515   5
  -2  10   9 440.284 212.464   5
  -2  10   8 13316.6 728.340   5
   2 -10  -7 251.602 144.109   1
  -2  10   7-198.086 175.880   5
  -2  10   6 10757.2 628.291   5
   2 -10  -6 10721.3 642.856   1
   2 -10  -5 1462.43 265.454   1
  -2  10   5 1164.91 241.130   5
   2 -10  -4 37483.5 1186.98   1
   2 -10  -3 505.090 199.911  16
   2 -10  -3 473.358 197.830   1
   2 -10  -2 10964.6 645.185   1
   2 -10  -2 10641.4 588.966  16
   2 -10  -1-111.989 197.991   1
   2 -10  -1-52.0382 140.728  16
   2 -10   0 507.799 176.855   1
   2 -10   0 372.755 196.671  16
   2 -10   1 3826.33 404.856   1
   2 -10   1 3759.15 403.150  16
   2 -10   2-6.80774 170.448  16
   2 -10   2-23.4614 162.418   9
   2 -10   2 14.6233 148.915   1
   2 -10   3-496.701 156.498   1
   2 -10   3-191.404 156.946   9
   2 -10   3-155.263 168.763  16
   2 -10   4 4122.97 394.733   9
   2 -10   4 4052.31 402.604  16
   2 -10   5 2034.80 268.835   9
   2 -10   5 1916.27 281.059  16
   2 -10   6 899.258 210.321  16
   2 -10   6 666.854 174.358   9
   2 -10   7 109.397 153.254   9
  -2   9  15-54.7944 114.299  15
  -2   9  14 606.742 146.917   5
  -2   9  14 562.128 194.126  15
  -2   9  13 890.011 231.719  15
  -2   9  13 756.027 184.456   5
  -2   9  12 2449.68 326.689   5
  -2   9  11 10098.3 619.740   5
  -2   9  10 93.0221 143.344   5
  -2   9   9 18499.0 857.135   5
  -2   9   8 13354.7 728.355   5
  -2   9   7 7006.82 528.251   5
   2  -9  -7 6321.98 465.065   1
  -2   9   6 53834.8 1370.89   5
   2  -9  -6 51900.4 1316.98   1
   2  -9  -5 326.981 166.066   1
  -2   9   5 727.840 201.376   5
  -2   9   4 1171.92 226.138   5
  -2   9   4 1575.78 292.611  20
   2  -9  -4 1588.06 275.983   1
  -2   9   3-756.257 272.344  20
   2  -9  -3 196.084 153.891   1
   2  -9  -2 11973.8 665.449   1
  -2   9   2 10979.8 822.876  20
   2  -9  -2 10991.1 579.240  16
   2  -9  -1 15776.6 772.716   1
   2  -9  -1 15501.5 690.416  16
  -2   9   1 15205.6 930.805  20
   2  -9   0 3634.84 367.262  16
   2  -9   0 3719.31 420.397   1
  -2   9   0 3696.23 562.904  20
   2  -9   1 8267.25 579.773   1
  -2   9  -1 6846.30 683.392  20
   2  -9   1 7524.99 515.794  16
   2  -9   2 2388.59 305.141   1
   2  -9   2 1914.21 296.442  16
   2  -9   3 671.024 222.734  16
   2  -9   3 252.421 162.303   1
   2  -9   3 594.635 173.208   9
   2  -9   4 269.722 213.969  16
   2  -9   4 501.577 199.923   9
   2  -9   5 448.793 216.088  16
   2  -9   5 263.515 172.278   9
   2  -9   6 5409.04 440.140   9
   2  -9   6 5331.90 419.530  16
   2  -9   7 332.254 175.949   2
   2  -9   7 509.013 190.567   9
   2  -9   7 694.504 176.681   3
   2  -9   7 505.101 166.022  16
   2  -9   8 108.813 136.500   9
   2  -9   8 99.6372 118.550   2
   2  -9   9-29.9402 89.2372   2
  -2   8  15 99.4613 117.781  15
  -2   8  14 12422.8 608.080  15
  -2   8  13 460.132 208.151  15
  -2   8  13 264.886 147.685   5
  -2   8  12 158.386 169.400   5
  -2   8  11 2356.86 330.053   5
  -2   8  10 845.168 236.106   5
  -2   8   9 23641.3 960.585   5
  -2   8   8 13237.6 707.854   5
  -2   8   7 40941.2 1198.26   5
  -2   8   7 42387.4 1683.72  19
  -2   8   6 285.572 285.842  19
  -2   8   5 7872.40 622.846  20
  -2   8   4 31958.6 1212.84  20
  -2   8   3 1671.42 347.938  20
  -2   8   2 33541.3 1278.78  20
  -2   8   1 60160.0 1745.77  20
  -2   8   0 434.692 188.508  20
  -2   8  -1 715.014 261.271  20
   2  -8   2 12760.8 675.707   1
   2  -8   2 11197.9 594.722  16
  -2   8  -2 10444.2 817.028  20
   2  -8   3 11478.7 633.859   1
   2  -8   3 11698.7 627.151  16
  -2   8  -3 12890.2 942.788  20
   2  -8   4 10115.8 611.278  16
   2  -8   4 9107.28 571.797   9
   2  -8   5 5588.06 458.403  16
   2  -8   5 5482.22 450.021   9
   2  -8   6 1903.29 289.444  16
   2  -8   6 1736.55 284.889   9
   2  -8   7 2106.51 309.096  16
   2  -8   7 1827.68 256.586   3
   2  -8   7 1953.11 280.662   9
   2  -8   8 163.492 202.177   2
   2  -8   8 205.539 184.457   3
   2  -8   8 341.504 177.180   9
   2  -8   9 741.818 184.575   2
   2  -8   9 759.856 194.515   9
   2  -8  10 133.435 102.749   2
  -2   7  15 2300.13 259.744  15
  -2   7  14 635.467 202.728  15
  -2   7  13 975.148 244.129  15
  -2   7  13 1117.76 214.812   5
  -2   7  12 728.583 205.906   5
  -2   7  11 2572.55 344.707   5
  -2   7  10 2429.31 350.925   5
  -2   7   9 9505.17 607.213   5
  -2   7   8 5472.56 460.051   5
  -2   7   8 7304.04 728.482  19
  -2   7   7 1164.60 304.950  19
  -2   7   6 4290.60 526.959  19
  -2   7   5 4078.16 426.129  20
   2  -7  -4 45903.4 1265.68  18
  -2   7   4 46663.2 1336.90  20
   2  -7  -3 4088.37 431.219  18
  -2   7   3 3729.90 419.691  20
  -2   7   2 54882.5 1481.88  20
   2  -7  -2 52334.3 1450.06  18
  -2   7   1 27435.2 1070.55  20
  -2   7   0 151.663 148.519  20
  -2   7  -1 17905.7 930.623  20
  -2   7  -2 8347.87 682.055  20
  -2   7  -3 199.177 198.977  20
   2  -7   4 3956.27 390.989  16
  -2   7  -4 3457.75 497.130  20
   2  -7   5 10053.5 593.047   9
   2  -7   5 10052.0 579.889  16
   2  -7   6 219.020 148.287  16
   2  -7   6-59.4701 164.367   9
   2  -7   7 8432.43 552.511   9
   2  -7   7 8173.98 499.371  16
   2  -7   8 297.499 193.542   3
   2  -7   8-58.4121 176.492   9
   2  -7   9 198.894 185.296   2
   2  -7   9 112.802 154.535   9
   2  -7   9-11.2626 137.310   3
   2  -7  10 176.161 147.181   2
   2  -7  10 212.086 159.367   9
   2  -7  11 8000.54 419.560   2
  -2   6  16 124.808 80.4358  15
  -2   6  15 191.996 118.018  11
  -2   6  15 372.158 156.497  15
  -2   6  14 1322.31 264.850  15
  -2   6  14 887.641 203.004  11
  -2   6  13 2302.62 275.109  11
  -2   6  13 1726.55 291.397  15
  -2   6  12 11442.5 622.010   5
  -2   6  12 11004.1 572.275  11
  -2   6  11 2989.68 367.336   5
  -2   6  10 1743.11 288.482   5
  -2   6   9-161.837 132.626   5
  -2   6   9 401.780 209.050  19
  -2   6   8 1528.13 340.374  19
  -2   6   7 2962.21 438.750  19
  -2   6   6 7044.83 627.106  19
  -2   6   6 7029.94 519.234  20
  -2   6   5 4994.62 430.561  20
   2  -6  -4 241.736 125.101  18
  -2   6   4 94.4750 130.232  20
   2  -6  -3 4886.39 413.189  18
  -2   6   3 4344.87 401.385  20
   2  -6  -2 8586.69 564.760  18
  -2   6   2 9177.67 562.298  20
   2  -6  -1 31440.9 1057.62  18
  -2   6   1 30161.6 1004.01  20
   2  -6   0 113023. 2062.28  18
  -2   6   0 112132. 2009.90  20
  -2   6  -1 3112.30 377.240  20
  -2   6  -2 1494.91 307.223  20
  -2   6  -3 2671.47 392.017  20
  -2   6  -4 9.00874 76.7246  20
  -2   6  -5 2572.34 431.685  20
   2  -6   5 2402.19 286.196   9
  -2   6  -6 1651.10 400.943  20
   2  -6   6 1574.87 265.149  16
   2  -6   6 1405.04 228.423   9
   2  -6   7 8875.48 566.654   9
   2  -6   7 9174.59 519.888  16
   2  -6   8 10484.3 608.619   3
   2  -6   8 9898.73 601.369   9
   2  -6   9 2089.99 304.609   9
   2  -6   9 1693.02 278.231   3
   2  -6  10 990.357 233.003   3
   2  -6  10 1223.84 241.380   9
   2  -6  10 986.183 239.281   2
   2  -6  11 5267.99 419.325   2
   2  -6  11 6300.81 368.090   3
   2  -6  12 497.961 155.525   2
  -2   5  15 1929.36 249.082  15
  -2   5  15 1534.85 199.151  11
  -2   5  14 174.648 172.281  15
  -2   5  14 587.483 181.878  11
  -2   5  13 1369.58 282.501  15
  -2   5  13 1492.24 253.187  11
  -2   5  12 43.1686 189.109  15
  -2   5  12 161.572 144.160  11
  -2   5  11 8751.56 557.959  11
  -2   5  11 7323.51 519.323   5
  -2   5  10 2491.44 325.263   5
  -2   5  10 2239.17 307.254  11
  -2   5   9 61469.5 1444.21   5
  -2   5   9 67160.3 2156.90  19
  -2   5   8 8068.24 691.674  19
  -2   5   7 17572.9 979.979  19
  -2   5   6 19672.9 820.909  20
  -2   5   6 18619.5 946.523  19
   2  -5  -5 22927.8 766.114  18
  -2   5   5 24098.6 994.362  19
  -2   5   5 22838.6 821.347  20
  -2   5   4 22063.1 773.260  20
   2  -5  -4 22672.2 776.207  18
  -2   5   3-0.84377 128.069  20
   2  -5  -3 1.77610 136.951  18
   2  -5  -2 4655.43 384.700  18
  -2   5   2 4119.72 342.849  20
  -2   5   1 56598.1 1224.80  20
   2  -5  -1 56883.2 1294.46  18
   2  -5   0 57114.5 1344.01  18
  -2   5   0 55609.3 1264.16  20
   2  -5   1 1308.34 181.920  13
   2  -5   1 1623.86 293.361  18
  -2   5  -1 1280.92 261.400  20
  -2   5  -2 2243.38 311.172  20
   2  -5   2 1724.54 219.374  13
   2  -5   3 35353.1 1011.62  13
  -2   5  -3 36638.8 1223.25  20
   2  -5   4 24150.4 912.872  13
   2  -5   5 19280.5 892.189  13
   2  -5   6 940.181 253.956  13
   2  -5   7 3554.20 471.068  13
   2  -5   7 4178.86 398.362   9
   2  -5   8 27525.7 958.368   3
   2  -5   8 28091.1 965.796   9
   2  -5   9 10092.1 591.058   3
   2  -5   9 9974.84 593.455   9
   2  -5  10 1742.38 275.597   3
   2  -5  10 1195.41 240.570   9
   2  -5  11 6899.53 516.724   2
   2  -5  11 7533.94 480.051   9
   2  -5  11 8065.80 465.921   3
   2  -5  12 905.060 204.123   2
   2  -5  13 1279.51 191.478   2
  -2   4  15-17.3408 117.486  11
  -2   4  15 182.275 132.666  15
  -2   4  14 242.360 174.498  11
  -2   4  14-274.228 170.803  15
  -2   4  13 645.958 231.631  15
  -2   4  13 83.3489 131.472  11
  -2   4  12 1295.41 292.758  15
  -2   4  12 1478.62 270.997  11
  -2   4  11 832.993 258.114  15
  -2   4  11 940.623 234.529  11
  -2   4  10 213.324 106.030  11
  -2   4  10 437.325 162.876   2
  -2   4   9 9612.02 796.532  19
  -2   4   8 2071.84 400.998  19
  -2   4   7 34843.3 1343.22  19
  -2   4   6 44447.0 1411.34  19
  -2   4   6 42270.9 1140.34  20
  -2   4   5 17296.5 675.342  20
  -2   4   5 17689.9 828.476  19
  -2   4   4 19059.0 804.763  19
  -2   4   4 18791.9 651.389  20
  -2   4   3 94187.5 1362.01  20
  -2   4   2 16061.1 568.907  20
   2  -4  -1 39422.6 992.182  18
  -2   4   1 38114.3 890.939  20
  -2   4   0 23179.9 720.813  20
   2  -4   0 24620.1 812.379  18
  -2   4  -1 848.685 203.835  20
   2  -4   1 792.116 209.655  18
   2  -4   2 8733.79 441.047  13
   2  -4   2 9350.42 555.227  18
   2  -4   3 10333.7 530.819  13
   2  -4   4 77586.6 1568.58  13
   2  -4   5 2579.95 335.564  13
   2  -4   6 20431.3 967.295  13
   2  -4   7 118.382 106.823  13
   2  -4   8 11112.4 607.828   3
   2  -4   8 11040.8 828.152  13
   2  -4   8 11941.1 622.840   9
   2  -4   8 10911.9 555.688  10
   2  -4   9 12311.9 635.635   9
   2  -4   9 11932.6 599.082  10
   2  -4   9 11626.1 625.266   3
   2  -4  10 8564.36 513.530  10
   2  -4  10 8414.05 531.023   9
   2  -4  10 9285.94 559.995   3
   2  -4  11 252.066 145.411   3
   2  -4  11 400.888 169.457  10
   2  -4  11 298.576 180.764   9
   2  -4  11 41.2201 173.280   2
   2  -4  12 2934.33 360.020   2
   2  -4  13 323.909 149.033   2
   2  -4  14 913.643 156.700   2
  -2   3  15 7483.34 412.823  15
  -2   3  14 3956.59 383.684  15
  -2   3  14 4099.22 378.240  11
  -2   3  13 768.304 211.613  11
  -2   3  13 778.795 231.175  15
  -2   3  12 2759.60 333.591   2
  -2   3  12 2551.01 342.917  11
  -2   3  12 2991.38 393.637  15
  -2   3  11 709.961 230.916  15
  -2   3  11 1020.00 242.513   2
  -2   3  11 1138.90 263.145  11
  -2   3  10 4597.10 459.396  15
  -2   3  10 5010.06 422.669   2
  -2   3  10 3962.74 575.668  14
  -2   3  10 5004.04 431.294  11
  -2   3   9 5128.80 599.401  14
  -2   3   8 1435.02 306.779  19
  -2   3   7 945.761 282.454  19
  -2   3   6 2872.54 306.468  20
  -2   3   6 2892.02 394.681  19
  -2   3   5 515.484 227.074  19
  -2   3   5 133.488 142.524  20
   2  -3  -5 388.439 125.620  17
  -2   3   4 68.5482 174.750  19
   2  -3  -4 58.0202 124.575  17
  -2   3   4 243.623 121.463  20
   2  -3  -3 10611.3 481.932  17
  -2   3   3 9441.94 392.675  20
   2  -3  -2 71572.6 1211.80  17
  -2   3   2 68672.7 1011.59  20
   2  -3  -1 2152.06 239.505  17
  -2   3   1 1772.31 186.623  20
  -2   3   0 4790.96 295.149  20
   2  -3   0 5362.56 347.288  17
   2  -3   1 17760.9 613.617  17
   2  -3   1 16471.3 635.800  18
   2  -3   2 26095.3 816.555  18
   2  -3   3 27018.7 858.110  18
   2  -3   3 25291.7 777.930  13
   2  -3   4 82755.2 1512.17  13
   2  -3   5 46976.6 1263.32  13
   2  -3   6 12988.6 728.528  13
   2  -3   7 4660.41 472.879  13
   2  -3   8 19859.1 1074.20  13
   2  -3   9 8868.56 516.961  10
   2  -3   9 9054.20 540.106   9
   2  -3   9 9418.65 558.101   3
   2  -3  10 32368.1 1026.33   3
   2  -3  10 31870.0 988.201   9
   2  -3  10 30732.5 983.658  10
   2  -3  11 993.448 230.896  10
   2  -3  11 1109.68 215.492   3
   2  -3  11 935.906 220.484   9
   2  -3  11 960.785 243.007   2
   2  -3  12 890.454 267.666   2
   2  -3  12 992.144 232.081  10
   2  -3  13 7328.83 500.861   2
   2  -3  14 759.715 192.730   2
  -2   2  15 938.306 173.190  15
  -2   2  14 908.711 222.468  15
  -2   2  14 732.400 196.319  11
  -2   2  13 8013.86 565.704  15
  -2   2  13 7945.36 535.652  11
  -2   2  13 7929.06 519.840   2
  -2   2  12 2101.92 343.082  15
  -2   2  12 1714.63 310.025  11
  -2   2  12 1810.76 297.183   2
  -2   2  11 6546.54 559.624  15
  -2   2  11 6661.66 514.898  11
  -2   2  11 7390.80 540.924   2
  -2   2  10 16824.2 840.514  15
  -2   2  10 14379.1 1053.50  14
  -2   2  10 16478.1 775.630  11
  -2   2  10 16045.2 755.741   2
  -2   2   9 78.6386 211.167  14
  -2   2   8 3030.51 446.954  14
  -2   2   7 8487.36 650.019  19
  -2   2   6 16238.4 841.500  19
  -2   2   5 734.660 256.908  19
   2  -2  -5 542.238 132.212  17
  -2   2   4 2418.21 299.626  19
  -2   2   4 2297.49 211.034  20
   2  -2  -4 2316.07 222.811  17
  -2   2   3 11752.3 393.942  20
   2  -2  -3 12906.0 475.836  17
  -2   2   3 13158.1 571.912  19
  -2   2   2 18165.1 431.933  20
   2  -2  -2 18603.8 568.640  17
   2  -2  -1 223.358 124.792  17
  -2   2   1 278.030 90.2007  20
  -2   2   0 194725. 1466.62  20
   2  -2   0 213944. 1863.61  17
   2  -2   1 65365.6 1039.62  17
   2  -2   2 34434.9 846.014  18
   2  -2   2 33067.5 751.906  17
   2  -2   3 12591.1 535.302  18
   2  -2   4 36779.4 956.537  13
   2  -2   4 38222.3 947.562  18
   2  -2   5 11983.4 609.515  13
   2  -2   6 54777.9 1402.52  13
   2  -2   7 15020.7 816.606  13
   2  -2   8 5242.33 536.412  13
   2  -2   9 8098.43 699.231  13
   2  -2   9 6789.72 456.965  10
   2  -2  10 19673.7 762.914   9
   2  -2  10 20306.0 805.364  10
   2  -2  10 20196.2 805.245   3
   2  -2  11 91.3572 126.995   9
   2  -2  11-52.0617 149.893  10
   2  -2  11 391.344 174.864   3
   2  -2  12 2441.98 321.283  10
   2  -2  12 2117.56 334.450   2
   2  -2  13-137.963 177.574   2
   2  -2  13 41.7671 153.634  10
   2  -2  14 3919.92 347.490   2
   2  -2  15 2182.50 222.165   2
  -2   1  15 534.273 120.809  15
  -2   1  14 1897.23 266.734  15
  -2   1  14 1600.07 260.742  11
  -2   1  13 6845.75 496.689   2
  -2   1  13 5868.23 477.643  15
  -2   1  13 5889.95 465.564  11
  -2   1  12 1917.81 331.383  15
  -2   1  12 2192.36 325.605   2
  -2   1  12 2251.58 345.067  11
  -2   1  11 8950.32 510.660   7
  -2   1  11 7845.39 611.805  15
  -2   1  11 8056.15 574.817  11
  -2   1  11 8510.75 586.150   2
  -2   1  10 865.655 258.437  15
  -2   1  10 921.101 239.372   6
  -2   1  10 640.553 232.966   2
  -2   1  10 1054.62 253.960  11
  -2   1  10 723.025 206.778   7
  -2   1   9 2139.81 438.061  14
  -2   1   8 9455.82 763.842  14
  -2   1   7-27.4034 135.800  14
  -2   1   6 40173.2 1293.61  19
   2  -1  -5 5528.54 297.147  17
  -2   1   5 4902.85 432.117  19
  -2   1   4 15681.6 676.971  19
   2  -1  -4 16708.2 513.725  17
  -2   1   3 151136. 1827.97  19
   2  -1  -3 147356. 1488.44  17
  -2   1   2 69325.5 1105.31  19
  -2   1   2 66623.2 688.329  20
   2  -1  -2 69120.5 1010.04  17
  -2   1   1 12305.4 249.034  20
  -2   1   1 11972.4 412.927  19
   2  -1  -1 12303.9 427.803  17
   2  -1   0 46089.9 550.944  21
   2  -1   0 45312.1 793.412  17
   2  -1   1 99189.8 1147.12  17
   2  -1   1 91982.3 982.643  21
   2  -1   2 2288.13 210.133  21
   2  -1   2 2472.99 206.204  17
   2  -1   3 20725.8 523.522  17
   2  -1   3 20158.3 600.789  21
   2  -1   3 20755.4 606.454  18
   2  -1   4 50234.5 968.922  18
   2  -1   4 49234.3 809.885  17
   2  -1   5 105785. 1662.65  13
   2  -1   6 162.527 156.640  13
   2  -1   7 1708.17 308.835  13
   2  -1   8 290.138 173.144  13
   2  -1   9 5550.06 566.764  13
   2  -1  10 6263.20 448.243   3
   2  -1  10 6735.61 663.424  13
   2  -1  10 6040.52 424.705   9
   2  -1  10 6251.54 451.285  10
   2  -1  11 21761.6 855.633  10
   2  -1  11 20494.2 755.437   9
   2  -1  11 20102.3 803.391  11
   2  -1  11 21519.3 843.465   3
   2  -1  12 8577.84 606.502   2
   2  -1  12 9316.27 565.950  11
   2  -1  12 9097.55 569.048  10
   2  -1  13 535.195 186.605  10
   2  -1  13 899.003 192.686  11
   2  -1  13 683.865 188.932   2
   2  -1  14 865.274 235.805   2
   2  -1  15 636.644 176.438   2
  -2   0  14 763.733 197.096   2
  -2   0  14 500.684 183.861  15
  -2   0  13 958.022 246.377   2
  -2   0  13 649.352 202.555  15
  -2   0  13 468.600 232.644  11
  -2   0  12-200.607 191.698  15
  -2   0  12 26.2287 177.910   2
  -2   0  12 180.580 230.592  11
  -2   0  11 891.579 274.754  15
  -2   0  11 1121.87 275.053   2
  -2   0  11 913.493 258.928  11
  -2   0  11 1350.54 240.212   7
  -2   0  10 2346.23 293.280   7
  -2   0  10 2462.48 342.113  11
  -2   0  10 2128.63 320.111  15
  -2   0  10 1915.07 322.674   2
  -2   0   9 3361.26 345.495   3
  -2   0   9 2245.37 430.278  14
  -2   0   9 3532.30 374.540   2
  -2   0   9 2639.47 333.689  11
  -2   0   9 3232.19 391.361  15
  -2   0   9 3588.88 330.636   7
  -2   0   9 2939.42 325.456   6
  -2   0   8 15375.4 985.182  14
  -2   0   7 3191.83 425.535  14
  -2   0   6 151.018 216.901  14
   2   0  -5 88390.3 1134.84  17
  -2   0   5 91353.4 1845.26  14
  -2   0   4 17106.1 715.024  19
   2   0  -4 17632.1 509.614  17
  -2   0   3 5218.91 369.663  19
   2   0  -3 5265.13 287.153  17
   2   0  -2 25650.5 600.810  17
  -2   0   2 25340.3 676.697  19
  -2   0   1 909.253 154.135  19
   2   0  -1 426.027 134.546  17
   2   0   0 99111.1 1127.44  17
  -2   0   0 99293.6 926.822  19
   2   0   1 3560.52 230.019  17
   2   0   2 277178. 1777.36  17
   2   0   2 273537. 1837.40  21
   2   0   3 1243.56 193.358  21
   2   0   3 1243.94 139.986  17
   2   0   4 1972.89 241.486  21
   2   0   4 1788.55 147.706  17
   2   0   4 1920.47 190.828  18
   2   0   5 3202.24 306.096  13
   2   0   5 3069.40 299.856  21
   2   0   5 3496.69 183.087  17
   2   0   6 20690.8 795.398  21
   2   0   6 19308.3 554.984  14
   2   0   6 19370.8 755.526  13
   2   0   7 26012.7 954.856  13
   2   0   8 8118.32 602.458  13
   2   0   9 3794.23 437.570  13
   2   0  10 458.610 217.960  13
   2   0  11 3233.01 390.174   2
   2   0  11 3160.03 352.742   3
   2   0  11 3068.17 343.767  11
   2   0  11 2890.62 297.444  12
   2   0  11 3666.13 380.208  10
   2   0  12 2601.26 319.991  10
   2   0  12 1729.39 301.880  11
   2   0  12 2644.41 364.070   2
   2   0  13 397.027 174.845  11
   2   0  13 635.983 187.342  10
   2   0  14 400.214 196.620   2
   2   0  14 127.599 157.651  11
   2   0  14 104.277 151.835  10
   2   0  15 1060.72 192.041  11
   2   0  15 1311.20 231.910   2
   2   0  16 5575.35 296.349   2
  -2  -1  14 3127.04 285.218   2
  -2  -1  14 2885.75 246.728  15
  -2  -1  13 177.727 193.111   2
  -2  -1  13 248.477 175.558  15
  -2  -1  12 2026.94 320.986   2
  -2  -1  12 2112.80 331.370  15
  -2  -1  12 1861.86 304.356  11
  -2  -1  11-143.816 221.384   2
  -2  -1  11 416.934 195.213  11
  -2  -1  11-51.5306 158.081  15
  -2  -1  11 73.8045 170.605   7
  -2  -1  10 8164.05 563.458   3
  -2  -1  10 8184.43 570.595  11
  -2  -1  10 8496.35 605.729   2
  -2  -1  10 7458.95 566.182  15
  -2  -1  10 8039.04 508.042   7
  -2  -1   9 13503.8 730.755  15
  -2  -1   9 13744.2 692.851   3
  -2  -1   9 12906.7 974.149  14
  -2  -1   9 13808.0 729.100   2
  -2  -1   9 13709.8 710.261  11
  -2  -1   9 14860.1 645.915   7
  -2  -1   8 12698.1 919.402  14
  -2  -1   7 1600.33 365.381  14
  -2  -1   6 167.171 188.625  14
  -2  -1   5 23836.2 978.677  14
  -2  -1   4 7245.80 513.059  14
   2   1  -4 8679.93 369.290  17
   2   1  -3 29989.7 683.358  17
  -2  -1   3 29523.3 894.899  14
   2   1  -2 65053.9 991.211  17
  -2  -1   2 64985.0 1168.61  14
  -2  -1   1 72154.5 1072.90  14
   2   1  -1 72923.2 1013.86  17
  -2  -1   0 174147. 1391.15  14
   2   1   0 173410. 1525.66  17
  -2  -1  -1 8040.76 235.568  14
   2   1   1 8258.12 208.456  20
   2   1   1 8371.19 337.343  17
   2   1   2 77081.9 864.986  20
   2   1   2 77153.2 951.238  17
   2   1   3 27043.3 548.296  17
   2   1   4 1678.73 143.923  17
   2   1   4 1545.82 79.6790  14
   2   1   4 1802.59 156.306  18
   2   1   4 1511.13 218.011  21
   2   1   5 29637.0 479.886  17
   2   1   5 30615.8 845.784  21
   2   1   5 29567.3 507.621  14
   2   1   5 30540.1 576.493  18
   2   1   6 9681.97 538.536  21
   2   1   6 8906.75 352.474  14
   2   1   6 10402.9 531.067  13
   2   1   7 35321.9 1051.50  13
   2   1   7 35083.4 1076.48  21
   2   1   8 86.1717 132.036  13
   2   1   9 2362.12 347.209  13
   2   1  10 11116.1 773.306  13
   2   1  11 12366.1 651.724  11
   2   1  11 11739.2 656.454   2
   2   1  11 12262.2 586.219  12
   2   1  11 12711.5 896.045  13
   2   1  12 3171.06 303.149  12
   2   1  12 3549.87 381.903   2
   2   1  12 3738.16 383.608  11
   2   1  12 3636.05 392.816  10
   2   1  13 443.281 181.995  11
   2   1  13 770.198 257.760   2
   2   1  13 722.624 229.578  10
   2   1  14 551.042 191.226   2
   2   1  14 451.943 184.626  11
   2   1  14 360.361 161.937  10
   2   1  15-151.214 158.273  11
   2   1  15-185.840 153.183   2
   2   1  15-52.4251 147.756  10
   2   1  16 137.794 118.906   2
   2   1  16 86.3999 98.0762  11
  -2  -2  13 1656.30 220.318  15
  -2  -2  13 1978.25 264.671   2
  -2  -2  12 552.942 182.733  15
  -2  -2  12 166.745 197.685   2
  -2  -2  11 75.5016 164.522  15
  -2  -2  11 187.013 204.473   3
  -2  -2  11 175.957 193.131  11
  -2  -2  11 142.750 202.102   2
  -2  -2  10 6804.66 515.093   3
  -2  -2  10 6970.24 534.253  15
  -2  -2  10 7617.24 549.742  11
  -2  -2  10 7422.84 581.707   2
  -2  -2  10 7322.22 500.254   7
  -2  -2   9 13395.8 736.539  15
  -2  -2   9 12407.0 664.808   3
  -2  -2   9 14305.5 735.248  11
  -2  -2   9 12967.0 719.468   2
  -2  -2   9 13439.7 647.261   7
  -2  -2   8 750.166 247.827  14
  -2  -2   7 5040.20 576.312  14
  -2  -2   6 15847.2 911.724  14
  -2  -2   5 1036.98 273.974  14
  -2  -2   4-11.6225 186.009  14
   2   2  -4 52.2044 85.8800  17
   2   2  -3 9543.58 424.815  17
  -2  -2   3 9544.91 546.772  14
   2   2  -2 19658.7 587.948  17
  -2  -2   2 20105.9 692.425  14
  -2  -2   1 100963. 1370.80  14
   2   2  -1 97563.5 953.966  20
   2   2   0 130276. 1406.51  17
  -2  -2   0 127379. 1331.12  14
  -2  -2  -1 4966.03 227.622  14
   2   2   1 5183.50 209.375  20
   2   2   1 5095.27 291.207  17
   2   2   2 1642.36 188.372  17
   2   2   2 1718.21 152.978  20
   2   2   3 1274.29 151.860  17
   2   2   3 1170.88 64.8192  19
   2   2   3 1491.30 172.936  20
   2   2   4 62650.0 1076.88  20
   2   2   4 60366.1 838.698  17
   2   2   5 59589.4 700.561  14
   2   2   5 58185.0 1131.97  21
   2   2   5 58191.1 596.965  18
   2   2   6 72.8909 43.4475  14
   2   2   6 33.5066 146.862  21
   2   2   6-0.75411 134.033  13
   2   2   7 101620. 1707.30  13
   2   2   7 100985. 1776.17  21
   2   2   8 1651.54 273.325  13
   2   2   8 1591.77 289.385  21
   2   2   9 352.595 171.044  13
   2   2  10 5743.55 533.299  13
   2   2  11 2259.95 287.260  12
   2   2  11 2090.28 381.555  13
   2   2  11 2453.84 305.810  11
   2   2  11 2708.68 337.956   2
   2   2  12 262.298 154.218  12
   2   2  12-24.8758 143.184  11
   2   2  12 126.175 154.466  10
   2   2  12 251.388 157.076   2
   2   2  13 3450.45 332.139  12
   2   2  13 3273.78 378.432  11
   2   2  13 3065.75 368.175   2
   2   2  13 2792.03 331.295  10
   2   2  14 9837.26 593.725  11
   2   2  14 10619.8 595.600   2
   2   2  14 11167.3 591.281  10
   2   2  15 6108.10 426.314  10
   2   2  15 5648.96 433.174  11
   2   2  15 4761.75 367.992   2
   2   2  16 254.883 137.080  11
  -2  -3  13 306.454 145.208   2
  -2  -3  12 135.106 128.726  15
  -2  -3  12 85.5145 174.477   2
  -2  -3  11 4542.85 428.841   3
  -2  -3  11 4403.98 407.029  15
  -2  -3  11 4458.69 441.299   2
  -2  -3  10 2078.18 298.125   7
  -2  -3  10 1834.01 296.686  15
  -2  -3  10 1290.44 259.941   3
  -2  -3  10 1545.05 279.792  11
  -2  -3  10 1405.86 287.244   2
  -2  -3   9 14594.7 759.241  15
  -2  -3   9 14867.3 755.119   3
  -2  -3   9 14380.6 729.584  11
  -2  -3   9 13415.3 743.379   2
  -2  -3   9 14437.5 691.471   7
  -2  -3   8 1209.44 244.487   7
  -2  -3   8 696.837 223.827  15
  -2  -3   8 249.469 176.621  14
  -2  -3   8 987.056 232.525  11
  -2  -3   8 829.161 212.321   3
  -2  -3   8 776.988 210.769   2
  -2  -3   7 4066.74 518.733  14
  -2  -3   6 1331.10 298.084  14
  -2  -3   5 39610.6 1365.69  14
  -2  -3   4-81.3200 180.737  14
   2   3  -4 199.417 130.241  17
   2   3  -3 12464.9 529.561  17
  -2  -3   3 12144.3 645.901  14
   2   3  -2 3654.57 293.443  17
  -2  -3   2 3268.49 336.396  14
  -2  -3   1 418.897 146.261  14
   2   3  -1 486.503 119.622  20
  -2  -3   0 6211.93 356.357  14
   2   3   0 6537.49 293.845  20
  -2  -3  -1 571644. 2767.04  14
   2   3   1 564001. 2578.15  20
   2   3   2 379507. 2188.42  20
   2   3   3 19785.5 562.656  20
   2   3   4 23292.5 672.231  20
   2   3   4 23494.7 454.137  19
   2   3   5 138261. 1288.68  19
   2   3   5 137286. 1368.75  17
   2   3   5 139933. 1823.41  20
   2   3   6 23382.4 517.960  17
   2   3   6 26935.0 829.295  21
   2   3   6 25204.9 729.246  13
   2   3   6 24430.0 634.307  19
   2   3   6 25655.1 882.510  20
   2   3   7 19418.1 716.055  13
   2   3   7 19310.9 771.741  21
   2   3   7 20172.5 873.712  20
   2   3   8 173.681 172.736  13
   2   3   8 266.405 157.316  21
   2   3   9 129.089 129.341  13
   2   3   9 108.889 155.990  21
   2   3  10 88.6774 96.4215  13
   2   3  11 13433.2 624.687  12
   2   3  11 15433.8 911.006  13
   2   3  11 13898.3 683.632  11
   2   3  12-12.8543 56.2423  12
   2   3  12 95.4311 176.177  11
   2   3  12 83.3806 124.769  10
   2   3  13 4315.02 373.896  10
   2   3  13 5085.86 413.885  12
   2   3  13 4743.35 440.265  11
   2   3  14 2816.35 360.151  11
   2   3  14 2890.63 323.180  10
   2   3  15 6151.51 462.574  11
   2   3  15 6468.78 433.550  10
   2   3  16 1182.22 205.444  11
   2   3  17 261.581 107.462  11
  -2  -4  13 505.345 130.572   2
  -2  -4  12 9036.41 501.412   2
  -2  -4  11 3612.44 370.823   3
  -2  -4  11 4331.40 400.990   2
  -2  -4  11 3417.51 350.968  15
  -2  -4  10 35.1424 149.368   2
  -2  -4  10 98.3552 168.218   3
  -2  -4  10 61.7597 142.015  15
  -2  -4   9 2816.74 352.844  15
  -2  -4   9 2727.61 344.169   3
  -2  -4   9 2781.57 365.775   2
  -2  -4   9 2596.47 354.989   7
  -2  -4   8 18386.6 829.035   3
  -2  -4   8 19591.1 831.992  11
  -2  -4   8 18700.1 856.505   2
  -2  -4   8 18593.6 833.902  15
  -2  -4   8 18434.5 764.044   7
  -2  -4   7 6478.74 677.388  14
  -2  -4   7 6307.44 477.347   3
  -2  -4   7 7505.44 518.273   2
  -2  -4   7 6806.21 483.256  11
  -2  -4   7 7331.56 524.434  15
  -2  -4   7 7624.26 481.707   7
  -2  -4   6-174.731 156.760  14
  -2  -4   5 32570.2 1303.13  14
   2   4  -4 10669.1 544.496  17
  -2  -4   4 8723.61 642.615  14
   2   4  -3 105938. 1655.81  17
  -2  -4   3 102507. 1972.91  14
  -2  -4   2 5228.32 437.151  14
   2   4  -2 4871.81 353.087  20
  -2  -4   1 65072.2 1313.12  14
   2   4  -1 64022.3 1113.56  20
  -2  -4   0 141084. 1755.13  14
   2   4   0 142757. 1584.55  20
   2   4   1 285194. 2163.83  20
   2   4   2 39682.3 833.098  20
   2   4   3 56586.7 1008.75  20
   2   4   4 24058.5 714.233  20
   2   4   5 34.0876 97.0293  19
   2   4   5 116.050 165.601  20
   2   4   6 71266.8 1135.02  13
   2   4   6 72324.3 1489.95  20
   2   4   6 71546.5 1129.16  19
   2   4   7 884.223 175.639  13
   2   4   7 951.333 234.827  20
   2   4   7 1244.13 239.480  21
   2   4   7 1163.07 195.149  19
   2   4   8 37651.9 1034.34  13
   2   4   8 36951.2 1003.93  19
   2   4   8 36719.3 1109.66  21
   2   4   8 37261.7 1285.01  20
   2   4   9 603.442 189.057  13
   2   4   9 570.740 204.541  21
   2   4  10-15.5897 135.771  13
   2   4  10-275.807 153.507  21
   2   4  11 7145.16 587.355  13
   2   4  11 7121.65 462.420  12
   2   4  11 6984.30 489.837  11
   2   4  12 994.274 198.451  12
   2   4  12 771.096 210.010  11
   2   4  13 12928.6 646.854  12
   2   4  13 14031.4 721.975  11
   2   4  13 13151.3 635.311  10
   2   4  14 4275.41 411.631  11
   2   4  14 3961.87 363.018  10
   2   4  15 1339.21 246.158  10
   2   4  15 1473.89 258.414  11
   2   4  16 8394.35 475.141  11
   2   4  17 3569.43 270.172  11
  -2  -5  12 49.5259 116.111   2
  -2  -5  11-84.0412 116.899  15
  -2  -5  11 254.957 181.558   3
  -2  -5  11 32.7484 146.313   2
  -2  -5  10 866.349 244.585   2
  -2  -5  10 931.631 226.880  15
  -2  -5  10 674.429 215.501   3
  -2  -5   9 13463.9 716.759   3
  -2  -5   9 12302.2 666.562  15
  -2  -5   9 13163.1 729.376   2
  -2  -5   9 13830.4 680.727   7
  -2  -5   8 54334.4 1413.47  15
  -2  -5   8 55576.3 1348.28   7
  -2  -5   8 56023.6 1454.28   3
  -2  -5   8 54651.6 1448.08   2
  -2  -5   7 8608.87 566.728  15
  -2  -5   7 8290.67 518.659   7
  -2  -5   7 7934.23 563.579   3
  -2  -5   7 7486.14 551.281   2
  -2  -5   6 62.5731 186.997  14
   2   5  -6-136.139 101.116  20
  -2  -5   5 5497.68 580.042  14
   2   5  -5 6215.64 572.991  20
  -2  -5   4 1315.09 280.587  14
   2   5  -4 1226.08 240.365  20
  -2  -5   3 15117.2 815.821  14
   2   5  -3 15504.7 738.843  20
   2   5  -2 32599.6 979.594  20
  -2  -5   2 33356.6 1118.66  14
   2   5  -1 18907.5 709.293  20
   2   5   0 1090.91 204.705  20
   2   5   1-14.4931 102.923  20
   2   5   2 225383. 2234.72  20
   2   5   3 24200.0 745.124  20
   2   5   4 170612. 2009.02  20
   2   5   5 60785.9 848.872  13
   2   5   5 63051.6 1318.90  20
   2   5   6 17544.0 533.431  13
   2   5   6 16992.1 752.479  20
   2   5   6 16985.3 602.522  19
   2   5   7 787.433 164.188  13
   2   5   7 445.171 144.973  19
   2   5   8 269.098 109.705  13
   2   5   8-211.727 143.873  19
   2   5   8 235.463 183.993  20
   2   5   8 118.766 144.434  21
   2   5   9 2081.62 323.631  21
   2   5   9 1295.40 190.705  13
   2   5   9 1363.24 355.557  20
   2   5  10 3733.86 422.409  21
   2   5  11 1336.57 240.987  11
   2   5  11 1489.85 225.847  12
   2   5  12 999.271 213.675  12
   2   5  12 938.025 222.160  11
   2   5  13 798.880 228.731  11
   2   5  13 1010.89 216.538  10
   2   5  14 771.526 226.546  11
   2   5  14 921.023 225.397  10
   2   5  15 320.954 190.424  11
   2   5  15 122.268 135.354  10
   2   5  16 2141.97 279.775  11
   2   5  17 2044.62 233.718  11
  -2  -6  12 2254.42 182.719   2
  -2  -6  11 265.080 184.399   3
  -2  -6  11 208.190 129.771   2
  -2  -6  10 7057.47 438.365  15
  -2  -6  10 6466.82 463.653   3
  -2  -6  10 6373.56 455.710   2
  -2  -6   9 1454.02 246.802  15
  -2  -6   9 1236.55 267.773   3
  -2  -6   9 949.910 232.575   2
  -2  -6   8 4823.09 465.547   3
  -2  -6   8 4489.39 435.178   2
  -2  -6   8 4813.93 435.252  15
  -2  -6   8 5288.50 436.704   7
  -2  -6   7 16876.9 739.709   7
  -2  -6   7 15926.5 764.670  15
  -2  -6   7 18238.9 831.853   2
  -2  -6   7 16686.3 817.601   3
  -2  -6   6 3236.52 378.740  15
   2   6  -6 2653.70 388.369  20
  -2  -6   6 2517.85 314.797   2
  -2  -6   6 3267.58 324.602   7
   2   6  -5 1736.14 293.996  20
   2   6  -4 15830.8 878.417  20
   2   6  -3 169.957 162.318  20
   2   6  -2 49779.9 1345.13  20
   2   6  -1 6316.04 474.560  20
   2   6   0 5677.65 434.421  20
   2   6   1 80894.8 1510.45  20
   2   6   2 31531.1 947.691  20
   2   6   3 32263.9 955.379  20
   2   6   4 10586.5 566.471  20
   2   6   5 22843.1 845.469  20
   2   6   6 164.840 191.864  20
   2   6   7 13392.3 750.522  20
   2   6   7 14128.1 633.444  19
   2   6   8 399.211 156.822  21
   2   6   8 10.7540 86.1792  19
   2   6   8 244.749 197.689  20
   2   6   9-368.999 255.449  20
   2   6   9 1.23490 144.710  21
   2   6  10 34401.6 1490.84  20
   2   6  11 1299.70 231.172  12
   2   6  11 1183.44 253.883  11
   2   6  12-303.274 169.614  11
   2   6  13 3.59687 179.224  11
   2   6  14 19849.1 845.262  11
   2   6  15 2859.03 349.850  11
   2   6  16 130.429 178.062  11
   2   6  17 549.641 156.380  11
  -2  -7  11 604.508 131.154   2
  -2  -7  10 233.634 170.317   3
  -2  -7  10 295.693 144.936   2
  -2  -7   9 195.820 124.017  15
  -2  -7   9 186.299 173.421   3
  -2  -7   9 36.1703 129.963   2
  -2  -7   8 2497.13 339.151   2
  -2  -7   8 2835.51 358.530   3
  -2  -7   8 2475.87 313.339  15
  -2  -7   7 5404.21 456.389  15
  -2  -7   7 5346.81 492.769   3
  -2  -7   7 5343.79 478.849   2
  -2  -7   7 4824.34 410.949   7
  -2  -7   6 812.762 250.814  15
  -2  -7   6 1288.43 242.126   7
  -2  -7   5 2552.44 298.964  16
  -2  -7   5 2622.60 331.520  15
  -2  -7   5 2729.42 319.224   9
  -2  -7   5 2381.56 270.417   7
   2   7  -4 9783.04 737.475  20
   2   7  -3 319.172 158.056  20
   2   7  -2 28874.8 1140.02  20
   2   7  -1 25442.5 1028.82  20
   2   7   0 21557.3 913.811  20
   2   7   1 4866.13 440.724  20
   2   7   2 49402.5 1302.27  20
   2   7   3 7420.15 526.822  20
   2   7   4 49121.9 1305.65  20
   2   7   5 368.590 203.736  20
   2   7   6 9409.24 625.465  20
   2   7   7 34358.4 1233.62  20
   2   7   7 33017.6 1021.95  19
   2   7   8 6425.06 581.873  20
   2   7   8 6307.74 484.221  19
   2   7   9 70.2584 201.108  20
   2   7  10 15741.8 1020.90  20
   2   7  11 2283.83 423.945  20
   2   7  11 2438.01 286.796   5
   2   7  11 2042.37 284.129  11
   2   7  12 1187.81 236.195  11
   2   7  13 11267.5 646.798  11
   2   7  14 10653.3 629.799  11
   2   7  15 6100.79 456.686  11
   2   7  16 2465.74 299.035  11
   2   7  17 6515.76 363.576  11
  -2  -8  10 1051.47 184.511   3
  -2  -8   9-63.5447 182.245   3
  -2  -8   8 2318.84 316.405   3
  -2  -8   7 4283.49 434.226   3
  -2  -8   7 4433.02 400.738  15
  -2  -8   6 8854.22 567.555  15
  -2  -8   6 7977.22 485.678  16
  -2  -8   5 4208.90 397.657  15
  -2  -8   5 4283.31 377.170   9
  -2  -8   5 4560.77 388.795  16
  -2  -8   5 4662.19 370.998   7
  -2  -8   4 137.481 147.289  16
  -2  -8   4 130.550 139.234  15
  -2  -8   4 84.1517 149.416   9
  -2  -8   3 17014.7 735.060  15
  -2  -8   3 16317.4 696.047  16
   2   8  -3 16940.7 988.531  20
   2   8  -2 170.723 165.986  20
   2   8  -1 339.317 174.310  20
   2   8   0 4620.31 480.128  20
   2   8   1 22524.9 999.087  20
   2   8   2 79755.0 1823.09  20
   2   8   3 32550.7 1156.77  20
   2   8   4 3547.58 412.530  20
   2   8   5 1350.49 289.083  20
   2   8   6-203.475 173.615  20
   2   8   7 4315.12 473.638  20
   2   8   8 1797.95 352.948  20
   2   8   9 7548.19 686.886  20
   2   8  10 5656.74 418.332   5
   2   8  10 5293.57 634.755  20
   2   8  11 14507.4 691.312   5
   2   8  11 14118.2 680.571  11
   2   8  12 15559.8 701.959   5
   2   8  12 16079.5 753.009  11
   2   8  13 1476.67 274.184  11
   2   8  14 495.077 213.442  11
   2   8  15 348.783 183.185  11
   2   8  16 1534.37 233.736  11
   2   8  17 615.060 145.132  11
  -2  -9   9 3984.38 298.040   3
  -2  -9   8 453.218 205.619   3
  -2  -9   7 351.378 193.039   3
  -2  -9   6 5498.29 399.634  16
  -2  -9   5 1974.03 302.021  16
  -2  -9   4 8521.08 506.431   9
  -2  -9   4 7615.85 513.358  16
  -2  -9   3 10965.3 597.003  16
   2   9  -2 5857.51 605.859  20
  -2  -9   2 6402.70 456.655  16
   2   9  -1 854.484 318.083  20
  -2  -9   1 370.670 140.676  16
   2   9   0 2044.51 346.775  20
   2   9   1 4065.22 471.789  20
   2   9   2 5504.73 548.327  20
   2   9   3 15033.7 869.346  20
   2   9   4 10989.8 751.215  20
   2   9   5 29025.6 1196.71  20
   2   9   6 7250.70 602.109  20
   2   9   7-66.5000 174.347  20
   2   9   8 2314.98 394.456  20
   2   9   9 3269.80 353.026   5
   2   9   9 3821.52 559.228  20
   2   9  10 989.505 210.880   5
   2   9  10 865.085 342.279  20
   2   9  11 24973.4 906.858   5
   2   9  11 24238.0 886.222  11
   2   9  12 16.3714 131.613   5
   2   9  12 308.637 188.475  11
   2   9  13 3026.85 331.363  11
   2   9  13 2986.76 337.320   5
   2   9  14 134.867 141.766  11
   2   9  15-51.0219 135.964  11
   2   9  16 1427.47 216.449  11
   2   9  17-118.124 102.241  11
  -2 -10   8 3280.55 275.063   3
  -2 -10   7 3531.79 347.323   3
  -2 -10   6 1636.33 238.397  16
  -2 -10   5 506.556 191.052  16
  -2 -10   4 4994.24 423.507  16
  -2 -10   3-8.62337 169.773  16
  -2 -10   2 766.614 225.594  16
  -2 -10   1 7052.20 492.555  16
   2  10   0 3394.11 472.706  20
  -2 -10   0 3406.18 361.225  16
  -2 -10  -1 1298.23 218.027  16
   2  10   1 1352.60 303.772  20
   2  10   2 10747.6 824.123  20
   2  10   3 588.143 248.101  20
   2  10   4 1762.25 333.870  20
   2  10   5 26084.8 1228.09  20
   2  10   6 5737.82 598.659  20
   2  10   7 3789.48 503.172  20
   2  10   7 3562.64 356.219   5
   2  10   8 10225.0 578.205   5
   2  10   8 11308.6 871.518  20
   2  10   9 40606.9 1157.84   5
   2  10   9 43424.8 1763.56  20
   2  10  10 2658.62 326.098   5
   2  10  11 155.931 164.526   5
   2  10  11 116.353 141.718  11
   2  10  12 36388.4 1107.70   5
   2  10  12 34669.3 1047.66  11
   2  10  13 672.747 184.979   5
   2  10  13 1014.87 224.453  11
   2  10  14 6998.43 463.637  11
   2  10  14 7788.93 471.198   5
   2  10  15 726.241 184.457  11
   2  10  16 637.323 156.004  11
  -2 -11   7 5963.45 353.167   3
  -2 -11   6 290.184 159.434   3
  -2 -11   6 352.363 104.115  16
  -2 -11   5-71.9941 138.524  16
  -2 -11   4 125.563 154.575  16
  -2 -11   3 226.055 200.223  16
  -2 -11   2 1653.33 281.123  16
  -2 -11   1 6059.34 478.909  16
  -2 -11   0 1453.41 252.422  16
  -2 -11  -1 3358.08 342.344   1
  -2 -11  -1 4083.89 371.398  16
  -2 -11  -2 15106.3 708.760   1
  -2 -11  -2 16065.3 708.964  16
   2  11   3 4185.67 559.992  20
  -2 -11  -3 3581.44 362.127  16
  -2 -11  -3 4078.79 393.967   1
   2  11   4 11444.9 872.447  20
  -2 -11  -4 10707.9 534.522  16
   2  11   5 2022.56 280.006   5
   2  11   5 2063.52 379.833  20
   2  11   6 1404.28 246.270   5
   2  11   6 1718.52 392.178  20
   2  11   7 1327.66 240.582   5
   2  11   8 3134.78 342.976   5
   2  11   9 14978.9 732.529   5
   2  11  10 2713.81 347.450   5
   2  11  11 3825.97 378.504   5
   2  11  11 3410.09 335.868  11
  -2 -11 -11 3610.31 335.816   1
   2  11  12 4413.16 416.592   5
   2  11  12 4741.64 384.374  11
   2  11  13 4516.80 392.041   5
   2  11  13 3993.85 353.919  11
   2  11  14 371.227 171.235   5
   2  11  14 477.819 171.667  11
   2  11  15-128.780 105.997   5
   2  11  15-80.7408 117.388  11
   2  11  16 2544.83 208.153  11
   2  11  16 2215.01 211.711  15
  -2 -12   6 5041.01 305.412   3
  -2 -12   5 175.771 152.603   3
  -2 -12   5 139.282 131.691  16
  -2 -12   4 1965.37 253.755  16
  -2 -12   3 79.0168 159.345  16
  -2 -12   2 1575.75 266.525  16
  -2 -12   1 1205.01 260.886  16
  -2 -12   0 609.073 201.809  16
  -2 -12  -1 10899.6 618.562   1
  -2 -12  -1 10936.1 612.932  16
  -2 -12  -2 559.709 167.446   1
  -2 -12  -2 390.463 201.965  16
  -2 -12  -3 1055.58 253.478  16
  -2 -12  -3 642.213 202.892   1
  -2 -12  -4 583.499 186.651   1
  -2 -12  -4 40.7524 113.140  16
   2  12   5 983.936 232.507   5
  -2 -12  -5 1314.15 259.618   1
  -2 -12  -6 329.747 181.634   1
   2  12   6 350.406 164.675   5
  -2 -12  -7 1059.74 233.282   1
   2  12   7 1037.08 224.776   5
   2  12   8 16732.6 765.870   5
  -2 -12  -8 16398.0 768.393   1
   2  12   9 12659.2 675.577   5
  -2 -12  -9 12692.3 667.085   1
   2  12  10 171.638 165.121   5
  -2 -12 -10 178.405 176.475   1
   2  12  11 18865.3 811.088   5
  -2 -12 -11 19690.4 758.977   1
   2  12  12 3859.10 382.929   5
   2  12  13 5117.02 403.599   5
   2  12  14 4020.36 340.715   5
   2  12  15 116.481 112.129   5
  -2 -13   5 633.421 123.597   3
  -2 -13   4-162.861 141.703   3
  -2 -13   4-5.87329 112.451  16
  -2 -13   3 435.899 150.183  16
  -2 -13   2-101.767 157.839  16
  -2 -13   1 293.996 206.083  16
  -2 -13   0 916.139 224.420  16
  -2 -13  -1 3107.97 350.841  16
  -2 -13  -1 2335.68 285.690   1
  -2 -13  -2 1679.61 275.366   1
  -2 -13  -2 1838.43 292.855  16
  -2 -13  -3 310.925 175.247  16
  -2 -13  -3 57.5195 162.873   1
  -2 -13  -4 13658.8 688.724   1
  -2 -13  -4 12655.7 608.040  16
  -2 -13  -5 4453.94 429.896   1
   2  13   6 21849.5 818.187   5
  -2 -13  -6 22949.1 909.424   1
  -2 -13  -7 13117.8 694.855   1
   2  13   7 12239.4 637.595   5
  -2 -13  -8 5980.37 483.302   1
   2  13   8 6153.33 466.109   5
   2  13   9 6853.62 492.305   5
  -2 -13  -9 6752.73 491.722   1
  -2 -13 -10 3680.90 362.947   1
   2  13  10 3257.93 358.524   5
  -2 -13 -11 807.970 196.370   1
   2  13  11 951.429 233.490   5
   2  13  12 10592.8 573.786   5
  -2 -13 -12 11621.2 523.393   1
   2  13  13 155.163 138.266   5
   2  13  14 59.6796 108.359   5
   2  13  15 1106.19 157.976   5
  -2 -14   3-43.0975 128.763   3
  -2 -14   3-20.9968 86.4891  16
  -2 -14   2 235.883 147.617  16
  -2 -14   1 3692.74 313.628  16
  -2 -14   0 1030.39 217.175  16
  -2 -14  -1-29.3550 146.130  16
  -2 -14  -2-468.284 191.049  16
  -2 -14  -2 185.009 153.572   1
  -2 -14  -3 51.4700 152.848  16
  -2 -14  -3 37.9163 157.172   1
  -2 -14  -4-78.4729 132.493  16
  -2 -14  -4 75.1058 187.187   1
  -2 -14  -5 1043.47 239.373   1
  -2 -14  -6 1955.21 295.637   1
   2  14   7 380.118 154.354   5
  -2 -14  -7 391.374 183.757   1
   2  14   8 3458.38 346.170   5
  -2 -14  -8 3051.80 356.989   1
  -2 -14  -9 208.897 170.639   1
   2  14   9 352.617 180.430   5
   2  14  10 410.269 196.002   5
  -2 -14 -10 389.559 171.797   1
   2  14  11 2187.32 277.500   5
  -2 -14 -11 2541.68 287.263   1
   2  14  12 5126.77 375.694   5
  -2 -14 -12 5579.31 348.794   1
   2  14  13 1385.56 195.899   5
   2  14  14 635.660 137.917   5
  -2 -15   1 700.999 124.207  16
  -2 -15   0 75.0705 111.020  16
  -2 -15  -1-0.61521 121.008  16
  -2 -15  -2 700.108 168.385  16
  -2 -15  -3 1028.87 191.748   1
  -2 -15  -3 1084.13 197.896  16
  -2 -15  -4 186.988 156.199   1
  -2 -15  -4 137.463 129.134  16
  -2 -15  -5-10.8714 140.350   1
  -2 -15  -6-38.0330 145.971   1
  -2 -15  -7 99.5678 167.567   1
   2  15   8 1297.66 197.769   5
  -2 -15  -8 1165.75 230.278   1
  -2 -15  -9-31.6609 145.044   1
   2  15   9 5.22227 112.663   5
  -2 -15 -10 4347.75 339.430   1
   2  15  10 4166.81 326.145   5
  -2 -15 -11 1042.35 174.009   1
   2  15  11 761.016 176.779   5
  -2 -15 -12 4095.04 254.371   1
   2  15  12 4943.78 321.242   5
   2  15  13 5742.20 305.545   5
  -2 -16  -2 764.500 113.452  16
  -2 -16  -3-26.7033 92.7121  16
  -2 -16  -4 640.033 147.868   1
  -2 -16  -5 1134.70 186.926   1
  -2 -16  -6 4329.06 324.803   1
  -2 -16  -7 687.939 162.413   1
  -2 -16  -8 479.339 163.475   1
   2  16   9 3060.96 225.320   5
  -2 -16  -9 3540.54 278.940   1
   2  16  10 367.267 118.681   5
  -2 -16 -10 79.4914 92.5591   1
   2  16  11 249.681 105.594   5
   3 -14  -7 119.430 97.9370   1
   3 -14  -6 1892.91 211.365   1
   3 -14  -5-108.669 127.213   1
   3 -14  -4 1132.31 184.210   1
   3 -14  -3 4752.46 320.006   1
   3 -14  -2 3058.83 261.835   1
   3 -14  -1 15222.3 496.864   1
  -3  13  10 7447.38 344.413   5
  -3  13  10 6480.83 315.777   4
  -3  13   9 4577.68 283.467   4
  -3  13   9 5064.74 316.464   5
  -3  13   8 2133.81 232.233   5
   3 -13  -7 2851.94 280.913   1
   3 -13  -6-93.7116 129.468   1
   3 -13  -5 115.929 159.246   1
   3 -13  -4 132.750 183.272   1
   3 -13  -3 21211.7 788.816   1
   3 -13  -2 106.620 165.485   1
   3 -13  -1 7239.18 456.770   1
   3 -13   0 708.000 177.832   1
   3 -13   1 410.277 130.104   1
  -3  12  12 1394.02 158.622   5
  -3  12  11-103.805 121.124  15
  -3  12  11 130.851 130.660   5
  -3  12  10-11.0692 126.026   5
  -3  12   9 105.771 144.193   5
  -3  12   8 612.366 167.753   5
   3 -12  -7 676.500 192.364   1
  -3  12   7 551.002 191.128   5
   3 -12  -6 1015.36 240.582   1
  -3  12   6 820.904 198.833   5
   3 -12  -5 293.475 199.183   1
   3 -12  -4 5419.04 463.806   1
   3 -12  -3 3535.23 397.892   1
   3 -12  -2 23901.4 924.900   1
   3 -12  -1-235.102 213.265   1
   3 -12  -1 106.365 135.602   9
   3 -12   0 12812.8 647.423   1
   3 -12   0 11846.4 528.593   9
   3 -12   1 208.924 149.779   9
   3 -12   1 162.443 144.037   1
   3 -12   2 263.425 143.191   1
   3 -12   2 46.1687 110.067   9
   3 -12   3 1119.51 168.975   9
   3 -12   4 898.066 135.272   9
  -3  11  12 506.506 140.666  15
  -3  11  12 507.787 137.521   5
  -3  11  11-4.85661 121.321   5
  -3  11  10 341.617 180.262   5
  -3  11   9 1565.79 276.617   5
  -3  11   8 8941.48 561.505   5
   3 -11  -7-305.134 161.975   1
  -3  11   7 85.6875 141.788   5
   3 -11  -6 4595.34 439.475   1
  -3  11   6 4116.35 376.704   5
   3 -11  -5-203.205 147.562   1
  -3  11   5 52.9348 159.661   5
   3 -11  -4 9760.03 618.171   1
   3 -11  -3 25337.6 1005.11   1
   3 -11  -2 25014.7 1004.40   1
   3 -11  -1 3709.84 359.518  16
   3 -11  -1 3025.60 376.532   1
   3 -11   0 744.383 226.002   1
   3 -11   0 1010.52 229.790  16
   3 -11   1 4317.42 365.580   9
   3 -11   1 4968.31 452.079   1
   3 -11   1 4874.12 427.922  16
   3 -11   2 611.549 222.626   1
   3 -11   2 869.160 225.230   9
   3 -11   2 871.772 227.638  16
   3 -11   3 219.774 188.906   1
   3 -11   3 15.7277 130.306   9
   3 -11   3-193.912 175.223  16
   3 -11   4 106.463 138.322   9
   3 -11   5 235.307 129.145   9
   3 -11   6 430.918 129.899   9
  -3  10  13 184.357 112.767  15
  -3  10  13 154.822 108.732   5
  -3  10  12 1009.34 206.818  15
  -3  10  12 1141.69 203.493   5
  -3  10  11 585.020 219.385   5
  -3  10  10 2713.83 342.775   5
  -3  10   9 3445.24 366.378   5
  -3  10   8 13334.9 712.791   5
  -3  10   7 14044.3 731.741   5
   3 -10  -7 13376.7 672.199   1
  -3  10   6 22648.4 916.402   5
   3 -10  -6 22496.1 900.958   1
   3 -10  -5 48068.5 1344.73   1
  -3  10   5 49712.3 1313.34   5
   3 -10  -4 7399.89 559.821   1
   3 -10  -3 42073.7 1305.46   1
   3 -10  -2 8301.48 605.448   1
   3 -10  -2 7569.11 508.319  16
   3 -10  -1 16894.3 845.342   1
   3 -10  -1 17533.5 765.104  16
   3 -10   0 40375.6 1168.90  16
   3 -10   0 40465.7 1291.25   1
   3 -10   1 22.4708 183.483   1
   3 -10   1 15.7036 165.515  16
   3 -10   2 8021.81 574.777   1
   3 -10   2 7472.40 510.783   9
   3 -10   2 7927.37 537.705  16
   3 -10   3 267.774 185.628  16
   3 -10   3 268.173 158.264   1
   3 -10   3 353.968 171.486   9
   3 -10   4 1196.14 238.449   9
   3 -10   4 1091.49 241.476  16
   3 -10   5 3148.59 316.264   9
   3 -10   6 241.304 152.485   9
   3 -10   7 1342.13 199.816   9
   3 -10   8-134.411 88.0252   9
  -3   9  14 1197.50 182.019  15
  -3   9  14 1008.61 145.263   4
  -3   9  13 209.570 148.643  15
  -3   9  13 160.766 129.605   5
  -3   9  12 287.746 184.865  15
  -3   9  12 386.128 164.108   5
  -3   9  11 3301.00 360.668   5
  -3   9  10 4238.75 424.528   5
  -3   9   9 16598.3 813.461   5
  -3   9   8 3980.32 420.696   5
  -3   9   7 22083.1 935.309   5
   3  -9  -6-72.3718 154.970   1
  -3   9   6 30.7621 197.006   5
  -3   9   5 10166.8 625.207   5
   3  -9  -5 10724.4 633.996   1
  -3   9   4-133.186 147.984   5
   3  -9  -4-48.2658 144.464   1
   3  -9  -3 2280.79 345.269   1
   3  -9  -3 2274.67 286.877  16
   3  -9  -2 20921.5 917.222   1
   3  -9  -2 20080.7 801.437  16
   3  -9  -1 2458.32 341.707   1
   3  -9  -1 3196.78 339.658  16
   3  -9   0 1033.93 269.801   1
   3  -9   0 1311.09 277.701  16
   3  -9   1 13941.3 756.937   1
   3  -9   1 13416.8 689.506  16
   3  -9   2 2657.29 355.066   1
   3  -9   2 2537.07 342.521  16
   3  -9   3 403.858 178.737   1
   3  -9   3 159.264 178.504  16
   3  -9   4 2412.27 323.261  16
   3  -9   4 2402.54 311.990   1
   3  -9   4 2593.84 344.213   9
   3  -9   5 8193.89 537.826   9
   3  -9   5 8189.12 528.491  16
   3  -9   6 3411.51 356.295   9
   3  -9   6 3166.84 332.554  16
   3  -9   7 31.7122 163.245   9
   3  -9   8-162.041 135.435   9
   3  -9   8 81.5158 120.400   2
   3  -9   9 283.623 110.089   9
  -3   8  14 5701.10 365.474  15
  -3   8  14 4859.76 279.517   4
  -3   8  13 626.666 191.243  15
  -3   8  13 610.709 166.373   5
  -3   8  12 1026.37 242.750  15
  -3   8  12 963.304 223.444   5
  -3   8  11 5279.55 441.157   5
  -3   8  10 5981.56 497.589   5
  -3   8   9 2041.26 326.459   5
  -3   8   8-23.3392 122.092   5
  -3   8   7 8433.34 592.558   5
  -3   8   6 9186.78 597.825   5
   3  -8  -5 20226.7 835.995   1
  -3   8   5 22325.6 1229.20  19
  -3   8   5 21789.1 877.185   5
  -3   8   4 9414.55 573.278   5
   3  -8  -4 8855.00 566.654   1
   3  -8  -3 585.843 194.864   1
   3  -8  -2 14996.9 744.303   1
   3  -8  -1 29319.2 1049.16   1
   3  -8  -1 26881.7 908.244  16
   3  -8   0 2752.15 354.271   1
  -3   8   0 2407.66 389.434  20
   3  -8   0 3093.00 343.493  16
  -3   8  -1 9331.08 755.337  20
   3  -8   1 10333.7 649.311   1
   3  -8   1 9094.87 562.821  16
   3  -8   2 9117.71 600.912   1
  -3   8  -2 8850.24 751.028  20
   3  -8   2 10130.6 600.369  16
   3  -8   3 45985.9 1305.68   1
   3  -8   3 43676.9 1232.37  16
   3  -8   4 16273.3 762.870   9
   3  -8   4 16711.6 780.418   1
   3  -8   4 16051.0 758.222  16
   3  -8   5 15281.5 736.863   9
   3  -8   5 16752.1 778.917  16
   3  -8   6 21191.1 850.035   9
   3  -8   6 21072.7 829.240  16
   3  -8   7 235.945 204.646   9
   3  -8   8 113.646 176.481   9
   3  -8   9 64.9575 142.796   9
   3  -8   9-203.314 141.579   2
   3  -8  10 387.052 123.328   2
  -3   7  15 2288.81 196.984  15
  -3   7  14 1220.95 222.215  15
  -3   7  13 3299.85 358.335  15
  -3   7  12 3218.86 340.835   5
  -3   7  12 3437.98 378.090  15
  -3   7  11 136.627 137.239   5
  -3   7  10 5379.83 474.215   5
  -3   7   9 1144.67 263.301   5
  -3   7   8 40222.9 1253.54   5
  -3   7   7 14508.3 742.153   5
  -3   7   7 14607.9 1030.11  19
  -3   7   6 582.852 174.578   5
  -3   7   6 208.975 211.378  19
  -3   7   5 7149.02 701.370  19
   3  -7  -4 1445.38 264.523  18
   3  -7  -3 1255.64 234.290  18
   3  -7  -2 1164.98 245.135  18
  -3   7   1 11065.6 711.080  20
   3  -7  -1 10259.1 715.839  18
  -3   7   0 1282.01 250.408  20
  -3   7  -1 19244.7 976.022  20
  -3   7  -2 11536.7 805.583  20
   3  -7   2 11132.2 602.015  16
   3  -7   3 8812.14 559.130   1
   3  -7   3 8711.20 548.637  16
  -3   7  -3 7796.67 696.196  20
  -3   7  -4 409.022 275.922  20
   3  -7   4 746.305 231.436   1
   3  -7   4 431.777 188.305  16
   3  -7   5 571.084 205.566   9
   3  -7   5 473.766 187.027  16
   3  -7   6 473.645 182.929   9
   3  -7   6 500.324 187.307  16
   3  -7   7 5192.27 426.853  16
   3  -7   7 5376.81 455.415   9
   3  -7   8 131.058 157.818   9
   3  -7   9 153.316 170.236   9
   3  -7  10 2889.48 302.987   2
   3  -7  10 3643.24 308.677   9
   3  -7  11 5517.08 336.834   2
  -3   6  15 3391.70 258.022  15
  -3   6  14 1128.05 213.030  15
  -3   6  13 2368.47 342.527  15
  -3   6  12 5614.05 488.006  15
  -3   6  12 4768.63 397.827   5
  -3   6  11 1648.27 301.822  15
  -3   6  11 1672.36 303.446   5
  -3   6  10 18639.9 853.685   5
  -3   6   9 31272.0 1102.78   5
  -3   6   8 8295.26 812.021  19
  -3   6   8 9274.97 606.982   5
  -3   6   7 3863.67 394.561   5
  -3   6   7 4876.35 629.299  19
  -3   6   6 1630.38 357.427  19
  -3   6   5 2442.79 399.676  19
   3  -6  -4 27109.2 1027.00  18
  -3   6   4 28081.4 1188.69  19
   3  -6  -3 1484.81 267.462  18
   3  -6  -2 78.9459 159.866  18
   3  -6  -1 666.407 226.572  18
  -3   6   1 534.855 183.331  20
   3  -6   0 73915.7 1832.22  18
  -3   6   0 73507.9 1660.38  20
  -3   6  -1 13158.3 752.023  20
   3  -6   1 12465.3 795.025  18
  -3   6  -2 92.4412 133.068  20
  -3   6  -3 13598.5 840.201  20
  -3   6  -4 508.121 219.923  20
   3  -6   5 7869.87 519.634  16
  -3   6  -5 7420.42 697.201  20
   3  -6   6-82.8439 142.603   9
   3  -6   6-255.118 131.742  16
   3  -6   7 3661.52 384.587   9
   3  -6   7 3984.44 376.856  16
   3  -6   8-132.781 183.111   9
   3  -6   9 638.682 198.307   9
   3  -6  10 3265.18 341.957   9
   3  -6  11 1184.97 206.232   9
   3  -6  11 1316.62 238.147   2
   3  -6  12 417.058 139.228   2
  -3   5  15-76.0187 111.956  15
  -3   5  14 210.577 163.136  15
  -3   5  13 595.479 220.867  15
  -3   5  12 3778.88 407.859  15
  -3   5  11 41.9153 193.414  15
  -3   5  11 263.111 172.627   5
  -3   5  10 10643.1 637.221   5
  -3   5   9 84832.5 1768.88   5
  -3   5   8 28720.3 1029.52   5
  -3   5   8 27905.9 1410.84  19
  -3   5   7 1093.49 309.516  19
  -3   5   6 3171.09 463.123  19
  -3   5   5 138.595 186.917  19
  -3   5   4 55.6078 196.302  19
   3  -5  -3 7678.95 546.477  18
  -3   5   2 136286. 1892.30  20
   3  -5  -2 133376. 2181.64  18
   3  -5  -1-298.088 207.073  18
  -3   5   1 243.220 167.080  20
  -3   5   0 20399.5 796.908  20
   3  -5   0 21770.3 921.593  18
  -3   5  -1-143.072 96.4473  20
   3  -5   1-104.493 183.508  18
   3  -5   2 2392.44 274.519  13
   3  -5   2 2314.04 360.663  18
  -3   5  -2 2493.86 324.958  20
   3  -5   3 6716.28 484.637  13
  -3   5  -3 7583.14 572.966  20
   3  -5   4 5968.32 501.846  13
  -3   5  -4 6988.21 598.914  20
   3  -5   5 59943.8 1640.75  13
   3  -5   6 968.940 216.330  16
   3  -5   6 412.140 156.993   9
   3  -5   7 13269.0 670.523   9
   3  -5   7 14439.0 662.932  16
   3  -5   8 545.088 212.161   9
   3  -5   9 1026.51 245.055   9
   3  -5  10 6590.66 471.781   9
   3  -5  11 926.932 255.279   2
   3  -5  11 924.791 219.597   9
   3  -5  12 156.286 157.568   2
   3  -5  13 221.038 125.316   2
  -3   4  15 163.351 107.164  15
  -3   4  14 3435.69 329.281  15
  -3   4  13 453.785 202.280  15
  -3   4  13 831.141 200.023  11
  -3   4  12 34904.7 1210.31  15
  -3   4  12 35409.0 1013.53  11
  -3   4  11 14672.3 817.308  15
  -3   4  11 15705.5 698.320  11
  -3   4  10 3960.16 443.389  15
  -3   4  10 4654.75 427.388   5
  -3   4   9 57998.2 1440.61   5
  -3   4   9 53725.5 2035.09  19
  -3   4   8 46506.5 1260.82   5
  -3   4   8 48538.1 1848.75  19
  -3   4   7 3264.89 467.083  19
  -3   4   6 3823.97 478.036  19
  -3   4   5 5484.10 544.044  19
  -3   4   4 3880.45 429.553  19
   3  -4  -4 3792.01 367.765  17
  -3   4   3 12944.9 684.546  19
   3  -4  -3 12713.7 655.648  17
   3  -4  -2 7456.46 506.099  17
  -3   4   2 7154.59 394.074  20
  -3   4   1 66794.2 1202.28  20
   3  -4  -1 71136.6 1500.53  17
   3  -4   0 26678.7 924.391  17
  -3   4   0 24226.0 769.003  20
   3  -4   0 24640.2 917.973  18
   3  -4   1 46914.0 1280.81  18
  -3   4  -1 44839.8 1082.56  20
  -3   4  -2 185.323 130.079  20
   3  -4   2 137.142 178.186  18
   3  -4   3 7135.91 554.832  18
   3  -4   4 15703.8 754.467  13
   3  -4   5 2321.36 344.969  13
   3  -4   6-326.034 132.400  13
   3  -4   7 15510.8 933.404  13
   3  -4   7 16322.8 712.420   9
   3  -4   8 4438.59 409.340   9
   3  -4   9 2781.67 315.134  10
   3  -4   9 2217.72 289.283   9
   3  -4  10 181.011 174.567   9
   3  -4  10 35.4337 94.4053  10
   3  -4  11 23884.8 778.400  10
   3  -4  11 25186.7 831.077   9
   3  -4  12 309.395 224.492   2
   3  -4  13 73.6267 143.442   2
   3  -4  14 954.718 157.344   2
  -3   3  15 4727.26 292.062  15
  -3   3  14 476.329 178.114  15
  -3   3  13 6995.77 454.410  11
  -3   3  13 7542.32 547.355  15
  -3   3  12 8488.07 614.996  15
  -3   3  12 9228.44 548.256  11
  -3   3  11 5543.85 518.909  15
  -3   3  11 6220.26 470.447  11
  -3   3  10 14446.2 802.918  15
  -3   3  10 13921.7 690.915  11
  -3   3   9 37977.7 1254.76  15
  -3   3   9 35570.2 1100.87   5
  -3   3   9 35975.1 1069.65  11
  -3   3   8 8013.57 736.797  19
  -3   3   7 62.1202 293.644  19
  -3   3   6 4280.13 511.313  19
  -3   3   5 17587.7 901.007  19
   3  -3  -5 17369.4 718.618  17
  -3   3   4 15703.9 787.888  19
   3  -3  -4 15648.7 675.729  17
   3  -3  -3 36034.0 1005.30  17
  -3   3   3 35718.4 1096.88  19
   3  -3  -2 4111.45 361.966  17
  -3   3   1 5240.79 301.004  20
   3  -3  -1 5263.92 408.747  17
  -3   3   0 17174.5 552.294  20
   3  -3   0 16931.0 688.040  17
   3  -3   1 2512.35 293.467  17
  -3   3  -1 1912.43 222.327  20
   3  -3   2 122896. 1821.10  17
   3  -3   2 111185. 1869.14  18
   3  -3   3 13.2125 198.727  18
   3  -3   4 1983.59 299.472  18
   3  -3   5 26016.4 994.156  13
   3  -3   6 27793.8 1109.43  13
   3  -3   7 6218.73 575.432  13
   3  -3   8 31270.6 1344.39  13
   3  -3   8 30518.4 941.915   9
   3  -3   9 1865.97 267.068  10
   3  -3   9 1820.22 247.846  12
   3  -3   9 2110.29 296.431   9
   3  -3  10-41.6182 89.8599  10
   3  -3  10 180.695 155.517   9
   3  -3  11 2235.09 294.874  10
   3  -3  11 2432.91 307.735   9
   3  -3  12 91.7590 196.004   2
   3  -3  12 324.399 143.321  10
   3  -3  13 782.375 208.528   2
   3  -3  14 629.215 165.200   2
  -3   2  15 3253.32 230.286  15
  -3   2  14 7719.66 455.003  15
  -3   2  13 7626.91 531.851  15
  -3   2  13 7891.18 489.655  11
  -3   2  12 2068.49 328.029  15
  -3   2  12 2368.18 330.073  11
  -3   2  11 225.858 220.718  15
  -3   2  11 88.5301 171.757  11
  -3   2  11-9.46787 129.770   2
  -3   2  10 45128.4 1182.27   6
  -3   2  10 44753.0 1414.19  15
  -3   2  10 48657.8 1331.66   2
  -3   2  10 47288.2 1292.82  11
  -3   2   9 352.635 162.424   6
  -3   2   9 32.9001 151.042  15
  -3   2   9 165.201 166.559  11
  -3   2   9 10.2872 155.426   2
  -3   2   8 9523.41 832.394  14
  -3   2   7 7.70236 197.100  19
  -3   2   6 30832.9 1253.25  19
   3  -2  -5 59.5014 107.905  17
  -3   2   5 120.744 189.367  19
  -3   2   4 23078.3 913.165  19
   3  -2  -4 23935.2 772.857  17
   3  -2  -3 17218.1 653.527  17
  -3   2   3 16796.5 725.067  19
   3  -2  -2 224205. 2296.81  17
  -3   2   2 218434. 2352.37  19
  -3   2   1 165141. 1232.06  20
   3  -2  -1 170189. 1990.12  17
  -3   2   0 197635. 1514.98  20
   3  -2   0 204416. 2148.30  17
   3  -2   1 107098. 1556.93  17
  -3   2  -1 100263. 1226.98  20
   3  -2   2 61232.9 1183.85  17
   3  -2   3 3342.26 341.796  18
   3  -2   3 2742.50 287.880  17
   3  -2   4 17761.9 741.758  18
   3  -2   4 17747.2 650.932  17
   3  -2   5 37681.1 1131.12  13
   3  -2   5 38478.7 1093.26  18
   3  -2   6 521.191 209.534  13
   3  -2   7 11322.2 723.888  13
   3  -2   8 633.783 194.828  13
   3  -2   9 4195.70 511.496  13
   3  -2   9 4285.02 375.179  12
   3  -2   9 3881.55 355.888   9
   3  -2  10 20740.1 766.675  12
   3  -2  10 20117.0 793.962  10
   3  -2  10 20461.9 775.044   9
   3  -2  11 8752.64 507.244   9
   3  -2  11 9262.14 555.452  10
   3  -2  12 407.308 186.152   2
   3  -2  12 381.719 167.627  10
   3  -2  13 136.132 155.701  10
   3  -2  13 194.027 174.049   2
   3  -2  14 934.130 199.677   2
   3  -2  15-54.5814 117.835   2
  -3   1  14 1127.48 211.608  15
  -3   1  13-52.6678 166.728  15
  -3   1  12 1027.90 252.242  15
  -3   1  12 622.245 218.775  11
  -3   1  12 935.968 238.615   2
  -3   1  11-176.635 171.466  15
  -3   1  11-49.3445 165.451  11
  -3   1  11 78.3015 182.804   2
  -3   1  11 235.067 148.078   7
  -3   1  10 5534.39 444.024   6
  -3   1  10 6116.63 542.228  15
  -3   1  10 5530.73 469.088   2
  -3   1  10 5557.46 480.671  11
  -3   1  10 5208.18 388.527   7
  -3   1   9 45909.4 1198.91   6
  -3   1   9 44047.4 1355.54  15
  -3   1   9 45724.1 1270.24  11
  -3   1   9 45570.2 1278.31   2
  -3   1   9 43748.5 1069.49   7
  -3   1   8 18292.0 1142.61  14
  -3   1   7 425.313 243.483  14
  -3   1   6 87001.5 2156.83  14
  -3   1   6 83401.0 2006.27  19
  -3   1   5-207.003 207.758  19
   3  -1  -5 69.5714 84.4990  17
  -3   1   4 16234.6 772.883  19
   3  -1  -4 16840.3 633.749  17
  -3   1   3 2506.76 305.933  19
   3  -1  -3 2548.25 275.733  17
  -3   1   2 91940.3 1473.83  19
   3  -1  -2 94047.2 1422.68  17
   3  -1  -1 176.238 50.0734  21
   3  -1  -1 91.1140 144.204  17
  -3   1   1 132.852 113.190  19
  -3   1   0 1936.00 115.186  20
  -3   1   0 2020.29 198.939  19
   3  -1   0 1848.30 226.723  17
   3  -1   0 1800.33 145.115  21
   3  -1   1 111046. 1502.31  17
   3  -1   1 113863. 1212.82  21
   3  -1   2 51967.8 937.951  21
   3  -1   2 51263.5 1014.23  17
   3  -1   3 208.852 134.629  17
   3  -1   3 221.111 128.906  21
   3  -1   4 22417.8 755.466  18
   3  -1   4 22058.3 750.662  21
   3  -1   4 22052.3 667.148  17
   3  -1   5 50491.2 1254.73  21
   3  -1   5 49541.7 1132.16  18
   3  -1   5 50787.0 991.759  17
   3  -1   6 88361.4 1771.62  13
   3  -1   7-20.7233 101.898  13
   3  -1   8 9639.41 698.243  13
   3  -1   9-139.535 191.541  13
   3  -1  10 19149.6 749.985  12
   3  -1  10 20269.3 734.081   9
   3  -1  11 11491.4 578.959  12
   3  -1  11 11010.7 599.457  10
   3  -1  12 5168.50 396.011  12
   3  -1  12 5164.76 487.784   2
   3  -1  12 5951.83 468.137  10
   3  -1  13 2556.84 313.456  10
   3  -1  13 1943.42 313.902   2
   3  -1  14-13.8173 148.433  10
   3  -1  14 264.950 173.954   2
   3  -1  15 25.4533 101.596   2
  -3   0  14 5028.71 325.413  15
  -3   0  13 2510.21 308.124  15
  -3   0  12 10650.5 607.295   2
  -3   0  12 9869.90 627.019  15
  -3   0  11 13205.3 767.823  15
  -3   0  11 12535.1 600.430   7
  -3   0  11 13754.8 733.859  11
  -3   0  11 13246.0 719.210   2
  -3   0  10 7029.42 517.730   6
  -3   0  10 7088.18 575.713  15
  -3   0  10 7649.32 554.973  11
  -3   0  10 7588.92 550.977   2
  -3   0  10 8061.78 492.972   7
  -3   0   9 1184.97 225.767   7
  -3   0   9 1005.65 245.565   6
  -3   0   9 1298.93 261.087  15
  -3   0   9 1337.41 272.928  11
  -3   0   9 1182.82 270.145   2
  -3   0   8 6639.08 523.118  15
  -3   0   8 7048.88 720.581  14
  -3   0   8 7309.74 494.906   2
  -3   0   7 5078.26 600.773  14
  -3   0   6-28.9099 164.593  14
   3   0  -5 43657.0 988.931  17
  -3   0   5 42267.3 1399.05  14
  -3   0   4-2.55542 203.037  14
  -3   0   4 132.389 179.243  19
   3   0  -4-37.7492 106.278  17
  -3   0   3 229897. 2586.15  19
   3   0  -3 239140. 2267.88  17
   3   0  -2 64854.5 1166.35  17
  -3   0   2 66720.3 1247.42  19
  -3   0   1 79608.1 1209.05  19
   3   0  -1 81935.3 1289.50  17
   3   0   0 4066.20 302.202  17
  -3   0   0 4017.86 246.997  19
   3   0   1 10503.4 459.964  17
  -3   0  -1 10172.7 318.960  19
   3   0   2 14983.4 533.604  17
   3   0   2 15179.9 499.362  21
   3   0   3 30733.9 745.909  17
   3   0   3 32536.2 796.758  21
   3   0   4 26828.3 686.890  17
   3   0   4 28333.1 828.090  21
   3   0   5 1683.40 268.938  21
   3   0   5 1451.11 203.323  18
   3   0   5 1178.78 163.463  17
   3   0   6 2263.29 318.776  21
   3   0   6 1934.75 230.025  18
   3   0   7 47008.9 1333.29  13
   3   0   7 48178.2 1396.49  21
   3   0   8-1.47595 128.349  13
   3   0   9 58.5217 207.303  13
   3   0  10 1701.24 310.627  13
   3   0  10 1519.33 226.657  12
   3   0  11 16311.9 701.947  12
   3   0  12 1297.56 273.198   2
   3   0  12 1274.73 211.946  12
   3   0  12 1510.73 275.777  10
   3   0  13 228.541 141.636  12
   3   0  13 284.461 183.372  10
   3   0  13 213.615 195.346   2
   3   0  14 525.856 205.404  10
   3   0  14 586.003 192.602   2
   3   0  15 6185.87 391.807  10
   3   0  15 5319.54 369.740   2
   3   0  16 3744.65 234.669   2
  -3  -1  14 4522.08 272.462  15
  -3  -1  13 3062.65 302.997  15
  -3  -1  12 19757.3 831.264  15
  -3  -1  12 20409.6 828.951   2
  -3  -1  11-142.450 189.074   2
  -3  -1  11-256.518 200.542  15
  -3  -1  11 144.349 195.995  11
  -3  -1  11-95.3021 157.979   7
  -3  -1  10 21403.6 965.323  15
  -3  -1  10 22399.1 929.771  11
  -3  -1  10 23298.6 956.096   2
  -3  -1  10 22668.2 833.000   7
  -3  -1   9 8621.12 564.940   6
  -3  -1   9 8338.92 557.039   3
  -3  -1   9 8435.35 574.752  11
  -3  -1   9 8582.81 589.566   2
  -3  -1   9 8303.61 609.861  15
  -3  -1   9 7944.81 504.103   7
  -3  -1   8-170.115 202.866  15
  -3  -1   8 297.150 162.809   3
  -3  -1   8 138.493 134.265  11
  -3  -1   8-23.4788 142.588   2
  -3  -1   8 317.219 188.453   6
  -3  -1   8 103.201 162.900   7
  -3  -1   7 15506.8 1009.43  14
  -3  -1   6 25802.8 1212.16  14
  -3  -1   5 7.93354 172.120  14
  -3  -1   4 48463.6 1406.12  14
   3   1  -4 47149.6 1046.01  17
  -3  -1   3 36261.3 1108.98  14
   3   1  -3 37417.6 921.415  17
   3   1  -2 36031.0 887.744  17
  -3  -1   2 37843.9 1026.23  14
  -3  -1   1 6074.67 382.345  14
   3   1  -1 5938.91 370.844  17
  -3  -1   0 12658.1 468.997  14
  -3  -1   0 11505.1 394.807  19
   3   1   0 12205.7 501.780  17
  -3  -1  -1 3496.02 210.059  14
   3   1   1 3298.32 278.704  17
  -3  -1  -2 3338.93 147.612  14
   3   1   2 3330.17 268.756  17
   3   1   3 7425.30 375.511  17
   3   1   4 83704.3 1181.66  17
   3   1   4 83213.7 1372.80  21
   3   1   5 62693.7 1299.55  21
   3   1   5 63783.1 1041.99  18
   3   1   5 61819.7 989.178  17
   3   1   6 66251.8 1065.82  18
   3   1   6 65851.1 1444.22  21
   3   1   7 36167.4 1122.17  13
   3   1   7 35472.9 1153.81  21
   3   1   8 26913.0 1083.48  21
   3   1   8 28396.1 1081.83  13
   3   1   9 38935.9 1361.27  13
   3   1  10 251.930 140.521  13
   3   1  11 4325.79 371.024  12
   3   1  11 4755.58 411.388  11
   3   1  12 7771.50 498.807  12
   3   1  12 7253.27 539.806   2
   3   1  12 7284.22 505.781  11
   3   1  13 44.9399 155.093  12
   3   1  13 188.984 164.736  10
   3   1  13 600.623 201.490   2
   3   1  13 111.870 146.296  11
   3   1  14 2313.84 275.970  12
   3   1  14 2569.22 299.190  11
   3   1  14 2989.41 335.118   2
   3   1  14 2619.09 319.003  10
   3   1  15 513.080 170.955   2
   3   1  15 734.141 185.374  11
   3   1  15 755.867 192.764  10
   3   1  16 8847.84 376.490   2
  -3  -2  13 4797.45 333.937  15
  -3  -2  12 1259.87 251.276  15
  -3  -2  12 782.791 229.194   2
  -3  -2  11 16297.2 765.474   2
  -3  -2  11 14371.0 746.526  15
  -3  -2  11 15090.0 667.696   7
  -3  -2  10 5193.57 488.818  15
  -3  -2  10 5382.60 469.213   3
  -3  -2  10 6018.64 498.965   2
  -3  -2  10 5197.34 421.308   7
  -3  -2   9 4668.38 446.090  11
  -3  -2   9 5374.62 468.136   2
  -3  -2   9 5059.94 452.168   3
  -3  -2   9 5111.93 500.903  15
  -3  -2   9 5635.62 456.725   7
  -3  -2   8 4800.18 422.772   6
  -3  -2   8 4783.88 466.728  15
  -3  -2   8 5023.54 419.097   3
  -3  -2   8 4719.19 669.855  14
  -3  -2   8 4414.09 435.612  11
  -3  -2   8 4640.27 431.931   2
  -3  -2   8 4282.17 382.390   7
  -3  -2   7-50.5919 66.4067  14
  -3  -2   6 4853.79 562.384  14
  -3  -2   5 6057.53 575.271  14
  -3  -2   4 35009.7 1228.39  14
   3   2  -4 35527.7 939.547  17
  -3  -2   3 16779.7 786.196  14
   3   2  -3 17574.3 663.231  17
   3   2  -2 1237.15 217.746  17
   3   2  -2 1035.70 112.410  20
  -3  -2   2 1218.59 244.425  14
   3   2  -1 12326.4 539.646  17
   3   2  -1 11412.1 264.683  20
  -3  -2   1 11805.0 541.582  14
  -3  -2   0 4958.96 321.816  14
   3   2   0 4920.27 147.359  20
   3   2   0 5274.04 358.958  17
  -3  -2  -1 2528.10 202.460  14
   3   2   1 2352.34 247.700  17
   3   2   1 2364.50 132.753  20
   3   2   2 14640.7 390.535  20
   3   2   2 14723.4 552.317  17
  -3  -2  -2 13846.4 334.359  14
   3   2   3 46769.4 840.531  20
   3   2   3 47408.5 948.395  17
   3   2   4-85.7236 117.981  20
   3   2   4 47.0921 99.4364  17
   3   2   5 126544. 1804.50  21
   3   2   5 117085. 1397.39  17
   3   2   6 250.455 198.562  21
   3   2   6 350.434 103.292  17
   3   2   7 10547.4 586.701  13
   3   2   7 10564.0 637.033  21
   3   2   8 15055.1 759.244  13
   3   2   8 14297.2 784.594  21
   3   2   9 24753.4 1051.02  13
   3   2   9 25500.3 1108.27  21
   3   2  10 5415.03 522.578  13
   3   2  11 9692.50 739.008  13
   3   2  11 8045.34 491.586  12
   3   2  11 8341.85 540.812  11
   3   2  12 2507.55 306.584  11
   3   2  12 2612.05 312.378   2
   3   2  12 2246.99 291.897  12
   3   2  13 30009.5 951.279  12
   3   2  13 30870.9 1032.73  11
   3   2  13 29575.7 1001.79   2
   3   2  13 30412.5 995.602  10
   3   2  14 1090.07 238.820   2
   3   2  14 1609.95 249.275  12
   3   2  14 2180.21 303.976  11
   3   2  14 1682.96 281.607  10
   3   2  15 645.337 182.339  11
   3   2  15 1050.39 205.980   2
   3   2  15 718.967 206.224  10
   3   2  16 1008.84 178.904  11
   3   2  16 1216.24 188.619  10
  -3  -3  13 325.137 113.044  15
  -3  -3  12 1328.66 241.812  15
  -3  -3  12 1125.43 218.140   2
  -3  -3  11 2211.88 291.046  15
  -3  -3  11 2987.43 354.633   2
  -3  -3  10-194.422 190.932   2
  -3  -3  10 67.3832 156.643  15
  -3  -3  10 276.666 186.327   3
  -3  -3  10 57.5801 182.904   7
  -3  -3   9 91.6777 158.259   7
  -3  -3   9 358.303 202.185   3
  -3  -3   9-20.3856 167.568   2
  -3  -3   9 219.740 111.808  15
  -3  -3   8 38312.9 1239.42  15
  -3  -3   8 38201.5 1150.68   3
  -3  -3   8 39824.0 1208.92  11
  -3  -3   8 40908.6 1250.88   2
  -3  -3   8 38268.5 1100.81   7
  -3  -3   7 453.010 154.506   7
  -3  -3   7 214.820 130.514  15
  -3  -3   7 861.170 306.932  14
  -3  -3   7 479.134 153.986   3
  -3  -3   7 577.511 184.625  11
  -3  -3   7 392.167 159.374   2
  -3  -3   7 1155.17 248.890   6
  -3  -3   6 6487.19 628.376  14
  -3  -3   5 3904.53 508.841  14
   3   3  -4 11149.4 573.496  17
  -3  -3   4 11261.5 735.089  14
  -3  -3   3 1130.39 275.371  14
   3   3  -3 1343.81 183.467  20
   3   3  -3 828.333 199.439  17
   3   3  -2 29615.0 902.202  17
  -3  -3   2 29491.0 998.149  14
   3   3  -2 30887.8 688.400  20
   3   3  -1 22670.1 537.993  20
   3   3  -1 23294.0 774.750  17
  -3  -3   1 22441.1 789.874  14
  -3  -3   0 37203.4 899.750  14
   3   3   0 35881.3 631.233  20
   3   3   0 38562.4 965.525  17
   3   3   1 44929.0 1020.09  17
   3   3   1 45130.9 691.306  20
   3   3   2 23570.6 542.884  20
   3   3   2 25688.7 761.023  17
   3   3   3 790.765 186.704  17
   3   3   3 651.717 138.870  20
   3   3   4 115152. 1533.28  17
   3   3   4 112776. 1513.89  20
   3   3   5 3911.06 346.069  20
   3   3   5 3488.14 281.235  17
   3   3   6 7795.62 376.332  17
   3   3   6 7949.84 518.199  21
   3   3   6 8310.92 521.818  20
   3   3   7 5501.34 468.925  21
   3   3   7 6045.70 437.393  13
   3   3   8 37989.3 1150.17  13
   3   3   8 39516.3 1259.84  21
   3   3   9 7273.88 560.191  13
   3   3   9 7753.04 609.180  21
   3   3  10 1442.08 280.982  13
   3   3  10 1084.82 269.253  21
   3   3  11 30475.4 944.220  12
   3   3  11 30970.2 1013.79  11
   3   3  12 1565.93 262.287  12
   3   3  12 1992.69 291.158  11
   3   3  13 4309.69 383.690  12
   3   3  13 5204.61 445.472  11
   3   3  13 3983.50 377.114  10
   3   3  14 250.491 176.694  10
   3   3  14-0.94760 141.270  12
   3   3  14 203.837 163.168  11
   3   3  15 1864.75 273.828  10
   3   3  15 2117.77 290.269  11
   3   3  16 226.842 133.550  11
   3   3  16 52.2364 136.611  10
   3   3  17 333.217 99.0562  11
  -3  -4  12 382.258 143.795  15
  -3  -4  12 271.434 133.762   2
  -3  -4  11 285.506 172.654   2
  -3  -4  11 113.221 171.291  15
  -3  -4  10 2566.66 320.270  15
  -3  -4  10 2236.99 306.726   3
  -3  -4  10 2689.41 356.180   2
  -3  -4  10 2995.27 335.716   7
  -3  -4   9 245.888 177.223   3
  -3  -4   9 620.871 199.028  15
  -3  -4   9 353.230 200.429   2
  -3  -4   9-107.295 181.109   7
  -3  -4   8 29558.2 1089.03  15
  -3  -4   8 29281.9 1030.44   3
  -3  -4   8 30922.9 1089.18   2
  -3  -4   8 30447.2 996.055   7
  -3  -4   7 11217.2 671.001  15
  -3  -4   7 11061.8 626.796   3
  -3  -4   7 11907.0 669.403   2
  -3  -4   7 11302.6 606.194   7
  -3  -4   6 8077.19 757.569  14
  -3  -4   5 45393.6 1647.11  14
  -3  -4   4 488.190 212.738  14
   3   4  -4-32.2429 91.8332  17
  -3  -4   3 100345. 2093.42  14
   3   4  -3 100542. 1792.59  17
   3   4  -3 97914.2 1575.79  20
   3   4  -2 34558.4 1029.49  17
  -3  -4   2 33723.8 1128.80  14
   3   4  -2 34477.8 856.766  20
  -3  -4   1 5424.87 421.935  14
   3   4  -1 6120.57 344.513  20
   3   4  -1 6282.78 449.636  17
  -3  -4   0 4211.77 350.734  14
   3   4   0 4343.09 277.427  20
   3   4   0 3971.62 364.190  17
   3   4   1 42519.4 826.200  20
   3   4   1 41468.0 1056.11  17
  -3  -4  -1 39709.7 911.809  14
   3   4   2 80877.9 1157.66  20
   3   4   2 80644.2 1432.69  17
   3   4   3 13367.4 502.364  20
   3   4   3 13829.3 591.756  17
   3   4   4 296465. 2662.23  17
   3   4   4 300693. 2548.62  20
   3   4   5 18998.1 670.837  17
   3   4   5 18728.5 712.279  20
   3   4   6 126975. 2008.30  20
   3   4   6 123124. 1630.02  17
   3   4   7 9481.86 506.653  13
   3   4   7 9975.15 634.781  20
   3   4   7 10620.6 611.726  21
   3   4   8 14742.1 690.601  13
   3   4   8 14098.1 807.711  20
   3   4   8 14812.3 774.459  21
   3   4   9 14643.8 743.922  13
   3   4   9 14434.7 827.881  21
   3   4  10 2072.28 302.506  13
   3   4  10 2033.74 344.477  21
   3   4  11 450.924 164.498  13
   3   4  11 243.550 144.687  12
   3   4  11 387.556 189.315  11
   3   4  11 430.602 266.185  21
   3   4  12 17272.7 743.508  12
   3   4  12 17764.7 794.120  11
   3   4  13 1649.65 266.854  12
   3   4  13 1891.11 316.147  11
   3   4  14-216.967 166.339  11
   3   4  14 287.692 170.860  12
   3   4  14 139.532 177.810  10
   3   4  15 3435.13 355.050  11
   3   4  15 3003.74 311.578  10
   3   4  16 3337.50 323.076  11
   3   4  16 3322.66 291.664  10
   3   4  17 1234.17 176.803  11
  -3  -5  11 803.932 190.720  15
  -3  -5  11 476.351 184.792   2
  -3  -5  10 1388.12 251.462  15
  -3  -5  10 2071.20 308.717   3
  -3  -5  10 1972.21 294.657   2
  -3  -5   9 1873.56 300.634  15
  -3  -5   9 2366.15 312.772   3
  -3  -5   9 2477.11 325.120   2
  -3  -5   9 2441.99 320.539   7
  -3  -5   8 223.679 175.260   7
  -3  -5   8-102.750 152.755   2
  -3  -5   8 179.222 227.399  15
  -3  -5   8-124.562 156.564   3
  -3  -5   7 46.7048 152.365   3
  -3  -5   7-58.8477 136.831  15
  -3  -5   7-196.013 158.644   2
  -3  -5   7 161.491 202.195   7
  -3  -5   6 14660.6 746.284  15
  -3  -5   6 14842.7 1061.08  14
  -3  -5   6 14426.1 714.642   3
  -3  -5   6 14613.4 704.365   2
  -3  -5   6 15567.3 698.344   7
  -3  -5   5 98.4181 240.361  14
  -3  -5   4 11842.8 828.007  14
  -3  -5   3 730.171 214.685  14
   3   5  -3 699.648 157.853  20
   3   5  -3 489.379 118.142  17
  -3  -5   2 212.224 188.435  14
   3   5  -2 114.092 111.143  17
   3   5  -2 344.586 158.271  20
  -3  -5   1 1743.03 289.577  14
   3   5  -1 2030.65 244.254  20
   3   5  -1 2061.84 299.334  17
  -3  -5   0 94493.4 1688.96  14
   3   5   0 97955.7 1477.32  20
   3   5   1 3050.26 272.837  20
   3   5   2 113706. 1557.84  20
   3   5   3 13668.4 557.345  20
   3   5   4 21237.0 737.311  20
   3   5   5 2056.78 282.126  20
   3   5   6 27807.1 975.307  20
   3   5   6 25149.0 824.485  17
   3   5   7 19197.5 680.850  13
   3   5   7 20026.7 900.623  20
   3   5   8 7010.93 464.026  13
   3   5   8 7403.67 609.684  20
   3   5   8 6816.82 535.493  21
   3   5   9 1033.33 225.411  13
   3   5   9 1427.42 291.191  21
   3   5   9 1303.09 305.382  20
   3   5  10 288.111 195.504  13
   3   5  10-191.589 170.982  21
   3   5  11-43.0106 160.460  12
   3   5  11 358.376 175.812  11
   3   5  11-95.0316 217.797  21
   3   5  12 3620.13 352.024  12
   3   5  12 3717.98 388.348  11
   3   5  13 1607.72 258.528  12
   3   5  13 1623.45 295.283  11
   3   5  14 2328.79 296.997  12
   3   5  14 2755.22 352.000  11
   3   5  14 2287.79 296.858  10
   3   5  15 6886.66 483.779  11
   3   5  15 5725.09 392.267  10
   3   5  16 230.652 157.128  11
   3   5  16 421.742 139.578  10
   3   5  17 2220.59 234.379  11
  -3  -6  11 97.6090 90.4392  15
  -3  -6  10 218.198 161.141   2
  -3  -6  10 64.5356 149.443  15
  -3  -6  10 201.600 177.764   3
  -3  -6   9 30603.8 933.782   7
  -3  -6   9 29046.0 949.170  15
  -3  -6   9 31435.5 999.700   3
  -3  -6   9 31571.0 986.580   2
  -3  -6   8 3012.86 364.673   3
  -3  -6   8 2912.45 363.484  15
  -3  -6   8 3305.74 361.454   2
  -3  -6   8 2727.82 325.485   7
  -3  -6   7 6073.34 507.429  15
  -3  -6   7 5371.29 448.552   7
  -3  -6   7 4778.96 455.042   3
  -3  -6   7 5608.54 470.048   2
  -3  -6   6 11021.6 662.871  15
  -3  -6   6 10753.0 617.690   2
  -3  -6   6 9806.04 576.577   7
  -3  -6   5 7606.21 532.433  15
  -3  -6   5 6541.64 443.781   7
  -3  -6   4 6823.02 683.840  14
   3   6  -3 16100.1 838.820  17
  -3  -6   3 15749.4 940.548  14
   3   6  -3 16915.9 827.228  20
   3   6  -2 36304.7 1236.80  17
   3   6  -2 38157.3 1161.36  20
   3   6  -1 2466.54 304.060  20
   3   6   0 13367.3 631.350  20
   3   6   1 68536.1 1387.68  20
   3   6   2 16087.4 673.417  20
   3   6   3 233079. 2514.67  20
   3   6   4 2045.08 274.044  20
   3   6   5 1729.62 274.245  20
   3   6   6 3686.08 399.966  20
   3   6   7 1149.56 274.917  20
   3   6   7 825.666 197.234  17
   3   6   8 10094.4 719.247  20
   3   6   9 594.588 235.910  20
   3   6   9 597.104 229.637  21
   3   6  10 53186.6 1876.82  20
   3   6  10 50658.7 1576.86  21
   3   6  11 27267.7 907.814  12
   3   6  11 27046.8 1180.48  21
   3   6  11 26511.2 932.403  11
   3   6  12 14906.6 700.187  12
   3   6  12 15110.8 726.271  11
   3   6  13 991.369 216.381  12
   3   6  13 703.274 201.239  11
   3   6  14 583.810 213.959  11
   3   6  14 857.609 215.693  10
   3   6  15 1441.85 263.816  11
   3   6  15 1130.77 196.197  10
   3   6  16 273.849 178.635  11
   3   6  16 364.943 156.144  10
   3   6  17 3036.48 271.820  11
  -3  -7  10 329.105 154.370   3
  -3  -7  10-185.372 104.515   2
  -3  -7   9 4681.59 367.347  15
  -3  -7   9 4862.04 402.598   3
  -3  -7   9 4393.46 331.027   2
  -3  -7   8 12493.8 633.072  15
  -3  -7   8 12110.5 646.725   3
  -3  -7   8 12263.9 612.808   2
  -3  -7   8 13109.1 620.950   7
  -3  -7   7-109.963 211.174  15
  -3  -7   7 122.377 181.112   3
  -3  -7   7 251.135 138.146   7
  -3  -7   6 1537.44 252.844   7
  -3  -7   6 1044.08 255.277  15
  -3  -7   5 363.568 199.686   7
  -3  -7   5 651.022 187.750  16
  -3  -7   5 442.402 203.511  15
  -3  -7   4 4406.73 413.111  15
  -3  -7   4 4146.35 372.579  16
  -3  -7   4 3703.37 334.862   7
   3   7  -2 1499.63 269.340  20
   3   7  -2 1301.85 276.364  17
   3   7  -1 123.378 172.360  20
   3   7   0 41128.4 1226.19  20
   3   7   1 22834.5 901.120  20
   3   7   2 258.281 157.004  20
   3   7   3 1660.08 275.753  20
   3   7   4 83820.6 1685.50  20
   3   7   5 7201.45 513.853  20
   3   7   6 23.6326 160.285  20
   3   7   7 165.326 205.996  20
   3   7   8 28105.7 1213.82  20
   3   7   9 3723.38 442.897  21
   3   7   9 3669.64 473.838  20
   3   7  10 42939.6 1433.09  21
   3   7  10 46385.0 1752.69  20
   3   7  11 4045.85 372.414  12
   3   7  11 3897.84 576.435  20
   3   7  12 30548.8 994.786  12
   3   7  12 32044.8 1061.37  11
   3   7  13 4201.99 416.254  11
   3   7  14 12503.3 669.249  11
   3   7  15 2865.26 336.394  11
   3   7  16 2996.92 315.610  11
   3   7  17 216.727 128.309  11
  -3  -8   9 597.795 177.901   3
  -3  -8   8 121.324 142.731  15
  -3  -8   8-33.2321 169.544   3
  -3  -8   7-109.066 169.468   3
  -3  -8   7-174.773 161.337  15
  -3  -8   6 2526.24 329.939  15
  -3  -8   6 2783.62 312.254   7
  -3  -8   5 15405.2 760.805  15
  -3  -8   5 15126.9 670.147   7
  -3  -8   5 16655.0 715.105  16
  -3  -8   4 1921.61 247.188   7
  -3  -8   4 1895.61 309.037  15
  -3  -8   4 1675.21 248.429  16
  -3  -8   3 7908.97 534.438  15
  -3  -8   3 7173.88 480.601  16
   3   8  -2 6359.48 587.884  17
   3   8  -2 7830.84 640.214  20
   3   8  -1 4537.68 457.981  20
   3   8   0 7304.81 571.669  20
   3   8   1 660.192 216.324  20
   3   8   2 82653.9 1842.89  20
   3   8   3 27749.9 1070.45  20
   3   8   4 18072.3 864.724  20
   3   8   5 23750.0 1003.35  20
   3   8   6 8086.87 612.146  20
   3   8   7 339.237 203.687  20
   3   8   8 488.522 246.604  20
   3   8   9 827.739 246.331  20
   3   8   9 642.369 267.259  21
   3   8  10 417.660 194.390   5
   3   8  10 105.064 171.087  20
  -3  -8 -10 310.786 160.719   4
   3   8  11 5579.67 417.301   5
   3   8  12 12987.9 634.851   5
   3   8  12 13017.6 684.498  11
   3   8  13 12592.9 690.810  11
   3   8  14 4397.82 422.349  11
   3   8  15 4084.23 387.139  11
   3   8  16 775.762 198.805  11
   3   8  17 240.595 147.660  11
  -3  -9   9 101.720 100.655   3
  -3  -9   8 3836.38 326.735   3
  -3  -9   7 1176.28 252.811   3
  -3  -9   6 886.118 223.549  15
  -3  -9   6 848.919 244.765   3
  -3  -9   5 4150.93 381.405  16
  -3  -9   5 4232.95 399.333  15
  -3  -9   5 3849.71 332.969   7
  -3  -9   4 6485.91 499.216  15
  -3  -9   4 6282.59 456.763  16
  -3  -9   3 3608.11 379.510  15
  -3  -9   3 4121.18 386.719  16
  -3  -9   2 8036.69 516.204  16
  -3  -9   2 8090.36 555.501  15
  -3  -9   1 700.186 188.777  16
   3   9  -1 804.577 224.115  20
  -3  -9   1 549.525 175.150  15
   3   9   0 40192.7 1459.00  20
   3   9   1 511.997 186.089  20
   3   9   2 3083.84 397.737  20
   3   9   3 62812.3 1737.51  20
   3   9   4 16543.4 894.901  20
   3   9   5 3320.07 407.769  20
   3   9   6 433.083 175.637  20
   3   9   7 1499.53 295.878  20
   3   9   8 1390.33 296.212  20
   3   9   9 14589.5 666.703   5
  -3  -9  -9 14313.5 705.087   4
   3   9   9 14919.4 1006.03  20
   3   9  10 52058.0 1279.35   5
   3   9  10 52796.6 1944.58  20
   3   9  11 26369.8 919.411   5
   3   9  12 1239.17 213.829   5
   3   9  12 1168.30 242.564  11
   3   9  13-298.858 151.122   5
   3   9  13-83.0137 190.177  11
   3   9  14 3311.58 346.418  11
   3   9  15 1394.80 256.313  11
   3   9  16 653.437 183.827  11
   3   9  17 2040.57 221.746  11
  -3 -10   8 1735.40 197.580   3
  -3 -10   7 145.666 146.273   3
  -3 -10   6 1437.52 216.944  16
  -3 -10   6 1098.74 232.556   3
  -3 -10   5 3350.45 328.284  16
  -3 -10   4 1067.80 235.620  16
  -3 -10   3 11652.5 637.706  16
  -3 -10   2 71.4854 153.914  16
  -3 -10   1 13539.4 673.667  16
   3  10   0 3475.83 466.335  20
  -3 -10   0 4777.53 423.287  16
   3  10   1 9682.27 786.388  20
  -3 -10  -1 9854.24 553.814  16
  -3 -10  -2 266.520 176.703  16
   3  10   2 276.897 176.388  20
   3  10   3 6452.13 646.892  20
   3  10   4 38108.6 1451.60  20
   3  10   5 3764.95 464.942  20
   3  10   6-527.756 221.777  20
   3  10   7-264.882 195.035  20
   3  10   7 264.793 137.565   5
   3  10   8 34079.8 1039.32   5
   3  10   8 38335.9 1577.76  20
   3  10   9 222.899 138.138   5
   3  10   9 500.160 292.048  20
   3  10  10 4513.51 424.092   5
   3  10  11 6227.73 475.675   5
   3  10  12 5091.72 426.948   5
   3  10  12 4962.02 427.833  11
   3  10  13 7432.56 493.732   5
   3  10  13 8213.31 536.271  11
   3  10  14 2377.84 294.802   5
   3  10  14 2349.10 296.935  11
   3  10  15 12283.1 579.072  11
   3  10  16 1372.77 211.333  11
   3  10  17 6129.80 305.381  11
  -3 -11   7 59.5739 98.1120   3
  -3 -11   6-84.4487 159.553   3
  -3 -11   5 401.810 189.080   3
  -3 -11   5 405.001 161.903  16
  -3 -11   4 290.492 156.381  16
  -3 -11   3 1760.22 267.167  16
  -3 -11   2 2658.80 337.902  16
  -3 -11   1 1441.12 270.839  16
  -3 -11   0 1135.63 252.376  16
  -3 -11  -1 1417.99 252.765  16
  -3 -11  -2 4860.27 419.807  16
  -3 -11  -2 5023.17 398.596   1
  -3 -11  -3 43.1700 139.486  16
   3  11   3 44.5960 252.467  20
   3  11   4 8522.98 499.033   5
   3  11   4 8161.55 715.580  20
  -3 -11  -4 7329.06 465.486  16
   3  11   5 515.483 179.310   5
   3  11   5 812.215 290.689  20
   3  11   6 1169.55 282.491  20
   3  11   6 1341.89 243.094   5
   3  11   7 2566.18 319.820   5
   3  11   8 12511.9 656.489   5
   3  11   9 12209.9 654.940   5
   3  11  10 415.609 194.471   5
   3  11  11 9301.77 578.985   5
   3  11  12 5621.86 454.602   5
   3  11  12 5333.68 428.480  11
   3  11  13 1961.99 284.031   5
   3  11  13 1775.37 260.534  11
   3  11  14 5222.18 391.505   5
   3  11  14 4967.17 384.005  11
   3  11  15 680.806 150.042   5
   3  11  15 741.860 180.457  11
   3  11  16 177.492 101.642  11
  -3 -12   6 1335.53 161.379   3
  -3 -12   5-151.563 131.315   3
  -3 -12   5 18.4928 79.7050  16
  -3 -12   4 2298.44 249.259  16
  -3 -12   3 959.301 211.339  16
  -3 -12   2 213.540 186.640  16
  -3 -12   1 2140.01 298.767  16
  -3 -12   0-62.7233 154.616  16
  -3 -12  -1 3729.43 380.231  16
  -3 -12  -2 8119.12 513.164   1
  -3 -12  -2 8392.34 533.620  16
  -3 -12  -3 1758.18 281.256  16
  -3 -12  -3 1682.14 280.742   1
  -3 -12  -4 8362.10 558.835   1
  -3 -12  -4 8257.76 512.998  16
   3  12   5 65631.6 1400.30   5
  -3 -12  -5 62560.0 1302.20  16
   3  12   6 9572.90 564.837   5
   3  12   7 18598.1 781.321   5
   3  12   8 8867.46 564.356   5
   3  12   9 299.808 169.070   5
   3  12  10 1072.74 227.230   5
   3  12  11 362.431 194.699   5
  -3 -12 -12 1432.51 239.169   1
   3  12  12 949.695 219.216   5
   3  12  12 1222.21 233.822  11
   3  12  13 2028.78 285.141   5
   3  12  13 2714.79 296.683  11
   3  12  14 231.058 143.080   5
   3  12  14 412.651 146.436  11
   3  12  15 2337.13 239.488   5
   3  12  15 2421.69 239.048  11
   3  12  16-119.066 90.9625  11
  -3 -13   4 4960.81 316.911   3
  -3 -13   4 4639.91 269.771  16
  -3 -13   3 403.621 157.480  16
  -3 -13   2 3320.84 321.354  16
  -3 -13   1 1326.71 250.662  16
  -3 -13   0 4362.10 383.914  16
  -3 -13  -1 390.392 202.354  16
  -3 -13  -2 9654.85 551.217   1
  -3 -13  -2 10163.3 575.977  16
  -3 -13  -3 5817.23 460.844   1
  -3 -13  -3 6029.57 448.752  16
  -3 -13  -4 15490.4 732.231   1
  -3 -13  -4 15721.9 681.787  16
  -3 -13  -5 760.382 190.866  16
  -3 -13  -5 570.123 202.745   1
   3  13   5 496.859 159.010   5
  -3 -13  -6 18435.7 811.673   1
   3  13   6 17082.6 719.926   5
   3  13   7 4559.29 400.409   5
  -3 -13  -7 4029.82 405.663   1
   3  13   8 10.6310 129.959   5
  -3 -13  -8 147.522 166.310   1
   3  13   9 13207.9 667.982   5
  -3 -13  -9 13139.6 673.000   1
   3  13  10 331.999 211.066   5
  -3 -13 -10 314.316 179.697   1
   3  13  11 105.344 163.839   5
  -3 -13 -11 199.512 142.002   1
  -3 -13 -12 4132.21 332.723   1
   3  13  12 3758.54 365.582   5
   3  13  12 3953.82 302.777  11
   3  13  13 1435.33 243.154   5
   3  13  13 1479.02 212.304  11
   3  13  14 63.9296 94.9933   5
   3  13  14 190.334 121.781  11
   3  13  15 62.4118 81.1063   5
  -3 -14   3 1978.95 191.608   3
  -3 -14   3 1619.40 159.819  16
  -3 -14   2 349.367 133.460  16
  -3 -14   1 394.502 159.507  16
  -3 -14   0 22.1498 149.726  16
  -3 -14  -1 885.173 221.376  16
  -3 -14  -2 264.438 168.460  16
  -3 -14  -3-93.1681 153.815  16
  -3 -14  -3 162.227 149.284   1
  -3 -14  -4 7056.90 478.841   1
  -3 -14  -4 8129.83 474.965  16
  -3 -14  -5 5608.98 449.681   1
  -3 -14  -5 5568.69 378.708  16
   3  14   6 1891.69 254.130   5
  -3 -14  -6 2024.03 281.949   1
   3  14   7 4547.45 362.438   5
  -3 -14  -7 4602.64 413.482   1
  -3 -14  -8 3222.01 369.273   1
   3  14   8 3027.20 327.618   5
   3  14   9 5701.49 430.938   5
  -3 -14  -9 6174.30 457.217   1
   3  14  10-23.3960 157.317   5
  -3 -14 -10 86.8974 166.728   1
  -3 -14 -11 4209.80 342.057   1
   3  14  11 3701.41 351.618   5
   3  14  12 4535.96 356.587   5
  -3 -14 -12 5059.25 346.998   1
   3  14  13 139.046 123.461   5
   3  14  14 615.698 143.577   5
  -3 -15   1 292.330 105.203  16
  -3 -15   0 245.822 126.878  16
  -3 -15  -1-72.9724 123.214  16
  -3 -15  -2 1341.47 198.657  16
  -3 -15  -3 709.874 171.140  16
  -3 -15  -3 623.360 162.483   1
  -3 -15  -4 220.530 122.893   1
  -3 -15  -4-15.7929 150.286  16
  -3 -15  -5 248.080 156.740   1
  -3 -15  -6 5988.08 436.298   1
   3  15   7 2869.19 278.437   5
  -3 -15  -7 2573.06 306.048   1
  -3 -15  -8 967.694 225.832   1
   3  15   8 1054.58 216.499   5
  -3 -15  -9 772.832 205.701   1
   3  15   9 793.059 194.625   5
   3  15  10 83.9667 140.886   5
  -3 -15 -10-85.7474 144.877   1
   3  15  11-54.4683 125.720   5
  -3 -15 -11-53.0151 131.162   1
   3  15  12 13930.1 528.028   5
  -3 -15 -12 14472.0 494.663   1
   3  15  13 66.2849 100.138   5
  -3 -16  -2 837.692 125.562  16
  -3 -16  -3 10662.0 372.988  16
  -3 -16  -4 4888.45 291.023   1
  -3 -16  -4 4383.06 252.531  16
  -3 -16  -5 728.810 147.987   1
  -3 -16  -6 1862.57 219.110   1
  -3 -16  -7 183.984 125.219   1
  -3 -16  -8 9.55478 122.575   1
  -3 -16  -9-27.1270 121.038   1
   3  16   9 325.392 119.047   5
  -3 -16 -10 17.3858 106.309   1
   3  16  10-87.6413 100.677   5
   3  16  11 1454.10 170.930   5
  -3 -16 -11 1778.19 173.087   1
   4 -13  -6 768.528 153.833   1
   4 -13  -5 1206.90 186.174   1
   4 -13  -4-61.1181 130.330   1
   4 -13  -3 9898.33 473.943   1
   4 -13  -2 41665.3 927.767   1
   4 -13  -1 12966.1 510.907   1
   4 -13   0 3968.05 273.457   1
  -4  12  10 1022.49 147.584   4
  -4  12   9 70.3176 96.7956   4
  -4  12   8 2231.47 222.990   4
  -4  12   7 2022.12 236.451   4
   4 -12  -6 231.376 129.961   1
   4 -12  -5 5503.71 407.419   1
   4 -12  -4 2820.82 320.580   1
   4 -12  -3 7177.25 484.539   1
   4 -12  -2 2732.71 328.687   1
   4 -12  -1 18171.6 731.556   1
   4 -12  -1 16317.1 560.525   9
   4 -12   0 5294.63 400.405   1
   4 -12   0 5582.19 327.312   9
   4 -12   1 10.8415 129.765   1
   4 -12   1 206.461 110.027   9
   4 -12   2 7.56924 110.241   1
   4 -12   2-33.7826 93.9029   9
   4 -12   3 51.5858 80.9559   9
  -4  11  11 1839.89 203.625   4
  -4  11  10 493.689 154.087   5
  -4  11   9 2254.82 273.173   5
  -4  11   8 501.961 171.832   5
  -4  11   7 284.488 157.629   5
  -4  11   6 328.881 154.678   5
   4 -11  -6-16.8305 128.737   1
   4 -11  -5 4466.87 409.045   1
   4 -11  -4 7444.55 525.057   1
   4 -11  -3 6649.61 511.924   1
   4 -11  -2 4802.67 457.564   1
   4 -11  -1-28.0422 167.815   1
   4 -11   0 896.510 251.094   1
   4 -11   1 11657.2 633.411   1
   4 -11   1 10799.3 531.516   9
   4 -11   2 818.604 191.557   9
   4 -11   2 817.596 206.652   1
   4 -11   3 268.011 157.856   1
   4 -11   3 156.336 124.498   9
   4 -11   4-146.873 118.621   9
   4 -11   5 3391.83 237.681   9
  -4  10  12 958.514 166.866   4
  -4  10  11 85.5745 148.886  15
  -4  10  11 89.4532 114.967   5
  -4  10  10 1537.66 226.928  15
  -4  10  10 1597.87 255.271   5
  -4  10   9-24.5383 147.221   5
  -4  10   8 1094.48 265.571   5
  -4  10   7 5534.61 449.446   5
  -4  10   6 2274.98 305.567   5
   4 -10  -6 2346.69 293.096   1
  -4  10   5 6167.38 453.057   5
   4 -10  -5 6773.53 511.146   1
   4 -10  -4 12599.1 705.199   1
   4 -10  -3 133.106 207.659   1
   4 -10  -2-41.8959 190.005   1
   4 -10  -1 837.636 232.581   1
   4 -10   0 382.791 224.440   1
   4 -10   1 238.533 183.627   1
   4 -10   2 3135.60 374.256   1
   4 -10   3 1008.17 251.323   1
   4 -10   3 1020.60 242.430   9
   4 -10   4 69.4815 120.123   1
   4 -10   4 219.516 163.894   9
   4 -10   5 12887.4 543.835   9
   4 -10   6 5459.67 331.438   9
   4 -10   7 1172.52 160.472   9
  -4   9  12 336.994 135.341  15
  -4   9  11 1.59475 130.026  15
  -4   9  11-92.6471 146.162   5
  -4   9  10 158.310 107.545  15
  -4   9  10 31.4021 150.321   5
  -4   9   9 138.544 196.435   5
  -4   9   8 7027.60 530.437   5
  -4   9   7 2863.33 363.651   5
  -4   9   6 8493.95 589.754   5
   4  -9  -6 7689.74 502.451   1
   4  -9  -5 315.908 192.556   1
  -4   9   5-64.3211 139.317   5
  -4   9   4 9731.06 588.329   5
   4  -9  -4 8889.43 598.834   1
   4  -9  -3 8226.67 595.391   1
   4  -9  -2 20699.3 943.009   1
   4  -9  -1 29185.5 1114.60   1
   4  -9   0 11716.7 714.255   1
   4  -9   1 1411.76 311.823   1
   4  -9   2 2351.22 353.323   1
   4  -9   3 174.185 165.087   1
   4  -9   4 2018.65 284.253   1
   4  -9   4 2047.98 301.050   9
   4  -9   5 232.851 170.568   1
   4  -9   5 152.670 189.578   9
   4  -9   6 9909.26 524.366   9
   4  -9   7 4240.78 313.013   9
   4  -9   8 36.0164 108.766   9
   4  -9   8-20.5433 91.2251   2
  -4   8  13 173.320 91.9943   4
  -4   8  13 214.529 112.025  15
  -4   8  12 1213.65 216.144  15
  -4   8  11-103.254 151.190  15
  -4   8  11 228.369 156.936   5
  -4   8  10 4143.55 411.031  15
  -4   8  10 4082.58 410.751   5
  -4   8   9 3992.37 432.008   5
  -4   8   8 13764.7 739.479   5
  -4   8   7 1709.63 313.149   5
  -4   8   6 29637.6 1079.37   5
  -4   8   5 23783.2 952.235   5
   4  -8  -5 23124.9 923.886   1
   4  -8  -4 5568.01 476.670   1
  -4   8   4 6026.75 489.703   5
  -4   8   3 15909.0 738.987   5
   4  -8  -3 15626.1 782.621   1
   4  -8  -2 7030.45 557.120   1
   4  -8  -1 5264.52 504.447   1
   4  -8   0 43333.1 1347.51   1
   4  -8   0 42210.9 1196.32  16
   4  -8   1 20757.1 930.695   1
   4  -8   1 17197.7 789.871  16
   4  -8   2 8187.69 594.029   1
   4  -8   2 7112.06 526.922  16
   4  -8   3 3348.22 388.830   1
   4  -8   3 3533.10 394.015  16
   4  -8   4 8781.11 595.756   1
   4  -8   4 10039.0 621.194  16
   4  -8   5 1365.92 265.108   1
   4  -8   5 924.805 244.461   9
   4  -8   6 3625.57 362.609   9
   4  -8   7 147.629 140.582   9
   4  -8   8 1525.01 230.489   9
   4  -8   9 2023.65 217.574   9
   4  -8   9 1767.94 218.031   2
  -4   7  14 312.497 112.499  15
  -4   7  13 101.954 102.017   4
  -4   7  13 333.307 142.103  15
  -4   7  12-270.598 168.013  15
  -4   7  11 1160.29 278.178  15
  -4   7  11 1709.18 278.142   5
  -4   7  10 11376.9 648.974  15
  -4   7  10 11381.1 650.396   5
  -4   7   9 2924.68 374.558   5
  -4   7   8 7302.53 572.634   5
  -4   7   7 5740.46 498.491   5
  -4   7   6 81998.9 1788.41   5
  -4   7   5 1471.49 265.541   5
  -4   7   5 802.299 343.787  19
  -4   7   4 34056.5 1101.62   5
   4  -7  -4 32218.6 1070.41   1
  -4   7   4 34330.2 1492.86  19
   4  -7  -3-86.1098 156.509  18
   4  -7  -3 478.723 222.497   1
  -4   7   3-197.672 274.657  19
  -4   7   3-44.9401 135.954   5
   4  -7  -2-93.9815 187.686   1
   4  -7  -2 313.083 192.524  18
   4  -7  -1 2323.91 343.320   1
   4  -7  -1 1183.07 320.573  18
   4  -7   0 31217.0 1099.86   1
   4  -7   0 31128.6 1366.04  18
   4  -7   0 28950.5 969.581  16
   4  -7   1 12378.0 712.714   1
   4  -7   1 12829.6 665.808  16
   4  -7   2 10937.0 670.645   1
   4  -7   2 10212.2 609.869  16
   4  -7   3 370.890 148.017   1
   4  -7   3 759.435 259.118  16
   4  -7   4 13201.6 717.267   1
   4  -7   4 12054.9 672.637  16
   4  -7   5 31854.0 1080.19   1
   4  -7   5 32170.0 1069.14  16
   4  -7   6 12781.1 676.117   9
   4  -7   7 9343.42 563.928   9
   4  -7   8 64.7646 182.546   9
   4  -7   9 947.369 215.206   9
   4  -7  10-116.024 148.010   2
   4  -7  10 303.841 136.541   9
   4  -7  11 330.958 117.783   2
  -4   6  14 655.981 159.463  15
  -4   6  13 236.537 142.224  15
  -4   6  12 40.8777 135.478  15
  -4   6  11 17569.8 806.800  15
  -4   6  11 17453.1 752.438   5
  -4   6  10 5405.14 470.196  15
  -4   6  10 6179.42 498.636   5
  -4   6   9 24146.5 972.009   5
  -4   6   8 15468.2 800.651   5
  -4   6   7 17011.4 839.249   5
  -4   6   6 19727.6 878.267   5
  -4   6   6 17968.2 1130.64  19
  -4   6   5 1432.30 237.142   5
  -4   6   5 901.628 253.822  19
  -4   6   4 319.015 134.134  19
   4  -6  -4 232.618 209.381  18
  -4   6   3 514.982 208.551  19
   4  -6  -3 679.930 204.037  18
   4  -6  -2 2175.48 352.424  18
   4  -6  -1-67.2385 204.497  18
   4  -6   0-263.084 199.689  18
   4  -6   1 311.619 156.686  18
   4  -6   2 291.101 137.322  18
   4  -6   2 66.5228 162.978  16
   4  -6   3 1403.68 261.927  16
   4  -6   3 1135.24 261.316   1
   4  -6   4 11184.3 647.734   1
   4  -6   4 12349.7 662.444  16
   4  -6   5 40172.1 1220.27   1
   4  -6   5 41844.0 1200.39  16
   4  -6   6 17947.5 787.855   9
   4  -6   7 4789.83 425.646   9
   4  -6   8 2138.44 296.987   9
   4  -6   9 890.344 190.191   9
   4  -6  10 1802.76 246.493   9
   4  -6  11 2546.61 268.206   2
   4  -6  11 2940.02 246.861   9
   4  -6  12 230.171 103.380   2
  -4   5  14 1961.20 216.783  15
  -4   5  13 5853.05 414.873  15
  -4   5  12-24.0445 166.943  15
  -4   5  11 840.110 218.660  15
  -4   5  10 10326.4 674.614  15
  -4   5  10 8667.93 576.156   5
  -4   5   9 246.834 149.558  15
  -4   5   9-43.7587 185.365   5
  -4   5   8 49781.5 1401.73   5
  -4   5   7 2291.27 423.385  19
  -4   5   7 1554.89 278.489   5
  -4   5   6 5288.53 457.012   5
  -4   5   6 4857.02 589.004  19
  -4   5   5 3780.85 526.805  19
  -4   5   4 17078.6 965.919  19
  -4   5   3 15933.7 908.175  19
   4  -5  -2 4557.63 468.048  18
   4  -5  -1 505.951 250.275  18
   4  -5   0 399.810 197.954  18
   4  -5   1 4874.34 501.661  18
   4  -5   2 22315.7 1084.54  18
   4  -5   3 8973.33 723.548  18
  -4   5  -4 9651.18 707.092  20
   4  -5   5 16060.3 723.852  16
   4  -5   5 14572.5 730.128   1
  -4   5  -5 14936.1 946.469  20
   4  -5   6 2981.21 362.420   1
   4  -5   6 3129.11 338.714  16
   4  -5   7 21517.7 857.077   9
   4  -5   8 4576.23 423.395   9
   4  -5   9-213.518 105.832  12
   4  -5   9-360.015 169.115   9
   4  -5  10 3605.37 342.522   9
   4  -5  11 184.258 146.833   9
   4  -5  12 3868.29 321.978   2
   4  -5  13 77.9143 93.5070   2
  -4   4  14 3874.01 292.126  15
  -4   4  13 1357.86 249.814  15
  -4   4  12 1307.92 280.337  15
  -4   4  11 13619.9 750.737  15
  -4   4  10 10015.1 676.755  15
  -4   4  10 10280.9 613.155   5
  -4   4   9 24616.5 1028.10  15
  -4   4   9 24652.8 970.342   5
  -4   4   8 17687.3 851.652  15
  -4   4   8 18100.5 843.082   5
  -4   4   7 4286.37 421.156   5
  -4   4   7 4388.48 620.128  19
  -4   4   6 18638.7 1126.22  19
  -4   4   5 12318.0 859.236  19
  -4   4   4 460.416 202.177  19
   4  -4  -4 750.715 215.236  17
  -4   4   3-50.4937 226.175  19
   4  -4  -3 133.063 157.844  17
   4  -4  -2 2404.60 343.348  17
  -4   4   2 2225.46 335.075  19
   4  -4  -1 17538.8 852.590  17
   4  -4   0 2485.11 372.704  18
   4  -4   0 2307.26 357.364  17
   4  -4   1 1447.07 296.123  18
   4  -4   1 1165.16 251.857  17
   4  -4   2 4005.59 458.948  18
   4  -4   3 4790.04 518.594  18
  -4   4  -3 4918.44 449.989  20
  -4   4  -4 589.245 202.090  20
   4  -4   4 1234.07 233.673  13
   4  -4   4 511.702 238.286  18
   4  -4   5 3123.21 412.489  13
   4  -4   6 4815.08 500.595  13
   4  -4   6 5657.65 429.958  16
   4  -4   7 918.428 244.865   9
   4  -4   8 1265.50 249.586   9
   4  -4   9 5574.34 418.568  12
   4  -4   9 5594.28 441.217   9
   4  -4  10-147.427 152.697   9
   4  -4  10-150.392 117.377  12
   4  -4  11 493.491 178.701   9
   4  -4  12-104.690 167.283   2
   4  -4  13 1063.80 199.064   2
  -4   3  14 2664.96 246.111  15
  -4   3  13-32.6812 160.258  15
  -4   3  12 4259.91 426.970  15
  -4   3  11 345.542 231.374  15
  -4   3  10 28584.5 923.391   6
  -4   3  10 30077.7 1150.37  15
  -4   3   9 71954.3 1473.87   6
  -4   3   9 73488.9 1785.25  15
  -4   3   9 72036.1 1624.77   5
  -4   3   8 3591.34 354.717   6
  -4   3   8 3445.81 403.674  15
  -4   3   8 3522.97 379.598   5
  -4   3   7 33929.3 1126.47  15
  -4   3   7 34322.0 1113.73   5
  -4   3   7 32197.1 1524.40  19
  -4   3   6 2839.00 459.945  19
  -4   3   5 780.758 245.850  19
   4  -3  -5 549.657 220.937  17
  -4   3   4 8074.14 648.589  19
   4  -3  -4 6743.42 521.914  17
  -4   3   3 1373.99 274.951  19
   4  -3  -3 1080.40 250.832  17
  -4   3   2 20657.3 874.956  19
   4  -3  -2 21965.9 892.433  17
  -4   3   1 4639.44 411.989  19
   4  -3  -1 4892.73 426.033  17
   4  -3   0 18118.4 808.919  17
   4  -3   1 4758.17 431.520  17
   4  -3   2 30830.1 1118.46  18
   4  -3   2 31997.5 1071.31  17
  -4   3  -3 6780.02 471.107  20
   4  -3   3 7279.94 572.884  18
   4  -3   3 7461.57 524.294  17
   4  -3   4 2645.81 366.680  18
   4  -3   5 106.575 143.206  13
   4  -3   5 34.4699 177.457  18
   4  -3   6 794.825 253.352  13
   4  -3   7 5175.23 568.236  13
   4  -3   8 28615.9 923.015   9
   4  -3   9 430.723 151.581  12
   4  -3   9 517.019 209.516   9
   4  -3   9 423.506 150.307  10
   4  -3  10 3391.69 331.538  12
   4  -3  10 2920.93 316.315  10
   4  -3  10 3171.26 322.513   9
   4  -3  11 369.056 157.983  12
   4  -3  11 312.258 143.227  10
   4  -3  11 543.390 188.493   9
   4  -3  12 1149.00 211.176  10
   4  -3  12 1039.73 204.192   9
   4  -3  13 1026.29 226.847   2
   4  -3  14 1689.86 205.781   2
  -4   2  14 2019.64 202.080  15
  -4   2  13-36.3539 151.498  15
  -4   2  12 2586.26 342.114  15
  -4   2  11 159.466 194.237  15
  -4   2  10 2549.18 301.366   6
  -4   2  10 2481.41 393.617  15
  -4   2  10 2482.35 302.306  11
  -4   2   9 80009.7 1592.61   6
  -4   2   9 80751.7 1882.46  15
  -4   2   9 81208.1 1619.02  11
  -4   2   8 74653.5 1520.50   6
  -4   2   8 74067.9 1735.06  15
  -4   2   8 72257.9 1594.23   5
  -4   2   7 3929.08 404.072  15
  -4   2   7 4239.90 551.061  14
  -4   2   6 20612.3 1129.06  19
  -4   2   5 14692.9 888.413  19
   4  -2  -5 15851.7 750.618  17
   4  -2  -4 53.5067 115.379  17
  -4   2   4 43.4636 143.874  19
  -4   2   3 5156.08 474.773  19
   4  -2  -3 5278.49 424.750  17
  -4   2   2 1.09193 140.464  19
   4  -2  -2-26.5737 130.027  17
   4  -2  -1 52114.8 1286.54  17
  -4   2   1 49449.0 1183.67  19
   4  -2   0 33350.1 1025.53  17
  -4   2   0 36734.2 947.654  19
   4  -2   1 1482.85 253.764  17
   4  -2   2 534.276 195.831  17
   4  -2   3 15516.8 760.054  18
   4  -2   3 13828.4 675.765  17
   4  -2   4 4671.39 441.439  18
   4  -2   4 4419.70 384.624  17
   4  -2   5 30216.1 1082.87  18
   4  -2   6 168.262 129.208  13
   4  -2   6-4.04086 178.209  18
   4  -2   7 3895.80 453.503  13
   4  -2   8 672.101 204.217  13
   4  -2   8 380.594 178.593   9
   4  -2   9 2495.15 303.854  12
   4  -2   9 2819.74 315.421   9
   4  -2  10 4892.68 413.513  12
   4  -2  10 6064.23 437.128   9
   4  -2  11 2353.56 283.166   9
   4  -2  11 2145.37 288.812  12
   4  -2  11 1467.08 247.731  10
   4  -2  12 5988.69 395.439  12
   4  -2  12 5539.40 411.671  10
   4  -2  13 2987.28 346.705   2
   4  -2  13 2691.33 281.029  10
   4  -2  14 3342.31 297.251   2
   4  -2  15 147.900 95.3430   2
  -4   1  14 171.022 94.5590  15
  -4   1  13 39.2967 141.602  15
  -4   1  12 14774.5 719.459  15
  -4   1  11 719.979 229.150  15
  -4   1  10 44806.5 1203.98   6
  -4   1  10 42369.5 1366.42  15
  -4   1  10 44032.8 1227.74  11
  -4   1   9-191.000 203.067  15
  -4   1   9-290.552 155.509  11
  -4   1   9 87.8644 150.540   6
  -4   1   8 98089.3 1776.64   6
  -4   1   8 96011.3 1998.91  15
  -4   1   8 95308.1 1779.22  11
  -4   1   7 2107.54 337.088  15
  -4   1   7 2226.38 426.057  14
  -4   1   7 2346.07 298.793   6
  -4   1   6 10004.3 795.590  14
  -4   1   5 41638.1 1548.02  14
  -4   1   5 39243.0 1411.92  19
   4  -1  -5 44100.0 1193.66  17
   4  -1  -4 9633.69 561.154  17
  -4   1   4 8521.10 638.570  19
  -4   1   3 72523.2 1652.53  19
   4  -1  -3 73258.7 1510.96  17
  -4   1   2 44700.4 1182.25  19
   4  -1  -2 46983.4 1189.98  17
  -4   1   1 25809.7 817.584  19
   4  -1  -1 25481.3 876.847  17
   4  -1   0 49.2685 170.192  17
  -4   1   0-146.099 107.161  19
   4  -1   1 94572.0 1257.24  21
  -4   1  -1 91524.7 1267.60  19
   4  -1   1 91869.4 1619.86  17
   4  -1   2 324.545 179.372  17
   4  -1   2 376.423 133.541  21
   4  -1   3 93241.2 1520.47  21
   4  -1   3 89407.5 1569.31  17
   4  -1   4 12024.6 596.537  21
   4  -1   4 11789.4 642.443  18
   4  -1   4 12338.3 590.736  17
   4  -1   5 2225.38 304.740  21
   4  -1   5 2382.35 315.740  18
   4  -1   5 2635.68 285.553  17
   4  -1   6-66.2268 147.824  18
   4  -1   7 1248.51 270.300  13
   4  -1   8 7306.37 651.003  13
   4  -1   9 679.968 218.305  13
   4  -1   9 432.044 144.161  12
   4  -1  10 22012.3 829.446  12
   4  -1  11 498.475 190.878  12
   4  -1  12 2763.11 326.931  10
   4  -1  12 2914.32 305.820  12
   4  -1  13 216.034 128.204  12
   4  -1  13 131.465 162.269  10
   4  -1  13 109.645 176.471   2
   4  -1  14 4195.49 357.327   2
   4  -1  14 4684.86 343.953  10
   4  -1  15 4531.21 298.970   2
  -4   0  13 12559.3 543.201  15
  -4   0  12 2362.10 329.878  15
  -4   0  11 14987.4 789.370  15
  -4   0  11 14780.5 602.351   7
  -4   0  10 7601.20 527.015   6
  -4   0  10 7468.61 587.516  15
  -4   0  10 7921.97 479.404   7
  -4   0   9 15078.1 731.369   6
  -4   0   9 14485.4 805.540  15
  -4   0   9 16774.4 812.084   2
  -4   0   9 15756.4 777.480  11
  -4   0   9 16180.6 692.507   7
  -4   0   8 27460.2 963.573   6
  -4   0   8 29198.1 1031.84   2
  -4   0   8 27876.9 990.014  11
  -4   0   8 26741.5 1065.93  15
  -4   0   8 26508.6 870.379   7
  -4   0   7 2623.47 320.052   6
  -4   0   7 2716.85 333.529  15
  -4   0   7 2276.83 411.813  14
  -4   0   7 2801.64 330.119   2
  -4   0   6-17.4566 152.196  14
  -4   0   5 2331.09 419.334  14
   4   0  -4 1434.16 209.122  17
  -4   0   4 1260.24 321.129  14
  -4   0   3 133984. 2345.61  14
   4   0  -3 128681. 1968.90  17
   4   0  -2 48411.5 1188.03  17
  -4   0   2 48567.0 1201.05  19
   4   0  -1 10578.5 561.002  17
  -4   0   1 10534.9 513.336  19
  -4   0   0 39600.1 864.232  19
   4   0   0 41084.2 1069.85  17
  -4   0  -1 32011.9 669.788  19
   4   0   1 30827.5 917.545  17
   4   0   2 216.612 106.891  21
   4   0   2 2.59971 128.546  17
   4   0   3 5849.20 405.458  17
   4   0   3 5272.36 373.823  21
   4   0   4 3118.31 316.025  17
   4   0   4 3101.86 331.250  21
   4   0   5 1603.86 266.860  21
   4   0   5 1795.78 260.949  18
   4   0   5 1748.19 228.970  17
   4   0   6 39.7766 119.005  18
   4   0   6-289.485 181.280  21
   4   0   7 2055.10 331.300  13
   4   0   7 1399.64 287.133  21
   4   0   8 283.036 239.600  13
   4   0   9 91.6301 108.699  13
   4   0  10 13668.0 659.787  12
   4   0  11 7119.41 490.546  12
   4   0  12 7371.66 481.847  12
   4   0  12 7445.75 504.692  10
   4   0  13 154.192 153.085  10
   4   0  13 53.8238 120.177  12
   4   0  13 46.5176 153.991   2
   4   0  14 3323.48 293.043  12
   4   0  14 3197.58 342.762   2
   4   0  14 3541.35 332.469  10
   4   0  15 5136.72 342.570   2
   4   0  15 5304.83 339.256  10
  -4  -1  13 1562.43 207.293  15
  -4  -1  12 187.852 164.524  15
  -4  -1  11 1744.86 300.129  15
  -4  -1  11 1588.32 241.281   7
  -4  -1  10-177.094 183.346  15
  -4  -1  10 142.730 181.650   2
  -4  -1  10-45.7541 149.214   7
  -4  -1   9 13166.6 700.340   6
  -4  -1   9 12674.4 760.684  15
  -4  -1   9 13245.2 717.822   2
  -4  -1   9 12400.8 624.495   7
  -4  -1   8 329.505 157.842   7
  -4  -1   8 148.230 181.294   6
  -4  -1   8 412.746 205.703  15
  -4  -1   8 573.685 202.139  11
  -4  -1   8 578.098 198.773   2
  -4  -1   7 1032.07 219.839   6
  -4  -1   7 689.370 249.338  15
  -4  -1   7 1349.92 342.441  14
  -4  -1   7 718.858 204.340  11
  -4  -1   7 1240.28 244.615   2
  -4  -1   6 6124.05 646.153  14
  -4  -1   5 5978.80 603.537  14
  -4  -1   4 4235.37 478.755  14
   4   1  -4 3487.31 343.685  17
  -4  -1   3 554.508 210.241  14
   4   1  -3 363.171 170.198  17
   4   1  -2 76115.3 1497.83  17
  -4  -1   2 75840.0 1639.24  14
  -4  -1   1-101.413 136.592  14
   4   1  -1 141.792 156.401  17
  -4  -1   0 13568.3 575.852  14
   4   1   0 13830.2 631.730  17
  -4  -1  -1 9521.97 414.570  14
   4   1   1 8896.44 517.025  17
  -4  -1  -2 46270.1 701.292  14
   4   1   2 45581.1 1089.42  17
   4   1   3 61478.9 1251.91  17
   4   1   4 2433.48 268.555  17
   4   1   4 2539.50 294.815  21
   4   1   5 2264.11 300.244  21
   4   1   5 1916.18 244.729  17
   4   1   6 1196.27 253.832  21
   4   1   6 1216.92 206.079  18
   4   1   7 13340.6 761.515  21
   4   1   8 2601.32 383.271  13
   4   1   8 2559.81 373.299  21
   4   1   9 1722.91 310.319  13
   4   1  10 13799.5 902.290  13
   4   1  10 13946.3 658.623  12
   4   1  11 1445.04 242.045  12
   4   1  12 17619.8 748.030  12
   4   1  13 2371.19 296.783  12
   4   1  13 2634.10 324.326  10
   4   1  13 2553.53 324.428   2
   4   1  14 317.278 181.452   2
   4   1  14 522.971 174.366  12
   4   1  14 510.934 196.058  10
   4   1  15 8527.35 404.997  12
   4   1  15 9076.05 466.763   2
   4   1  15 9320.23 467.327  10
   4   1  16 11654.8 436.459  10
  -4  -2  13 6067.05 317.203  15
  -4  -2  12 1925.82 258.545  15
  -4  -2  11 168.417 176.164  15
  -4  -2  11 485.610 186.002   7
  -4  -2  10 12408.6 719.569  15
  -4  -2  10 12689.4 682.766   2
  -4  -2  10 12078.3 597.090   7
  -4  -2   9 8057.16 565.157   6
  -4  -2   9 8108.39 618.920  15
  -4  -2   9 9006.23 602.747   2
  -4  -2   9 8243.94 520.522   7
  -4  -2   8 26924.3 991.977   6
  -4  -2   8 25270.5 1037.24  15
  -4  -2   8 25701.0 905.613   3
  -4  -2   8 26108.4 993.135   2
  -4  -2   8 25650.8 897.017   7
  -4  -2   7 9892.99 598.655   6
  -4  -2   7 10083.4 657.170  15
  -4  -2   7 9805.37 873.712  14
  -4  -2   7 9252.56 534.982   3
  -4  -2   7 10529.7 633.485   2
  -4  -2   6 11.6723 158.765  14
  -4  -2   5 44.2760 187.069  14
  -4  -2   4 15929.2 911.546  14
   4   2  -4 16475.8 743.000  17
   4   2  -3-225.610 133.971  17
  -4  -2   3 138.741 116.481  14
  -4  -2   2 1420.00 275.405  14
   4   2  -2 1458.38 242.153  17
   4   2  -1 33180.4 994.618  17
  -4  -2   1 32873.6 999.915  14
  -4  -2   0 135235. 1801.57  14
   4   2   0 131905. 1946.66  17
  -4  -2  -1 41659.4 882.441  14
   4   2   1 41692.2 1085.66  17
  -4  -2  -2 2411.20 186.356  14
   4   2   2 2759.78 309.470  17
   4   2   3 29772.8 882.449  17
   4   2   4 25608.5 810.189  17
   4   2   5 252736. 2792.12  21
   4   2   5 250716. 2479.99  17
   4   2   6 31102.8 843.191  17
   4   2   6 32811.2 1081.82  21
   4   2   7 45381.2 1371.76  21
   4   2   8 1682.25 311.835  13
   4   2   8 1593.99 314.426  21
   4   2   9 17912.2 987.015  21
   4   2   9 19183.0 966.046  13
   4   2  10 1561.60 316.827  13
   4   2  10 2063.18 276.410  12
   4   2  11 2282.49 307.222  12
   4   2  11 2545.37 308.524  11
   4   2  12 48043.8 1239.31  12
   4   2  12 50311.3 1263.63  11
   4   2  13 1762.68 269.903  12
   4   2  13 1729.27 248.519  11
   4   2  13 1538.88 259.480   2
   4   2  14 4492.14 374.539  12
   4   2  14 4066.44 362.330  10
   4   2  14 3985.92 351.983  11
   4   2  15 5820.42 372.308  12
   4   2  15 6445.42 413.332  10
   4   2  16 664.991 164.719  10
  -4  -3  12 8113.29 422.369  15
  -4  -3  11 6520.40 459.733  15
  -4  -3  10 1771.15 294.373   2
  -4  -3  10 2000.97 323.530  15
  -4  -3  10 1858.43 280.537   7
  -4  -3   9 1152.89 241.498   7
  -4  -3   9 1270.58 273.081  15
  -4  -3   9 1716.35 279.237   3
  -4  -3   9 1490.98 295.259   2
  -4  -3   8 17208.0 810.184   6
  -4  -3   8 18256.6 889.378  15
  -4  -3   8 17375.9 755.334   3
  -4  -3   8 18445.4 838.619   2
  -4  -3   8 17211.9 755.108   7
  -4  -3   7 20.6036 131.782   7
  -4  -3   7-366.342 201.920   6
  -4  -3   7-122.674 150.651  15
  -4  -3   7 354.291 189.025   3
  -4  -3   7-73.9487 147.727   2
  -4  -3   6 9348.51 566.284   6
  -4  -3   6 9234.20 612.809  15
  -4  -3   6 9380.09 825.190  14
  -4  -3   6 10308.5 588.707   2
  -4  -3   5 214.193 241.822  14
  -4  -3   4 21942.3 1123.80  14
   4   3  -4 24504.1 927.924  17
  -4  -3   3 64.8391 140.153  14
   4   3  -3 205.305 145.907  17
  -4  -3   2 19451.8 897.572  14
   4   3  -2 18939.3 813.820  17
  -4  -3   1 6168.21 471.273  14
   4   3  -1 6334.50 469.511  17
  -4  -3   0 32577.9 948.185  14
   4   3   0 32067.9 1007.84  17
  -4  -3  -1 6788.84 389.093  14
   4   3   1 6505.35 470.235  17
  -4  -3  -2 18155.0 515.822  14
   4   3   2 18369.1 460.267  20
   4   3   2 18477.2 762.972  17
   4   3   3 55460.3 942.205  20
   4   3   3 53221.4 1233.74  17
   4   3   4 19207.3 642.017  20
   4   3   4 18318.2 714.917  17
   4   3   5 46515.7 1108.70  17
   4   3   6 766.713 216.995  21
   4   3   6 479.723 159.139  17
   4   3   7 3787.46 439.052  21
   4   3   8 23594.6 957.539  13
   4   3   8 25533.9 1090.95  21
   4   3   9 449.758 194.708  13
   4   3   9 339.937 213.237  21
   4   3  10 1321.17 287.849  13
   4   3  10 1181.88 362.250  21
   4   3  11-3.81615 155.836  13
   4   3  11 338.997 179.994  12
   4   3  12 20512.2 812.240  12
   4   3  12 20539.4 838.186  11
   4   3  13 3163.81 349.330  12
   4   3  13 3606.76 353.429  11
   4   3  14 19367.7 771.672  10
   4   3  14 19906.6 777.115  12
   4   3  14 19759.5 785.786  11
   4   3  15 426.993 155.639  12
   4   3  15 589.201 195.623  11
   4   3  15 293.933 159.036  10
   4   3  16 2601.39 237.647  11
   4   3  16 2478.35 256.315  10
  -4  -4  12 44.2343 94.4095  15
  -4  -4  11 2367.32 285.886  15
  -4  -4  10 1555.76 283.076  15
  -4  -4  10 1147.57 236.808   2
  -4  -4  10 1006.90 249.886   7
  -4  -4   9 2004.91 333.138  15
  -4  -4   9 2037.11 305.214   3
  -4  -4   9 2226.00 301.381   2
  -4  -4   9 2286.37 307.105   7
  -4  -4   8-6.37019 130.914   7
  -4  -4   8 165.390 185.817  15
  -4  -4   8-175.075 152.389   3
  -4  -4   8 213.076 184.433   2
  -4  -4   7 22382.3 907.870   6
  -4  -4   7 21433.1 946.112  15
  -4  -4   7 21755.5 849.428   3
  -4  -4   7 22433.5 917.220   2
  -4  -4   7 23291.8 879.847   7
  -4  -4   6 501.050 155.260   6
  -4  -4   6 658.421 175.150   3
  -4  -4   6 849.642 220.937   2
  -4  -4   5 2114.45 410.675  14
  -4  -4   4 10304.3 787.453  14
   4   4  -3 28547.4 1059.99  17
  -4  -4   3 27827.7 1217.16  14
  -4  -4   2 5350.73 521.428  14
   4   4  -2 5369.28 475.105  17
  -4  -4   1 56877.0 1447.41  14
   4   4  -1 61218.5 1496.74  17
   4   4   0 51585.1 1350.82  17
  -4  -4   0 50658.9 1253.17  14
  -4  -4  -1 63500.7 1247.37  14
   4   4   1 66295.0 1507.28  17
   4   4   2 33059.1 703.491  20
   4   4   2 32687.8 1040.11  17
   4   4   3 6638.56 357.729  20
   4   4   3 6104.37 461.710  17
   4   4   4 33326.3 870.605  20
   4   4   4 31250.2 989.080  17
   4   4   5 111535. 1758.01  20
   4   4   5 111789. 1809.47  17
   4   4   6 61447.6 1310.11  17
   4   4   6 63465.7 1465.51  20
   4   4   7 14352.8 779.912  21
   4   4   8 184.021 143.639  13
   4   4   8 310.636 191.085  21
   4   4   9 3304.62 410.525  13
   4   4   9 2955.51 417.665  21
   4   4  10 11093.6 726.665  13
   4   4  10 11368.1 802.538  21
   4   4  11 78820.4 2052.09  13
   4   4  11 79025.2 1543.04  12
   4   4  11 78679.5 1575.17  11
   4   4  11 82607.8 2237.56  21
   4   4  12 264.133 186.470  12
   4   4  12 286.858 187.551  11
   4   4  13 20787.5 826.606  12
   4   4  13 21373.7 863.639  11
   4   4  14 131.106 179.648  12
   4   4  14-116.560 169.664  11
   4   4  15 4480.71 367.247  12
   4   4  15 3939.96 354.155  11
   4   4  15 4170.22 358.196  10
   4   4  16 4646.94 334.103  11
   4   4  16 5360.30 351.971  10
   4   4  17 6180.91 298.051  11
   4   4  17 7568.07 335.815  10
  -4  -5  11-6.19926 114.765  15
  -4  -5  10 224.737 159.732  15
  -4  -5   9 6428.72 492.377  15
  -4  -5   9 6021.72 428.639   3
  -4  -5   9 5819.47 430.877   2
  -4  -5   9 6543.61 465.128   7
  -4  -5   8-95.0142 156.185   7
  -4  -5   8-309.457 191.061  15
  -4  -5   8 1.07109 172.316   3
  -4  -5   8-231.918 177.944   2
  -4  -5   7 8738.24 614.360  15
  -4  -5   7 8037.19 540.750   3
  -4  -5   7 8837.94 577.512   2
  -4  -5   7 8847.78 574.322   7
  -4  -5   6 847.946 251.336   7
  -4  -5   6 659.788 227.754   6
  -4  -5   6 1042.70 243.421  15
  -4  -5   6 868.339 223.650   3
  -4  -5   6 1108.45 197.923   2
  -4  -5   5 842.152 206.699   6
  -4  -5   5 1102.60 251.596  15
  -4  -5   5 1059.68 195.686   3
  -4  -5   4 257.924 166.761  14
   4   5  -3 3608.87 405.786  17
  -4  -5   3 4016.34 475.086  14
  -4  -5   2 5147.84 534.823  14
   4   5  -2 5353.95 495.843  17
  -4  -5   1 2650.90 349.639  14
   4   5  -1 2916.07 366.575  17
  -4  -5   0 420.641 162.975  14
   4   5   0 36.4350 158.728  17
   4   5   1 12495.1 705.303  17
   4   5   2 3493.98 278.751  20
   4   5   2 3852.53 404.559  17
   4   5   3 145.130 147.013  20
   4   5   3 365.591 227.220  17
   4   5   4 6248.84 413.413  20
   4   5   4 5817.55 462.679  17
   4   5   5 11516.4 627.910  17
   4   5   5 12777.7 626.773  20
   4   5   6 19319.2 829.003  20
   4   5   6 19746.4 815.576  17
   4   5   7 9606.59 640.803  20
   4   5   7 9080.87 540.896  17
   4   5   8 27170.2 1113.84  21
   4   5   8 26418.7 936.500  13
   4   5   8 27228.1 1164.81  20
   4   5   9 13587.7 733.089  13
   4   5   9 14575.1 854.074  21
   4   5  10 8644.61 658.302  13
   4   5  10 8880.34 704.171  21
   4   5  11 46293.0 1183.92  12
  -4  -5 -11 43877.3 1171.15   4
   4   5  11 45977.2 1214.77  11
   4   5  11 47381.7 1672.64  21
   4   5  12 94810.4 1736.71  12
   4   5  12 92440.7 1764.89  11
   4   5  13 20054.1 815.576  12
   4   5  13 19425.2 843.790  11
   4   5  14 5439.82 436.840  12
   4   5  14 4552.61 420.433  11
   4   5  15 5571.92 414.469  12
   4   5  15 5592.92 422.017  11
   4   5  15 5948.87 413.942  10
   4   5  16 1954.72 260.708  11
   4   5  16 1896.44 239.836  10
   4   5  17 360.079 122.793  11
   4   5  17 286.902 118.972  10
  -4  -6  10 1892.80 230.892  15
  -4  -6   9 1114.29 237.490  15
  -4  -6   9 1164.01 221.942   3
  -4  -6   9 1082.44 202.419   2
  -4  -6   9 1264.63 248.009   7
  -4  -6   8 250.284 183.923  15
  -4  -6   8-90.1867 160.908   3
  -4  -6   8 272.532 131.897   2
  -4  -6   8-41.4645 167.021   7
  -4  -6   7 9062.04 617.004  15
  -4  -6   7 8291.34 551.942   3
  -4  -6   7 9272.18 561.125   2
  -4  -6   7 9633.00 576.451   7
  -4  -6   6 651.062 226.423   7
  -4  -6   6 401.374 227.050  15
  -4  -6   6 259.003 158.165   3
  -4  -6   5 19611.4 873.808  15
  -4  -6   5 18296.0 787.148   3
  -4  -6   5 19167.9 788.433   7
  -4  -6   4 17136.7 731.549   6
  -4  -6   4 18493.1 826.340  15
  -4  -6   4 17877.4 701.614  16
  -4  -6   4 17633.9 1092.75  14
  -4  -6   3 1436.67 291.317  14
   4   6  -3 1373.28 312.242  17
  -4  -6   2 404.372 176.872  14
   4   6  -2 383.889 168.466  17
  -4  -6   1 119.882 174.049  14
   4   6  -1 245.763 188.962  17
   4   6   0 5052.00 498.003  17
   4   6   1 39955.2 1031.23  20
   4   6   1 40110.9 1325.33  17
   4   6   2 26263.5 822.013  20
   4   6   2 26096.7 1051.16  17
   4   6   3 25959.0 837.693  20
   4   6   3 24884.5 1011.44  17
   4   6   4 26738.8 894.365  20
   4   6   4 25241.2 1011.01  17
   4   6   5 1442.04 255.605  20
   4   6   5 1562.30 289.935  17
   4   6   6 951.533 228.852  20
   4   6   6 940.381 222.860  17
   4   6   7 46.0624 143.458  17
   4   6   7 328.034 160.638  20
   4   6   8 3116.21 435.452  20
   4   6   9 10948.4 752.826  21
   4   6   9 10224.6 776.890  20
   4   6  10 18837.4 1039.66  21
   4   6  11 26135.2 897.716  12
  -4  -6 -11 25077.4 913.539   4
   4   6  11 25761.3 1230.21  21
   4   6  12 74790.2 1554.52  12
   4   6  12 72819.7 1582.28  11
   4   6  13 40.8921 155.402  12
   4   6  13 76.8844 188.655  11
   4   6  14 6191.67 463.371  12
   4   6  14 6187.88 479.828  11
   4   6  15 26077.3 890.832  11
   4   6  15 26208.1 793.417  10
   4   6  16 1498.11 226.579  11
   4   6  16 1453.86 210.440  10
   4   6  17 4666.67 303.656  11
   4   6  17 4519.93 251.697  10
  -4  -7   9 87.1367 147.273  15
  -4  -7   9 344.223 155.398   3
  -4  -7   8 1529.30 257.562  15
  -4  -7   8 1646.74 241.694   3
  -4  -7   8 2310.88 299.385   7
  -4  -7   7 3847.66 410.026  15
  -4  -7   7 3805.24 364.517   3
  -4  -7   7 3803.32 369.836   7
  -4  -7   6 5266.90 476.870  15
  -4  -7   6 5644.21 468.522   3
  -4  -7   6 5991.32 454.709   7
  -4  -7   5 123.489 149.352   7
  -4  -7   5-32.9998 115.257  16
  -4  -7   5-40.4621 190.926  15
  -4  -7   4 7901.71 560.324  15
  -4  -7   4 7620.33 486.852  16
  -4  -7   4 7921.31 510.067   7
  -4  -7   3 160.730 116.544  16
  -4  -7   3 74.6304 166.727  15
   4   7  -2 28700.5 1260.36  17
   4   7  -1 240.014 135.578  17
   4   7   0 8411.88 673.523  17
   4   7   1 13440.8 685.538  20
   4   7   1 11638.9 775.572  17
   4   7   2 19435.2 802.311  20
   4   7   2 17161.9 914.853  17
   4   7   3 954.560 224.532  20
   4   7   3 1080.31 290.573  17
   4   7   4 25877.1 941.027  20
   4   7   4 23395.5 1054.83  17
   4   7   5 15263.6 758.749  20
   4   7   5 14407.6 820.335  17
   4   7   6-52.5034 110.869  20
   4   7   6-11.7517 110.072  17
   4   7   7 1698.36 297.064  17
   4   7   7 1643.38 311.585  20
   4   7   8-107.865 200.508  20
   4   7   9 7314.09 638.681  21
   4   7   9 6431.99 636.364  20
   4   7  10 24.5475 111.999  12
   4   7  10 184.494 203.416  20
   4   7  10 526.232 259.438  21
  -4  -7 -10 84.3733 142.999   4
   4   7  11 20288.6 1117.64  21
   4   7  11 21242.8 810.285  12
  -4  -7 -11 19303.8 835.339   4
   4   7  12 98772.1 1780.19  12
   4   7  12 100354. 1854.89  11
   4   7  13 9729.95 580.841  12
   4   7  13 10596.1 629.588  11
   4   7  14 6341.35 483.858  11
   4   7  15 1555.66 265.595  11
   4   7  15 1078.66 192.151  10
   4   7  16 243.754 132.986  10
   4   7  16 324.920 153.558  11
   4   7  17 7236.70 378.594  11
  -4  -8   8 878.726 196.108  15
  -4  -8   8 924.018 190.467   3
  -4  -8   7 1841.77 273.195  15
  -4  -8   7 1990.51 282.963   3
  -4  -8   7 1819.09 252.473   7
  -4  -8   6 96.6716 174.527  15
  -4  -8   6-416.188 199.146   3
  -4  -8   6 97.8817 152.486   7
  -4  -8   5 1316.30 241.182   7
  -4  -8   5 1557.07 235.557  16
  -4  -8   5 1279.02 289.620  15
  -4  -8   4 5711.98 494.177  15
  -4  -8   4 6417.23 466.448  16
  -4  -8   4 6007.73 431.179   7
  -4  -8   3 34627.7 1126.48  15
  -4  -8   3 31616.2 995.208  16
  -4  -8   3 32482.7 966.962   7
  -4  -8   2 10071.5 613.343  15
   4   8  -2 9112.01 748.744  17
  -4  -8   2 9542.20 558.303  16
  -4  -8   1 13558.6 681.474  15
   4   8  -1 12719.0 871.377  17
  -4  -8   1 13015.1 620.771  16
   4   8   0 28812.5 1309.75  17
   4   8   1 4285.69 525.547  17
   4   8   2 49828.0 1405.02  20
   4   8   3 449.759 187.654  20
   4   8   4 63043.6 1586.57  20
   4   8   5 7991.00 598.409  20
   4   8   6 8645.17 641.563  20
   4   8   6 7427.85 641.141  17
   4   8   7 55242.8 1687.18  20
   4   8   7 54302.7 1649.23  17
   4   8   8 1092.04 248.697  20
   4   8   9-272.160 138.342  20
  -4  -8  -9-17.3859 93.9772   4
   4   8  10 596.455 241.753  20
   4   8  10-187.836 142.312  12
   4   8  10 225.693 121.247   5
  -4  -8 -10-17.1897 135.079   4
   4   8  10 481.570 219.286  21
   4   8  11 29713.6 938.518   5
   4   8  11 29915.2 960.232  12
  -4  -8 -11 29554.2 1032.98   4
   4   8  12 4512.54 398.142   5
   4   8  13 1449.33 268.843  11
   4   8  14 92.6612 169.053  11
   4   8  15 11366.5 601.665  11
   4   8  16-53.6435 122.959  11
   4   8  17 2861.82 249.047  11
  -4  -9   8 4894.54 304.102   3
  -4  -9   7 342.990 158.987   3
  -4  -9   6 1234.82 253.800  15
  -4  -9   6 1396.78 261.988   3
  -4  -9   6 1630.18 234.635   7
  -4  -9   5 374.397 199.340  15
  -4  -9   5 457.525 196.657   3
  -4  -9   5 254.309 149.782   7
  -4  -9   5 624.012 180.658  16
  -4  -9   4 2117.86 272.779   7
  -4  -9   4 2870.01 368.308  15
  -4  -9   4 2886.63 333.781  16
  -4  -9   3 17712.0 817.034  15
  -4  -9   3 16460.7 737.354  16
  -4  -9   2 491.877 177.753  16
  -4  -9   2 123.882 187.662  15
  -4  -9   1 19216.8 826.458  15
   4   9  -1 17876.2 1093.68  17
  -4  -9   1 18801.0 779.567  16
  -4  -9   0 15997.6 731.990  15
   4   9   0 17305.6 1059.65  17
  -4  -9   0 17118.4 725.165  16
  -4  -9  -1 890.375 207.811  16
   4   9   1 336.601 183.266  17
   4   9   2 48019.5 1513.26  20
   4   9   3 34584.7 1260.28  20
   4   9   4 9696.84 704.177  20
   4   9   5 1012.96 244.925  20
   4   9   6 294.068 174.713  20
   4   9   7 36.9861 109.995  20
   4   9   7-138.843 238.751  17
   4   9   8 15919.5 696.476   5
  -4  -9  -8 16319.6 738.775   4
   4   9   8 16083.1 995.659  20
  -4  -9  -9-30.7419 161.424   4
   4   9   9-132.622 115.971   5
   4   9  10 24751.0 891.709   5
  -4  -9 -10 24506.7 945.741   4
   4   9  11 3533.86 351.451   5
  -4  -9 -11 2855.56 370.626   4
   4   9  12 4003.40 365.429   5
   4   9  13 3464.51 330.838   5
   4   9  13 3031.25 375.260  11
   4   9  14 628.043 215.530  11
   4   9  15 2149.29 291.620  11
   4   9  16-16.1498 137.193  11
   4   9  17 3960.34 281.915  11
  -4 -10   7 21.7649 101.381   3
  -4 -10   6 492.616 165.040   3
  -4 -10   5 44.4824 155.985  16
  -4 -10   5 23.3520 165.443   3
  -4 -10   4 2.78576 138.412  16
  -4 -10   3 18197.9 770.826  16
  -4 -10   2 1403.66 258.912  16
  -4 -10   1 11816.2 645.048  16
  -4 -10   0 1643.39 279.448  16
   4  10   1 7576.05 774.721  17
  -4 -10  -1 10004.1 588.941  16
  -4 -10  -2 390.815 179.191  16
   4  10   3 3843.10 471.111  20
  -4 -10  -3 3071.05 303.841  16
  -4 -10  -4 2590.01 308.188  16
   4  10   4 2899.07 394.952  20
   4  10   5-112.045 132.733  20
   4  10   6 3114.94 340.605   5
   4  10   6 2496.86 371.017  20
   4  10   7 47648.8 1220.46   5
  -4 -10  -7 46246.5 1213.95   4
   4  10   7 51539.6 1779.75  20
   4  10   7 47978.7 1754.20  17
   4  10   8 3417.85 471.784  20
   4  10   8 2210.55 281.950   5
  -4 -10  -8 2929.38 355.322   4
   4  10   9 21292.7 845.089   5
  -4 -10  -9 20288.8 857.094   4
   4  10  10 6212.80 467.741   5
   4  10  11-219.099 157.709   5
   4  10  12 15010.2 691.301   5
   4  10  13 119.745 117.736   5
   4  10  13 28.9482 171.772  11
   4  10  14-154.334 148.062   5
   4  10  14 117.346 180.274  11
   4  10  15-5.20744 158.571  11
   4  10  16 435.012 166.513  11
   4  10  17 315.545 110.573  11
  -4 -11   6 1857.02 199.661   3
  -4 -11   5 558.860 146.059  16
  -4 -11   5 711.120 179.183   3
  -4 -11   4 408.316 164.322  16
  -4 -11   3 1962.98 286.312  16
  -4 -11   2 18266.1 764.881  16
  -4 -11   1 9174.59 562.609  16
  -4 -11   0-223.914 196.665  16
  -4 -11  -1 108.389 142.058  16
  -4 -11  -2 35124.9 1065.62  16
  -4 -11  -3 12851.2 641.649  16
   4  11   4 7899.12 494.703   5
  -4 -11  -4 8730.07 513.001  16
   4  11   5 37285.8 1071.62   5
  -4 -11  -5 37991.9 1024.42  16
   4  11   6 3674.75 355.396   5
   4  11   7 8214.27 536.633   5
   4  11   8 2035.53 293.691   5
   4  11   9 10036.7 606.688   5
   4  11  10 19168.3 814.644   5
   4  11  11 6335.63 480.697   5
   4  11  12 22049.9 841.645   5
   4  11  13 560.007 177.213   5
   4  11  13 693.790 200.298  11
   4  11  14 1873.31 251.257   5
   4  11  14 1855.44 267.286  11
   4  11  15 655.914 187.436  11
   4  11  16 530.626 152.373  11
   4  11  17-6.82933 73.5845  11
  -4 -12   5 1046.41 155.764   3
  -4 -12   4 918.351 175.629  16
  -4 -12   4 802.045 189.218   3
  -4 -12   3 3311.40 307.036  16
  -4 -12   2 4976.94 402.961  16
  -4 -12   1 161.158 175.681  16
  -4 -12   0 781.407 259.308  16
  -4 -12  -1 5891.54 466.499  16
  -4 -12  -2 1286.29 273.470  16
  -4 -12  -3 38480.5 1101.37   1
  -4 -12  -3 38076.0 1088.47  16
   4  12   4 17535.4 707.240   5
  -4 -12  -4 18272.1 750.634  16
   4  12   5 17910.9 745.466   5
  -4 -12  -5 17245.3 712.555  16
   4  12   6 22442.1 846.932   5
   4  12   7 5118.58 428.453   5
   4  12   8 7182.55 511.426   5
   4  12   9 11693.2 637.707   5
   4  12  10 211.914 151.714   5
   4  12  11 2035.28 294.724   5
   4  12  12 10437.5 575.902   5
   4  12  12 9502.21 533.818  11
   4  12  13 92.5574 150.011   5
   4  12  13-97.9815 158.996  11
   4  12  14 390.681 177.183   5
   4  12  14 216.591 155.779  11
   4  12  15 133.949 105.178   5
   4  12  15 58.5968 113.295  11
   4  12  16 286.845 110.042  11
  -4 -13   4 2.17724 72.0970   3
  -4 -13   3 1252.64 182.393  16
  -4 -13   3 1311.92 194.765   3
  -4 -13   2 35.1556 146.465  16
  -4 -13   1-18.0283 160.936  16
  -4 -13   0 2642.93 319.234  16
  -4 -13  -1 296.247 191.349  16
  -4 -13  -2 2387.44 300.173  16
  -4 -13  -3 2187.30 294.444   1
  -4 -13  -3 2499.91 300.609  16
  -4 -13  -4 3160.17 345.902   1
  -4 -13  -4 3094.27 329.233  16
   4  13   5 20924.7 767.988   5
  -4 -13  -5 19882.5 827.195   1
  -4 -13  -5 20644.4 757.658  16
   4  13   6 12558.7 619.746   5
   4  13   7 4599.81 408.288   5
   4  13   8 1828.14 274.067   5
   4  13   9 1066.04 233.966   5
   4  13  10 6401.60 469.489   5
   4  13  11 1731.45 275.307   5
   4  13  12 126.367 161.355   5
   4  13  12 161.192 132.244  11
  -4 -13 -12 120.873 153.807   1
  -4 -13 -13 2006.43 235.100   1
   4  13  13 1719.80 253.107   5
   4  13  13 1661.21 219.028  11
   4  13  14 5064.44 339.085   5
   4  13  14 5354.06 336.233  11
   4  13  15 1166.34 160.005   5
   4  13  15 1175.63 154.529  11
  -4 -14   2 2459.79 216.894   3
  -4 -14   2 2414.05 215.175  16
  -4 -14   1 71.4667 128.133  16
  -4 -14   0 1762.15 238.153  16
  -4 -14  -1 1106.89 219.410  16
  -4 -14  -2 151.727 153.201  16
  -4 -14  -3 6090.13 409.883   1
  -4 -14  -3 6650.47 431.505  16
  -4 -14  -4 1377.17 246.539  16
  -4 -14  -4 1742.37 250.154   1
  -4 -14  -5 5954.59 441.059   1
  -4 -14  -5 6130.59 403.071  16
   4  14   6 9219.24 494.900   5
  -4 -14  -6 9637.01 560.065   1
   4  14   7 5366.34 394.653   5
  -4 -14  -7 5720.70 437.972   1
  -4 -14  -8 402.154 192.150   1
   4  14   8 154.230 115.539   5
   4  14   9 3753.11 357.007   5
  -4 -14  -9 3238.10 351.299   1
  -4 -14 -10 82.4620 158.796   1
   4  14  10 58.2743 150.336   5
  -4 -14 -11-2.51596 137.408   1
   4  14  11-36.4056 144.055   5
   4  14  11 305.462 154.063  11
   4  14  12 38.1289 136.164   5
   4  14  12 150.137 130.300  11
  -4 -14 -12 118.755 130.275   1
  -4 -14 -13 269.681 118.825   1
   4  14  13 191.102 140.395   5
   4  14  13 55.5035 112.335  11
   4  14  14 1331.13 170.069   5
  -4 -15   0 476.035 129.528  16
  -4 -15  -1 571.801 149.472  16
  -4 -15  -2 600.310 164.482  16
  -4 -15  -3-79.6779 139.839  16
  -4 -15  -4 20995.7 673.814   1
  -4 -15  -4 20771.5 644.928  16
  -4 -15  -5 1476.46 202.041  16
  -4 -15  -5 1328.53 227.230   1
  -4 -15  -6 2915.77 305.736   1
   4  15   7 479.707 144.200   5
  -4 -15  -7 497.485 186.042   1
   4  15   8 55.6757 122.163   5
  -4 -15  -8 300.776 155.975   1
   4  15   9-213.576 150.468   5
  -4 -15  -9 146.155 142.407   1
   4  15  10 1559.70 218.204   5
  -4 -15 -10 1405.37 225.486   1
   4  15  11 1946.39 232.823   5
  -4 -15 -11 2357.46 257.944   1
   4  15  12 3138.18 265.790   5
  -4 -15 -12 3270.26 254.501   1
   4  15  13 2528.57 212.952   5
  -4 -16  -3 798.084 119.578  16
  -4 -16  -4 16721.3 453.830  16
  -4 -16  -5 12062.9 443.352   1
  -4 -16  -6 1742.74 211.188   1
  -4 -16  -7 671.815 158.434   1
   4  16   8 235.607 100.089   5
  -4 -16  -8-170.431 120.568   1
   4  16   9 3481.19 245.054   5
  -4 -16  -9 4246.43 302.107   1
  -4 -16 -10 110.617 113.330   1
   4  16  10 28.5834 93.8188   5
   4  16  11 3836.38 244.061   5
  -4 -16 -11 3915.55 261.178   1
   4  16  12 1955.25 169.959   5
   5 -12  -5 1007.74 164.837   1
   5 -12  -4 714.596 152.492   1
   5 -12  -3 3261.35 287.175   1
   5 -12  -2 346.450 137.196   1
   5 -12  -2 128.758 88.4071   9
   5 -12  -1-131.794 98.5963   9
   5 -12  -1-26.3083 128.694   1
   5 -12   0 6945.47 376.965   1
   5 -12   0 6653.36 289.610   9
   5 -12   1 141.365 77.7228   1
  -5  11   9 2864.69 227.077   4
  -5  11   8 33.6616 85.9686   4
  -5  11   7 1998.18 222.776   4
  -5  11   6 1959.88 220.524   4
   5 -11  -5 1361.30 224.451   1
   5 -11  -4 663.476 203.381   1
   5 -11  -3 4359.48 373.099   1
   5 -11  -2-0.95179 159.307   1
   5 -11  -1 21429.5 797.800   1
   5 -11   0 14949.5 663.144   1
   5 -11   1 1182.72 224.852   1
   5 -11   1 1100.36 178.165   9
   5 -11   2 213.092 149.563   1
   5 -11   2 412.072 137.827   9
   5 -11   3-141.719 101.070   1
   5 -11   3 74.1374 109.105   9
   5 -11   4-31.9250 75.5853   9
  -5  10  10 2556.37 243.040   4
  -5  10   9 5618.60 382.173   4
  -5  10   8 317.611 155.610   4
  -5  10   7 2106.26 273.360   4
  -5  10   6 366.057 171.208   4
   5 -10  -5 11048.1 577.417   1
  -5  10   5 10768.9 566.149   4
   5 -10  -4 4630.29 408.860   1
   5 -10  -3 10027.3 597.905   1
   5 -10  -2 5280.46 454.507   1
   5 -10  -1 11491.7 658.152   1
   5 -10   0 7667.07 546.232   1
   5 -10   1 564.697 209.156   1
   5 -10   2 2111.27 299.684   1
   5 -10   3 326.491 203.983   1
   5 -10   3 387.425 160.547   9
   5 -10   4 1084.54 203.036   1
   5 -10   4 1097.12 190.180   9
   5 -10   5 155.097 104.118   9
   5 -10   6 28.5114 77.8771   9
  -5   9  11 87.4346 94.3875   4
  -5   9  10 246.821 153.322   4
  -5   9   9 1970.24 281.970   4
  -5   9   8 963.028 221.571   5
  -5   9   7 256.088 192.020   5
  -5   9   6 541.962 186.138   5
  -5   9   5-11.4844 162.921   4
  -5   9   5 144.602 154.516   5
   5  -9  -5 81.5033 136.206   1
  -5   9   4-27.9741 121.343   4
  -5   9   4 330.354 148.170   5
   5  -9  -4 105.104 193.614   1
   5  -9  -3 338.452 171.719   1
   5  -9  -2-134.034 190.400   1
   5  -9  -1 64.6261 152.678   1
   5  -9   0 7231.74 577.400   1
   5  -9   1 10373.6 656.571   1
   5  -9   2 9173.11 617.192   1
   5  -9   3 3124.97 363.404   1
   5  -9   4 1674.99 271.979   1
   5  -9   4 1551.83 256.429   9
   5  -9   5 2678.15 269.770   1
   5  -9   5 2677.59 288.857   9
   5  -9   6 2057.06 239.896   9
   5  -9   7 638.860 144.194   9
  -5   8  12 5415.11 280.113   4
  -5   8  11-155.088 140.278   4
  -5   8  11-91.0300 127.071  15
  -5   8  10 9503.39 467.465  15
  -5   8  10 9314.46 520.855   4
  -5   8   9 4725.29 423.250   5
  -5   8   8 4462.87 422.010   5
  -5   8   7-41.8813 138.741   5
  -5   8   6 269.175 205.498   5
  -5   8   5 17095.7 804.977   5
  -5   8   4 457.373 218.871   5
   5  -8  -4 681.469 191.740   1
  -5   8   3 292.625 173.800   4
  -5   8   3 587.631 210.750   5
   5  -8  -3 586.203 190.572   1
   5  -8  -2 9867.36 653.811   1
   5  -8  -1 2430.36 360.962   1
   5  -8   0 131.562 243.483   1
   5  -8   1 12339.9 747.518   1
   5  -8   2 5503.32 516.123   1
   5  -8   3 1272.92 284.008   1
   5  -8   4 501.649 200.235   1
   5  -8   5 123.745 173.000   9
   5  -8   5 369.024 188.964   1
   5  -8   6 10.3118 127.426   1
   5  -8   6-4.42221 150.212   9
   5  -8   7 4263.81 334.743   9
   5  -8   8-11.2618 122.544   9
   5  -8   9-41.5228 76.8007   9
  -5   7  12 648.763 140.716   4
  -5   7  12 655.580 139.687  15
  -5   7  11 6435.91 396.783  15
  -5   7  11 5840.11 389.678   4
  -5   7  10 1760.95 251.424  15
  -5   7  10 1517.88 256.559   4
  -5   7   9 2472.19 297.168  15
  -5   7   9 2017.59 298.773   5
  -5   7   8 240.342 153.061   5
  -5   7   7 8023.92 591.155   5
  -5   7   6 6863.44 534.296   5
  -5   7   5 8362.64 593.667   5
  -5   7   4 8612.51 595.395   5
   5  -7  -4 7561.06 544.039   1
  -5   7   3-142.262 133.374   5
   5  -7  -3 174.244 179.139   1
   5  -7  -2 8463.32 594.718   1
  -5   7   2 9253.94 603.634   4
   5  -7  -1 10341.4 667.481   1
   5  -7   0 6406.10 524.263   1
   5  -7   1 15224.1 820.891   1
   5  -7   2 4070.24 438.473   1
   5  -7   3 570.619 227.380   1
   5  -7   4 1401.44 270.239   1
   5  -7   5 10502.1 642.611   1
   5  -7   6-86.3727 126.456   1
   5  -7   6 108.878 143.673   9
   5  -7   7 1815.67 279.337   9
   5  -7   8 1281.50 177.017  12
   5  -7   8 1353.97 235.374   9
   5  -7   9 969.144 177.350   9
   5  -7  10-82.8479 88.1218   9
   5  -7  10-103.483 91.6334   2
  -5   6  12 1870.25 217.643  15
  -5   6  12 1741.24 190.067   4
  -5   6  11 2743.90 313.729  15
  -5   6  11 2368.44 277.870   4
  -5   6  10 2092.95 290.441  15
  -5   6  10 2284.50 305.541   4
  -5   6   9 1008.92 205.141  15
  -5   6   9 372.413 210.320   5
  -5   6   8 2630.25 354.608  15
  -5   6   8 2382.47 361.553   5
  -5   6   7 48.1815 201.518   5
  -5   6   6 12609.5 728.485   5
  -5   6   5 987.616 261.382   5
  -5   6   4 40976.0 1255.09   5
  -5   6   3 11286.5 652.027   5
   5  -6  -3 9541.18 616.296   1
   5  -6  -3 10884.1 799.621  18
  -5   6   2 10297.8 607.826   5
   5  -6  -2 11667.5 670.068   1
   5  -6  -2 9909.39 801.157  18
   5  -6  -1 23512.5 971.227   1
   5  -6  -1 20664.1 1132.10  18
  -5   6   1 21913.8 877.845   4
   5  -6   0-330.407 172.924  18
   5  -6   0 261.436 136.351   1
   5  -6   1-447.717 232.107  18
   5  -6   1 195.967 208.757   1
   5  -6   2 38456.9 1266.45   1
   5  -6   3 2855.98 371.361   1
   5  -6   4 2799.36 385.533   1
   5  -6   5 4291.95 430.087   1
   5  -6   6-35.0765 181.881   1
   5  -6   7 12092.6 628.333   9
   5  -6   8 1799.32 241.274  12
   5  -6   8 1504.30 258.647   9
   5  -6   9 380.006 151.537  12
   5  -6   9 1075.27 208.510   9
   5  -6  10 4787.11 319.100   9
   5  -6  11 4647.94 309.948   2
  -5   5  13 329.156 118.810  15
  -5   5  12 713.169 198.659  15
  -5   5  11 467.324 162.825   4
  -5   5  11 507.167 190.931  15
  -5   5  10 4815.29 423.839  15
  -5   5  10 5293.57 444.931   4
  -5   5   9 248.818 165.066  15
  -5   5   8 15547.7 771.848  15
  -5   5   8 14668.8 783.687   5
  -5   5   7 10645.4 636.165  15
  -5   5   7 9650.98 648.102   5
  -5   5   6 16790.1 846.156   5
  -5   5   5 1143.67 302.266   5
  -5   5   5 1218.16 337.878  19
  -5   5   4 1988.65 314.104   5
  -5   5   4 2078.36 364.667  19
   5  -5  -4 1970.04 323.607  18
  -5   5   3 13766.2 704.055   5
  -5   5   3 11898.9 852.868  19
   5  -5  -3 12219.0 826.136  18
   5  -5  -2 5184.38 558.015  18
   5  -5  -1 3374.71 475.112  18
   5  -5   0 1679.63 344.209  18
   5  -5   1-7.41701 151.054   1
   5  -5   1 233.447 192.634  18
   5  -5   2 3640.27 404.035   1
   5  -5   2 3442.95 498.029  18
   5  -5   3 12152.7 699.347   1
   5  -5   3 10820.2 872.880  18
   5  -5   4 6282.65 527.921   1
   5  -5   5 5898.14 500.574   1
   5  -5   6 4784.39 442.304   1
   5  -5   7 16284.3 776.437   1
   5  -5   7 17299.5 756.197   9
   5  -5   8 1835.68 252.814   9
   5  -5   9 2774.72 296.387  12
   5  -5   9 3383.31 329.174   9
   5  -5  10 184.592 114.154  12
   5  -5  10 216.227 155.042   9
   5  -5  11 2756.26 241.663   9
   5  -5  12 2612.90 233.373   2
  -5   4  13 4002.38 286.061  15
  -5   4  12 1569.13 238.751  15
  -5   4  11 6133.08 474.794  15
  -5   4  10 14731.6 751.434  15
  -5   4  10 13776.5 677.033   4
  -5   4   9 1072.08 222.921   6
  -5   4   9 1572.97 293.345  15
  -5   4   8 864.538 194.049   6
  -5   4   8 1000.16 252.587  15
  -5   4   8 750.250 250.686   5
  -5   4   7 21105.6 899.372  15
  -5   4   7 21022.7 940.770   5
  -5   4   6 890.492 280.487   5
  -5   4   5 550.489 240.405   5
  -5   4   5 1531.88 350.559  19
  -5   4   4 37604.1 1165.62   5
  -5   4   4 34917.6 1473.37  19
   5  -4  -4 34159.6 1339.63  17
  -5   4   3-514.260 226.434  19
   5  -4  -3 137.210 164.889  17
  -5   4   2 620.845 228.353  19
   5  -4  -2 804.278 248.417  17
   5  -4  -1 6694.30 602.370  17
   5  -4   0 8117.92 675.100  18
   5  -4   0 8723.25 689.755  17
   5  -4   1 668.768 244.144  18
   5  -4   1 78.5582 178.732  17
   5  -4   2 15710.1 952.761  18
   5  -4   3 387.520 234.762  18
   5  -4   4 7907.82 556.352   1
   5  -4   4 8313.33 735.855  18
   5  -4   5 7266.04 526.016   1
   5  -4   5 6679.90 659.433  13
   5  -4   6-72.7791 155.183   1
   5  -4   7 228.304 152.360   1
   5  -4   8 15345.7 698.981   9
   5  -4   9 1243.54 235.926   9
   5  -4   9 1014.73 216.683  12
   5  -4  10 330.129 160.635  12
   5  -4  10 443.985 172.399   9
   5  -4  11 2476.31 242.854  12
   5  -4  11 2520.70 252.948   9
   5  -4  12 1436.93 230.223   2
   5  -4  13-78.8665 111.381   2
  -5   3  13 5193.21 321.900  15
  -5   3  12 809.648 209.236  15
  -5   3  11 381.390 227.782  15
  -5   3  10 2084.78 255.798   6
  -5   3  10 2009.71 324.139  15
  -5   3   9 1351.80 243.569   6
  -5   3   9 1578.73 317.507  15
  -5   3   9 1566.79 269.788   4
  -5   3   8 13507.7 666.533   6
  -5   3   8 11967.0 714.832  15
  -5   3   7 28867.8 1070.42  15
  -5   3   7 27919.5 1068.10   5
  -5   3   6 1904.37 289.118  15
  -5   3   6 1534.17 276.583   5
  -5   3   6 1829.22 431.133  19
  -5   3   5 1048.05 265.095   5
   5  -3  -5 1567.27 293.412  17
   5  -3  -4 2677.32 375.396  17
  -5   3   4 2370.29 468.156  19
  -5   3   3 24483.7 1109.77  19
   5  -3  -3 26019.1 1115.13  17
  -5   3   2 5496.58 503.890  19
   5  -3  -2 6028.14 561.393  17
   5  -3  -1 13678.5 802.963  17
   5  -3   0 1989.75 353.365  17
   5  -3   1 534.458 184.646  17
   5  -3   2 40185.4 1424.86  18
   5  -3   2 42953.0 1403.19  17
   5  -3   3 13892.4 852.824  18
   5  -3   3 15144.7 837.521  17
   5  -3   4 18228.6 986.858  18
   5  -3   5 10853.7 796.295  18
   5  -3   6 3099.57 362.843   1
   5  -3   6 2469.17 375.897  13
   5  -3   7 3642.88 383.628   1
   5  -3   8 1912.80 257.676   9
   5  -3   9 3802.43 386.467  12
   5  -3   9 3479.18 334.496   9
   5  -3  10-134.836 165.120  12
   5  -3  10 36.4092 122.299   9
   5  -3  11 3995.77 342.925  12
   5  -3  11 3967.37 322.110   9
   5  -3  12-314.622 133.254  12
   5  -3  13 71.6932 115.463   2
  -5   2  13 244.021 109.741  15
  -5   2  12 693.770 212.715  15
  -5   2  11 5944.44 477.646  15
  -5   2  10 910.027 189.595   6
  -5   2  10 1093.83 259.234  15
  -5   2   9 29.2131 145.735   6
  -5   2   9-328.973 230.634  15
  -5   2   8 10254.9 597.828   6
  -5   2   8 10837.4 699.942  15
  -5   2   8 10693.8 640.510   4
  -5   2   7 92058.2 1740.95   6
  -5   2   7 89131.8 1884.85  15
  -5   2   6 5657.01 475.044  15
  -5   2   6 6701.98 725.649  14
  -5   2   5 8556.79 730.801  19
   5  -2  -5 9549.33 665.973  17
  -5   2   4 17920.6 985.649  19
   5  -2  -4 19100.5 917.207  17
  -5   2   3 24277.1 1075.57  19
   5  -2  -3 23662.8 1013.10  17
  -5   2   2 353.097 200.489  19
   5  -2  -2 1291.28 265.836  17
   5  -2  -1 35312.9 1208.04  17
   5  -2   0 9337.37 633.036  17
   5  -2   1 23952.2 988.148  17
   5  -2   2 7699.23 571.823  17
   5  -2   3 4925.94 476.209  17
   5  -2   4 2751.39 384.305  18
   5  -2   4 2688.62 342.220  17
   5  -2   5 9383.73 678.196  18
   5  -2   5 9518.68 635.402  17
   5  -2   6 5913.59 568.089  18
   5  -2   7 5062.38 429.655   1
   5  -2   7 6435.55 624.064  13
   5  -2   8 9567.63 535.830   9
   5  -2   9-55.1593 97.2633   9
   5  -2   9 137.955 177.863  12
   5  -2  10 4577.75 414.024  12
   5  -2  11 2001.49 273.711  12
   5  -2  11 2088.79 263.346  10
   5  -2  12 2972.66 293.231  12
   5  -2  12 2258.70 264.933  10
   5  -2  13 1698.54 255.711   2
   5  -2  13 1584.25 208.631  12
   5  -2  13 1666.93 202.332  10
   5  -2  14 57.2380 123.608   2
  -5   1  13 759.581 153.078  15
  -5   1  12 2058.13 273.624  15
  -5   1  11 5417.49 458.848  15
  -5   1  10 2027.37 286.484   6
  -5   1  10 1795.40 305.395  15
  -5   1   9 3257.39 348.533   6
  -5   1   9 3302.07 385.555  15
  -5   1   8 9571.70 596.383   6
  -5   1   8 8768.59 641.544  15
  -5   1   7 25225.0 929.439   6
  -5   1   7 23378.2 991.847  15
  -5   1   6 1101.64 266.621  15
  -5   1   6 1674.97 311.822   4
  -5   1   6 1778.15 374.424  14
  -5   1   5 1178.03 309.460  14
  -5   1   4 3940.53 491.841  19
  -5   1   4 4424.46 511.944  14
   5  -1  -4 5165.93 482.667  17
   5  -1  -3 601.309 229.719  17
  -5   1   3 86.5802 226.044  19
  -5   1   2 10058.7 632.825  19
   5  -1  -2 10644.9 673.050  17
   5  -1  -1 8742.98 608.180  17
   5  -1   0 4904.30 463.064  17
   5  -1   1 9064.86 595.117  17
   5  -1   2 23695.2 953.737  17
   5  -1   3 18365.9 725.447  21
   5  -1   3 17224.8 812.884  17
   5  -1   4 1666.20 271.858  21
   5  -1   4 1356.25 245.389  17
   5  -1   5 10839.8 677.571  21
   5  -1   5 10952.7 703.178  18
   5  -1   5 10657.2 645.419  17
   5  -1   6 4365.00 443.825  18
   5  -1   7 8690.89 670.347  13
   5  -1   8 1255.85 279.363   1
   5  -1   8 1469.22 314.455  13
   5  -1   9 2281.40 305.149  12
   5  -1  10 1364.29 270.653  12
   5  -1  11 67.8310 143.482  12
   5  -1  12 4125.26 356.013  12
   5  -1  12 4214.15 362.064  10
   5  -1  13 998.573 229.143   2
   5  -1  13 974.635 185.880  12
   5  -1  13 1233.65 217.741  10
   5  -1  14 603.455 144.478  12
   5  -1  14 488.875 141.803  10
   5  -1  14 191.588 153.038   2
  -5   0  13 1727.57 177.453  15
  -5   0  12 132.275 150.675  15
  -5   0  11 434.024 208.224  15
  -5   0  11 241.383 128.003   7
  -5   0  10 879.449 227.598   6
  -5   0  10 783.533 235.506  15
  -5   0  10 495.932 147.786   7
  -5   0   9 8568.68 553.325   6
  -5   0   9 7796.17 599.384  15
  -5   0   9 8714.54 497.675   7
  -5   0   8 20775.2 858.429   6
  -5   0   8 19401.0 921.468  15
  -5   0   8 19144.0 732.592   7
  -5   0   7 1688.93 287.466   6
  -5   0   7 1155.20 239.459  15
  -5   0   6 435.771 199.113   6
  -5   0   6-64.4197 135.944  15
  -5   0   6-152.489 311.378  14
  -5   0   5 885.631 240.336  14
  -5   0   4 4581.54 548.669  14
   5   0  -4 5214.34 478.792  17
  -5   0   3 56.2581 148.534  14
   5   0  -3 29.2215 113.997  17
  -5   0   2 3839.93 445.238  14
   5   0  -2 3601.63 388.848  17
  -5   0   1 9210.67 589.429  14
   5   0  -1 9006.41 593.200  17
   5   0   0 890.853 232.165  17
   5   0   1 4071.02 408.858  17
   5   0   2 1450.91 222.821  21
   5   0   2 1069.84 243.868  17
   5   0   3 30745.4 936.697  21
   5   0   3 31144.6 1046.51  17
   5   0   4 6035.16 460.433  21
   5   0   4 6192.51 478.418  17
   5   0   5 26522.0 1007.95  21
   5   0   5 26451.5 952.712  17
   5   0   6 8264.90 605.008  21
   5   0   6 7884.60 578.342  18
   5   0   7 23409.0 1086.12  21
   5   0   8 39171.9 1490.82  13
   5   0   9 187.792 167.018  12
   5   0  10 8540.65 532.452  12
   5   0  11 2353.76 306.113  12
   5   0  12 38.7803 125.424  12
   5   0  13 3087.62 303.693  12
   5   0  13 2941.21 338.397   2
   5   0  13 3791.68 346.187  10
   5   0  14 1474.33 200.816  12
   5   0  14 1361.52 211.397  10
   5   0  14 1046.35 210.637   2
   5   0  15 389.799 101.725  12
   5   0  15 295.656 120.251   2
   5   0  15 369.673 123.397  10
  -5  -1  12 6669.87 388.212  15
  -5  -1  11 8700.70 526.692  15
  -5  -1  11 7728.04 392.473   7
  -5  -1  10 11896.7 679.246  15
  -5  -1  10 11549.1 540.910   7
  -5  -1   9 3687.98 380.294   6
  -5  -1   9 3122.28 390.404  15
  -5  -1   9 2886.10 320.564   7
  -5  -1   8 17570.1 798.193   6
  -5  -1   8 18459.1 900.054  15
  -5  -1   8 17824.3 738.710   7
  -5  -1   7 7515.63 534.040   6
  -5  -1   7 6829.24 574.179  15
  -5  -1   6 20.1935 134.388   6
  -5  -1   6 97.9931 209.107  14
  -5  -1   5 815.941 251.119  14
  -5  -1   4 9351.02 763.832  14
   5   1  -4 9302.95 628.793  17
  -5  -1   3 8057.03 664.078  14
   5   1  -3 8107.15 600.485  17
  -5  -1   2 16096.2 851.923  14
   5   1  -2 15287.5 786.798  17
  -5  -1   1 257.362 107.217  14
   5   1  -1 22.5077 138.540  17
  -5  -1   0 37354.4 1067.10  14
   5   1   0 37707.7 1182.90  17
   5   1   1 2240.73 325.636  17
   5   1   2 56059.8 1394.33  17
   5   1   3 359.355 171.190  21
   5   1   3 139.109 185.621  17
   5   1   4 38986.4 1129.86  21
   5   1   4 39558.4 1148.18  17
   5   1   5 115038. 1945.00  17
   5   1   5 115435. 2077.93  21
   5   1   6 23692.9 1010.94  21
   5   1   6 24219.4 913.056  18
   5   1   6 23705.2 876.670  17
   5   1   7 16413.7 896.554  21
   5   1   8 24029.4 1121.04  13
   5   1   8 23213.6 1119.26  21
   5   1   9 3897.36 496.373  13
   5   1   9 2999.85 330.934  12
   5   1  10 331.532 180.965  12
   5   1  11 3115.98 359.379  12
   5   1  12 11417.5 618.700  12
   5   1  13 46.5109 133.956   2
   5   1  13 100.173 155.273  12
   5   1  14 6167.37 405.238  12
   5   1  14 5921.64 416.747   2
   5   1  14 5802.88 409.748  10
   5   1  15 114.292 112.321  12
   5   1  15 121.902 140.246  10
   5   1  16 1427.12 164.629  10
  -5  -2  12 1045.13 165.078  15
  -5  -2  11 164.592 132.967  15
  -5  -2  10 1732.46 307.826  15
  -5  -2  10 1522.90 245.073   7
  -5  -2   9 1894.80 280.985   7
  -5  -2   9 1917.94 302.232   6
  -5  -2   9 1975.55 325.543  15
  -5  -2   8 482.852 175.578   7
  -5  -2   8 418.072 208.734   6
  -5  -2   8 635.016 225.070  15
  -5  -2   7 14129.7 725.346   6
  -5  -2   7 12398.9 738.598  15
  -5  -2   6 5416.12 462.708   6
  -5  -2   6 5633.47 502.752  15
  -5  -2   5 50717.3 1289.45   6
  -5  -2   5 51202.4 1359.44  15
  -5  -2   5 47682.2 1833.87  14
  -5  -2   4 26542.3 1291.44  14
   5   2  -4 26487.5 1042.58  17
  -5  -2   3 20066.4 1042.31  14
   5   2  -3 20956.6 934.827  17
  -5  -2   2 97566.7 2100.52  14
   5   2  -2 97488.4 1968.09  17
  -5  -2   1 13166.5 711.005  14
   5   2  -1 13517.6 740.965  17
  -5  -2   0 21937.4 821.926  14
   5   2   0 20196.8 884.515  17
   5   2   1 22164.2 914.997  17
   5   2   2 2993.82 347.088  17
   5   2   3 39298.7 1176.32  17
   5   2   4 2229.74 310.313  17
   5   2   5 1329.06 240.128  17
   5   2   5 1057.01 231.021  21
   5   2   6 656.098 187.796  21
   5   2   6 1047.29 222.465  17
   5   2   7 65711.1 1745.27  21
   5   2   8 7360.54 638.248  21
   5   2   9 9129.11 712.434  13
   5   2   9 9661.92 550.306  12
   5   2   9 8483.54 709.890  21
   5   2  10 10037.4 573.202  12
   5   2  10 10430.9 848.760  21
   5   2  11 28989.0 976.693  12
   5   2  12 2081.25 298.893  12
   5   2  13 801.213 218.269  12
   5   2  14 1958.88 276.220  12
   5   2  14 1672.18 253.081  10
   5   2  15 4155.54 320.952  12
   5   2  15 4141.11 332.762  10
   5   2  16 1810.13 197.985  10
  -5  -3  12 385.754 105.783  15
  -5  -3  11-179.098 172.575  15
  -5  -3  10 8120.86 518.097  15
  -5  -3  10 8587.51 462.196   7
  -5  -3   9 982.257 238.881   7
  -5  -3   9 926.398 255.777  15
  -5  -3   8 175.740 166.403   7
  -5  -3   8-101.117 195.756   6
  -5  -3   8-1.33688 192.437  15
  -5  -3   7 3652.79 421.200   6
  -5  -3   7 3661.83 439.049  15
  -5  -3   7 3583.08 377.907   7
  -5  -3   6 8993.91 573.414   6
  -5  -3   6 9326.65 611.011  15
  -5  -3   6 9888.64 613.115   2
  -5  -3   5 1459.51 247.761   6
  -5  -3   5 993.300 238.269  15
  -5  -3   5 1726.69 483.952  14
  -5  -3   5 1213.93 231.024   2
  -5  -3   4 8767.28 740.179  14
  -5  -3   3 1987.49 378.593  14
   5   3  -3 1849.72 301.471  17
  -5  -3   2-182.222 179.339  14
   5   3  -2-1.40708 139.136  17
  -5  -3   1 9123.93 624.210  14
   5   3  -1 9004.04 625.021  17
  -5  -3   0 49234.9 1281.82  14
   5   3   0 50189.3 1407.11  17
   5   3   1 10667.8 652.866  17
   5   3   2 141925. 2293.94  17
   5   3   3 173.485 166.540  17
   5   3   4 15842.9 756.598  17
   5   3   5 488.998 181.312  17
   5   3   6 8736.59 620.902  21
   5   3   6 7316.71 503.350  17
   5   3   7 15.4645 103.495  21
   5   3   8 12421.7 840.266  21
   5   3   9 3213.86 394.564  13
   5   3   9 3153.04 456.660  21
   5   3  10 381.246 171.102  12
   5   3  10 301.451 174.933  21
   5   3  11 4424.46 393.208  12
   5   3  12 14648.3 701.351  12
   5   3  13 88.0288 167.459  12
   5   3  14 4917.27 395.968  12
   5   3  15 8386.88 452.630  12
   5   3  15 8743.77 473.421  10
   5   3  16 595.550 160.716  10
   5   3  17 442.733 102.335  10
  -5  -4  11 392.641 130.021  15
  -5  -4  10 31.6478 152.709  15
  -5  -4  10 81.5133 112.063   7
  -5  -4   9 131.456 203.544  15
  -5  -4   9 435.791 204.703   7
  -5  -4   8 195.110 185.026   7
  -5  -4   8 116.467 187.333  15
  -5  -4   7 2312.04 337.383   6
  -5  -4   7 2079.03 332.410  15
  -5  -4   7 2739.36 340.046   7
  -5  -4   6 439.579 198.641   6
  -5  -4   6 352.220 222.124  15
  -5  -4   5 1702.44 293.608   6
  -5  -4   5 1836.78 287.328  15
  -5  -4   5 1711.84 275.949   2
  -5  -4   4 31927.4 1001.90   6
  -5  -4   4 35983.2 1134.62  15
  -5  -4   4 32477.7 1492.98  14
  -5  -4   3 7136.89 640.074  14
   5   4  -3 7300.85 582.165  17
  -5  -4   2 20957.5 1041.38  14
   5   4  -2 22601.7 1013.06  17
  -5  -4   1 16306.6 850.694  14
   5   4  -1 16811.5 874.663  17
  -5  -4   0 11384.6 644.901  14
   5   4   0 11119.2 705.378  17
  -5  -4  -1 15697.6 680.698  14
   5   4   1 16263.9 830.626  17
   5   4   2 9557.26 635.642  17
   5   4   3 16542.7 814.381  17
   5   4   4 690.734 227.922  17
   5   4   5 114.345 168.206  17
   5   4   6 104.287 100.470  17
   5   4   7 7055.58 610.698  21
   5   4   8 4522.49 471.811  21
   5   4   9 5720.27 540.950  13
   5   4   9 4410.50 515.502  21
  -5  -4 -10 1478.39 256.474   4
   5   4  10 1888.34 316.897  13
   5   4  10 2233.97 280.122  12
   5   4  11 19694.1 792.254  12
   5   4  11 19922.2 793.150  11
   5   4  12 30715.1 1007.53  12
   5   4  12 29913.6 981.080  11
   5   4  13 330.187 197.617  12
   5   4  13 282.836 155.644  11
   5   4  14 5485.64 431.362  12
   5   4  14 5857.39 426.635  11
   5   4  15 486.912 185.854  12
   5   4  15 106.519 151.260  11
   5   4  15 343.557 177.579  10
   5   4  16 718.537 170.526  10
   5   4  17-62.0076 81.9496  10
  -5  -5  11 137.594 88.2047  15
  -5  -5  10 6532.71 394.180  15
  -5  -5   9 1685.18 277.153  15
  -5  -5   9 1531.08 251.724   7
  -5  -5   8 4496.21 426.727  15
  -5  -5   8 4883.41 401.393   7
  -5  -5   7 7771.01 575.173  15
  -5  -5   7 7504.81 509.273   7
  -5  -5   6 382.951 190.713   7
  -5  -5   6 118.406 143.537   6
  -5  -5   6 147.605 199.027  15
  -5  -5   6 368.093 167.447   2
  -5  -5   5 52.3501 131.109   6
  -5  -5   5 83.5642 155.005  15
  -5  -5   5 303.882 182.448   2
  -5  -5   4 6158.04 458.004   6
  -5  -5   4 6958.15 536.369  15
  -5  -5   4 6928.66 741.670  14
  -5  -5   3 666.914 281.432  14
   5   5  -3 226.659 108.845  17
  -5  -5   2 336.608 163.314  14
   5   5  -2 91.1122 173.868  17
  -5  -5   1 7713.79 613.039  14
   5   5  -1 7271.30 605.729  17
  -5  -5   0 22004.1 945.544  14
   5   5   0 22502.1 1040.50  17
  -5  -5  -1 1969.91 274.243  14
   5   5   1 1812.24 322.198  17
   5   5   2 22433.0 1011.17  17
   5   5   3 388.340 222.016  17
   5   5   4 65215.1 1658.41  17
   5   5   5 28352.3 1087.81  17
   5   5   6 12434.6 680.162  20
   5   5   6 11320.5 670.167  17
   5   5   7 579.356 170.945  17
   5   5   8 5527.63 564.740  21
   5   5   9 216.766 128.142  13
   5   5   9-399.662 287.714  21
   5   5  10 23337.7 1087.98  13
   5   5  10 25199.1 857.193  12
  -5  -5 -10 24577.1 883.986   4
   5   5  10 25814.7 1272.50  21
   5   5  11 452.763 165.062  12
   5   5  11 828.866 205.647  11
  -5  -5 -11 596.292 207.681   4
   5   5  12 70254.2 1504.08  12
   5   5  12 69216.2 1516.01  11
  -5  -5 -12 69992.8 1485.53   4
   5   5  13 20546.4 826.492  12
   5   5  13 20424.8 825.854  11
   5   5  14 493.003 202.365  12
   5   5  14 341.075 175.294  11
   5   5  15 177.583 170.339  12
   5   5  15 309.969 163.290  11
   5   5  15 269.043 170.027  10
   5   5  16 224.072 114.604  11
   5   5  16-217.855 133.440  10
   5   5  17 314.344 102.847  10
  -5  -6  10 1844.02 200.814  15
  -5  -6   9 113.646 154.734  15
  -5  -6   9 180.289 157.100   7
  -5  -6   8-73.9660 188.220  15
  -5  -6   8 77.4918 134.500   3
  -5  -6   8 83.6010 159.615   7
  -5  -6   7 1031.18 232.533   7
  -5  -6   7 1216.77 268.247  15
  -5  -6   7 1210.40 218.729   3
  -5  -6   6 3.16289 153.828   7
  -5  -6   6-259.621 237.229  15
  -5  -6   5 335.676 200.023  15
  -5  -6   4 7700.92 513.118   6
  -5  -6   4 7290.36 564.634  15
  -5  -6   4 8402.46 501.621  16
  -5  -6   3 304.628 109.134  16
  -5  -6   3 414.041 145.579   6
  -5  -6   3 205.750 197.531  15
  -5  -6   3 304.906 187.553  14
  -5  -6   2 232.617 137.713  14
   5   6  -2 285.413 210.929  17
  -5  -6   1 633.854 229.905  14
   5   6  -1 530.985 232.638  17
   5   6   0 8011.18 652.585  17
   5   6   1 46434.0 1549.26  17
   5   6   2 2313.22 345.666  17
   5   6   3 910.477 273.966  17
   5   6   4 10575.4 725.605  17
   5   6   5 263.641 153.738  17
   5   6   6 1698.32 306.893  17
   5   6   6 1834.62 301.952  20
   5   6   7 532.061 201.247  20
   5   6   7 423.897 169.798  17
   5   6   8 4439.37 496.726  20
   5   6   9 42189.5 1557.93  21
   5   6  10 4195.09 374.086  12
  -5  -6 -10 3801.01 372.910   4
   5   6  10 3451.86 505.289  21
   5   6  11 53566.7 1282.15  12
  -5  -6 -11 54058.5 1354.84   4
   5   6  12-13.8281 142.150  12
   5   6  12 16.7411 180.062  11
  -5  -6 -12 406.409 151.808   4
   5   6  13 7966.11 527.074  12
   5   6  13 7258.39 517.548  11
   5   6  14-1.99353 146.381  12
   5   6  14 170.792 151.098  11
   5   6  15 1245.93 230.430  12
   5   6  15 2025.58 260.125  11
   5   6  15 1514.25 231.815  10
   5   6  16-36.4071 118.092  11
   5   6  16-212.747 133.755  10
   5   6  17 984.179 132.172  11
   5   6  17 1182.95 151.175  10
  -5  -7   9 154.713 127.057  15
  -5  -7   8 10.0014 146.302  15
  -5  -7   8-25.4541 118.924   3
  -5  -7   8 196.679 141.006   7
  -5  -7   7 275.952 194.999   7
  -5  -7   7 140.661 217.272  15
  -5  -7   7 173.175 145.748   3
  -5  -7   6 608.962 179.607   7
  -5  -7   6 512.506 222.867  15
  -5  -7   6 696.492 193.666   3
  -5  -7   5 5579.15 494.797  15
  -5  -7   5 5709.04 441.904   7
  -5  -7   4-578.755 190.939  16
  -5  -7   4-170.074 215.975  15
  -5  -7   3 855.103 196.471  16
  -5  -7   3 1339.53 257.429   6
  -5  -7   3 685.544 251.953  15
  -5  -7   2-192.016 163.633  16
   5   7  -2-537.688 202.858  17
  -5  -7   1 166.636 134.708  16
  -5  -7   1 15.1935 176.250  15
   5   7  -1 368.339 190.053  17
   5   7   0-206.136 166.148  17
   5   7   1 41715.4 1546.71  17
   5   7   2 12790.3 851.749  17
   5   7   3 627.446 266.736  17
   5   7   4 190.151 119.719  17
   5   7   5 315.393 222.189  17
   5   7   6 9666.10 650.230  20
   5   7   6 9341.94 717.458  17
   5   7   7 9652.21 694.329  20
   5   7   7 10059.0 703.785  17
   5   7   8 1801.41 355.823  20
   5   7   9 375.798 145.252  21
   5   7   9 457.721 239.058  20
  -5  -7  -9 439.172 180.964   4
   5   7  10 1358.79 229.793  12
   5   7  10 1481.41 245.717   5
   5   7  10 1281.44 321.716  21
  -5  -7 -10 1351.17 271.934   4
   5   7  11 2934.03 320.422  12
  -5  -7 -11 2733.35 339.235   4
   5   7  12 131.564 159.168  12
  -5  -7 -12 118.680 161.274   4
   5   7  13 74.1254 142.898  12
   5   7  13 86.3840 167.202  11
   5   7  14 216.018 168.765  12
   5   7  14 259.775 176.276  11
   5   7  15 98.1900 126.947  11
   5   7  15-4.33965 134.273  10
   5   7  16 3387.90 303.022  11
   5   7  16 3052.55 248.653  10
   5   7  17 5120.57 297.439  11
  -5  -8   7 344.382 195.178  15
  -5  -8   7 378.080 156.943   3
  -5  -8   7 194.804 144.565   7
  -5  -8   6 3478.57 373.857  15
  -5  -8   6 3451.27 330.859   3
  -5  -8   6 4446.23 368.209   7
  -5  -8   5 1579.11 255.755   7
  -5  -8   5 1959.14 254.376  16
  -5  -8   5 1681.15 293.203  15
  -5  -8   5 1407.49 255.211   3
  -5  -8   4 6959.18 533.231  15
  -5  -8   4 6921.72 489.347   3
  -5  -8   4 7494.01 485.223  16
  -5  -8   4 7315.38 488.500   7
  -5  -8   3 11141.6 679.763  15
  -5  -8   3 11115.5 604.080  16
  -5  -8   2 1961.08 288.944  16
  -5  -8   2 1569.80 279.432  15
  -5  -8   1 24929.6 946.659  15
   5   8  -1 22991.4 1247.94  17
  -5  -8   1 24143.3 867.553  16
  -5  -8   0 1356.98 243.025  16
  -5  -8   0 1433.09 251.317  15
   5   8   0 842.740 277.905  17
   5   8   1 4411.78 521.831  17
   5   8   2 7652.47 712.780  17
   5   8   3 12606.9 907.926  17
   5   8   4 626.742 197.603  17
   5   8   5 13784.5 913.284  17
   5   8   6 370.421 178.349  20
   5   8   6 582.683 224.129  17
   5   8   7 769.710 199.398  20
   5   8   7 1341.86 335.349  17
   5   8   8-162.735 126.711  20
  -5  -8  -8 33.7841 162.834   4
   5   8   9 8575.57 520.041   5
  -5  -8  -9 10114.0 593.846   4
   5   8   9 10327.1 824.670  20
   5   8  10 7717.65 495.262   5
   5   8  10 7185.49 462.595  12
  -5  -8 -10 7006.78 535.312   4
   5   8  11 17974.7 739.874   5
   5   8  11 17415.1 733.144  12
  -5  -8 -11 18101.2 839.546   4
   5   8  12 37523.5 1087.00  12
  -5  -8 -12 37924.6 1189.11   4
   5   8  13 605.803 206.324  12
   5   8  13 925.734 231.311  11
   5   8  14 1057.94 248.575  11
   5   8  15 1631.05 254.494  11
   5   8  15 1831.61 219.166  10
   5   8  16 1545.97 220.597  11
   5   8  17 5874.58 319.866  11
  -5  -9   7 613.730 132.367   3
  -5  -9   6 4817.17 343.340   3
  -5  -9   6 4583.32 319.867   7
  -5  -9   5 263.868 142.143  16
  -5  -9   5 316.394 223.267  15
  -5  -9   5 570.292 185.452   3
  -5  -9   5 524.808 172.338   7
  -5  -9   4 23969.5 918.102  15
  -5  -9   4 21341.5 807.105   3
  -5  -9   4 22561.4 806.174  16
  -5  -9   4 21804.5 760.489   7
  -5  -9   3 917.696 186.301   7
  -5  -9   3 1429.87 248.261  16
  -5  -9   3 1171.84 288.450  15
  -5  -9   2 38760.9 1201.49  15
  -5  -9   2 38658.0 1120.40  16
  -5  -9   2 38462.4 1025.84   7
  -5  -9   1 9955.23 610.277  15
  -5  -9   1 9346.64 569.040  16
  -5  -9   0 2519.16 327.973  15
  -5  -9   0 2962.33 331.872  16
   5   9   1 7843.36 744.655  17
  -5  -9  -1 8080.74 512.306  16
   5   9   2 17903.4 1135.60  17
  -5  -9  -2 19091.9 756.381  16
   5   9   3 2398.91 461.959  17
  -5  -9  -3 2647.28 293.773  16
   5   9   4 27629.5 1377.52  17
   5   9   5 110.923 205.599  17
  -5  -9  -6 12736.1 632.098   4
   5   9   6 13396.7 934.721  17
  -5  -9  -7 3594.12 362.283   4
   5   9   7 2775.99 418.975  20
   5   9   7 2237.16 402.715  17
  -5  -9  -8 1063.16 236.643   4
   5   9   8 1174.47 306.791  20
   5   9   9 28228.7 955.839   5
  -5  -9  -9 28323.3 1005.71   4
   5   9   9 28126.5 1370.77  20
   5   9  10 2327.73 294.363   5
  -5  -9 -10 2502.89 360.467   4
   5   9  11 19359.5 784.556   5
  -5  -9 -11 18003.7 848.558   4
   5   9  12 5913.96 429.445   5
  -5  -9 -12 5416.67 471.329   4
   5   9  13 14767.2 720.715  11
   5   9  14 3351.80 366.626  11
   5   9  15 8279.95 488.136  11
   5   9  16 381.672 157.417  11
   5   9  17 384.245 118.291  11
  -5 -10   6 265.249 118.416   3
  -5 -10   5 310.734 136.987  16
  -5 -10   5 174.921 134.314   3
  -5 -10   5 398.310 127.561   7
  -5 -10   4 1719.15 247.572  16
  -5 -10   4 2228.42 272.331   3
  -5 -10   3 123.895 134.824  16
  -5 -10   2 1553.90 260.702  16
  -5 -10   1 1686.95 275.610  16
  -5 -10   0 5297.92 457.267  16
  -5 -10  -1 1687.36 282.651  16
  -5 -10  -2 2672.18 315.082  16
  -5 -10  -3 9235.65 547.356  16
   5  10   4 8826.28 829.672  17
  -5 -10  -4 9620.06 542.362  16
  -5 -10  -5 352.788 145.150  16
   5  10   5 679.709 236.239  17
  -5 -10  -6 7834.36 493.558   4
   5  10   6 7136.86 736.578  17
  -5 -10  -7 5012.99 425.352   4
   5  10   7 4837.63 586.024  17
   5  10   8 23017.3 877.375   5
  -5 -10  -8 22297.0 882.622   4
   5  10   9 3237.58 350.465   5
  -5 -10  -9 4034.70 424.840   4
   5  10  10 19434.5 810.266   5
  -5 -10 -10 19788.5 872.003   4
   5  10  11 165.677 142.875   5
  -5 -10 -11 290.929 190.823   4
   5  10  12 4725.33 398.093   5
   5  10  13 911.958 208.368   5
   5  10  13 938.823 223.348  11
   5  10  14 109.587 179.439  11
   5  10  15 6107.25 415.305  11
   5  10  16 742.958 166.131  11
   5  10  17 1505.45 167.204  11
  -5 -11   5 915.640 148.258   3
  -5 -11   4 1246.27 203.411  16
  -5 -11   4 1225.47 215.199   3
  -5 -11   3 9784.69 522.184   3
  -5 -11   3 9684.59 513.149  16
  -5 -11   2 995.356 227.932  16
  -5 -11   1 954.094 237.035  16
  -5 -11   0 21346.2 845.020  16
  -5 -11  -1 6308.13 488.791  16
  -5 -11  -2 32239.0 1034.55  16
  -5 -11  -3 2540.33 306.217  16
  -5 -11  -4 42821.0 1156.71  16
   5  11   5 17751.1 757.065   5
  -5 -11  -5 19019.4 758.192  16
   5  11   6 7570.22 519.744   5
  -5 -11  -6 7870.29 481.163  16
   5  11   7 22941.8 879.321   5
  -5 -11  -7 19942.5 819.835   4
   5  11   8 9370.84 581.509   5
  -5 -11  -8 8655.85 563.407   4
   5  11   9 1033.77 239.032   5
  -5 -11  -9 1371.65 269.151   4
   5  11  10 4868.32 420.028   5
  -5 -11 -10 5147.90 473.159   4
   5  11  11-119.324 125.267   5
   5  11  12 1297.93 229.847   5
   5  11  13 3326.13 333.652   5
   5  11  13 2877.17 329.615  11
   5  11  14 5362.77 356.541   5
   5  11  14 5993.60 414.593  11
   5  11  15 355.063 161.083  11
   5  11  16 463.866 134.825  11
  -5 -12   4 308.788 106.299  16
  -5 -12   4 358.286 103.200   3
  -5 -12   3 22925.1 674.711   3
  -5 -12   3 24338.8 692.826  16
  -5 -12   2 4107.94 349.672  16
  -5 -12   1 431.376 184.031  16
  -5 -12   0-46.0030 170.994  16
  -5 -12  -1 8354.03 528.523  16
  -5 -12  -2-2.07742 168.900  16
  -5 -12  -3-143.236 228.865  16
  -5 -12  -4 833.000 212.610  16
   5  12   4 644.367 189.529   5
   5  12   5 15110.7 685.426   5
  -5 -12  -5 14577.4 664.122  16
   5  12   6 6854.82 483.816   5
  -5 -12  -6 5978.89 410.267  16
   5  12   7 187.231 171.940   5
   5  12   8 1327.51 250.464   5
   5  12   9 8364.49 547.690   5
   5  12  10 8982.36 556.480   5
   5  12  11 643.954 208.163   5
   5  12  12 6126.39 435.180   5
   5  12  13 232.867 169.855   5
   5  12  13-92.8793 161.842  11
   5  12  14 447.180 154.738   5
   5  12  14 454.407 152.022  11
   5  12  15 1173.54 159.415   5
   5  12  15 1579.70 217.247  11
   5  12  16 9202.53 370.812  11
  -5 -13   3 2894.27 214.624  16
  -5 -13   2 471.438 154.659  16
  -5 -13   2 93.0090 103.942   3
  -5 -13   1 7159.42 411.917  16
  -5 -13   0 672.554 184.426  16
  -5 -13  -1 169.883 168.536  16
  -5 -13  -2 2696.81 324.254  16
  -5 -13  -3 107.199 152.364  16
  -5 -13  -4 546.397 173.136  16
  -5 -13  -4 703.351 173.885   1
   5  13   5 7954.03 481.546   5
  -5 -13  -5 7268.89 467.581  16
   5  13   6 2126.34 285.806   5
  -5 -13  -6 2308.19 270.662  16
   5  13   7 4810.93 406.712   5
   5  13   8 211.130 155.196   5
   5  13   9 13718.4 661.968   5
   5  13  10-174.609 155.461   5
   5  13  11 2314.87 296.012   5
   5  13  12 874.844 202.159   5
   5  13  13 781.825 178.984   5
   5  13  13 665.535 175.141  11
   5  13  14 605.474 144.538   5
   5  13  14 592.665 166.936  11
   5  13  15-75.9288 59.7193   5
   5  13  15-33.9288 94.4417  11
  -5 -14   1 2731.00 228.807  16
  -5 -14   0 107.158 128.095  16
  -5 -14  -1 1096.60 191.861  16
  -5 -14  -2 4228.27 347.808  16
  -5 -14  -3 16815.5 648.818  16
  -5 -14  -4 18257.8 676.445   1
  -5 -14  -4 18375.7 671.053  16
  -5 -14  -5 4387.24 363.800   1
  -5 -14  -5 4292.72 338.177  16
   5  14   6 12228.6 554.268   5
  -5 -14  -6 11812.2 592.474   1
   5  14   7 2057.01 261.922   5
  -5 -14  -7 2173.21 291.349   1
   5  14   8 8057.20 483.905   5
   5  14   9 173.380 155.064   5
   5  14  10 2719.43 298.759   5
   5  14  11 1613.85 253.686   5
  -5 -14 -11 1512.70 243.926   1
  -5 -14 -12-159.595 127.240   1
   5  14  12-206.619 146.764   5
   5  14  12-144.392 118.340  11
  -5 -14 -13 2106.74 223.239   1
   5  14  13 1763.35 213.311   5
   5  14  13 1627.15 205.409  11
   5  14  14 476.678 123.900   5
   5  14  14 309.650 105.783  11
  -5 -15   0 183.257 85.9026  16
  -5 -15  -1 1725.26 186.629  16
  -5 -15  -2-90.9524 118.521  16
  -5 -15  -3 561.363 164.234  16
  -5 -15  -4 11800.1 468.461  16
  -5 -15  -5 35688.0 856.937   1
  -5 -15  -5 34572.4 772.429  16
  -5 -15  -6 4964.09 357.260   1
   5  15   7 683.363 145.036   5
  -5 -15  -7 827.228 182.809   1
   5  15   8 6100.19 367.719   5
  -5 -15  -8 6122.84 398.605   1
   5  15   9 2073.57 246.096   5
  -5 -15  -9 1955.28 256.484   1
  -5 -15 -10-15.2192 124.347   1
   5  15  10 222.953 142.554   5
   5  15  11 280.557 143.564   5
   5  15  11 149.029 85.3224  11
  -5 -15 -11 153.122 132.344   1
   5  15  12 144.196 115.879   5
  -5 -15 -12 13.1510 101.530   1
   5  15  12-87.2640 90.6023  11
   5  15  13 2814.13 221.574   5
  -5 -15 -13 2881.67 212.371   1
  -5 -16  -6 28162.5 645.346   1
  -5 -16  -7 7449.90 368.927   1
   5  16   8 145.508 91.5962   5
  -5 -16  -8 79.3892 113.396   1
   5  16   9 356.947 110.548   5
  -5 -16  -9 133.597 106.127   1
   5  16  10 1521.15 166.748   5
  -5 -16 -10 1427.72 166.341   1
   5  16  11 1390.21 157.555   5
  -5 -16 -11 1145.02 156.723   1
   6 -11  -4 549.146 142.822   1
   6 -11  -3 405.658 142.574   1
   6 -11  -2 119.095 113.400   1
   6 -11  -1-72.8205 134.398   1
   6 -11   0 87.5129 119.214   1
   6 -11   0 51.9627 92.1291   9
   6 -11   1 861.571 152.125   1
   6 -11   1 543.767 113.182   9
  -6  10   8-15.0692 100.715   4
  -6  10   7 641.486 144.344   4
  -6  10   6 471.642 133.335   4
  -6  10   5 297.364 128.955   4
   6 -10  -4 429.332 173.117   1
   6 -10  -3 24.2483 120.331   1
   6 -10  -2 2547.50 300.647   1
   6 -10  -1 733.419 215.805   1
   6 -10   0 1753.10 256.239   1
   6 -10   1 1301.21 232.903   1
   6 -10   2 2155.44 258.073   1
   6 -10   2 2251.44 223.375   9
   6 -10   3 197.668 118.362   1
   6 -10   3 135.207 118.939   9
   6 -10   4 134.277 86.3248   9
  -6   9   9 6208.06 343.610   4
  -6   9   8 120.649 135.183   4
  -6   9   7 422.967 161.420   4
  -6   9   6 1257.76 232.227   4
  -6   9   5 345.872 176.894   4
  -6   9   4 254.395 144.924   4
   6  -9  -4 364.129 175.331   1
   6  -9  -3 835.401 226.267   1
   6  -9  -2 3702.30 395.133   1
   6  -9  -1 38.7541 202.107   1
   6  -9   0 41.4132 182.515   1
   6  -9   1 211.780 181.035   1
   6  -9   2 705.659 217.668   1
   6  -9   3-234.435 175.384   1
   6  -9   3-34.3907 130.758   9
   6  -9   4 3.98640 121.045   1
   6  -9   4 24.6164 113.988   9
   6  -9   5 1619.32 208.173   1
   6  -9   5 1336.99 188.453   9
   6  -9   6 1675.98 171.399   9
  -6   8  10-158.916 105.923   4
  -6   8   9 765.410 182.840   4
  -6   8   8 5719.17 416.627   4
  -6   8   7 1753.72 276.750   4
  -6   8   6 1922.88 294.552   4
  -6   8   5 743.964 238.503   4
   6  -8  -4 11026.4 606.004   1
  -6   8   4 12171.5 650.046   4
  -6   8   3-532.427 200.065   4
   6  -8  -3 254.832 176.363   1
  -6   8   2 172.497 96.7425   4
   6  -8  -2-111.242 171.799   1
   6  -8  -1 228.976 169.541   1
   6  -8   0 1332.39 304.588   1
   6  -8   1 641.766 247.368   1
   6  -8   2 3903.09 435.681   1
   6  -8   3 4679.41 439.854   1
   6  -8   4 1384.04 264.184   1
   6  -8   5 9.83876 165.278   1
   6  -8   5 131.888 157.948   9
   6  -8   6 2640.71 254.624   1
   6  -8   6 2614.50 259.578   9
   6  -8   7-64.4517 78.5960  12
   6  -8   7-32.8778 100.462   9
  -6   7  10 13309.9 529.315   4
  -6   7   9 9879.07 518.212   4
  -6   7   8 161.078 186.296   4
  -6   7   7 539.357 230.283   4
  -6   7   6 1723.66 305.066   4
  -6   7   5 3896.75 421.143   4
  -6   7   4-192.507 154.837   4
   6  -7  -3 8335.73 569.099   1
  -6   7   3 7952.63 559.721   4
   6  -7  -2 3202.86 385.907   1
  -6   7   2 3166.32 379.278   4
  -6   7   1 1538.62 259.881   4
   6  -7  -1 1148.22 257.587   1
   6  -7   0 2634.92 398.085   1
   6  -7   1 2217.60 357.666   1
   6  -7   2 32888.9 1182.25   1
   6  -7   3 14861.6 799.600   1
   6  -7   4 366.243 185.819   1
   6  -7   5 1661.53 290.397   1
   6  -7   6 1312.32 242.488   1
   6  -7   6 1599.14 262.848   9
   6  -7   7 318.725 157.103   1
   6  -7   7 104.973 124.919  12
   6  -7   7-54.0827 132.972   9
   6  -7   8 7482.68 346.000  12
   6  -7   8 7627.02 383.835   9
   6  -7   9 520.122 116.248   9
  -6   6  11 7283.79 329.811   4
  -6   6  10-81.5028 131.935   4
  -6   6   9 1592.90 253.099   4
  -6   6   8 82.8807 182.743   4
  -6   6   7 3161.16 373.376   4
  -6   6   6 469.416 215.680   4
  -6   6   5 1635.04 293.939   4
  -6   6   4 148.694 170.872   4
   6  -6  -3 5261.49 456.918   1
  -6   6   3 5735.55 513.066   4
   6  -6  -2 5838.78 524.830   1
  -6   6   2 6984.34 543.898   4
   6  -6  -1 13714.8 767.134   1
  -6   6   1 13545.1 719.117   4
   6  -6   0 7307.88 571.221   1
  -6   6   0 6149.53 458.447   4
   6  -6   1 35767.0 1248.20   1
   6  -6   2 1953.08 370.164   1
   6  -6   3 273.114 176.646   1
   6  -6   4 290.502 198.077   1
   6  -6   5 857.940 260.786   1
   6  -6   6 1422.08 249.158   1
   6  -6   6 1718.37 257.968   9
   6  -6   7 2842.36 329.781   1
   6  -6   7 2478.58 296.844   9
   6  -6   8 8652.44 457.755  12
   6  -6   8 8916.05 460.465   9
   6  -6   9 10292.8 422.599  12
   6  -6   9 10648.8 442.413   9
   6  -6  10 2020.12 170.255   9
  -6   5  11 1546.73 184.736  15
  -6   5  10 2218.64 259.964  15
  -6   5  10 2209.51 252.931   4
  -6   5   9 4070.19 359.970  15
  -6   5   9 3536.59 354.588   4
  -6   5   8 582.740 167.314   6
  -6   5   8 478.648 204.260   4
  -6   5   7-14.3738 183.645   4
  -6   5   6 918.349 254.893   4
  -6   5   5 2596.02 372.660   4
  -6   5   4 114.811 184.487   4
  -6   5   3 4197.80 452.598   4
  -6   5   2 77.0798 153.755   4
   6  -5  -2 675.517 223.980   1
  -6   5   1 39.2988 146.545   4
   6  -5  -1-56.9608 163.349   1
   6  -5   0 19515.3 905.537   1
  -6   5   0 19314.4 842.371   4
   6  -5   1 171.238 169.357   1
   6  -5   2 22027.8 977.757   1
   6  -5   3 1596.37 283.469   1
   6  -5   4-297.774 219.888   1
   6  -5   5 23468.6 989.597   1
   6  -5   6 1533.82 283.814   1
   6  -5   7 16961.3 776.312   1
   6  -5   7 15323.5 684.605   9
   6  -5   8 1874.11 287.999   1
   6  -5   8 1764.69 256.901   9
   6  -5   9 2854.29 284.042  12
   6  -5   9 3296.95 300.734   9
   6  -5  10-201.070 118.657  12
   6  -5  10 242.773 124.570   9
  -6   4  11 924.650 174.088  15
  -6   4  10 4639.40 366.538  15
  -6   4  10 4085.63 319.681   4
  -6   4   9 5484.52 373.519   6
  -6   4   9 5600.79 437.935   4
  -6   4   8 6165.42 427.073   6
  -6   4   8 6718.61 474.242  15
  -6   4   8 6621.55 507.658   4
  -6   4   7 3857.62 438.148   4
  -6   4   6 425.942 253.836   4
  -6   4   5 20445.8 948.177   4
  -6   4   4 18157.7 898.157   4
  -6   4   3 1063.47 289.126   4
   6  -4  -2 11763.9 666.413   1
  -6   4   2 12317.0 715.439   4
   6  -4  -1 17250.5 818.316   1
  -6   4   1 17638.3 836.671   4
   6  -4  -1 18410.3 1079.52  17
   6  -4   0 31623.9 1110.20   1
  -6   4   0 30076.9 1044.16   4
   6  -4   0 29118.1 1367.17  18
   6  -4   0 30356.9 1368.61  17
   6  -4   1 22509.0 952.773   1
  -6   4  -1 22252.7 883.763   4
   6  -4   1 23221.8 1220.59  18
   6  -4   2 2408.31 341.216   1
   6  -4   2 2841.52 450.708  18
   6  -4   3 9730.31 646.805   1
   6  -4   4 2521.09 379.282   1
   6  -4   5 3440.35 397.654   1
   6  -4   6 1163.66 254.883   1
   6  -4   7 9067.64 618.104   1
   6  -4   8 152.255 140.659   1
   6  -4   8 85.5511 171.413   9
   6  -4   9 11477.7 581.343  12
   6  -4   9 10926.2 530.020   9
   6  -4  10 1600.90 235.680  12
   6  -4  10 1687.13 214.881   9
   6  -4  11 750.483 152.636  12
   6  -4  12 64.5058 109.562   2
  -6   3  11 872.842 173.107  15
  -6   3  10 42.5583 104.266   6
  -6   3  10 129.839 175.147  15
  -6   3   9 2751.71 289.924   6
  -6   3   9 2716.45 328.952  15
  -6   3   9 2407.72 285.079   4
  -6   3   8 330.212 159.574   6
  -6   3   8 464.595 196.536   4
  -6   3   8 745.400 206.755  15
  -6   3   7 20891.0 823.586   6
  -6   3   7 21697.2 883.740  15
  -6   3   7 20141.6 917.232   4
  -6   3   6 15933.6 835.878   4
  -6   3   5 4512.18 470.806   4
  -6   3   4 51907.9 1462.17   4
  -6   3   3 1246.56 233.162   4
   6  -3  -3 839.874 216.558  17
  -6   3   2-99.8598 165.875   4
   6  -3  -2-238.156 211.594  17
  -6   3   1 318.647 138.450   4
   6  -3  -1 397.579 189.266  17
  -6   3   0 908.429 186.146   4
   6  -3   0 1392.38 377.004  17
   6  -3   1 967.313 220.787   1
   6  -3   1 1679.25 375.399  17
   6  -3   2 161.712 107.505   1
   6  -3   2 740.806 255.693  18
   6  -3   2 646.929 236.252  17
   6  -3   3 16915.4 828.522   1
   6  -3   3 17047.3 1046.51  18
   6  -3   3 18285.9 1017.00  17
   6  -3   4 65884.7 1619.29   1
   6  -3   4 64076.8 1987.43  18
   6  -3   5 14459.2 783.685   1
   6  -3   6 2339.63 365.591   1
   6  -3   7 9596.11 627.511   1
   6  -3   8 6661.92 508.963   1
   6  -3   8 7661.54 487.383   9
   6  -3   9 1574.81 265.291  12
   6  -3   9 1682.24 245.464   9
   6  -3  10 3116.26 325.003  12
   6  -3  10 3510.64 308.800   9
   6  -3  11 3319.80 302.021  12
   6  -3  12 1309.95 175.164  12
   6  -3  13 1263.96 165.003   2
  -6   2  12 338.068 105.309  15
  -6   2  11 134.039 142.408  15
  -6   2  10 1607.29 223.402   6
  -6   2  10 1139.61 240.024  15
  -6   2   9-169.190 153.564   6
  -6   2   9 80.8587 205.257  15
  -6   2   8 22.6878 138.282   6
  -6   2   8-67.6722 151.220   4
  -6   2   8-52.2015 185.654  15
  -6   2   7 414.386 196.390   6
  -6   2   7 813.220 230.010   4
  -6   2   7 496.200 203.629  15
  -6   2   6 721.139 222.897   4
  -6   2   5 14528.7 765.838   4
  -6   2   4 64.5146 183.224   4
   6  -2  -4 644.523 224.514  17
  -6   2   3 38739.7 1218.95   4
   6  -2  -3 37990.3 1437.35  17
  -6   2   2 461.663 173.248   4
   6  -2  -2 1297.96 300.459  17
   6  -2  -1 1325.88 270.422  17
   6  -2   0 154.547 155.648  17
   6  -2   1 1255.39 281.012  17
   6  -2   2 465.716 164.343  17
   6  -2   3 2715.82 419.614  18
   6  -2   3 3189.86 401.564  17
   6  -2   4 5621.44 478.006   1
   6  -2   4 6168.14 630.538  18
   6  -2   4 6396.84 593.409  17
   6  -2   5-240.123 185.410   1
   6  -2   5 516.732 280.177  18
   6  -2   6 7957.79 577.864   1
   6  -2   6 9979.49 765.036  18
   6  -2   7 306.008 198.290   1
   6  -2   8 22178.9 921.402   1
   6  -2   8 22827.7 795.197   9
   6  -2   9 7016.77 509.361   1
   6  -2   9 7014.49 504.032  12
   6  -2  10 638.729 222.184  12
   6  -2  11 1159.86 223.385  12
   6  -2  11 1007.31 205.030  10
   6  -2  12 146.889 128.174  12
   6  -2  12 127.011 91.0210  10
   6  -2  13 1439.75 209.589   2
   6  -2  13 1735.22 186.287  12
  -6   1  12 999.425 150.202  15
  -6   1  11 665.159 183.416  15
  -6   1  10 1687.39 235.507   6
  -6   1  10 1594.24 270.252  15
  -6   1   9 16630.3 699.334   6
  -6   1   9 17364.6 785.732  15
  -6   1   8 7967.94 531.902   6
  -6   1   8 8424.92 584.819  15
  -6   1   7 926.084 228.360   6
  -6   1   7 710.571 229.871   4
  -6   1   7 559.288 208.592  15
  -6   1   6 5217.02 472.790  15
  -6   1   6 5011.68 459.806   4
  -6   1   5 252.198 177.106   4
  -6   1   4-112.248 138.679   4
   6  -1  -4 322.456 174.824  17
  -6   1   3 918.878 241.604   4
   6  -1  -3 1434.45 305.901  17
   6  -1  -2 24062.9 1105.80  17
   6  -1  -1-105.612 84.1221  17
   6  -1   0 8203.15 637.307  17
   6  -1   1 4289.99 490.246  17
   6  -1   2 11595.3 755.537  17
   6  -1   3 3861.12 474.274  17
   6  -1   4 2615.54 375.940  17
   6  -1   5 20616.4 1042.01  18
   6  -1   5 21448.6 1015.90  17
   6  -1   6 968.181 223.418   1
   6  -1   6 1572.82 301.828  18
   6  -1   7 3481.77 399.901   1
   6  -1   8 7487.86 554.550   1
   6  -1   9 18882.8 824.879   1
   6  -1   9 18889.8 811.220  12
   6  -1  10 23940.6 891.888  12
   6  -1  11 4337.55 391.062  12
   6  -1  12 63.3894 138.253  12
   6  -1  12 135.789 127.143  10
   6  -1  13 38.6569 172.060   2
   6  -1  13 99.1537 122.801  12
   6  -1  13 218.296 116.506  10
   6  -1  14 1861.51 177.657  12
   6  -1  14 1741.86 193.580   2
   6  -1  14 1585.98 160.311  10
  -6   0  11 350.804 164.855  15
  -6   0  10 6041.89 444.615  15
  -6   0   9 6882.33 471.630   6
  -6   0   9 7548.19 543.978  15
  -6   0   9 7335.09 415.389   7
  -6   0   8 292.215 148.955   7
  -6   0   8 450.701 190.198   6
  -6   0   8 204.942 124.533  15
  -6   0   7 1389.75 273.313   6
  -6   0   7 1261.58 265.810  15
  -6   0   6 16557.5 777.675   6
  -6   0   6 16093.6 800.918  15
  -6   0   5 10514.9 627.048  15
  -6   0   5 10009.3 601.624   4
  -6   0   4 3662.91 496.149  14
  -6   0   4 3951.16 384.950   4
   6   0  -4 3895.11 432.937  17
  -6   0   3 4057.83 490.470  14
  -6   0   3 4166.39 417.780   4
   6   0  -3 5071.07 501.404  17
   6   0  -2 2578.92 374.481  17
   6   0  -1 3661.58 448.932  17
   6   0   0 1380.13 278.640  17
   6   0   1 2376.73 370.489  17
   6   0   2 1494.74 289.665  17
   6   0   3 24179.1 1053.21  17
   6   0   4 957.052 270.128  17
   6   0   5 1742.71 287.524  21
   6   0   5 2245.09 310.691  17
   6   0   6 4124.58 439.349  21
   6   0   6 4475.75 473.823  18
   6   0   7 5226.57 449.283   1
   6   0   8 1981.85 299.874   1
   6   0   9 179.927 191.582  12
   6   0   9 495.120 194.815   1
   6   0  10 5065.37 435.041  12
   6   0  11 24147.7 890.038  12
   6   0  12 45.2156 139.600  12
   6   0  13 723.999 187.125  12
   6   0  13 1008.12 203.925  10
   6   0  14 310.174 131.142  12
   6   0  14 129.249 101.731  10
   6   0  14 286.252 135.973   2
   6   0  15 560.219 100.855  10
  -6  -1  11 26.3910 106.985  15
  -6  -1  10 518.737 199.589  15
  -6  -1  10 674.785 145.347   7
  -6  -1   9 3630.78 357.696   6
  -6  -1   9 4296.70 411.707  15
  -6  -1   9 3472.85 303.345   7
  -6  -1   8 3130.04 366.689   6
  -6  -1   8 2536.70 352.135  15
  -6  -1   8 2928.72 310.804   7
  -6  -1   7-21.0281 191.974   6
  -6  -1   7 123.609 140.020  15
  -6  -1   6 6387.68 511.351   6
  -6  -1   6 6694.29 541.537  15
  -6  -1   5 1618.93 310.512  15
  -6  -1   4 713.707 207.977   4
  -6  -1   4 787.790 234.832  14
  -6  -1   3-452.793 263.525  14
   6   1  -3 255.788 120.499  17
   6   1  -2 3535.33 426.243  17
  -6  -1   2 3821.01 472.420  14
   6   1  -1 9370.71 669.661  17
   6   1   0 738.442 200.637  17
   6   1   1 2130.66 377.917  17
   6   1   2 310.813 183.703  17
   6   1   3 44053.3 1216.65  21
   6   1   3 42623.2 1381.88  17
   6   1   4 6476.55 509.118  21
   6   1   4 6058.13 533.189  17
   6   1   5 24272.9 1033.80  21
   6   1   5 23635.8 1018.36  17
   6   1   6 37062.2 1330.79  21
   6   1   7 566.513 176.384   1
   6   1   7 360.069 207.403  21
   6   1   8 4782.62 442.631   1
   6   1   8 4516.27 533.542  21
   6   1   9 3942.25 374.762  12
   6   1  10-48.5998 147.046  12
   6   1  11 7371.44 518.332  12
   6   1  12 4694.36 404.373  12
   6   1  13 738.201 205.862  12
   6   1  14 478.363 176.681  12
   6   1  14 296.094 133.215  10
   6   1  15 5450.52 300.935  12
   6   1  15 5753.17 313.404  10
  -6  -2  11-100.209 111.289  15
  -6  -2  10 15.8965 156.129  15
  -6  -2  10 117.599 108.129   7
  -6  -2   9-74.3204 127.566   7
  -6  -2   9 67.3763 188.919  15
  -6  -2   8-142.142 160.232   7
  -6  -2   8 91.4743 169.685   6
  -6  -2   8-137.739 161.121  15
  -6  -2   7 8081.88 560.532   6
  -6  -2   7 6966.44 549.770  15
  -6  -2   6 341.814 168.811   6
  -6  -2   6 214.935 181.652  15
  -6  -2   5 7504.20 534.840   6
  -6  -2   5 7174.11 537.096  15
  -6  -2   4 4174.25 409.452  15
  -6  -2   4 2946.22 502.573  14
  -6  -2   3 5818.94 628.785  14
   6   2  -3 5340.67 527.318  17
  -6  -2   2-249.256 165.238  14
   6   2  -2-253.479 156.862  17
   6   2  -1 326.583 127.140  17
   6   2   0 1462.89 277.611  17
   6   2   1 57.6140 133.939  17
   6   2   2 9445.80 666.602  17
   6   2   3 16033.7 853.293  17
   6   2   4 2965.61 355.362  21
   6   2   4 3543.39 411.427  17
   6   2   5 394.797 189.037  21
   6   2   5 246.583 184.996  17
   6   2   6 14988.6 848.048  21
   6   2   6 14670.3 794.604  17
   6   2   7 1010.57 297.750  21
   6   2   8 1913.14 263.745  12
   6   2   8 2619.09 437.895  21
   6   2   9 318.505 167.321  12
   6   2   9-891.389 275.126  21
   6   2  10 1795.22 288.087  12
   6   2  11 776.784 214.762  12
   6   2  12 1020.25 237.049  12
   6   2  13-166.271 156.078  12
   6   2  14 1813.16 258.034  12
   6   2  14 1552.43 229.665  10
   6   2  15 220.235 119.534  12
   6   2  15 222.757 128.828  10
   6   2  16 3364.36 215.721  10
  -6  -3  11 11825.5 410.473  15
  -6  -3  10-123.659 151.939  15
  -6  -3  10 104.148 113.092   7
  -6  -3   9 2347.23 311.164  15
  -6  -3   9 2414.60 266.134   7
  -6  -3   8 3086.99 353.659   6
  -6  -3   8 3410.89 387.600  15
  -6  -3   8 3435.48 327.835   7
  -6  -3   7 1373.41 251.267   7
  -6  -3   7 1580.17 300.580   6
  -6  -3   7 1788.91 303.557  15
  -6  -3   6 20383.6 869.438   6
  -6  -3   6 19728.0 889.094  15
  -6  -3   5 1664.63 287.451   6
  -6  -3   5 2292.34 313.891  15
  -6  -3   4 14136.7 713.804   6
  -6  -3   4 14977.7 759.060  15
  -6  -3   3 1791.53 275.708  15
  -6  -3   3 1579.08 326.323  14
   6   3  -3 1174.15 268.319  17
  -6  -3   2 41526.3 1520.69  14
   6   3  -2 39955.9 1438.05  17
   6   3  -1 7686.23 614.512  17
   6   3   0 13185.1 816.561  17
   6   3   1 8622.88 663.606  17
   6   3   2 12840.8 792.529  17
   6   3   3 2546.94 382.811  17
   6   3   4 5862.34 531.585  17
   6   3   5 1643.88 311.223  21
   6   3   5 1924.25 323.441  17
   6   3   6 11401.7 758.062  21
   6   3   6 11263.2 702.360  17
   6   3   7 2268.11 341.978  21
   6   3   8 5763.49 434.054  12
   6   3   8 5738.28 614.422  21
   6   3   9 2798.32 407.749  13
   6   3   9 3205.10 339.032  12
  -6  -3  -9 3471.33 337.967   4
   6   3   9 2939.17 435.247  21
   6   3  10 9762.83 578.900  12
   6   3  11 2635.62 338.187  12
   6   3  12 9596.32 576.511  12
   6   3  13 284.958 163.288  12
   6   3  14 2519.39 310.030  12
   6   3  15-54.1322 125.832  12
   6   3  15-14.3347 106.911  10
   6   3  16 64.4830 110.036  12
   6   3  16 285.325 119.276  10
  -6  -4  10 3273.91 277.352  15
  -6  -4   9 280.126 183.092  15
  -6  -4   9 535.656 168.470   7
  -6  -4   8 759.386 201.645   7
  -6  -4   8 235.731 203.671  15
  -6  -4   7 4375.55 422.896   6
  -6  -4   7 3795.85 420.669  15
  -6  -4   7 4102.15 381.836   7
  -6  -4   6 22522.4 897.861   6
  -6  -4   6 21393.2 924.546  15
  -6  -4   5 5222.60 455.466   6
  -6  -4   5 5754.64 497.047  15
  -6  -4   4 1285.27 268.509   6
  -6  -4   4 1399.07 264.798  15
  -6  -4   3 5722.05 450.861   6
  -6  -4   3 6109.24 479.433  15
   6   4  -3 5370.25 565.272  17
  -6  -4   3 6844.03 446.733  16
  -6  -4   2 306.455 170.088  14
   6   4  -2 90.7733 74.9211  17
   6   4  -1 8073.70 672.801  17
   6   4   0 21581.5 1068.64  17
   6   4   1 29848.5 1238.20  17
   6   4   2 1827.35 328.005  17
   6   4   3 970.500 231.937  17
   6   4   4 566.461 200.205  17
   6   4   5 457.013 241.277  17
   6   4   6 11.7135 99.0932  21
   6   4   6 454.205 207.005  17
   6   4   7 3483.63 437.064  21
   6   4   8 3345.73 499.722  21
   6   4   9 167.341 164.717  13
   6   4   9 40.9043 104.423  12
  -6  -4  -9-289.443 145.674   4
   6   4  10 594.077 182.976  12
  -6  -4 -10 838.754 205.171   4
   6   4  11 1687.66 268.801  12
  -6  -4 -11 1351.42 250.985   4
   6   4  12 2426.23 320.932  12
   6   4  13 1258.76 232.954  12
   6   4  14 731.972 212.513  12
   6   4  15-40.8062 134.156  12
   6   4  15-130.657 143.599  10
   6   4  16 2886.33 232.663  12
   6   4  16 2922.58 243.680  10
  -6  -5  10 467.838 115.424  15
  -6  -5   9 46.4937 161.611  15
  -6  -5   9 74.3192 133.579   7
  -6  -5   8 255.838 168.134   7
  -6  -5   8-43.0669 185.902  15
  -6  -5   7-253.947 186.526   7
  -6  -5   7 45.5891 182.170  15
  -6  -5   6 15017.8 717.516   6
  -6  -5   6 15751.0 779.192  15
  -6  -5   6 15557.6 715.756   7
  -6  -5   5 5728.84 482.233   6
  -6  -5   5 6566.66 519.655  15
  -6  -5   4 28.2286 162.777   6
  -6  -5   4 31.3958 161.471  15
  -6  -5   3 3973.74 388.897   6
  -6  -5   3 4282.03 425.058  15
  -6  -5   3 5057.80 395.395  16
  -6  -5   2 527.706 167.283  16
  -6  -5   2 534.016 197.894   6
  -6  -5   2 227.865 130.951  15
  -6  -5   2-78.3771 176.939  14
   6   5  -2 583.935 193.312  17
   6   5  -1 7504.98 675.436  17
   6   5   0 64.8816 174.307  17
   6   5   1 718.709 237.108  17
   6   5   2 57709.6 1755.65  17
   6   5   3 193.906 141.512  17
   6   5   4 201.251 128.691  17
   6   5   5 256.845 183.985  17
   6   5   6 8135.75 635.702  17
   6   5   7 25532.7 1199.07  21
   6   5   7 25158.6 1080.72  17
   6   5   8 30070.6 1336.15  21
  -6  -5  -8 30776.1 981.116   4
   6   5   9 5786.10 418.288  12
   6   5   9 5883.45 613.902  21
  -6  -5  -9 6385.93 446.579   4
   6   5  10 15786.8 698.212  12
  -6  -5 -10 15479.1 719.534   4
   6   5  11 6001.25 453.740  12
   6   5  11 6534.09 448.173  11
  -6  -5 -11 5885.10 463.708   4
   6   5  12 8519.78 535.658  12
   6   5  12 8836.15 539.347  11
  -6  -5 -12 9073.76 544.970   4
   6   5  13 7483.40 502.058  12
   6   5  13 7498.48 483.570  11
   6   5  14 4741.94 391.540  12
   6   5  14 4664.85 365.483  11
   6   5  15 2018.23 251.574  12
   6   5  16 20.6935 108.253  10
  -6  -6   9 1838.92 207.958  15
  -6  -6   8 33.8736 151.784  15
  -6  -6   8 60.4030 147.428   7
  -6  -6   7 11692.8 613.758  15
  -6  -6   7 12843.7 587.150   7
  -6  -6   6 454.369 166.964   7
  -6  -6   6 384.759 208.658  15
  -6  -6   5 39.8977 142.185   6
  -6  -6   5 112.616 233.208  15
  -6  -6   4 872.106 204.890  16
  -6  -6   4 941.980 235.272   6
  -6  -6   4 1058.15 275.128  15
  -6  -6   3 1238.62 221.243  16
  -6  -6   3 1516.42 248.337   6
  -6  -6   3 1603.85 301.583  15
  -6  -6   2-270.769 173.848  16
  -6  -6   2 361.450 183.895   6
  -6  -6   2-404.218 219.233  15
   6   6  -2-284.251 226.007  17
  -6  -6   1 1438.33 234.385  16
  -6  -6   1 1243.95 246.096  15
   6   6  -1 776.998 279.381  17
  -6  -6   0 231.712 135.802  16
   6   6   0 97.1333 159.076  17
   6   6   1 33447.7 1407.63  17
   6   6   2 2466.46 407.792  17
   6   6   3-188.073 156.890  17
   6   6   4 175.488 144.587  17
   6   6   5 142.655 189.566  17
   6   6   6 33003.8 1316.17  17
   6   6   7 5579.98 545.814  17
  -6  -6  -8 3260.80 357.851   4
   6   6   8 3396.89 450.623  21
   6   6   9 1036.68 207.008  12
   6   6   9 301.201 302.001  21
  -6  -6  -9 631.420 231.757   4
   6   6  10 296.483 158.735  12
  -6  -6 -10 242.209 159.599   4
   6   6  11 196.030 150.583  12
  -6  -6 -11 119.079 142.493   4
   6   6  12 2989.75 336.905  12
   6   6  12 2787.89 335.120  11
  -6  -6 -12 3157.22 354.770   4
   6   6  13 3288.94 349.799  12
  -6  -6 -13 3698.27 365.234   4
   6   6  13 3339.67 344.111  11
   6   6  14 6469.06 446.006  12
   6   6  14 6347.23 432.804  11
   6   6  15 187.833 148.585  12
   6   6  15 222.576 132.678  11
   6   6  16 124.621 107.657  11
   6   6  16 176.036 121.398  10
  -6  -7   8 334.729 130.948  15
  -6  -7   8 459.402 131.277   7
  -6  -7   7-75.6560 177.452  15
  -6  -7   7 133.168 160.082   7
  -6  -7   6 2993.05 361.525  15
  -6  -7   6 3252.90 333.435   7
  -6  -7   5 623.776 206.455   7
  -6  -7   5 154.528 210.321  15
  -6  -7   4 22075.3 917.620  15
  -6  -7   4 22162.9 796.838  16
  -6  -7   3 1394.72 234.527  16
  -6  -7   3 1161.56 218.093   6
  -6  -7   3 1348.96 293.710  15
  -6  -7   2-170.450 135.365  16
  -6  -7   2-48.8075 182.623  15
  -6  -7   1 13625.7 706.716  15
  -6  -7   1 13470.9 663.223  16
  -6  -7   0 9418.10 561.267  15
   6   7   0 9042.21 772.472  17
  -6  -7   0 9107.53 544.469  16
  -6  -7  -1 913.081 227.001  16
  -6  -7  -1 911.786 223.634  15
   6   7   1 1097.72 299.805  17
  -6  -7  -2 108.946 127.927  16
   6   7   2-253.382 223.378  17
   6   7   3 12798.9 907.732  17
   6   7   4 4099.29 518.687  17
   6   7   5 1446.95 301.708  17
   6   7   6 16684.1 999.620  17
  -6  -7  -7 10243.2 576.961   4
   6   7   7 9267.54 743.007  17
  -6  -7  -8 1710.55 249.586   4
  -6  -7  -9 8005.33 550.320   4
   6   7  10 429.479 155.081   5
  -6  -7 -10 98.6499 172.681   4
   6   7  11 16954.3 719.874  12
  -6  -7 -11 17901.9 808.884   4
   6   7  12-67.9871 160.096  12
  -6  -7 -12-137.991 157.289   4
   6   7  13 11.7914 135.891  12
   6   7  13 303.099 173.151  11
  -6  -7 -13-76.7546 163.373   4
   6   7  14 4974.87 400.544  12
   6   7  14 4113.28 361.390  11
   6   7  15 3087.90 296.384  11
   6   7  16 1924.82 215.778  11
   6   7  16 1750.81 198.563  10
  -6  -8   7 1655.84 222.006  15
  -6  -8   7 1264.85 188.284   7
  -6  -8   6 1390.59 252.445  15
  -6  -8   6 1421.52 229.947   7
  -6  -8   5 56.3296 172.182   7
  -6  -8   5-66.5110 214.922  15
  -6  -8   4 680.315 224.283   7
  -6  -8   4 217.631 136.327  16
  -6  -8   4 458.847 233.229  15
  -6  -8   3 25562.7 967.043  15
  -6  -8   3 24722.7 869.704  16
  -6  -8   2 1164.93 221.003  16
  -6  -8   2 878.142 277.917  15
  -6  -8   1 9687.50 608.276  15
  -6  -8   1 9102.97 552.818  16
  -6  -8   0 1253.07 261.508  16
  -6  -8   0 1611.48 277.236  15
  -6  -8  -1 9682.43 562.608  15
   6   8   1 9039.36 818.161  17
  -6  -8  -1 9111.19 558.013  16
   6   8   2 30170.3 1455.67  17
  -6  -8  -2 31461.9 982.585  16
   6   8   3 6058.65 650.242  17
  -6  -8  -3 5882.15 444.196  16
  -6  -8  -4 198.100 160.570  16
   6   8   4 701.408 268.300  17
  -6  -8  -4 792.996 166.551   4
  -6  -8  -5 314.945 161.356  16
   6   8   5 28.5296 120.136  17
  -6  -8  -6 21227.0 829.320   4
   6   8   6 19106.4 1106.89  17
  -6  -8  -6 20916.9 739.353  16
   6   8   7-147.047 146.899  17
  -6  -8  -7-77.6587 135.418   4
  -6  -8  -8 700.231 200.055   4
  -6  -8  -9 3458.65 383.790   4
   6   8  10 3634.18 350.976   5
   6   8  10 3153.64 311.205  12
  -6  -8 -10 2801.52 373.824   4
   6   8  11 980.870 198.041  12
   6   8  11 896.163 191.017   5
  -6  -8 -11 919.606 256.127   4
   6   8  12 6184.50 446.707  12
  -6  -8 -12 6271.47 503.754   4
   6   8  13 6903.45 458.593  12
  -6  -8 -13 6621.43 496.668   4
   6   8  13 6367.40 474.537  11
   6   8  14 12150.0 597.737  11
   6   8  15 838.802 191.539  11
   6   8  16-152.637 98.9875  11
   6   8  16-212.186 110.679  10
  -6  -9   6 7485.18 358.536   7
  -6  -9   5 133.215 133.886   7
  -6  -9   4 1723.47 245.434   7
  -6  -9   4 1905.67 251.574  16
  -6  -9   4 2513.77 347.273  15
  -6  -9   3 554.790 205.991   7
  -6  -9   3 822.196 197.421  16
  -6  -9   3 409.932 215.043  15
  -6  -9   2 249.508 178.479  16
  -6  -9   2 9.12884 205.748  15
  -6  -9   1 9648.60 601.910  15
  -6  -9   1 10087.8 587.997  16
  -6  -9   0 1754.45 269.633  16
  -6  -9  -1 52.8508 171.506  16
  -6  -9  -2 20584.7 815.041  16
  -6  -9  -3 15527.1 702.408  16
  -6  -9  -4 8144.97 512.658  16
  -6  -9  -5 11700.3 606.091   4
   6   9   5 13730.1 1009.44  17
  -6  -9  -5 12138.0 593.999  16
  -6  -9  -6 1479.86 231.287  16
   6   9   6 1270.58 394.094  17
  -6  -9  -6 1305.64 247.248   4
   6   9   7 254.317 238.975  17
  -6  -9  -7 918.710 232.495   4
  -6  -9  -8 6294.99 493.449   4
  -6  -9  -9 20188.5 865.836   4
   6   9  10 7546.26 513.485   5
  -6  -9 -10 7854.08 565.415   4
   6   9  11 478.683 172.849   5
  -6  -9 -11 487.869 229.462   4
   6   9  12 5594.58 407.212   5
  -6  -9 -12 4778.06 444.407   4
   6   9  13 178.602 152.251  11
   6   9  14 7264.95 477.213  11
   6   9  15 10.1813 142.918  11
   6   9  16 1559.65 200.778  11
  -6 -10   4 3736.27 284.165  16
  -6 -10   4 3802.38 288.822   7
  -6 -10   3 1823.47 255.432  16
  -6 -10   3 2364.02 262.176   7
  -6 -10   2 2045.64 248.697   7
  -6 -10   2 2125.50 287.985  16
  -6 -10   1-114.646 162.499  16
  -6 -10   0 2599.41 326.679  16
  -6 -10  -1 597.263 218.339  16
  -6 -10  -2 9431.82 577.306  16
  -6 -10  -3 40683.3 1142.77  16
  -6 -10  -4 6072.34 462.192  16
  -6 -10  -5 3498.18 340.703  16
  -6 -10  -6 124.605 111.265  16
  -6 -10  -6 293.885 157.982   4
  -6 -10  -7 1539.31 266.737   4
  -6 -10  -8 1743.61 286.441   4
   6  10   9 97.8587 177.314   5
  -6 -10  -9 86.6913 175.805   4
   6  10  10 1615.38 265.391   5
  -6 -10 -10 1415.30 310.803   4
   6  10  11 6204.66 455.201   5
  -6 -10 -11 5483.19 478.885   4
   6  10  12 452.286 164.247   5
  -6 -10 -12 178.626 191.877   4
   6  10  13 3037.86 290.835   5
   6  10  13 3639.70 356.355  11
   6  10  14 23.6990 154.563  11
   6  10  15 521.785 170.190  11
   6  10  16 139.062 118.869  11
  -6 -11   4-34.1298 102.930  16
  -6 -11   3 665.454 183.395  16
  -6 -11   2 1903.71 263.518  16
  -6 -11   1 1495.85 254.877  16
  -6 -11   0 14457.0 678.408  16
  -6 -11  -1 175.352 179.166  16
  -6 -11  -2 1395.57 283.821  16
  -6 -11  -3 1191.30 290.169  16
  -6 -11  -4 6632.64 488.041  16
  -6 -11  -5 1754.82 286.710  16
  -6 -11  -6 1950.95 271.172  16
   6  11   7 3823.62 383.028   5
  -6 -11  -7 4157.95 377.145   4
   6  11   8 3901.66 389.924   5
  -6 -11  -8 4252.44 408.611   4
   6  11   9 2379.28 317.037   5
  -6 -11  -9 2646.06 332.771   4
   6  11  10 1014.24 232.995   5
  -6 -11 -10 862.661 227.235   4
   6  11  11 1397.58 236.493   5
  -6 -11 -11 1227.27 273.194   4
   6  11  12 2077.42 263.821   5
   6  11  13 2086.35 246.915   5
   6  11  13 1949.17 274.088  11
   6  11  14 284.539 119.037   5
   6  11  14 401.812 170.327  11
   6  11  15 84.2827 125.881  11
   6  11  16 13838.7 468.947  11
  -6 -12   3 147.418 110.732  16
  -6 -12   2 807.275 172.884  16
  -6 -12   1 4236.96 346.550  16
  -6 -12   0 6677.65 448.854  16
  -6 -12  -1 10384.6 567.146  16
  -6 -12  -2 704.298 227.462  16
   6  12   3 13259.4 591.696   5
  -6 -12  -3 14083.5 661.898  16
   6  12   4 45715.4 1146.48   5
  -6 -12  -4 45470.1 1165.80  16
   6  12   5 4130.05 384.907   5
  -6 -12  -5 4717.39 388.651  16
  -6 -12  -6 2095.01 269.467  16
   6  12   6 1808.01 286.776   5
   6  12   7 2671.18 313.421   5
   6  12   8 3862.37 383.355   5
  -6 -12  -8 3720.99 368.740   4
   6  12   9 1680.60 288.147   5
  -6 -12  -9 1415.95 238.917   4
   6  12  10 504.574 209.414   5
   6  12  11 882.941 210.810   5
   6  12  12 3359.27 316.284   5
   6  12  13 1881.14 244.762   5
   6  12  13 2055.84 265.817  11
   6  12  14 1490.91 186.894   5
   6  12  14 1678.19 233.899  11
   6  12  15 762.724 154.470  11
   6  12  16 494.462 105.587  11
  -6 -13   2 1714.66 177.923  16
  -6 -13   1-31.2533 117.215  16
  -6 -13   0 449.492 178.496  16
  -6 -13  -1 190.504 167.287  16
  -6 -13  -2 5030.26 382.285  16
  -6 -13  -3 7073.33 450.896  16
   6  13   4 3735.65 321.614   5
  -6 -13  -4 3521.59 307.302   1
  -6 -13  -4 3083.73 323.375  16
  -6 -13  -5 566.867 174.849  16
   6  13   5 359.607 181.336   5
   6  13   6 5775.73 428.290   5
  -6 -13  -6 5066.34 360.422  16
   6  13   7 4397.10 388.135   5
   6  13   8 7774.16 495.038   5
   6  13   9 2530.67 316.260   5
   6  13  10 1699.22 257.331   5
   6  13  11 1672.05 252.671   5
   6  13  12 5887.75 391.217   5
   6  13  13 2772.23 259.760   5
   6  13  13 2624.53 259.103  11
   6  13  14 2947.24 232.545   5
   6  13  14 2956.09 252.257  11
  -6 -13 -14 3014.59 225.712   1
   6  13  15 353.571 116.393  11
  -6 -14   0 207.172 117.969  16
  -6 -14  -1 191.751 128.277  16
  -6 -14  -2-49.4158 140.680  16
  -6 -14  -3 455.166 156.169  16
  -6 -14  -4 1062.52 212.354  16
   6  14   5 21014.9 644.105   5
  -6 -14  -5 21349.9 695.169   1
  -6 -14  -5 21060.6 668.907  16
   6  14   6 2335.42 263.839   5
  -6 -14  -6 2146.02 258.018   1
  -6 -14  -6 2380.03 231.669  16
   6  14   7 1263.76 215.278   5
   6  14   8 2931.97 304.258   5
   6  14   9 1506.91 242.164   5
   6  14  10 2661.71 275.706   5
   6  14  11 73.4755 121.905   5
   6  14  12 387.417 150.011   5
   6  14  12 343.673 145.151  11
   6  14  13 5279.83 310.531   5
   6  14  13 4715.73 288.996  11
  -6 -14 -13 5068.24 294.382   1
   6  14  14 1927.94 171.442   5
   6  14  14 1832.57 168.394  11
  -6 -15  -2 4982.59 269.276  16
  -6 -15  -3 944.770 152.432  16
  -6 -15  -4 7334.98 346.124  16
  -6 -15  -5 7300.13 338.070  16
  -6 -15  -6 5002.87 322.406   1
   6  15   7 3584.08 269.975   5
  -6 -15  -7 3552.06 289.526   1
   6  15   8 2372.55 228.102   5
  -6 -15  -8 2816.05 265.968   1
   6  15   9 4293.95 299.110   5
  -6 -15  -9 4528.35 319.510   1
   6  15  10 913.523 168.328   5
  -6 -15 -10 758.643 175.446   1
   6  15  11 2779.18 238.330   5
   6  15  11 2784.35 214.372  11
  -6 -15 -11 2669.14 243.551   1
  -6 -15 -12 119.631 100.547   1
   6  15  12 34.7415 76.7063   5
   6  15  12 104.950 95.4599  11
   6  15  13 1500.79 151.902   5
  -6 -16  -8 96.4302 93.9596   1
  -6 -16  -9 2087.31 188.762   1
  -6 -16 -10 190.598 106.020   1
   7 -10  -1 1083.58 168.840   1
   7 -10   0 4110.94 272.415   1
   7 -10   0 3979.77 226.622   9
   7 -10   1 831.961 144.022   1
   7 -10   1 1014.68 127.280   9
  -7   9   6 1422.65 167.081   4
  -7   9   5 4070.34 268.458   4
  -7   9   4 439.999 110.869   4
   7  -9  -3 210.385 122.190   1
   7  -9  -2 327.796 146.597   1
   7  -9  -1 1199.24 222.154   1
   7  -9   0 621.440 190.530   1
   7  -9   1-144.748 134.082   1
   7  -9   2 1875.51 236.600   1
   7  -9   3 484.824 145.997   1
   7  -9   3 440.229 126.403   9
   7  -9   4 5930.85 298.438   1
   7  -9   4 5613.82 277.439   9
  -7   8   8 91.6432 88.8053   4
  -7   8   7 510.538 145.253   4
  -7   8   6 99.0464 140.296   4
  -7   8   5 3593.52 321.254   4
  -7   8   4 549.482 177.560   4
   7  -8  -3 5747.68 392.243   1
  -7   8   3 6552.98 406.597   4
   7  -8  -2 848.938 214.036   1
   7  -8  -1 4176.21 367.504   1
   7  -8   0 5589.93 429.113   1
   7  -8   1 2155.37 301.536   1
   7  -8   2 810.761 219.951   1
   7  -8   3 123.635 169.601   1
   7  -8   4-10.1743 128.454   1
   7  -8   4-36.6678 125.154   9
   7  -8   5 7906.88 396.915   1
   7  -8   5 8485.16 383.461   9
   7  -8   6 293.207 101.631   9
  -7   7   9 1206.74 150.213   4
  -7   7   8 144.604 106.298   4
  -7   7   7 2700.72 290.506   4
  -7   7   6 123.225 152.924   4
  -7   7   5 343.709 172.287   4
  -7   7   4 6431.99 468.123   4
  -7   7   3 699.112 217.277   4
   7  -7  -3 447.514 164.370   1
   7  -7  -2 6107.21 456.654   1
  -7   7   2 6671.07 464.654   4
  -7   7   1 439.658 161.307   4
   7  -7  -1 319.058 182.257   1
   7  -7   0 260.052 236.330   1
   7  -7   1 29721.2 1050.16   1
   7  -7   2 9422.85 606.448   1
   7  -7   3 1483.62 278.869   1
   7  -7   4 273.002 173.901   1
   7  -7   5 3104.44 323.863   1
   7  -7   5 3317.96 301.862   9
   7  -7   6 663.955 164.226   1
   7  -7   6 771.348 164.301   9
   7  -7   7 435.145 109.067  12
   7  -7   7 675.148 129.578   9
  -7   6   9 170.455 106.741   4
  -7   6   8 1696.26 230.172   4
  -7   6   7 5014.55 386.734   4
  -7   6   6 1136.42 274.640   4
  -7   6   5 192.139 168.507   4
  -7   6   4 1242.56 273.488   4
  -7   6   3 12807.9 699.046   4
   7  -6  -2 11930.0 646.638   1
  -7   6   2 12622.5 687.811   4
  -7   6   1 2156.56 304.135   4
   7  -6  -1 1763.97 311.118   1
  -7   6   0-87.4350 120.092   4
   7  -6   0 167.765 186.097   1
   7  -6   1 3860.30 433.726   1
   7  -6   2 17.2180 214.147   1
   7  -6   3 1204.88 298.881   1
   7  -6   4 1534.28 295.166   1
   7  -6   5 722.994 224.225   1
   7  -6   6 400.572 185.477   1
   7  -6   6 389.785 179.649   9
   7  -6   7 2038.28 257.228   1
   7  -6   7 1866.34 228.598  12
   7  -6   7 2012.86 232.533   9
   7  -6   8 8696.74 388.009  12
   7  -6   8 9026.46 371.909   9
  -7   5   9 3306.66 269.490   4
  -7   5   8 641.449 180.672   4
  -7   5   7 2515.57 261.141   6
  -7   5   7 2484.38 321.685   4
  -7   5   6 526.057 231.209   4
  -7   5   5 83.5657 153.136   4
  -7   5   4 194.455 204.320   4
  -7   5   3 3382.17 414.675   4
  -7   5   2 28.6404 136.065   4
   7  -5  -2 265.643 138.129   1
  -7   5   1 1140.65 241.359   4
   7  -5  -1 1173.80 251.769   1
  -7   5   0-4.73646 201.776   4
   7  -5   0 126.506 205.734   1
   7  -5   1 11104.4 711.258   1
  -7   5  -1 11573.5 628.356   4
   7  -5   2 4742.21 487.967   1
   7  -5   3 14218.7 786.636   1
   7  -5   4 1956.94 329.272   1
   7  -5   5 928.764 251.832   1
   7  -5   6 12496.2 683.102   1
   7  -5   7 9938.80 566.732   1
   7  -5   7 10027.9 504.158   9
   7  -5   8 11096.7 513.739   1
   7  -5   8 11486.5 526.267  12
   7  -5   8 11147.3 481.018   9
   7  -5   9 9147.46 413.695  12
   7  -5   9 8488.14 362.404   9
   7  -5  10 1399.06 145.923  12
  -7   4   9 1417.15 165.527   6
  -7   4   9 1458.10 193.095   4
  -7   4   8 618.982 156.175   6
  -7   4   8 616.568 188.978   4
  -7   4   7 279.180 151.760   6
  -7   4   7 413.924 181.689   4
  -7   4   6 106.111 181.831   4
  -7   4   5 3410.03 422.467   4
  -7   4   4 14883.1 807.686   4
  -7   4   3 15.1632 194.032   4
  -7   4   2 29803.1 1115.26   4
   7  -4  -1 5773.87 485.960   1
  -7   4   1 5340.83 491.745   4
  -7   4   0 930.900 242.409   4
   7  -4   0 1015.21 255.060   1
  -7   4  -1 731.373 223.610   4
   7  -4   1 480.159 223.273   1
  -7   4  -2-2.21486 117.754   4
   7  -4   2-55.2009 230.460   1
   7  -4   3 12672.4 758.096   1
   7  -4   4 11675.3 734.504   1
   7  -4   5 802.656 254.858   1
   7  -4   6 21907.6 927.365   1
   7  -4   7 352.775 199.410   1
   7  -4   7 41.8608 129.743   9
   7  -4   8 332.110 156.054   1
   7  -4   8-55.1510 141.443   9
   7  -4   9 11130.4 524.657  12
   7  -4   9 10759.6 453.542   9
   7  -4  10-65.3504 110.332  12
   7  -4  11 500.540 104.603  12
  -7   3   9 965.331 176.172   4
  -7   3   9 898.612 159.183   6
  -7   3   8 106.342 138.588   6
  -7   3   8 223.811 140.254   4
  -7   3   7 79.5618 168.092   6
  -7   3   7-178.805 152.059   4
  -7   3   6 3094.32 375.266   4
  -7   3   5 8372.12 609.778   4
  -7   3   4 593.849 204.568   4
  -7   3   3-61.2235 191.029   4
  -7   3   2-48.0631 152.624   4
   7  -3  -1 5876.55 481.858   1
  -7   3   1 5296.94 490.896   4
  -7   3   0-14.2533 154.714   4
   7  -3   0 398.519 171.507   1
   7  -3   1 7419.91 576.011   1
  -7   3  -1 7629.89 557.185   4
  -7   3  -2 205.468 185.492   4
   7  -3   2 237.273 160.323   1
   7  -3   3 28200.6 1110.78   1
  -7   3  -3 28433.8 965.601   4
   7  -3   4 474.889 218.173   1
   7  -3   5 8644.71 614.670   1
   7  -3   6 580.120 253.240   1
   7  -3   7 3864.24 435.347   1
   7  -3   8-13.5838 162.167   1
   7  -3   8-148.130 144.212   9
   7  -3   9 33731.4 976.197   1
   7  -3   9 34860.4 992.899  12
   7  -3  10 1283.13 210.363  12
   7  -3  11 413.752 121.882  12
   7  -3  12 6170.79 278.649  12
   7  -3  12 6062.30 317.564   2
  -7   2   9 2132.49 236.483   6
  -7   2   9 2172.45 241.665  15
  -7   2   8 1427.61 199.329   4
  -7   2   8 1552.16 243.972   6
  -7   2   7 10862.7 572.985   6
  -7   2   7 11241.8 615.973   4
  -7   2   6 460.801 182.870   4
  -7   2   5 20543.0 916.230   4
  -7   2   4 19306.0 909.039   4
  -7   2   3 36792.5 1239.90   4
  -7   2   2 7266.40 584.891   4
  -7   2   1 5796.80 492.909   4
  -7   2   0 152.784 172.223   4
   7  -2   0 238.862 162.825   1
  -7   2  -1 1081.31 240.548   4
   7  -2   1 1182.29 255.465   1
  -7   2  -2 1378.67 263.222   4
   7  -2   2 2006.40 328.464   1
  -7   2  -3 1026.17 246.963   4
   7  -2   3 861.613 222.750   1
   7  -2   4 7366.85 590.851   1
  -7   2  -4 6415.95 481.101   4
   7  -2   5 2358.69 360.528   1
   7  -2   6 15079.3 815.879   1
   7  -2   7 2429.03 359.149   1
   7  -2   8 12679.4 711.850   1
   7  -2   9 7011.80 503.857   1
   7  -2   9 7394.79 500.831  12
   7  -2  10 29388.3 911.134  12
   7  -2  11 3786.65 313.783  12
   7  -2  12 241.378 107.529  12
  -7   1  10 346.631 116.317  15
  -7   1   9 94.6831 129.763   6
  -7   1   9 123.398 120.790  15
  -7   1   8 5974.94 425.230   6
  -7   1   8 5950.74 422.791  15
  -7   1   7 4699.97 408.183   6
  -7   1   7 4952.34 406.427   4
  -7   1   6 8655.94 559.624   6
  -7   1   6 7672.36 538.990   4
  -7   1   5 2849.04 362.704   4
  -7   1   4 1380.67 294.502   4
  -7   1   3 4331.65 446.968   4
  -7   1   2-43.9238 135.427   4
  -7   1   2 302.047 169.363   8
  -7   1   1 5244.21 469.024   4
  -7   1   1 4753.72 405.247   8
  -7   1   0 114.571 151.507   4
   7  -1   0 852.707 254.305  17
  -7   1   0 1143.53 212.531   8
  -7   1  -1 784.119 189.825   4
   7  -1   1 528.187 214.806   1
   7  -1   1 1277.58 359.023  17
  -7   1  -1 914.567 212.203   8
   7  -1   2 14668.5 762.338   1
  -7   1  -2 14579.1 743.667   4
   7  -1   2 16965.9 1017.21  17
   7  -1   3 29104.7 1082.12   1
  -7   1  -3 30171.6 1031.20   4
   7  -1   3 30089.5 1344.55  17
  -7   1  -4 1843.69 288.346   4
   7  -1   4 2325.93 339.257   1
   7  -1   4 2608.20 436.795  18
   7  -1   4 2204.83 400.682  17
   7  -1   5 3308.29 429.868   1
  -7   1  -5 3729.03 378.030   4
   7  -1   6 9272.12 639.990   1
   7  -1   7 23933.1 992.839   1
   7  -1   8 8978.72 611.452   1
   7  -1   9 13999.5 718.946   1
   7  -1   9 12490.0 662.851  12
   7  -1  10 1188.23 252.077  12
   7  -1  11 8588.59 501.972  12
   7  -1  12 244.777 151.600  12
   7  -1  12 159.659 130.057  10
   7  -1  13 141.000 96.1896   2
   7  -1  13 392.258 123.558  12
  -7   0  10 85.0273 113.537  15
  -7   0   9 1028.48 192.237   6
  -7   0   9 673.057 176.524  15
  -7   0   8 3751.08 353.567   6
  -7   0   8 3318.50 336.280  15
  -7   0   7 1297.52 210.106   7
  -7   0   7 1261.10 242.573   6
  -7   0   7 1789.57 279.587  15
  -7   0   6 7687.21 539.391   6
  -7   0   6 6906.33 491.036   4
  -7   0   5-1.19650 158.261   4
  -7   0   4 7101.90 540.325   4
  -7   0   3 78.7498 99.1938   4
  -7   0   2 907.759 241.386   4
  -7   0   2 825.275 201.178   8
  -7   0   1 1026.70 273.526   4
   7   0  -1 943.363 288.526  17
  -7   0   1 1460.08 256.400   8
  -7   0   0 6530.87 515.234   4
   7   0   0 6380.25 629.352  17
  -7   0   0 6587.71 459.860   8
   7   0   1 9657.24 591.151   1
  -7   0  -1 10416.1 612.900   4
   7   0   1 10599.9 815.596  17
  -7   0  -1 9459.81 545.413   8
   7   0   2 38235.5 1196.61   1
  -7   0  -2 39527.4 1200.75   4
   7   0   2 38567.7 1499.36  17
   7   0   3 63007.5 1553.22   1
  -7   0  -3 65772.7 1511.66   4
   7   0   3 61215.3 1862.37  17
   7   0   4 82791.5 1807.08   1
  -7   0  -4 84392.2 1683.03   4
   7   0   4 85290.7 2178.91  17
  -7   0  -5 407.183 195.726   4
   7   0   5 448.080 235.825   1
   7   0   5 454.318 257.320  18
   7   0   5 566.519 182.033  17
   7   0   6 15212.6 809.847   1
  -7   0  -6 15077.4 696.982   4
   7   0   7 9933.45 655.229   1
   7   0   8-67.1949 178.227   1
   7   0   9 5787.25 473.887  12
   7   0  10 6164.76 461.313  12
   7   0  11 453.419 215.378  12
   7   0  12 273.132 157.034  12
   7   0  13 543.560 141.355   2
   7   0  13 195.211 130.983  12
   7   0  13 153.219 106.280  10
   7   0  14 98.5788 93.6697  12
   7   0  14 166.080 75.1661  10
  -7  -1  10 1449.04 168.769  15
  -7  -1   9 171.207 137.385  15
  -7  -1   9 224.964 118.660   7
  -7  -1   8 1059.28 186.680   7
  -7  -1   8 1561.37 255.843   6
  -7  -1   8 1454.02 245.591  15
  -7  -1   7 80.8081 149.532   7
  -7  -1   7-6.15937 181.104   6
  -7  -1   7 154.977 189.115  15
  -7  -1   6 381.410 173.383   6
  -7  -1   6 805.391 192.469  15
  -7  -1   5 16946.2 787.761   6
  -7  -1   4 2922.33 351.599   4
  -7  -1   3 16267.1 780.548   4
  -7  -1   2 8053.88 567.880   4
  -7  -1   1 11.0520 143.313   4
  -7  -1   1 193.880 140.343   8
  -7  -1   0 47328.8 1314.08   4
   7   1   0 49137.0 1691.09  17
  -7  -1   0 48910.9 1246.86   8
  -7  -1  -1 2640.98 337.605   4
   7   1   1 2504.61 441.355  17
  -7  -1  -1 2281.61 274.550   8
  -7  -1  -2 98.5238 207.852   4
   7   1   2 45.3966 158.175  17
   7   1   3 35421.3 1146.83   1
  -7  -1  -3 38916.0 1159.55   4
   7   1   3 36685.5 1443.96  17
   7   1   4 8445.87 581.253   1
  -7  -1  -4 8053.31 535.926   4
   7   1   4 9069.72 713.344  17
  -7  -1  -5-38.1835 152.120   4
   7   1   5 437.624 199.667   1
   7   1   5 273.026 171.006  17
   7   1   6 5766.52 514.299   1
  -7  -1  -6 5889.26 455.692   4
   7   1   7 9784.51 660.378   1
  -7  -1  -7 9741.64 551.292   4
   7   1   8 1476.16 246.155  12
   7   1   8 1763.15 283.052   1
   7   1   9 7503.84 529.504  12
   7   1  10 1074.23 240.371  12
   7   1  11 986.499 239.461  12
   7   1  12 3509.89 344.637  12
   7   1  13 8526.79 454.482  12
   7   1  14 2010.45 219.294  12
   7   1  14 1996.76 191.798  10
  -7  -2  10 93.3747 98.2698  15
  -7  -2   9-132.795 143.223  15
  -7  -2   9-172.851 103.539   7
  -7  -2   8 4991.43 383.447   6
  -7  -2   8 4969.13 397.192  15
  -7  -2   8 4352.73 322.433   7
  -7  -2   7 106.040 133.841   7
  -7  -2   7 235.531 205.599   6
  -7  -2   7 189.787 174.001  15
  -7  -2   6 11141.2 634.632   6
  -7  -2   6 11552.7 628.404  15
  -7  -2   5 56.4343 195.519   6
  -7  -2   5 107.622 127.694  15
  -7  -2   4 8017.11 559.389   6
  -7  -2   3 614.414 189.428   4
  -7  -2   2 3200.22 355.031   4
   7   2  -1 1406.25 326.926  17
  -7  -2   1 2072.88 296.973   8
  -7  -2   0 4504.19 427.990   4
   7   2   0 4323.45 516.051  17
  -7  -2   0 4384.62 394.701   8
  -7  -2  -1 118.630 134.395   4
   7   2   1 248.656 215.085  17
  -7  -2  -1 192.566 167.490   8
  -7  -2  -2 3112.43 344.981   4
  -7  -2  -2 3132.40 343.686   8
   7   2   2 2055.70 425.810  17
  -7  -2  -3 14059.5 699.569   4
   7   2   3 13695.6 901.435  17
   7   2   4 1949.79 296.660   1
  -7  -2  -4 1845.17 279.057   4
   7   2   4 1582.21 335.961  17
   7   2   5 3364.51 405.651   1
  -7  -2  -5 3600.75 372.679   4
   7   2   5 3387.83 450.836  17
  -7  -2  -6-334.976 146.167   4
   7   2   6-455.824 161.016  21
   7   2   6 33.4147 173.040   1
   7   2   7 4634.21 456.767   1
   7   2   7 4775.63 505.322  21
  -7  -2  -7 4920.88 399.083   4
   7   2   8 28.4098 144.161  12
  -7  -2  -8 24.7513 118.779   4
   7   2   9 1494.98 270.137  12
   7   2  10 16691.7 750.141  12
   7   2  11 1304.68 245.097  12
   7   2  12 1375.20 257.693  12
   7   2  13 27.1887 147.615  12
   7   2  14 2252.90 235.025  12
   7   2  14 2180.33 224.506  10
   7   2  15-160.575 103.590  12
   7   2  15 45.0127 93.8744  10
  -7  -3   9 6442.75 367.431  15
  -7  -3   9 6034.45 301.962   7
  -7  -3   8 196.753 130.356   7
  -7  -3   8-76.7667 158.204  15
  -7  -3   7 66.0471 141.536   7
  -7  -3   7 264.619 188.083   6
  -7  -3   7-106.845 175.510  15
  -7  -3   6 1638.17 288.583   6
  -7  -3   6 1628.74 288.440  15
  -7  -3   5 7237.79 527.459   6
  -7  -3   5 5990.05 472.017  15
  -7  -3   4 1015.20 268.491   6
  -7  -3   4 1541.42 260.879  15
  -7  -3   3 12887.0 685.911   6
  -7  -3   2 1139.99 224.211   4
  -7  -3   1 6268.84 482.986   4
  -7  -3   1 7199.14 519.014   8
  -7  -3   0-143.080 76.5906   4
  -7  -3   0 97.4339 136.444   8
  -7  -3  -1 18108.9 794.904   4
   7   3   1 16010.4 984.083  17
  -7  -3  -1 18431.7 785.310   8
  -7  -3  -2 5512.06 427.702   4
   7   3   2 5049.76 571.426  17
  -7  -3  -2 5261.97 426.656   8
  -7  -3  -3 15626.6 725.541   4
   7   3   3 14362.6 910.010  17
  -7  -3  -4 723.359 150.629   4
   7   3   4 763.020 218.898  21
   7   3   4 345.429 150.578  17
  -7  -3  -5 1026.59 220.538   4
   7   3   5 1206.79 267.139  21
   7   3   5 1181.92 308.540  17
  -7  -3  -6-159.627 115.702   4
   7   3   6 43.6746 116.286  17
   7   3   7 14338.6 654.045  12
   7   3   7 13164.6 892.199  21
  -7  -3  -7 15418.7 714.918   4
   7   3   8 1.00293 150.999  12
  -7  -3  -8-111.274 178.039   4
   7   3   9 32376.1 1014.83  12
  -7  -3  -9 32543.9 1014.24   4
   7   3  10 3152.19 348.439  12
  -7  -3 -10 3598.38 336.448   4
   7   3  11 8792.79 545.258  12
   7   3  12 1745.51 276.076  12
   7   3  13 1892.17 273.734  12
   7   3  14 1016.79 186.351  12
   7   3  15 267.182 121.802  12
   7   3  15 155.398 124.462  10
  -7  -4   9 563.335 139.913  15
  -7  -4   9 738.937 121.196   7
  -7  -4   8 7260.82 428.213  15
  -7  -4   8 6592.03 369.869   7
  -7  -4   7 804.915 216.227   7
  -7  -4   7 670.213 209.762  15
  -7  -4   6 5189.56 432.469   6
  -7  -4   6 5682.60 423.581   7
  -7  -4   5 3977.87 394.395   6
  -7  -4   5 3763.72 392.878  15
  -7  -4   4 1038.27 268.652   6
  -7  -4   4 1051.98 228.501  15
  -7  -4   3 2621.78 327.768   6
  -7  -4   3 2890.74 356.172  15
  -7  -4   3 2909.02 316.734  16
  -7  -4   2 2718.95 325.900   6
  -7  -4   1 673.130 180.945   4
  -7  -4   0 7274.85 505.837   4
   7   4   0 8131.16 693.909  17
  -7  -4   0 8212.40 534.863   8
  -7  -4  -1 666.382 244.818   4
   7   4   1 1014.44 314.642  17
  -7  -4  -1 785.001 205.281   8
  -7  -4  -2 83031.6 1652.33   4
   7   4   2 80195.0 2217.95  17
  -7  -4  -2 82155.0 1647.13   8
  -7  -4  -3 14119.6 684.057   4
   7   4   3 13069.9 911.943  17
  -7  -4  -3 14418.0 702.111   8
  -7  -4  -4 15448.5 720.317   4
   7   4   4 14859.7 937.333  17
   7   4   5 24137.9 1136.55  21
  -7  -4  -5 24551.1 903.681   4
   7   4   5 24331.1 1174.30  17
   7   4   6 1704.18 347.029  21
   7   4   6 1612.53 348.363  17
  -7  -4  -6 1520.08 260.068   4
   7   4   7 568.037 217.431  21
  -7  -4  -7 185.047 140.009   4
   7   4   8-67.5032 121.942  12
  -7  -4  -8-171.639 154.026   4
   7   4   9 289.691 152.129  12
  -7  -4  -9 586.698 213.159   4
   7   4  10 3812.60 380.522  12
  -7  -4 -10 4086.62 385.336   4
   7   4  11 2000.28 304.314  12
  -7  -4 -11 2090.45 282.055   4
   7   4  12 2211.63 288.204  12
   7   4  13 129.743 158.675  12
   7   4  14 589.228 193.594  12
   7   4  15 1779.46 208.238  12
   7   4  15 1770.40 212.651  10
   7   4  16 62.1355 72.1950  10
  -7  -5   8 1649.57 220.015  15
  -7  -5   8 2094.83 219.945   7
  -7  -5   7 1130.88 205.273   7
  -7  -5   7 1588.70 257.772  15
  -7  -5   6 1601.25 256.566   7
  -7  -5   6 992.767 249.655  15
  -7  -5   5 23675.8 870.616   6
  -7  -5   5 25252.5 917.718  15
  -7  -5   4 147.462 184.648   6
  -7  -5   4 328.205 204.450  15
  -7  -5   3 140.266 131.934  16
  -7  -5   3 18.7168 148.163   6
  -7  -5   3 106.312 209.517  15
  -7  -5   2 2033.02 305.683   6
  -7  -5   2 1631.84 247.746  15
  -7  -5   1 15044.7 693.049   6
  -7  -5   1 15908.3 720.629  16
  -7  -5   0 366.967 192.298   8
  -7  -5  -1 14824.1 691.570   4
   7   5   1 14931.2 976.617  17
  -7  -5  -1 15739.4 736.014   8
  -7  -5  -2 40557.8 1144.61   4
   7   5   2 38660.8 1572.65  17
  -7  -5  -2 43464.3 1207.13   8
  -7  -5  -3 4733.70 414.220   4
   7   5   3 4903.34 577.026  17
  -7  -5  -3 5293.94 429.787   8
  -7  -5  -4-453.201 190.989   4
   7   5   4-62.4886 234.500  17
  -7  -5  -4-195.053 160.046   8
   7   5   5 2193.98 395.000  17
  -7  -5  -5 2522.58 333.845   4
   7   5   6-15.9088 57.7187  21
  -7  -5  -6 24.3028 141.078   4
   7   5   7 12863.3 898.772  21
  -7  -5  -7 13226.0 678.411   4
  -7  -5  -8 10001.3 596.595   4
   7   5   9 15376.9 675.715  12
  -7  -5  -9 16304.0 755.099   4
   7   5  10 1148.48 234.198  12
  -7  -5 -10 1476.29 272.675   4
   7   5  11-102.217 159.226  12
  -7  -5 -11-207.033 145.591   4
   7   5  12 5166.59 412.135  12
  -7  -5 -12 5601.78 429.680   4
   7   5  13 3374.61 334.047  12
   7   5  14 3246.73 318.605  12
   7   5  15 126.316 133.681  12
   7   5  16 302.434 109.442  10
  -7  -6   8 2435.92 211.949  15
  -7  -6   8 2503.08 198.496   7
  -7  -6   7 1009.35 180.528   7
  -7  -6   7 748.124 192.616  15
  -7  -6   6 184.323 181.969   7
  -7  -6   6 95.7411 170.846  15
  -7  -6   5 12995.7 652.002  15
  -7  -6   5 13728.7 638.654   7
  -7  -6   4 47251.7 1197.23   6
  -7  -6   4 49659.8 1284.32  15
  -7  -6   4 47706.9 1091.41  16
  -7  -6   3 3793.59 381.337   6
  -7  -6   3 4178.77 399.495  15
  -7  -6   3 4325.76 387.634  16
  -7  -6   2 23601.0 859.939   6
  -7  -6   2 23580.2 900.272  15
  -7  -6   2 24858.2 886.618  16
  -7  -6   1 3172.72 345.377   6
  -7  -6   1 3072.84 335.395  15
  -7  -6   1 2855.60 315.082  16
  -7  -6   0-92.1703 185.256  16
  -7  -6  -1 20269.7 842.979   8
   7   6   2 563.638 332.077  17
  -7  -6  -2 219.426 210.445   8
  -7  -6  -2 108.934 136.674   4
   7   6   3 563.649 263.893  17
  -7  -6  -3 805.595 193.630   8
  -7  -6  -3 232.898 180.372   4
  -7  -6  -4 29267.4 972.760   4
   7   6   4 28185.3 1342.86  17
  -7  -6  -4 27786.6 961.045   8
   7   6   5 214.706 135.765  17
  -7  -6  -5 49.5708 168.668   8
  -7  -6  -5-238.876 161.208   4
  -7  -6  -6 29079.4 990.423   4
   7   6   6 26415.5 1268.71  17
   7   6   7 11761.7 902.582  21
  -7  -6  -7 10694.7 613.550   4
  -7  -6  -8 467.133 176.784   4
  -7  -6  -9 29639.4 1035.64   4
   7   6  10 9448.98 526.828  12
  -7  -6 -10 9338.39 580.276   4
   7   6  11 20955.8 792.137  12
  -7  -6 -11 20748.0 848.316   4
   7   6  12 567.558 153.263  12
   7   6  12 617.436 174.667  11
  -7  -6 -12 322.292 181.900   4
   7   6  13 10871.9 553.596  12
   7   6  13 11596.1 550.868  11
  -7  -6 -13 11301.8 561.722   4
   7   6  14 1135.86 224.353  12
   7   6  15 147.636 152.859  12
   7   6  16 1612.10 173.004  10
  -7  -7   7 1178.79 182.631  15
  -7  -7   7 1421.77 179.819   7
  -7  -7   6 3583.79 324.975  15
  -7  -7   6 3863.58 309.048   7
  -7  -7   5 5300.62 416.783  15
  -7  -7   5 6035.10 417.864   7
  -7  -7   4 5708.90 457.167  15
  -7  -7   4 5803.15 379.874  16
  -7  -7   3 12466.4 602.960   6
  -7  -7   3 11169.5 620.848  15
  -7  -7   3 12527.6 607.935  16
  -7  -7   2 226.824 174.270  16
  -7  -7   2 40.6251 165.530  15
  -7  -7   1 438.241 184.216  16
  -7  -7   1 249.555 191.196  15
  -7  -7   0 1409.34 262.603  16
  -7  -7   0 1777.40 258.648  15
  -7  -7  -1 30086.7 989.688  16
  -7  -7  -2 2054.87 293.541  16
  -7  -7  -2 1730.54 280.095   8
  -7  -7  -3-296.500 172.624   8
  -7  -7  -3 64.0579 134.214   4
   7   7   4 338.917 254.393  17
  -7  -7  -4 146.880 96.9672   8
  -7  -7  -4 374.140 160.079   4
  -7  -7  -5 8794.25 551.791   4
   7   7   5 8968.86 768.464  17
  -7  -7  -5 8420.80 533.688   8
  -7  -7  -6 5980.01 470.000   4
   7   7   6 5895.25 653.049  17
  -7  -7  -6 6367.15 473.440   8
  -7  -7  -7 4639.89 424.502   4
  -7  -7  -8 1570.66 278.652   4
  -7  -7  -9 6982.72 533.417   4
   7   7  10-51.4406 77.2298  12
  -7  -7 -10 148.828 144.264   4
   7   7  11 603.947 156.923  12
  -7  -7 -11 945.119 258.684   4
   7   7  12 4125.27 354.870  12
   7   7  12 3897.25 359.814  11
  -7  -7 -12 4119.12 400.307   4
   7   7  13 1770.59 248.095  12
   7   7  13 2038.99 262.323  11
  -7  -7 -13 1768.62 271.636   4
   7   7  14 398.183 150.896  12
   7   7  14 424.251 169.374  11
   7   7  15 185.950 90.8187  11
   7   7  16 2986.06 215.099  10
  -7  -8   6 325.864 119.857   7
  -7  -8   5 17.5728 134.736   7
  -7  -8   5 126.882 130.475  15
  -7  -8   4 11172.7 568.319  15
  -7  -8   4 11030.7 491.407  16
  -7  -8   4 11023.4 544.103   7
  -7  -8   3 3747.50 370.882  15
  -7  -8   3 3759.33 341.376  16
  -7  -8   2 403.367 158.374  16
  -7  -8   2 330.131 192.997  15
  -7  -8   1 3056.03 346.048  15
  -7  -8   1 2919.93 343.209  16
  -7  -8   0 7972.92 533.414  15
  -7  -8   0 7083.31 502.750  16
  -7  -8  -1 9644.95 585.709  16
  -7  -8  -2 43515.0 1192.70  16
  -7  -8  -3 15084.2 713.452  16
  -7  -8  -4 31125.0 990.029   4
  -7  -8  -4 29019.8 944.524   8
  -7  -8  -4 30636.6 979.223  16
  -7  -8  -5 32523.0 1033.98   4
  -7  -8  -5 31768.9 978.165   8
  -7  -8  -5 33057.7 1001.53  16
  -7  -8  -6 639.094 180.203  16
  -7  -8  -6 121.129 162.136   4
  -7  -8  -7 12681.7 675.754   4
  -7  -8  -7 12223.5 579.187  16
  -7  -8  -8 1010.26 247.904   4
  -7  -8  -9 16246.2 781.732   4
  -7  -8 -10 2514.07 336.011   4
   7   8  11 238.960 87.5957  12
  -7  -8 -11 248.819 171.697   4
   7   8  12 1072.26 190.815  12
  -7  -8 -12 502.953 176.501   4
   7   8  13 8048.87 456.358  12
  -7  -8 -13 7345.46 494.713   4
   7   8  13 8277.49 486.258  11
   7   8  14 71.5474 107.756  11
   7   8  15 1127.20 175.213  11
   7   8  16 528.715 105.100  11
   7   8  16 276.947 94.3837  10
  -7  -9   5 1681.50 187.406   7
  -7  -9   4 2512.87 232.018  16
  -7  -9   4 2324.74 241.055   7
  -7  -9   3 2037.39 250.376   7
  -7  -9   3 2238.01 264.870  16
  -7  -9   2 9476.88 522.403  16
  -7  -9   2 10575.4 530.228   7
  -7  -9   1 12017.8 621.110  16
  -7  -9   0 10229.6 590.938  16
  -7  -9  -1 8090.90 533.515  16
  -7  -9  -2 1770.83 280.048  16
  -7  -9  -3 2130.89 320.896  16
  -7  -9  -4 395.921 178.000  16
  -7  -9  -5 167.395 178.486  16
  -7  -9  -5 176.577 152.921   4
  -7  -9  -6 494.999 149.469  16
  -7  -9  -6 482.807 169.610   4
  -7  -9  -7 14787.5 728.691   4
  -7  -9  -7 14657.5 642.570  16
  -7  -9  -8 779.264 204.510   4
  -7  -9  -9 537.128 219.199   4
   7   9  10 502.710 183.569   5
  -7  -9 -10 391.534 199.563   4
   7   9  11 1316.09 230.419   5
  -7  -9 -11 1212.13 265.788   4
   7   9  12 1919.59 246.691   5
  -7  -9 -12 2626.88 326.140   4
   7   9  13 445.673 179.575  11
  -7  -9 -13 482.100 190.421   4
   7   9  14 207.028 139.223  11
   7   9  15 4323.75 302.358  11
   7   9  16 534.361 100.877  11
  -7 -10   4 21718.5 523.526   7
  -7 -10   3 5424.76 339.244  16
  -7 -10   3 5267.61 312.870   7
  -7 -10   2 260.926 157.260   7
  -7 -10   2 222.094 158.160  16
  -7 -10   1 2002.94 234.975   7
  -7 -10   1 2097.29 292.002  16
  -7 -10   0 46.5411 156.994  16
  -7 -10  -1 6776.00 491.340  16
  -7 -10  -2 8050.93 517.352  16
  -7 -10  -3 2186.52 308.804  16
  -7 -10  -4 36820.7 1077.78  16
  -7 -10  -5 2481.50 312.203  16
  -7 -10  -6 1271.57 210.218  16
  -7 -10  -6 1023.56 241.140   4
  -7 -10  -7 8375.11 547.721   4
  -7 -10  -7 8641.95 499.130  16
  -7 -10  -8 793.841 241.039   4
   7  10   9 1872.02 282.204   5
  -7 -10  -9 1851.47 285.912   4
   7  10  10 269.607 159.560   5
  -7 -10 -10 76.5444 144.973   4
   7  10  11 1205.79 219.357   5
  -7 -10 -11 1326.44 274.050   4
   7  10  12 509.053 161.741   5
  -7 -10 -12 446.417 198.901   4
   7  10  13 75.2440 109.396   5
   7  10  13 2.56330 148.700  11
   7  10  14 890.910 180.008  11
   7  10  15 17.7558 121.603  11
   7  10  16 9116.57 336.494  11
  -7 -11   3 12338.1 411.851  16
  -7 -11   2 3001.30 267.885  16
  -7 -11   1 246.871 152.335  16
  -7 -11   0 1504.10 258.572  16
  -7 -11  -1 606.942 196.513  16
  -7 -11  -2 19409.9 776.158  16
  -7 -11  -3 8478.04 535.734  16
  -7 -11  -4 561.486 217.514  16
  -7 -11  -5 3328.99 341.332  16
  -7 -11  -6 447.656 176.442  16
  -7 -11  -7-117.165 145.213  16
  -7 -11  -7 126.782 153.419   4
   7  11   8 8239.10 535.116   5
  -7 -11  -8 7795.96 520.437   4
   7  11   9 627.704 200.476   5
  -7 -11  -9 73.4035 167.806   4
   7  11  10 2835.74 322.942   5
  -7 -11 -10 2937.48 361.470   4
   7  11  11-277.635 159.159   5
  -7 -11 -11-44.8393 156.301   4
   7  11  12 996.480 196.559   5
   7  11  13 179.920 132.585   5
   7  11  13-7.12843 131.413  11
   7  11  14 13262.6 530.025  11
   7  11  15 19186.3 562.290  11
  -7 -12   2 1329.93 161.108  16
  -7 -12   1 6859.09 366.194  16
  -7 -12   0 1048.93 191.197  16
  -7 -12  -1 1752.15 255.054  16
  -7 -12  -2 370.147 163.708  16
   7  12   3 4594.62 344.655   5
  -7 -12  -3 4947.57 402.186  16
   7  12   4 6062.04 415.144   5
  -7 -12  -4 6322.62 448.311  16
  -7 -12  -5 780.178 203.439  16
   7  12   5 673.001 195.514   5
  -7 -12  -6 158.856 124.879  16
   7  12   6-186.730 158.699   5
   7  12   7 5313.80 418.071   5
  -7 -12  -7 5156.48 365.945  16
   7  12   8 69.9146 146.079   5
  -7 -12  -8-154.102 132.423   4
   7  12   9 14117.9 657.336   5
  -7 -12  -9 12658.9 624.170   4
   7  12  10-249.682 167.781   5
  -7 -12 -10-296.644 161.802   4
   7  12  11 3246.68 323.928   5
   7  12  12 1789.39 233.094   5
   7  12  13 2446.11 243.417   5
   7  12  13 2627.11 258.097  11
   7  12  14 4349.91 249.956   5
   7  12  14 4352.06 302.431  11
   7  12  15 184.916 103.592  11
  -7 -13   1-218.900 90.2909  16
  -7 -13   0 876.086 163.966  16
  -7 -13  -1 1305.50 201.724  16
  -7 -13  -2 89.3615 141.729  16
  -7 -13  -3 1257.08 207.916  16
  -7 -13  -4-223.633 159.430  16
   7  13   4 107.348 139.952   5
  -7 -13  -5 152.864 108.602  16
   7  13   5 346.876 143.978   5
  -7 -13  -6 1246.78 200.006  16
   7  13   6 1560.86 238.558   5
   7  13   7 3985.80 352.067   5
   7  13   8 1719.88 236.260   5
   7  13   9 811.047 222.002   5
   7  13  10 2793.98 289.632   5
   7  13  11 2907.71 290.895   5
   7  13  12 724.549 149.295   5
   7  13  13 1581.07 190.944   5
   7  13  13 1592.52 209.006  11
   7  13  14 2278.48 199.079  11
  -7 -14  -1 600.273 118.232  16
  -7 -14  -2 1254.79 166.583  16
  -7 -14  -3 3766.73 275.048  16
  -7 -14  -4 3102.61 264.847  16
  -7 -14  -5 896.222 169.769  16
   7  14   5 745.941 138.464   5
  -7 -14  -6 452.367 152.623  16
   7  14   6 245.758 116.424   5
  -7 -14  -6 142.547 117.775   1
   7  14   7 182.574 112.817   5
   7  14   8-92.2264 112.906   5
   7  14   9 3029.57 284.475   5
   7  14  10 1720.67 217.899   5
   7  14  11 29.1418 116.667   5
   7  14  12 38.2396 97.9733   5
   7  14  12 105.975 109.979  11
  -7 -14 -13 213.492 105.687   1
   7  14  13 165.890 84.8797   5
   7  14  13 195.068 105.655  11
  -7 -15  -4-21.0320 71.1275  16
  -7 -15  -5 252.921 104.661  16
   7  15   7-92.1939 74.7495   5
  -7 -15  -7-2.80838 79.3466   1
  -7 -15  -8 198.032 104.425   1
   7  15   8 163.541 96.8513   5
   7  15   9-63.5384 91.9449   5
  -7 -15  -9-12.5984 101.978   1
   7  15  10 2251.35 205.956   5
  -7 -15 -10 2210.80 204.529   1
  -7 -15 -11-45.5027 91.3174   1
   7  15  11-58.2382 79.2189   5
   7  15  11 72.2599 73.8866  11
   8  -8  -1 424.838 119.484   1
   8  -8   0 420.937 132.280   1
   8  -8   1 97.2753 114.651   1
   8  -8   2 575.011 149.023   1
   8  -8   3-17.9618 89.2275   1
   8  -8   3 7.44919 84.1658   9
  -8   7   6 2605.61 207.748   4
  -8   7   5 2126.29 221.164   4
  -8   7   4 1815.07 211.641   4
  -8   7   3 4598.38 305.057   4
  -8   7   2 4753.25 317.568   4
   8  -7  -1-94.6303 144.313   1
   8  -7   0 157.462 160.816   1
   8  -7   1-85.8327 156.128   1
   8  -7   2 549.163 182.630   1
   8  -7   3 2098.09 263.928   1
   8  -7   4 3095.60 282.598   1
   8  -7   4 2609.94 223.805   9
   8  -7   5 1144.23 171.810   1
   8  -7   5 1169.16 153.703   9
  -8   6   7 3003.80 224.205   4
  -8   6   6 3731.91 283.982   4
  -8   6   5 2498.04 210.767   6
  -8   6   5 2689.19 267.632   4
  -8   6   4 649.386 200.943   4
  -8   6   3 253.094 161.806   4
  -8   6   2 2647.96 305.181   4
  -8   6   1 1362.95 253.434   4
   8  -6  -1 1284.85 226.018   1
   8  -6   0 3324.94 342.871   1
  -8   6   0 3247.52 303.668   4
   8  -6   1 10546.8 590.957   1
   8  -6   2 867.634 258.839   1
   8  -6   3-208.120 155.609   1
   8  -6   4 553.748 195.846   1
   8  -6   5 112.176 121.585   1
   8  -6   5 120.551 121.435   9
   8  -6   6 119.478 124.094   1
   8  -6   6 50.5668 103.507  12
   8  -6   6-161.167 110.376   9
   8  -6   7 473.173 121.778  12
  -8   5   7 961.343 164.883   4
  -8   5   6 6712.96 338.831   6
  -8   5   6 8055.89 452.042   4
  -8   5   5 4617.10 369.560   4
  -8   5   4 648.416 222.461   4
  -8   5   3 3216.90 363.500   4
  -8   5   2 144.504 171.489   4
   8  -5  -1 7120.11 481.838   1
  -8   5   1 7166.55 498.968   4
  -8   5   0 1539.51 262.448   4
   8  -5   0 1322.65 279.386   1
  -8   5  -1 312.296 160.934   4
   8  -5   1 601.589 231.804   1
   8  -5   2 2847.54 366.029   1
   8  -5   3 602.524 230.112   1
   8  -5   4 4489.37 423.857   1
   8  -5   5 7657.95 510.337   1
   8  -5   6 1927.20 259.093   1
   8  -5   6 2142.12 237.506   9
   8  -5   7 330.859 142.072  12
   8  -5   7-18.8847 101.008   9
   8  -5   7 266.078 122.820   1
   8  -5   8 305.962 116.716  12
  -8   4   8 1983.62 172.690   4
  -8   4   7 998.419 174.783   4
  -8   4   7 829.768 149.244   6
  -8   4   6 885.669 204.914   4
  -8   4   6 874.128 168.145   6
  -8   4   5 5753.27 442.254   4
  -8   4   4 3259.52 363.140   4
  -8   4   3 488.630 201.170   4
  -8   4   2 1347.94 263.845   4
  -8   4   1-171.059 196.186   4
   8  -4  -1-192.549 160.579   1
  -8   4   0 324.899 176.221   4
   8  -4   0 543.413 202.295   1
  -8   4  -1 74.7315 123.370   4
   8  -4   1-122.971 154.067   1
  -8   4  -2 401.831 171.228   4
   8  -4   2 266.608 187.985   1
   8  -4   3 17682.3 840.579   1
   8  -4   4 93.0024 175.400   1
   8  -4   5 6207.10 505.358   1
   8  -4   6 1042.94 251.957   1
   8  -4   7-0.91679 132.635   1
   8  -4   7-119.913 150.138   9
   8  -4   8 7596.87 411.998  12
   8  -4   9-23.6264 95.3838  12
   8  -4  10 1093.46 127.642  12
  -8   3   8 104.220 72.4534   4
  -8   3   8 334.041 103.405   6
  -8   3   7 3236.20 270.433   6
  -8   3   7 3245.79 279.261   4
  -8   3   6 2852.59 280.992   6
  -8   3   6 3098.72 312.555   4
  -8   3   5 638.076 223.866   4
  -8   3   4 284.827 201.828   4
  -8   3   3 278.737 197.745   4
  -8   3   2 821.394 249.321   4
  -8   3   1 1811.97 328.374   4
  -8   3   0 1917.86 313.830   4
   8  -3   0 2504.90 340.219   1
  -8   3  -1 4.73966 158.417   4
   8  -3   1 175.862 188.985   1
   8  -3   2 9941.61 646.190   1
  -8   3  -2 10297.8 600.361   4
   8  -3   3 2319.05 354.013   1
  -8   3  -3 2832.20 321.226   4
   8  -3   4 2197.27 347.162   1
   8  -3   5 11707.2 699.758   1
   8  -3   6-27.7949 168.201   1
   8  -3   7 4688.54 418.731   1
   8  -3   8 1104.04 232.358  12
   8  -3   8 1193.77 228.894   1
   8  -3   9 1881.31 242.557  12
   8  -3  10 740.455 147.169  12
   8  -3  11 2213.64 174.323  12
  -8   2   8 6323.11 326.604   6
  -8   2   7 1639.49 224.542   6
  -8   2   7 1499.73 188.348   4
  -8   2   6 2928.73 302.638   6
  -8   2   6 3308.79 338.060   4
  -8   2   5 609.147 206.922   4
  -8   2   4 60.9251 184.243   4
  -8   2   3 5558.87 492.073   4
  -8   2   2 6604.02 524.534   4
  -8   2   1 1699.57 311.413   4
  -8   2   0 11.6135 196.686   4
   8  -2   0 104.375 174.460   1
  -8   2  -1 2577.74 334.424   4
   8  -2   1 2391.06 332.865   1
   8  -2   2 4431.72 445.339   1
  -8   2  -2 4120.62 402.087   4
  -8   2  -3-77.2930 129.548   4
   8  -2   3-75.6109 186.372   1
  -8   2  -3 224.703 143.150   8
  -8   2  -4 45.1946 127.113   4
   8  -2   4-109.025 200.193   1
   8  -2   5 11667.1 724.494   1
   8  -2   6 4528.20 462.110   1
   8  -2   7 12301.5 698.879   1
   8  -2   8 864.803 206.073  12
   8  -2   8 573.168 206.648   1
   8  -2   9 12907.5 584.794  12
   8  -2  10 14990.6 573.465  12
   8  -2  11 13925.5 481.500  12
  -8   1   8 937.321 165.329   6
  -8   1   7 298.733 133.712   6
  -8   1   6 455.830 192.846   4
  -8   1   6 241.982 154.066   6
  -8   1   5 5102.48 420.856   6
  -8   1   5 5289.66 432.264   4
  -8   1   4-51.9987 168.578   4
  -8   1   3 59.2981 186.707   4
  -8   1   2 16068.9 823.381   4
  -8   1   1-1.32185 137.191   4
  -8   1   1-178.949 171.838   8
  -8   1   0 8693.93 592.323   4
  -8   1   0 9774.09 562.727   8
   8  -1   1 3750.33 410.819   1
  -8   1  -1 4538.30 457.134   4
  -8   1  -1 4371.65 397.556   8
   8  -1   2 43417.2 1325.84   1
  -8   1  -2 42802.8 1287.63   4
  -8   1  -2 44221.0 1180.30   8
   8  -1   3 15078.5 806.773   1
  -8   1  -3 14151.3 726.982   4
  -8   1  -3 14888.4 711.145   8
   8  -1   4 7896.95 608.151   1
  -8   1  -4 7730.76 535.608   4
  -8   1  -5 1739.91 256.191   4
   8  -1   5 1482.03 314.207   1
   8  -1   6 15605.6 817.766   1
   8  -1   7 4738.56 461.653   1
   8  -1   8 13602.1 718.321   1
   8  -1   8 13172.8 646.330  12
   8  -1   9 1717.16 270.462  12
   8  -1  10 8037.38 465.417  12
   8  -1  11 923.295 179.833  12
   8  -1  12 1952.53 196.548  12
  -8   0   8 1037.46 172.232   6
  -8   0   7 1145.73 208.851   6
  -8   0   6 574.840 151.844   4
  -8   0   6 666.025 201.749   6
  -8   0   5 283.916 171.376   4
  -8   0   5 245.380 169.120   6
  -8   0   4 2639.23 329.011   4
  -8   0   3 13609.1 728.660   4
  -8   0   2 14058.7 757.223   4
  -8   0   1 1509.46 289.877   4
  -8   0   1 1301.00 242.089   8
  -8   0   0 8023.90 582.269   4
  -8   0   0 8293.62 530.974   8
   8   0   1 549.230 216.953   1
  -8   0  -1 360.310 177.676   4
  -8   0  -1 279.779 180.806   8
   8   0   2 19566.7 881.990   1
  -8   0  -2 19010.5 869.779   4
  -8   0  -2 18023.6 784.661   8
   8   0   3 40773.1 1301.06   1
  -8   0  -3 43030.4 1271.71   4
  -8   0  -3 42819.2 1208.88   8
  -8   0  -4 2085.40 308.476   4
   8   0   4 1986.30 343.523   1
  -8   0  -5 1857.51 281.066   4
   8   0   5 2295.41 359.200   1
   8   0   6 34743.4 1215.91   1
  -8   0  -6 34791.0 1062.33   4
   8   0   7 558.277 237.930   1
   8   0   8 15556.8 712.346  12
   8   0   9 29.2911 139.887  12
   8   0  10 3215.39 327.591  12
   8   0  11 192.307 153.147  12
   8   0  12 85.4227 119.580  12
   8   0  12 250.037 82.4959  10
   8   0  13-70.2039 90.3075  12
  -8  -1   8 7641.64 374.114   6
  -8  -1   7 4281.73 337.504   6
  -8  -1   7 4165.43 268.676   7
  -8  -1   6 141.708 128.700   7
  -8  -1   6 524.819 187.565   6
  -8  -1   5-107.647 140.995   4
  -8  -1   5 81.4429 170.943   6
  -8  -1   4 22251.7 877.325   6
  -8  -1   4 21313.5 832.911   4
  -8  -1   3 1905.17 295.285   4
  -8  -1   2 2881.11 368.079   4
  -8  -1   1 5819.59 507.713   4
  -8  -1   1 5302.77 441.653   8
  -8  -1   0 5427.12 491.636   4
  -8  -1   0 5423.37 431.141   8
  -8  -1  -1 33053.6 1138.98   4
  -8  -1  -1 33213.0 1073.01   8
   8   1   2 60790.7 1516.19   1
  -8  -1  -2 61564.9 1537.72   4
  -8  -1  -2 60111.6 1452.72   8
  -8  -1  -3 409.523 213.328   8
   8   1   3 125.573 182.423   1
   8   1   4 86474.6 1877.02   1
  -8  -1  -4 90754.5 1823.16   4
   8   1   5 15853.0 824.358   1
  -8  -1  -5 15806.9 761.347   4
   8   1   6 6352.64 535.572   1
  -8  -1  -6 7189.24 506.525   4
   8   1   7 1958.48 285.056  12
  -8  -1  -7 2110.63 279.522   4
   8   1   8 2334.28 320.338  12
  -8  -1  -8 2582.20 296.915   4
   8   1   9 9067.67 542.457  12
   8   1  10 2090.83 286.619  12
   8   1  11 2193.24 272.561  12
   8   1  12 5.70361 139.621  12
   8   1  13 114.242 123.194  12
   8   1  13 41.9655 96.0790  10
   8   1  14 5556.63 260.912  12
  -8  -2   8 675.960 108.861   7
  -8  -2   7 4698.27 344.294   6
  -8  -2   7 4032.60 273.362   7
  -8  -2   6 966.715 187.768   7
  -8  -2   6 1044.34 222.324   6
  -8  -2   5 137.391 183.955   6
  -8  -2   4 15405.2 737.049   6
  -8  -2   3 6772.25 478.734   4
  -8  -2   2 450.112 208.619   4
  -8  -2   1 30088.8 1062.72   4
  -8  -2   0 3239.94 387.258   4
  -8  -2   0 3657.18 396.821   8
  -8  -2  -1 838.633 236.511   4
  -8  -2  -1 931.187 251.639   8
  -8  -2  -2 3898.83 413.751   4
  -8  -2  -2 3612.34 390.900   8
  -8  -2  -3 7766.46 570.741   4
  -8  -2  -3 7978.95 547.323   8
  -8  -2  -4 3693.13 403.639   4
  -8  -2  -5 5956.94 495.546   4
   8   2   6 4262.74 360.291  12
  -8  -2  -6 3991.57 395.610   4
   8   2   7 5025.85 407.273  12
  -8  -2  -7 4069.62 392.039   4
   8   2   8 910.594 224.006  12
  -8  -2  -8 495.018 168.710   4
   8   2   9 18250.2 749.421  12
  -8  -2  -9 18328.8 726.371   4
   8   2  10 386.941 183.367  12
   8   2  11 5022.02 407.009  12
   8   2  12 1439.30 223.032  12
   8   2  13 2758.56 262.824  12
   8   2  14 2264.09 201.926  12
   8   2  14 1873.63 169.863  10
  -8  -3   8 2073.50 164.602   7
  -8  -3   7 3384.15 290.104   6
  -8  -3   7 2867.10 243.548  15
  -8  -3   7 3036.99 242.134   7
  -8  -3   6 312.979 156.864   7
  -8  -3   6 152.713 155.319   6
  -8  -3   6 594.660 162.354  15
  -8  -3   5 60.9228 167.475   6
  -8  -3   4 8983.78 558.859   6
  -8  -3   3 4208.49 414.820   6
  -8  -3   3 4089.04 353.411  16
  -8  -3   2 4539.97 392.317   4
  -8  -3   1 3829.44 403.040   4
  -8  -3   0 915.864 252.391   4
  -8  -3   0 359.638 194.083   8
  -8  -3  -1 3552.96 383.314   4
  -8  -3  -1 3809.62 411.411   8
  -8  -3  -2 43848.2 1275.80   4
  -8  -3  -2 43341.4 1265.40   8
  -8  -3  -3 29692.8 1052.38   4
  -8  -3  -3 29182.3 1035.35   8
  -8  -3  -4 1642.51 309.222   4
  -8  -3  -4 1463.23 284.005   8
  -8  -3  -5 14121.8 731.929   4
  -8  -3  -6 16878.1 781.738   4
   8   3   7 8261.32 484.873  12
  -8  -3  -7 7489.93 540.587   4
   8   3   8 9863.26 554.192  12
  -8  -3  -8 9863.08 581.364   4
   8   3   9 156.248 138.053  12
  -8  -3  -9 666.068 193.229   4
   8   3  10 1503.20 245.075  12
  -8  -3 -10 1614.62 247.723   4
   8   3  11 10103.2 540.332  12
   8   3  12 168.550 136.277  12
   8   3  13-16.6437 137.625  12
   8   3  14 10890.7 438.095  12
   8   3  15 1401.74 143.173  12
  -8  -4   7 1693.77 190.600  15
  -8  -4   7 2124.51 207.475   7
  -8  -4   6 33.6083 112.650   7
  -8  -4   6 57.1740 123.716   6
  -8  -4   6 93.4091 131.210  15
  -8  -4   5 512.310 207.208   6
  -8  -4   5 1018.77 229.566  15
  -8  -4   4 12275.8 623.927   6
  -8  -4   3 352.623 140.504  16
  -8  -4   3 93.9318 173.364   6
  -8  -4   2 45.8777 154.953  16
  -8  -4   2 14.1938 153.099   6
  -8  -4   1 1972.84 295.341   4
  -8  -4   0 30102.4 1020.38   4
  -8  -4  -1 17164.1 786.778   4
  -8  -4  -1 15488.5 769.829   8
  -8  -4  -2 681.066 196.574   4
  -8  -4  -2 296.890 213.622   8
  -8  -4  -3 105681. 1953.37   4
  -8  -4  -3 105483. 1963.42   8
  -8  -4  -4 9946.07 609.623   4
  -8  -4  -4 9660.70 614.330   8
  -8  -4  -5 5984.77 487.904   4
  -8  -4  -6 30774.1 1057.10   4
  -8  -4  -7 791.893 237.932   4
   8   4   8 8449.48 496.920  12
  -8  -4  -8 8723.68 568.393   4
   8   4   9 9663.62 534.548  12
  -8  -4  -9 9579.35 574.638   4
   8   4  10 2011.27 272.819  12
  -8  -4 -10 1760.46 278.697   4
   8   4  11 25689.7 838.380  12
  -8  -4 -11 25468.7 833.007   4
   8   4  12 2195.65 275.800  12
   8   4  13 349.163 144.142  12
   8   4  14 807.357 170.939  12
   8   4  15 1143.29 148.524  12
   8   4  15 1358.73 150.723  10
  -8  -5   7 177.137 99.8140   7
  -8  -5   6 448.471 162.051   7
  -8  -5   6 335.398 147.954  15
  -8  -5   5-163.647 140.946   7
  -8  -5   5 57.9210 133.753   6
  -8  -5   5 59.1101 144.924  15
  -8  -5   4 415.747 186.172   6
  -8  -5   4 417.650 160.674  15
  -8  -5   3 708.276 178.820  16
  -8  -5   3 227.369 159.967   6
  -8  -5   2 4062.91 382.368   6
  -8  -5   2 3931.62 363.688  16
  -8  -5   1 13972.3 661.068   6
  -8  -5   1 14214.9 683.590  16
  -8  -5   0 13544.9 649.871   6
  -8  -5   0 14239.6 677.457   4
  -8  -5  -1 12145.5 644.694   4
  -8  -5  -1 11903.5 671.488   8
  -8  -5  -2 32033.2 1056.55   4
  -8  -5  -2 33162.5 1109.75   8
  -8  -5  -3 38301.3 1172.43   4
  -8  -5  -3 40476.5 1221.51   8
  -8  -5  -4 41555.4 1220.36   4
  -8  -5  -4 40789.5 1231.13   8
  -8  -5  -5 1470.02 290.774   8
  -8  -5  -5 1579.80 281.144   4
  -8  -5  -6 229.859 208.949   4
  -8  -5  -7 2164.22 328.530   4
  -8  -5  -8 475.851 218.636   4
  -8  -5  -9-16.8130 132.119   4
   8   5  10 1787.31 223.171  12
  -8  -5 -10 1578.43 270.771   4
   8   5  11 3126.53 316.293  12
  -8  -5 -11 3397.53 340.553   4
   8   5  12 4659.32 362.348  12
  -8  -5 -12 5267.43 381.841   4
   8   5  13-204.332 129.495  12
   8   5  14 316.159 125.169  12
   8   5  15 987.267 142.892  12
   8   5  15 998.499 149.957  10
  -8  -6   6 751.911 151.659   7
  -8  -6   6 986.635 164.757  15
  -8  -6   5 10508.5 470.671  15
  -8  -6   5 10804.1 490.678   7
  -8  -6   4 6788.51 421.318   6
  -8  -6   4 6709.45 419.901  15
  -8  -6   3 12633.4 594.922   6
  -8  -6   3 13109.0 592.483  15
  -8  -6   3 12411.6 555.138  16
  -8  -6   2 15902.4 665.739   6
  -8  -6   2 16640.1 689.111  16
  -8  -6   1 17400.6 715.650   6
  -8  -6   1 16561.7 725.603  16
  -8  -6   0 175.097 185.033  16
  -8  -6  -1 6236.88 483.509   4
  -8  -6  -1 6126.43 473.124  16
  -8  -6  -2 2568.76 317.113   4
  -8  -6  -2 2716.91 354.249   8
  -8  -6  -3 11349.2 630.262   4
  -8  -6  -3 12462.8 694.794   8
  -8  -6  -4 25291.7 956.649   4
  -8  -6  -4 25366.6 963.288   8
  -8  -6  -5 541.929 203.056   8
  -8  -6  -5 708.753 221.105   4
  -8  -6  -6 1679.03 265.623   8
  -8  -6  -6 2034.73 305.584   4
  -8  -6  -7 29376.6 1031.95   4
  -8  -6  -7 29074.0 1024.86   8
  -8  -6  -8 18484.0 818.512   4
  -8  -6  -9 28753.0 1005.24   4
  -8  -6 -10 35.0159 165.351   4
   8   6  11-30.8170 107.099  12
  -8  -6 -11 222.597 172.984   4
   8   6  12 365.173 158.812  12
  -8  -6 -12 118.922 151.169   4
   8   6  13 1429.47 218.524  12
  -8  -6 -13 1027.85 194.896   4
   8   6  14 271.954 141.724  12
  -8  -7   6 2790.90 202.918   7
  -8  -7   5 6304.86 350.637   7
  -8  -7   4 24273.5 721.268  15
  -8  -7   4 25247.8 754.552   7
  -8  -7   3 7493.62 444.581  15
  -8  -7   3 7426.66 421.470  16
  -8  -7   2 17959.9 694.152  15
  -8  -7   2 16567.9 675.094  16
  -8  -7   1 164.691 187.484  16
  -8  -7   0 7483.04 503.128  16
  -8  -7  -1 13825.3 679.208  16
  -8  -7  -2 2131.13 303.100   4
  -8  -7  -2 2177.59 328.072  16
  -8  -7  -3 3185.99 366.773   4
  -8  -7  -3 3373.53 373.165   8
  -8  -7  -3 3294.14 368.671  16
  -8  -7  -4-138.505 190.386   8
  -8  -7  -4 104.755 166.634   4
  -8  -7  -5 9051.89 573.556   4
  -8  -7  -5 9041.08 584.158   8
  -8  -7  -6-74.6342 146.057   8
  -8  -7  -6-135.998 180.729   4
  -8  -7  -7 1830.95 284.114   8
  -8  -7  -7 1705.31 290.311   4
  -8  -7  -8 811.004 232.168   4
  -8  -7  -8 986.068 231.288   8
  -8  -7  -9 86.2199 176.045   4
  -8  -7 -10 4486.63 432.031   4
  -8  -7 -11 178.566 167.015   4
   8   7  12 141.577 129.925  12
  -8  -7 -12-61.9998 172.059   4
   8   7  13 5697.98 367.712  12
  -8  -7 -13 4916.05 369.332   4
   8   7  14-17.7238 112.328  12
  -8  -8   5 387.201 116.288   7
  -8  -8   4 10907.4 452.424   7
  -8  -8   3 4424.86 305.727  16
  -8  -8   3 4892.85 357.165   7
  -8  -8   2 9199.80 485.257  16
  -8  -8   1 349.305 166.668  16
  -8  -8   0 5443.96 438.629  16
  -8  -8  -1 4532.62 417.260  16
  -8  -8  -2 253.289 200.822  16
  -8  -8  -3 4950.06 411.640   4
  -8  -8  -3 5187.23 445.530  16
  -8  -8  -4 3737.09 357.103   4
  -8  -8  -4 3597.45 362.211   8
  -8  -8  -4 3437.05 361.001  16
  -8  -8  -5 1870.32 288.623  16
  -8  -8  -5 2108.36 293.419   8
  -8  -8  -5 2340.10 320.013   4
  -8  -8  -6 1932.10 279.386  16
  -8  -8  -6 1924.71 288.147   8
  -8  -8  -6 1513.05 281.381   4
  -8  -8  -7 1474.58 232.702  16
  -8  -8  -7 1322.20 260.277   4
  -8  -8  -7 1539.34 269.345   8
  -8  -8  -8 106.987 179.730   4
  -8  -8  -8-12.0024 110.502   8
  -8  -8  -9 3442.71 381.819   4
  -8  -8  -9 3767.74 357.319   8
  -8  -8 -10 1514.77 266.047   4
   8   8  11 358.045 139.568   5
  -8  -8 -11 453.018 174.802   4
   8   8  12-108.875 139.625  11
  -8  -8 -12 35.6772 177.051   4
  -8  -8 -13 7461.10 447.018   4
   8   8  13 6671.97 383.635  11
   8   8  14 2086.58 206.058  11
  -8  -9   4 1981.79 183.190   7
  -8  -9   3-142.882 124.833   7
  -8  -9   3-66.0920 100.925  16
  -8  -9   2 1297.65 201.443   7
  -8  -9   2 1760.74 239.286  16
  -8  -9   1 2149.19 270.797  16
  -8  -9   0 4295.76 373.016  16
  -8  -9  -1 101.083 166.604  16
  -8  -9  -2 15774.4 710.604  16
  -8  -9  -3 6065.80 459.997  16
  -8  -9  -4 20995.5 777.928   4
  -8  -9  -4 20823.7 808.638  16
  -8  -9  -5-124.155 160.173  16
  -8  -9  -5 165.586 146.538   4
  -8  -9  -6 6622.10 476.727   4
  -8  -9  -6 7305.58 476.709  16
  -8  -9  -7 1967.24 259.761  16
  -8  -9  -7 1485.04 278.919   4
  -8  -9  -8 2981.19 359.146   4
  -8  -9  -9 310.255 219.592   4
   8   9  10 1881.43 261.758   5
  -8  -9 -10 2129.64 304.875   4
   8   9  11 48.8502 132.448   5
  -8  -9 -11 245.580 164.230   4
  -8  -9 -12 170.762 161.711   4
   8   9  13-0.68688 106.545  11
  -8  -9 -13-89.9819 149.231   4
   8   9  14 1199.28 169.764  11
  -8 -10   2 4761.61 298.133  16
  -8 -10   2 4399.26 274.656   7
  -8 -10   1 4731.29 347.356  16
  -8 -10   1 4785.05 310.165   7
  -8 -10   0 10117.0 522.891  16
  -8 -10  -1 4395.49 383.472  16
  -8 -10  -2 2027.21 290.483  16
  -8 -10  -3 3325.11 352.961  16
  -8 -10  -4 2446.16 311.783  16
  -8 -10  -5 313.961 199.663  16
  -8 -10  -5 167.639 144.729   4
  -8 -10  -6 30.7365 155.908  16
  -8 -10  -6-149.340 122.166   4
  -8 -10  -7 550.880 173.172  16
  -8 -10  -7 395.870 183.823   4
  -8 -10  -8-35.7274 164.455   4
  -8 -10  -9 4111.58 396.436   4
   8  10  10 3899.26 359.041   5
  -8 -10 -10 3415.86 366.018   4
   8  10  11 705.368 196.354   5
  -8 -10 -11 715.526 211.795   4
   8  10  12 2052.03 234.222   5
  -8 -10 -12 2421.83 309.736   4
   8  10  13 66.4989 104.966  11
   8  10  14 414.349 136.126  11
  -8 -11   2 2828.83 192.478  16
  -8 -11   1 4319.67 285.920  16
  -8 -11   0 562.013 164.420  16
  -8 -11  -1 502.111 183.258  16
  -8 -11  -2 1370.88 243.322  16
  -8 -11  -3 3077.91 327.171  16
  -8 -11  -4 1156.35 230.476  16
  -8 -11  -5 290.758 183.209  16
  -8 -11  -6 216.301 162.222  16
  -8 -11  -7 1100.64 204.730  16
  -8 -11  -7 865.442 205.238   4
   8  11   8 3194.46 333.256   5
  -8 -11  -8 4142.33 372.119   4
   8  11   9 7006.15 464.952   5
  -8 -11  -9 6429.51 452.488   4
   8  11  10 127.223 133.783   5
  -8 -11 -10 62.7363 158.158   4
   8  11  11 87.6498 127.962   5
  -8 -11 -11 70.1032 163.451   4
   8  11  12 3476.89 273.612   5
  -8 -11 -12 3902.52 337.864   4
   8  11  13 593.888 125.417   5
   8  11  13 661.583 153.842  11
   8  11  14 3516.76 244.060  11
  -8 -12   0 186.541 111.610  16
  -8 -12  -1-110.478 115.101  16
  -8 -12  -2 146.451 135.276  16
  -8 -12  -3 426.048 157.314  16
   8  12   3 530.687 152.945   5
   8  12   4 2998.08 277.555   5
  -8 -12  -4 2555.11 278.072  16
   8  12   5 1856.45 255.891   5
  -8 -12  -5 2409.97 268.917  16
  -8 -12  -6 296.464 152.301  16
   8  12   6 267.433 175.167   5
  -8 -12  -7 985.062 187.412  16
   8  12   7 1030.44 225.833   5
   8  12   8 4876.99 384.241   5
  -8 -12  -8 4485.27 347.413   4
   8  12   9 213.396 168.926   5
  -8 -12  -9 212.283 123.905   4
   8  12  10 3300.37 294.159   5
  -8 -12 -10 2755.66 294.891   4
   8  12  11 182.666 140.037   5
   8  12  12 82.9664 90.5778   5
   8  12  13 674.518 127.374   5
   8  12  13 474.074 130.749  11
   8  12  14 38.2188 75.2357  11
  -8 -13  -1 99.3803 96.9990  16
  -8 -13  -2 584.481 142.129  16
  -8 -13  -3 4607.12 298.481  16
  -8 -13  -4 654.506 156.577  16
   8  13   4 632.261 144.577   5
   8  13   5 4464.96 302.910   5
  -8 -13  -5 3611.68 278.159  16
   8  13   6 4619.98 321.626   5
  -8 -13  -6 4457.93 303.295  16
   8  13   7 2266.15 245.903   5
   8  13   8 69.1731 124.791   5
   8  13   9 1769.01 215.687   5
   8  13  10 7042.23 389.999   5
   8  13  11 100.240 114.561   5
   8  13  12 4949.15 284.861   5
   8  13  13 310.380 104.217  11
  -8 -14  -3 3421.89 208.564  16
  -8 -14  -4 43.3776 89.1200  16
  -8 -14  -5 145.181 92.7899  16
  -8 -14  -6 578.921 114.959  16
   8  14   6 660.888 107.941   5
   8  14   7 502.417 123.022   5
  -8 -14  -7 427.523 111.584   1
   8  14   8 984.036 149.552   5
   8  14   9 890.081 157.178   5
   8  14  10 110.779 95.4863   5
   8  14  11 25.4821 84.6111   5
  -9   6   2 146.469 88.3656   4
   9  -6   1-150.982 107.820   1
   9  -6   2 135.721 93.7173   1
   9  -6   3 495.522 135.022   1
   9  -6   4 349.586 95.6334  12
  -9   5   5 627.857 116.189   4
  -9   5   4 2499.73 188.556   6
  -9   5   4 2945.09 241.388   4
  -9   5   3 76.6462 120.881   4
  -9   5   2 184.590 141.497   4
  -9   5   1 389.663 136.398   4
  -9   5   0 902.409 174.847   4
   9  -5   0 637.995 157.765   1
   9  -5   1 3972.36 313.249   1
  -9   5  -1 4107.30 276.343   4
   9  -5   2 7521.32 429.826   1
   9  -5   3 2616.48 279.630   1
   9  -5   4 1210.16 202.368   1
   9  -5   5 388.165 113.382  12
   9  -5   6 4162.66 239.377  12
  -9   4   5 141.575 92.6464   4
  -9   4   5 103.529 81.8214   6
  -9   4   4 5798.30 322.350   6
  -9   4   4 6217.91 367.857   4
  -9   4   3 4053.60 326.173   4
  -9   4   2 1801.37 244.819   4
  -9   4   1 3117.81 308.896   4
  -9   4   0 454.367 185.443   4
   9  -4   0 498.084 159.400   1
   9  -4   1 1478.21 221.896   1
  -9   4  -1 1569.48 231.223   4
  -9   4  -2 1530.93 221.178   4
   9  -4   2 1502.78 259.489   1
   9  -4   3 875.092 221.589   1
   9  -4   4 1705.14 253.091   1
   9  -4   5 295.673 169.816   1
   9  -4   6 143.639 121.498  12
   9  -4   7 1117.70 152.647  12
   9  -4   8 4.48180 71.3844  12
  -9   3   6 5631.86 268.319   6
  -9   3   6 6344.10 289.957   4
  -9   3   5 292.208 129.178   4
  -9   3   5 245.752 120.297   6
  -9   3   4 1459.15 220.688   4
  -9   3   4 1660.85 217.746   6
  -9   3   3 368.009 163.555   4
  -9   3   2 195.926 188.872   4
  -9   3   1 818.655 233.556   4
  -9   3   0-50.9177 195.247   4
   9  -3   0 124.421 174.225   1
   9  -3   1 2949.23 314.890   1
  -9   3  -1 2895.13 329.291   4
   9  -3   2 246.609 187.520   1
  -9   3  -2 1084.96 215.672   4
  -9   3  -3-270.213 140.017   4
   9  -3   3-207.182 195.444   1
   9  -3   4 163.125 175.699   1
   9  -3   5 706.056 214.014   1
   9  -3   6-16.0500 131.788  12
   9  -3   6 168.886 169.159   1
   9  -3   7 9405.20 430.152  12
   9  -3   8 1337.58 184.193  12
   9  -3   9-56.6206 80.8838  12
  -9   2   6 1222.98 154.330   4
  -9   2   6 1118.60 161.419   6
  -9   2   5 57.3382 117.319   4
  -9   2   5-103.570 115.367   6
  -9   2   4 1029.94 196.993   4
  -9   2   4 911.436 187.157   6
  -9   2   3 2545.40 308.986   4
  -9   2   2 1044.07 237.476   4
  -9   2   1 14683.8 702.806   4
  -9   2   0-35.1821 196.413   4
  -9   2  -1 2232.43 302.316   4
   9  -2   1 2520.03 334.832   1
   9  -2   2 1433.99 292.981   1
  -9   2  -2 1974.37 297.848   4
   9  -2   3 4440.42 417.712   1
  -9   2  -3 4009.88 372.127   4
   9  -2   4 4839.25 444.544   1
  -9   2  -4 4825.52 368.995   4
  -9   2  -5 1026.40 191.401   8
   9  -2   5 1027.79 245.055   1
  -9   2  -6 1034.74 205.566   8
   9  -2   6 923.870 241.793   1
   9  -2   7 381.425 159.884  12
  -9   2  -7 152.337 143.024   8
   9  -2   8 265.336 142.275  12
  -9   2  -8 262.122 119.164   8
   9  -2   9 94.4822 110.553  12
  -9   2  -9 96.5217 88.8239   8
   9  -2  10 175.826 91.8012  12
  -9   1   6 9.94627 84.5462   4
  -9   1   6 48.2880 113.013   6
  -9   1   5 3002.84 271.396   6
  -9   1   5 2582.03 247.525   4
  -9   1   4-78.0479 131.114   4
  -9   1   4 5.52905 146.185   6
  -9   1   3 646.660 188.104   4
  -9   1   2 643.818 220.262   4
  -9   1   1 3930.30 393.012   4
  -9   1   0 5894.78 487.154   4
  -9   1  -1 269.867 166.395   4
  -9   1  -1 415.182 165.648   8
   9  -1   2 3983.29 407.013   1
  -9   1  -2 3473.76 370.114   4
  -9   1  -2 3795.79 339.296   8
   9  -1   3 14665.0 744.250   1
  -9   1  -3 14559.3 699.999   4
  -9   1  -3 14220.7 632.144   8
  -9   1  -4 974.299 207.579   4
  -9   1  -4 526.466 188.964   8
   9  -1   4 698.636 245.034   1
  -9   1  -5 19.0531 148.475   8
   9  -1   5 433.172 204.412   1
  -9   1  -5 174.193 170.821   4
  -9   1  -6 2587.65 291.450   8
   9  -1   7 3080.27 304.077  12
   9  -1   8 279.753 155.317  12
   9  -1   9 1541.16 205.611  12
   9  -1  10 171.888 109.070  12
   9  -1  11 141.455 94.3239  12
  -9   0   7 2582.51 184.473   6
  -9   0   6 339.754 125.354   6
  -9   0   5 1860.46 222.566   4
  -9   0   5 1914.63 245.788   6
  -9   0   4 1148.11 212.540   4
  -9   0   4 1179.09 219.231   6
  -9   0   3 4150.63 371.485   4
  -9   0   2 3871.51 393.318   4
  -9   0   1 319.814 196.006   4
  -9   0   0 3566.83 404.144   4
  -9   0  -1 1303.45 281.296   4
  -9   0  -1 1174.60 227.532   8
  -9   0  -2 2288.35 342.562   4
  -9   0  -2 1793.59 273.532   8
  -9   0  -3 3775.62 383.898   4
  -9   0  -3 3542.47 347.095   8
  -9   0  -4 76.1754 180.909   4
  -9   0  -4-25.6157 163.914   8
  -9   0  -5 6028.96 443.869   4
  -9   0  -5 5731.16 437.478   8
   9   0   6 72.4305 146.039  12
  -9   0  -6 129.651 182.633   4
   9   0   7 603.314 178.798  12
  -9   0  -7 328.125 170.104   4
   9   0   8 878.581 198.680  12
   9   0   9 1023.87 195.993  12
   9   0  10 542.765 155.502  12
   9   0  11 116.236 99.9298  12
   9   0  12 42.8829 78.8930  12
  -9  -1   6 896.439 161.258   6
  -9  -1   5-117.239 94.6459   7
  -9  -1   5-17.7433 142.046   6
  -9  -1   4 798.773 180.113   4
  -9  -1   4 981.388 217.272   6
  -9  -1   3 1708.56 262.778   4
  -9  -1   3 1930.56 280.485   6
  -9  -1   2 17238.7 745.547   4
  -9  -1   1 5567.97 464.648   4
  -9  -1   0 11254.0 654.712   4
  -9  -1  -1 3449.57 394.728   4
  -9  -1  -1 3859.33 383.011   8
  -9  -1  -2 3353.50 395.620   4
  -9  -1  -2 3397.49 363.534   8
  -9  -1  -3 6846.73 521.093   4
  -9  -1  -3 7249.38 507.449   8
  -9  -1  -4 67.8866 175.504   4
  -9  -1  -4 52.8723 127.538   8
  -9  -1  -5 2120.35 312.178   4
  -9  -1  -5 2154.18 325.613   8
   9   1   6 2182.16 259.341  12
  -9  -1  -6 2530.87 315.506   4
   9   1   7 1164.19 227.269  12
  -9  -1  -7 1310.62 235.465   4
   9   1   8 94.7739 110.197  12
  -9  -1  -8-96.7897 120.878   4
   9   1   9 26.2515 115.242  12
   9   1  10 478.088 155.364  12
   9   1  11 82.4135 115.508  12
   9   1  12 417.958 120.428  12
  -9  -2   6 38.5249 76.0491   7
  -9  -2   6 97.7584 120.939   6
  -9  -2   5 137.165 96.0185   7
  -9  -2   5 93.8829 134.829   6
  -9  -2   4 4.89990 131.707   6
  -9  -2   3 81.2670 136.823   4
  -9  -2   3 388.012 173.870   6
  -9  -2   2 4508.71 394.041   6
  -9  -2   2 4518.90 390.997   4
  -9  -2   1 1069.10 246.911   4
  -9  -2   0 615.032 179.323   4
  -9  -2  -1 3567.36 397.970   4
  -9  -2  -1 4051.96 391.777   8
  -9  -2  -2 23897.7 949.334   4
  -9  -2  -2 22872.7 886.211   8
  -9  -2  -3 1775.35 301.500   4
  -9  -2  -3 1988.28 290.933   8
  -9  -2  -4 17627.3 809.183   4
  -9  -2  -4 16460.1 772.647   8
  -9  -2  -5 119.301 151.088   4
  -9  -2  -5 111.096 176.910   8
  -9  -2  -6 1342.73 273.234   8
  -9  -2  -6 1300.69 255.773   4
   9   2   7 2104.76 238.318  12
  -9  -2  -7 1857.71 268.255   4
   9   2   8 1148.46 210.024  12
  -9  -2  -8 588.917 199.138   4
   9   2   9 199.540 127.722  12
  -9  -2  -9 231.430 145.730   4
   9   2  10 243.304 141.653  12
   9   2  11-69.2147 111.479  12
   9   2  12 2028.18 201.938  12
   9   2  13-140.360 88.5933  12
  -9  -3   6 1876.32 155.964   7
  -9  -3   5 914.803 158.446   7
  -9  -3   5 804.773 171.738   6
  -9  -3   4 453.470 162.025   6
  -9  -3   3 58.3055 176.658   6
  -9  -3   2 220.355 139.597   4
  -9  -3   2-14.1340 117.251  16
  -9  -3   2 156.666 153.659   6
  -9  -3   1 9030.88 530.410   4
  -9  -3   0 2257.88 314.317   4
  -9  -3  -1 5687.75 471.254   4
  -9  -3  -1 5379.58 459.427   8
  -9  -3  -2 5414.88 477.779   4
  -9  -3  -2 5910.76 482.038   8
  -9  -3  -3 8471.91 573.205   4
  -9  -3  -3 8405.40 559.904   8
  -9  -3  -4 4421.18 430.015   4
  -9  -3  -4 4351.38 430.614   8
  -9  -3  -5 33823.3 1103.37   4
  -9  -3  -5 32865.3 1101.70   8
  -9  -3  -6 2486.79 320.653   4
  -9  -3  -6 2584.21 358.736   8
  -9  -3  -7 1412.22 271.570   4
  -9  -3  -8 343.625 163.474   4
   9   3   9 83.1579 124.497  12
  -9  -3  -9 196.200 159.005   4
   9   3  10 1262.98 210.255  12
  -9  -3 -10 1439.15 220.871   4
   9   3  11 1598.68 214.062  12
   9   3  12 529.640 149.199  12
   9   3  13 1499.93 166.736  12
  -9  -4   6 203.628 81.7217   7
  -9  -4   5 1738.33 217.536   6
  -9  -4   5 1807.63 190.620   7
  -9  -4   4 2142.47 242.375   6
  -9  -4   3-0.81915 131.436   6
  -9  -4   2 546.508 167.154  16
  -9  -4   2 615.131 201.531   6
  -9  -4   1 910.583 220.955   4
  -9  -4   1 937.110 210.378  16
  -9  -4   1 723.962 193.180   6
  -9  -4   0 3348.89 322.644   6
  -9  -4   0 3957.69 363.925   4
  -9  -4  -1 4238.17 390.503   4
  -9  -4  -2 2435.72 326.791   4
  -9  -4  -2 2902.45 363.591   8
  -9  -4  -3-11.7947 151.091   4
  -9  -4  -3-289.525 210.524   8
  -9  -4  -4 2906.14 372.295   8
  -9  -4  -4 2333.13 337.290   4
  -9  -4  -5 1540.27 300.272   8
  -9  -4  -5 1239.21 275.756   4
  -9  -4  -6 4.79960 175.769   8
  -9  -4  -6-111.449 180.798   4
  -9  -4  -7 16113.5 749.134   4
  -9  -4  -7 15492.7 763.333   8
  -9  -4  -8 2398.48 308.849   4
  -9  -4  -9 1875.57 258.001   4
   9   4  10 9585.74 467.643  12
  -9  -4 -10 8941.18 492.461   4
   9   4  11 620.577 181.106  12
  -9  -4 -11 704.266 156.594   4
   9   4  12 11.1285 107.758  12
   9   4  13 56.3708 99.8668  12
  -9  -5   5 2610.39 214.332   7
  -9  -5   4 73.1056 131.438   7
  -9  -5   4-53.9163 121.343   6
  -9  -5   3 676.371 165.896   6
  -9  -5   2 407.956 149.885  16
  -9  -5   2 276.437 129.696   6
  -9  -5   1 141.984 135.207  16
  -9  -5   1-307.290 162.255   6
  -9  -5   0 978.853 222.383  16
  -9  -5   0 989.787 200.388   6
  -9  -5   0 1173.80 236.895   4
  -9  -5  -1 150.450 162.007   4
  -9  -5  -2 740.359 253.788   8
  -9  -5  -2 677.376 211.468   4
  -9  -5  -3 6063.46 485.799   4
  -9  -5  -3 6487.55 506.748   8
  -9  -5  -4 1459.58 283.283   8
  -9  -5  -4 1515.99 275.980   4
  -9  -5  -5 371.704 211.344   8
  -9  -5  -5 579.117 222.964   4
  -9  -5  -6 3270.04 362.704   4
  -9  -5  -6 3298.30 372.772   8
  -9  -5  -7 4694.31 423.422   4
  -9  -5  -7 4288.72 425.830   8
  -9  -5  -8 2588.95 308.191   4
  -9  -5  -8 2358.63 336.805   8
  -9  -5  -9 23667.0 854.754   4
  -9  -5 -10 271.839 161.782   4
   9   5  11-160.847 144.695  12
  -9  -5 -11-154.877 132.583   4
   9   5  12 207.676 124.176  12
  -9  -5 -12 475.823 138.620   4
   9   5  13-29.2606 94.1939  12
  -9  -6   5 40.0307 83.7251   7
  -9  -6   4 704.573 151.185   7
  -9  -6   2 860.435 184.754  16
  -9  -6   2 874.105 183.227   6
  -9  -6   1 590.691 171.731  16
  -9  -6   0 2485.95 300.045  16
  -9  -6  -1 178.376 177.088  16
  -9  -6  -1 79.3584 130.562   4
  -9  -6  -2 1568.50 279.901  16
  -9  -6  -2 1337.72 244.387   4
  -9  -6  -3 327.232 213.078   8
  -9  -6  -3 401.965 177.746   4
  -9  -6  -4 17422.8 780.282   4
  -9  -6  -4 17922.0 810.002   8
  -9  -6  -5 6579.46 505.336   4
  -9  -6  -5 6834.17 519.169   8
  -9  -6  -6 6403.66 499.595   4
  -9  -6  -6 6343.15 495.735   8
  -9  -6  -7-10.0749 140.262   8
  -9  -6  -7 406.075 198.864   4
  -9  -6  -8 3371.38 381.809   4
  -9  -6  -8 3176.53 350.881   8
  -9  -6  -9 314.384 170.440   4
  -9  -6  -9 57.2234 142.061   8
  -9  -6 -10 4.72249 155.536   4
  -9  -6 -10 103.721 171.006   8
  -9  -6 -11 2895.58 300.984   4
  -9  -6 -11 2710.03 293.265   8
   9   6  12 5539.96 317.549  12
  -9  -6 -12 5200.27 355.308   4
  -9  -6 -12 5172.78 347.158   8
   9   6  13 79.8787 95.1307  12
  -9  -6 -13 174.216 116.983   4
  -9  -6 -13 13.7958 116.255   8
  -9  -7   4 57.0707 104.962   7
  -9  -7   3-241.844 137.252   7
  -9  -7   2 36.2532 116.443  16
  -9  -7   1-88.9652 133.051  16
  -9  -7   0 383.998 165.449  16
  -9  -7  -1 4905.67 391.975  16
  -9  -7  -2 26.3704 179.611  16
  -9  -7  -2-202.196 139.927   4
  -9  -7  -3 3706.90 344.641   4
  -9  -7  -3 4185.85 389.249  16
  -9  -7  -4 31.0695 144.407  16
  -9  -7  -4-111.364 187.946   8
  -9  -7  -4 87.6969 137.802   4
  -9  -7  -5 11311.3 619.047   4
  -9  -7  -5 11004.3 618.900   8
  -9  -7  -5 11851.2 598.887  16
  -9  -7  -6 2149.46 272.773  16
  -9  -7  -6 1583.71 263.664   8
  -9  -7  -6 2012.61 304.215   4
  -9  -7  -7 2947.55 356.609   4
  -9  -7  -7 2611.75 323.648   8
  -9  -7  -7 2566.63 287.073  16
  -9  -7  -8 27700.3 955.347   4
  -9  -7  -8 28365.5 935.291   8
  -9  -7  -8 28763.5 836.148  16
  -9  -7  -9 2802.02 327.567   4
  -9  -7  -9 2346.59 304.468   8
  -9  -7 -10 4407.28 383.095   4
  -9  -7 -10 4019.84 364.724   8
  -9  -7 -11-147.714 156.336   4
  -9  -7 -11-55.3204 142.525   8
  -9  -7 -12-14.8849 135.247   4
  -9  -7 -12 329.331 136.987   8
  -9  -7 -13 818.970 160.930   4
  -9  -7 -13 701.009 146.229   8
  -9  -8   3 153.134 112.319   7
  -9  -8   2-204.869 134.795   7
  -9  -8   2 21.1910 93.4693  16
  -9  -8   1 3906.39 305.647  16
  -9  -8   0 3982.93 335.975  16
  -9  -8  -1 1398.40 244.040  16
  -9  -8  -2 3533.23 345.233  16
  -9  -8  -3 356.742 190.775  16
  -9  -8  -3-18.7233 128.469   4
  -9  -8  -4 2276.62 298.774   4
  -9  -8  -4 2523.20 307.181  16
  -9  -8  -5 90.0333 151.784  16
  -9  -8  -5 99.7342 162.836   8
  -9  -8  -5 152.255 163.377   4
  -9  -8  -6-168.491 147.291  16
  -9  -8  -6 142.660 146.670   8
  -9  -8  -6-80.4823 147.542   4
  -9  -8  -7 1538.93 241.082  16
  -9  -8  -7 1373.27 232.758   8
  -9  -8  -7 1458.79 254.484   4
  -9  -8  -8 123.520 152.750  16
  -9  -8  -8 75.9090 145.241   4
  -9  -8  -8-133.652 171.233   8
  -9  -8  -9 671.787 220.302   4
  -9  -8  -9 439.682 183.091   8
   9   8  10-86.7067 118.825   5
  -9  -8 -10-104.105 182.120   4
  -9  -8 -10-25.8649 148.938   8
  -9  -8 -11 1599.09 256.615   4
  -9  -8 -11 1135.89 193.300   8
  -9  -8 -12 953.732 202.761   4
  -9  -8 -13 3327.96 259.091   4
  -9  -9   2 128.037 106.580   7
  -9  -9   2 215.660 94.1230  16
  -9  -9   1 1494.00 195.996  16
  -9  -9   1 1481.26 188.015   7
  -9  -9   0 99.5567 135.363  16
  -9  -9  -1-56.7010 151.038  16
  -9  -9  -2 248.537 173.490  16
  -9  -9  -3 3133.46 334.187  16
  -9  -9  -4 564.061 191.921  16
  -9  -9  -4 554.813 142.373   4
  -9  -9  -5 1650.92 258.169  16
  -9  -9  -5 1414.72 239.216   4
  -9  -9  -6 23.5527 142.550  16
  -9  -9  -6-28.7961 142.669   4
  -9  -9  -7 1182.19 210.032  16
  -9  -9  -7 946.224 238.987   4
  -9  -9  -7 1282.45 212.618   8
  -9  -9  -8-93.0911 147.612  16
  -9  -9  -8 105.929 161.620   4
  -9  -9  -9-57.8400 146.699   4
   9   9  10 3357.38 296.061   5
  -9  -9 -10 4097.83 371.686   4
   9   9  11 2158.22 224.585   5
  -9  -9 -11 2123.76 283.335   4
   9   9  12 1331.25 164.946  11
  -9  -9 -12 1231.22 205.482   4
  -9  -9 -13 119.296 131.864   4
  -9 -10   1 832.046 127.330  16
  -9 -10   0-244.938 109.736   7
  -9 -10   0-4.48463 99.6298  16
  -9 -10  -1-50.5523 124.865  16
  -9 -10  -2 7452.25 428.517  16
  -9 -10  -3 6395.01 410.235  16
  -9 -10  -4 1363.23 243.788  16
  -9 -10  -5 4641.01 374.570  16
  -9 -10  -6-45.1785 110.647  16
  -9 -10  -6 67.8850 119.320   4
  -9 -10  -7 1907.08 255.111   4
  -9 -10  -7 2233.81 239.108  16
  -9 -10  -8-152.051 147.696   4
   9  10   9 810.614 177.146   5
  -9 -10  -9 541.541 195.824   4
   9  10  10 3376.40 301.813   5
  -9 -10 -10 3818.49 336.097   4
   9  10  11 3660.19 271.371   5
  -9 -10 -11 3903.52 326.715   4
   9  10  12 9776.54 371.073   5
   9  10  12 10269.4 407.546  11
  -9 -11   0 35.4079 87.5976  16
  -9 -11  -1 342.199 123.457  16
  -9 -11  -2 160.749 138.413  16
   9  11   2-157.404 99.9757   5
  -9 -11  -3-36.4523 127.939  16
  -9 -11  -4 211.864 163.571  16
  -9 -11  -5 9055.78 446.860  16
  -9 -11  -6 1641.75 212.077  16
  -9 -11  -7 164.077 118.473  16
  -9 -11  -7 248.651 118.132   4
   9  11   8 13178.0 559.165   5
  -9 -11  -8 12531.3 542.541   4
   9  11   9 833.258 172.809   5
  -9 -11  -9 918.100 203.155   4
   9  11  10 931.627 161.951   5
  -9 -11 -10 654.636 166.979   4
   9  11  11 55.5219 88.1172   5
  -9 -11 -11-13.4205 102.596   4
   9  11  12 3308.87 213.771   5
   9  11  12 3236.40 230.446  11
  -9 -12  -2 2061.35 187.751  16
  -9 -12  -3 989.141 168.131  16
  -9 -12  -4 128.735 126.273  16
   9  12   4 224.472 110.679   5
   9  12   5 2451.21 230.183   5
  -9 -12  -5 2197.87 221.294  16
   9  12   6 2222.63 229.243   5
  -9 -12  -6 1889.06 196.657  16
  -9 -12  -7-158.830 90.8362  16
   9  12   7 66.4276 124.058   5
   9  12   8 103.193 133.387   5
  -9 -12  -8 61.2328 111.401   4
   9  12   9 1326.30 192.731   5
  -9 -12  -9 1365.43 175.524   4
   9  12  10 2184.27 207.168   5
   9  12  11 477.569 125.963   5
   9  12  12 3471.04 216.452  11
  -9 -13  -4 308.820 90.7281  16
  -9 -13  -5-33.0486 84.0940  16
  -9 -13  -6 331.192 102.384  16
   9  13   6 349.209 108.247   5
   9  13   7 1033.96 147.804   5
   9  13   8 155.160 101.078   5
   9  13   9 16403.7 494.635   5
   9  13  10 1451.21 161.226   5
 -10   3   2 5216.14 271.930   6
 -10   3   2 5433.72 292.073   4
 -10   3   1 91.0122 108.103   4
 -10   3   0 3246.62 246.723   4
 -10   3  -1 21683.2 592.551   4
 -10   3  -2 7501.97 342.788   4
 -10   2   3 2917.58 211.209   6
 -10   2   3 2482.72 201.057   4
 -10   2   2 1640.14 186.143   6
 -10   2   2 1525.39 188.576   4
 -10   2   1 79.9429 117.947   4
 -10   2   0 7591.47 413.025   4
 -10   2  -1 1969.71 235.124   4
 -10   2  -2 19893.8 638.080   4
 -10   2  -3 683.354 168.289   4
 -10   2  -4-5.00619 106.047   4
  10  -2   5 738.895 129.833  12
  10  -2   6 186.349 95.0165  12
 -10   1   4 335.420 96.8819   6
 -10   1   3 49.0507 87.5349   4
 -10   1   3 47.6662 94.5373   6
 -10   1   2 1948.01 224.919   6
 -10   1   2 1711.00 216.045   4
 -10   1   1-40.1714 136.346   4
 -10   1   0 2096.18 257.017   4
 -10   1  -1 279.267 151.937   4
 -10   1  -2 386.920 145.616   4
 -10   1  -3 544.943 162.914   4
 -10   1  -4 214.734 129.927   8
 -10   1  -4 308.620 134.764   4
 -10   1  -5 808.493 146.922   8
 -10   1  -5 685.757 163.484   4
  10  -1   6 91.3486 87.0271  12
 -10   1  -6 957.312 155.661   8
  10  -1   7 755.611 132.477  12
 -10   1  -7 813.563 139.148   8
  10  -1   8 104.049 82.7875  12
 -10   0   4-85.9742 94.8129   6
 -10   0   3 145.191 92.9366   4
 -10   0   3 154.027 124.963   6
 -10   0   2 1341.76 199.343   4
 -10   0   2 1664.60 215.074   6
 -10   0   1 174.837 146.372   4
 -10   0   0 60.7445 132.896   4
 -10   0  -1 5463.08 401.831   4
 -10   0  -2 111.547 155.532   4
 -10   0  -3 721.722 193.993   4
 -10   0  -3 533.657 148.225   8
 -10   0  -4 2064.17 262.625   4
 -10   0  -4 1901.67 247.913   8
 -10   0  -5 30.8079 128.502   8
 -10   0  -5 49.9586 131.953   4
 -10   0  -6-26.8806 110.249   8
 -10   0  -6 127.566 118.338   4
  10   0   7 3047.02 222.154  12
 -10   0  -7 2472.39 237.228   8
  10   0   8 870.739 155.048  12
 -10   0  -8 1027.87 163.413   8
  10   0   9 254.817 83.1580  12
 -10   0  -9 187.151 107.278   8
 -10  -1   4 240.428 102.680   6
 -10  -1   3 4915.23 306.412   6
 -10  -1   3 4246.60 270.169   4
 -10  -1   2 1367.74 197.504   4
 -10  -1   2 1191.92 192.452   6
 -10  -1   1 49.7371 118.641   4
 -10  -1   1 119.207 125.056   6
 -10  -1   0 3.42560 136.458   4
 -10  -1  -1 3661.36 344.957   4
 -10  -1  -2 4412.37 381.987   4
 -10  -1  -3 686.744 206.067   4
 -10  -1  -3 603.592 186.546   8
 -10  -1  -4 136.072 155.398   8
 -10  -1  -4 49.8928 153.430   4
 -10  -1  -5 2233.30 277.114   4
 -10  -1  -5 1982.47 254.758   8
 -10  -1  -6 247.988 158.631   8
 -10  -1  -6 108.110 159.184   4
 -10  -1  -7 45.7646 125.828   8
 -10  -1  -7 120.957 115.262   4
  10   1   8 801.062 140.039  12
 -10  -1  -8 892.413 180.119   8
  10   1   9 691.480 128.831  12
 -10  -1  -9 852.435 170.569   8
 -10  -1 -10-132.097 87.4259   8
 -10  -2   4 2501.86 199.924   6
 -10  -2   3 186.781 111.667   6
 -10  -2   2 871.662 176.400   4
 -10  -2   2 807.484 178.359   6
 -10  -2   1 6505.62 397.066   6
 -10  -2   1 5621.99 371.235   4
 -10  -2   1 5796.63 340.840  16
 -10  -2   0 199.233 133.850   4
 -10  -2  -1 5166.57 402.842   4
 -10  -2  -2 218.144 177.207   4
 -10  -2  -3 10556.2 575.192   4
 -10  -2  -3 9783.04 524.039   8
 -10  -2  -4-32.2893 148.136   8
 -10  -2  -4 33.1639 188.937   4
 -10  -2  -5 129.822 156.094   8
 -10  -2  -5 15.4491 159.022   4
 -10  -2  -6 802.105 221.519   8
 -10  -2  -6 677.547 197.487   4
 -10  -2  -7 1152.42 220.684   8
 -10  -2  -7 1225.09 205.724   4
 -10  -2  -8 892.569 181.452   4
 -10  -2  -8 910.648 198.841   8
 -10  -2  -9 2732.41 275.342   8
  10   2  10 1890.00 161.881  12
 -10  -2 -10 1712.92 204.799   8
 -10  -2 -11 36.6641 84.0997   8
 -10  -3   3 3950.90 264.013   6
 -10  -3   2-220.943 125.363   6
 -10  -3   2 127.907 104.013   4
 -10  -3   1 175.141 118.632  16
 -10  -3   1 163.431 127.578   6
 -10  -3   1 199.563 133.020   4
 -10  -3   0 1959.18 252.557   6
 -10  -3   0 1959.89 250.701   4
 -10  -3   0 1797.07 229.706  16
 -10  -3  -1 39.1846 140.956   4
 -10  -3  -2 1932.32 270.412   4
 -10  -3  -3 1448.61 255.967   8
 -10  -3  -3 1817.41 290.446   4
 -10  -3  -4 1107.03 241.427   8
 -10  -3  -4 1211.13 254.199   4
 -10  -3  -5 196.122 172.712   8
 -10  -3  -5-6.65534 175.440   4
 -10  -3  -6 116.948 177.835   8
 -10  -3  -6 164.667 187.860   4
 -10  -3  -7 1104.35 237.064   8
 -10  -3  -7 1390.57 238.610   4
 -10  -3  -8 87.3828 148.142   4
 -10  -3  -8 165.722 168.243   8
 -10  -3  -9 50.1100 110.915   4
 -10  -3  -9 295.360 167.632   8
 -10  -3 -10 1502.59 213.586   8
 -10  -3 -11 5245.24 310.636   8
 -10  -4   3 4358.64 256.037   6
 -10  -4   2 5476.15 320.253   6
 -10  -4   2 4242.67 246.435  16
 -10  -4   1 2236.17 233.630   6
 -10  -4   1 2184.76 218.887   4
 -10  -4   1 2565.64 242.125  16
 -10  -4   0 381.303 163.586  16
 -10  -4   0 357.473 131.203   6
 -10  -4   0 258.461 153.449   4
 -10  -4  -1 152.171 143.551  16
 -10  -4  -1-118.827 148.252   6
 -10  -4  -1 121.264 136.623   4
 -10  -4  -2 134.498 182.437   4
 -10  -4  -3 351.745 170.531   8
 -10  -4  -3 95.3490 174.710   4
 -10  -4  -4 1551.31 275.771   8
 -10  -4  -4 1167.38 248.822   4
 -10  -4  -5 14431.7 667.529   4
 -10  -4  -5 15115.6 689.336   8
 -10  -4  -6 1660.37 276.548   8
 -10  -4  -6 1914.29 268.610   4
 -10  -4  -7 2655.76 309.738   4
 -10  -4  -7 2624.62 314.715   8
 -10  -4  -8 641.226 194.896   4
 -10  -4  -8 408.300 192.066   8
 -10  -4  -9 6595.26 394.541   4
 -10  -4  -9 7122.44 443.206   8
 -10  -4 -10 3098.55 261.141   4
 -10  -4 -10 3037.25 287.187   8
 -10  -4 -11 2233.39 231.360   8
 -10  -4 -12 378.770 125.431   8
 -10  -5   3 224.104 98.8556   7
 -10  -5   2 478.649 125.778   6
 -10  -5   1 68.2296 104.405  16
 -10  -5   1-28.7012 118.529   6
 -10  -5   0 100.552 138.707  16
 -10  -5   0 148.423 118.911   4
 -10  -5  -1 558.108 176.976  16
 -10  -5  -1 308.668 138.300   4
 -10  -5  -2 1413.50 245.415   4
 -10  -5  -2 1532.02 248.589  16
 -10  -5  -3 6430.45 444.002   4
 -10  -5  -4 13.4662 153.361   8
 -10  -5  -4 62.0639 148.683   4
 -10  -5  -5 2805.97 334.367   4
 -10  -5  -5 2756.15 333.603   8
 -10  -5  -6 10817.9 572.573   4
 -10  -5  -6 10087.2 560.370   8
 -10  -5  -7 826.429 220.741   8
 -10  -5  -7 567.069 212.121   4
 -10  -5  -8 66.4281 171.919   4
 -10  -5  -8 167.968 166.914   8
 -10  -5  -9 6393.68 399.957   4
 -10  -5  -9 5824.83 402.376   8
 -10  -5 -10 28.7697 136.040   4
 -10  -5 -10 68.8455 143.497   8
 -10  -5 -11 1740.38 185.511   4
 -10  -5 -11 1823.14 212.531   8
 -10  -5 -12 83.8910 104.878   8
 -10  -6   1 3279.26 238.993  16
 -10  -6   0 990.812 177.326  16
 -10  -6  -1 1395.01 209.690  16
 -10  -6  -1 1308.85 189.000   4
 -10  -6  -2 1271.93 212.165  16
 -10  -6  -2 1141.18 204.188   4
 -10  -6  -3 1099.00 219.860  16
 -10  -6  -3 1025.56 210.558   4
 -10  -6  -4 5308.48 405.189   4
 -10  -6  -4 6390.95 428.182  16
 -10  -6  -5 599.270 204.220  16
 -10  -6  -5 667.159 225.730   8
 -10  -6  -5 761.478 205.939   4
 -10  -6  -6 868.971 227.556   8
 -10  -6  -6 1098.54 240.713   4
 -10  -6  -7 1434.38 248.097   8
 -10  -6  -7 1636.45 253.286   4
 -10  -6  -8 888.628 165.745  16
 -10  -6  -8 793.289 201.399   4
 -10  -6  -8 886.823 212.775   8
 -10  -6  -9 516.075 178.861   4
 -10  -6  -9 301.561 149.136   8
 -10  -6 -10 764.411 175.437   4
 -10  -6 -10 540.478 167.032   8
 -10  -6 -11 59.4536 111.439   4
 -10  -6 -11-30.4920 102.131   8
 -10  -6 -12-23.1634 77.1216   8
 -10  -7   2 1350.67 149.024   7
 -10  -7   1 2047.70 185.137  16
 -10  -7   0 3174.48 263.226  16
 -10  -7  -1 141.913 137.351  16
 -10  -7  -2 29.2971 136.946  16
 -10  -7  -2-235.450 135.842   4
 -10  -7  -3 240.118 171.799  16
 -10  -7  -3 121.549 108.602   4
 -10  -7  -4 2063.52 254.665   4
 -10  -7  -4 2395.55 290.704  16
 -10  -7  -5 2566.98 284.949   4
 -10  -7  -5 2526.59 287.234  16
 -10  -7  -6 64.8578 134.291  16
 -10  -7  -6-133.574 164.654   8
 -10  -7  -6-0.86314 137.536   4
 -10  -7  -7 5013.78 384.959   4
 -10  -7  -7 4804.06 372.814   8
 -10  -7  -7 5142.57 357.244  16
 -10  -7  -8 218.730 138.807  16
 -10  -7  -8 265.806 156.716   4
 -10  -7  -8-74.4185 138.805   8
 -10  -7  -9 853.191 199.286   4
 -10  -7  -9 624.146 174.969   8
 -10  -7 -10-173.670 147.699   4
 -10  -7 -10-172.803 130.232   8
 -10  -7 -11 12.1884 113.010   4
 -10  -7 -11 36.4846 112.040   8
 -10  -7 -12 225.295 115.788   4
 -10  -8   1 139.251 88.2777   7
 -10  -8   0 473.792 128.053  16
 -10  -8  -1 1276.11 189.175  16
 -10  -8  -2 518.479 162.022  16
 -10  -8  -3 522.749 183.522  16
 -10  -8  -4 93.4015 158.690  16
 -10  -8  -4 314.762 119.976   4
 -10  -8  -5 1884.21 244.074  16
 -10  -8  -5 2022.75 254.336   4
 -10  -8  -6 20045.5 698.200   4
 -10  -8  -6 19719.7 656.754  16
 -10  -8  -7 829.365 178.088  16
 -10  -8  -7 488.002 173.364   8
 -10  -8  -7 633.780 198.142   4
 -10  -8  -8 1062.58 180.727  16
 -10  -8  -8 1367.59 218.006   4
 -10  -8  -8 1300.13 199.091   8
 -10  -8  -9-15.7984 138.175   4
 -10  -8  -9-28.1261 97.6084   8
 -10  -8 -10 31.1902 132.321   4
 -10  -8 -10 176.163 120.242   8
 -10  -8 -11 4863.08 312.885   4
 -10  -8 -12 184.888 109.055   4
 -10  -9  -1 159.576 117.892  16
 -10  -9  -2 469.603 153.101  16
 -10  -9  -3 1152.43 191.706  16
 -10  -9  -4 142.869 132.374  16
 -10  -9  -5-250.431 140.963  16
 -10  -9  -5 146.701 96.3577   4
 -10  -9  -6 5293.40 345.436   4
 -10  -9  -6 5946.52 358.819  16
 -10  -9  -7 6306.43 388.063   4
 -10  -9  -7 6168.43 346.544  16
 -10  -9  -8 3728.91 310.142   4
 -10  -9  -8 3671.55 251.767  16
  10   9   9 43.7372 104.884   5
 -10  -9  -9 50.7452 127.843   4
  10   9  10 1196.34 154.712   5
 -10  -9 -10 1573.33 219.317   4
 -10  -9 -11 67.7021 107.474   4
 -10  -9 -12 125.621 104.276   4
 -10 -10  -2 2796.46 219.652  16
 -10 -10  -3 571.621 145.826  16
 -10 -10  -4 508.032 138.425  16
 -10 -10  -5 584.598 131.082  16
 -10 -10  -6 1276.91 173.294  16
 -10 -10  -6 1417.34 171.245   4
 -10 -10  -7 1520.73 197.812   4
 -10 -10  -7 1817.31 187.980  16
  10  10   8 3453.86 273.379   5
 -10 -10  -8 3387.47 265.418   4
  10  10   9 2750.51 233.982   5
 -10 -10  -9 3110.67 259.541   4
  10  10  10 1098.68 140.411   5
 -10 -10 -10 1192.81 179.494   4
 -10 -10 -11 1119.17 155.277   4
 -10 -11  -3 116.175 73.5684  16
 -10 -11  -4-243.374 101.976  16
  10  11   4 210.056 85.0235   5
  10  11   5 3388.28 243.450   5
 -10 -11  -5 3586.97 238.893  16
 -10 -11  -6 333.463 106.723  16
  10  11   6 205.842 104.567   5
 -10 -11  -7 270.868 88.7791  16
  10  11   7 439.257 137.928   5
  10  11   8 80.2417 91.5163   5
 -10 -11  -8 56.7610 85.5805   4
  10  11   9-5.53214 81.0649   5
 -10 -11  -9-14.8337 74.5554   4
  10  11  10 424.728 99.9243   5
 -10 -11 -10 333.438 98.2750   4
  10  12   7 552.701 106.853   5
  10  12   8 2438.92 179.306   5
 -11   0  -1 50.1977 74.4517   4
 -11   0  -2 2728.04 218.866   4
 -11   0  -3 2391.97 201.401   4
 -11  -1   0 5696.24 279.140   4
 -11  -1  -1 45.0015 62.0130  16
 -11  -1  -1 78.0911 91.6248   6
 -11  -1  -1-36.5129 109.182   4
 -11  -1  -2 5823.94 283.804   6
 -11  -1  -2 5843.31 319.746   4
 -11  -1  -3 3120.40 246.153   4
 -11  -1  -4 3.56029 96.6296   4
 -11  -1  -5 136.757 101.479   4
 -11  -2   0 440.102 106.618   4
 -11  -2  -1 6955.39 337.598   4
 -11  -2  -1 6015.20 284.382  16
 -11  -2  -2 326.258 107.530   6
 -11  -2  -2 476.275 142.384   4
 -11  -2  -3-18.6378 115.610   4
 -11  -2  -4 35.8761 120.683   4
 -11  -2  -5 1815.33 197.619   4
 -11  -2  -6 670.777 136.665   8
 -11  -2  -6 624.507 135.669   4
 -11  -2  -7 5635.55 287.909   8
 -11  -3  -1 1111.29 149.732  16
 -11  -3  -1 1169.37 163.981   4
 -11  -3  -2 200.656 110.825  16
 -11  -3  -2 221.832 108.043   4
 -11  -3  -3 215.274 130.654   4
 -11  -3  -4 13993.9 517.713   4
 -11  -3  -5 2230.19 230.237   4
 -11  -3  -6 5089.61 312.641   4
 -11  -3  -6 5134.93 310.032   8
 -11  -3  -7 3346.85 235.832   4
 -11  -3  -7 3784.23 261.317   8
 -11  -3  -8-16.2338 93.5650   8
 -11  -4  -1 4389.24 251.382   4
 -11  -4  -1 4341.30 250.721  16
 -11  -4  -2 2015.52 198.965   4
 -11  -4  -2 2069.07 200.056  16
 -11  -4  -3 9309.07 418.330   4
 -11  -4  -3 9347.96 408.433  16
 -11  -4  -4 428.825 132.636  16
 -11  -4  -4 351.469 138.788   4
 -11  -4  -5 2106.08 235.122   4
 -11  -4  -6 110.434 111.786   8
 -11  -4  -6 136.877 143.936   4
 -11  -4  -7 981.596 152.688  16
 -11  -4  -7 1082.95 179.249   8
 -11  -4  -7 1038.13 161.973   4
 -11  -4  -8 205.837 110.269   4
 -11  -4  -8 184.204 101.298   8
 -11  -4  -9 1390.82 157.403   8
 -11  -5  -1 3591.44 227.886  16
 -11  -5  -2 1977.63 186.589   4
 -11  -5  -2 2423.75 211.351  16
 -11  -5  -3 204.143 110.993  16
 -11  -5  -3 111.492 102.580   4
 -11  -5  -4 1545.74 200.896   4
 -11  -5  -4 1573.05 206.754  16
 -11  -5  -5 1504.63 191.690   4
 -11  -5  -5 1760.11 202.345  16
 -11  -5  -6 4236.13 294.337   4
 -11  -5  -6 3934.89 270.078  16
 -11  -5  -7 11.4852 103.431  16
 -11  -5  -7-7.08109 115.046   8
 -11  -5  -7 14.4097 108.107   4
 -11  -5  -8 5929.10 323.580   4
 -11  -5  -8 6183.97 334.630   8
 -11  -5  -8 5260.29 254.622  16
 -11  -5  -9 1324.91 167.780   8
 -11  -5  -9 1141.16 150.709   4
 -11  -6  -1 4959.29 244.644  16
 -11  -6  -2 1485.94 165.939  16
 -11  -6  -3 565.363 139.789  16
 -11  -6  -3 427.236 118.647   4
 -11  -6  -4 565.952 134.371  16
 -11  -6  -4 168.596 115.008   4
 -11  -6  -5 2582.27 233.932   4
 -11  -6  -5 2368.41 224.537  16
 -11  -6  -6 4457.21 298.614   4
 -11  -6  -6 4304.56 272.547  16
 -11  -6  -7 11265.0 450.722   4
 -11  -6  -7 11090.0 394.488  16
 -11  -6  -8 308.660 125.348   4
 -11  -6  -8 47.2353 104.497   8
 -11  -6  -9 402.128 116.742   4
 -11  -6  -9 420.116 111.728   8
 -11  -7  -2 144.655 84.7338  16
 -11  -7  -3-34.9231 92.5406  16
 -11  -7  -4 3908.33 237.918   4
 -11  -7  -4 4292.22 272.073  16
 -11  -7  -5 481.072 130.783  16
 -11  -7  -5 514.347 116.383   4
 -11  -7  -6 486.794 133.844  16
 -11  -7  -6 661.181 154.015   4
 -11  -7  -7 5821.18 323.099   4
 -11  -7  -7 6348.18 292.562  16
 -11  -7  -8 6677.63 334.985   4
 -11  -7  -9 307.005 108.901   4
 -11  -8  -3 498.161 108.085  16
 -11  -8  -4 3675.02 233.229  16
 -11  -8  -5 4713.79 263.214  16
 -11  -8  -6 2112.07 186.189   4
 -11  -8  -6 2080.18 181.187  16
 -11  -8  -7 3736.46 251.031   4
 -11  -8  -7 3256.83 203.926  16
 -11  -8  -8 8842.03 364.192   4
 -11  -8  -9 18.7482 73.2980   4
  11   9   7 691.013 102.267   5
   0   0   0    0.00    0.00   0

TITL ligand_DMA in P-1
REM P-1 (#2 in standard setting)
CELL 1.54184   9.290073  13.675827  14.424352  66.9132  74.3150  74.6090
ZERR    2.00   0.000502   0.000690   0.000775   0.0049   0.0047   0.0045
LATT  1
SFAC C H N O
UNIT 76.00 76.00 4.00 12.00
TREF
HKLF 4
END
;
_shelx_hkl_checksum              96545
_olex2_submission_special_instructions 'No special instructions were received'
_oxdiff_exptl_absorpt_empirical_details
;
Empirical correction (ABSPACK) includes:
- Absorption correction using spherical harmonics
- Frame scaling
;
_oxdiff_exptl_absorpt_empirical_full_max 1.187
_oxdiff_exptl_absorpt_empirical_full_min 0.898
loop_
_space_group_symop_operation_xyz
'x, y, z'
'-x, -y, -z'
loop_
_atom_site_label
_atom_site_type_symbol
_atom_site_fract_x
_atom_site_fract_y
_atom_site_fract_z
_atom_site_U_iso_or_equiv
_atom_site_adp_type
_atom_site_occupancy
_atom_site_site_symmetry_order
_atom_site_calc_flag
_atom_site_refinement_flags_posn
O1 O 0.29326(13) 0.22626(9) 1.00781(9) 0.0306(3) Uani 1 1 d D
H1 H 0.3854(19) 0.1864(17) 0.9981(16) 0.046 Uiso 1 1 d DR
O18 O 0.62924(14) 0.25823(9) 0.49405(9) 0.0306(3) Uani 1 1 d D
O42 O 0.55140(14) 0.10483(10) 0.99861(10) 0.0347(3) Uani 1 1 d .
O39 O 0.72455(14) 0.37248(11) 0.56240(11) 0.0396(3) Uani 1 1 d .
O19 O 0.76028(14) 0.10994(10) 0.59143(10) 0.0375(3) Uani 1 1 d .
O2 O 0.40237(13) 0.36539(10) 0.90012(10) 0.0396(3) Uani 1 1 d .
N35 N 0.68137(18) 0.49611(13) 0.63724(12) 0.0356(3) Uani 1 1 d .
C12 C -0.13457(16) 0.41541(11) 0.99440(11) 0.0205(3) Uani 1 1 d .
C17 C 0.01495(16) 0.37747(11) 0.95396(11) 0.0200(3) Uani 1 1 d .
C5 C 0.09857(16) 0.37390(11) 1.10464(11) 0.0200(3) Uani 1 1 d .
C22 C 0.40522(16) 0.12464(12) 0.54708(11) 0.0208(3) Uani 1 1 d .
C10 C -0.05207(16) 0.41160(11) 1.14335(11) 0.0207(3) Uani 1 1 d .
C27 C 0.30485(16) 0.09698(11) 0.50842(11) 0.0208(3) Uani 1 1 d .
C3 C 0.29410(16) 0.33015(12) 0.96012(11) 0.0224(3) Uani 1 1 d .
C11 C -0.15900(16) 0.47401(12) 1.06862(11) 0.0204(3) Uani 1 1 d .
H11 H -0.265171 0.471912 1.108519 0.024 Uiso 1 1 calc R
C34 C 0.60291(16) 0.11794(11) 0.39431(11) 0.0202(3) Uani 1 1 d .
C28 C 0.37160(16) 0.03758(12) 0.43320(11) 0.0208(3) Uani 1 1 d .
H28 H 0.291063 0.047068 0.394790 0.025 Uiso 1 1 calc R
C4 C 0.14176(15) 0.40092(11) 0.98770(11) 0.0198(3) Uani 1 1 d .
C29 C 0.49994(16) 0.09070(11) 0.35703(11) 0.0210(3) Uani 1 1 d .
C20 C 0.66669(17) 0.15210(12) 0.53699(11) 0.0231(3) Uani 1 1 d .
C6 C 0.19965(17) 0.31860(12) 1.17166(12) 0.0245(3) Uani 1 1 d .
H6 H 0.302972 0.294790 1.145774 0.029 Uiso 1 1 calc R
C9 C -0.10008(17) 0.39065(12) 1.24826(11) 0.0244(3) Uani 1 1 d .
H9 H -0.202627 0.415881 1.274445 0.029 Uiso 1 1 calc R
C33 C 0.72547(18) 0.16303(12) 0.32650(12) 0.0253(3) Uani 1 1 d .
H33 H 0.797672 0.179127 0.351640 0.030 Uiso 1 1 calc R
C13 C -0.25565(17) 0.39732(13) 0.96787(12) 0.0247(3) Uani 1 1 d .
H13 H -0.356854 0.423188 0.995887 0.030 Uiso 1 1 calc R
C21 C 0.57539(16) 0.09042(11) 0.51078(11) 0.0197(3) Uani 1 1 d .
N44 N 0.76493(18) 0.01831(14) 0.92816(14) 0.0454(4) Uani 1 1 d .
C8 C 0.00093(19) 0.33306(13) 1.31500(12) 0.0280(3) Uani 1 1 d .
H8 H -0.032535 0.317930 1.386734 0.034 Uiso 1 1 calc R
C7 C 0.15050(19) 0.29793(13) 1.27625(12) 0.0280(3) Uani 1 1 d .
H7 H 0.220222 0.259326 1.321578 0.034 Uiso 1 1 calc R
C26 C 0.14864(17) 0.12515(13) 0.53873(12) 0.0263(3) Uani 1 1 d .
H26 H 0.080867 0.105692 0.512743 0.032 Uiso 1 1 calc R
C30 C 0.51886(18) 0.11229(12) 0.25214(11) 0.0257(3) Uani 1 1 d .
H30 H 0.449028 0.094207 0.226664 0.031 Uiso 1 1 calc R
C16 C 0.04001(18) 0.32397(13) 0.88481(12) 0.0264(3) Uani 1 1 d .
H16 H 0.140989 0.299897 0.854983 0.032 Uiso 1 1 calc R
C32 C 0.74270(19) 0.18466(13) 0.22180(12) 0.0304(3) Uani 1 1 d .
H32 H 0.825875 0.216431 0.175624 0.036 Uiso 1 1 calc R
C23 C 0.34636(18) 0.17799(13) 0.61773(12) 0.0278(3) Uani 1 1 d .
H23 H 0.413422 0.194683 0.646519 0.033 Uiso 1 1 calc R
C31 C 0.6392(2) 0.16010(13) 0.18470(12) 0.0303(4) Uani 1 1 d .
H31 H 0.650571 0.175952 0.113093 0.036 Uiso 1 1 calc R
C38 C 0.6331(2) 0.42982(14) 0.61006(13) 0.0305(3) Uani 1 1 d .
C14 C -0.23012(18) 0.34174(14) 0.90072(13) 0.0297(3) Uani 1 1 d .
H14 H -0.313265 0.328664 0.883474 0.036 Uiso 1 1 calc R
C25 C 0.09111(19) 0.18140(15) 0.60658(13) 0.0338(4) Uani 1 1 d .
H25 H -0.015543 0.202210 0.625564 0.041 Uiso 1 1 calc R
C15 C -0.08225(19) 0.30559(14) 0.85917(13) 0.0313(4) Uani 1 1 d .
H15 H -0.064009 0.267960 0.812832 0.038 Uiso 1 1 calc R
C24 C 0.1903(2) 0.20696(15) 0.64639(13) 0.0356(4) Uani 1 1 d .
H24 H 0.151387 0.244565 0.693630 0.043 Uiso 1 1 calc R
C41 C 0.6350(2) 0.08588(15) 0.92009(15) 0.0382(4) Uani 1 1 d .
C40 C 0.4658(2) 0.42668(16) 0.63702(15) 0.0376(4) Uani 1 1 d .
H40A H 0.446169 0.376997 0.609934 0.056 Uiso 1 1 calc GR
H40B H 0.408989 0.499254 0.606910 0.056 Uiso 1 1 calc GR
H40C H 0.433411 0.401738 0.711781 0.056 Uiso 1 1 calc GR
C36 C 0.5816(2) 0.56631(16) 0.69247(16) 0.0427(4) Uani 1 1 d .
H36A H 0.553948 0.638623 0.643321 0.064 Uiso 1 1 calc GR
H36B H 0.634728 0.571045 0.740339 0.064 Uiso 1 1 calc GR
H36C H 0.489430 0.536266 0.730734 0.064 Uiso 1 1 calc GR
C37 C 0.8413(2) 0.50663(19) 0.60677(18) 0.0496(5) Uani 1 1 d .
H37A H 0.899808 0.450925 0.577623 0.074 Uiso 1 1 calc GR
H37B H 0.880006 0.497775 0.666945 0.074 Uiso 1 1 calc GR
H37C H 0.851461 0.578257 0.555299 0.074 Uiso 1 1 calc GR
C43 C 0.5880(3) 0.13879(19) 0.81784(16) 0.0538(6) Uani 1 1 d .
H43A H 0.561759 0.084968 0.799163 0.081 Uiso 1 1 calc GR
H43B H 0.672068 0.169944 0.766058 0.081 Uiso 1 1 calc GR
H43C H 0.499488 0.196152 0.821229 0.081 Uiso 1 1 calc GR
C46 C 0.8056(3) -0.03254(18) 1.0308(2) 0.0550(6) Uani 1 1 d .
H46A H 0.833648 0.021193 1.048689 0.082 Uiso 1 1 calc GR
H46B H 0.891833 -0.092159 1.030524 0.082 Uiso 1 1 calc GR
H46C H 0.718478 -0.060436 1.081464 0.082 Uiso 1 1 calc GR
C45 C 0.8675(3) -0.0130(2) 0.8439(2) 0.0601(6) Uani 1 1 d .
H45A H 0.822201 0.021679 0.782200 0.090 Uiso 1 1 calc GR
H45B H 0.884444 -0.091691 0.862667 0.090 Uiso 1 1 calc GR
H45C H 0.964821 0.009934 0.830360 0.090 Uiso 1 1 calc GR
H18 H 0.670(3) 0.289(2) 0.522(2) 0.075(9) Uiso 1 1 d D
loop_
_atom_site_aniso_label
_atom_site_aniso_U_11
_atom_site_aniso_U_22
_atom_site_aniso_U_33
_atom_site_aniso_U_23
_atom_site_aniso_U_13
_atom_site_aniso_U_12
O1 0.0246(6) 0.0214(5) 0.0400(6) -0.0109(5) -0.0020(5) 0.0019(4)
O18 0.0362(6) 0.0240(6) 0.0366(6) -0.0112(5) -0.0107(5) -0.0086(5)
O42 0.0316(6) 0.0336(6) 0.0421(7) -0.0214(5) -0.0116(5) 0.0069(5)
O39 0.0347(7) 0.0408(7) 0.0554(8) -0.0317(6) -0.0033(6) -0.0081(6)
O19 0.0382(7) 0.0340(6) 0.0497(7) -0.0146(6) -0.0235(6) -0.0058(5)
O2 0.0214(6) 0.0299(6) 0.0518(8) -0.0099(6) 0.0083(5) -0.0013(5)
N35 0.0373(8) 0.0361(8) 0.0411(8) -0.0222(7) -0.0014(6) -0.0113(6)
C12 0.0188(7) 0.0192(7) 0.0205(7) -0.0037(5) -0.0031(5) -0.0040(5)
C17 0.0179(7) 0.0184(7) 0.0212(7) -0.0041(5) -0.0036(5) -0.0036(5)
C5 0.0193(7) 0.0167(6) 0.0212(7) -0.0040(5) -0.0026(5) -0.0042(5)
C22 0.0205(7) 0.0196(7) 0.0194(6) -0.0045(6) -0.0030(5) -0.0031(5)
C10 0.0192(7) 0.0177(7) 0.0235(7) -0.0055(6) -0.0032(5) -0.0037(5)
C27 0.0208(7) 0.0185(7) 0.0194(6) -0.0031(5) -0.0041(5) -0.0026(5)
C3 0.0187(7) 0.0234(7) 0.0244(7) -0.0085(6) -0.0059(6) -0.0006(6)
C11 0.0159(6) 0.0205(7) 0.0213(7) -0.0056(6) -0.0010(5) -0.0027(5)
C34 0.0212(7) 0.0174(7) 0.0206(7) -0.0060(5) -0.0037(5) -0.0024(5)
C28 0.0204(7) 0.0220(7) 0.0208(7) -0.0064(6) -0.0065(5) -0.0039(6)
C4 0.0156(6) 0.0195(7) 0.0217(7) -0.0065(5) -0.0018(5) -0.0017(5)
C29 0.0221(7) 0.0177(7) 0.0211(7) -0.0057(6) -0.0041(6) -0.0018(5)
C20 0.0222(7) 0.0263(8) 0.0230(7) -0.0114(6) -0.0010(6) -0.0069(6)
C6 0.0216(7) 0.0219(7) 0.0271(7) -0.0053(6) -0.0057(6) -0.0027(6)
C9 0.0241(7) 0.0234(7) 0.0237(7) -0.0072(6) -0.0007(6) -0.0062(6)
C33 0.0255(7) 0.0237(7) 0.0263(7) -0.0084(6) -0.0018(6) -0.0072(6)
C13 0.0185(7) 0.0254(7) 0.0274(7) -0.0065(6) -0.0037(6) -0.0040(6)
C21 0.0191(7) 0.0200(7) 0.0203(7) -0.0070(5) -0.0036(5) -0.0040(5)
N44 0.0324(8) 0.0381(9) 0.0642(11) -0.0236(8) -0.0010(7) -0.0030(7)
C8 0.0341(8) 0.0272(8) 0.0214(7) -0.0053(6) -0.0047(6) -0.0086(7)
C7 0.0319(8) 0.0241(8) 0.0267(8) -0.0036(6) -0.0127(6) -0.0039(6)
C26 0.0213(7) 0.0281(8) 0.0260(7) -0.0062(6) -0.0042(6) -0.0036(6)
C30 0.0321(8) 0.0225(7) 0.0227(7) -0.0069(6) -0.0079(6) -0.0037(6)
C16 0.0228(7) 0.0284(8) 0.0275(7) -0.0116(6) -0.0024(6) -0.0028(6)
C32 0.0329(8) 0.0276(8) 0.0252(8) -0.0071(6) 0.0045(6) -0.0101(7)
C23 0.0279(8) 0.0314(8) 0.0258(7) -0.0135(7) -0.0030(6) -0.0048(6)
C31 0.0409(9) 0.0285(8) 0.0183(7) -0.0064(6) -0.0021(6) -0.0072(7)
C38 0.0349(9) 0.0270(8) 0.0312(8) -0.0106(7) -0.0070(7) -0.0067(7)
C14 0.0249(8) 0.0350(9) 0.0333(8) -0.0122(7) -0.0082(6) -0.0085(7)
C25 0.0223(8) 0.0384(9) 0.0341(9) -0.0129(7) 0.0017(6) -0.0012(7)
C15 0.0305(8) 0.0359(9) 0.0335(8) -0.0182(7) -0.0068(7) -0.0052(7)
C24 0.0320(9) 0.0404(10) 0.0341(9) -0.0209(8) 0.0025(7) -0.0026(7)
C41 0.0377(10) 0.0286(9) 0.0493(10) -0.0148(8) -0.0083(8) -0.0053(7)
C40 0.0336(9) 0.0387(10) 0.0454(10) -0.0195(8) -0.0063(8) -0.0074(8)
C36 0.0480(11) 0.0422(10) 0.0462(10) -0.0278(9) -0.0048(9) -0.0065(9)
C37 0.0422(11) 0.0570(13) 0.0632(13) -0.0343(11) 0.0032(10) -0.0230(10)
C43 0.0642(14) 0.0487(12) 0.0390(10) -0.0164(9) -0.0095(10) 0.0070(11)
C46 0.0432(11) 0.0425(11) 0.0828(16) -0.0224(11) -0.0330(11) 0.0090(9)
C45 0.0405(12) 0.0516(13) 0.0737(15) -0.0269(12) 0.0159(11) -0.0038(10)
loop_
_atom_type_symbol
_atom_type_description
_atom_type_scat_dispersion_real
_atom_type_scat_dispersion_imag
_atom_type_scat_source
C C 0.0181 0.0091 'International Tables Vol C Tables 4.2.6.8 and 6.1.1.4'
H H 0.0000 0.0000 'International Tables Vol C Tables 4.2.6.8 and 6.1.1.4'
N N 0.0311 0.0180 'International Tables Vol C Tables 4.2.6.8 and 6.1.1.4'
O O 0.0492 0.0322 'International Tables Vol C Tables 4.2.6.8 and 6.1.1.4'
loop_
_exptl_crystal_face_index_h
_exptl_crystal_face_index_k
_exptl_crystal_face_index_l
_exptl_crystal_face_perp_dist
0 -1 1 0.0521
1 0 0 0.0887
2 1 -1 0.0882
-1 1 -1 0.0588
-1 0 0 0.0623
0 -1 -1 0.0100
0 1 1 0.0100
-1 -1 0 0.0674
loop_
_geom_angle_atom_site_label_1
_geom_angle_atom_site_label_2
_geom_angle_atom_site_label_3
_geom_angle
_geom_angle_site_symmetry_1
_geom_angle_site_symmetry_3
C3 O1 H1 112.0(15) . .
C20 O18 H18 107.8(19) . .
C38 N35 C36 123.99(16) . .
C38 N35 C37 119.96(15) . .
C37 N35 C36 115.96(15) . .
C17 C12 C11 117.99(13) . .
C13 C12 C17 120.28(14) . .
C13 C12 C11 121.71(13) . .
C12 C17 C4 116.74(12) . .
C16 C17 C12 118.92(13) . .
C16 C17 C4 124.32(13) . .
C10 C5 C4 116.40(12) . .
C6 C5 C10 119.24(13) . .
C6 C5 C4 124.33(13) . .
C27 C22 C21 117.06(13) . .
C23 C22 C27 119.02(14) . .
C23 C22 C21 123.90(13) . .
C5 C10 C11 118.30(13) . .
C9 C10 C5 119.92(14) . .
C9 C10 C11 121.78(13) . .
C22 C27 C28 117.98(13) . .
C26 C27 C22 119.99(14) . .
C26 C27 C28 122.04(13) . .
O1 C3 C4 112.78(12) . .
O2 C3 O1 123.18(14) . .
O2 C3 C4 124.03(14) . .
C12 C11 H11 107.6 . .
C12 C11 C4 113.07(11) . 2_567
C10 C11 C12 108.07(12) . .
C10 C11 H11 107.6 . .
C10 C11 C4 112.67(11) . 2_567
C4 C11 H11 107.6 2_567 .
C29 C34 C21 116.54(12) . .
C33 C34 C29 119.56(13) . .
C33 C34 C21 123.84(13) . .
C27 C28 H28 107.8 . .
C27 C28 C29 108.16(12) . .
C27 C28 C21 112.54(11) . 2_656
C29 C28 H28 107.8 . .
C29 C28 C21 112.48(11) . 2_656
C21 C28 H28 107.8 2_656 .
C17 C4 C5 107.38(11) . .
C17 C4 C3 109.93(12) . .
C17 C4 C11 110.74(11) . 2_567
C5 C4 C3 110.03(11) . .
C5 C4 C11 110.16(11) . 2_567
C3 C4 C11 108.60(11) . 2_567
C34 C29 C28 118.30(12) . .
C30 C29 C34 119.68(13) . .
C30 C29 C28 122.02(13) . .
O18 C20 C21 112.35(12) . .
O19 C20 O18 123.02(14) . .
O19 C20 C21 124.62(14) . .
C5 C6 H6 119.8 . .
C7 C6 C5 120.35(14) . .
C7 C6 H6 119.8 . .
C10 C9 H9 119.8 . .
C8 C9 C10 120.42(14) . .
C8 C9 H9 119.8 . .
C34 C33 H33 119.9 . .
C34 C33 C32 120.15(14) . .
C32 C33 H33 119.9 . .
C12 C13 H13 119.7 . .
C12 C13 C14 120.58(14) . .
C14 C13 H13 119.7 . .
C22 C21 C34 107.62(11) . .
C22 C21 C28 110.49(11) . 2_656
C22 C21 C20 109.70(12) . .
C34 C21 C28 110.20(11) . 2_656
C34 C21 C20 110.23(11) . .
C20 C21 C28 108.59(11) . 2_656
C41 N44 C46 117.12(18) . .
C41 N44 C45 124.6(2) . .
C45 N44 C46 118.26(18) . .
C9 C8 H8 120.3 . .
C7 C8 C9 119.50(14) . .
C7 C8 H8 120.3 . .
C6 C7 H7 119.7 . .
C8 C7 C6 120.53(14) . .
C8 C7 H7 119.7 . .
C27 C26 H26 119.7 . .
C25 C26 C27 120.55(15) . .
C25 C26 H26 119.7 . .
C29 C30 H30 119.8 . .
C31 C30 C29 120.31(14) . .
C31 C30 H30 119.8 . .
C17 C16 H16 119.8 . .
C17 C16 C15 120.35(15) . .
C15 C16 H16 119.8 . .
C33 C32 H32 119.9 . .
C31 C32 C33 120.29(14) . .
C31 C32 H32 119.9 . .
C22 C23 H23 119.8 . .
C24 C23 C22 120.47(15) . .
C24 C23 H23 119.8 . .
C30 C31 H31 120.0 . .
C32 C31 C30 119.95(14) . .
C32 C31 H31 120.0 . .
O39 C38 N35 120.65(16) . .
O39 C38 C40 121.04(15) . .
N35 C38 C40 118.31(16) . .
C13 C14 H14 120.3 . .
C15 C14 C13 119.32(15) . .
C15 C14 H14 120.3 . .
C26 C25 H25 120.3 . .
C24 C25 C26 119.49(15) . .
C24 C25 H25 120.3 . .
C16 C15 H15 119.7 . .
C14 C15 C16 120.51(15) . .
C14 C15 H15 119.7 . .
C23 C24 H24 119.8 . .
C25 C24 C23 120.44(16) . .
C25 C24 H24 119.8 . .
O42 C41 N44 119.79(19) . .
O42 C41 C43 121.05(17) . .
N44 C41 C43 119.16(19) . .
C38 C40 H40A 109.5 . .
C38 C40 H40B 109.5 . .
C38 C40 H40C 109.5 . .
H40A C40 H40B 109.5 . .
H40A C40 H40C 109.5 . .
H40B C40 H40C 109.5 . .
N35 C36 H36A 109.5 . .
N35 C36 H36B 109.5 . .
N35 C36 H36C 109.5 . .
H36A C36 H36B 109.5 . .
H36A C36 H36C 109.5 . .
H36B C36 H36C 109.5 . .
N35 C37 H37A 109.5 . .
N35 C37 H37B 109.5 . .
N35 C37 H37C 109.5 . .
H37A C37 H37B 109.5 . .
H37A C37 H37C 109.5 . .
H37B C37 H37C 109.5 . .
C41 C43 H43A 109.5 . .
C41 C43 H43B 109.5 . .
C41 C43 H43C 109.5 . .
H43A C43 H43B 109.5 . .
H43A C43 H43C 109.5 . .
H43B C43 H43C 109.5 . .
N44 C46 H46A 109.5 . .
N44 C46 H46B 109.5 . .
N44 C46 H46C 109.5 . .
H46A C46 H46B 109.5 . .
H46A C46 H46C 109.5 . .
H46B C46 H46C 109.5 . .
N44 C45 H45A 109.5 . .
N44 C45 H45B 109.5 . .
N44 C45 H45C 109.5 . .
H45A C45 H45B 109.5 . .
H45A C45 H45C 109.5 . .
H45B C45 H45C 109.5 . .
loop_
_geom_bond_atom_site_label_1
_geom_bond_atom_site_label_2
_geom_bond_distance
_geom_bond_site_symmetry_2
O1 H1 0.893(16) .
O1 C3 1.3147(19) .
O18 C20 1.3246(19) .
O18 H18 0.882(17) .
O42 C41 1.265(2) .
O39 C38 1.250(2) .
O19 C20 1.2054(19) .
O2 C3 1.2052(19) .
N35 C38 1.329(2) .
N35 C36 1.464(2) .
N35 C37 1.460(2) .
C12 C17 1.398(2) .
C12 C11 1.512(2) .
C12 C13 1.388(2) .
C17 C4 1.5364(19) .
C17 C16 1.393(2) .
C5 C10 1.399(2) .
C5 C4 1.5383(19) .
C5 C6 1.389(2) .
C22 C27 1.399(2) .
C22 C21 1.5311(19) .
C22 C23 1.393(2) .
C10 C11 1.511(2) .
C10 C9 1.391(2) .
C27 C28 1.510(2) .
C27 C26 1.392(2) .
C3 C4 1.539(2) .
C11 H11 1.0000 .
C11 C4 1.6113(19) 2_567
C34 C29 1.403(2) .
C34 C33 1.390(2) .
C34 C21 1.5338(19) .
C28 H28 1.0000 .
C28 C29 1.511(2) .
C28 C21 1.615(2) 2_656
C29 C30 1.393(2) .
C20 C21 1.5418(19) .
C6 H6 0.9500 .
C6 C7 1.388(2) .
C9 H9 0.9500 .
C9 C8 1.389(2) .
C33 H33 0.9500 .
C33 C32 1.392(2) .
C13 H13 0.9500 .
C13 C14 1.389(2) .
N44 C41 1.313(2) .
N44 C46 1.475(3) .
N44 C45 1.461(3) .
C8 H8 0.9500 .
C8 C7 1.382(2) .
C7 H7 0.9500 .
C26 H26 0.9500 .
C26 C25 1.387(2) .
C30 H30 0.9500 .
C30 C31 1.388(2) .
C16 H16 0.9500 .
C16 C15 1.393(2) .
C32 H32 0.9500 .
C32 C31 1.383(2) .
C23 H23 0.9500 .
C23 C24 1.389(2) .
C31 H31 0.9500 .
C38 C40 1.504(2) .
C14 H14 0.9500 .
C14 C15 1.385(2) .
C25 H25 0.9500 .
C25 C24 1.384(3) .
C15 H15 0.9500 .
C24 H24 0.9500 .
C41 C43 1.494(3) .
C40 H40A 0.9800 .
C40 H40B 0.9800 .
C40 H40C 0.9800 .
C36 H36A 0.9800 .
C36 H36B 0.9800 .
C36 H36C 0.9800 .
C37 H37A 0.9800 .
C37 H37B 0.9800 .
C37 H37C 0.9800 .
C43 H43A 0.9800 .
C43 H43B 0.9800 .
C43 H43C 0.9800 .
C46 H46A 0.9800 .
C46 H46B 0.9800 .
C46 H46C 0.9800 .
C45 H45A 0.9800 .
C45 H45B 0.9800 .
C45 H45C 0.9800 .
loop_
_exptl_oxdiff_crystal_face_indexfrac_h
_exptl_oxdiff_crystal_face_indexfrac_k
_exptl_oxdiff_crystal_face_indexfrac_l
_exptl_oxdiff_crystal_face_x
_exptl_oxdiff_crystal_face_y
_exptl_oxdiff_crystal_face_z
-0.0011 -0.9995 0.9978 0.0339 -0.0725 0.1820
0.9983 0.0001 -0.0004 0.0859 -0.1353 -0.0698
1.9976 0.9997 -0.9985 0.1380 -0.1980 -0.3216
-0.9972 0.9995 -0.9974 -0.1198 0.2078 -0.1122
-0.9983 -0.0001 0.0004 -0.0859 0.1353 0.0698
-0.0007 -0.9994 -0.9988 -0.0890 -0.1052 -0.0169
0.0007 0.9994 0.9988 0.0890 0.1052 0.0169
-0.9991 -0.9996 -0.0001 -0.1135 0.0464 0.1524
