#------------------------------------------------------------------------------
#$Date: 2019-11-26 03:51:40 +0200 (Tue, 26 Nov 2019) $
#$Revision: 242548 $
#$URL: file:///home/coder/svn-repositories/cod/cif/4/13/26/4132601.cif $
#------------------------------------------------------------------------------
#
# This file is available in the Crystallography Open Database (COD),
# http://www.crystallography.net/
#
# All data on this site have been placed in the public domain by the
# contributors.
#
data_4132601
loop_
_publ_author_name
'Collet, Guillaume'
'Lathion, Timoth\'ee'
'Besnard, C\'eline'
'Piguet, Claude'
'Petoud, St\'ephane'
_publ_section_title
;
 On-Demand Degradation of Metal-Organic Framework Based on Photocleavable
 Dianthracene-Based Ligand.
;
_journal_issue                   34
_journal_name_full               'Journal of the American Chemical Society'
_journal_page_first              10820
_journal_page_last               10828
_journal_paper_doi               10.1021/jacs.8b05047
_journal_volume                  140
_journal_year                    2018
_chemical_formula_moiety         '2(C2 H6 O S), C30 H20 O4'
_chemical_formula_sum            'C34 H32 O6 S2'
_chemical_formula_weight         600.71
_space_group_crystal_system      monoclinic
_space_group_IT_number           14
_space_group_name_Hall           '-P 2yn'
_space_group_name_H-M_alt        'P 1 21/n 1'
_atom_sites_solution_hydrogens   mixed
_atom_sites_solution_primary     dual
_audit_creation_date             2018-05-09
_audit_creation_method
;
Olex2 1.2
(compiled 2018.04.26 svn.r3504 for OlexSys, GUI svn.r5492)
;
_cell_angle_alpha                90
_cell_angle_beta                 104.060(3)
_cell_angle_gamma                90
_cell_formula_units_Z            2
_cell_length_a                   10.4209(3)
_cell_length_b                   7.9301(2)
_cell_length_c                   18.7758(5)
_cell_measurement_reflns_used    3380
_cell_measurement_temperature    180.00(10)
_cell_measurement_theta_max      73.4440
_cell_measurement_theta_min      4.3370
_cell_volume                     1505.13(7)
_computing_cell_refinement       'CrysAlisPro 1.171.38.43 (Rigaku OD, 2015)'
_computing_data_collection       'CrysAlisPro 1.171.38.43 (Rigaku OD, 2015)'
_computing_data_reduction        'CrysAlisPro 1.171.38.43 (Rigaku OD, 2015)'
_computing_molecular_graphics    'Olex2 (Dolomanov et al., 2009)'
_computing_publication_material  'Olex2 (Dolomanov et al., 2009)'
_computing_structure_refinement  'ShelXL (Sheldrick, 2015)'
_computing_structure_solution    'ShelXT (Sheldrick, 2015)'
_diffrn_ambient_environment      N~2~
_diffrn_ambient_temperature      180.00(10)
_diffrn_detector                 'CCD plate'
_diffrn_detector_area_resol_mean 10.4679
_diffrn_detector_type            Atlas
_diffrn_measured_fraction_theta_full 0.995
_diffrn_measured_fraction_theta_max 0.971
_diffrn_measurement_details
;
List of Runs (angles in degrees, time in seconds):

  # Type    Start    End  Width  t~exp~   \w     \q     \k     \f   Frames
--------------------------------------------------------------------------
  1  \w    -76.00  20.00   1.00    1.00    --  -37.56 -19.00  30.00   96
  2  \w     56.00  94.00   1.00    1.00    --   37.56-126.00  25.00   38
  3  \w     40.00  68.00   1.00    2.00    --  110.40 -45.00 -90.00   28
  4  \w     83.00 109.00   1.00    2.00    --  110.40 -94.00 -90.00   26
  5  \w     34.00 107.00   1.00    2.00    --  110.40-111.00  60.00   73
  6  \w     93.00 124.00   1.00    2.00    --  110.40 -61.00  60.00   31
  7  \w     88.00 169.00   1.00    2.00    --  110.40  45.00   0.00   81
  8  \w    106.00 134.00   1.00    2.00    --  110.40 111.00-150.00   28
  9  \w     29.00 141.00   1.00    2.00    --  110.40 -30.00-180.00  112
 10  \w     32.00  85.00   1.00    2.00    --  110.40 -61.00  60.00   53
 11  \w   -115.00 -22.00   1.00    1.00    --  -37.56 -38.00   0.00   93
;
_diffrn_measurement_device       'four-circle diffractometer'
_diffrn_measurement_device_type  'SuperNova, Dual, Cu at zero, Atlas'
_diffrn_measurement_method       '\w scans'
_diffrn_orient_matrix_type
'CrysAlisPro convention (1999,Acta A55,543-557)'
_diffrn_orient_matrix_UB_11      -0.1488213000
_diffrn_orient_matrix_UB_12      0.0141888000
_diffrn_orient_matrix_UB_13      -0.0370620000
_diffrn_orient_matrix_UB_21      0.0302895000
_diffrn_orient_matrix_UB_22      -0.0230298000
_diffrn_orient_matrix_UB_23      -0.0757257000
_diffrn_orient_matrix_UB_31      -0.0145071000
_diffrn_orient_matrix_UB_32      -0.1922280000
_diffrn_orient_matrix_UB_33      0.0063877000
_diffrn_radiation_monochromator  mirror
_diffrn_radiation_probe          x-ray
_diffrn_radiation_type           CuK\a
_diffrn_radiation_wavelength     1.54184
_diffrn_reflns_av_R_equivalents  0.0177
_diffrn_reflns_av_unetI/netI     0.0201
_diffrn_reflns_Laue_measured_fraction_full 0.995
_diffrn_reflns_Laue_measured_fraction_max 0.971
_diffrn_reflns_limit_h_max       12
_diffrn_reflns_limit_h_min       -12
_diffrn_reflns_limit_k_max       5
_diffrn_reflns_limit_k_min       -9
_diffrn_reflns_limit_l_max       22
_diffrn_reflns_limit_l_min       -23
_diffrn_reflns_number            4930
_diffrn_reflns_point_group_measured_fraction_full 0.995
_diffrn_reflns_point_group_measured_fraction_max 0.971
_diffrn_reflns_theta_full        67.684
_diffrn_reflns_theta_max         73.339
_diffrn_reflns_theta_min         4.457
_diffrn_source                   'micro-focus sealed X-ray tube'
_diffrn_source_type              'SuperNova (Cu) X-ray Source'
_exptl_absorpt_coefficient_mu    1.972
_exptl_absorpt_correction_T_max  0.625
_exptl_absorpt_correction_T_min  0.428
_exptl_absorpt_correction_type   analytical
_exptl_absorpt_process_details
;
CrysAlisPro 1.171.38.43 (Rigaku Oxford Diffraction, 2015)
Analytical numeric absorption correction using a multifaceted crystal
			model based on expressions derived by R.C. Clark & J.S. Reid.
(Clark, R. C. & Reid, J. S. (1995). Acta Cryst. A51, 887-897)
Empirical absorption correction using spherical harmonics,
 implemented in SCALE3 ABSPACK scaling algorithm.
;
_exptl_crystal_colour            colourless
_exptl_crystal_colour_primary    colourless
_exptl_crystal_density_diffrn    1.325
_exptl_crystal_description       prism
_exptl_crystal_F_000             632
_exptl_crystal_size_max          0.634
_exptl_crystal_size_mid          0.513
_exptl_crystal_size_min          0.302
_refine_diff_density_max         0.528
_refine_diff_density_min         -0.538
_refine_diff_density_rms         0.066
_refine_ls_extinction_coef       0.0195(11)
_refine_ls_extinction_expression Fc^*^=kFc[1+0.001xFc^2^\l^3^/sin(2\q)]^-1/4^
_refine_ls_extinction_method     'SHELXL-2017/1 (Sheldrick 2017)'
_refine_ls_goodness_of_fit_ref   1.044
_refine_ls_hydrogen_treatment    mixed
_refine_ls_matrix_type           full
_refine_ls_number_parameters     196
_refine_ls_number_reflns         2934
_refine_ls_number_restraints     0
_refine_ls_restrained_S_all      1.044
_refine_ls_R_factor_all          0.0500
_refine_ls_R_factor_gt           0.0486
_refine_ls_shift/su_max          0.001
_refine_ls_shift/su_mean         0.000
_refine_ls_structure_factor_coef Fsqd
_refine_ls_weighting_details
'w=1/[\s^2^(Fo^2^)+(0.0772P)^2^+1.1093P] where P=(Fo^2^+2Fc^2^)/3'
_refine_ls_weighting_scheme      calc
_refine_ls_wR_factor_gt          0.1298
_refine_ls_wR_factor_ref         0.1311
_reflns_Friedel_coverage         0.000
_reflns_number_gt                2804
_reflns_number_total             2934
_reflns_threshold_expression     'I > 2\s(I)'
_cod_data_source_file            ja8b05047_si_003.cif
_cod_data_source_block           diant_b
_cod_database_code               4132601
_shelx_shelxl_version_number     2017/1
_chemical_oxdiff_formula         'C17 H16 O3 S1'
_shelx_space_group_comment
;
The symmetry employed for this shelxl refinement is uniquely defined
by the following loop, which should always be used as a source of
symmetry information in preference to the above space-group names.
They are only intended as comments.
;
_reflns_odcompleteness_completeness 99.56
_reflns_odcompleteness_iscentric 1
_reflns_odcompleteness_theta     67.29
_olex2_refinement_description
;
1. Fixed Uiso
 At 1.2 times of:
  All C(H) groups
 At 1.5 times of:
  All C(H,H,H) groups, All O(H) groups
2.a Ternary CH refined with riding coordinates:
 C21(H21)
2.b Aromatic/amide H refined with riding coordinates:
 C23(H23), C24(H24), C25(H25), C26(H26), C30(H30), C31(H31), C32(H32), C33(H33)
2.c Idealised Me refined as rotating group:
 C3S(H3SA,H3SB,H3SC), C4S(H4SA,H4SB,H4SC)
;
_shelx_res_file
;
TITL diant_b_a.res in P2(1)/n
    diant_b.res
    created by SHELXL-2017/1 at 12:06:41 on 09-May-2018
REM Old TITL diant_b in P2(1)/n
REM SHELXT solution in P2(1)/n
REM R1 0.157, Rweak 0.183, Alpha 0.032, Orientation as input
REM Formula found by SHELXT: C17 O3 Cl
CELL 1.54184 10.4209 7.9301 18.7758 90 104.06 90
ZERR 2 0.0003 0.0002 0.0005 0 0.003 0
LATT 1
SYMM 0.5-X,0.5+Y,0.5-Z
SFAC C H O S
UNIT 68 64 12 4

L.S. 4
PLAN  20
TEMP -93
BOND $H
list 4
MORE -1
CONF
fmap 2
acta
REM <olex2.extras>
REM <HklSrc "%.\\diant_b.hkl">
REM </olex2.extras>

WGHT    0.077200    1.109300
EXTI    0.019452
FVAR       9.84553
S1S   4    0.802053   -0.116092    0.300256    11.00000    0.04562    0.02194 =
         0.04306   -0.00692    0.02783   -0.00425
O2S   3    0.848376    0.058698    0.325002    11.00000    0.03823    0.02893 =
         0.05868   -0.01677    0.02995   -0.00962
C3S   1    0.626326   -0.096641    0.267375    11.00000    0.04956    0.06378 =
         0.06995   -0.02744    0.01194   -0.01754
AFIX 137
H3SA  2    0.588611   -0.053899    0.306855    11.00000   -1.50000
H3SB  2    0.588148   -0.207316    0.251420    11.00000   -1.50000
H3SC  2    0.606085   -0.018069    0.225861    11.00000   -1.50000
AFIX   0
C4S   1    0.801225   -0.237068    0.378551    11.00000    0.11564    0.04533 =
         0.07166    0.02308    0.05384    0.02961
AFIX 137
H4SA  2    0.891887   -0.248831    0.408582    11.00000   -1.50000
H4SB  2    0.764606   -0.348946    0.363475    11.00000   -1.50000
H4SC  2    0.746721   -0.180896    0.407263    11.00000   -1.50000
AFIX   0

O5    3    0.631869    0.086584    0.434589    11.00000    0.05693    0.01660 =
         0.05342   -0.00192    0.03549    0.00345
O6    3    0.743398    0.286246    0.391591    11.00000    0.02760    0.02260 =
         0.03501   -0.00704    0.01629   -0.00053
H6    2    0.773459    0.203102    0.371167    11.00000   -1.50000
C4    1    0.657739    0.233272    0.428572    11.00000    0.02099    0.01909 =
         0.02158   -0.00185    0.00555    0.00222
C21   1    0.500090    0.697613    0.490077    11.00000    0.02131    0.01233 =
         0.02240   -0.00009    0.00702    0.00032
AFIX  13
H21   2    0.489183    0.822929    0.489468    11.00000   -1.20000
AFIX   0
C22   1    0.645239    0.659679    0.519913    11.00000    0.02144    0.01717 =
         0.01992    0.00011    0.00734   -0.00117
C23   1    0.731168    0.777367    0.561127    11.00000    0.02693    0.02098 =
         0.02677   -0.00507    0.00819   -0.00378
AFIX  43
H23   2    0.698281    0.883928    0.571558    11.00000   -1.20000
AFIX   0
C24   1    0.864452    0.740458    0.587120    11.00000    0.02645    0.03366 =
         0.03031   -0.00889    0.00484   -0.00994
AFIX  43
H24   2    0.922994    0.821856    0.614628    11.00000   -1.20000
AFIX   0
C25   1    0.911495    0.584178    0.572680    11.00000    0.01848    0.04072 =
         0.02971   -0.00401    0.00215   -0.00102
AFIX  43
H25   2    1.002618    0.558186    0.590680    11.00000   -1.20000
AFIX   0
C26   1    0.826495    0.464792    0.532028    11.00000    0.02139    0.02609 =
         0.02591   -0.00204    0.00504    0.00275
AFIX  43
H26   2    0.859572    0.357309    0.522994    11.00000   -1.20000
AFIX   0
C27   1    0.692987    0.502326    0.504512    11.00000    0.01963    0.01817 =
         0.01851   -0.00042    0.00546   -0.00079
C28   1    0.591267    0.379716    0.459867    11.00000    0.01713    0.01520 =
         0.01969   -0.00064    0.00600    0.00147
C29   1    0.505723    0.478894    0.394926    11.00000    0.01594    0.01655 =
         0.02149    0.00118    0.00473   -0.00103
C30   1    0.469643    0.418981    0.323387    11.00000    0.02217    0.02043 =
         0.02379   -0.00158    0.00632   -0.00240
AFIX  43
H30   2    0.499252    0.311168    0.312132    11.00000   -1.20000
AFIX   0
C31   1    0.390332    0.515936    0.268036    11.00000    0.02850    0.03263 =
         0.01958   -0.00048    0.00361   -0.00368
AFIX  43
H31   2    0.366824    0.474590    0.219096    11.00000   -1.20000
AFIX   0
C32   1    0.345662    0.672185    0.284043    11.00000    0.03002    0.03276 =
         0.02483    0.00819    0.00278    0.00462
AFIX  43
H32   2    0.291741    0.738450    0.246212    11.00000   -1.20000
AFIX   0
C33   1    0.380056    0.731893    0.355814    11.00000    0.02679    0.02237 =
         0.02742    0.00505    0.00754    0.00568
AFIX  43
H33   2    0.348701    0.838837    0.366911    11.00000   -1.20000
AFIX   0
C34   1    0.459888    0.636607    0.411493    11.00000    0.01849    0.01737 =
         0.02174    0.00141    0.00708    0.00001
HKLF 4




REM  diant_b_a.res in P2(1)/n
REM R1 =  0.0486 for    2804 Fo > 4sig(Fo)  and  0.0500 for all    2934 data
REM    196 parameters refined using      0 restraints

END

WGHT      0.0772      1.1094

REM Highest difference peak  0.528,  deepest hole -0.538,  1-sigma level  0.066
Q1    1   0.8663 -0.1046  0.3413  11.00000  0.05    0.53
Q2    1   0.8756 -0.1602  0.4101  11.00000  0.05    0.52
Q3    1   0.6636 -0.1759  0.3014  11.00000  0.05    0.43
Q4    1   0.5462  0.4263  0.4256  11.00000  0.05    0.37
Q5    1   0.4260  0.6852  0.3817  11.00000  0.05    0.29
Q6    1   0.4725  0.6680  0.4511  11.00000  0.05    0.28
Q7    1   0.3770  0.7180  0.3172  11.00000  0.05    0.27
Q8    1   0.6390  0.4411  0.4810  11.00000  0.05    0.27
Q9    1   0.5090  0.4704  0.3563  11.00000  0.05    0.27
Q10   1   0.5016  0.5831  0.4025  11.00000  0.05    0.26
Q11   1   0.8057  0.0096  0.2989  11.00000  0.05    0.26
Q12   1   0.5757  0.6758  0.5084  11.00000  0.05    0.25
Q13   1   0.6891  0.6992  0.5440  11.00000  0.05    0.24
Q14   1   0.4261  0.4730  0.2979  11.00000  0.05    0.23
Q15   1   0.7510  0.4667  0.5245  11.00000  0.05    0.23
Q16   1   0.7004  0.1299  0.4587  11.00000  0.05    0.23
Q17   1   0.8731  0.0357  0.3727  11.00000  0.05    0.22
Q18   1   0.8663  0.5342  0.5444  11.00000  0.05    0.22
Q19   1   0.6309  0.3222  0.4501  11.00000  0.05    0.21
Q20   1   0.6739  0.5979  0.5025  11.00000  0.05    0.21
;
_shelx_res_checksum              75346
_shelx_hkl_file
;
   0   0   2 166447. 834.080   1
   0   0   3 33.1369 20.3593   1
   0   0   4 19115.5 397.664   1
   0   0   5 26.0654 33.9629   1
   0   0   6 126230. 1303.92   1
   0   0   7 52.5864 38.4343  11
   0   0   7 24.6459 49.7000   1
   0   0   8 109892. 1402.20  11
   0   0   8 108412. 1456.45   1
   0   0   9 61.4670 65.5297  11
   0   0   9-5.93106 69.1438   1
   0   0  10 235912. 2380.50  11
   0   0  10 239795. 2593.73   1
   0   0  11-42.4165 71.3754  11
   0   0  11 39.4920 104.151   1
   0   0  12 5023.00 411.454  11
   0   0  13 146.209 109.386  11
   0   0  14 11539.7 489.433   9
   0   0  15-10.8568 67.7255   9
   0   0  15-42.1157 66.0626   7
   0   0  16 2370.12 230.939   7
   0   0  16 2798.39 268.897   9
   0   0  17 86.0099 87.7389   9
   0   0  18 559.615 133.925   9
   0   0  19 6.41462 72.8290   9
   0   0  20 96.8233 63.8754   9
   0   0  21 6.19002 44.6348   9
   0   0 -22 300.943 62.7700   8
   0   1   0 39.1524 10.0070   1
   0   1   1 371707. 1097.28   1
   0  -1  -2 84704.2 607.503   2
   0  -1   2 83692.9 642.327   2
   0  -1   2 85155.3 385.126  11
   0  -1   3 426003. 1159.85  11
   0   1   3 424146. 1755.35   1
   0   1   4 772754. 2855.37   1
   0  -1   4 782505. 2026.29  11
   0  -1   4 782036. 2459.23   1
   0  -1   4 771257. 2036.23   2
   0  -1   5 30848.7 569.609   1
   0  -1   5 31679.0 483.234  11
   0  -1   6 1448.26 121.853  11
   0  -1   6 1662.14 150.746   1
   0   1   6 1688.00 160.701   1
   0  -1   7 120207. 1226.72  11
   0   1   7 121183. 1452.57   1
   0  -1   8 7510.45 382.450   1
   0   1   8 7932.39 407.457   1
   0   1   9 126827. 1735.26  11
   0   1   9 128796. 1778.54   1
   0  -1   9 128410. 1537.84  11
   0   1  10 195014. 2361.41   1
   0  -1  10 195172. 2009.39  11
   0   1  11 600.008 166.195   1
   0   1  11 9820.76 561.539  11
   0   1  12 2088.27 295.117   1
   0   1  12 305.946 122.008  11
   0   1  13 14466.0 774.307  11
   0   1  14 1880.84 306.337  11
   0  -1  14 1869.01 199.131   7
   0  -1  14 1754.96 199.320   9
   0  -1  15 87894.8 1420.10   9
   0  -1  15 85324.7 1364.43   7
   0   1  15 85790.6 1359.93   9
   0   1  16 39309.1 947.895   9
   0  -1  16 37513.8 924.204   7
   0  -1  16 38493.6 968.154   9
   0   1  17 1424.07 189.430   9
   0  -1  17 1615.07 209.881   9
   0  -1  18 23589.0 765.593   9
   0  -1  19 1445.05 192.640   9
   0  -1  20 3543.70 261.135   9
   0  -1 -20 3371.52 243.699   8
   0  -1 -21 739.171 107.428   8
   0  -1  21 723.575 109.636   9
   0  -1 -22 2070.98 140.939   8
   0  -1  22 2093.75 142.616   9
   0   2   0 51174.7 420.527   1
   0   2  -1 185353. 749.336   1
   0   2   1 185662. 949.017   1
   0  -2   2 133172. 1147.63   2
   0   2   2 132487. 961.436   1
   0  -2  -2 133045. 1086.73   2
   0  -2   3 105819. 1069.48   2
   0  -2  -3 106340. 996.269   2
   0   2   3 106012. 975.404   1
   0  -2  -4 322273. 1764.64   2
   0   2   4 322141. 1954.07   1
   0   2   5 1514.93 150.890   1
   0  -2   5 1697.09 139.290   2
   0  -2   5 1760.35 86.7304  11
   0   2   6 76470.4 1128.40   1
   0  -2   6 77210.6 866.271   2
   0   2   7 25837.0 712.542   1
   0   2   8 29840.1 827.556   1
   0   2   9 10686.7 536.735   1
   0   2  10 1080.24 194.285   1
   0   2  10 1304.91 214.418  11
   0   2  11 142207. 2255.93   1
   0   2  11 139034. 2236.84  11
   0   2  12 4994.45 461.442   1
   0   2  12 4374.35 430.367  11
   0  -2  13 362.383 103.897   7
   0   2  13 256.225 135.560  11
   0  -2  14 29195.7 808.133   9
   0  -2  14 29397.1 810.545   7
   0   2  14 31174.4 1241.14  11
   0  -2  15 12637.4 547.644   7
   0  -2  15 13319.0 568.186   9
   0  -2  16 516.623 132.944   9
   0  -2  17 3964.75 327.649   9
   0  -2 -18 4218.11 317.133   8
   0  -2  18 4065.23 321.900   9
   0  -2 -19 12482.7 501.918   8
   0  -2  19 13532.1 549.488   9
   0  -2 -20 96.4140 56.2884   8
   0  -2  20 118.273 69.7608   9
   0  -2  21 5594.32 279.319   9
   0  -2 -21 5098.15 252.213   8
   0  -2  22 3537.22 180.031   9
   0  -3   0 26.7132 40.4461   2
   0   3   0 1288.21 72.8972   1
   0  -3  -1 1007.13 127.771   2
   0   3  -1 949.229 44.7032   1
   0   3   1 1309.86 91.8239   1
   0  -3   1 1025.93 135.110   2
   0   3   2 12186.8 325.395   1
   0  -3  -2 12338.6 431.342   2
   0  -3   2 12670.7 461.007   2
   0  -3   3 7103.19 356.182   2
   0   3   3 6601.41 278.084   1
   0  -3  -3 6916.31 326.206   2
   0   3   4 585.963 93.4749   1
   0  -3  -4 1493.22 158.837   2
   0   3   5 5675.73 302.676   1
   0  -3  -5 6216.98 296.078   2
   0  -3   5 6253.99 328.190   2
   0  -3   6 45175.7 839.092   2
   0  -3  -6 45960.6 761.194   2
   0   3   7 44801.0 1002.10   1
   0   3   8 273518. 2688.73   1
   0   3   9 3679.99 362.370  11
   0   3   9 2946.25 307.220   1
   0   3  10 15759.6 748.121   1
   0   3  10 17215.8 813.899  11
   0   3  11 262.000 115.971   1
   0   3  11 558.302 168.082  11
   0  -3  12 5208.11 340.903   7
   0  -3 -12 6002.64 413.833   8
   0   3  12 5313.14 482.670   1
   0   3  12 5764.49 517.159  11
   0  -3  13 1936.36 222.386   7
   0  -3 -13 2110.32 256.764   8
   0  -3  13 2181.67 225.316   9
   0   3  13 1999.32 345.294  11
   0  -3  14 1166.73 174.759   9
   0  -3 -14 1364.35 215.013   8
   0  -3  15 14542.7 604.162   9
   0  -3 -15 16227.7 694.564   8
   0  -3 -16 12490.2 593.945   8
   0  -3  16 11603.6 544.754   9
   0  -3  17 8103.08 455.885   9
   0  -3 -17 8841.03 480.394   8
   0  -3 -18 14382.2 568.356   8
   0  -3  18 15382.8 602.056   9
   0  -3  19 87.0476 76.8927   9
   0  -3 -19 229.252 83.1020   8
   0  -3 -20 373.344 83.0148   8
   0  -3  20 334.847 88.5981   9
   0  -3 -21 5525.73 216.135   8
   0  -3  21 5877.85 262.288   9
   0  -4   0 1780.18 217.554   2
   0  -4   1 12493.0 564.465   2
   0  -4  -1 11760.0 533.891   2
   0  -4  -2 103608. 1514.84   2
   0  -4   2 105328. 1612.17   2
   0  -4  -3 31536.2 813.263   2
   0  -4   3 31554.5 873.774   2
   0  -4   4 97051.7 1527.72   2
   0  -4  -4 95904.8 1390.95   2
   0  -4  -5 3470.26 257.137   2
   0  -4   5 3112.43 270.252   2
   0   4   5 3188.86 247.954   1
   0  -4  -6 22409.0 648.371   2
   0   4   6 20962.7 690.518   1
   0  -4   6 21343.7 716.158   2
   0   4   7 900.208 188.300  11
   0   4   7 1057.71 171.362   1
   0   4   8 239567. 2726.75   1
   0   4   8 234586. 2974.91  11
   0   4   9 12561.6 673.097   1
   0   4   9 14135.7 769.487  11
   0   4  10 13955.7 811.817  11
   0   4  10 14475.5 776.841   1
   0   4  11 2357.38 351.436  11
   0  -4 -11 2773.29 296.782   8
   0   4  11 1921.58 293.028   1
   0  -4  11 2749.37 245.311   9
   0  -4  12 40925.4 960.177   9
   0  -4 -12 43109.4 1157.89   8
   0  -4  13 20852.5 706.383   9
   0  -4 -13 22533.8 843.139   8
   0  -4 -14 800.767 165.406   8
   0  -4  14 681.918 144.893   9
   0  -4  15 10718.0 530.423   9
   0  -4 -15 10968.5 566.299   8
   0  -4  16 1068.34 177.462   9
   0  -4 -16 962.764 171.670   8
   0  -4 -17 1745.81 206.952   8
   0  -4  17 1979.18 224.175   9
   0  -4 -18 26234.2 682.569   8
   0  -4  18 27883.0 740.112   9
   0  -4  19 262.228 83.4311   9
   0  -4 -19 192.432 66.2265   8
   0  -4 -20 523.770 80.9499  10
   0  -4  20 369.729 78.8636   9
   0  -5   0 71.6703 90.8008   2
   0  -5   1 122002. 1933.77   2
   0  -5  -1 120444. 1870.25   2
   0  -5   2 195512. 2466.23   2
   0  -5  -2 195742. 2341.98   2
   0  -5   3 33781.5 1014.87   2
   0  -5  -3 32476.3 925.789   2
   0  -5   4 1325.44 210.518   2
   0  -5  -4 1203.62 183.223   2
   0   5   5 146702. 2240.15  11
   0   5   6 19120.3 863.285  11
   0   5   7 5429.74 491.876  11
   0   5   8 140117. 2596.68  11
   0  -5  -9 160231. 2098.33   8
   0  -5  -9 165526. 1747.93   5
   0  -5 -10 152667. 2081.70   8
   0  -5 -10 163860. 1699.48   5
   0  -5 -11 5573.49 403.763   8
   0  -5 -12 2696.39 283.263   8
   0  -5  13 1289.67 192.488   9
   0  -5 -13 849.144 164.655   8
   0  -5  14 1011.09 170.754   9
   0  -5 -14 891.472 171.097   8
   0  -5 -15 7577.69 435.894   8
   0  -5  15 7577.39 422.756   9
   0  -5  16 1844.06 199.501   9
   0  -5  17 881.669 132.378   9
   0  -5  18 110.551 56.0336   9
   0  -5 -18 105.718 60.6086  10
   0  -5 -19 12950.8 357.257  10
   0  -6   0 72487.5 1243.57   5
   0  -6   1 81566.2 1288.96   5
   0  -6  -1 80212.6 1309.66   5
   0  -6   2 9043.42 424.467   5
   0  -6  -2 8532.84 432.067   5
   0  -6  -3 52254.2 1074.09   5
   0  -6   3 54226.5 1008.86   5
   0  -6  -4 73775.1 1289.28   5
   0  -6   4 72771.7 1161.29   5
   0  -6  -5 19329.0 667.205   5
   0  -6   5 20461.1 597.059   5
   0  -6  -6 27704.1 792.217   5
   0  -6  -6 26821.2 827.297  10
   0  -6   6 29219.3 696.294   5
   0  -6  -7 221478. 2446.85  10
   0  -6  -7 224618. 2233.73   5
   0  -6  -8 138171. 1955.12  10
   0  -6  -8 139701. 1728.44   5
   0  -6  -9 1140.00 160.800   5
   0  -6  -9 1907.77 246.254  10
   0  -6 -10 21566.0 781.069  10
   0  -6 -10 21115.4 625.896   5
   0  -6 -11 2988.06 294.834  10
   0  -6 -11 3076.24 229.745   5
   0  -6 -12 460.859 122.332  10
   0  -6 -13 25712.5 777.094  10
   0  -6 -14 2519.42 232.142  10
   0  -6 -15 1221.83 154.828  10
   0  -6 -16 15394.8 473.710  10
   0  -6 -17 13228.2 386.151  10
   0  -7   0-9.23637 76.6430   5
   0  -7  -1 25109.5 773.158   5
   0  -7   1 26061.3 766.612   5
   0  -7  -2 3772.91 306.538   5
   0  -7   2 3862.41 296.493   5
   0  -7  -3 43816.5 1029.98   5
   0  -7   3 44040.9 955.563   5
   0  -7  -4 135871. 1800.24   5
   0  -7   4 136953. 1632.49   5
   0  -7   5 984.646 149.641   5
   0  -7  -5 1423.59 195.499   5
   0  -7  -6 10278.9 485.654   5
   0  -7  -7 10239.5 475.030   5
   0  -7  -7 10309.8 513.675  10
   0  -7  -8 4326.95 298.651   5
   0  -7  -8 4170.81 329.037  10
   0  -7  -9 709.902 138.150  10
   0  -7  -9 824.482 132.796   5
   0  -7 -10 6022.60 309.101   5
   0  -7 -10 5720.82 372.812  10
   0  -7 -11 4776.26 328.228  10
   0  -7 -11 4526.71 244.884   5
   0  -7 -12 20688.8 630.137  10
   0  -7 -13 12480.9 451.784  10
   0  -7 -14 11917.4 400.082  10
   0  -7 -15 1372.64 122.104  10
   0  -8   0 64656.7 1169.69   5
   0  -8   1 25386.2 717.054   5
   0  -8  -1 26584.8 752.944   5
   0  -8  -2 1027.79 159.274   5
   0  -8   2 1332.70 171.793   5
   0  -8   3 25167.4 686.590   5
   0  -8  -3 25081.7 729.759   5
   0  -8  -4 28.1338 70.1563   5
   0  -8  -5 834.689 141.514   5
   0  -8  -6 7876.32 384.245   5
   0  -8  -7 2309.98 200.330   5
   0  -8  -8 3084.99 213.834   5
   0  -8  -9 4096.65 223.792   5
   0  -8 -10 10536.0 319.566   5
   0  -8 -11 11335.0 285.390   5
   0  -9  -1 128.869 63.5771   5
   0  -9  -2 16872.3 487.478   5
   0  -9  -3 3262.20 213.813   5
   0  -9  -4 4298.80 239.047   5
   0  -9  -5 20742.0 496.115   5
   0  -9  -6 1915.96 144.836   5
   0  -9  -7 47611.1 631.902   5
   0  -9  -8 27.0146 30.3241   5
   1   0 -23 20498.0 393.888   8
   1   0 -22 40.1665 46.1411   8
  -1   0  22-35.9709 54.2269   9
  -1   0  21 2056.91 177.221   9
  -1   0  20-18.3556 58.7025   9
  -1   0  19 13372.9 543.849   9
  -1   0  18 3.02036 78.7258   9
  -1   0  17 10329.2 516.243   9
  -1   0  16 220.750 100.356   9
  -1   0  15 47631.6 1056.55   9
  -1   0  14 73.5647 137.400   1
  -1   0  13 104911. 2031.34   1
  -1   0  13 107803. 1839.31  11
  -1   0  12-179.370 112.373   1
  -1   0  12-40.5180 67.5696  11
  -1   0  11 77385.6 1384.96  11
  -1   0  11 74952.3 1480.87   1
  -1   0  10 133.914 88.6873   1
  -1   0   9 407620. 2947.83   1
  -1   0   8 89.5950 52.8916   1
  -1   0   7 7376.07 354.072   1
  -1   0   6 58.1513 35.7949   1
  -1   0   5 324847. 1845.28   1
  -1   0   4 103.053 34.8344   1
  -1   0   3 96278.0 796.006   1
  -1   0   2 57.3597 22.1092   1
   1   0  -1 61474.9 538.254  11
   1   0   0 184.323 29.2362  11
   1   0   1 559619. 1651.49  11
   1   0   2 110.844 27.4327  11
   1   0   3 27645.8 465.856  11
   1   0   4 164.804 43.9564  11
   1   0   5 40060.4 704.291  11
   1   0   6 114.137 49.8686  11
   1   0   7 834.203 129.482  11
   1   0   8 1262.40 173.919  11
   1   0   9 59402.7 1215.08  11
   1   0  10 87.6013 80.4329  11
   1   0  11 16570.6 738.253  11
   1   0  12 239.267 116.422  11
   1   0  13 5422.67 492.509  11
   1   0  14-26.7254 63.2283   7
   1   0  15 131657. 1626.77   7
   1   0  16 65.0137 72.9995   9
   1   0  16-63.2331 87.7099   7
   1   0  17 16679.7 622.602   9
   1   0  17 15186.4 565.670   7
   1   0  18 41.6454 66.1246   9
   1   0  19 3358.04 262.517   9
   1   0  20 300.491 85.1060   9
  -1   0 -21 24559.7 513.566   8
   1   0  21 25143.4 506.067   9
   1  -1 -22 13403.3 391.628   8
  -1  -1  22 12210.2 366.629   9
   1  -1 -21 398.821 91.1846   8
  -1  -1  21 75.8280 63.3792   9
  -1  -1  20 3911.07 284.050   9
  -1  -1  19 3280.86 282.927   9
  -1  -1  18 16975.5 665.952   9
  -1   1  17 3967.52 308.310   9
  -1  -1  17 2460.06 266.911   9
  -1  -1  16 6297.90 406.750   9
  -1   1  16 6948.20 411.608   9
  -1   1  15 116936. 1636.66   9
  -1  -1  15 118107. 1673.17   9
  -1  -1  14 20068.2 660.488   9
  -1   1  14 21056.8 909.038  11
  -1   1  14 22157.6 1000.51   1
  -1   1  13 128.433 104.193  11
  -1   1  13 118.702 125.175   1
  -1  -1  12 13269.3 667.231   1
  -1   1  12 13362.0 685.727   1
  -1   1  12 13246.9 657.327  11
  -1  -1  11 2477.34 276.814   1
  -1   1  11 2365.57 277.753   1
  -1  -1  10 77841.5 1176.19  11
  -1   1  10 77456.1 1422.65   1
  -1  -1  10 74136.2 1352.90   1
  -1  -1   9 3040.09 255.738   1
  -1   1   9 3404.17 286.385   1
  -1  -1   9 3206.17 224.635  11
  -1  -1   8 526.078 100.418   1
  -1   1   8 531.559 125.867   1
  -1  -1   8 581.612 91.1750  11
  -1   1   7 230356. 1967.64   1
  -1  -1   7 237280. 1073.44   2
  -1  -1   7 233258. 1824.67   1
  -1  -1   6 741945. 2913.08   1
  -1   1   6 725052. 3218.15   1
  -1   1   5 37496.0 662.675   1
  -1  -1   5 37783.7 600.985   1
  -1   1   4 122775. 1094.54   1
  -1  -1   4 115875. 882.110   1
  -1   1   3 5840.84 226.644   1
  -1  -1   3 5462.53 157.695   1
  -1  -1   2 162014. 685.374   1
  -1   1   2 163672. 1088.83   1
   1   1  -1 43624.9 368.024  11
  -1   1   1 43069.3 545.309   1
   1   1   0 408797. 1269.79  11
   1  -1   1 25971.5 406.740  11
   1   1   1 22395.9 353.660  11
   1   1   2 566246. 2037.85  11
   1   1   2 570503. 1853.01   1
   1   1   3 7477.79 267.984  11
   1  -1   3 7723.36 242.279  11
   1  -1   4 81100.8 851.828  11
   1   1   4 84566.3 992.708  11
   1   1   4 82935.8 942.291   1
   1   1   5 120748. 1268.84   1
   1   1   5 119418. 1297.36  11
   1   1   6 115687. 1394.90   1
   1   1   6 117190. 1413.19  11
   1  -1   6 119165. 1268.78  11
   1   1   7 22306.7 670.118   1
   1  -1   7 21887.6 610.785  11
   1   1   7 21145.6 646.180  11
   1   1   8 24115.1 751.997   1
   1   1   8 24390.4 746.773  11
   1  -1   8 24830.5 709.216  11
   1   1   9 47.7430 67.4876  11
   1  -1   9 139.098 73.2398  11
   1   1  10 74653.1 1542.61  11
   1  -1  10 75301.8 1421.48  11
   1   1  11 27139.8 1005.44  11
   1   1  12 2406.97 313.810  11
   1   1  13 11205.2 713.360  11
   1  -1  14 34839.8 832.423   7
   1   1  14 38249.1 1384.57  11
   1  -1  15 2513.71 238.960   7
   1   1  15 2331.44 225.874   9
   1  -1  16 33654.7 874.482   7
   1  -1  16 34901.1 908.663   9
   1   1  16 34203.4 858.662   9
   1  -1  17 1381.00 195.368   9
   1  -1  17 1426.72 187.328   7
   1  -1  18 38.7883 72.2882   9
   1  -1  19 128.902 76.4760   9
  -1  -1 -20 1816.03 167.951   8
   1  -1  20 1926.43 187.713   9
   1  -1  21 805.293 108.406   9
  -1  -1 -21 768.298 94.8276   8
   1  -2 -22 3779.91 195.590   8
  -1  -2  22 3939.55 206.249   9
   1  -2 -21 2077.17 178.647   8
  -1  -2  21 2071.35 182.869   9
  -1  -2  20 14207.9 521.832   9
   1  -2 -20 13673.3 504.066   8
  -1  -2  19 7308.97 408.910   9
   1  -2 -19 7659.26 409.722   8
   1  -2 -18 1862.90 217.364   8
  -1  -2  18 2078.28 243.212   9
  -1  -2  17 8783.74 486.098   9
  -1  -2  16 86392.3 1491.60   9
  -1  -2  15 44707.7 1046.15   9
  -1  -2  14 175.280 78.5758   9
  -1   2  14 302.774 165.105  11
  -1   2  14 415.667 158.208   1
  -1   2  13 2634.37 345.808   1
  -1   2  13 2569.56 336.046  11
  -1   2  12 37842.2 1198.81   1
  -1   2  12 38134.9 1199.10  11
  -1   2  11 64319.9 1456.30   1
  -1   2  10 194940. 2383.92   1
  -1   2   9 88349.4 1505.20   1
  -1   2   8 151706. 1938.13   1
  -1  -2   7 213841. 1548.51   2
  -1   2   7 212374. 2021.75   1
  -1  -2   6 15651.3 398.943   1
  -1   2   6 17256.6 536.414   1
  -1  -2   6 16524.8 424.682   2
  -1  -2   5 83685.6 962.365   2
  -1   2   5 80394.8 1072.05   1
  -1   2   4 4586.03 235.469   1
  -1   2   3 7267.43 280.425   1
  -1   2   2 351747. 1865.37   1
   1  -2  -2 352488. 1818.05   2
  -1   2   1 43457.0 618.300   1
   1   2  -1 42333.8 408.847  11
   1   2   0 286464. 1266.95  11
  -1   2   0 272079. 1589.74   1
   1   2   1 3239.67 155.909  11
   1  -2   1 4375.46 211.235   2
   1   2   2 111508. 1041.63  11
   1   2   2 107133. 867.254   1
   1   2   3 108012. 998.926   1
   1   2   3 110684. 1149.25  11
   1  -2   4 221935. 1467.30  11
   1   2   4 227709. 1656.30   1
   1   2   4 224951. 1805.92  11
   1   2   5 94251.2 1260.48  11
   1  -2   5 94051.4 1034.40  11
   1   2   5 90827.1 1157.08   1
  -1  -2  -5 91110.6 904.440   2
   1   2   6 7631.12 369.832   1
   1   2   6 8661.84 419.925  11
   1  -2   6 7637.80 300.819  11
  -1  -2  -6 7811.15 266.533   2
   1   2   7 16259.2 615.315  11
   1   2   7 14822.1 562.854   1
   1   2   8 199173. 2308.99  11
   1   2   8 200905. 2255.56   1
   1   2   9 1203.70 197.129  11
   1   2   9 1295.49 201.518   1
   1   2  10 9440.37 580.419  11
   1   2  11 24993.9 1011.48  11
   1   2  12 198047. 3024.23  11
   1   2  13 19878.3 994.241  11
   1  -2  13 20253.2 647.126   7
   1  -2  14 236.645 97.7370   7
   1  -2  15 6168.75 385.733   7
   1  -2  15 6123.66 386.135   9
   1  -2  16 20309.4 702.377   9
   1  -2  16 19743.6 691.747   7
  -1  -2 -17 11347.9 522.203   8
   1  -2  17 11202.8 520.961   9
   1  -2  18 3773.20 299.612   9
  -1  -2 -18 3637.13 280.437   8
  -1  -2 -19 1712.62 179.263   8
   1  -2  19 1926.98 206.833   9
  -1  -2 -20 30758.1 633.075   8
   1  -2  20 32930.8 728.603   9
   1  -2  21 8182.53 307.384   9
  -1  -2 -21 7493.07 250.870   8
  -1  -3  21 605.809 97.7528   9
   1  -3 -21 407.028 74.8989   8
   1  -3 -21 524.705 79.0059  10
   1  -3 -20 428.368 97.3110   8
  -1  -3  20 249.749 85.4131   9
  -1  -3  19 15713.6 570.586   9
   1  -3 -19 14506.9 537.994   8
  -1  -3  18 33570.5 891.937   9
   1  -3 -18 33105.1 888.977   8
  -1  -3  17 11567.0 554.985   9
   1  -3 -17 11071.2 543.860   8
  -1  -3  16 25308.7 816.187   9
   1  -3 -16 26869.0 865.468   8
   1  -3 -15 31582.8 956.748   8
  -1  -3  15 28758.4 853.984   9
  -1  -3  14 427.725 119.108   9
   1  -3 -14 607.614 147.414   8
  -1   3  13 2402.55 340.524  11
   1  -3 -13 2757.17 287.496   8
  -1  -3  13 2388.51 237.805   9
  -1   3  13 2056.40 306.313   1
  -1   3  12 1889.16 290.386   1
  -1   3  12 1532.36 271.429  11
  -1   3  11 4321.68 402.350   1
  -1   3  10 2370.17 290.726   1
  -1   3   9 38409.6 1068.55   1
  -1   3   8 79434.7 1470.66   1
  -1  -3   7 133159. 1591.11   2
  -1   3   7 122469. 1713.01   1
  -1   3   6 128141. 1605.76   1
  -1  -3   6 136308. 1603.16   2
  -1  -3   5 48460.1 913.945   2
  -1   3   5 47409.3 911.268   1
  -1   3   4 20209.5 552.355   1
  -1  -3   4 19720.8 578.106   2
  -1  -3   3 205830. 1834.08   2
  -1   3   3 207444. 1637.81   1
  -1  -3   2 62703.3 1001.87   2
  -1   3   2 64467.5 879.670   1
   1  -3  -2 64480.3 940.281   2
  -1  -3   1 68463.7 1036.09   2
   1  -3  -1 67328.6 967.725   2
  -1   3   1 70138.1 879.765   1
   1   3  -1 67266.3 614.468  11
  -1   3   0 55480.7 761.787   1
   1   3   0 50726.0 626.065  11
  -1  -3   0 52434.0 894.382   2
   1  -3   0 54671.8 886.476   2
  -1  -3  -1 1514.49 152.220   2
  -1   3  -1 1985.31 149.348   1
   1  -3   1 1704.07 161.510   2
   1   3   1 1613.70 129.573  11
   1   3   2 36345.5 676.648  11
  -1  -3  -2 36018.2 715.203   2
  -1  -3  -3 49491.5 844.056   2
   1   3   3 50804.0 879.516  11
   1   3   4 173854. 1554.05   1
  -1  -3  -4 171330. 1569.79   2
   1   3   4 168552. 1749.44  11
   1   3   5 24281.7 647.053   1
  -1  -3  -5 22771.0 583.529   2
   1   3   5 22532.7 694.621  11
  -1  -3  -6 2056.53 180.328   2
   1   3   6 1938.45 206.007   1
   1   3   6 1795.49 221.924  11
   1   3   7 29082.9 846.617   1
   1   3   7 30454.5 924.751  11
   1   3   8 15018.6 646.674   1
   1   3   8 14779.0 692.003  11
   1   3   9 98777.3 1885.70  11
   1   3  10 8319.27 590.475  11
   1   3  11 42639.2 1409.11  11
   1   3  12 13268.4 838.542  11
  -1  -3 -12 13866.0 619.643   8
   1  -3  12 12495.7 527.247   7
  -1  -3 -13 1545.81 218.534   8
   1  -3  13 1567.55 203.035   7
  -1  -3 -14 7616.95 466.782   8
   1  -3  14 7508.19 429.567   9
   1  -3  14 7637.16 442.739   7
   1  -3  15 17520.4 655.008   9
   1  -3  15 17873.3 676.824   7
  -1  -3 -15 17866.9 705.036   8
  -1  -3 -16 64508.2 1289.52   8
   1  -3  16 64133.6 1250.47   9
   1  -3  17 13058.7 557.416   9
  -1  -3 -17 13439.9 554.771   8
   1  -3  18 3703.78 290.487   9
  -1  -3 -18 3478.17 261.706   8
   1  -3  19 380.658 103.184   9
  -1  -3 -19 359.835 87.5930   8
  -1  -3 -20 594.839 78.8894   8
   1  -3  20 643.019 104.298   9
   1  -3  21 342.600 64.4640   9
  -1  -4  20 7.96624 49.5421   9
   1  -4 -20 57.6847 42.8294  10
   1  -4 -19 9420.78 377.996   8
  -1  -4  19 10202.7 416.527   9
   1  -4 -18 21574.4 659.733   8
  -1  -4  18 21755.7 664.011   9
  -1  -4  17 16887.6 621.193   9
   1  -4 -17 17812.2 654.034   8
   1  -4 -16 23010.3 790.787   8
  -1  -4  16 24253.5 785.411   9
   1  -4 -15 26529.2 883.115   8
  -1  -4  15 26926.3 847.612   9
   1  -4 -14 5183.02 402.983   8
  -1  -4  14 5201.76 370.421   9
  -1  -4  13 14010.0 594.100   9
   1  -4 -13 14366.8 675.606   8
   1  -4 -12 4839.79 400.733   8
  -1  -4  12 4290.60 321.655   9
  -1   4  12 3558.29 407.402   1
  -1  -4  11 7262.62 399.147   9
  -1   4  11 8549.01 615.313   1
  -1   4  11 7755.88 626.439  11
   1  -4 -11 8104.94 499.931   8
  -1   4  10-235.981 103.736   1
  -1   4   9 174.996 66.0652   1
  -1   4   8 45019.8 1186.60   1
  -1  -4   7 148075. 1955.70   2
  -1   4   7 132469. 1917.68   1
  -1  -4   6 6701.03 441.046   2
  -1   4   6 6386.18 409.022   1
  -1   4   5 100462. 1490.55   1
  -1  -4   5 101871. 1662.46   2
  -1  -4   4 7363.80 442.484   2
  -1   4   4 6724.11 358.164   1
  -1   4   3 169086. 1643.77   1
  -1  -4   3 174087. 2089.17   2
   1  -4  -2 41306.0 910.722   2
  -1  -4   2 40023.7 989.491   2
  -1  -4   1 64941.2 1248.83   2
   1  -4  -1 63271.3 1149.42   2
  -1  -4   0 102170. 1536.43   2
   1  -4   0 105864. 1514.59   2
  -1  -4  -1 199302. 2121.73   2
   1  -4   1 200382. 2093.42   2
   1   4   1 193454. 1639.91  11
  -1  -4  -2 20427.5 676.114   2
   1   4   2 18566.6 552.872  11
  -1  -4  -3 9920.70 470.725   2
   1   4   3 9453.10 433.862  11
  -1  -4  -4 255656. 2395.98   2
   1   4   4 266108. 2529.72  11
   1   4   5 21930.9 779.439  11
  -1  -4  -5 22847.8 723.432   2
   1   4   6 8031.18 498.132  11
  -1  -4  -6 9435.34 444.089   2
   1   4   7 55113.3 1377.18  11
   1   4   8 3575.23 378.841  11
   1   4   9 47511.4 1458.14  11
  -1  -4 -10 81.1470 77.1569   8
   1  -4  10 132.962 80.5544   7
   1   4  10 51.2347 83.8348  11
  -1  -4 -11 3677.99 252.593   5
   1  -4  11 3711.25 305.102   7
  -1  -4 -11 3975.19 345.937   8
  -1  -4 -12 28058.2 907.197   8
   1  -4  12 27121.4 794.073   9
   1  -4  12 27261.0 840.985   7
  -1  -4 -13 23174.9 826.919   8
   1  -4  13 23622.5 752.152   9
   1  -4  14 6925.55 416.422   9
  -1  -4 -14 7022.14 448.363   8
  -1  -4 -15 17026.2 663.300   8
   1  -4  15 17037.5 650.190   9
   1  -4  16 38.2881 82.2018   9
  -1  -4 -16-1.49093 60.0373   8
   1  -4  17 442.473 122.939   9
  -1  -4 -17 390.257 97.2396   8
   1  -4  18 13531.7 502.020   9
  -1  -4 -18 11708.6 416.462   8
   1  -4  19 41900.5 766.968   9
   1  -4  20 3.46964 36.5391   9
  -1  -4 -20 118.867 45.3979  10
  -1  -5  19 95.3265 43.8361   9
   1  -5 -19 44.3673 44.2785  10
  -1  -5  18 13190.9 435.659   9
   1  -5 -18 14230.9 452.953  10
  -1  -5  17 8439.86 390.123   9
   1  -5 -17 8879.09 398.904  10
  -1  -5  16 89.9719 61.7390   9
  -1  -5  15 196.565 90.5249   9
   1  -5 -15-31.3374 88.4409   8
  -1  -5  14 116007. 1662.30   9
   1  -5 -14 102747. 1646.23   8
   1  -5 -13 6343.53 427.645   8
   1  -5 -12 363.460 110.084   8
   1  -5 -11 6215.64 432.491   8
   1  -5 -10 20835.1 781.788   8
  -1   5   9 17801.9 968.127  11
   1  -5  -9 18452.9 723.271   8
  -1  -5   7 14315.0 666.902   2
  -1  -5   6 77496.6 1644.60   2
  -1  -5   5 71530.9 1575.37   2
  -1  -5   4 40941.4 1221.10   2
  -1  -5   3 294.432 130.552   2
  -1  -5   2 25448.4 975.160   2
  -1  -5   1 18646.0 827.636   2
  -1  -5   0 41752.8 1224.33   2
  -1  -5  -1 48055.9 1290.69   2
  -1  -5  -2 155746. 2290.92   2
  -1  -5  -3 60861.0 1382.31   2
  -1  -5  -4 3441.77 319.135   2
   1   5   5 33878.5 1099.72  11
  -1  -5  -5 32828.8 952.681   2
   1   5   6 2856.54 336.814  11
  -1  -5  -6 1831.16 221.178   2
   1   5   7 17503.1 889.379  11
  -1  -5  -8 141.581 78.1315   5
   1   5   8 363.992 161.026  11
  -1  -5  -9 1860.48 204.151   5
  -1  -5 -10 12590.5 598.196   8
  -1  -5 -10 12502.2 489.606   5
  -1  -5 -11 2433.86 269.308   8
  -1  -5 -11 2250.60 208.170   5
  -1  -5 -12 17461.7 701.343   8
  -1  -5 -12 18501.9 556.195   5
   1  -5  13 4640.98 342.468   9
   1  -5  14 4029.73 321.691   9
   1  -5  15 620.453 129.215   9
   1  -5  16 3701.70 274.633   9
   1  -5  17-43.6665 66.8410   9
  -1  -5 -18 6100.05 269.469  10
   1  -5  18 5508.67 253.570   9
   1  -6 -18 2868.60 162.958  10
   1  -6 -17 155.750 59.0549  10
   1  -6 -16 1574.99 160.673  10
   1  -6 -15 273.538 89.3920  10
   1  -6 -14 10095.2 472.293  10
   1  -6 -13 150.155 89.1202  10
   1  -6 -12 16518.9 666.357  10
   1  -6 -11 52160.9 1216.37  10
   1  -6 -10 72628.3 1455.19  10
   1  -6 -10 77495.8 1141.55   5
   1  -6  -9 45005.6 911.798   5
   1  -6  -9 42287.3 1111.97  10
   1  -6  -8 21232.4 647.506   5
   1  -6  -8 20283.3 757.047  10
   1  -6  -7 2067.63 211.908   5
   1  -6  -7 2033.91 243.405  10
  -1  -6   6 27486.6 654.059   5
   1  -6  -6 26716.4 744.050   5
  -1  -6   5 33101.7 752.305   5
   1  -6  -5 33158.2 837.700   5
   1  -6  -4 37595.9 953.243  10
  -1  -6   4 38777.6 1276.08   2
  -1  -6   4 39012.5 835.282   5
   1  -6  -4 38421.6 909.129   5
   1  -6  -3 139.736 70.0517   5
  -1  -6   3 25.6137 68.3373   5
  -1  -6   3-49.3476 92.1249   2
   1  -6  -2 111905. 1552.70   5
  -1  -6   2 114571. 1519.31   5
  -1  -6   1 106080. 1477.07   5
   1  -6  -1 106466. 1509.30   5
   1  -6   0 10896.1 477.772   5
  -1  -6   0 10108.4 463.711   5
  -1  -6   0 10705.9 660.389   2
  -1  -6  -1 17537.8 834.472   2
   1  -6   1 17769.2 604.874   5
  -1  -6  -1 17059.6 611.473   5
   1  -6   2 22813.4 676.847   5
  -1  -6  -2 23150.6 936.699   2
  -1  -6  -2 22846.0 720.871   5
  -1  -6  -3 10020.7 480.637   5
  -1  -6  -3 10974.5 497.426   4
   1  -6   3 10564.3 455.968   5
  -1  -6  -3 10431.2 615.698   2
  -1  -6  -4 198.765 96.0518   5
  -1  -6  -4 235.423 89.0703   2
   1  -6   4 264.917 96.8606   5
  -1  -6  -5 9675.57 486.652   5
  -1  -6  -5 11133.4 490.499   4
  -1  -6  -6 8968.21 464.825   5
  -1  -6  -7 7193.26 413.193   5
  -1  -6  -8 112346. 1590.74   5
  -1  -6  -8 116010. 1763.71  10
  -1  -6  -9 44324.4 969.104   5
  -1  -6  -9 47387.8 1143.73  10
  -1  -6 -10 1360.40 171.104   5
  -1  -6 -11 2827.92 228.318   5
  -1  -6 -12 7506.17 437.264  10
  -1  -6 -12 7737.69 346.107   5
  -1  -6 -13 1212.59 172.114  10
  -1  -6 -14 459.515 108.919  10
  -1  -6 -15 2796.59 215.361  10
  -1  -6 -16 468.195 86.4585  10
  -1  -6 -17 3569.57 181.407  10
   1  -7 -16 638.814 79.3805  10
   1  -7 -15 5981.99 271.021  10
   1  -7 -14 664.781 111.093  10
   1  -7 -13 1028.06 143.587  10
   1  -7 -12 13996.6 539.579  10
   1  -7 -11 65.4085 63.2551  10
   1  -7 -10 18823.8 685.111  10
   1  -7 -10 19093.1 519.353   5
   1  -7  -9 24798.9 800.040  10
   1  -7  -9 25237.4 644.027   5
   1  -7  -8 14853.9 527.733   5
   1  -7  -8 14426.2 621.089  10
   1  -7  -7 99725.6 1423.76   5
   1  -7  -7 96825.5 1613.97  10
  -1  -7   6 44545.6 850.336   5
   1  -7  -6 43152.4 1066.19  10
   1  -7  -6 41973.0 953.646   5
  -1  -7   5 32838.3 761.397   5
   1  -7  -5 31908.5 920.067  10
   1  -7  -5 31886.4 835.563   5
   1  -7  -4 2180.49 226.238   5
  -1  -7   4 4.95874 64.7098   5
   1  -7  -3 24398.5 749.784   5
  -1  -7   3 24943.9 719.876   5
  -1  -7   2 13463.2 542.133   5
   1  -7  -2 13213.5 558.098   5
  -1  -7   1 411.348 217.715   4
  -1  -7   1 845.185 151.434   5
   1  -7  -1 523.934 120.012   5
  -1  -7   0 30558.6 846.440   5
   1  -7   0 31593.1 852.685   5
  -1  -7   0 30439.7 867.410   4
   1  -7   1 23634.4 728.172   5
  -1  -7  -1 23044.6 745.953   5
  -1  -7  -1 22182.9 700.819   4
  -1  -7  -2 10845.6 516.205   5
   1  -7   2 11005.2 493.139   5
   1  -7   3 106834. 1488.34   5
  -1  -7  -3 104670. 1587.72   5
  -1  -7  -4 2943.85 274.441   5
  -1  -7  -5 60989.9 1202.71   5
  -1  -7  -6 86623.4 1416.75   5
  -1  -7  -7 1008.54 160.820   5
  -1  -7  -8 1177.25 165.438   5
  -1  -7  -9 5094.69 306.833   5
  -1  -7 -10 7455.28 404.094  10
  -1  -7 -10 7432.89 346.540   5
  -1  -7 -11 77.7460 59.9873  10
  -1  -7 -11 86.5415 51.7592   5
  -1  -7 -12 8409.16 302.401   5
  -1  -7 -12 7972.29 368.035  10
  -1  -7 -13 21114.0 539.360  10
  -1  -7 -14 985.745 109.689  10
   1  -8 -12 9400.07 317.670  10
   1  -8 -11 40382.5 735.644  10
   1  -8 -10 2954.51 218.467  10
   1  -8 -10 2921.08 162.449   5
   1  -8  -9 4026.84 216.330   5
   1  -8  -9 5041.57 298.193  10
   1  -8  -8 1814.65 160.691   5
   1  -8  -8 1713.26 182.617  10
   1  -8  -7 15557.8 493.662   5
   1  -8  -6 4615.29 288.739   5
   1  -8  -5 26858.2 706.795   5
  -1  -8   4 27951.6 684.584   5
   1  -8  -4 26391.3 729.511   5
   1  -8  -3 12205.7 498.592   5
  -1  -8   3 12200.7 473.117   5
   1  -8  -2 30946.5 798.395   5
  -1  -8   2 32159.7 791.111   5
  -1  -8   1 5537.75 341.129   5
   1  -8  -1 5298.60 335.100   5
   1  -8   0 11388.1 483.029   5
  -1  -8   0 11011.4 480.460   5
   1  -8   1 23385.7 684.871   5
  -1  -8  -1 23284.4 708.957   5
  -1  -8  -2 3375.12 274.629   5
  -1  -8  -3 4993.32 329.007   5
  -1  -8  -4 9655.58 450.297   5
  -1  -8  -5 9344.83 433.492   5
  -1  -8  -6 5726.14 332.820   5
  -1  -8  -7 8897.32 388.439   5
  -1  -8  -8 8850.85 357.791   5
  -1  -8  -9 14376.1 418.641   5
  -1  -8 -10 5670.79 237.237   5
  -1  -8 -11 7526.06 233.386   5
   1  -9  -6 5664.65 235.259   5
   1  -9  -5 1072.17 114.909   5
   1  -9  -4 19658.0 491.593   5
  -1  -9   1 1751.37 160.180   5
  -1  -9   0 4028.49 241.430   5
  -1  -9  -1 203.953 70.7977   5
  -1  -9  -2 1749.69 162.205   5
  -1  -9  -3 2824.92 199.225   5
  -1  -9  -4 26116.4 579.252   5
  -1  -9  -5 2674.10 183.011   5
  -1  -9  -6 859.568 100.069   5
  -1  -9  -7 166.054 47.8421   5
  -1  -9  -8 16992.1 333.886   5
   2   0 -23 16.3081 32.3524   8
  -2   0  22 76858.4 887.770   9
   2   0 -22 81912.5 993.382   8
  -2   0  21 58.4118 61.1910   9
  -2   0  20 1443.62 173.792   9
  -2   0  19 140.294 91.9498   9
  -2   0  18 416.727 121.649   9
  -2   0  17-3.90768 76.2562   9
  -2   0  16 4327.10 343.779   9
  -2   0  15-14.7744 89.5438   9
  -2   0  15 93.7509 170.068   1
  -2   0  14 11391.4 678.043   1
  -2   0  13-159.658 105.085   1
  -2   0  12 341317. 3247.59   1
  -2   0  11 188.143 90.3408   1
  -2   0  10 18508.9 679.780   1
  -2   0   9-39.0159 104.489   1
  -2   0   8 40190.2 845.467   1
  -2   0   7-30.9606 37.1534   1
  -2   0   6 11821.5 385.295   1
  -2   0   5 8.79092 36.5516   1
  -2   0   4 999999. 3095.82   1
  -2   0   3 60.3687 33.2713   1
   2   0  -2 160319. 1229.20  11
   2   0  -1 65.5152 31.9754  11
   2   0   0 286995. 1534.67  11
   2   0   1 98.8500 41.1646  11
   2   0   2 659.094 84.1743  11
   2   0   3 108.804 45.1790  11
   2   0   4 834457. 3424.66  11
   2   0   5 72.6852 41.2033  11
   2   0   6 4728.55 306.526  11
   2   0   7 122.842 70.5705  11
   2   0   8 6797.52 427.338  11
   2   0   9 273.214 92.6367  11
   2   0  10 100392. 1887.75  11
   2   0  11 213.125 124.457  11
   2   0  12 14394.1 803.246  11
   2   0  13 10.5967 46.1198   7
   2   0  14 12198.1 473.996   7
   2   0  15-23.0093 71.6989   7
   2   0  16 27184.6 741.289   7
   2   0  16 28294.0 785.961   9
   2   0  17 55.2495 73.2067   9
   2   0  17-20.3823 70.2561   7
   2   0  18 188.199 85.5112   9
   2   0  19 57.0938 62.9828   9
   2   0  20 10429.0 357.489   9
  -2   0 -20 9146.84 309.364   8
   2  -1 -23 7437.49 246.496   8
   2   1 -23 7144.73 238.524   8
   2  -1 -22 4880.73 248.623   8
  -2  -1  22 4866.82 242.319   9
   2  -1 -21 1086.96 141.504   8
  -2  -1  21 1104.40 142.686   9
  -2  -1  20 710.529 130.254   9
  -2  -1  19 29620.8 829.309   9
  -2  -1  18 35513.2 941.643   9
  -2   1  18 35149.4 871.163   9
  -2   1  17 1566.96 199.175   9
  -2  -1  17 1609.29 217.432   9
  -2   1  16 1083.56 167.274   9
  -2  -1  16 887.503 163.890   9
  -2   1  15 22545.8 725.766   9
  -2   1  15 23135.7 1029.09   1
  -2  -1  15 23358.5 761.678   9
  -2   1  14 3553.87 365.219  11
  -2  -1  14 3096.41 270.775   9
  -2   1  14 3270.42 374.557   1
  -2  -1  14 3131.29 362.619   1
  -2   1  13 20567.3 869.274   1
  -2  -1  13 21388.1 867.445   1
  -2  -1  12 5467.31 412.409   1
  -2   1  12 3387.76 343.843   1
  -2   1  11 1366.57 210.022   1
  -2  -1  11 1270.38 189.995   1
  -2   1  10 17703.1 688.083   1
  -2  -1  10 16696.3 623.582   1
  -2   1   9 4306.76 316.903   1
  -2  -1   9 4374.63 296.626   1
  -2   1   8 62329.8 1103.79   1
  -2  -1   8 60752.0 1032.81   1
  -2   1   7 613385. 3136.35   1
  -2  -1   7 597821. 2897.06   1
  -2   1   6 84448.0 1109.81   1
  -2  -1   6 82656.4 974.414   1
  -2   1   5 113777. 1240.22   1
  -2  -1   5 101792. 971.216   1
  -2  -1   4 805791. 2561.60   1
  -2   1   4 818833. 3093.40   1
  -2   1   3 558069. 2498.22   1
  -2  -1   3 558968. 1921.92   1
   2   1  -2 2247.72 131.287  11
  -2   1   2 1979.33 151.983   1
   2   1  -1 202022. 1254.93  11
   2  -1   0 524058. 2577.18  11
   2   1   0 558768. 2044.17  11
   2  -1   1 76528.8 937.596  11
   2   1   1 73652.4 831.997  11
   2  -1   2 40469.3 686.142  11
   2   1   2 39061.6 645.386  11
   2  -1   3 82522.6 1038.15  11
   2   1   3 81826.3 1007.28  11
   2   1   4 37954.7 738.152  11
   2  -1   4 37244.5 738.800  11
   2  -1   5 75607.3 1096.03  11
   2   1   5 79489.2 1166.74  11
   2   1   6 301309. 2471.59  11
   2  -1   6 283008. 2249.69  11
   2  -1   7 309.459 84.6389  11
   2   1   7 146.077 84.5728  11
   2   1   8 60701.2 1272.73  11
   2  -1   8 57208.2 1180.30  11
   2   1   9 31434.0 1004.36  11
   2  -1   9 28052.0 869.135  11
   2   1  10 677.203 176.136  11
   2  -1  10 849.194 189.965  11
   2   1  11 67439.7 1698.78  11
   2   1  12 4925.80 496.593  11
   2   1  13 8327.61 665.293  11
   2   1  13 7452.06 344.126   7
   2  -1  14 112126. 1481.86   7
   2   1  14 108176. 1359.06   7
   2  -1  15 7965.87 414.584   7
   2   1  15 7969.19 380.027   7
   2  -1  16 1998.89 220.257   7
   2   1  16 1902.89 207.978   9
   2   1  16 1864.70 192.725   7
   2  -1  17 482.437 122.681   9
   2  -1  17 452.309 111.334   7
  -2  -1 -18 83.1413 51.1306   8
   2  -1  18 17.2966 66.4380   9
  -2  -1 -19 15476.9 465.157   8
   2  -1  19 16880.6 546.050   9
   2  -1  20 13392.2 436.252   9
  -2  -1 -20 11359.9 334.262   8
   2  -1  21 742.632 87.3755   9
   2  -2 -22 4626.00 227.706   8
  -2  -2  22 4579.82 229.581   9
   2  -2 -21 8298.61 357.252   8
  -2  -2  21 8200.79 361.360   9
   2  -2 -20 3570.20 264.326   8
  -2  -2  20 3565.34 268.531   9
   2  -2 -19 17469.6 619.979   8
  -2  -2  19 17100.4 628.201   9
   2  -2 -18 27981.1 812.191   8
  -2  -2  18 27548.4 821.310   9
  -2  -2  17 1862.68 233.829   9
  -2  -2  16 4661.85 358.027   9
  -2  -2  15 96072.6 1557.03   9
  -2  -2  14 1105.50 174.504   9
  -2   2  14 535.454 169.203  11
  -2   2  14 724.593 186.988   1
  -2   2  13 30985.3 1111.76   1
  -2   2  12 884.386 194.120   1
  -2   2  11 202586. 2596.16   1
  -2   2  10 64527.8 1382.60   1
  -2  -2   9 47136.4 920.685   1
  -2   2   9 46976.3 1095.56   1
  -2  -2   8 64298.4 912.727   2
  -2  -2   8 61837.0 966.849   1
  -2   2   8 63759.7 1197.82   1
  -2  -2   7 8880.38 328.275   1
  -2   2   7 9165.14 420.392   1
  -2   2   6 278993. 2188.15   1
  -2  -2   6 280971. 1627.49   1
  -2  -2   5 8381.33 251.619   1
  -2   2   5 9146.04 386.634   1
  -2  -2   4 577537. 1693.13   1
  -2   2   4 566552. 2947.30   1
   2   2  -3 2407.72 115.620  11
  -2   2   3 2083.58 174.261   1
  -2  -2   2 34124.6 338.295   1
  -2   2   2 33797.0 684.169   1
  -2   2   1 57829.4 899.110   1
   2   2  -1 51988.2 631.942  11
   2   2   0 189399. 1325.33  11
   2   2   1 2239.86 155.503  11
   2   2   2 2591.87 176.655  11
   2  -2   2 2803.65 206.688  11
   2  -2   3 66295.3 1011.64  11
   2   2   3 61921.5 958.232  11
   2  -2   4 179901. 1697.20  11
   2   2   4 180742. 1760.74  11
   2  -2   5 31740.1 746.258  11
   2   2   5 31384.2 803.008  11
   2   2   6 272613. 2552.17  11
   2  -2   6 269328. 2321.68  11
   2   2   7 50470.1 1172.22  11
   2  -2   7 50941.9 1043.35  11
   2   2   8 15147.7 692.216  11
   2   2   9 20222.6 842.882  11
   2   2  10 36465.1 1199.33  11
   2   2  11 21908.6 996.281  11
   2  -2  12 11162.6 465.644   7
   2   2  12 11949.9 787.291  11
   2  -2  13 15737.1 572.094   7
   2  -2  14 42481.5 975.541   7
  -2  -2 -15 3695.53 295.742   8
   2  -2  15 3513.02 293.738   7
   2  -2  16 5437.91 361.664   7
  -2  -2 -16 5154.56 342.244   8
   2  -2  16 5080.74 349.081   9
   2  -2  17 14069.7 557.742   9
  -2  -2 -17 13529.0 518.902   8
   2  -2  17 13669.8 548.848   7
   2  -2  18-3.06358 69.5797   9
  -2  -2 -18-68.7274 55.8563   8
  -2  -2 -19 6990.71 295.602   8
   2  -2  19 8034.90 378.000   9
   2  -2  20 341.452 83.3570   9
  -2  -3  22 20.3732 34.5370   9
   2  -3 -22 32.8037 33.3929   8
  -2  -3  21 1740.14 158.693   9
   2  -3 -21 1565.15 124.366  10
   2  -3 -21 1795.70 153.603   8
  -2  -3  20 28781.9 703.600   9
   2  -3 -20 28607.1 691.591   8
   2  -3 -19 1850.17 203.982   8
  -2  -3  19 1804.12 203.352   9
   2  -3 -18 135.324 84.2914   8
  -2  -3  18 151.020 92.6572   9
  -2  -3  17 5235.01 363.495   9
   2  -3 -17 4570.50 351.991   8
   2  -3 -16 14843.5 642.295   8
  -2  -3  16 15295.3 628.054   9
   2  -3 -15 119504. 1829.36   8
  -2  -3  15 114497. 1723.65   9
   2  -3 -14 415.496 123.165   8
  -2  -3  14 365.955 116.943   9
  -2  -3  13 15637.7 602.862   9
   2  -3 -13 15924.3 660.111   8
  -2   3  13 17441.8 882.310   1
  -2   3  12 1732.72 276.652   1
  -2   3  11 5930.71 469.006   1
  -2   3  10 31.4260 68.1768   1
  -2   3   9 332.457 124.165   1
  -2  -3   8 151330. 1698.23   2
  -2   3   8 148985. 2000.51   1
  -2   3   7 472.165 116.980   1
  -2  -3   7 363.395 90.7430   2
  -2   3   6 12097.9 503.337   1
  -2  -3   6 12523.2 497.468   2
  -2   3   5 117304. 1510.94   1
  -2   3   4 65141.9 1098.77   1
  -2   3   3 144801. 1588.00   1
  -2   3   2 365571. 2496.39   1
   2   3  -2 383991. 1581.83  11
   2   3  -1 59104.8 723.753  11
  -2   3   1 63291.8 1011.44   1
   2   3   0 34313.5 619.051  11
  -2   3   0 36763.8 781.394   1
   2   3   1 70444.4 940.337  11
   2   3   2 68865.2 1006.99  11
   2   3   3 8471.97 390.872  11
   2   3   4 26050.1 738.057  11
  -2  -3  -4 25036.0 628.779   2
  -2  -3  -5 134194. 1426.22   2
   2   3   5 133023. 1822.95  11
   2   3   6 196780. 2349.24  11
  -2  -3  -6 196248. 1731.98   2
   2   3   7 16009.3 721.265  11
   2   3   8 13644.5 711.931  11
   2   3   9 18454.9 869.743  11
   2   3  10 4715.13 463.561  11
   2  -3  11 6439.27 365.235   7
   2   3  11 6425.06 579.139  11
  -2  -3 -12 57271.1 1220.86   8
   2  -3  12 57588.2 1137.73   7
  -2  -3 -13 80.2007 72.1672   8
   2  -3  13 316.157 103.444   7
  -2  -3 -14 20994.1 727.401   8
   2  -3  14 20738.3 726.257   7
   2  -3  15 2298.41 246.169   9
   2  -3  15 2312.20 251.057   7
  -2  -3 -15 2070.44 225.992   8
   2  -3  16 395.444 121.499   9
  -2  -3 -16 358.157 100.138   8
   2  -3  16 372.999 117.376   7
   2  -3  17 1286.51 181.892   9
  -2  -3 -17 1301.44 156.059   8
  -2  -3 -18 155.700 59.6054   8
   2  -3  18 320.229 103.742   9
   2  -3  19 4795.19 279.211   9
   2  -3  20 28.3607 41.9087   9
  -2  -4  21 324.519 62.8485   9
   2  -4 -20 8009.25 322.024   8
  -2  -4  20 8231.93 332.042   9
   2  -4 -20 8816.44 311.503  10
  -2  -4  19 1338.93 157.428   9
   2  -4 -19 1132.86 140.680   8
   2  -4 -19 1290.76 143.202  10
  -2  -4  18 657.483 133.307   9
   2  -4 -18 683.908 132.131   8
  -2  -4  17 6286.23 383.088   9
   2  -4 -17 6545.25 401.016   8
  -2  -4  16 37323.5 952.978   9
   2  -4 -16 36647.6 994.194   8
   2  -4 -15 15577.4 670.155   8
  -2  -4  15 14262.5 599.035   9
  -2  -4  14 2856.03 273.606   9
   2  -4 -14 2443.28 276.866   8
  -2  -4  13 81534.0 1419.18   9
   2  -4 -13 86533.6 1626.92   8
  -2   4  12 203941. 3055.03   1
   2  -4 -12 203464. 2477.50   8
   2  -4 -11 35130.9 1015.16   8
  -2   4  11 35412.1 1234.75   1
  -2   4  10 91280.5 1877.00   1
  -2   4   9 940.145 196.069   1
  -2   4   8 9489.17 557.749   1
  -2  -4   8 10015.5 540.039   2
  -2   4   7 6120.39 429.473   1
  -2  -4   7 7169.60 445.933   2
  -2  -4   6 610.896 138.390   2
  -2   4   6 281.783 92.0427   1
  -2  -4   5 1784.35 220.192   2
  -2   4   5 2294.94 235.837   1
  -2  -4   4 55129.5 1200.89   2
  -2   4   4 54742.1 1079.11   1
  -2   4   3 71794.1 1207.83   1
  -2  -4   3 72214.0 1363.91   2
  -2   4   2 219092. 2107.15   1
  -2  -4   2 237402. 2452.54   2
  -2   4   1 26771.3 724.013   1
  -2  -4   1 24966.0 796.580   2
  -2  -4   0 18080.7 658.447   2
   2   4   1 27460.3 674.877  11
  -2  -4  -1 27011.5 792.902   2
  -2  -4  -2 126763. 1705.39   2
   2   4   2 123300. 1531.87  11
   2   4   3 75920.5 1269.18  11
  -2  -4  -3 77638.2 1325.56   2
  -2  -4  -4 2530.93 241.956   2
   2   4   4 2448.51 255.299  11
   2   4   5 15170.7 677.558  11
  -2  -4  -5 15332.9 590.794   2
  -2  -4  -6 69775.9 1278.75   2
   2   4   6 63553.8 1475.79  11
   2   4   7 11206.2 653.283  11
   2   4   8 59972.9 1579.84  11
  -2  -4  -9 1130.82 148.781   5
   2   4   9 756.527 208.129  11
   2   4  10 582.768 172.674  11
  -2  -4 -10 641.548 138.667   8
  -2  -4 -10 822.993 136.172   5
   2  -4  10 540.741 125.130   7
   2  -4  11 423.175 120.377   7
  -2  -4 -11 318.125 88.2017   5
  -2  -4 -11 258.816 89.5707   8
  -2  -4 -12 5250.86 373.290   8
   2  -4  12 5750.40 392.468   7
  -2  -4 -12 5494.89 315.258   5
  -2  -4 -13 25377.2 797.146   8
   2  -4  13 27680.6 870.925   7
  -2  -4 -13 27621.1 682.019   5
   2  -4  14 234.016 100.670   9
  -2  -4 -14 19.7893 66.4829   8
   2  -4  15 227.076 101.317   9
  -2  -4 -15 284.024 87.3673   8
   2  -4  16 18627.8 635.017   9
  -2  -4 -16 15954.9 515.953   8
   2  -4  17 6933.53 369.409   9
   2  -4  18 8019.26 361.240   9
   2  -4  19 16044.7 425.429   9
  -2  -5  19 2068.51 150.779   9
   2  -5 -19 2342.79 163.241  10
   2  -5 -18 488.556 94.2556  10
  -2  -5  18 380.812 86.8811   9
   2  -5 -17 20361.8 602.326  10
  -2  -5  17 19026.9 577.933   9
   2  -5 -16 43.6877 70.0651  10
  -2  -5  16 73.0982 67.2533   9
  -2  -5  15 222.437 91.1366   9
   2  -5 -15 211.911 105.982   8
   2  -5 -14 70867.8 1380.27   8
  -2  -5  14 73328.0 1307.56   9
   2  -5 -14 69153.6 1341.16  10
   2  -5 -13 7749.23 465.467   8
   2  -5 -12 21294.8 780.059   8
   2  -5 -11 1860.35 244.305   8
   2  -5 -10 435.783 126.287  10
   2  -5 -10 309.024 110.601   8
   2  -5  -9 9772.10 526.989  10
   2  -5  -8 34857.7 968.325  10
  -2  -5   7 100982. 2012.28   2
  -2  -5   6 151732. 2478.98   2
  -2  -5   5 41294.4 1276.60   2
  -2  -5   4 768.236 185.149   2
  -2  -5   3 1725.79 270.037   2
  -2  -5   2 45274.3 1285.98   2
  -2  -5   1 3694.18 367.522   2
  -2  -5   0 599.865 159.935   2
  -2  -5  -1 126635. 2062.86   2
  -2  -5  -2 73309.0 1583.20   2
  -2  -5  -3 151362. 2239.80   2
  -2  -5  -4 50054.0 1289.00   2
  -2  -5  -5 46806.9 1247.37   2
  -2  -5  -6 1724.77 206.896   5
   2   5   6 1038.51 213.015  11
  -2  -5  -7 34.4121 64.8728   5
   2   5   7 449.050 145.834  11
  -2  -5  -8 6061.11 369.643   5
   2   5   8 6236.25 570.228  11
  -2  -5  -9 23.0326 65.8790   5
  -2  -5 -10 9779.00 449.336   5
  -2  -5 -11 32734.2 795.269   5
   2  -5  12 1650.00 204.891   9
  -2  -5 -12 1946.34 188.513   5
   2  -5  13 38664.6 950.487   9
  -2  -5 -13 36679.6 754.051   5
   2  -5  14 2301.43 234.041   9
   2  -5  15 9583.37 447.740   9
   2  -5  16 3126.95 239.045   9
   2  -5  17 719.104 103.375   9
  -2  -5 -18 1641.53 125.200  10
   2  -6 -18 7385.19 267.546  10
   2  -6 -17 1759.51 153.807  10
   2  -6 -16 1976.30 180.955  10
   2  -6 -15 10501.5 447.362  10
   2  -6 -14 24852.7 738.349  10
   2  -6 -13 6510.35 403.038  10
   2  -6 -12 35566.3 984.971  10
   2  -6 -11 11658.0 575.116  10
   2  -6 -10 3618.38 329.940  10
   2  -6  -9 38801.8 1057.29  10
   2  -6  -8 31173.6 751.636   5
   2  -6  -8 27900.8 892.210  10
   2  -6  -7 10871.5 459.221   5
   2  -6  -7 10252.3 540.025  10
   2  -6  -6 236.608 81.6344   5
   2  -6  -6 399.411 129.298  10
  -2  -6   5 53085.7 928.214   5
   2  -6  -5 53570.8 1032.74   5
   2  -6  -5 50493.6 1163.64  10
  -2  -6   4 51357.3 953.292   5
   2  -6  -4 49747.7 1129.86  10
   2  -6  -4 51257.4 1020.29   5
   2  -6  -3 126547. 1770.20  10
   2  -6  -3 126539. 1616.22   5
  -2  -6   3 128873. 1572.76   5
   2  -6  -2 8729.78 425.051   5
   2  -6  -2 8478.28 446.105  10
  -2  -6   2 8382.40 410.969   5
  -2  -6   1 46741.8 987.509   5
   2  -6  -1 47005.0 1014.12  10
   2  -6  -1 47027.3 991.119   5
  -2  -6   0 20234.3 667.869   5
   2  -6   0 20612.0 654.654   5
   2  -6   1 43294.5 937.076   5
  -2  -6  -1 41577.6 975.573   5
  -2  -6  -1 43018.2 1038.58   4
   2  -6   2 12996.2 508.959   5
  -2  -6  -2 13729.8 572.750   4
  -2  -6  -2 12956.9 555.261   5
  -2  -6  -3 45607.5 1041.71   5
   2  -6   3 47776.0 969.292   5
  -2  -6  -3 46277.4 1006.54   4
  -2  -6  -4 133020. 1670.40   4
  -2  -6  -4 130717. 1765.59   5
  -2  -6  -5 10706.6 508.766   5
  -2  -6  -5 11051.2 496.957   4
  -2  -6  -6 94536.0 1495.44   5
  -2  -6  -7 21574.3 721.663   5
  -2  -6  -8 17642.8 631.221   5
  -2  -6  -9 54483.3 1072.76   5
  -2  -6 -10 4436.85 299.580   5
  -2  -6 -11 2424.61 212.810   5
  -2  -6 -12 1735.66 169.462   5
  -2  -6 -13 5769.75 336.309  10
  -2  -6 -13 5663.45 269.432   5
  -2  -6 -14 18252.0 543.086  10
  -2  -6 -15 3148.86 206.567  10
  -2  -6 -16 3231.18 174.720  10
   2  -7 -16 8701.89 288.420  10
   2  -7 -15 1824.85 157.315  10
   2  -7 -14 5099.59 285.640  10
   2  -7 -13 365.822 94.0626  10
   2  -7 -12 1046.82 157.968  10
   2  -7 -11 3468.04 291.528  10
   2  -7 -10 3647.01 310.614  10
   2  -7  -9 14538.8 460.504   5
   2  -7  -9 14019.8 614.234  10
   2  -7  -8 26176.8 660.289   5
   2  -7  -8 25789.3 840.746  10
   2  -7  -7 27727.9 714.264   5
   2  -7  -7 26997.6 864.506  10
   2  -7  -6 39490.0 1042.44  10
   2  -7  -6 39763.6 882.965   5
  -2  -7   5 24218.7 638.627   5
   2  -7  -5 23310.0 693.204   5
   2  -7  -5 23714.3 800.034  10
   2  -7  -4 66938.1 1195.52   5
   2  -7  -4 66706.8 1324.64  10
  -2  -7   4 67444.2 1127.19   5
   2  -7  -3 24461.5 783.874  10
   2  -7  -3 23692.8 723.982   5
  -2  -7   3 24423.5 707.068   5
   2  -7  -2 37344.9 906.417   5
   2  -7  -2 38574.0 949.075  10
  -2  -7   2 37465.0 896.166   5
   2  -7  -1 4528.88 322.286   5
  -2  -7   1 4841.40 340.250   5
  -2  -7   1 3913.17 348.851   4
   2  -7   0 129887. 1703.37   5
  -2  -7   0 129569. 1741.77   5
  -2  -7   0 127817. 1853.34   4
  -2  -7  -1 1800.22 216.960   5
  -2  -7  -1 1608.27 235.795   4
   2  -7   1 1870.46 213.669   5
  -2  -7  -2 12744.2 559.907   5
   2  -7   2 12946.4 535.510   5
  -2  -7  -2 11461.2 518.782   4
  -2  -7  -3 13254.1 576.473   5
  -2  -7  -3 10110.6 522.294   4
  -2  -7  -4 28355.4 833.436   5
  -2  -7  -4 27395.2 771.072   4
  -2  -7  -5 27411.1 820.920   5
  -2  -7  -6 6132.43 386.157   5
  -2  -7  -7 354.675 110.654   5
  -2  -7  -8 30064.5 788.158   5
  -2  -7  -9 8418.70 391.502   5
  -2  -7 -10 634.631 106.654   5
  -2  -7 -11 4167.30 236.430   5
  -2  -7 -12 5941.98 251.397   5
  -2  -7 -13 49329.4 602.235   5
   2  -8 -13 2945.40 163.470  10
   2  -8 -12 542.600 88.5064  10
   2  -8 -11 55671.2 889.806  10
   2  -8 -10 8782.70 382.919  10
   2  -8  -9 136.033 65.1835  10
   2  -8  -9 160.252 54.4702   5
   2  -8  -8 193.961 76.6496  10
   2  -8  -8 297.958 72.8446   5
   2  -8  -7 61405.5 915.506   5
   2  -8  -7 64983.9 1132.66  10
   2  -8  -6 20294.6 563.345   5
   2  -8  -6 21897.7 668.495  10
   2  -8  -5 3899.21 287.305  10
   2  -8  -5 3742.67 256.906   5
   2  -8  -4 39299.8 871.794  10
   2  -8  -4 37414.9 817.246   5
  -2  -8   4 39572.4 779.988   5
  -2  -8   3 17123.2 546.556   5
   2  -8  -3 16793.2 561.029   5
  -2  -8   2 4123.25 284.272   5
   2  -8  -2 4063.56 285.765   5
  -2  -8   2 3479.82 311.205   4
  -2  -8   1 2111.48 212.169   5
  -2  -8   1 1983.82 248.180   4
   2  -8  -1 2042.12 208.894   5
  -2  -8   0 29116.0 778.037   5
  -2  -8   0 25873.1 738.054   4
  -2  -8  -1 9466.50 448.019   5
  -2  -8  -1 8526.35 436.479   4
  -2  -8  -2 568.108 125.762   5
  -2  -8  -2 562.587 190.612   4
  -2  -8  -3 6467.15 373.647   5
  -2  -8  -4 1722.71 199.446   5
  -2  -8  -5 1975.56 205.910   5
  -2  -8  -6 16159.8 550.459   5
  -2  -8  -7 3660.41 248.575   5
  -2  -8  -8 8691.99 351.234   5
  -2  -8  -9 486.945 87.0438   5
  -2  -8 -10 22712.5 457.856   5
  -2  -8 -11 30755.8 447.048   5
  -2  -9   2 5072.45 244.018   5
  -2  -9   1 1366.87 135.964   5
  -2  -9   0 5697.62 274.541   5
  -2  -9  -1 13680.4 428.374   5
  -2  -9  -2 17363.1 484.139   5
  -2  -9  -3 7640.43 317.895   5
  -2  -9  -4 1585.72 146.618   5
  -2  -9  -5 22423.5 504.371   5
  -2  -9  -6 145.437 51.2236   5
  -2  -9  -7 9181.24 266.713   5
   3   0 -23 1275.49 110.171   8
  -3   0  22-31.9383 47.3244   9
   3   0 -22 3.72796 42.1285   8
  -3   0  21 10356.4 396.242   9
  -3   0  20 60.2874 59.9375   9
  -3   0  19 6354.50 377.004   9
  -3   0  18 1.33168 86.5719   9
  -3   0  17 7866.92 453.735   9
  -3   0  16 459.653 129.964   9
  -3   0  15 829.067 209.006   1
  -3   0  15 504.590 131.018   9
  -3   0  14 109.128 111.642   1
  -3   0  13 154624. 2282.82   1
  -3   0  12-86.9420 123.048   1
  -3   0  11 672818. 4316.03   1
  -3   0  10 86.5384 83.3783   1
  -3   0   9 38039.7 887.473   1
  -3   0   8 645.831 116.535   1
  -3   0   7 123533. 1414.96   1
  -3   0   6 732.417 106.375   1
  -3   0   5 59487.6 908.243   1
  -3   0   4 475.247 82.3360   1
  -3   0   3 290588. 1941.05   1
   3   0  -2 1.30308 45.3508  11
   3   0  -1 491529. 2636.84  11
   3   0   0 43.9094 40.7342  11
   3   0   1 104909. 1247.39  11
   3   0   2 20.8222 38.2425  11
   3   0   3 342693. 2447.15  11
   3   0   4 40.4705 44.2731  11
   3   0   5 217583. 2116.13  11
   3   0   6 104.737 72.6881  11
   3   0   7 98941.2 1699.33  11
   3   0   8 131.205 94.1479  11
   3   0   9 44026.7 1271.79  11
   3   0  10 1332.32 241.176  11
   3   0  11 29889.1 1170.04  11
   3   0  12-415.376 184.626  11
   3   0  12 67.0849 55.6028   7
   3   0  13 131376. 1498.05   7
   3   0  14 65.0517 78.5912   7
   3   0  15 48145.6 947.076   7
   3   0  16 408.241 104.288   7
   3   0  17 27081.5 712.003   9
   3   0  17 27233.6 699.015   7
   3   0  18 34.1897 55.9463   7
   3   0  18 106.730 69.3725   9
   3   0  19 842.578 115.038   9
   3  -1 -23 3118.39 163.233   8
   3   1 -23 2872.61 152.843   8
  -3  -1  22 217.652 69.5739   9
   3  -1 -22 72.1279 50.2821   8
  -3  -1  21 9402.56 392.052   9
   3  -1 -21 8881.25 375.389   8
  -3  -1  20 6061.24 352.327   9
  -3   1  19 436.180 102.563   9
  -3  -1  19 502.458 126.114   9
  -3   1  18 45350.7 985.395   9
  -3  -1  18 44907.5 1059.87   9
  -3   1  17 85210.0 1393.27   9
  -3  -1  17 82063.9 1458.74   9
  -3   1  16 24723.1 762.320   9
  -3  -1  16 25301.7 802.084   9
  -3  -1  15 30130.6 864.765   9
  -3   1  15 31273.0 854.203   9
  -3  -1  14 3444.55 294.382   9
  -3   1  14 3395.97 380.913   1
  -3  -1  14 3307.53 367.326   1
  -3   1  13 1264.46 234.915   1
  -3  -1  13 1398.14 230.699   1
  -3   1  12 17226.1 778.410   1
  -3  -1  12 16390.1 696.212   1
  -3   1  11 156095. 2108.46   1
  -3  -1  11 159971. 2025.81   1
  -3  -1  10 194787. 2136.58   1
  -3   1  10 185836. 2165.27   1
  -3   1   9 37395.5 905.085   1
  -3  -1   9 35474.6 836.972   1
  -3   1   8 16628.2 572.901   1
  -3  -1   8 16735.3 531.166   1
  -3   1   7 130445. 1554.65   1
  -3  -1   7 124118. 1320.28   1
  -3   1   6 274893. 2151.30   1
  -3  -1   6 265458. 1844.05   1
  -3   1   5 24552.5 630.931   1
  -3  -1   5 24451.3 539.704   1
  -3  -1   4 18813.1 448.520   1
  -3   1   4 20454.1 554.541   1
  -3  -1   3 268598. 1696.01   1
  -3   1   3 269474. 2001.11   1
   3   1  -2 519003. 2533.82  11
   3  -1  -1 37349.4 794.480  11
   3   1  -1 34539.4 662.960  11
   3  -1   0 2418.75 204.997  11
   3   1   0 2909.82 202.603  11
   3   1   1 26075.5 613.399  11
   3  -1   1 27993.8 692.578  11
   3  -1   2 22945.2 639.880  11
   3   1   2 19930.0 543.986  11
   3  -1   3 133133. 1547.06  11
   3   1   3 137426. 1545.84  11
   3  -1   4 140413. 1683.71  11
   3   1   4 148929. 1716.56  11
   3  -1   5 224493. 2317.45  11
   3   1   5 243323. 2363.65  11
   3  -1   6 114754. 1748.05  11
   3   1   6 117544. 1774.55  11
   3   1   7 2742.49 294.134  11
   3  -1   7 2433.98 282.022  11
   3  -1   8 20328.2 843.458  11
   3   1   8 19198.5 826.462  11
   3   1   9 52421.3 1437.53  11
   3  -1   9 51666.5 1426.50  11
   3   1  10 1688.88 281.716  11
   3  -1  10 1130.27 263.398  11
   3   1  11 722.053 201.931  11
   3   1  12 35218.1 736.777   7
   3  -1  12 36359.5 797.158   7
   3  -1  13 36.2112 63.6280   7
   3   1  13 789.443 119.698   7
   3   1  14 80139.5 1162.31   7
   3  -1  14 81249.6 1269.18   7
   3  -1  15 21706.9 664.916   7
   3   1  15 20526.9 598.896   7
   3   1  16 91.1642 70.0863   9
   3   1  16 90.6095 70.2133   7
   3  -1  17 10018.7 444.644   9
   3   1  17 10142.1 407.014   7
   3  -1  17 10172.3 443.746   7
   3  -1  18 20760.8 600.571   9
   3  -1  18 20168.0 581.293   7
   3  -1  19 3569.77 230.729   9
   3  -1  20 1142.24 115.342   9
  -3  -2  22 31561.7 599.723   9
   3  -2 -22 32271.6 595.286   8
   3  -2 -21 19976.3 546.285   8
  -3  -2  21 19982.5 555.930   9
  -3  -2  20 3417.14 262.373   9
   3  -2 -20 3215.99 247.736   8
   3  -2 -19 2486.57 235.575   8
  -3  -2  19 1974.22 219.009   9
  -3  -2  18 4753.24 346.252   9
   3  -2 -18 4562.79 330.533   8
  -3  -2  17 3909.13 321.323   9
  -3  -2  16 6794.49 419.254   9
  -3  -2  15 12637.3 559.550   9
  -3  -2  14 153856. 1928.03   9
  -3   2  14 164366. 2625.42   1
  -3   2  13 83714.8 1809.11   1
  -3   2  12 11469.3 658.806   1
  -3   2  11 79923.6 1597.46   1
  -3   2  10 144391. 2037.38   1
  -3   2   9 133551. 1845.56   1
  -3   2   8 597.482 129.242   1
  -3   2   7 935.687 149.971   1
  -3  -2   7 946.065 112.870   1
  -3   2   6 60058.6 1107.15   1
  -3  -2   6 55758.2 767.107   1
  -3   2   5 136600. 1596.84   1
  -3  -2   5 128998. 1061.02   1
  -3   2   4 46659.8 925.166   1
  -3  -2   4 48862.0 628.668   1
  -3  -2   3 490608. 1992.88   1
  -3   2   3 487014. 2980.84   1
   3   2  -2 63035.8 871.279  11
  -3   2   2 65856.1 1087.29   1
   3   2  -1 3096.81 203.950  11
   3   2   0 91525.0 1119.83  11
   3  -2   1 68562.8 1186.61  11
   3   2   1 62349.2 959.306  11
   3  -2   2 49077.6 1032.99  11
   3   2   2 43811.3 859.451  11
   3   2   3 1650.59 181.900  11
   3  -2   3 1819.99 202.741  11
   3  -2   4 142092. 1786.77  11
   3   2   4 142054. 1761.72  11
   3  -2   5 61539.7 1243.72  11
   3   2   5 61236.6 1231.26  11
   3  -2   6 57629.6 1257.17  11
   3   2   6 55345.4 1273.49  11
   3   2   7 58197.2 1386.25  11
   3  -2   7 57369.6 1320.26  11
   3   2   8 221133. 2877.90  11
   3   2   9 16939.6 849.567  11
   3   2  10 367.987 159.906  11
   3   2  11 5155.53 538.221  11
   3  -2  11 4485.60 288.782   7
   3  -2  12 4717.25 309.383   7
   3  -2  13 3752.89 290.725   7
   3  -2  14 23781.1 725.350   7
   3  -2  15 2094.91 224.204   7
   3  -2  16 25980.3 753.571   7
   3  -2  17 10817.8 465.369   7
   3  -2  17 10604.9 458.794   9
   3  -2  18 3681.01 256.841   9
   3  -2  19 4052.58 244.726   9
   3  -2  20 914.504 100.304   9
   3  -3 -22 19470.4 399.856   8
  -3  -3  22 20783.5 434.077   9
   3  -3 -21 23.7771 44.9480   8
   3  -3 -21 72.1235 39.5472  10
   3  -3 -20 4280.44 268.967   8
   3  -3 -20 4019.07 222.437  10
  -3  -3  20 4232.77 271.288   9
  -3  -3  19 113990. 1504.30   9
   3  -3 -19 113289. 1479.03   8
   3  -3 -19 113025. 1314.84  10
  -3  -3  18 13452.5 553.014   9
   3  -3 -18 13812.5 563.347   8
  -3  -3  17 18641.6 671.156   9
   3  -3 -17 18473.7 684.861   8
  -3  -3  16 22096.7 740.934   9
   3  -3 -16 23026.4 783.301   8
  -3  -3  15 38451.0 971.784   9
   3  -3 -15 38517.9 1026.11   8
  -3  -3  14 41867.3 998.366   9
   3  -3 -14 44563.2 1108.67   8
   3  -3 -13 47.4723 67.5436   8
  -3   3  13-95.1256 67.7067   1
  -3   3  12 150104. 2513.30   1
  -3   3  11 1326.20 222.983   1
  -3   3  10 13385.6 675.333   1
  -3   3   9 98285.4 1745.45   1
  -3  -3   8 1418.52 177.164   2
  -3   3   8 1583.64 212.109   1
  -3   3   7 69464.3 1325.12   1
  -3   3   6 38930.6 977.719   1
  -3   3   5 45657.1 1040.39   1
  -3   3   4 87295.5 1381.57   1
  -3   3   3 9590.27 456.300   1
  -3   3   2 93885.2 1421.25   1
   3   3  -2 95828.2 1085.79  11
  -3   3   1 16088.1 587.184   1
   3   3  -1 15491.4 479.157  11
  -3   3   0 14082.3 552.825   1
   3   3   0 12283.1 428.840  11
   3   3   1 19048.1 577.539  11
   3   3   2 1796.56 187.682  11
   3   3   3 717.016 130.414  11
   3   3   4 39845.6 1003.45  11
   3   3   5 26456.6 876.166  11
  -3  -3  -6 24201.8 665.840   2
   3   3   6 21349.8 846.156  11
   3   3   7 6522.10 500.584  11
   3   3   8 10502.3 670.987  11
   3   3   9 4489.39 469.339  11
   3  -3  10 2158.69 212.439   7
   3   3  10 2226.07 356.194  11
   3  -3  11 44800.9 974.608   7
   3  -3  12 51088.0 1073.13   7
   3  -3  13 67399.9 1253.76   7
   3  -3  14 2976.04 278.085   7
  -3  -3 -14 2621.45 207.382   5
   3  -3  15 1997.97 227.770   7
   3  -3  16 5175.05 332.090   9
   3  -3  16 5255.22 344.173   7
   3  -3  17 6484.78 354.650   9
   3  -3  18 3944.10 256.597   9
   3  -3  19 18533.9 479.840   9
  -3  -4  21 34500.4 561.317   9
  -3  -4  20 10266.8 365.795   9
   3  -4 -20 10603.8 326.321  10
  -3  -4  19 435.678 96.6637   9
   3  -4 -19 325.539 80.6693  10
  -3  -4  18 15148.1 539.071   9
   3  -4 -18 15075.2 538.985   8
   3  -4 -18 15155.1 506.912  10
  -3  -4  17 9505.52 454.851   9
   3  -4 -17 9828.65 478.533   8
   3  -4 -17 9276.24 428.866  10
  -3  -4  16 4449.56 325.063   9
   3  -4 -16 3945.54 324.556   8
   3  -4 -16 3901.08 302.707  10
  -3  -4  15 88701.3 1447.36   9
   3  -4 -15 88037.7 1555.79   8
  -3  -4  14 11153.7 522.773   9
   3  -4 -14 10900.3 562.483   8
  -3  -4  13 471.142 122.783   9
   3  -4 -13 258.411 108.516   8
  -3  -4  12 1652.64 198.936   9
   3  -4 -12 1602.65 228.719   8
  -3  -4  11 36305.5 900.708   9
   3  -4 -11 37736.1 1028.47   8
  -3   4  10 5002.93 464.091   1
  -3   4   9 95502.7 1885.99   1
  -3  -4   8 39358.4 1068.54   2
  -3   4   8 39244.6 1151.87   1
  -3   4   7 3927.16 354.970   1
  -3  -4   7 3711.01 327.367   2
  -3   4   6 8830.45 502.498   1
  -3  -4   6 7910.77 484.082   2
  -3   4   5 89956.7 1566.08   1
  -3  -4   5 89859.2 1626.69   2
  -3  -4   4 28023.7 913.877   2
  -3   4   4 33647.2 947.828   1
  -3   4   3 102753. 1619.16   1
  -3   4   2 2322.08 234.800   1
  -3   4   1 719.876 133.507   1
  -3   4   0 3744.29 309.927   1
   3   4   1 490.313 103.571  11
   3   4   2 4267.43 313.324  11
  -3  -4  -2 4283.22 338.755   2
   3   4   3 11688.9 560.663  11
  -3  -4  -3 14415.2 611.760   2
  -3  -4  -4 8348.33 450.102   2
   3   4   4 8475.36 508.929  11
  -3  -4  -5 48175.8 1093.21   2
   3   4   5 48529.2 1294.89  11
   3   4   6 4443.55 425.453  11
   3   4   7 68545.6 1757.40  11
  -3  -4  -8 32240.6 815.905   5
   3   4   8 32072.4 1255.13  11
   3  -4   8 31513.4 663.658   6
   3  -4   9 28440.5 622.721   6
   3  -4   9 28560.9 788.556   7
  -3  -4  -9 29793.3 779.702   5
   3   4   9 29565.0 1264.51  11
  -3  -4 -10-15.8783 58.1136   5
   3  -4  10 268.493 95.2321   7
   3  -4  11 7471.73 436.385   7
  -3  -4 -11 7353.77 384.296   5
   3  -4  12 14291.7 610.877   7
  -3  -4 -12 13988.6 518.595   5
   3  -4  13 2909.44 282.267   7
  -3  -4 -13 2776.73 218.652   5
   3  -4  14 11105.2 509.072   9
   3  -4  14 10981.3 522.802   7
  -3  -4 -14 10993.9 408.881   5
   3  -4  15 26279.0 742.882   9
   3  -4  16 1691.15 188.980   9
   3  -4  17 10926.9 425.132   9
   3  -4  18 205.560 71.3245   9
   3  -5 -19 9603.61 316.586  10
  -3  -5  19 7920.29 286.017   9
  -3  -5  18 47487.1 798.329   9
   3  -5 -18 51182.5 834.261  10
  -3  -5  17 17067.7 532.759   9
   3  -5 -17 17630.5 546.079  10
  -3  -5  16 193.769 76.6112   9
   3  -5 -16 104.363 70.1198  10
   3  -5 -15 3331.43 281.828  10
  -3  -5  15 3476.10 277.310   9
   3  -5 -14 20599.4 744.807   8
   3  -5 -14 21479.9 738.449  10
  -3  -5  14 21486.8 691.762   9
   3  -5 -13 80898.5 1478.57  10
   3  -5 -13 79772.6 1511.80   8
   3  -5 -12 6067.18 417.942  10
   3  -5 -12 5428.51 401.729   8
   3  -5 -11 4472.28 369.297  10
   3  -5 -10 118502. 1840.08  10
   3  -5  -9 26509.9 867.622  10
   3  -5  -8 36780.2 1006.54  10
  -3  -5   7 53819.0 1495.55   2
   3  -5  -7 44197.0 1080.28  10
  -3  -5   6 31573.3 1112.67   2
  -3  -5   5 23511.8 956.809   2
  -3  -5   4 8639.00 575.945   2
  -3  -5   3 545.133 148.593   2
  -3  -5   2 6928.65 518.425   2
  -3  -5   1 30886.6 1084.73   2
  -3  -5   0 2984.15 324.228   2
  -3  -5  -1 71046.0 1574.38   2
  -3  -5  -2 27664.9 985.636   2
  -3  -5  -3 2650.74 304.423   2
  -3  -5  -4 9357.99 564.675   2
   3  -5   5 21437.7 566.802   6
  -3  -5  -5 23999.2 747.409   5
  -3  -5  -5 23000.2 717.891   4
   3  -5   6 499.002 90.7870   6
  -3  -5  -6 297.146 111.010   5
  -3  -5  -7 3403.61 288.141   5
   3  -5   7 3141.35 215.491   6
  -3  -5  -8 4709.29 336.418   5
   3  -5   8 4317.17 250.569   6
  -3  -5  -9 2929.21 259.418   5
   3  -5   9 3260.43 211.266   6
  -3  -5 -10 262.232 98.5235   5
  -3  -5 -11 22505.3 670.859   5
   3  -5  12 20062.8 671.725   9
  -3  -5 -12 19868.8 600.615   5
   3  -5  13 9410.79 455.739   9
  -3  -5 -13 9427.74 378.755   5
   3  -5  14 1775.12 198.325   9
  -3  -5 -14 1855.33 156.204   5
   3  -5  15 1672.26 178.188   9
   3  -5  16 1545.71 154.976   9
  -3  -5 -17 1288.63 109.889  10
   3  -6 -18 7094.22 256.803  10
   3  -6 -17 199.770 62.4673  10
   3  -6 -16 2113.23 189.339  10
   3  -6 -15 345.186 98.1227  10
   3  -6 -14 49366.5 1024.49  10
   3  -6 -13 3613.29 301.993  10
   3  -6 -12 35291.0 968.171  10
   3  -6 -11 19964.1 747.857  10
   3  -6 -10 3920.76 339.527  10
   3  -6  -9 3312.85 315.892  10
   3  -6  -8 13727.9 639.540  10
   3  -6  -7 2713.58 222.478   5
   3  -6  -7 2604.39 282.228  10
   3  -6  -6 11987.1 471.787   5
   3  -6  -6 11711.9 591.217  10
   3  -6  -5 15832.7 545.802   5
   3  -6  -5 15078.1 652.907  10
   3  -6  -4 117303. 1777.95  10
   3  -6  -4 114291. 1498.29   5
   3  -6  -3 11084.6 470.058   5
   3  -6  -3 11028.7 538.313  10
  -3  -6   3 10483.8 443.829   5
   3  -6  -2 65607.8 1146.45   5
  -3  -6   2 65037.1 1141.96   5
   3  -6  -2 65839.1 1289.82  10
   3  -6  -1 443.591 118.323  10
   3  -6  -1 588.162 121.488   5
  -3  -6   0 10841.8 499.959   5
   3  -6   0 10742.3 486.175  10
  -3  -6   0 10457.8 533.335   4
   3  -6   0 10407.8 463.266   5
   3  -6   1 1032.77 157.442   5
  -3  -6  -1 1172.97 174.324   5
  -3  -6  -1 1446.99 222.900   4
  -3  -6  -2 43937.7 1023.92   5
  -3  -6  -2 43657.0 1028.99   4
  -3  -6  -3 21113.6 713.166   5
  -3  -6  -3 21784.5 717.827   4
  -3  -6  -4 13626.3 570.550   4
   3  -6   4 13873.2 476.125   6
  -3  -6  -4 13996.3 586.140   5
   3  -6   5 161953. 1594.06   6
  -3  -6  -5 165169. 2014.06   5
  -3  -6  -6 94678.2 1526.22   5
   3  -6   6 92307.3 1161.03   6
  -3  -6  -7 1275.61 186.446   5
  -3  -6  -8 8797.68 450.662   5
  -3  -6  -9 21552.0 672.654   5
  -3  -6 -10 4101.71 284.607   5
  -3  -6 -11 436.094 98.8321   5
  -3  -6 -12 8401.03 353.892   5
  -3  -6 -13 598.795 91.6862   5
  -3  -6 -14 436.034 69.3526   5
   3  -7 -16 10524.3 311.827  10
   3  -7 -15 24997.0 555.042  10
   3  -7 -14 102.732 65.9646  10
   3  -7 -13 1702.10 183.763  10
   3  -7 -12 2600.70 237.683  10
   3  -7 -11 9590.00 478.601  10
   3  -7 -10 1819.10 223.754  10
   3  -7  -9 55609.1 1213.32  10
   3  -7  -8 2414.05 265.736  10
   3  -7  -8 2433.36 192.232   5
   3  -7  -7 1083.54 137.186   5
   3  -7  -7 1113.82 184.836  10
   3  -7  -6 15334.7 519.290   5
   3  -7  -6 15374.8 660.469  10
   3  -7  -5 8215.59 478.478  10
   3  -7  -5 8318.20 397.240   5
   3  -7  -4 83283.3 1278.01   5
  -3  -7   4 84240.4 1212.17   5
   3  -7  -4 83398.9 1491.45  10
  -3  -7   3 1665.78 187.945   5
   3  -7  -3 1869.81 203.861   5
   3  -7  -3 1750.15 220.881  10
  -3  -7   2 83795.6 1578.36   4
   3  -7  -2 83280.3 1316.45   5
  -3  -7   2 86448.6 1342.18   5
   3  -7  -2 87528.5 1466.42  10
   3  -7  -1 10928.7 483.830   5
  -3  -7   1 10535.2 487.542   5
  -3  -7   1 9316.71 545.540   4
   3  -7  -1 10505.3 489.425  10
  -3  -7   0 34565.7 958.241   4
   3  -7   0 37588.4 891.050  10
  -3  -7   0 35745.2 906.794   5
  -3  -7  -1 113286. 1646.30   5
  -3  -7  -1 104928. 1635.86   4
  -3  -7  -2 13801.2 585.415   5
  -3  -7  -2 13608.5 582.636   4
  -3  -7  -3 5218.90 369.869   4
  -3  -7  -3 5477.84 373.662   5
  -3  -7  -4 24873.0 783.602   5
  -3  -7  -5 2519.47 253.579   5
  -3  -7  -6 364.384 112.920   5
  -3  -7  -7 1525.76 193.759   5
  -3  -7  -8 3778.87 279.365   5
  -3  -7  -9 51037.1 939.330   5
  -3  -7 -10 9704.02 380.880   5
  -3  -7 -11 107.512 57.1516   5
  -3  -7 -12 1843.00 134.816   5
   3  -8 -13 25732.7 475.882  10
   3  -8 -12 199.495 57.8020  10
   3  -8 -11 63.7898 50.6314  10
   3  -8 -10 29639.2 687.997  10
   3  -8  -9 556.882 108.244  10
   3  -8  -8 35093.2 813.808  10
   3  -8  -7 56693.6 1058.28  10
   3  -8  -6 86279.7 1312.76  10
   3  -8  -5 7427.61 387.549  10
  -3  -8   5 7221.74 464.956   4
  -3  -8   4 14798.0 456.055   5
   3  -8  -4 14871.7 535.656  10
  -3  -8   3 47652.5 865.326   5
  -3  -8   3 46824.7 1084.74   4
  -3  -8   2 19659.3 580.594   5
  -3  -8   2 18598.2 670.931   4
  -3  -8   1 8272.54 389.904   5
  -3  -8   1 7894.60 433.464   4
  -3  -8   0 43274.5 908.087   5
  -3  -8   0 38405.1 938.847   4
  -3  -8  -1 17788.3 614.574   4
  -3  -8  -1 18660.4 612.212   5
  -3  -8  -2 27671.9 749.403   5
  -3  -8  -3 7564.67 391.851   5
  -3  -8  -4 103.753 75.2754   5
  -3  -8  -5 346.045 101.119   5
  -3  -8  -6 1451.90 167.227   5
  -3  -8  -7 20143.9 550.268   5
  -3  -8  -8 234.624 71.5253   5
  -3  -8  -9 16010.6 408.640   5
  -3  -8 -10 149.073 47.3937   5
  -3  -9   7 9167.17 340.870   4
  -3  -9   6 38967.7 702.891   4
  -3  -9   5-19.5399 128.218   4
  -3  -9   4 3421.44 240.931   4
  -3  -9   3 379.509 145.354   4
  -3  -9   2 11771.5 334.294   5
  -3  -9   1 409.451 74.1859   5
  -3  -9   0 974.932 111.300   5
  -3  -9  -1 18958.2 464.026   5
  -3  -9  -2 4441.67 230.148   5
  -3  -9  -3 16868.3 439.423   5
  -3  -9  -4 15751.5 415.590   5
  -3  -9  -5 716.227 90.1336   5
  -3  -9  -6 1436.29 111.381   5
   4   0 -23 139.870 40.7852   8
  -4   0  22 15082.9 399.068   9
   4   0 -22 14848.3 409.867   8
  -4   0  21 41.5972 50.2300   9
  -4   0  20 8576.79 399.199   9
  -4   0  19 2.33971 60.4583   9
  -4   0  18 35708.9 915.502   9
  -4   0  17 50.9755 76.8853   9
  -4   0  16 2980.82 279.645   9
  -4   0  15 70.0745 95.3901   9
  -4   0  15 57.9018 122.877   1
  -4   0  14 11196.3 523.999   9
  -4   0  14 11666.1 653.014   1
  -4   0  13 84.2569 103.589   1
  -4   0  12 55315.3 1288.62   1
  -4   0  11 54.9078 70.2192   1
  -4   0  10 173928. 2043.18   1
  -4   0   9 25.7133 72.3159   1
  -4   0   8 128729. 1605.29   1
  -4   0   7-32.7325 52.5008   1
  -4   0   6 44742.1 880.536   1
  -4   0   5 467.219 95.9970   1
  -4   0   4 2318.32 198.878   1
   4   0  -3 37.5586 55.3670  11
   4   0  -2 23189.9 692.601  11
   4   0  -1 42.1026 61.5889  11
   4   0   0 213614. 2091.97  11
   4   0   1 616.595 127.244  11
   4   0   2 138381. 1721.07  11
   4   0   3 143.221 86.3248  11
   4   0   4 370972. 3182.35  11
   4   0   5 1000.58 186.785  11
   4   0   6 158657. 2309.38  11
   4   0   7 239.778 143.307  11
   4   0   8 12902.6 759.671  11
   4   0   9 5.91437 137.131  11
   4   0  10 159722. 2962.28  11
   4   0  11 939.575 263.972  11
   4   0  11 125.015 63.7733   7
   4   0  12 1913.41 189.478   7
   4   0  13 424.103 106.594   7
   4   0  14 102351. 1351.52   7
   4   0  15 70.9376 60.8115   7
   4   0  16 53025.8 945.687   7
   4   0  17 53.1597 64.7747   7
   4   0  17 72.8816 59.2122   9
   4   0  18 8879.83 346.965   9
   4   0  18 8423.60 329.334   7
   4  -1 -22 15321.4 413.789   8
  -4  -1  22 16672.0 442.979   9
  -4  -1  21 153.244 70.2646   9
   4  -1 -21 50.0110 51.4263   8
  -4  -1  20 551.563 115.566   9
   4  -1 -20 487.358 100.390   8
  -4   1  19 6527.80 347.007   9
  -4  -1  19 6133.15 371.859   9
  -4   1  18 4404.95 310.292   9
  -4  -1  18 4260.38 326.061   9
  -4  -1  17 37163.2 965.868   9
  -4   1  17 37568.8 922.619   9
  -4   1  16 101036. 1538.96   9
  -4  -1  16 99721.9 1596.76   9
  -4   1  15 14582.6 586.860   9
  -4  -1  15 14678.0 607.626   9
  -4   1  14 36361.8 917.099   9
  -4  -1  14 36121.0 937.282   9
  -4   1  14 37999.9 1226.33   1
  -4   1  13 4513.41 418.921   1
  -4  -1  13 4320.08 382.697   1
  -4   1  12 3307.94 334.268   1
  -4  -1  12 1969.10 246.349   1
  -4  -1  11 209352. 2354.45   1
  -4   1  11 206586. 2450.31   1
  -4   1  10 2564.18 265.001   1
  -4  -1  10 2670.56 250.522   1
  -4  -1   9 117754. 1545.48   1
  -4   1   9 118276. 1674.87   1
  -4   1   8 282.762 96.0802   1
  -4  -1   8 292.477 85.8131   1
  -4   1   7 74247.4 1255.92   1
  -4  -1   7 74388.9 1120.07   1
  -4   1   6 95994.1 1380.83   1
  -4  -1   6 104496. 1288.15   1
  -4   1   5 174367. 1816.78   1
  -4  -1   5 171304. 1584.76   1
  -4  -1   4 113862. 1283.37   1
  -4   1   4 111218. 1463.25   1
  -4   1   3 273717. 2312.64   1
   4   1  -3 268492. 2228.84  11
  -4  -1   3 269027. 2021.67   1
   4   1  -2 226173. 2002.30  11
   4  -1  -1 364844. 2871.85  11
   4   1  -1 375994. 2649.74  11
   4  -1   0 30734.1 847.772  11
   4   1   0 27333.4 712.410  11
   4  -1   1 51885.7 1091.48  11
   4   1   1 48723.3 1006.87  11
   4  -1   2 115830. 1691.41  11
   4   1   2 116341. 1617.49  11
   4   1   3 3312.63 286.052  11
   4  -1   3 3329.54 302.825  11
   4   1   4 105794. 1653.95  11
   4  -1   4 105275. 1728.60  11
   4  -1   5 3318.33 323.196  11
   4   1   5 3833.96 333.302  11
   4  -1   6 35686.8 1053.14  11
   4   1   6 38531.4 1117.33  11
   4  -1   7 9146.26 579.777  11
   4   1   7 9141.66 563.781  11
   4  -1   8 13918.1 755.150  11
   4   1   8 13360.7 723.738  11
   4   1   9 10527.2 698.486  11
   4  -1   9 10399.3 687.245  11
   4   1  10 69937.1 1903.34  11
   4  -1  10 71736.6 1101.85   7
   4  -1  11 10386.4 434.695   7
   4   1  11 10483.4 415.449   7
   4   1  11 10289.7 784.442  11
   4  -1  12 33081.3 774.513   7
   4   1  12 31447.4 721.923   7
   4  -1  13 1953.38 201.213   7
   4   1  13 2037.96 188.917   7
   4  -1  14 991.435 150.365   7
   4   1  14 956.278 132.812   7
   4  -1  15 411.843 111.487   7
   4   1  15 517.516 106.091   7
   4  -1  16 9764.27 425.592   7
   4   1  16 9238.66 379.612   7
   4  -1  17 8098.44 370.444   9
   4   1  17 8003.02 331.598   7
   4  -1  17 7981.21 366.600   7
   4  -1  18 2595.01 195.646   9
   4  -1  19 15926.0 412.043   9
   4  -2 -22 347.022 67.1356   8
  -4  -2  22 419.786 79.8340   9
  -4  -2  21 7588.16 336.475   9
   4  -2 -21 7326.15 316.409   8
  -4  -2  20 364.321 101.978   9
   4  -2 -20 257.560 80.3082   8
  -4  -2  19 635.234 133.213   9
   4  -2 -19 499.392 109.711   8
  -4  -2  18 19493.6 674.529   9
   4  -2 -18 18801.6 641.123   8
  -4  -2  17 71019.4 1314.32   9
   4  -2 -17 69580.0 1272.93   8
  -4  -2  16 49921.2 1113.77   9
   4  -2 -16 49228.5 1072.71   8
  -4  -2  15 3155.77 286.235   9
  -4  -2  14 1885.97 220.964   9
  -4   2  13 72559.6 1704.36   1
  -4  -2  13 65501.1 1234.62   9
  -4   2  12 708.891 184.731   1
  -4   2  11 2039.66 273.365   1
  -4   2  10 99275.3 1692.49   1
  -4   2   9 49313.2 1154.14   1
  -4   2   8 9713.81 505.280   1
  -4   2   7 74712.9 1359.82   1
  -4   2   6 4989.01 343.455   1
  -4   2   5 9642.46 468.975   1
  -4  -2   5 10918.2 374.758   1
   4   2  -4 61752.8 1001.60  11
  -4   2   4 61898.9 1171.59   1
  -4  -2   4 62431.0 867.143   1
   4   2  -3 870.562 125.352  11
  -4  -2   3 1151.52 125.002   1
  -4   2   3 761.852 139.352   1
  -4   2   2 4467.79 325.474   1
   4   2  -2 4704.89 291.180  11
   4   2  -1 327800. 2449.91  11
   4   2   0 48540.5 987.547  11
   4  -2   1 20022.2 739.105  11
   4   2   1 17303.1 618.019  11
   4   2   2 2778.81 256.573  11
   4  -2   2 2855.50 292.896  11
   4   2   3 16687.1 629.861  11
   4  -2   3 19301.6 770.459  11
   4  -2   4 33197.6 1008.94  11
   4   2   4 30527.7 889.988  11
   4   2   5 77820.3 1549.43  11
   4  -2   5 81990.6 1641.93  11
   4   2   6 152.380 96.7177  11
   4  -2   6 485.145 149.410  11
   4   2   7 58567.5 1530.16  11
   4  -2   7 59527.1 1550.74  11
   4   2   8 10762.3 700.040  11
   4   2   9 39484.2 1380.06  11
   4  -2  10 6688.22 355.517   7
   4   2  10 7308.14 622.998  11
   4  -2  11 467.489 108.104   7
   4  -2  12 108.675 72.2985   7
   4  -2  13 617.636 129.829   7
   4  -2  14 4672.97 319.324   7
   4  -2  15 24362.9 708.693   7
   4  -2  16 482.354 117.586   7
   4  -2  17 10414.5 414.590   9
   4  -2  17 10411.4 418.529   7
   4  -2  18 5249.48 271.626   9
   4  -2  19 2108.59 150.794   9
  -4  -3  22 178.270 51.9258   9
   4  -3 -21 17833.9 428.100   8
  -4  -3  21 20058.0 498.254   9
  -4  -3  20 40361.0 798.630   9
   4  -3 -20 37731.8 743.363   8
  -4  -3  19 22213.1 643.485   9
   4  -3 -19 21395.2 622.328   8
   4  -3 -19 22902.1 556.312  10
  -4  -3  18 10708.0 476.007   9
   4  -3 -18 10703.7 475.138   8
   4  -3 -18 11007.6 424.021  10
  -4  -3  17 32048.8 860.168   9
   4  -3 -17 31676.4 860.229   8
   4  -3 -17 31845.8 768.025  10
  -4  -3  16 12908.3 554.626   9
   4  -3 -16 12705.4 511.609  10
   4  -3 -16 14016.5 594.908   8
  -4  -3  15 1429.88 193.241   9
   4  -3 -15 1605.65 214.715   8
  -4  -3  14 14198.9 582.878   9
   4  -3 -14 15517.8 650.913   8
  -4  -3  13 3751.26 297.844   9
   4  -3 -13 4583.45 356.989   8
  -4  -3  12 51561.2 1074.02   9
   4  -3 -12 49034.8 1135.37   8
  -4   3  11 6685.53 491.296   1
  -4   3  10 4689.57 408.921   1
  -4   3   9 25852.6 901.089   1
  -4   3   8 7776.86 486.144   1
  -4   3   7 14720.8 655.405   1
  -4   3   6 101237. 1680.49   1
  -4   3   5 76453.0 1418.97   1
  -4   3   4 54758.6 1195.85   1
  -4   3   3 9761.20 504.722   1
   4   3  -2 4377.89 287.411  11
  -4   3   2 4881.51 358.963   1
   4   3  -1 552.875 104.524  11
  -4   3   1 507.502 128.161   1
   4   3   0 23813.6 725.675  11
   4   3   1 30407.8 846.736  11
   4   3   2 308329. 2744.74  11
   4   3   3 227.704 88.5228  11
   4   3   4 248.748 99.4036  11
   4   3   5 1896.88 264.869  11
   4   3   6 21244.5 913.898  11
   4   3   7 7949.53 594.490  11
   4  -3   8 19976.4 538.212   6
   4   3   8 19809.0 992.971  11
   4  -3   9 59474.8 1070.27   7
   4  -3   9 58721.2 924.087   6
   4   3   9 61625.1 1811.23  11
   4  -3  10 25216.4 720.283   7
   4  -3  11 475.162 113.892   7
   4  -3  12 2113.10 226.282   7
   4  -3  13 7332.95 413.422   7
   4  -3  14 28490.1 803.435   7
  -4  -3 -14 27950.8 663.345   5
   4  -3  15 123.595 83.9484   7
  -4  -3 -15 92.9647 57.6308   5
   4  -3  16 226.530 92.6785   7
   4  -3  16 274.657 93.3541   9
   4  -3  17 43.1115 54.5112   9
   4  -3  18 7943.21 313.372   9
  -4  -4  21 119.614 42.6594   9
  -4  -4  20 1105.20 120.368   9
   4  -4 -20 1086.18 103.064  10
   4  -4 -19 18654.2 518.358   8
  -4  -4  19 19452.8 540.111   9
   4  -4 -19 20417.3 491.850  10
  -4  -4  18 4441.39 285.614   9
   4  -4 -18 4014.15 257.660   8
   4  -4 -18 4149.61 253.794  10
  -4  -4  17-2.86364 61.2482   9
   4  -4 -17 57.9553 60.2473   8
   4  -4 -17 52.0505 51.6903  10
  -4  -4  16 36868.5 895.519   9
   4  -4 -16 35540.3 907.760   8
  -4  -4  15 3606.87 290.374   9
   4  -4 -15 3528.08 308.202   8
   4  -4 -15 3710.09 296.056  10
  -4  -4  14 62414.4 1207.91   9
   4  -4 -14 61700.9 1294.41   8
   4  -4 -14 61185.4 1218.52  10
   4  -4 -13 8706.22 496.331   8
  -4  -4  13 9295.33 468.461   9
   4  -4 -13 8834.93 479.258  10
  -4  -4  12 245.031 95.1301   9
   4  -4 -12 277.451 110.085   8
   4  -4 -12 384.915 113.809  10
  -4  -4  11 27188.5 774.500   9
   4  -4 -11 25985.1 829.882   8
   4  -4 -11 26411.2 827.568  10
   4  -4 -10 1803.37 220.659   8
  -4   4  10 2574.71 328.866   1
  -4   4   9 5491.37 463.276   1
  -4   4   8-230.563 98.2042   1
  -4  -4   8 878.486 168.779   2
  -4   4   7 12377.4 641.790   1
  -4  -4   7 10307.7 589.929   2
  -4   4   6 120738. 1989.63   1
  -4   4   5 6975.23 476.190   1
  -4   4   4 14919.5 696.527   1
  -4   4   3 43438.4 1148.14   1
  -4   4   2 192784. 2391.94   1
  -4   4   1 21985.2 804.426   1
  -4   4   0 7772.88 486.070   1
  -4   4  -1 354.007 112.715   1
  -4   4  -2 6732.05 466.785   1
   4   4   2 6621.97 444.098  11
   4   4   3 368.618 106.628  11
   4   4   4 25454.5 925.709  11
  -4  -4  -4 29146.0 911.092   2
   4   4   5 2778.76 336.449  11
  -4  -4  -5 2926.71 284.836   2
   4   4   6 122209. 2325.78  11
   4  -4   6 123156. 1360.51   6
   4   4   7 92947.2 2152.24  11
   4  -4   7 95070.3 1210.20   6
   4  -4   8 17001.1 511.335   6
   4  -4   8 16556.5 597.356   7
   4  -4   9 6903.65 396.887   7
   4  -4   9 6464.45 309.636   6
   4  -4  10 672.355 135.001   7
  -4  -4 -10 711.183 137.654   5
   4  -4  11 12577.1 554.103   7
  -4  -4 -11 12278.6 502.707   5
   4  -4  12 12312.2 550.113   7
  -4  -4 -12 12106.5 484.348   5
   4  -4  13 14789.6 592.262   7
  -4  -4 -13 13980.7 485.507   5
  -4  -4 -14 130.953 66.0027   5
   4  -4  14 141.443 94.5863   7
   4  -4  15 1514.97 173.644   9
  -4  -4 -15 1657.86 139.392   5
   4  -4  16 1225.27 147.833   9
   4  -4  17 8512.72 327.329   9
   4  -5 -19 31338.8 535.734  10
  -4  -5  19 28651.8 519.926   9
  -4  -5  18 3382.41 209.324   9
   4  -5 -18 3888.01 223.088  10
  -4  -5  17 21002.6 569.417   9
   4  -5 -17 22220.3 589.586  10
  -4  -5  16 79.7877 61.3750   9
   4  -5 -16 63.3739 68.6795  10
  -4  -5  15 875.549 134.085   9
   4  -5 -15 2075.82 216.168  10
   4  -5 -14 849.342 151.894  10
   4  -5 -13 18439.4 695.017  10
   4  -5 -12 14.1397 73.8250  10
   4  -5 -11 1796.16 232.646  10
   4  -5 -10 42419.2 1089.89  10
   4  -5  -9 171630. 2189.25  10
   4  -5  -8 3383.57 313.160  10
  -4  -5   7 124.787 85.9019   2
   4  -5  -7 360.823 119.079  10
  -4  -5   6 13361.6 755.911   2
   4  -5  -6 13132.5 602.244  10
  -4  -5   5 2095.95 305.763   2
   4  -5  -5 2293.74 251.997  10
  -4  -5   4 22842.9 969.466   2
  -4  -5   3 78359.7 1813.35   2
  -4  -5   2 15210.1 808.794   2
  -4  -5   1 22997.6 971.193   2
  -4  -5   0 2720.57 321.875   2
  -4  -5  -1 58951.6 1496.09   2
  -4  -5  -2 51071.0 1077.30   5
  -4  -5  -2 51505.6 1387.37   2
  -4  -5  -3 16657.0 631.487   5
  -4  -5  -3 16256.1 770.932   2
   4  -5   4 3403.00 245.026   6
  -4  -5  -4 3153.49 278.057   5
  -4  -5  -4 2700.51 304.849   2
  -4  -5  -4 3802.15 322.212   4
   4  -5   5 21004.9 592.878   6
  -4  -5  -5 23974.4 764.647   5
  -4  -5  -6 17906.8 671.694   5
   4  -5   6 16426.2 515.389   6
  -4  -5  -7 43235.4 1026.86   5
   4  -5   7 38649.4 784.705   6
  -4  -5  -8 18870.9 666.176   5
   4  -5   8 17946.2 518.015   6
  -4  -5  -9 3034.54 269.218   5
   4  -5   9 2703.96 198.077   6
  -4  -5 -10 12781.2 522.487   5
  -4  -5 -11 53226.7 1012.94   5
   4  -5  12 24439.3 702.405   9
  -4  -5 -12 24166.8 639.655   5
   4  -5  13 11926.9 470.904   9
  -4  -5 -13 11976.2 411.264   5
   4  -5  14 155.508 70.7340   9
  -4  -5 -14 57.0032 41.3336   5
   4  -5  15 7419.62 319.912   9
  -4  -5 -15 8271.69 251.177   5
   4  -6 -18 6057.66 222.124  10
   4  -6 -17 1256.90 124.644  10
   4  -6 -16 4539.77 260.135  10
   4  -6 -15 21813.6 623.672  10
   4  -6 -14 502.045 116.836  10
   4  -6 -13 49054.1 1074.36  10
   4  -6 -12 14307.2 612.427  10
   4  -6 -11 7183.47 450.747  10
   4  -6 -10 884.271 174.791  10
   4  -6  -9 2556.35 282.857  10
   4  -6  -8 14229.0 656.448  10
   4  -6  -7 7569.79 483.866  10
   4  -6  -6 8207.45 366.726   5
   4  -6  -6 7723.71 482.603  10
   4  -6  -5 61855.1 1340.96  10
   4  -6  -5 59723.9 1012.69   5
   4  -6  -4 28125.4 704.090   5
   4  -6  -4 29423.3 908.195  10
   4  -6  -3 99573.4 1636.92  10
   4  -6  -3 96905.9 1337.78   5
  -4  -6   2 32811.0 808.141   5
   4  -6  -2 32946.3 924.275  10
   4  -6  -1 1981.13 232.540  10
  -4  -6   1 1810.52 202.870   5
  -4  -6   1 1700.85 248.204   4
  -4  -6   0 13120.7 546.379   5
   4  -6   0 11946.8 522.413  10
  -4  -6   0 12920.7 607.178   4
  -4  -6  -1 66603.9 1302.39   4
  -4  -6  -1 64696.9 1239.34   5
  -4  -6  -2 11950.3 553.349   4
  -4  -6  -2 11813.2 541.704   5
   4  -6   3 3799.19 267.627   6
  -4  -6  -3 4100.21 326.170   5
  -4  -6  -3 3553.67 340.005   4
   4  -6   4 9130.76 403.856   6
  -4  -6  -4 8952.70 481.724   5
  -4  -6  -4 9825.93 501.145   4
   4  -6   5 10659.4 421.501   6
  -4  -6  -5 10881.9 530.787   5
  -4  -6  -6 16070.5 639.966   5
   4  -6   6 15517.0 494.728   6
  -4  -6  -7 46233.9 1050.27   5
   4  -6   7 45974.2 822.049   6
   4  -6   8 433.331 83.2814   6
  -4  -6  -8 377.948 111.676   5
  -4  -6  -9 1061.97 156.339   5
  -4  -6 -10 424.299 106.883   5
  -4  -6 -11 5899.89 304.826   5
  -4  -6 -12 14251.7 430.284   5
  -4  -6 -13 977.549 104.916   5
   4  -7 -16 1591.01 115.815  10
   4  -7 -15 8156.88 302.199  10
   4  -7 -14 4931.63 266.437  10
   4  -7 -13 403.150 94.2902  10
   4  -7 -12 7340.74 385.122  10
   4  -7 -11 4897.16 333.750  10
   4  -7 -10 20932.4 712.739  10
   4  -7  -9 26402.4 820.527  10
   4  -7  -8 90638.2 1553.04  10
   4  -7  -7 2463.58 266.805  10
   4  -7  -6 25228.1 832.344  10
   4  -7  -5 7144.10 442.133  10
   4  -7  -4 17766.0 689.768  10
   4  -7  -3 338.475 118.640  10
  -4  -7   3 223.070 79.6462   5
  -4  -7   3 60.4986 256.044   4
   4  -7  -2 667.466 138.410  10
  -4  -7   2 744.347 132.843   5
  -4  -7   2 360.356 230.083   4
   4  -7  -1 7407.18 413.529  10
  -4  -7   1 7098.18 385.554   5
  -4  -7   1 6392.28 465.690   4
  -4  -7   0 55592.3 1093.57   5
  -4  -7   0 56398.6 1222.46   4
  -4  -7  -1 14062.3 601.142   4
  -4  -7  -1 13613.7 560.833   5
   4  -7   2 36897.1 810.904   6
  -4  -7  -2 35821.0 923.167   5
  -4  -7  -2 35070.6 928.242   4
  -4  -7  -3 398.517 119.320   5
   4  -7   3 422.872 93.4498   6
  -4  -7  -3 500.333 210.375   4
   4  -7   4 3095.46 220.019   6
  -4  -7  -4 3254.08 287.952   5
  -4  -7  -5 31969.6 865.552   5
   4  -7   5 30383.4 652.234   6
   4  -7   6 83.1328 50.6202   6
  -4  -7  -6 53.7407 72.8696   5
  -4  -7  -7 3469.10 272.859   5
  -4  -7  -8 11323.0 455.192   5
  -4  -7  -9 7844.29 352.723   5
  -4  -7 -10 11640.1 390.347   5
  -4  -7 -11 563.408 83.8145   5
  -4  -7 -12 1065.94 91.3618   5
   4  -8 -12 19034.3 440.921  10
   4  -8 -11 389.086 78.6761  10
   4  -8 -10 215.461 71.1112  10
   4  -8  -9 815.915 121.624  10
   4  -8  -8 12829.5 471.084  10
   4  -8  -7 2889.63 232.901  10
  -4  -8   7 2561.77 293.638   4
   4  -8  -6 24073.2 667.800  10
  -4  -8   6 24281.7 782.981   4
   4  -8  -5 1370.24 166.118  10
  -4  -8   5 1355.13 221.400   4
  -4  -8   4 9759.47 507.777   4
   4  -8  -4 10068.3 430.133  10
  -4  -8   3 599.299 95.6155   5
  -4  -8   3 85.4152 178.228   4
  -4  -8   2 11501.5 519.493   4
  -4  -8   2 11529.1 410.644   5
  -4  -8   1 43.4112 58.1677   5
  -4  -8   1 82.3777 163.612   4
  -4  -8   0 181.803 164.181   4
   4  -8   0-10.7735 56.5587   6
  -4  -8   0 89.8015 58.5983   5
   4  -8   1 3186.54 209.780   6
  -4  -8  -1 2956.04 230.431   5
  -4  -8  -1 2729.92 290.565   4
  -4  -8  -2 931.617 138.807   5
   4  -8   2 1019.23 115.836   6
  -4  -8  -3 15840.1 528.114   5
  -4  -8  -4 23430.5 635.043   5
  -4  -8  -5 5852.22 315.827   5
  -4  -8  -6 7722.77 342.164   5
  -4  -8  -7 20455.0 511.231   5
  -4  -8  -8 205.998 62.9518   5
  -4  -8  -9 1763.67 123.684   5
  -4  -9   7 829.481 124.325   4
  -4  -9   6 441.409 125.279   4
  -4  -9   5 3966.96 240.250   4
  -4  -9   4 4113.63 249.930   4
  -4  -9   1 16602.3 351.289   5
  -4  -9   0 1103.00 100.089   5
  -4  -9  -1 10615.1 303.030   5
  -4  -9  -2 2804.30 157.853   5
  -4  -9  -3 28592.1 490.479   5
  -4  -9  -4 24.7816 37.6439   5
  -5   0  22 108.567 48.3201   9
   5   0 -22 47.3474 37.0699   8
  -5   0  21 9598.21 365.736   9
   5   0 -21 9189.79 332.756   8
  -5   0  20-5.52046 53.5036   9
  -5   0  19 43277.4 931.163   9
  -5   0  18 76.2605 72.4232   9
  -5   0  17 145039. 1866.05   9
  -5   0  16 662.592 145.233   9
  -5   0  15 52055.6 1147.59   9
  -5   0  14 316.356 146.615   1
  -5   0  14 650.880 141.265   9
  -5   0  13 72692.4 1323.17   9
  -5   0  13 72840.5 1557.56   1
  -5   0  12 178.966 121.098   1
  -5   0  11 14258.4 630.594   1
  -5   0  10 207.967 95.1110   1
  -5   0   9 148459. 1885.14   1
  -5   0   8-7.84393 57.1143   1
  -5   0   7 280084. 2442.75   1
  -5   0   6 13.3126 61.0372   1
  -5   0   5 132507. 1674.94   1
  -5   0   4 202.899 91.5523   1
   5   0  -3 194514. 2267.64  11
   5   0  -2-31.0617 88.9508  11
   5   0  -1 70729.2 1368.62  11
   5   0   0 19.4176 77.0558  11
   5   0   1 3304.03 311.252  11
   5   0   2 461.440 138.332  11
   5   0   3 91174.7 1708.61  11
   5   0   4 57.0982 72.6589  11
   5   0   5 93951.2 1826.75  11
   5   0   6 1015.68 221.046  11
   5   0   7-324.450 144.632  11
   5   0   8 221.903 142.701  11
   5   0   9 100395. 1335.14   7
   5   0   9 88247.1 2199.76  11
   5   0  10 45.4534 80.8571   7
   5   0  11 372081. 2572.46   7
   5   0  12 81.4578 75.8283   7
   5   0  13 43429.2 865.182   7
   5   0  14 60.1281 56.6290   7
   5   0  15 21301.2 579.141   7
   5   0  16 183.635 73.7872   7
   5   0  17 2926.16 194.120   9
   5   0  17 2950.39 194.955   7
   5  -1 -22 11788.6 319.394   8
   5   1 -22 11792.4 309.198   8
   5  -1 -21 17756.8 464.936   8
  -5  -1  21 19565.2 533.950   9
  -5  -1  20 8369.16 386.759   9
   5  -1 -20 7885.86 348.135   8
  -5  -1  19 6973.08 380.754   9
  -5   1  19 7263.22 361.745   9
   5  -1 -19 6904.86 348.839   8
  -5   1  18 3372.14 269.290   9
  -5  -1  18 2935.53 265.163   9
  -5   1  17 630.459 138.354   9
  -5  -1  17 497.751 129.992   9
  -5  -1  16 54939.7 1171.61   9
  -5   1  16 56592.5 1142.23   9
  -5   1  15 70669.6 1293.16   9
  -5  -1  15 72137.3 1348.86   9
  -5   1  14 17896.7 650.505   9
  -5  -1  14 16783.6 647.651   9
  -5   1  13 96023.6 1499.95   9
  -5  -1  13 97120.9 1544.66   9
  -5   1  13 101118. 1902.80   1
  -5   1  12 6032.14 452.613   1
  -5   1  11 66393.1 1403.44   1
  -5  -1  11 69989.8 1368.44   1
  -5   1  10 120254. 1821.63   1
  -5  -1  10 120665. 1695.08   1
  -5   1   9 22554.6 777.596   1
  -5  -1   9 22340.1 696.418   1
  -5   1   8 90158.5 1512.58   1
  -5  -1   8 91816.7 1378.37   1
  -5   1   7 9992.84 488.382   1
  -5  -1   7 10291.1 451.834   1
  -5   1   6 45168.4 1036.31   1
  -5  -1   6 49454.4 981.259   1
  -5  -1   5 125675. 1530.89   1
  -5   1   5 125193. 1728.51   1
  -5  -1   4 9902.42 438.725   1
  -5   1   4 9679.95 482.851   1
  -5   1   3 11506.2 544.364   1
   5   1  -3 9692.97 490.120  11
   5   1  -2 109196. 1629.86  11
   5  -1  -1 183386. 2333.81  11
   5   1  -1 177348. 2119.21  11
   5   1   0 216261. 2386.41  11
   5  -1   0 227879. 2709.63  11
   5   1   1 123346. 1839.52  11
   5  -1   1 124109. 1962.22  11
   5  -1   2 17986.1 756.983  11
   5   1   2 15348.6 642.548  11
   5   1   3 5738.65 424.781  11
   5  -1   3 5949.20 459.333  11
   5  -1   4 703.422 195.806  11
   5   1   4 789.503 173.160  11
   5  -1   5 2851.24 349.028  11
   5   1   5 2524.71 328.424  11
   5   1   6 46751.8 1443.85  11
   5  -1   6 44441.2 1411.61  11
   5  -1   7 15180.0 873.390  11
   5   1   7 15849.0 893.933  11
   5  -1   8 987.553 256.916  11
   5   1   8 1056.33 302.844  11
   5  -1   9 137286. 1600.92   7
   5   1   9 133173. 1522.41   7
   5   1   9 140030. 2888.73  11
   5  -1  10 161692. 1742.03   7
   5   1  10 161045. 1667.28   7
   5  -1  11 20479.8 625.035   7
   5   1  11 20216.4 589.914   7
   5  -1  12 7701.86 380.088   7
   5   1  12 7479.07 354.477   7
   5   1  13 504.901 102.830   7
   5  -1  13 656.820 124.268   7
   5  -1  14 14870.1 517.234   7
   5   1  14 14260.2 470.205   7
   5  -1  15 15163.4 506.146   7
   5   1  15 14521.4 458.832   7
   5  -1  16 7730.54 350.031   7
   5   1  16 7383.46 311.821   7
   5  -1  17 13536.4 421.080   9
   5   1  17 13183.1 372.860   7
   5  -1  17 13577.3 426.934   7
   5  -1  18 1221.19 118.938   9
  -5  -2  22 12123.8 352.753   9
  -5  -2  21 303.832 77.5208   9
   5  -2 -21 192.597 55.1854   8
  -5  -2  20 1156.53 149.290   9
   5  -2 -20 1234.10 137.640   8
  -5  -2  19 4912.06 314.860   9
   5  -2 -19 4340.58 275.914   8
  -5  -2  18 17689.6 620.545   9
   5  -2 -18 16218.0 568.742   8
  -5  -2  17 962.644 164.858   9
   5  -2 -17 1127.17 164.759   8
  -5  -2  16 18050.4 662.191   9
   5  -2 -16 16935.7 618.878   8
  -5  -2  15 1521.10 202.870   9
   5  -2 -15 1741.12 209.585   8
  -5  -2  14 18300.7 668.448   9
   5  -2 -14 17113.3 632.447   8
  -5  -2  13 10845.1 514.972   9
  -5   2  13 12231.9 695.341   1
  -5  -2  12 7022.33 402.485   9
  -5   2  12 7221.50 516.531   1
  -5   2  11 20350.5 823.681   1
  -5   2  10 15888.6 707.367   1
  -5   2   9 243.396 111.083   1
  -5   2   8 502.570 129.314   1
  -5   2   7 65109.7 1366.98   1
  -5   2   6 242340. 2614.93   1
  -5   2   5 171852. 2119.95   1
   5   2  -4 7831.36 423.223  11
  -5   2   4 8314.03 478.886   1
  -5  -2   4 8003.09 369.509   1
   5   2  -3 12028.8 561.552  11
  -5   2   3 12733.3 595.857   1
  -5  -2   3 11686.4 458.978   1
  -5   2   2 76154.1 1470.49   1
   5   2  -2 70121.1 1308.03  11
   5   2  -1 50214.4 1146.39  11
   5   2   0 43698.8 1084.18  11
   5   2   1 59838.8 1261.71  11
   5  -2   1 67880.2 1540.97  11
   5   2   2 130315. 1992.46  11
   5  -2   2 136272. 2211.87  11
   5   2   3 20072.5 825.346  11
   5  -2   3 20927.8 906.804  11
   5   2   4 94957.3 1863.38  11
   5  -2   4 101275. 2139.03  11
   5   2   5 9010.37 604.030  11
   5  -2   5 9528.16 643.873  11
   5  -2   6 26183.3 1107.49  11
   5   2   6 28171.7 1123.71  11
   5  -2   7 60877.1 1740.65  11
   5   2   7 60207.5 1739.12  11
   5  -2   8 4673.40 303.324   7
   5   2   8 4116.74 266.867   7
   5  -2   9 2610.37 231.891   7
   5   2   9 2349.45 205.705   7
   5  -2  10 20615.8 636.821   7
   5   2  10 20160.4 578.934   7
   5  -2  11 222.684 88.6478   7
   5   2  11 378.635 94.4189   7
   5  -2  12 20309.9 635.495   7
   5   2  12 19170.5 540.157   7
   5  -2  13 10870.4 465.302   7
   5   2  13 9704.75 373.268   7
   5  -2  14 13695.6 514.792   7
   5  -2  15 461.534 105.225   7
   5  -2  16 4779.36 278.727   7
  -5  -2 -16 4556.94 211.206   5
   5  -2  17 978.059 121.368   9
   5  -2  17 934.701 121.014   7
   5  -2  18 14065.4 367.837   9
  -5  -3  21 16358.7 435.909   9
  -5  -3  20 17402.1 501.674   9
   5  -3 -20 14228.5 392.673   8
  -5  -3  19 1343.89 158.686   9
   5  -3 -19 1302.45 145.263   8
  -5  -3  18 17015.7 573.916   9
   5  -3 -18 16591.7 549.125   8
  -5  -3  17 58.7844 75.9650   9
   5  -3 -17 223.208 82.9381   8
   5  -3 -17 66.1439 55.9370  10
  -5  -3  16 1864.44 213.471   9
   5  -3 -16 1402.90 165.422  10
   5  -3 -16 1467.31 188.096   8
  -5  -3  15 18294.9 653.585   9
   5  -3 -15 17864.2 657.697   8
   5  -3 -15 18420.7 610.658  10
  -5  -3  14 5574.00 369.160   9
   5  -3 -14 4924.16 356.604   8
   5  -3 -14 5316.52 339.973  10
  -5  -3  13 18923.8 664.937   9
   5  -3 -13 17692.9 672.388   8
   5  -3 -13 18377.2 640.305  10
  -5  -3  12 6785.13 394.110   9
   5  -3 -12 6661.98 407.128   8
   5  -3 -12 7130.79 406.373  10
  -5  -3  11 1825.49 201.974   9
  -5   3  11 1515.91 249.136   1
   5  -3 -11 1431.32 187.106  10
  -5   3  10 1137.28 193.060   1
  -5   3   9 27396.1 962.921   1
  -5   3   8 3740.61 356.583   1
  -5   3   7 22411.5 856.990   1
  -5   3   6 11033.6 601.644   1
  -5   3   5 1563.37 234.797   1
  -5   3   4 15202.6 676.977   1
  -5   3   3 42625.9 1153.75   1
   5   3  -2 134103. 1827.13  11
  -5   3   2 139806. 2079.26   1
   5   3  -1 2814.24 277.271  11
  -5   3   1 3138.49 328.884   1
   5   3   0 18418.2 725.391  11
   5   3   1 78783.9 1511.73  11
   5   3   2 23141.3 889.617  11
   5   3   3 157280. 2407.83  11
   5   3   4 12488.4 705.552  11
   5   3   5 2866.07 351.334  11
   5  -3   6 5448.65 301.392   6
   5   3   6 5195.05 501.896  11
   5  -3   7 8438.08 399.452   7
   5   3   7 8861.09 694.393  11
   5  -3   7 8131.67 365.170   6
   5  -3   8 10793.6 463.038   7
   5  -3   8 11556.5 432.191   6
   5  -3   9 17319.7 597.032   7
   5  -3  10 23916.9 704.167   7
   5  -3  11 53946.1 1080.25   7
   5  -3  12 1922.91 212.147   7
   5  -3  13 1263.95 173.283   7
  -5  -3 -14 40.8605 55.0335   5
   5  -3  14 20.7798 64.8717   7
   5  -3  15 6148.44 336.575   7
  -5  -3 -15 6338.50 269.621   5
   5  -3  16 416.690 90.8010   9
  -5  -3 -16 282.842 56.7574   5
   5  -3  16 291.013 87.6463   7
   5  -3  17 6060.89 263.568   9
  -5  -4  20 5978.74 257.848   9
  -5  -4  19 59800.7 905.588   9
   5  -4 -19 61286.2 774.896  10
  -5  -4  18 26580.4 660.674   9
   5  -4 -18 28529.7 610.808  10
   5  -4 -17 1911.52 185.571   8
   5  -4 -17 1885.20 176.985  10
  -5  -4  16 160.562 72.8969   9
   5  -4 -16 217.011 84.1826   8
   5  -4 -16 132.065 67.8035  10
  -5  -4  15 29129.0 781.530   9
   5  -4 -15 29242.6 774.062  10
  -5  -4  14 27276.9 777.660   9
   5  -4 -14 27518.5 783.304  10
  -5  -4  13 72772.3 1274.24   9
   5  -4 -13 68675.3 1291.27  10
  -5  -4  12 583.891 126.961   9
   5  -4 -12 504.981 116.786   8
   5  -4 -12 348.600 103.127  10
  -5  -4  11 23330.7 705.990   9
   5  -4 -11 20986.3 718.672   8
   5  -4 -11 22795.7 756.589  10
   5  -4 -10 6576.38 411.557  10
  -5   4   9 36351.1 1184.24   1
   5  -4  -9 33892.6 925.219  10
  -5   4   8 4531.88 411.588   1
   5  -4  -8 3246.53 290.171  10
  -5   4   7 3174.45 350.287   1
  -5   4   6 37772.1 1176.32   1
  -5   4   5 93286.2 1819.95   1
  -5   4   4 39791.8 1162.80   1
  -5   4   3 11559.2 635.358   1
  -5   4   2 4938.50 413.128   1
  -5   4   1 3586.08 354.557   1
  -5   4   0 7820.15 512.582   1
  -5   4  -1 126892. 2147.28   1
  -5   4  -2 63333.8 1568.00   1
   5   4   3 9420.95 625.995  11
   5  -4   4 23964.1 647.846   6
   5   4   4 20840.4 968.007  11
   5  -4   5 20720.0 595.607   6
   5   4   5 18332.3 946.150  11
   5  -4   6-12.5971 57.2048   6
   5  -4   7 64458.8 1047.64   6
   5  -4   8 8728.25 380.849   6
   5  -4   8 9143.51 439.177   7
   5  -4   9 370.131 88.4801   6
   5  -4   9 445.034 114.195   7
  -5  -4 -10 325.064 104.228   5
   5  -4  10 277.416 98.5963   7
   5  -4  11 23749.7 738.327   7
  -5  -4 -11 24472.0 702.445   5
   5  -4  12 3861.62 296.363   7
  -5  -4 -12 4273.51 281.546   5
  -5  -4 -13 544.579 97.5028   5
   5  -4  13 498.077 119.402   7
   5  -4  14 1002.84 145.735   7
  -5  -4 -14 1020.06 116.865   5
   5  -4  15 9731.26 374.951   9
  -5  -4 -15 10015.4 295.883   5
   5  -4  16 223.119 64.3223   9
  -5  -5  18 24624.8 517.666   9
   5  -5 -18 27087.5 533.411  10
  -5  -5  17 6863.38 308.775   9
   5  -5 -17 6504.53 300.474  10
  -5  -5  16 1256.65 146.462   9
   5  -5 -16 1285.50 151.137  10
  -5  -5  15 388.039 96.6572   9
   5  -5 -15 193.095 75.5125  10
   5  -5 -14 25955.1 763.735  10
   5  -5 -13 1015.26 167.887  10
   5  -5 -12 1374.25 203.614  10
   5  -5 -11 7701.24 465.367  10
   5  -5 -10 1085.42 194.352  10
   5  -5  -9 115257. 1833.40  10
   5  -5  -8 146833. 2051.26  10
   5  -5  -7 3312.37 313.474  10
   5  -5  -6 19571.6 743.602  10
   5  -5  -5 2811.95 286.704  10
   5  -5  -4 5304.84 379.112  10
   5  -5  -3 45019.3 1077.86  10
   5  -5  -2 22987.0 750.995  10
   5  -5  -1 26395.3 779.066  10
  -5  -5   1 26452.9 752.206   3
  -5  -5   1 25004.8 688.764   5
  -5  -5   0 37817.0 887.793   3
  -5  -5   0 34895.7 854.506   5
   5  -5   0 35337.2 879.551  10
  -5  -5   0 39398.2 997.776   4
  -5  -5  -1 96008.5 1457.41   5
  -5  -5  -1 95353.5 1530.07   4
  -5  -5  -2 223663. 2278.96   5
  -5  -5  -2 235612. 2305.30   4
   5  -5   3 43583.4 918.599   6
  -5  -5  -3 45527.1 1050.12   5
  -5  -5  -3 46636.5 1059.53   4
   5  -5   4 1612.10 181.420   6
  -5  -5  -4 2135.29 239.222   5
   5  -5   5 20624.0 607.109   6
  -5  -5  -5 24040.4 793.847   5
  -5  -5  -6 2922.11 287.203   5
   5  -5   6 2925.03 231.437   6
  -5  -5  -7 4559.48 344.442   5
   5  -5   7 4084.52 262.325   6
  -5  -5  -8 39004.5 959.101   5
   5  -5   8 33979.2 722.411   6
  -5  -5  -9 1429.43 186.939   5
  -5  -5 -10 3907.94 286.243   5
  -5  -5 -11 150.975 74.8666   5
   5  -5  12 8792.76 387.628   9
  -5  -5 -12 9284.74 374.447   5
   5  -5  13 4617.74 263.924   9
  -5  -5 -13 4925.39 242.258   5
   5  -5  14 559.012 89.2830   9
  -5  -5 -14 712.682 83.3098   5
   5  -6 -17 9674.80 300.243  10
   5  -6 -16 16094.8 447.926  10
   5  -6 -15 16029.8 498.920  10
   5  -6 -14 20460.4 616.041  10
   5  -6 -13 1237.23 171.563  10
   5  -6 -12 24071.3 764.014  10
   5  -6 -11 3572.18 312.852  10
   5  -6 -10 10130.3 528.731  10
   5  -6  -9 22828.6 811.464  10
   5  -6  -8 23105.1 827.375  10
   5  -6  -7 8373.01 501.938  10
   5  -6  -6 26621.5 889.565  10
   5  -6  -5 3215.30 311.404  10
   5  -6  -4 52540.2 1220.49  10
   5  -6  -3 823.147 157.400  10
   5  -6  -2 27667.5 845.154  10
  -5  -6   2 28034.1 732.994   5
  -5  -6   2 28154.1 897.312   4
  -5  -6   1 803.656 193.330   4
   5  -6  -1 571.003 127.291  10
  -5  -6   1 846.474 141.485   5
  -5  -6   0 4942.59 333.371   5
  -5  -6   0 4530.69 366.290   4
  -5  -6  -1 58464.1 1214.52   4
  -5  -6  -1 58259.1 1151.14   5
  -5  -6  -2 57955.7 1168.88   5
  -5  -6  -2 56034.2 1193.26   4
   5  -6   3 712.546 131.168   6
  -5  -6  -3 743.875 149.742   5
  -5  -6  -3 968.974 240.292   4
   5  -6   4 1183.55 153.158   6
  -5  -6  -4 1059.69 178.614   5
  -5  -6  -5 36636.9 955.542   5
   5  -6   5 35127.7 768.040   6
  -5  -6  -6 33161.9 903.347   5
   5  -6   6 30908.9 700.731   6
  -5  -6  -7 46363.9 1033.81   5
   5  -6   7 42270.2 776.042   6
  -5  -6  -8 1695.89 194.701   5
   5  -6   8 1724.35 152.111   6
  -5  -6  -9 15044.1 526.577   5
  -5  -6 -10 2135.79 191.297   5
  -5  -6 -11 308.523 76.4713   5
  -5  -6 -12 2599.94 168.709   5
  -5  -6 -13 410.482 61.2336   5
   5  -7 -15 1429.04 116.498  10
   5  -7 -14 384.892 77.1744  10
   5  -7 -13 17634.2 511.958  10
   5  -7 -12 7357.74 361.524  10
   5  -7 -11 7414.07 384.826  10
   5  -7 -10 452.722 112.041  10
   5  -7  -9 11211.0 511.636  10
   5  -7  -8 14773.2 599.204  10
   5  -7  -7 2518.76 259.219  10
   5  -7  -6 20.2924 77.5535  10
   5  -7  -5 9.64886 70.6167  10
   5  -7  -4 9770.64 487.969  10
  -5  -7   4 9729.12 548.713   4
   5  -7  -3 26138.3 786.249  10
  -5  -7   3 26482.9 894.256   4
  -5  -7   2 20268.0 587.408   5
  -5  -7   2 17503.4 705.295   4
  -5  -7   1 15553.3 533.033   5
  -5  -7   1 15106.7 622.672   4
  -5  -7   0 282.133 99.1190   5
  -5  -7   0 227.506 165.626   4
   5  -7   1 32930.2 781.741   6
  -5  -7  -1 31491.2 798.464   5
  -5  -7  -1 30833.3 842.156   4
   5  -7   2 33801.5 769.953   6
  -5  -7  -2 32705.6 831.379   5
  -5  -7  -2 33053.7 862.808   4
   5  -7   3 2055.23 186.316   6
  -5  -7  -3 1947.32 212.353   5
  -5  -7  -4 23801.1 713.145   5
   5  -7   4 23262.3 586.108   6
  -5  -7  -5 13340.2 527.766   5
   5  -7   5 12421.0 406.582   6
  -5  -7  -6 14934.6 542.868   5
   5  -7   6 14237.3 404.886   6
  -5  -7  -7 8719.25 394.814   5
  -5  -7  -8 5552.43 296.458   5
  -5  -7  -9 26964.2 586.846   5
  -5  -7 -10 25157.3 500.610   5
  -5  -7 -11 2823.84 143.372   5
   5  -8 -12 15313.7 345.124  10
  -5  -8  12 13687.5 399.175   4
   5  -8 -11 7208.23 270.113  10
  -5  -8  11 6488.79 323.626   4
   5  -8 -10 15743.8 436.273  10
  -5  -8  10 14195.3 492.953   4
   5  -8  -9 1707.93 153.916  10
  -5  -8   9 1562.46 192.393   4
   5  -8  -8 314.724 79.6059  10
  -5  -8   8 132.312 165.044   4
   5  -8  -7 310.017 81.7375  10
  -5  -8   7 400.909 173.627   4
   5  -8  -6 51893.2 906.442  10
  -5  -8   6 52679.1 1045.60   4
  -5  -8   5 15398.8 575.530   4
  -5  -8   4 297.946 155.835   4
  -5  -8   3 19760.8 632.945   4
  -5  -8   2 1171.43 190.231   4
   5  -8  -1 7003.75 318.427   6
  -5  -8   1 6539.78 290.391   5
  -5  -8   1 6913.92 375.207   4
   5  -8   0 3981.55 234.018   6
  -5  -8   0 3538.16 221.008   5
   5  -8   1 1847.55 153.480   6
  -5  -8  -1 1751.02 161.149   5
  -5  -8  -2 3808.52 234.110   5
   5  -8   2 3919.31 212.135   6
  -5  -8  -3 12909.0 427.471   5
   5  -8   3 13763.1 366.695   6
  -5  -8  -4 179.516 67.5511   5
  -5  -8  -5 41360.2 723.172   5
  -5  -8  -6 2309.94 164.099   5
  -5  -8  -7 9729.49 298.416   5
  -6   0  21 17.0673 43.0323   9
  -6   0  20 800.465 122.356   9
  -6   0  19 53.3983 63.3064   9
  -6   0  18 3642.70 284.703   9
  -6   0  17 125.100 91.3487   9
  -6   0  16 50148.8 1114.01   9
  -6   0  15 41.8178 83.1309   9
  -6   0  14 42035.7 1043.36   9
  -6   0  13 344.900 114.053   9
  -6   0  13 405.603 160.741   1
  -6   0  12 29432.2 852.250   9
  -6   0  12 29640.6 980.964   1
  -6   0  11 115.550 85.2035   1
  -6   0  10 295.775 95.8191   1
  -6   0   9 105.233 87.0997   1
  -6   0   8 192125. 2261.91   1
  -6   0   7 31.9305 72.8588   1
  -6   0   6 556444. 3762.52   1
  -6   0   5-21.3314 86.7418   1
  -6   0   4 160148. 2107.25   1
  -6   0   3 101.911 92.2877   1
   6   0  -2 148997. 2244.06  11
   6   0  -1 112.702 123.249  11
   6   0   0 183620. 2553.26  11
   6   0   1 585.120 171.792  11
   6   0   2 76261.2 1744.81  11
   6   0   3 89.2320 105.730  11
   6   0   4 5418.93 504.065  11
   6   0   5 60.7984 107.851  11
   6   0   6 559.614 205.714  11
   6   0   7-18.3873 153.055  11
   6   0   7 2.60836 64.6949   7
   6   0   8 32852.6 804.687   7
   6   0   9 48.7253 67.4772   7
   6   0  10 179426. 1853.94   7
   6   0  11 32.5589 61.3671   7
   6   0  12 128.658 73.7113   7
   6   0  13 20.8102 56.3091   7
   6   0  14 10179.2 388.548   7
   6   0  15-10.0852 55.8985   7
   6   0  16 9913.51 335.008   9
   6   0  16 9508.11 334.302   7
   6   0  17 15.1229 38.4561   7
  -6  -1  22 16706.5 391.902   9
  -6  -1  21 24548.6 569.603   9
  -6  -1  20 174.582 74.2674   9
  -6   1  19 14378.8 487.863   9
  -6  -1  19 13863.0 517.269   9
  -6   1  18 25.3728 57.0410   9
  -6  -1  18 151.204 86.3330   9
  -6   1  17 12543.1 528.535   9
  -6  -1  17 11149.1 509.687   9
  -6   1  16 2480.74 247.070   9
  -6  -1  16 2133.44 239.449   9
  -6   1  15 12669.1 561.942   9
  -6  -1  15 12048.0 552.347   9
  -6   1  14 141.005 95.2673   9
  -6  -1  14 252.527 99.3740   9
  -6   1  13 61998.7 1248.91   9
  -6  -1  13 60299.1 1223.44   9
  -6  -1  12 53021.4 1130.34   9
  -6   1  12 54310.0 1367.78   1
  -6   1  12 56093.4 1172.27   9
  -6   1  11 11333.9 601.509   1
  -6   1  10 10011.8 561.590   1
  -6  -1  10 9413.31 493.836   1
  -6   1   9 79893.0 1563.98   1
  -6  -1   9 78178.2 1403.09   1
  -6   1   8 47932.1 1206.79   1
  -6  -1   8 48905.3 1101.99   1
  -6   1   7 73612.8 1478.65   1
  -6  -1   7 74391.8 1332.36   1
  -6  -1   6 1090.31 168.995   1
  -6   1   6 987.135 177.142   1
  -6   1   5 83804.7 1570.02   1
  -6  -1   5 84518.9 1426.62   1
  -6  -1   4 11167.8 530.892   1
  -6   1   4 11333.1 583.260   1
  -6  -1   3 162986. 2065.03   1
  -6   1   3 166870. 2281.96   1
   6   1  -2 118920. 2067.74  11
   6   1  -1 33108.6 1057.67  11
   6  -1  -1 36341.6 1171.60  11
   6  -1   0 120.205 96.1189  11
   6   1   0 214.322 113.129  11
   6   1   1 64716.4 1539.84  11
   6  -1   1 70306.8 1738.02  11
   6   1   2 155.860 101.391  11
   6  -1   2 317.860 143.778  11
   6   1   3-14.9668 70.3850  11
   6  -1   3 98.1531 109.346  11
   6   1   4 18302.3 902.833  11
   6  -1   4 18514.0 932.111  11
   6   1   5 35689.6 1303.31  11
   6  -1   5 35581.2 1338.63  11
   6  -1   6 20417.2 639.605   7
   6   1   6 18911.5 982.506  11
   6  -1   6 19487.7 1034.10  11
   6  -1   7 13197.1 517.282   7
   6   1   7 13046.7 507.270   7
   6   1   7 13054.9 863.284  11
   6  -1   7 11847.7 856.349  11
   6  -1   8 218.859 93.8054   7
   6   1   8 130.901 72.3210   7
   6  -1   9 19132.6 622.739   7
   6   1   9 17971.9 585.128   7
   6  -1  10 77790.3 1228.00   7
   6   1  10 75325.7 1172.71   7
   6  -1  11 17206.9 571.211   7
   6   1  11 16186.0 524.515   7
   6  -1  12 718.298 125.931   7
   6   1  12 703.565 119.721   7
   6  -1  13 19606.7 578.587   7
   6   1  13 18226.3 518.536   7
   6  -1  14 14998.0 487.031   7
   6   1  14 14522.9 443.362   7
   6  -1  15 747.085 112.470   7
   6   1  15 669.429 96.7794   7
   6  -1  16 723.754 100.906   9
   6   1  16 785.706 97.6638   7
   6  -1  16 662.295 101.351   7
   6  -1  17 70.3117 39.4351   9
   6  -1  17 97.0328 45.8940   7
  -6  -2  22 1955.75 130.833   9
  -6  -2  21 471.244 88.3119   9
  -6  -2  20 21872.9 578.921   9
  -6  -2  19 9360.82 416.013   9
  -6  -2  18 3488.12 271.067   9
  -6  -2  17 19953.7 662.079   9
  -6  -2  16 6873.77 403.596   9
  -6  -2  15 7188.72 416.821   9
  -6  -2  14 73889.9 1341.42   9
  -6  -2  13 40912.8 986.576   9
  -6  -2  12 2921.36 267.465   9
  -6  -2  11 7506.96 414.059   9
  -6   2  11 8028.38 531.943   1
  -6   2  10 12359.3 652.030   1
  -6   2   9 17021.2 765.659   1
  -6   2   8 21061.7 836.188   1
  -6   2   7 8685.61 526.443   1
  -6   2   6 8256.08 522.937   1
  -6   2   5 401126. 3594.54   1
  -6   2   4 129986. 2081.44   1
   6   2  -3 43094.4 1168.80  11
  -6   2   3 49001.6 1294.84   1
  -6   2   2 224.811 111.523   1
   6   2  -2 1499.40 219.623  11
   6   2  -1 536.343 142.128  11
   6   2   0 19444.6 832.027  11
   6   2   1 8279.89 551.232  11
   6   2   2 4635.79 427.240  11
   6  -2   2 4698.09 468.443  11
   6   2   3 180665. 2699.13  11
   6  -2   3 193309. 3041.76  11
   6   2   4 3935.97 411.789  11
   6  -2   4 4099.64 470.975  11
   6   2   5 37463.6 1321.90  11
   6  -2   5 39627.0 1468.40  11
   6  -2   6 3753.13 281.337   7
   6   2   6 3189.17 406.711  11
   6   2   6 3458.90 261.451   7
   6  -2   6 3096.45 448.598  11
   6  -2   6 3607.70 256.977   6
   6  -2   7 13522.4 528.611   7
   6   2   7 12485.7 491.142   7
   6  -2   8 2168.72 217.726   7
   6   2   8 1859.69 193.269   7
   6  -2   9-21.8161 61.5472   7
   6   2   9 43.8171 55.6375   7
   6  -2  10 737.646 133.001   7
   6   2  10 568.048 109.149   7
   6  -2  11 146.141 85.1014   7
   6   2  11 60.7354 54.0492   7
   6  -2  12 8080.40 390.435   7
   6   2  12 6940.74 318.660   7
   6  -2  13 2957.15 236.265   7
   6   2  13 2492.25 182.468   7
   6  -2  14 19774.0 565.879   7
   6   2  14 18415.2 459.241   7
  -6  -2 -15 96.2878 52.1701   5
   6  -2  15 43.2862 58.3937   7
   6  -2  16 4824.59 241.158   9
   6  -2  16 4921.91 247.825   7
  -6  -2 -16 4250.33 168.566   5
  -6  -3  21 37513.9 597.594   9
  -6  -3  20 73845.3 975.008   9
  -6  -3  19 6578.15 321.095   9
  -6  -3  18 8967.16 404.231   9
  -6  -3  17 6976.51 373.894   9
  -6  -3  16 54877.9 1074.62   9
  -6  -3  15 290.315 103.212   9
  -6  -3  14 25296.4 764.008   9
  -6  -3  13 73708.8 1302.43   9
   6  -3 -13 75458.7 1250.61  10
  -6  -3  12 3756.84 299.628   9
   6  -3 -12 4024.88 296.374  10
  -6  -3  11 29305.7 807.668   9
   6  -3 -11 28599.9 798.646  10
  -6  -3  10 44487.9 992.728   9
   6  -3 -10 43281.5 991.068  10
  -6   3   9 355.239 129.286   1
  -6  -3   9 549.712 116.263   9
   6  -3  -9 669.217 130.606  10
  -6   3   8 10325.2 628.646   1
  -6   3   7 44379.4 1280.16   1
  -6   3   6 24516.6 929.033   1
  -6   3   5 64314.6 1524.03   1
  -6   3   4 9660.64 589.003   1
  -6   3   3 11042.3 650.745   1
  -6   3   2 21449.7 896.320   1
  -6   3   1 62248.1 1567.26   1
   6   3  -1 59644.5 1448.91  11
  -6   3   0 53134.8 1462.77   1
   6   3   0 49397.0 1357.33  11
   6   3   1-385.836 131.831  11
   6   3   2 32646.3 1159.33  11
   6   3   3 2125.52 301.067  11
   6   3   4 11494.8 480.885   7
   6   3   4 11491.2 721.553  11
   6  -3   5 7755.23 391.816   7
   6   3   5 6998.94 588.149  11
   6   3   5 7546.01 381.814   7
   6  -3   6 10104.0 449.133   7
   6   3   6 9415.23 424.364   7
   6  -3   6 10635.0 443.487   6
   6  -3   7 24919.0 709.142   7
   6   3   7 23269.3 653.233   7
   6  -3   7 25026.8 667.807   6
   6  -3   8 3636.66 278.523   7
   6   3   8 3406.58 244.313   7
   6  -3   8 3911.84 264.144   6
   6  -3   9 602.444 122.668   7
   6  -3  10 3468.79 271.007   7
   6  -3  11 3396.04 266.754   7
   6  -3  12 8231.70 397.763   7
   6  -3  13 6397.46 340.741   7
  -6  -3 -13 6433.87 311.445   5
   6  -3  14 7146.61 343.905   7
  -6  -3 -14 7093.85 291.251   5
   6  -3  15 3395.36 214.647   9
   6  -3  15 3227.91 214.831   7
  -6  -3 -15 3231.14 164.384   5
   6  -3  16 2183.31 151.778   9
  -6  -4  20 4060.15 188.988   9
  -6  -4  19 6304.97 274.648   9
  -6  -4  18 17057.9 497.024   9
  -6  -4  17 6275.68 325.345   9
   6  -4 -17 6867.02 299.851  10
  -6  -4  16 11388.4 461.714   9
   6  -4 -16 11879.7 433.926  10
  -6  -4  15 9917.58 447.289   9
   6  -4 -15 10240.3 433.249  10
  -6  -4  14 5963.44 361.451   9
   6  -4 -14 5421.79 338.717  10
  -6  -4  13 3969.10 299.919   9
   6  -4 -13 4145.45 310.749  10
  -6  -4  12 2904.36 259.829   9
   6  -4 -12 3159.53 281.728  10
  -6  -4  11 3172.04 267.675   9
   6  -4 -11 2798.90 265.930  10
  -6  -4  10 1400.03 187.503   9
   6  -4 -10 1221.35 180.649  10
   6  -4  -9 1749.98 220.404  10
   6  -4  -8 32223.0 913.269  10
  -6   4   7 39992.3 1266.72   1
   6  -4  -7 35905.3 962.386  10
  -6   4   6 61243.7 1569.49   1
   6  -4  -6 57508.7 1208.29  10
  -6   4   5 43306.3 1329.42   1
   6  -4  -5 39087.9 986.926  10
  -6   4   4 51106.2 1402.72   1
  -6  -4   4 49017.3 1064.41   3
   6  -4  -4 50004.9 1100.56  10
   6  -4  -3 848.793 150.582  10
  -6   4   3 1190.72 214.680   1
  -6  -4   2 1561.70 193.954   3
   6  -4  -2 1959.91 219.334  10
  -6   4   2 1235.11 221.154   1
  -6  -4   1 4343.99 319.338   3
   6  -4  -1 4428.97 314.233  10
  -6   4   1 3880.35 399.067   1
  -6  -4   0 248.098 94.7049   3
  -6   4   0 388.307 150.512   1
  -6  -4   0 272.720 159.561   4
  -6  -4  -1 12002.0 520.332   3
  -6  -4  -1 12077.2 527.645   4
  -6  -4  -1 10686.0 470.404   5
  -6   4  -1 9937.33 650.378   1
  -6  -4  -2 193826. 2032.57   5
  -6  -4  -2 198746. 2068.05   4
   6  -4   3 9513.49 434.623   6
   6  -4   4 44885.6 919.841   6
   6  -4   5 7416.75 376.042   6
   6  -4   6 9827.48 429.793   6
   6  -4   7 24125.5 652.396   6
   6  -4   8 6024.74 351.465   7
  -6  -4  -8 7271.86 416.270   5
   6  -4   8 6642.21 330.848   6
   6  -4   9 1004.72 151.643   7
  -6  -4  -9 974.698 160.480   5
   6  -4  10 236.548 84.9730   7
  -6  -4 -10 357.231 111.716   5
   6  -4  11 14169.7 527.545   7
  -6  -4 -11 14590.9 519.029   5
   6  -4  12 1630.76 181.095   7
  -6  -4 -12 1591.14 162.179   5
   6  -4  13-25.0072 63.7840   7
  -6  -4 -13 62.1483 48.6889   5
   6  -4  14 1702.93 151.268   9
  -6  -4 -14 1947.27 135.883   5
   6  -5 -17 3888.62 204.472  10
   6  -5 -16 485.160 91.1205  10
   6  -5 -15 16587.5 525.047  10
   6  -5 -14 11998.3 482.421  10
   6  -5 -13 20553.0 672.968  10
   6  -5 -12 2825.98 267.466  10
   6  -5 -11 19949.2 715.111  10
   6  -5 -10 26623.3 844.701  10
   6  -5  -9 32350.9 945.893  10
   6  -5  -8 2963.31 294.155  10
  -6  -5   7 360.082 112.210   3
   6  -5  -7 184.787 98.4146  10
   6  -5  -6 9662.77 523.659  10
  -6  -5   6 9487.76 487.177   3
  -6  -5   5 67798.8 1297.89   3
   6  -5  -5 64079.6 1331.50  10
  -6  -5   4 32256.8 898.581   3
   6  -5  -4 29655.2 893.045  10
  -6  -5   3 199.184 100.621   3
   6  -5  -3 205.929 94.2491  10
   6  -5  -2 4088.72 324.934  10
  -6  -5   2 3702.43 335.572   4
  -6  -5   2 4517.93 337.413   3
   6  -5  -1 65087.0 1236.09  10
  -6  -5   1 62211.0 1252.48   4
  -6  -5   0 69609.7 1204.04   5
  -6  -5   0 69539.8 1303.81   4
  -6  -5  -1 28117.5 785.456   5
  -6  -5  -1 25856.0 796.138   4
   6  -5   2 31263.5 802.736   6
  -6  -5  -2 31608.5 854.160   5
  -6  -5  -2 31736.7 869.312   4
   6  -5   3 46810.7 967.740   6
  -6  -5  -3 45285.5 1034.14   5
   6  -5   4 10523.8 448.723   6
  -6  -5  -4 11084.6 519.469   5
  -6  -5  -5 13518.9 581.774   5
   6  -5   5 12666.2 483.571   6
   6  -5   6 371.945 92.0136   6
  -6  -5  -6 270.891 93.1871   5
  -6  -5  -7 3662.71 292.997   5
   6  -5   7 3375.29 240.399   6
  -6  -5  -8 29768.1 801.418   5
   6  -5   8 27130.6 627.030   6
  -6  -5  -9 8976.07 424.367   5
  -6  -5 -10-8.69278 62.7408   5
  -6  -5 -11 2722.68 206.266   5
   6  -5  12 773.543 107.640   9
  -6  -5 -12 800.326 102.104   5
  -6  -5 -13 1514.54 115.727   5
   6  -6 -16 3054.54 171.075  10
   6  -6 -15 12832.8 395.398  10
   6  -6 -14 3451.52 231.734  10
   6  -6 -13 56191.6 1002.05  10
   6  -6 -12 91.6902 72.0028  10
   6  -6 -11 12085.2 524.313  10
   6  -6 -10 4025.73 319.273  10
   6  -6  -9 8305.76 466.376  10
   6  -6  -8 45067.6 1101.15  10
   6  -6  -7 48440.5 1153.38  10
   6  -6  -6 24165.6 819.600  10
   6  -6  -5 34827.7 968.600  10
   6  -6  -4 2428.24 261.223  10
  -6  -6   4 1400.25 238.879   4
   6  -6  -3 1083.79 174.035  10
  -6  -6   3 517.444 199.427   4
   6  -6  -2 570.242 135.698  10
  -6  -6   2 1005.38 187.722   4
  -6  -6   1 11994.8 479.873   5
  -6  -6   1 11473.3 553.049   4
  -6  -6   0 9828.34 449.388   5
  -6  -6   0 9919.17 504.741   4
   6  -6   1 7233.12 391.035   6
  -6  -6  -1 6143.41 358.116   5
  -6  -6  -1 6476.51 411.142   4
   6  -6   2 62967.7 1110.72   6
  -6  -6  -2 60321.7 1132.97   5
  -6  -6  -2 62220.1 1180.27   4
   6  -6   3 6890.55 362.999   6
  -6  -6  -3 6506.86 384.178   5
  -6  -6  -4 4487.22 317.823   5
   6  -6   4 4815.93 293.155   6
  -6  -6  -5 5048.10 336.635   5
   6  -6   5 5614.35 305.736   6
  -6  -6  -6 24087.2 707.751   5
   6  -6   6 22687.7 575.001   6
  -6  -6  -7 2536.13 223.252   5
   6  -6   7 2925.81 196.088   6
  -6  -6  -8 69.0230 57.0855   5
  -6  -6  -9 644.098 108.670   5
  -6  -6 -10 3486.40 208.974   5
  -6  -6 -11 2690.43 164.140   5
   6  -7 -14 4989.19 206.784  10
   6  -7 -13 3704.22 205.472  10
   6  -7 -12 46894.7 801.892  10
   6  -7 -11 862.397 127.180  10
   6  -7 -10 27700.2 701.385  10
   6  -7  -9 8511.73 409.048  10
   6  -7  -8 156.829 81.3051  10
   6  -7  -7 7411.17 399.343  10
  -6  -7   7 6324.01 422.087   4
   6  -7  -6 206.007 86.1156  10
  -6  -7   6 37.0778 217.360   4
   6  -7  -5 3464.34 280.906  10
  -6  -7   5 3193.08 314.064   4
  -6  -7   4 18944.3 676.008   4
  -6  -7   3 19719.2 673.481   4
  -6  -7   2 47083.6 1010.43   4
  -6  -7   1 2709.23 203.995   5
  -6  -7   1 3103.24 294.827   4
   6  -7   0 2304.94 207.507   6
  -6  -7   0 2299.63 196.299   5
  -6  -7   0 2013.55 247.846   4
   6  -7   1 11984.5 453.690   6
  -6  -7  -1 11073.6 430.737   5
   6  -7   2 20565.9 566.700   6
  -6  -7  -2 20139.3 589.350   5
  -6  -7  -3 30833.5 726.264   5
   6  -7   3 32124.4 683.021   6
  -6  -7  -4 6219.34 328.287   5
   6  -7   4 6506.16 293.568   6
  -6  -7  -5 29255.5 690.264   5
   6  -7   5 28559.2 574.726   6
  -6  -7  -6 144.589 65.2150   5
  -6  -7  -7 4485.15 243.381   5
  -6  -7  -8 453.402 77.1781   5
  -6  -7  -9 721.534 82.6018   5
  -6  -8  10 5022.74 255.201   4
  -6  -8   9 3318.78 222.618   4
  -6  -8   8 13060.4 441.897   4
  -6  -8   7 2641.01 220.768   4
  -6  -8   6 1125.19 165.623   4
  -6  -8   5 10299.4 415.267   4
  -6  -8   4 13465.7 475.562   4
   6  -8  -3 635.972 97.3344   6
  -6  -8   3 799.844 164.366   4
   6  -8  -2 8842.08 332.472   6
  -6  -8   2 8360.32 376.297   4
   6  -8  -1 3417.25 202.955   6
  -6  -8   0 416.870 70.4993   5
   6  -8   0 494.115 80.7550   6
   6  -8   1 162.702 53.3206   6
  -6  -8  -1 40.0246 36.9788   5
  -6  -8  -2 14757.3 376.564   5
   6  -8   2 15679.0 369.452   6
  -6  -8  -3 28804.5 519.358   5
   6  -8   3 28856.3 458.732   6
  -6  -8  -4 2032.07 136.710   5
  -6  -8  -5 674.939 77.3940   5
  -7   0  21 40677.4 618.637   9
  -7   0  20 34.5672 49.8811   9
  -7   0  19 4516.20 278.479   9
  -7   0  18 1.53287 62.0095   9
  -7   0  17 78985.3 1336.66   9
  -7   0  16 43.3942 72.6917   9
  -7   0  15 70938.0 1360.10   9
  -7   0  14 640.402 154.409   9
  -7   0  13 68252.1 1355.24   9
  -7   0  12 36.3190 65.5635   9
  -7   0  11 1732.70 220.300   9
  -7   0  11 1757.48 250.956   1
  -7   0  10 34.8458 89.4362   1
  -7   0  10 75.2288 77.7872   9
  -7   0   9 175755. 2352.88   1
  -7   0   8-111.731 119.187   1
  -7   0   7 58167.4 1353.93   1
  -7   0   6-55.7407 87.6501   1
  -7   0   5 77580.6 1597.29   1
  -7   0   4 130.580 99.0674   1
  -7   0   3 6453.38 486.150   1
   7   0  -2 225.846 117.203  11
   7   0  -1 13948.9 783.481  11
   7   0   0 179.669 106.558  11
   7   0   1 67453.9 1837.52  11
   7   0   2 76.4130 173.149  11
   7   0   3 50488.7 1608.76  11
   7   0   4 181.804 126.724  11
   7   0   4-13.1520 74.1424   7
   7   0   5 7393.52 410.095   7
   7   0   5 6688.26 636.225  11
   7   0   6 33.6238 61.8412   7
   7   0   7 12779.0 527.585   7
   7   0   8 83.0078 68.5956   7
   7   0   9 2586.58 230.623   7
   7   0  10 47.7984 64.3707   7
   7   0  11 14903.8 501.316   7
   7   0  12 4.98574 57.0034   7
   7   0  13 14228.9 442.396   7
   7   0  14 102.852 57.8537   7
   7   0  15 14990.2 382.279   9
   7   0  15 14379.8 385.542   7
  -7  -1  21 12250.2 357.787   9
  -7  -1  20 25936.9 600.447   9
  -7   1  19 1451.18 145.891   9
  -7  -1  19 1318.88 159.276   9
  -7   1  18 418.608 99.6039   9
  -7  -1  18 61.7735 61.7934   9
  -7   1  17 1554.60 182.152   9
  -7  -1  17 1425.82 187.656   9
  -7   1  16 461.170 121.745   9
  -7  -1  16 414.709 119.265   9
  -7   1  15 383.996 110.122   9
  -7  -1  15 414.600 128.916   9
  -7   1  14 54093.8 1174.99   9
  -7  -1  14 52620.1 1182.77   9
  -7   1  13 109665. 1675.20   9
  -7  -1  13 106192. 1671.93   9
  -7   1  12 209031. 2306.09   9
  -7  -1  12 206887. 2325.88   9
  -7   1  11 27457.4 832.742   9
  -7  -1  11 26161.1 827.756   9
  -7   1  11 26278.5 954.985   1
  -7  -1  10 2109.33 237.802   9
  -7   1  10 1908.76 274.814   1
  -7  -1   9 1258.87 186.560   9
  -7   1   9 1614.11 253.496   1
  -7   1   8 45530.6 1275.79   1
  -7   1   7 35753.3 1117.92   1
  -7  -1   7 35223.0 986.785   1
  -7   1   6 61243.6 1433.59   1
  -7  -1   6 60521.6 1314.19   1
  -7  -1   5 1429.66 212.444   1
  -7   1   5 1750.70 259.733   1
  -7  -1   4 73522.7 1511.95   1
  -7   1   4 77732.7 1677.62   1
  -7  -1   3 85404.2 1696.86   1
  -7   1   3 84781.8 1820.53   1
  -7   1   2 25853.9 1024.06   1
   7   1  -2 24106.0 995.771  11
   7   1  -1 71089.5 1789.30  11
   7   1   0 437.039 158.337  11
   7  -1   0 448.618 189.853  11
   7   1   1 35424.4 1264.42  11
   7  -1   1 36368.4 1356.82  11
   7   1   2 18501.1 942.313  11
   7  -1   2 20129.3 1027.57  11
   7  -1   3 9104.81 453.647   7
   7   1   3 7281.33 613.618  11
   7  -1   3 7879.21 685.148  11
   7   1   3 8546.34 445.557   7
   7  -1   4 2020.46 223.466   7
   7   1   4 1715.56 200.157   7
   7   1   4 1554.13 299.406  11
   7  -1   4 1539.59 324.914  11
   7  -1   4 1973.90 196.394   6
   7  -1   5 11750.1 512.089   7
   7   1   5 11938.2 511.694   7
   7  -1   5 10939.0 855.219  11
   7  -1   6 13110.8 537.624   7
   7   1   6 13849.9 549.987   7
   7  -1   7 13847.4 551.662   7
   7   1   7 13136.6 526.856   7
   7  -1   8 5167.10 335.381   7
   7   1   8 5116.88 323.736   7
   7  -1   9 4135.38 291.760   7
   7   1   9 3830.20 271.961   7
   7  -1  10 93.7307 68.8138   7
   7   1  10 47.9818 53.2367   7
   7  -1  11 11994.1 456.827   7
   7   1  11 11138.1 421.514   7
   7  -1  12 9079.00 381.652   7
   7   1  12 8938.13 357.198   7
   7  -1  13 4112.07 247.873   7
   7   1  13 3819.89 219.473   7
   7   1  14 58.1615 49.2476   7
   7  -1  14 30.0260 49.0899   7
   7  -1  15 1279.64 124.203   7
   7   1  15 1277.29 110.602   7
  -7  -2  21 254.992 59.8487   9
  -7  -2  20 3674.68 219.845   9
  -7  -2  19 1976.93 183.699   9
  -7  -2  18 27588.9 713.858   9
  -7  -2  17 7762.78 405.213   9
  -7  -2  16 13088.7 542.954   9
  -7  -2  15 889.105 157.534   9
  -7  -2  14 13371.4 580.568   9
  -7  -2  13 17560.6 668.457   9
  -7   2  12 18911.9 647.801   9
  -7  -2  12 18468.9 682.545   9
  -7   2  11 11892.6 514.773   9
  -7  -2  11 11905.6 545.828   9
  -7   2  10 26719.4 765.740   9
  -7  -2  10 26880.3 818.633   9
  -7   2   9 4598.66 314.669   9
  -7  -2   9 4347.96 326.133   9
  -7   2   9 4964.40 445.850   1
  -7  -2   8 52445.0 1089.70   9
  -7   2   8 56800.5 1466.59   1
  -7   2   7 1513.64 242.500   1
  -7   2   6 2008.48 290.121   1
  -7   2   5 75252.1 1682.23   1
  -7   2   4 57757.8 1526.97   1
   7   2  -3 7495.65 546.619  11
  -7   2   3 8430.17 586.050   1
   7   2  -2 9121.21 614.984  11
  -7   2   2 10969.2 686.446   1
   7   2  -1 5796.64 517.253  11
  -7   2   1 6685.74 559.496   1
   7   2   0 6758.61 547.779  11
   7   2   1 154.266 113.602  11
   7  -2   2 13303.7 544.291   7
   7   2   2 12254.5 775.878  11
   7  -2   2 13815.0 510.415   6
   7  -2   3 22605.8 711.486   7
   7   2   3 21495.5 704.420   7
   7  -2   3 21802.8 645.407   6
   7  -2   4 18823.5 640.138   7
   7   2   4 18076.2 634.252   7
   7  -2   4 19870.6 1099.76  11
   7  -2   5 63316.9 1184.79   7
   7   2   5 60850.8 1148.72   7
   7  -2   5 64910.1 1105.11   6
   7  -2   6 32759.2 843.534   7
   7   2   6 31841.9 826.430   7
   7  -2   7 103919. 1490.38   7
   7   2   7 104329. 1453.80   7
   7  -2   8 2997.75 255.239   7
   7   2   8 2836.53 238.675   7
   7  -2   9 3371.78 261.546   7
   7   2   9 3320.26 248.698   7
   7  -2  10 26874.7 705.220   7
   7   2  10 25101.6 633.641   7
   7  -2  11 5819.42 321.699   7
   7   2  11 5360.75 276.836   7
   7  -2  12 6239.00 323.383   7
   7   2  12 5572.98 262.034   7
   7  -2  13 1334.74 147.059   7
   7   2  13 1192.50 117.201   7
   7  -2  14 11324.3 388.795   7
  -7  -2 -14 10725.7 318.571   5
   7  -2  15 9089.83 302.557   9
   7  -2  15 8865.92 307.440   7
  -7  -3  20 7447.60 276.208   9
  -7  -3  19 12942.7 411.453   9
  -7  -3  18 85.2334 63.1211   9
  -7  -3  17 158.276 76.1088   9
  -7  -3  16 763.974 135.590   9
  -7  -3  15 8165.21 423.630   9
  -7  -3  14 6040.34 377.038   9
  -7  -3  13 5157.15 349.909   9
  -7  -3  12 10908.9 513.094   9
  -7  -3  11 22136.5 720.993   9
  -7  -3  10 1599.63 198.831   9
  -7  -3   9 45014.4 1005.79   9
  -7  -3   8 7662.72 410.448   9
   7  -3  -8 6944.40 395.469  10
  -7  -3   7 1784.88 199.717   9
   7  -3  -7 1620.87 198.274  10
  -7   3   7 1703.26 273.248   1
  -7  -3   6 41397.4 908.959   9
   7  -3  -6 40479.8 955.503  10
  -7   3   5 25753.4 1035.66   1
   7  -3  -5 21749.4 694.096  10
  -7   3   4 35427.6 1206.65   1
  -7  -3   4 33714.4 863.979   3
   7  -3  -4 33094.8 839.639  10
  -7  -3   3 97196.7 1460.84   3
  -7   3   3 98780.0 2056.12   1
  -7  -3   2 120689. 1632.58   3
  -7   3   2 120510. 2311.69   1
  -7  -3   1 5956.75 373.137   3
  -7   3   1 5918.08 513.249   1
   7  -3   0 2424.54 231.034   6
  -7  -3   0 2345.46 242.436   3
   7   3   0 1575.82 265.958  11
  -7   3   0 2386.21 356.871   1
  -7  -3  -1 4576.34 333.081   3
   7  -3   1 4230.91 294.300   6
  -7   3  -1 4100.29 444.153   1
   7   3   1 3395.92 396.132  11
   7  -3   2 115.514 63.4394   6
  -7  -3  -2 252.783 119.579   3
   7   3   3 66844.4 1237.56   7
   7  -3   3 71915.0 1180.26   6
   7   3   4 40408.1 944.720   7
   7  -3   4 40194.8 894.074   6
   7  -3   5 30501.1 790.248   7
   7   3   5 30602.0 804.308   7
   7  -3   5 32003.7 780.655   6
   7  -3   6 3981.03 288.662   7
   7   3   6 3861.99 283.330   7
   7  -3   6 3632.08 267.434   6
   7  -3   7 40595.7 906.433   7
   7   3   7 39143.2 853.859   7
   7  -3   8 60772.4 1086.47   7
   7   3   8 59006.1 1006.08   7
   7  -3   9 4106.35 284.684   7
   7   3   9 4225.90 257.061   7
   7  -3  10 558.501 115.270   7
   7  -3  11 531.856 110.852   7
   7  -3  12 3070.51 226.528   7
  -7  -3 -12 3051.54 209.005   5
  -7  -3 -13 160.454 56.7856   5
   7  -3  13 99.8949 66.1927   7
   7  -3  14 11869.5 369.856   7
  -7  -3 -14 11528.0 297.391   5
  -7  -4  19 5456.77 218.919   9
  -7  -4  18 1399.67 131.003   9
  -7  -4  17 15413.2 463.731   9
  -7  -4  16 36.8768 50.4704   9
  -7  -4  15 41693.8 866.697   9
  -7  -4  14 9352.05 429.498   9
   7  -4 -14 9432.31 399.595  10
  -7  -4  13 232.204 86.7685   9
   7  -4 -13 142.096 70.5030  10
  -7  -4  12-40.2142 66.5974   9
   7  -4 -12 51.1895 59.4613  10
  -7  -4  11 22510.4 690.258   9
   7  -4 -11 23171.1 716.802  10
  -7  -4  10 310.511 98.7851   9
   7  -4 -10 115.272 79.1195  10
   7  -4  -9 15506.0 614.126  10
   7  -4  -8 6076.45 390.152  10
   7  -4  -7 79941.3 1414.02  10
  -7  -4   6 8860.51 477.961   3
   7  -4  -6 9354.42 482.252  10
  -7  -4   5 99684.0 1564.42   3
   7  -4  -5 94668.8 1529.50  10
  -7  -4   4 45099.2 1054.65   3
   7  -4  -4 43307.9 1022.05  10
  -7  -4   3 7201.93 428.537   3
   7  -4  -3 7232.09 412.929  10
  -7  -4   3 8025.29 453.569   4
  -7  -4   2 101511. 1596.58   3
  -7  -4   2 104506. 1507.18   4
  -7  -4   1 20064.4 699.490   3
  -7  -4   1 19395.7 662.674   4
  -7  -4   0 3784.41 312.457   3
  -7  -4   0 4001.93 327.440   4
   7  -4   1 808.626 143.542   6
  -7  -4  -1 815.165 156.682   3
  -7  -4  -1 886.611 141.603   5
  -7  -4  -1 1235.57 235.307   4
   7  -4   2 988.477 153.127   6
  -7  -4  -2 839.049 150.336   5
   7   4   2 748.907 149.964   7
   7  -4   3 22287.4 668.230   6
  -7  -4  -3 23215.3 718.746   5
   7   4   3 22252.7 700.022   7
  -7  -4  -4 2791.15 260.219   5
   7  -4   4 2766.91 239.453   6
  -7  -4  -5 10229.5 495.348   5
   7  -4   5 10109.2 439.314   6
  -7  -4  -6 5532.85 359.800   5
   7  -4   6 5483.12 316.274   6
  -7  -4  -7 1764.76 206.826   5
   7  -4   7 1908.09 181.627   6
  -7  -4  -8 4566.07 310.473   5
  -7  -4  -9-3.92617 65.7651   5
   7  -4   9 17.4203 45.3258   7
  -7  -4 -10 769.623 125.974   5
   7  -4  10 470.868 97.7540   7
   7  -4  11 36475.6 741.832   7
  -7  -4 -11 37864.3 717.025   5
   7  -4  12 5548.75 267.640   7
  -7  -4 -12 6331.23 265.613   5
   7  -4  13 1059.39 110.005   9
  -7  -4 -13 954.366 91.9420   5
   7  -5 -16 989.808 98.4682  10
   7  -5 -15 769.402 102.589  10
   7  -5 -14 9267.38 372.130  10
   7  -5 -13 52677.8 958.165  10
   7  -5 -12 44804.2 943.118  10
   7  -5 -11 2127.81 221.487  10
  -7  -5  10 10450.9 507.991   3
   7  -5 -10 9405.13 470.963  10
  -7  -5   9 37209.6 955.890   3
   7  -5  -9 35480.0 928.355  10
  -7  -5   8 8380.06 465.669   3
   7  -5  -8 8183.05 458.327  10
  -7  -5   7 6945.34 424.375   3
   7  -5  -7 6566.66 414.625  10
  -7  -5   6 10195.7 521.854   3
   7  -5  -6 9923.01 509.893  10
  -7  -5   5 37529.2 981.670   3
   7  -5  -5 36179.4 954.236  10
  -7  -5   5 35755.1 935.586   4
  -7  -5   4 112499. 1680.53   3
  -7  -5   4 111062. 1653.98   4
   7  -5  -3 1512.90 205.557  10
  -7  -5   3 939.640 176.168   3
  -7  -5   3 1648.27 232.446   4
  -7  -5   2 7381.26 436.852   3
  -7  -5   2 6989.44 415.567   4
  -7  -5   1 4110.99 330.373   3
  -7  -5   1 4134.85 344.335   4
   7  -5   0 56816.1 1118.66   6
  -7  -5   0 56372.6 1037.39   5
  -7  -5   0 56656.4 1133.97   4
   7  -5   1 615.495 130.008   6
  -7  -5  -1 936.209 147.326   5
   7  -5   2 695.479 131.345   6
  -7  -5  -2 655.867 128.636   5
  -7  -5  -3 15338.6 582.103   5
   7  -5   3 15592.6 546.091   6
  -7  -5  -4 7448.13 410.705   5
   7  -5   4 7569.21 377.434   6
   7  -5   5 32.6848 58.8365   6
  -7  -5  -5 96.1982 72.7958   5
  -7  -5  -6 4495.57 310.688   5
   7  -5   6 4469.14 267.853   6
  -7  -5  -7 3908.72 279.415   5
   7  -5   7 3672.21 229.760   6
  -7  -5  -8 301.195 90.2307   5
  -7  -5  -9 77.8120 59.5528   5
  -7  -5 -10 735.854 106.209   5
  -7  -5 -11 1531.58 125.451   5
  -7  -5 -12 2926.20 143.152   5
   7  -6 -15 2165.56 131.390  10
   7  -6 -14 1618.10 135.439  10
   7  -6 -13 13664.2 426.999  10
   7  -6 -12 7101.97 336.480  10
   7  -6 -11 5567.89 319.997  10
   7  -6 -10 40911.9 894.713  10
   7  -6  -9 428.387 108.961  10
   7  -6  -8 37802.1 916.818  10
   7  -6  -7 8266.87 435.453  10
  -7  -6   7 7910.00 446.053   4
  -7  -6   6 1560.23 191.522   3
   7  -6  -6 1754.16 207.623  10
  -7  -6   6 1514.99 224.010   4
  -7  -6   5 582.712 131.525   3
   7  -6  -5 825.158 156.294  10
  -7  -6   5 694.753 181.097   4
  -7  -6   4 31730.0 861.821   4
  -7  -6   4 26997.2 786.050   3
  -7  -6   3 10672.3 511.780   4
  -7  -6   2 6677.51 394.700   4
   7  -6  -1 557.210 124.475   6
  -7  -6   1 315.830 162.124   4
   7  -6   0 29231.9 770.114   6
  -7  -6   0 28512.6 691.357   5
  -7  -6   0 28664.1 766.352   4
   7  -6   1 580.049 119.586   6
  -7  -6  -1 353.483 88.4223   5
   7  -6   2 23437.5 640.973   6
  -7  -6  -2 22033.3 626.732   5
  -7  -6  -3 5017.87 302.704   5
   7  -6   3 5453.41 303.867   6
  -7  -6  -4 677.114 120.899   5
   7  -6   4 838.498 123.017   6
   7  -6   5 67.8178 61.0510   6
  -7  -6  -5-4.37995 57.9067   5
  -7  -6  -6 11278.7 421.768   5
   7  -6   6 11772.3 375.715   6
  -7  -6  -7 380.485 84.7859   5
  -7  -6  -8 1002.33 115.993   5
  -7  -6  -9 8668.82 293.786   5
  -7  -6 -10 2315.23 132.997   5
   7  -7 -12 1390.39 115.139  10
  -7  -7  12 1184.70 150.448   4
   7  -7 -11 27086.1 552.543  10
  -7  -7  11 24054.5 570.452   4
   7  -7 -10 1157.10 129.657  10
  -7  -7  10 1016.88 163.509   4
   7  -7  -9 1097.25 131.652  10
  -7  -7   9 1091.54 161.477   4
   7  -7  -8 2261.44 192.047  10
  -7  -7   8 2232.74 219.491   4
  -7  -7   7-32.3802 151.457   4
  -7  -7   6 5948.74 358.758   4
  -7  -7   5 16340.0 552.477   4
  -7  -7   4 824.974 174.806   4
   7  -7  -3 4472.84 278.676   6
  -7  -7   3 4183.43 297.379   4
   7  -7  -2 194.044 78.0800   6
  -7  -7   2 119.458 144.489   4
   7  -7  -1 27599.2 661.507   6
   7  -7   0 6298.34 306.724   6
  -7  -7  -1 346.135 75.0933   5
   7  -7   1 502.761 95.4404   6
   7  -7   2 68.1751 54.6394   6
  -7  -7  -2 16.1083 40.1080   5
  -7  -7  -3 3885.85 218.562   5
   7  -7   3 4207.02 223.165   6
  -7  -7  -4 5804.26 261.267   5
   7  -7   4 5887.85 244.822   6
  -7  -7  -5 8358.78 299.146   5
  -7  -7  -6 20315.1 429.054   5
  -7  -7  -7 1248.68 97.8338   5
   7  -8  -8 4722.94 188.185   6
  -7  -8   8 3703.84 190.747   4
   7  -8  -7 6139.24 224.595   6
  -7  -8   7 5192.28 233.553   4
   7  -8  -6 3279.87 173.001   6
  -7  -8   6 2812.07 186.887   4
   7  -8  -5 1407.12 117.921   6
  -7  -8   5 1172.45 146.914   4
   7  -8  -4 4410.50 206.013   6
   7  -8  -3 14875.9 370.163   6
   7  -8  -2 11672.8 322.124   6
   7  -8  -1 30027.7 506.430   6
   7  -8   0 13719.5 323.541   6
  -8   0  20 15897.9 398.042   9
  -8   0  19 20.2321 44.4767   9
  -8   0  18 46666.0 869.336   9
  -8   0  17 9.43838 61.8223   9
  -8   0  16 47431.2 1010.59   9
  -8   0  15 46.8786 79.1596   9
  -8   0  14 19561.9 706.525   9
  -8   0  13 648.416 143.528   9
  -8   0  12 130312. 1842.07   9
  -8   0  11 121.500 88.3286   9
  -8   0  10 50220.7 1148.24   9
  -8   0   9 581.230 140.222   9
  -8   0   8 125649. 1779.05   9
  -8   0   8 129066. 2179.52   1
  -8   0   7 36.1307 71.0592   9
  -8   0   6 68771.4 1266.06   9
  -8   0   6 68173.1 1583.32   1
  -8   0   5 5.22248 59.4989   9
  -8   0   5-268.639 135.688   1
  -8   0   4 60510.2 1146.91   9
  -8   0   4 61779.6 1574.09   1
  -8   0   3 31.7972 62.8671   9
  -8   0   3 1300.27 261.354   1
  -8   0   2 32060.0 1195.41   1
  -8   0   2 31318.8 807.905   9
  -8   0   1 42.1989 49.5876   9
   8   0   0 47497.2 1608.65  11
  -8   0   0 53107.2 1068.68   9
  -8   0  -1 4.28874 48.2554   9
   8   0   1 168.433 91.1800   7
   8   0   2 535.440 134.209   7
   8   0   3 43.1618 77.8507   7
   8   0   4 8722.29 470.104   7
   8   0   5 41.1006 64.7614   7
   8   0   6 23535.1 738.540   7
   8   0   7 80.8190 73.3593   7
   8   0   8 5655.27 341.641   7
   8   0   9 4.79252 59.3040   7
   8   0  10 264.659 85.4932   7
   8   0  11 3.25547 52.7004   7
   8   0  12 115.735 58.3119   7
   8   0  13 62.3678 48.2027   7
   8   0  14 7190.54 249.999   7
  -8  -1  20 97.7394 47.8618   9
  -8   1  19 83.8597 47.5255   9
  -8  -1  19 469.160 89.0923   9
  -8   1  18 277.381 71.8172   9
  -8  -1  18 478.494 100.495   9
  -8   1  17 1129.15 145.121   9
  -8  -1  17 819.784 141.003   9
  -8   1  16 202.755 81.4734   9
  -8  -1  16 77.1656 74.4385   9
  -8   1  15 5003.87 333.136   9
  -8  -1  15 4831.99 342.496   9
  -8  -1  14 842.466 161.686   9
  -8   1  14 666.911 142.816   9
  -8   1  13 96208.8 1536.27   9
  -8  -1  13 95614.0 1563.48   9
  -8   1  12 93569.5 1524.93   9
  -8  -1  12 90596.8 1538.64   9
  -8   1  11 7308.73 431.090   9
  -8  -1  11 7818.16 449.429   9
  -8   1  10 15662.6 634.022   9
  -8  -1  10 16572.3 653.668   9
  -8   1   9 82.9543 79.9619   9
  -8  -1   9 412.229 119.058   9
  -8   1   8 81799.6 1411.14   9
  -8  -1   8 82064.7 1410.86   9
  -8   1   7 366.572 116.274   9
  -8   1   7 299.810 132.738   1
  -8   1   6 32119.7 855.558   9
  -8  -1   6 31882.7 851.143   9
  -8   1   6 32741.4 1150.68   1
  -8   1   5 26809.4 778.720   9
  -8  -1   5 25475.3 752.402   9
  -8   1   5 26844.1 1060.01   1
  -8   1   4 447.112 117.183   9
  -8  -1   4 537.481 114.647   3
  -8   1   4 547.982 190.694   1
  -8  -1   4 910.037 195.126   1
  -8  -1   3 14189.9 546.921   9
  -8  -1   3 13697.6 546.251   3
  -8  -1   3 15512.7 778.115   1
  -8   1   3 15500.1 836.568   1
  -8   1   3 13915.8 551.638   9
  -8  -1   2 73170.1 1249.65   3
   8   1  -2 70319.9 1884.81  11
  -8  -1   2 74778.5 1759.63   1
  -8   1   2 72846.1 1257.03   9
  -8  -1   2 70848.9 1203.80   9
  -8  -1   1 2419.21 237.853   3
   8  -1  -1 2531.44 271.445   7
   8   1  -1 1964.83 322.375  11
  -8   1   1 2925.08 397.685   1
  -8   1   1 3013.35 266.911   9
  -8  -1   1 2454.54 228.511   9
  -8  -1   0 3730.83 294.642   3
   8   1   0 2582.46 372.611  11
   8  -1   0 2954.23 280.739   7
  -8   1   0 3415.25 273.185   9
  -8  -1   0 3189.95 265.272   9
  -8  -1  -1 15685.1 587.497   3
   8  -1   1 14379.7 596.943   7
  -8  -1  -1 15658.8 558.371   9
   8  -1   2 18531.2 682.093   7
   8   1   2 18163.1 683.684   7
   8  -1   3 73351.4 1351.70   7
   8   1   3 71209.0 1329.56   7
   8  -1   4 10243.7 504.726   7
   8   1   4 10320.7 504.084   7
   8  -1   5 5222.86 355.980   7
   8   1   5 5339.13 361.598   7
   8  -1   6 47321.9 1033.25   7
   8   1   6 46625.0 1016.30   7
   8  -1   7 13272.5 533.834   7
   8   1   7 12727.5 518.724   7
   8  -1   8 7022.81 376.636   7
   8   1   8 6284.48 351.040   7
   8  -1   9 35612.3 802.764   7
   8   1   9 34852.6 775.481   7
   8  -1  10 4239.75 267.806   7
   8   1  10 4466.29 264.066   7
   8  -1  11 103.178 64.4998   7
   8   1  11 211.572 66.4502   7
   8  -1  12 1109.22 127.142   7
   8   1  12 1098.36 116.973   7
   8  -1  13 1488.39 134.118   7
   8   1  13 1291.83 115.644   7
   8  -1  14 18707.9 409.836   7
  -8  -2  20 5821.64 235.056   9
  -8  -2  19 16424.9 449.009   9
  -8  -2  18 19096.2 533.770   9
  -8  -2  17 73168.8 1128.26   9
  -8  -2  16 464.600 112.921   9
  -8  -2  15 7268.68 397.427   9
  -8   2  14 22300.7 655.547   9
  -8  -2  14 21851.7 708.389   9
  -8   2  13 31430.6 804.688   9
  -8  -2  13 30442.6 849.605   9
  -8   2  12 13590.7 547.469   9
  -8  -2  12 13147.2 567.174   9
  -8   2  11 4225.92 312.699   9
  -8  -2  11 4465.33 332.988   9
  -8   2  10 138796. 1760.14   9
  -8  -2  10 139218. 1821.83   9
  -8   2   9 114251. 1585.47   9
  -8  -2   9 113513. 1640.82   9
  -8   2   8 1938.09 215.061   9
  -8  -2   8 727.538 140.038   9
  -8   2   7 86411.4 1387.28   9
  -8  -2   7 90930.2 1431.56   9
  -8  -2   6 26978.6 767.959   9
  -8   2   6 26742.1 766.277   9
  -8  -2   5 4728.26 321.371   9
  -8   2   5 4735.16 327.412   9
  -8   2   4 240.131 89.5998   9
  -8  -2   4 78.0918 65.5804   9
  -8  -2   4 70.7387 108.747   3
  -8  -2   3 18414.4 607.943   9
  -8  -2   3 19223.6 661.782   3
  -8   2   3 18943.6 645.523   9
  -8  -2   2 9278.43 461.860   3
   8   2  -2 8977.47 661.739  11
  -8   2   2 9228.15 450.334   9
  -8  -2   2 9874.65 440.053   9
   8  -2  -1 61414.2 1076.77   6
  -8  -2   1 62956.5 1186.14   3
  -8   2   1 61791.4 1135.61   9
  -8  -2   1 59310.8 1076.68   9
  -8  -2   0 36543.4 841.296   9
   8  -2   0 38444.7 860.884   6
  -8  -2  -1 2017.75 223.496   3
   8  -2   1 2190.16 232.138   7
  -8  -2  -1 1619.72 178.436   9
   8  -2   1 1861.75 201.517   6
   8  -2   2 89847.9 1461.07   7
   8   2   2 92160.4 1544.37   7
   8  -2   2 89467.6 1321.18   6
   8  -2   3 65983.8 1233.80   7
   8   2   3 67373.1 1289.74   7
   8  -2   3 68478.0 1156.82   6
   8  -2   4 7684.94 428.299   7
   8   2   4 7699.62 434.110   7
   8  -2   4 7268.55 374.298   6
   8  -2   5 863.942 150.661   7
   8   2   5 1032.77 165.734   7
   8  -2   6 9977.29 465.646   7
   8   2   6 9707.85 458.805   7
   8  -2   7 2826.71 247.175   7
   8   2   7 2740.41 236.150   7
   8  -2   8 4294.17 287.283   7
   8   2   8 3866.97 268.191   7
   8  -2   9 2509.93 214.074   7
   8   2   9 2464.67 200.286   7
   8  -2  10 18707.2 544.295   7
   8   2  10 17450.6 482.426   7
   8  -2  11 2377.16 190.050   7
   8   2  11 2340.19 163.792   7
   8  -2  12 832.293 110.853   7
   8   2  12 828.644 93.1222   7
   8  -2  13 4325.72 219.831   7
  -8  -2 -13 3646.73 177.337   5
  -8  -3  19 1175.84 110.394   9
  -8  -3  18 53.9483 43.6288   9
  -8  -3  17 2604.55 197.047   9
  -8  -3  16 19271.5 563.784   9
  -8  -3  15 40548.6 867.251   9
  -8  -3  14 9801.76 446.004   9
  -8  -3  13 2414.83 231.644   9
  -8  -3  12 1351.72 177.757   9
  -8  -3  11 43647.5 970.883   9
  -8  -3  10 1594.34 195.565   9
  -8  -3   9 2642.08 248.605   9
  -8  -3   8 124598. 1626.07   9
  -8  -3   7 40254.1 918.040   9
  -8  -3   6 13632.3 528.582   9
   8  -3  -6 13842.1 532.084  10
  -8  -3   5 153209. 1724.63   9
  -8  -3   5 157916. 1941.77   3
  -8  -3   4 43446.0 909.820   9
  -8  -3   4 43756.6 1026.69   3
  -8  -3   3 10631.5 510.118   3
  -8   3   3 9503.12 428.139   9
   8  -3  -2 7401.33 392.287   6
  -8  -3   2 5854.67 379.415   3
   8  -3  -1 147202. 1732.42   6
  -8  -3   1 153020. 1918.65   3
   8  -3   0 103212. 1452.49   6
  -8  -3   0 105199. 1586.12   3
  -8  -3  -1 2661.93 263.380   3
   8  -3   1 3065.56 255.266   6
   8   3   2 5224.54 370.501   7
   8  -3   2 4811.27 316.213   6
   8  -3   3 398.467 107.763   6
   8   3   3 281.461 106.293   7
   8   3   4 1332.86 183.756   7
   8  -3   4 1667.25 187.245   6
   8  -3   5 1354.19 168.290   7
   8   3   5 1266.00 175.486   7
   8  -3   5 1240.92 158.212   6
   8  -3   6 7350.33 372.722   7
   8   3   6 6776.70 366.704   7
   8  -3   7 2559.11 218.221   7
   8   3   7 2600.43 216.396   7
   8  -3   8 16346.6 523.208   7
   8   3   8 15320.8 478.583   7
   8  -3   9 1630.16 166.765   7
   8   3   9 1727.20 153.436   7
  -8  -3 -10 47.2464 51.5249   5
   8  -3  10 64.4848 60.9243   7
  -8  -3 -11 35.0670 43.6674   5
   8  -3  11-16.8253 49.7544   7
   8  -3  12 3349.94 193.887   7
  -8  -3 -12 3172.89 170.242   5
  -8  -4  18 28407.9 469.327   9
  -8  -4  17 414.933 72.5272   9
  -8  -4  16 225.556 65.0233   9
  -8  -4  15 2462.64 191.580   9
  -8  -4  14 23757.9 616.372   9
  -8  -4  13 190.421 65.3303   9
  -8  -4  12 1396.95 165.062   9
  -8  -4  11 3555.66 261.376   9
   8  -4 -11 3812.78 263.276  10
  -8  -4  10 33053.4 787.610   9
   8  -4 -10 33778.6 802.721  10
   8  -4  -9 15899.6 571.190  10
  -8  -4   8 27923.8 845.951   3
   8  -4  -8 28191.2 764.399  10
  -8  -4   7 10088.7 505.676   3
   8  -4  -7 10387.5 472.575  10
  -8  -4   6 18159.9 677.907   3
   8  -4  -6 18703.2 639.173  10
  -8  -4   5 28.5655 110.395   3
  -8  -4   4 142497. 1899.35   3
  -8  -4   3 2687.90 268.479   3
   8  -4  -2 102351. 1477.19   6
  -8  -4   2 107082. 1635.17   3
   8  -4  -1 509.846 120.471   6
  -8  -4   1 437.129 138.032   3
   8  -4   0 57729.8 1095.54   6
   8  -4   1 2375.06 223.517   6
  -8  -4  -1 2400.18 214.657   5
   8   4   1 2616.50 269.181   7
  -8  -4  -2 1661.74 189.013   5
   8   4   2 1864.25 215.186   7
   8  -4   2 1454.84 180.351   6
  -8  -4  -3 1310.16 175.383   5
   8   4   3 1144.80 166.526   7
   8  -4   3 1259.68 164.831   6
  -8  -4  -4 5611.55 341.916   5
   8   4   4 4936.19 320.282   7
   8  -4   4 5643.79 320.800   6
   8  -4   5 351.275 91.3468   6
  -8  -4  -5 461.377 110.679   5
   8   4   5 280.071 89.2496   7
  -8  -4  -6 622.547 119.544   5
  -8  -4  -7 501.602 110.453   5
  -8  -4  -8 3592.26 243.020   5
  -8  -4  -9 6126.49 288.234   5
  -8  -4 -10 2912.35 182.778   5
  -8  -4 -11 17.8289 33.7611   5
  -8  -5  15 19334.1 472.653   3
  -8  -5  14 5933.62 296.299   3
   8  -5 -14 6765.28 250.097  10
  -8  -5  13 7553.70 365.803   3
   8  -5 -13 8676.77 317.802  10
  -8  -5  12 1981.40 206.819   3
   8  -5 -12 2192.26 178.623  10
  -8  -5  11 7238.56 387.324   3
   8  -5 -11 7281.15 342.061  10
  -8  -5  10 561.643 129.855   3
   8  -5 -10 337.778 89.6722  10
  -8  -5   9 10215.1 487.421   3
   8  -5  -9 9792.02 428.866  10
  -8  -5   9 9874.35 432.666   4
  -8  -5   8 869.976 161.602   3
   8  -5  -8 742.856 128.935  10
  -8  -5   8 621.953 169.735   4
  -8  -5   7 827.295 155.108   3
   8  -5  -7 961.187 153.809  10
  -8  -5   7 912.331 171.747   4
  -8  -5   6 12126.2 545.621   3
  -8  -5   6 11914.9 500.371   4
  -8  -5   5 73704.5 1322.86   3
  -8  -5   5 74825.4 1203.88   4
  -8  -5   4 51586.0 1113.36   3
  -8  -5   4 52969.6 1009.77   4
  -8  -5   3 1081.83 187.340   3
  -8  -5   3 1013.52 198.484   4
   8  -5  -2 23937.7 701.318   6
  -8  -5   2 22409.8 680.845   4
  -8  -5   2 23147.4 733.987   3
   8  -5  -1 18.8067 69.9487   6
   8  -5   0 692.177 130.575   6
  -8  -5  -1 35641.1 762.224   5
   8  -5   1 36641.8 825.571   6
  -8  -5  -2 5345.91 305.113   5
   8  -5   2 5350.53 313.928   6
   8  -5   3 52.5203 65.4674   6
  -8  -5  -3 17.4556 52.0513   5
  -8  -5  -4 5593.34 317.571   5
   8  -5   4 5672.08 297.484   6
  -8  -5  -5 14738.0 498.720   5
   8  -5   5 14640.1 452.599   6
  -8  -5  -6 130.155 58.8701   5
  -8  -5  -7 2884.78 201.513   5
  -8  -5  -8 86.5181 51.3180   5
  -8  -5  -9 2734.68 161.481   5
  -8  -5 -10 32.9006 30.2875   5
   8  -6 -12 17798.0 418.694  10
  -8  -6  12 16237.2 438.540   4
   8  -6 -11 24693.5 540.328  10
  -8  -6  11 21996.3 556.988   4
   8  -6 -10 15263.9 454.574  10
  -8  -6  10 15032.7 468.665   4
  -8  -6   9 30053.3 701.867   3
  -8  -6   9 36823.5 732.399   4
  -8  -6   8 2064.94 194.528   3
  -8  -6   8 1969.09 213.774   4
  -8  -6   7 13088.5 492.840   3
  -8  -6   7 16285.1 511.681   4
  -8  -6   6 2132.48 206.784   3
  -8  -6   6 2605.61 235.447   4
  -8  -6   5 487.318 149.792   4
  -8  -6   4 9497.77 419.430   4
   8  -6  -3 2071.79 198.704   6
  -8  -6   3 2098.15 233.547   4
   8  -6  -2 868.199 131.975   6
   8  -6  -1 1023.10 138.650   6
   8  -6   0 1451.72 159.102   6
   8  -6   1 16338.5 503.765   6
  -8  -6  -2 6706.76 294.037   5
   8  -6   2 7356.59 329.059   6
  -8  -6  -3 539.381 93.8432   5
   8  -6   3 533.963 93.3612   6
  -8  -6  -4 1409.68 136.584   5
   8  -6   4 1699.67 144.000   6
  -8  -6  -5 1013.80 111.622   5
  -8  -6  -6 252.175 60.8018   5
  -8  -6  -7 9058.96 273.735   5
  -8  -7   9 6210.46 257.109   4
  -8  -7   8 7321.34 284.953   4
   8  -7  -7 13511.4 388.848   6
  -8  -7   7 11706.7 364.478   4
   8  -7  -6 5446.07 254.569   6
  -8  -7   6 4668.74 248.411   4
   8  -7  -5 35.6376 43.0074   6
  -8  -7   5 59.6520 109.062   4
   8  -7  -4 5736.39 269.451   6
   8  -7  -3 7234.68 302.089   6
   8  -7  -2 15820.1 435.707   6
   8  -7  -1 3139.72 193.669   6
   8  -7   0 1898.44 150.053   6
   8  -7   1 1315.91 119.039   6
   8  -7   2 5182.84 216.259   6
  -9   0  19 52067.4 695.044   9
  -9   0  18 37.3766 44.8341   9
  -9   0  17 46967.9 839.747   9
  -9   0  16 85.9829 64.0461   9
  -9   0  15 4702.43 312.165   9
  -9   0  14 114.943 75.0959   9
  -9   0  13 13629.9 568.235   9
  -9   0  12 52.3805 68.2111   9
  -9   0  11 30661.0 874.568   9
  -9   0  10 134.224 85.3538   9
  -9   0   9 12937.6 576.431   9
  -9   0   8-37.0934 86.1665   9
  -9   0   7 118060. 1705.08   9
  -9   0   6 880.306 157.057   9
  -9   0   6 203.310 101.434   3
  -9   0   5 1280.22 187.216   3
  -9   0   5 1181.64 182.093   9
  -9   0   4-5.95144 74.8697   9
  -9   0   3 14121.0 576.003   9
  -9   0   2 15.6659 66.1876   9
   9   0  -1 85143.6 1575.65   7
  -9   0   1 87233.7 1404.20   9
  -9   0   0-0.96147 63.2473   9
   9   0   0 33.8488 88.4570   7
   9   0   1 60.1056 76.7845   7
   9   0   2 93.7960 91.8325   7
   9   0   3 13054.2 582.987   7
   9   0   4-14.2115 79.2285   7
   9   0   5 2208.59 226.646   7
   9   0   6 213.643 86.3210   7
   9   0   7 1786.12 192.852   7
   9   0   8-26.9069 61.6958   7
   9   0   9 4411.36 255.326   7
   9   0  10 36.8151 50.3628   7
   9   0  11 27331.3 531.806   7
   9   0  12 8.82117 32.7881   7
  -9  -1  19 2051.33 144.983   9
  -9   1  18 5344.73 231.186   9
  -9  -1  18 5440.98 261.761   9
  -9   1  17 18134.2 483.045   9
  -9  -1  17 18096.4 523.307   9
  -9   1  16 53703.3 916.826   9
  -9  -1  16 54597.1 975.459   9
  -9   1  15 5208.10 310.285   9
  -9  -1  15 5137.93 323.366   9
  -9   1  14 6007.25 355.276   9
  -9  -1  14 5792.69 358.726   9
  -9   1  13 19292.0 651.072   9
  -9  -1  13 18921.1 657.694   9
  -9   1  12 42711.8 1000.41   9
  -9  -1  12 42366.2 997.837   9
  -9   1  11 11496.0 528.408   9
  -9  -1  11 10621.5 511.513   9
  -9   1  10 4727.73 343.835   9
  -9  -1  10 4895.60 352.386   9
  -9   1   9 559.264 135.833   9
  -9  -1   9 453.901 118.876   9
  -9   1   8 68182.2 1293.79   9
  -9  -1   8 68149.0 1285.51   9
  -9   1   7 27635.8 828.883   9
  -9  -1   7 27090.7 806.239   9
  -9  -1   6 1561.75 198.866   9
  -9  -1   6 1568.46 209.663   3
  -9   1   6 1345.86 190.961   9
  -9   1   5 477.846 122.806   9
  -9  -1   5 392.835 105.164   9
  -9  -1   5 460.166 116.548   3
  -9  -1   4 10823.0 498.302   3
  -9   1   4 11984.0 538.087   9
  -9  -1   4 11288.0 509.253   9
  -9  -1   3 46957.2 1034.65   3
   9  -1  -3 47081.3 1143.60   7
  -9   1   3 49709.9 1088.97   9
  -9  -1   3 46548.5 1013.71   9
  -9  -1   2 2459.11 243.010   3
   9  -1  -2 2781.15 281.288   7
  -9   1   2 2327.76 244.557   9
  -9  -1   2 2273.24 230.662   9
  -9  -1   1 13394.5 554.593   3
   9  -1  -1 12633.6 585.408   7
  -9   1   1 13564.2 557.959   9
  -9  -1   1 13307.6 540.441   9
   9  -1   0 3251.04 297.534   7
  -9  -1   0 3202.77 266.543   9
  -9  -1   0 3115.56 274.465   3
   9  -1   1 3184.17 293.112   7
   9   1   1 1284.14 198.873   7
   9  -1   2 366.684 114.275   7
   9   1   2 77.8756 84.4663   7
   9  -1   3 22058.6 732.081   7
   9   1   3 21970.3 744.990   7
   9  -1   4 389.721 113.092   7
   9   1   4 391.389 120.653   7
   9  -1   5 1766.85 207.097   7
   9   1   5 1486.11 195.558   7
   9  -1   6 70.1738 71.9719   7
   9   1   6 137.502 81.9284   7
   9  -1   7 2312.63 210.510   7
   9   1   7 2353.46 213.133   7
   9  -1   8 206.117 79.9708   7
   9   1   8 236.367 82.3787   7
   9  -1   9 17750.5 507.599   7
   9   1   9 17240.7 483.281   7
   9  -1  10 487.338 90.6389   7
   9   1  10 429.210 80.8120   7
   9  -1  11 136.664 56.5935   7
   9   1  11 116.265 50.7835   7
   9  -1  12 2600.94 152.939   7
  -9  -2  19 11367.6 311.881   9
  -9  -2  18 1762.76 143.376   9
  -9  -2  17 2479.63 188.558   9
  -9  -2  16 28572.7 671.198   9
  -9  -2  15 52023.2 961.947   9
  -9   2  14 5766.57 302.704   9
  -9  -2  14 5174.67 320.372   9
  -9   2  13 1752.99 182.903   9
  -9  -2  13 1727.18 197.927   9
  -9   2  12 16417.6 565.984   9
  -9  -2  12 16102.5 592.376   9
  -9   2  11 2546.18 236.220   9
  -9  -2  11 2503.33 240.917   9
  -9   2  10 2504.56 234.535   9
  -9  -2  10 2512.46 242.119   9
  -9   2   9 99.2630 72.3688   9
  -9  -2   9 77.7578 66.8251   9
  -9  -2   8 17987.7 641.137   9
  -9   2   8 18451.4 643.312   9
  -9  -2   7 33399.5 859.645   9
  -9  -2   7 32737.8 876.150   3
  -9   2   7 34138.6 877.452   9
  -9  -2   6 89256.8 1388.82   9
  -9  -2   6 86839.7 1421.51   3
  -9   2   6 91960.9 1430.79   9
  -9  -2   5 8703.88 439.218   9
  -9  -2   5 9418.72 475.534   3
  -9   2   5 9149.12 460.479   9
  -9  -2   4 9577.04 482.464   3
  -9   2   4 9953.53 480.669   9
  -9  -2   4 9778.27 454.962   9
  -9  -2   3 13441.1 564.145   3
  -9   2   3 14036.3 561.458   9
  -9  -2   3 13085.6 517.976   9
  -9  -2   2 1906.39 225.235   3
  -9   2   2 1519.42 190.569   9
  -9  -2   2 1766.05 197.135   9
  -9  -2   1 521.711 115.842   9
  -9  -2   1 546.278 139.742   3
   9  -2   0 34208.7 900.738   7
   9   2   0 34054.1 992.198   7
  -9  -2   0 34649.9 896.542   3
   9  -2   1 9765.03 472.864   7
   9   2   1 9754.69 514.169   7
   9  -2   1 10332.9 431.376   6
   9  -2   2 3000.93 265.272   7
   9   2   2 2675.23 270.104   7
   9  -2   3 2467.56 237.237   7
   9   2   3 2289.93 246.423   7
   9  -2   4 10255.8 462.145   7
   9   2   4 10503.2 491.747   7
   9  -2   5 1770.94 195.214   7
   9   2   5 1734.27 200.444   7
   9  -2   6 15650.2 534.444   7
   9   2   6 15479.1 539.075   7
   9  -2   7 7768.66 359.766   7
   9   2   7 7351.67 351.476   7
   9  -2   8 28844.4 652.170   7
   9   2   8 28019.2 629.782   7
   9  -2   9 3451.40 218.278   7
   9   2   9 3615.82 208.786   7
   9  -2  10 568.155 86.7819   7
   9   2  10 535.331 79.5028   7
   9  -2  11 1111.39 109.390   7
  -9  -2 -11 772.450 84.4548   5
  -9  -3  18 163.338 42.7589   9
  -9  -3  17 1971.62 146.563   9
  -9  -3  16 13189.4 407.376   9
  -9  -3  15 74823.3 1038.49   9
  -9  -3  14 53039.7 922.507   9
  -9  -3  13 2215.38 198.977   9
  -9  -3  12 75.9956 59.3915   9
  -9  -3  11 13913.0 514.267   9
  -9  -3  10 7546.23 385.198   9
  -9  -3   9 12916.4 507.036   9
  -9  -3   8 3125.59 253.540   9
  -9  -3   8 3034.24 281.018   3
  -9  -3   7 42121.4 900.419   9
  -9  -3   7 42202.2 999.190   3
  -9  -3   6 27462.0 727.497   9
  -9  -3   6 27648.1 816.235   3
  -9   3   6 26233.7 704.161   9
  -9   3   5 206.200 81.6239   9
  -9  -3   5 274.093 87.5342   9
  -9  -3   5 300.040 122.159   3
   9  -3  -4 25913.3 686.315   6
  -9  -3   4 25706.7 788.258   3
  -9  -3   4 24636.4 676.676   9
   9  -3  -3 132.306 70.1872   6
  -9  -3   3 130.700 68.6945   9
  -9  -3   3 66.6894 88.1645   3
   9  -3  -2 819.689 131.269   6
  -9  -3   2 485.884 138.866   3
  -9  -3   1 14089.7 582.456   3
   9  -3  -1 14946.0 524.837   6
   9   3   0 10875.5 556.491   7
   9  -3   0 10755.0 448.672   6
   9  -3   1 139.540 78.1752   6
   9   3   1 314.033 119.570   7
   9  -3   2 175.057 73.4972   6
   9   3   2 36.1263 76.8422   7
   9   3   3 7278.55 408.159   7
   9  -3   3 7014.84 344.479   6
   9   3   4 17947.8 608.917   7
   9  -3   5 1164.17 140.004   7
   9   3   5 1221.23 155.733   7
   9  -3   6 5087.95 272.735   7
   9   3   6 4622.49 276.180   7
   9  -3   7 22728.6 553.574   7
   9   3   7 22434.1 550.955   7
   9  -3   8 1193.47 129.502   7
  -9  -3  -8 1176.42 128.704   5
   9   3   8 1272.24 124.945   7
   9  -3   9 1665.90 138.986   7
   9   3   9 1683.06 122.688   7
  -9  -3  -9 1460.39 129.571   5
  -9  -3 -10 5170.68 207.600   5
  -9  -4  17 2852.77 157.383   3
  -9  -4  16 333.807 56.5583   9
  -9  -4  16 282.276 64.4939   3
  -9  -4  15 1394.89 121.827   9
  -9  -4  15 1211.88 135.957   3
  -9  -4  14 5044.63 245.166   9
  -9  -4  14 4611.76 274.099   3
  -9  -4  13 3279.52 209.128   9
  -9  -4  13 3189.37 240.133   3
  -9  -4  12 2867.73 202.694   9
  -9  -4  12 2849.36 239.915   3
  -9  -4  11 69851.5 1012.27   9
  -9  -4  11 69402.2 1175.33   3
  -9  -4  10 623.781 103.376   9
  -9  -4  10 927.577 149.333   3
  -9  -4   9 35980.1 880.526   3
  -9  -4   8 22924.0 716.542   3
  -9  -4   7 25797.8 768.768   3
  -9  -4   6 13384.6 555.490   3
   9  -4  -5 304.743 85.9419   6
  -9  -4   5 80.8388 90.4597   3
   9  -4  -4 11143.5 447.367   6
  -9  -4   4 10619.0 502.107   3
   9  -4  -3 1253.32 158.098   6
  -9  -4   3 286.662 110.581   3
  -9  -4   2 1508.58 198.658   3
   9  -4  -2 1658.56 179.698   6
   9  -4  -1 2284.91 208.728   6
   9   4   0 16339.8 638.694   7
   9  -4   0 15370.4 522.137   6
   9   4   1 55802.0 1114.91   7
   9  -4   1 53976.2 960.062   6
  -9  -4  -2 14090.4 453.682   5
   9   4   2 16007.5 577.011   7
   9  -4   2 15240.5 496.247   6
  -9  -4  -3 3886.25 241.195   5
   9   4   3 3693.71 267.885   7
  -9  -4  -4-20.5295 42.7921   5
   9   4   4 35.3362 50.6524   7
  -9  -4  -5 782.316 115.145   5
   9   4   5 958.945 121.270   7
  -9  -4  -6 36.8121 44.8746   5
  -9  -4  -7 8300.46 308.367   5
  -9  -4  -8 281.266 62.6830   5
  -9  -4  -9 2740.36 144.213   5
  -9  -5  14 8790.42 302.912   3
  -9  -5  13 3292.71 207.735   3
  -9  -5  12 9265.28 371.948   3
  -9  -5  11 1456.43 158.960   3
  -9  -5  10 351.193 101.740   3
  -9  -5   9 2115.14 206.760   3
  -9  -5   8 135.656 75.0967   3
  -9  -5   7 13299.1 512.851   3
  -9  -5   6 4801.59 319.402   3
   9  -5  -6 5393.28 291.051   6
  -9  -5   5 10929.6 471.082   3
   9  -5  -5 12156.0 437.866   6
   9  -5  -4 24734.7 633.619   6
  -9  -5   4 22317.9 679.320   3
   9  -5  -3 4897.50 284.632   6
   9  -5  -2 150.839 66.4157   6
   9   5  -2 200.243 99.0902   7
   9  -5  -1 266.625 80.6896   6
   9   5  -1 134.539 82.0787   7
   9   5   0 19912.4 599.214   7
   9  -5   0 17475.6 519.553   6
   9  -5   1 9949.81 381.597   6
   9  -5   2 2438.26 186.135   6
  -9  -5  -3 3451.00 195.382   5
   9  -5   3 4047.64 226.361   6
  -9  -5  -4 5798.92 249.507   5
  -9  -5  -5 1468.85 122.756   5
  -9  -5  -6 2675.76 153.382   5
  -9  -5  -7 6802.27 216.668   5
   9  -6 -10 9287.78 267.773   6
   9  -6  -9 4891.13 210.472   6
   9  -6  -8 24220.8 494.555   6
   9  -6  -7 963.811 110.239   6
   9  -6  -6 2811.54 184.243   6
   9  -6  -5 4697.54 241.916   6
   9  -6  -4 270.639 70.4984   6
   9  -6  -3 4528.07 239.435   6
   9  -6  -2 4865.53 246.027   6
   9  -6  -1 198.044 63.4557   6
   9  -6   0 16180.6 429.913   6
   9  -6   1 1199.09 118.144   6
   9  -6   2 144.685 51.3642   6
   9  -7  -5 17703.0 348.828   6
   9  -7  -4 19505.0 373.706   6
   9  -7  -3 1626.38 110.657   6
   9  -7  -2 3300.44 152.399   6
 -10   0  18 3207.99 160.087   9
 -10   0  17 57.3114 44.3838   9
 -10   0  16 13971.7 423.074   9
 -10   0  15 92.1211 59.3720   9
 -10   0  14 16486.9 539.975   9
 -10   0  13 32.5560 57.2808   9
 -10   0  12 55214.1 1056.60   9
 -10   0  11-16.5695 61.3920   9
 -10   0  10 15304.3 586.047   9
 -10   0   9 101.770 88.3444   9
 -10   0   9-34.6059 91.6486   3
 -10   0   8 56365.1 1067.40   3
 -10   0   8 55535.2 1140.65   9
 -10   0   7-20.1672 79.7505   9
 -10   0   6 41619.4 985.318   9
 -10   0   5 9.76478 66.1830   9
 -10   0   4 60829.9 1200.42   9
 -10   0   3 159.858 95.6100   9
  10   0  -3 110.270 100.685   7
  10   0  -2 2676.70 281.217   7
 -10   0   2 1819.52 208.069   9
  10   0  -1 174.517 94.9359   7
  10   0   0 4396.98 341.843   7
  10   0   1 61.7539 89.4280   7
  10   0   2 16303.2 617.898   7
  10   0   3 0.47606 69.1346   7
  10   0   4 3256.95 260.357   7
  10   0   5-32.4137 72.2409   7
  10   0   6 26.7506 56.1281   7
  10   0   7 14.8577 53.3433   7
  10   0   8 3466.13 203.690   7
  10   0   9 7.86209 39.8135   7
  10   0  10 3350.36 161.081   7
 -10  -1  18 17909.4 379.975   9
 -10  -1  17 58182.1 779.811   9
 -10   1  17 58114.4 697.575   9
 -10   1  16 38164.7 648.058   9
 -10  -1  16 38321.3 698.577   9
 -10   1  15 14860.7 447.236   9
 -10  -1  15 14883.9 473.776   9
 -10   1  14 4328.76 262.950   9
 -10  -1  14 4162.50 271.249   9
 -10   1  13 27187.4 692.690   9
 -10  -1  13 26886.4 707.068   9
 -10   1  12 11769.8 478.523   9
 -10  -1  12 12167.5 488.582   9
 -10   1  11 2777.35 245.125   9
 -10  -1  11 3048.15 255.917   9
 -10  -1  10 1482.52 186.138   9
 -10   1  10 1194.24 173.921   9
 -10  -1   9 3113.85 267.353   9
 -10  -1   9 2293.62 232.234   3
 -10   1   9 3043.66 267.894   9
 -10  -1   8 13947.0 556.077   9
 -10  -1   8 13468.6 538.020   3
 -10   1   8 14897.4 582.312   9
 -10   1   7 40955.7 966.467   9
 -10  -1   7 38673.4 926.464   9
 -10  -1   6 5103.51 341.814   3
 -10   1   6 5642.31 369.316   9
 -10  -1   6 5462.24 350.600   9
 -10  -1   5 1083.11 165.462   3
  10  -1  -5 1478.57 198.884   7
 -10   1   5 1315.69 191.932   9
 -10  -1   5 1159.39 166.767   9
 -10  -1   4 6359.89 375.342   3
 -10   1   4 6966.82 408.679   9
 -10  -1   4 6556.10 382.901   9
 -10  -1   3 16835.1 605.610   3
  10  -1  -3 17756.1 661.953   7
 -10   1   3 17321.1 627.679   9
 -10  -1   3 16777.2 602.852   9
  10  -1  -2 21995.4 735.612   7
  10   1  -2 21031.6 779.890   7
 -10  -1   2 20776.7 657.615   9
 -10  -1   2 21465.2 674.956   3
  10  -1  -1 46090.6 1059.63   7
  10   1  -1 48146.6 1147.32   7
  10  -1   0 47.8126 78.7001   7
  10   1   0 43.6481 91.2266   7
  10  -1   1 537.921 128.158   7
  10   1   1 560.534 137.113   7
  10  -1   2 16017.4 591.922   7
  10   1   2 16451.1 628.232   7
  10  -1   3 3672.73 277.646   7
  10   1   3 3716.49 291.454   7
  10  -1   4 9667.23 429.958   7
  10   1   4 9399.86 433.808   7
  10  -1   5 17794.7 551.871   7
  10   1   5 18005.7 562.950   7
  10  -1   6 360.945 87.7138   7
  10   1   6 301.273 86.8229   7
  10  -1   7 567.873 96.8190   7
  10   1   7 556.505 95.4545   7
  10  -1   8 8178.32 304.044   7
  10   1   8 8004.63 296.979   7
  10  -1   9 124.641 49.8849   7
  10   1   9 137.826 47.0516   7
 -10  -2  18 48.5496 27.9629   9
 -10  -2  18 50.2991 39.2712   3
 -10  -2  17 695.519 84.1022   9
 -10  -2  16 9272.29 320.343   9
 -10  -2  15 2412.36 180.225   9
 -10  -2  14 9773.24 381.087   9
 -10   2  14 10357.6 344.944   9
 -10  -2  13 26448.6 650.036   9
 -10   2  13 26972.1 609.825   9
 -10  -2  12 11515.7 444.923   9
 -10   2  12 12022.0 434.783   9
 -10  -2  11 1350.71 163.201   9
 -10  -2  11 1263.29 165.422   3
 -10   2  11 1632.14 171.096   9
 -10  -2  10 26274.4 699.602   9
 -10   2  10 27585.9 706.475   9
 -10  -2   9 23901.5 679.745   9
 -10  -2   9 22423.8 687.118   3
 -10   2   9 23910.2 689.231   9
 -10   2   8 55.0185 65.6431   9
 -10  -2   8 64.5463 66.5172   9
 -10  -2   8-26.8822 86.4468   3
 -10  -2   7 12189.7 518.708   3
 -10   2   7 13817.1 543.532   9
 -10  -2   7 12927.1 508.510   9
 -10  -2   6 29513.4 801.389   3
 -10   2   6 31806.0 825.233   9
 -10  -2   6 29778.1 766.368   9
 -10  -2   5 925.142 157.283   3
 -10   2   5 784.299 140.468   9
 -10  -2   5 918.551 139.149   9
 -10  -2   4 1475.09 196.661   3
 -10   2   4 1596.39 186.461   9
 -10  -2   4 1578.50 183.879   9
 -10  -2   3 1000.24 167.289   3
 -10  -2   3 1005.24 147.045   9
  10   2  -2 1931.26 263.998   7
 -10  -2   2 1872.79 188.579   9
 -10  -2   2 1939.86 217.342   3
  10   2  -1 35563.3 982.993   7
  10  -2   0 42210.7 897.089   7
  10   2   0 44447.4 1060.59   7
  10  -2   1 31056.2 759.724   7
  10   2   1 32507.6 879.896   7
  10  -2   2 4367.42 282.420   7
  10   2   2 4508.20 326.700   7
  10  -2   3 469.082 101.728   7
  10   2   3 417.064 105.659   7
  10  -2   4 34.8650 55.8670   7
  10   2   4 60.4318 76.5798   7
  10  -2   5 8062.87 340.925   7
  10   2   5 8152.11 365.830   7
  10  -2   6 33807.1 655.923   7
  10   2   6 34241.3 686.454   7
  10  -2   7 1321.28 127.381   7
  10   2   7 1490.33 136.846   7
  10  -2   8 1087.90 107.740   7
  10   2   8 1124.98 107.198   7
 -10  -2  -9 16811.1 325.840   5
 -10  -3  17 2566.36 143.652   3
 -10  -3  16 267.363 51.9432   9
 -10  -3  16 173.460 57.3455   3
 -10  -3  15 1340.57 116.395   9
 -10  -3  15 1331.50 132.447   3
 -10  -3  14 24815.2 530.956   9
 -10  -3  14 25015.9 581.357   3
 -10  -3  13 4748.97 246.614   9
 -10  -3  13 5609.31 295.092   3
 -10  -3  12 5392.65 273.085   9
 -10  -3  12 5543.50 303.163   3
 -10  -3  11 7335.24 329.120   9
 -10  -3  11 7785.89 373.112   3
 -10  -3  10 78.6682 59.6593   9
 -10  -3  10 119.641 89.3286   3
 -10  -3   9 39991.2 899.262   3
 -10  -3   9 41303.6 812.816   9
 -10  -3   8 4074.82 295.223   3
 -10  -3   8 4270.76 267.496   9
 -10  -3   7 5007.85 333.230   3
 -10  -3   7 5575.94 305.193   9
 -10  -3   6 41642.6 926.205   3
 -10  -3   6 40247.6 817.017   9
 -10  -3   5 14978.4 561.582   3
 -10  -3   5 15444.3 515.099   9
 -10  -3   4 127300. 1634.41   3
 -10  -3   4 126266. 1425.60   9
 -10  -3   3 15972.0 584.929   3
 -10  -3   3 16118.3 496.584   9
  10   3  -2 30039.2 897.740   7
  10   3  -1 16615.5 640.768   7
  10  -3  -1 16058.9 466.262   6
  10   3   0 3779.10 302.757   7
  10  -3   0 3414.22 214.173   6
  10   3   1 13118.2 533.187   7
  10   3   2 115.042 84.1127   7
  10   3   3 6284.31 337.521   7
 -10  -3  -4 28148.1 552.587   5
  10   3   4 36763.7 748.488   7
 -10  -3  -5 59.4779 47.8842   5
  10   3   5 56.2763 55.6931   7
 -10  -3  -6 714.495 86.1944   5
  10   3   6 1173.04 117.285   7
 -10  -3  -7 859.211 85.5144   5
  10   3   7 1395.69 109.696   7
 -10  -4  15 5325.31 214.015   3
 -10  -4  14 3113.35 183.871   3
 -10  -4  13 3407.18 210.973   3
 -10  -4  13 3492.10 171.095   9
 -10  -4  12 1377.53 145.561   3
 -10  -4  12 1179.11 108.397   9
 -10  -4  11 1754.90 173.239   3
 -10  -4  10 137.315 79.4020   3
 -10  -4   9 10274.6 420.263   3
 -10  -4   8 77564.3 1166.36   3
 -10  -4   7 11731.7 464.576   3
 -10  -4   6 8350.86 402.296   3
 -10  -4   5 4497.66 293.698   3
  10  -4  -4 792.375 106.249   6
 -10  -4   4 693.206 133.112   3
  10   4  -3 22871.9 744.869   7
  10  -4  -3 22715.1 535.611   6
  10   4  -2 5001.75 339.416   7
  10  -4  -2 4945.60 250.886   6
  10   4  -1 456.573 118.719   7
  10  -4  -1 483.212 87.1927   6
  10   4   0 1150.88 160.880   7
  10  -4   0 1715.51 147.069   6
  10   4   1 13379.4 484.271   7
  10  -4   1 13428.2 390.654   6
  10   4   2 1950.03 178.574   7
  10   4   3 353.704 76.0335   7
  10   4   4 6319.07 256.786   7
 -10  -4  -5 2811.01 140.722   5
 -10  -5  12 215.931 60.6811   3
 -10  -5  11 20246.3 468.622   3
 -10  -5  10 4958.93 249.986   3
 -10  -5   9 37637.5 699.299   3
 -10  -5   8 4547.60 255.688   3
 -10  -5   7 1398.42 148.964   3
  10  -5  -7 1893.19 128.047   6
  10  -5  -6 4179.74 194.683   6
  10   5  -5 6535.24 377.557   7
  10  -5  -5 7177.68 263.698   6
  10   5  -4 443.056 108.202   7
  10  -5  -4 584.050 84.7369   6
  10   5  -3 16698.9 528.811   7
  10  -5  -3 15830.8 405.500   6
  10   5  -2 6964.07 327.858   7
  10  -5  -2 5923.42 246.070   6
  10   5  -1 573.980 99.8169   7
  10  -5  -1 586.703 82.7392   6
  10  -5   0 5833.59 233.791   6
  10  -6  -4 365.303 53.8936   6
  10  -6  -3 2852.65 136.622   6
  10  -6  -2 192.731 43.1972   6
 -11   0  16-12.0318 31.2472   9
 -11   0  15 25566.7 503.416   9
 -11   0  14 24.8722 46.1950   9
 -11   0  13 30119.4 645.425   9
 -11   0  12 36.7511 50.1770   9
 -11   0  11 26874.6 666.053   9
 -11   0  10 4.97139 58.4656   9
 -11   0   9 23307.1 653.004   9
 -11   0   8 15.4559 56.6867   9
  11   0  -7 12567.8 523.443   7
 -11   0   7 12623.7 502.378   9
 -11   0   6 51.5898 64.3718   9
  11   0  -6 33.2813 69.8867   7
  11   0  -5 6259.86 376.380   7
 -11   0   5 6120.04 349.700   9
 -11   0   4 14.6270 58.4030   9
  11   0  -4-15.4180 66.1188   7
  11   0  -3 31502.9 830.250   7
  11   0  -2 42.9591 69.8388   7
  11   0  -1 2328.63 230.440   7
  11   0   0 53.8216 73.1452   7
  11   0   1 3530.60 261.601   7
  11   0   2 84.7019 64.7521   7
  11   0   3 335.248 86.1446   7
  11   0   4-10.2397 50.4082   7
  11   0   5 7067.10 287.856   7
  11   0   6 97.9363 48.0379   7
  11   0   7 25414.4 435.076   7
 -11  -1  16 20123.1 396.794   9
 -11  -1  15 1583.69 126.878   3
 -11   1  15 1536.98 118.502   9
 -11  -1  15 1605.15 129.563   9
 -11  -1  14 647.546 93.9556   3
 -11   1  14 621.786 89.4415   9
 -11  -1  14 632.555 94.3786   9
 -11  -1  13 9358.39 342.166   3
 -11   1  13 10318.1 362.012   9
 -11  -1  13 9763.17 361.935   9
 -11  -1  12 4993.53 263.643   3
 -11   1  12 5035.73 270.365   9
 -11  -1  12 5071.39 273.557   9
 -11  -1  11 690.872 112.782   3
 -11   1  11 738.882 121.553   9
 -11  -1  11 817.931 120.601   9
 -11  -1  10 4201.83 259.376   3
 -11   1  10 4221.09 275.172   9
 -11  -1  10 4223.06 268.855   9
 -11  -1   9 16703.5 523.866   3
 -11   1   9 18145.9 570.590   9
 -11  -1   9 17064.0 540.365   9
 -11  -1   8 4250.08 269.294   3
 -11  -1   8 4122.44 278.234   9
 -11  -1   7 13189.5 479.234   3
 -11   1   7 13936.3 520.544   9
 -11  -1   7 13227.3 496.892   9
 -11  -1   6 2677.15 223.170   3
 -11   1   6 3243.81 251.194   9
 -11  -1   6 3056.40 245.820   9
 -11  -1   5 8000.47 376.015   3
  11   1  -5 7525.41 435.886   7
 -11   1   5 8457.96 404.979   9
 -11  -1   5 8362.14 392.500   9
  11  -1  -4 1786.64 188.704   7
  11   1  -4 1651.04 209.667   7
 -11  -1   4 2176.91 203.300   9
  11  -1  -3 5250.84 319.497   7
  11   1  -3 5574.69 362.924   7
  11  -1  -2 1379.49 169.853   7
  11   1  -2 1511.97 202.052   7
  11  -1  -1 90.5428 79.6950   7
  11   1  -1 98.1429 86.9639   7
  11  -1   0 1320.75 159.944   7
  11   1   0 1340.06 178.313   7
  11  -1   1 9827.80 403.068   7
  11   1   1 10068.4 441.095   7
  11  -1   2 1105.25 134.655   7
  11   1   2 1103.32 150.325   7
  11  -1   3 10122.3 373.471   7
  11   1   3 10660.3 404.121   7
  11  -1   4 14411.1 416.576   7
  11   1   4 15573.6 456.416   7
  11  -1   5 117.561 45.7369   7
  11   1   5 132.196 59.7154   7
  11  -1   6 875.416 92.1710   7
  11   1   6 825.573 94.3426   7
 -11  -2  15 1402.14 114.015   3
 -11  -2  15 1475.10 111.171   9
 -11  -2  14 2298.41 159.207   3
 -11  -2  14 2257.23 149.958   9
 -11   2  13 239.911 55.5859   9
 -11  -2  13 258.066 63.8882   9
 -11  -2  13 303.244 79.2207   3
 -11  -2  12 17444.5 477.490   3
 -11   2  12 18822.5 450.838   9
 -11  -2  12 17772.4 465.297   9
 -11  -2  11 848.535 118.547   3
 -11   2  11 958.656 116.436   9
 -11  -2  11 798.485 107.056   9
 -11  -2  10 5952.29 301.729   3
 -11   2  10 6804.53 306.351   9
 -11  -2  10 6352.34 299.449   9
 -11  -2   9 5228.31 290.187   3
 -11   2   9 5351.36 283.325   9
 -11  -2   9 5169.08 274.575   9
 -11  -2   8 5813.12 311.019   3
 -11   2   8 6266.03 311.963   9
 -11  -2   8 5431.65 292.235   9
 -11  -2   7 9365.31 398.796   3
 -11  -2   7 9572.23 389.294   9
 -11  -2   6 47.7394 53.5410   9
 -11  -2   6 6.58832 66.3552   3
 -11  -2   5 919.028 144.333   3
 -11  -2   5 550.312 104.053   9
  11   2  -4 38885.7 947.936   7
  11   2  -3 42002.9 970.221   7
  11   2  -2 2096.62 224.115   7
  11   2  -1 90.1458 79.9298   7
  11   2   0 8601.08 411.329   7
  11   2   1 997.900 149.244   7
  11  -2   2 1382.63 126.766   7
  11   2   2 1589.97 168.577   7
  11  -2   3 6396.11 252.326   7
  11   2   3 7074.71 317.067   7
  11  -2   4 3777.68 182.862   7
  11   2   4 4110.87 223.355   7
  11   2   5 192.963 57.8858   7
 -11  -3  14 7628.81 252.716   3
 -11  -3  13 10068.2 320.609   3
 -11  -3  13 10521.0 285.255   9
 -11  -3  12 721.918 97.0497   3
 -11  -3  12 708.492 83.8860   9
 -11  -3  11 10905.6 368.392   3
 -11  -3  11 10767.2 324.838   9
 -11  -3  10 13394.7 420.103   3
 -11  -3  10 12939.9 372.758   9
 -11  -3   9 9212.99 363.444   3
 -11  -3   9 9253.28 324.067   9
 -11  -3   8 19118.4 535.027   3
 -11  -3   8 19408.2 475.617   9
 -11  -3   7 2477.39 205.210   3
 -11  -3   7 2463.36 172.535   9
 -11  -3   6 518.608 113.466   3
 -11  -3   6 413.931 78.4430   9
  11   3  -5 27224.2 783.327   7
 -11  -3   5 27212.0 658.375   3
  11   3  -4 2840.89 248.818   7
  11   3  -3 15631.9 556.311   7
  11   3  -2 4583.01 299.857   7
  11   3  -1 1894.55 193.163   7
  11   3   0 99.5682 66.7320   7
  11   3   1 652.715 108.372   7
  11   3   2 4716.47 246.101   7
  11   3   3 8999.89 312.920   7
  11   3   4 2159.58 139.319   7
 -11  -4  12 1613.31 122.213   3
 -11  -4  11 43361.4 646.976   3
 -11  -4  10 29728.3 562.471   3
 -11  -4   9 2034.30 161.547   3
 -11  -4   8 3298.01 203.828   3
 -11  -4   7 1181.95 132.266   3
  11   4  -6 2003.20 202.396   7
  11   4  -5 2930.61 227.879   7
  11   4  -4 2568.26 209.622   7
  11   4  -3 10863.9 410.022   7
  11   4  -2 13784.7 446.294   7
  11   4  -1 47755.7 791.464   7
  11   4   0 2202.36 165.915   7
  11   4   1 771.510 94.4807   7
 -12   0  13 24.6819 33.1103   9
 -12   0  12 298.184 62.3114   9
 -12   0  11 6.63798 40.0273   9
 -12   0  10 6483.54 274.025   9
 -12   0   9-6.55348 41.3131   9
  12   0  -8 7178.23 279.513   7
 -12   0   8 6606.73 290.508   9
  12   0  -7 14.8372 43.4473   7
  12   0  -6 1855.78 159.466   7
  12   0  -5 35.1161 54.5067   7
  12   0  -4 7357.73 320.463   7
  12   0  -3 28.5103 50.4711   7
  12   0  -2 42617.8 743.125   7
  12   0  -1 12.2884 49.8099   7
  12   0   0 1420.73 133.018   7
  12   0   1 54.5313 43.2448   7
  12   0   2 17873.8 399.482   7
 -12  -1  13 174.305 45.1103   9
 -12   1  12 4041.61 181.121   9
 -12  -1  12 3950.60 191.671   9
  12   1 -11 28689.1 496.760   7
 -12   1  11 29655.2 527.231   9
 -12  -1  11 29082.3 538.062   9
 -12  -1  10 332.558 72.3032   3
 -12  -1  10 417.777 75.1392   9
  12   1  -9 3853.75 217.168   7
 -12  -1   9 3795.03 210.368   9
 -12  -1   9 3323.59 185.195   3
  12   1  -8 10783.7 375.612   7
 -12  -1   8 10805.7 356.667   9
  12   1  -7 15716.0 466.369   7
  12   1  -6 4486.09 258.371   7
  12   1  -5 3672.48 236.393   7
  12   1  -4 7351.20 332.984   7
  12   1  -3 494.813 100.098   7
  12  -1  -2 19600.5 439.423   7
  12   1  -2 20771.2 541.241   7
  12  -1  -1 9258.81 294.326   7
  12   1  -1 9964.61 364.399   7
  12  -1   0 2778.01 158.183   7
  12   1   0 3255.99 201.826   7
  12  -1   1 8350.98 254.524   7
  12   1   1 9644.48 322.282   7
  12   1   2 6189.56 242.183   7
 -12  -2  12 6321.66 206.771   9
 -12  -2  11 24265.6 435.103   3
  12   2 -11 25654.4 486.621   7
 -12  -2  11 25158.4 436.368   9
 -12  -2  10 32.4255 35.6651   9
 -12  -2  10 60.6578 48.1959   3
  12   2 -10 64.8372 47.0308   7
 -12  -2   9 333.827 70.7012   3
  12   2  -9 152.332 57.6390   7
 -12  -2   9 318.037 62.0447   9
  12   2  -8 42.3274 55.5860   7
  12   2  -7 1230.66 135.905   7
  12   2  -6 4498.61 255.462   7
  12   2  -5 2011.48 177.602   7
  12   2  -4 15219.7 465.621   7
  12   2  -3 103612. 1196.82   7
  12   2  -2 1930.77 167.742   7
  12   2  -1 563.622 94.5476   7
  12   2   0 79.0297 51.5230   7
  12   2   1 3722.68 191.038   7
  12   3 -10 13951.3 352.779   7
  12   3  -9 2504.16 162.948   7
  12   3  -8 15595.7 411.783   7
  12   3  -7 5985.79 263.161   7
  12   3  -6 3731.76 213.089   7
  12   3  -5 10001.3 344.075   7
  12   3  -4 360.615 79.9779   7
  12   3  -3 8168.76 304.637   7
  12   3  -2 114.336 55.1954   7
  12   3  -1 5515.47 227.405   7
   0   0   0    0.00    0.00   0

TITL diant_b in P2(1)/n
REM P2(1)/n (#14 in standard setting)
CELL 1.54184  10.420637   7.930106  18.775877  90.0000 104.0585  90.0000
ZERR    4.00   0.000270   0.000222   0.000514   0.0000   0.0028   0.0000
LATT  1
SYMM -x+1/2, y+1/2,-z+1/2
SFAC C H O S
UNIT 68.00 64.00 12.00 4.00
TREF
HKLF 4
END
;
_shelx_hkl_checksum              18674
_olex2_submission_special_instructions 'No special instructions were received'
_oxdiff_exptl_absorpt_empirical_details
;
Empirical correction (ABSPACK) includes:
- Absorption correction using spherical harmonics
- Frame scaling
;
_oxdiff_exptl_absorpt_empirical_full_max 1.455
_oxdiff_exptl_absorpt_empirical_full_min 0.618
loop_
_space_group_symop_operation_xyz
'x, y, z'
'-x+1/2, y+1/2, -z+1/2'
'-x, -y, -z'
'x-1/2, -y-1/2, z-1/2'
loop_
_atom_site_label
_atom_site_type_symbol
_atom_site_fract_x
_atom_site_fract_y
_atom_site_fract_z
_atom_site_U_iso_or_equiv
_atom_site_adp_type
_atom_site_occupancy
_atom_site_site_symmetry_order
_atom_site_calc_flag
_atom_site_refinement_flags_posn
S1S S 0.80205(5) -0.11609(6) 0.30026(3) 0.0339(2) Uani 1 1 d .
O2S O 0.84838(15) 0.0587(2) 0.32500(9) 0.0388(4) Uani 1 1 d .
C3S C 0.6263(3) -0.0966(4) 0.26737(18) 0.0615(8) Uani 1 1 d .
H3SA H 0.588611 -0.053899 0.306855 0.092 Uiso 1 1 calc GR
H3SB H 0.588148 -0.207316 0.251420 0.092 Uiso 1 1 calc GR
H3SC H 0.606085 -0.018069 0.225861 0.092 Uiso 1 1 calc GR
C4S C 0.8012(4) -0.2371(4) 0.37855(19) 0.0722(10) Uani 1 1 d .
H4SA H 0.891887 -0.248831 0.408582 0.108 Uiso 1 1 calc GR
H4SB H 0.764606 -0.348946 0.363475 0.108 Uiso 1 1 calc GR
H4SC H 0.746721 -0.180896 0.407263 0.108 Uiso 1 1 calc GR
O5 O 0.63187(17) 0.08658(18) 0.43459(9) 0.0385(4) Uani 1 1 d .
O6 O 0.74340(13) 0.28625(17) 0.39159(8) 0.0269(3) Uani 1 1 d .
H6 H 0.773(3) 0.203(4) 0.3712(14) 0.040 Uiso 1 1 d R
C4 C 0.65774(16) 0.2333(2) 0.42857(9) 0.0205(4) Uani 1 1 d .
C21 C 0.50009(16) 0.6976(2) 0.49008(9) 0.0184(4) Uani 1 1 d .
H21 H 0.489183 0.822929 0.489468 0.022 Uiso 1 1 calc R
C22 C 0.64524(16) 0.6597(2) 0.51991(9) 0.0191(4) Uani 1 1 d .
C23 C 0.73117(18) 0.7774(2) 0.56113(10) 0.0246(4) Uani 1 1 d .
H23 H 0.698281 0.883928 0.571558 0.030 Uiso 1 1 calc R
C24 C 0.86445(19) 0.7405(3) 0.58712(11) 0.0305(4) Uani 1 1 d .
H24 H 0.922994 0.821856 0.614628 0.037 Uiso 1 1 calc R
C25 C 0.91149(18) 0.5842(3) 0.57268(10) 0.0303(4) Uani 1 1 d .
H25 H 1.002618 0.558186 0.590680 0.036 Uiso 1 1 calc R
C26 C 0.82650(17) 0.4648(2) 0.53203(10) 0.0246(4) Uani 1 1 d .
H26 H 0.859572 0.357309 0.522994 0.030 Uiso 1 1 calc R
C27 C 0.69299(16) 0.5023(2) 0.50451(9) 0.0186(4) Uani 1 1 d .
C28 C 0.59127(16) 0.3797(2) 0.45987(9) 0.0171(4) Uani 1 1 d .
C29 C 0.50572(15) 0.4789(2) 0.39493(9) 0.0180(4) Uani 1 1 d .
C30 C 0.46964(17) 0.4190(2) 0.32339(10) 0.0220(4) Uani 1 1 d .
H30 H 0.499252 0.311168 0.312132 0.026 Uiso 1 1 calc R
C31 C 0.39033(19) 0.5159(3) 0.26804(10) 0.0273(4) Uani 1 1 d .
H31 H 0.366824 0.474590 0.219096 0.033 Uiso 1 1 calc R
C32 C 0.34566(19) 0.6722(3) 0.28404(10) 0.0299(4) Uani 1 1 d .
H32 H 0.291741 0.738450 0.246212 0.036 Uiso 1 1 calc R
C33 C 0.38006(18) 0.7319(2) 0.35581(10) 0.0254(4) Uani 1 1 d .
H33 H 0.348701 0.838837 0.366911 0.030 Uiso 1 1 calc R
C34 C 0.45989(16) 0.6366(2) 0.41149(9) 0.0188(4) Uani 1 1 d .
loop_
_atom_site_aniso_label
_atom_site_aniso_U_11
_atom_site_aniso_U_22
_atom_site_aniso_U_33
_atom_site_aniso_U_23
_atom_site_aniso_U_13
_atom_site_aniso_U_12
S1S 0.0456(3) 0.0219(3) 0.0431(3) -0.00692(19) 0.0278(2) -0.00425(19)
O2S 0.0382(8) 0.0289(8) 0.0587(10) -0.0168(7) 0.0299(7) -0.0096(6)
C3S 0.0496(15) 0.0638(19) 0.0699(19) -0.0274(15) 0.0119(13) -0.0175(13)
C4S 0.116(3) 0.0453(17) 0.072(2) 0.0231(14) 0.054(2) 0.0296(17)
O5 0.0569(10) 0.0166(7) 0.0534(9) -0.0019(6) 0.0355(8) 0.0034(6)
O6 0.0276(7) 0.0226(7) 0.0350(7) -0.0070(5) 0.0163(5) -0.0005(5)
C4 0.0210(8) 0.0191(9) 0.0216(8) -0.0019(6) 0.0056(6) 0.0022(6)
C21 0.0213(8) 0.0123(8) 0.0224(8) -0.0001(6) 0.0070(6) 0.0003(6)
C22 0.0214(8) 0.0172(8) 0.0199(8) 0.0001(6) 0.0073(6) -0.0012(6)
C23 0.0269(9) 0.0210(9) 0.0268(9) -0.0051(7) 0.0082(7) -0.0038(7)
C24 0.0265(9) 0.0337(11) 0.0303(9) -0.0089(8) 0.0048(7) -0.0099(8)
C25 0.0185(8) 0.0407(11) 0.0297(9) -0.0040(8) 0.0021(7) -0.0010(8)
C26 0.0214(8) 0.0261(9) 0.0259(9) -0.0020(7) 0.0050(7) 0.0028(7)
C27 0.0196(8) 0.0182(8) 0.0185(7) -0.0004(6) 0.0055(6) -0.0008(6)
C28 0.0171(7) 0.0152(8) 0.0197(8) -0.0006(6) 0.0060(6) 0.0015(6)
C29 0.0159(7) 0.0165(8) 0.0215(8) 0.0012(6) 0.0047(6) -0.0010(6)
C30 0.0222(8) 0.0204(8) 0.0238(8) -0.0016(7) 0.0063(6) -0.0024(7)
C31 0.0285(9) 0.0326(10) 0.0196(8) -0.0005(7) 0.0036(7) -0.0037(8)
C32 0.0300(9) 0.0328(10) 0.0248(9) 0.0082(8) 0.0028(7) 0.0046(8)
C33 0.0268(9) 0.0224(9) 0.0274(9) 0.0051(7) 0.0075(7) 0.0057(7)
C34 0.0185(7) 0.0174(8) 0.0217(8) 0.0014(6) 0.0071(6) 0.0000(6)
loop_
_atom_type_symbol
_atom_type_description
_atom_type_scat_dispersion_real
_atom_type_scat_dispersion_imag
_atom_type_scat_source
C C 0.0181 0.0091 'International Tables Vol C Tables 4.2.6.8 and 6.1.1.4'
H H 0.0000 0.0000 'International Tables Vol C Tables 4.2.6.8 and 6.1.1.4'
O O 0.0492 0.0322 'International Tables Vol C Tables 4.2.6.8 and 6.1.1.4'
S S 0.3331 0.5567 'International Tables Vol C Tables 4.2.6.8 and 6.1.1.4'
loop_
_exptl_crystal_face_index_h
_exptl_crystal_face_index_k
_exptl_crystal_face_index_l
_exptl_crystal_face_perp_dist
1 0 -1 0.2285
-1 0 1 0.1665
0 -1 0 0.3162
0 1 0 0.3162
0 -1 1 0.3041
0 1 -1 0.3071
0 0 -1 0.1039
0 0 1 0.1983
0 -1 -1 0.2923
loop_
_geom_angle_atom_site_label_1
_geom_angle_atom_site_label_2
_geom_angle_atom_site_label_3
_geom_angle
_geom_angle_site_symmetry_1
_geom_angle_site_symmetry_3
O2S S1S C3S 104.58(12) . .
O2S S1S C4S 108.13(15) . .
C4S S1S C3S 97.06(18) . .
S1S C3S H3SA 109.5 . .
S1S C3S H3SB 109.5 . .
S1S C3S H3SC 109.5 . .
H3SA C3S H3SB 109.5 . .
H3SA C3S H3SC 109.5 . .
H3SB C3S H3SC 109.5 . .
S1S C4S H4SA 109.5 . .
S1S C4S H4SB 109.5 . .
S1S C4S H4SC 109.5 . .
H4SA C4S H4SB 109.5 . .
H4SA C4S H4SC 109.5 . .
H4SB C4S H4SC 109.5 . .
C4 O6 H6 110.8(19) . .
O5 C4 O6 123.32(16) . .
O5 C4 C28 124.08(16) . .
O6 C4 C28 112.55(14) . .
C22 C21 H21 107.6 . .
C22 C21 C28 112.83(13) . 3_666
C22 C21 C34 108.26(13) . .
C28 C21 H21 107.6 3_666 .
C34 C21 H21 107.6 . .
C34 C21 C28 112.59(13) . 3_666
C23 C22 C21 121.61(16) . .
C23 C22 C27 120.00(16) . .
C27 C22 C21 118.38(15) . .
C22 C23 H23 119.7 . .
C24 C23 C22 120.56(18) . .
C24 C23 H23 119.7 . .
C23 C24 H24 120.3 . .
C25 C24 C23 119.49(17) . .
C25 C24 H24 120.3 . .
C24 C25 H25 119.7 . .
C24 C25 C26 120.56(17) . .
C26 C25 H25 119.7 . .
C25 C26 H26 119.9 . .
C25 C26 C27 120.22(17) . .
C27 C26 H26 119.9 . .
C22 C27 C28 116.50(14) . .
C26 C27 C22 119.14(16) . .
C26 C27 C28 124.33(16) . .
C4 C28 C21 108.64(13) . 3_666
C4 C28 C29 108.09(13) . .
C27 C28 C4 111.86(13) . .
C27 C28 C21 110.55(13) . 3_666
C27 C28 C29 107.46(13) . .
C29 C28 C21 110.21(13) . 3_666
C30 C29 C28 124.06(15) . .
C30 C29 C34 119.60(15) . .
C34 C29 C28 116.31(14) . .
C29 C30 H30 119.8 . .
C29 C30 C31 120.38(17) . .
C31 C30 H30 119.8 . .
C30 C31 H31 119.9 . .
C32 C31 C30 120.21(17) . .
C32 C31 H31 119.9 . .
C31 C32 H32 120.2 . .
C31 C32 C33 119.66(17) . .
C33 C32 H32 120.2 . .
C32 C33 H33 119.7 . .
C34 C33 C32 120.65(18) . .
C34 C33 H33 119.7 . .
C29 C34 C21 118.29(15) . .
C33 C34 C21 122.22(16) . .
C33 C34 C29 119.50(16) . .
loop_
_geom_bond_atom_site_label_1
_geom_bond_atom_site_label_2
_geom_bond_distance
_geom_bond_site_symmetry_2
S1S O2S 1.5037(15) .
S1S C3S 1.791(3) .
S1S C4S 1.757(3) .
C3S H3SA 0.9800 .
C3S H3SB 0.9800 .
C3S H3SC 0.9800 .
C4S H4SA 0.9800 .
C4S H4SB 0.9800 .
C4S H4SC 0.9800 .
O5 C4 1.206(2) .
O6 H6 0.86(3) .
O6 C4 1.325(2) .
C4 C28 1.540(2) .
C21 H21 1.0000 .
C21 C22 1.510(2) .
C21 C28 1.613(2) 3_666
C21 C34 1.512(2) .
C22 C23 1.391(2) .
C22 C27 1.399(2) .
C23 H23 0.9500 .
C23 C24 1.387(3) .
C24 H24 0.9500 .
C24 C25 1.384(3) .
C25 H25 0.9500 .
C25 C26 1.391(3) .
C26 H26 0.9500 .
C26 C27 1.394(2) .
C27 C28 1.530(2) .
C28 C29 1.540(2) .
C29 C30 1.388(2) .
C29 C34 1.400(2) .
C30 H30 0.9500 .
C30 C31 1.392(3) .
C31 H31 0.9500 .
C31 C32 1.382(3) .
C32 H32 0.9500 .
C32 C33 1.391(3) .
C33 H33 0.9500 .
C33 C34 1.390(2) .
loop_
_geom_torsion_atom_site_label_1
_geom_torsion_atom_site_label_2
_geom_torsion_atom_site_label_3
_geom_torsion_atom_site_label_4
_geom_torsion
_geom_torsion_site_symmetry_1
_geom_torsion_site_symmetry_4
O5 C4 C28 C21 7.7(2) . 3_666
O5 C4 C28 C27 130.02(19) . .
O5 C4 C28 C29 -111.9(2) . .
O6 C4 C28 C21 -174.75(13) . 3_666
O6 C4 C28 C27 -52.44(18) . .
O6 C4 C28 C29 65.66(17) . .
C4 C28 C29 C30 15.1(2) . .
C4 C28 C29 C34 -166.89(14) . .
C21 C22 C23 C24 -179.13(17) . .
C21 C22 C27 C26 -179.57(15) . .
C21 C22 C27 C28 -1.6(2) . .
C21 C28 C29 C30 -103.46(18) 3_666 .
C21 C28 C29 C34 74.52(17) 3_666 .
C22 C21 C34 C29 43.3(2) . .
C22 C21 C34 C33 -136.47(17) . .
C22 C23 C24 C25 -0.9(3) . .
C22 C27 C28 C4 164.57(14) . .
C22 C27 C28 C21 -74.22(18) . 3_666
C22 C27 C28 C29 46.08(19) . .
C23 C22 C27 C26 1.1(2) . .
C23 C22 C27 C28 179.09(15) . .
C23 C24 C25 C26 0.4(3) . .
C24 C25 C26 C27 0.9(3) . .
C25 C26 C27 C22 -1.6(3) . .
C25 C26 C27 C28 -179.43(17) . .
C26 C27 C28 C4 -17.6(2) . .
C26 C27 C28 C21 103.64(18) . 3_666
C26 C27 C28 C29 -136.05(17) . .
C27 C22 C23 C24 0.2(3) . .
C27 C28 C29 C30 136.02(16) . .
C27 C28 C29 C34 -46.00(19) . .
C28 C21 C22 C23 -98.72(18) 3_666 .
C28 C21 C22 C27 81.98(18) 3_666 .
C28 C21 C34 C29 -82.17(18) 3_666 .
C28 C21 C34 C33 98.09(19) 3_666 .
C28 C29 C30 C31 179.05(16) . .
C28 C29 C34 C21 1.4(2) . .
C28 C29 C34 C33 -178.82(15) . .
C29 C30 C31 C32 -0.7(3) . .
C30 C29 C34 C21 179.51(15) . .
C30 C29 C34 C33 -0.7(2) . .
C30 C31 C32 C33 -0.2(3) . .
C31 C32 C33 C34 0.6(3) . .
C32 C33 C34 C21 179.63(17) . .
C32 C33 C34 C29 -0.1(3) . .
C34 C21 C22 C23 135.98(16) . .
C34 C21 C22 C27 -43.3(2) . .
C34 C29 C30 C31 1.1(3) . .
loop_
_exptl_oxdiff_crystal_face_indexfrac_h
_exptl_oxdiff_crystal_face_indexfrac_k
_exptl_oxdiff_crystal_face_indexfrac_l
_exptl_oxdiff_crystal_face_x
_exptl_oxdiff_crystal_face_y
_exptl_oxdiff_crystal_face_z
0.9965 -0.0119 -0.9921 -0.1117 0.1056 -0.0185
-0.9965 0.0119 0.9921 0.1117 -0.1056 0.0185
-0.0245 -0.9980 0.0277 -0.0115 0.0201 0.1924
0.0245 0.9980 -0.0277 0.0115 -0.0201 -0.1924
-0.0265 -0.9949 1.0284 -0.0483 -0.0558 0.1982
0.0265 0.9949 -1.0284 0.0483 0.0558 -0.1982
0.0020 -0.0030 -1.0007 0.0368 0.0759 -0.0058
-0.0020 0.0030 1.0007 -0.0368 -0.0759 0.0058
-0.0225 -1.0010 -0.9730 0.0252 0.0961 0.1865
