#------------------------------------------------------------------------------
#$Date: 2019-11-26 04:15:45 +0200 (Tue, 26 Nov 2019) $
#$Revision: 242586 $
#$URL: file:///home/coder/svn-repositories/cod/cif/4/13/26/4132639.cif $
#------------------------------------------------------------------------------
#
# This file is available in the Crystallography Open Database (COD),
# http://www.crystallography.net/
#
# All data on this site have been placed in the public domain by the
# contributors.
#
data_4132639
loop_
_publ_author_name
'Lee, Seungkyu'
'B\"urgi, Hans-Beat'
'Alshmimri, Sultan A.'
'Yaghi, Omar M.'
_publ_section_title
;
 Impact of Disordered Guest-Framework Interactions on the Crystallography
 of Metal-Organic Frameworks.
;
_journal_issue                   28
_journal_name_full               'Journal of the American Chemical Society'
_journal_page_first              8958
_journal_page_last               8964
_journal_paper_doi               10.1021/jacs.8b05271
_journal_volume                  140
_journal_year                    2018
_chemical_formula_moiety         '0.5(C85.44 H42.72 O56 Zr12), 4(H1 O1)'
_chemical_formula_sum            'C42.7 H25.4 O32.04 Zr6'
_chemical_formula_weight         1598.39
_chemical_name_systematic        UiO-66
_space_group_crystal_system      cubic
_space_group_IT_number           225
_space_group_name_Hall           '-F 4 2 3'
_space_group_name_H-M_alt        'F m -3 m'
_atom_sites_solution_hydrogens   mixed
_audit_creation_date             2018-04-24
_audit_creation_method
;
Olex2 1.2
(compiled 2017.08.10 svn.r3458 for OlexSys, GUI svn.r5381)
;
_cell_angle_alpha                90
_cell_angle_beta                 90
_cell_angle_gamma                90
_cell_formula_units_Z            4
_cell_length_a                   20.7549(6)
_cell_length_b                   20.7549(6)
_cell_length_c                   20.7549(6)
_cell_measurement_reflns_used    5248
_cell_measurement_temperature    100.15
_cell_measurement_theta_max      28.53
_cell_measurement_theta_min      2.85
_cell_volume                     8940.5(4)
_computing_cell_refinement       'SAINT V8.38A (?, 2016)'
_computing_data_reduction        'SAINT V8.38A (?, 2016)'
_computing_molecular_graphics    'Olex2 (Dolomanov et al., 2009)'
_computing_publication_material  'Olex2 (Dolomanov et al., 2009)'
_computing_structure_refinement  'ShelXL (Sheldrick, 2015)'
_diffrn_ambient_temperature      100.15
_diffrn_detector                 'Bruker Photon 2'
_diffrn_detector_area_resol_mean 7.9
_diffrn_detector_type            'Bruker Photon 2'
_diffrn_measured_fraction_theta_full 1.000
_diffrn_measured_fraction_theta_max 0.985
_diffrn_measurement_device       'three-circle diffractometer'
_diffrn_measurement_device_type  'Bruker Photon 2'
_diffrn_measurement_method       '\f and \w scans'
_diffrn_radiation_monochromator  'silicon 111'
_diffrn_radiation_probe          x-ray
_diffrn_radiation_type           Synchrotron
_diffrn_radiation_wavelength     0.7288
_diffrn_reflns_av_R_equivalents  0.1209
_diffrn_reflns_av_unetI/netI     0.0488
_diffrn_reflns_Laue_measured_fraction_full 1.000
_diffrn_reflns_Laue_measured_fraction_max 0.985
_diffrn_reflns_limit_h_max       25
_diffrn_reflns_limit_h_min       -27
_diffrn_reflns_limit_k_max       27
_diffrn_reflns_limit_k_min       -22
_diffrn_reflns_limit_l_max       22
_diffrn_reflns_limit_l_min       -22
_diffrn_reflns_number            13244
_diffrn_reflns_point_group_measured_fraction_full 1.000
_diffrn_reflns_point_group_measured_fraction_max 0.985
_diffrn_reflns_theta_full        25.930
_diffrn_reflns_theta_max         29.011
_diffrn_reflns_theta_min         1.743
_diffrn_standards_number         0
_exptl_absorpt_coefficient_mu    0.784
_exptl_absorpt_correction_T_max  0.5732
_exptl_absorpt_correction_T_min  0.4619
_exptl_absorpt_correction_type   multi-scan
_exptl_absorpt_process_details
'SADABS-2016/2 (Bruker,2016/2) was used for absorption correction. wR2(int) was 0.1427 before and 0.1161 after correction. The Ratio of minimum to maximum transmission is 0.8058. The \l/2 correction factor is Not present.'
_exptl_crystal_colour            clear
_exptl_crystal_colour_lustre     clear
_exptl_crystal_density_diffrn    1.187
_exptl_crystal_description       'Truncated octahedron'
_exptl_crystal_F_000             3112
_exptl_crystal_size_max          0.12
_exptl_crystal_size_mid          0.12
_exptl_crystal_size_min          0.12
_platon_squeeze_details
;
TITL shelx     F m -3 m     R = 0.07
CELL   20.7549   20.7549   20.7549     90.00     90.00     90.00
SPGR Fm-3m
# Solvent Accessible Volume =      4614
# Electrons Found in S.A.V. =      1436
# Note: Atoms in Void are Labelled as Cxxx and Qxxx for all Others
C101 0.824 0.171 0.239 !       1.88 eA-3
Q102 0.646 0.365 0.135 !       1.73 eA-3
C103 0.173 0.173 0.173 !       1.23 eA-3
C104 0.658 0.287 0.287 !       1.16 eA-3
C105 0.162 0.208 0.208 !       1.15 eA-3
C106 0.188 0.282 0.195 !       1.15 eA-3
C107 0.658 0.250 0.250 !       1.09 eA-3
C108 0.408 0.092 0.092 !       1.04 eA-3
C109 0.162 0.500 0.000 !       1.02 eA-3
C110 0.661 0.652 0.348 !       1.00 eA-3
C111 0.161 0.152 0.348 !       1.00 eA-3
C112 0.339 0.839 0.839 !       0.99 eA-3
C113 0.563 0.437 0.437 !       0.86 eA-3
C114 0.152 0.342 0.301 !       0.84 eA-3
Q115 1.000 0.499 0.234 !       0.81 eA-3
C116 0.874 0.361 0.129 !       0.79 eA-3
C117 0.301 0.144 0.144 !       0.78 eA-3
Q118 0.630 0.308 0.192 !       0.76 eA-3
Q119 0.630 0.808 0.692 !       0.76 eA-3
Q120 0.870 0.692 0.308 !       0.76 eA-3
Q121 0.183 0.808 0.880 !       0.76 eA-3
C122 0.859 0.251 0.139 !       0.74 eA-3
Q123 0.566 0.297 0.001 !       0.73 eA-3
C124 0.500 0.112 0.035 !       0.70 eA-3
C125 0.980 0.102 0.419 !       0.70 eA-3
Q126 0.098 0.236 0.125 !       0.70 eA-3
Q127 0.713 0.379 0.823 !       0.69 eA-3
Q128 0.104 0.301 0.301 !       0.67 eA-3
C129 0.119 0.400 0.121 !       0.65 eA-3
C130 0.109 0.484 0.106 !       0.64 eA-3
C131 0.731 0.262 0.238 !       0.64 eA-3
Q132 0.500 0.081 0.220 !       0.58 eA-3
Q133 0.036 0.265 0.265 !       0.58 eA-3
Q134 0.804 0.463 0.064 !       0.55 eA-3
C135 0.537 0.401 0.469 !       0.51 eA-3
;
_refine_diff_density_max         0.716
_refine_diff_density_min         -0.540
_refine_diff_density_rms         0.099
_refine_ls_extinction_coef       0.00018(6)
_refine_ls_extinction_expression Fc^*^=kFc[1+0.001xFc^2^\l^3^/sin(2\q)]^-1/4^
_refine_ls_extinction_method     'SHELXL-2017/1 (Sheldrick 2017)'
_refine_ls_goodness_of_fit_ref   1.104
_refine_ls_hydrogen_treatment    mixed
_refine_ls_matrix_type           full
_refine_ls_number_parameters     34
_refine_ls_number_reflns         608
_refine_ls_number_restraints     1
_refine_ls_restrained_S_all      1.103
_refine_ls_R_factor_all          0.0439
_refine_ls_R_factor_gt           0.0384
_refine_ls_shift/su_max          0.000
_refine_ls_shift/su_mean         0.000
_refine_ls_structure_factor_coef Fsqd
_refine_ls_weighting_details
'w=1/[\s^2^(Fo^2^)+(0.0508P)^2^+69.3864P] where P=(Fo^2^+2Fc^2^)/3'
_refine_ls_weighting_scheme      calc
_refine_ls_wR_factor_gt          0.1008
_refine_ls_wR_factor_ref         0.1043
_reflns_Friedel_coverage         0.000
_reflns_number_gt                523
_reflns_number_total             608
_reflns_threshold_expression     'I > 2\s(I)'
_iucr_refine_instructions_details
;
TITL AN_100K1_DMF in Fm-3m #225
    platon_sq.res
    created by SHELXL-2017/1 at 14:18:51 on 24-Apr-2018
REM reset to Fm-3m #225
CELL 0.7288 20.7549 20.7549 20.7549 90 90 90
ZERR 4 0.0006 0.0006 0.0006 0 0 0
LATT 4
SYMM -Y,+X,+Z
SYMM -X,-Y,+Z
SYMM +Y,-X,+Z
SYMM +X,-Z,+Y
SYMM +X,-Y,-Z
SYMM +X,+Z,-Y
SYMM +Z,+Y,-X
SYMM -X,+Y,-Z
SYMM -Z,+Y,+X
SYMM +Z,+X,+Y
SYMM +Y,+Z,+X
SYMM -Y,-Z,+X
SYMM +Z,-X,-Y
SYMM -Y,+Z,-X
SYMM -Z,-X,+Y
SYMM -Z,+X,-Y
SYMM +Y,-Z,-X
SYMM +Y,+X,-Z
SYMM -Y,-X,-Z
SYMM -X,+Z,+Y
SYMM -X,-Z,-Y
SYMM +Z,-Y,+X
SYMM -Z,-Y,-X
SFAC C H O Zr
DISP C 0.004 0.002 12.046
DISP H -0 0 0.625
DISP O 0.012 0.006 34.424
DISP Zr -2.441 0.61 2648.569
UNIT 170.8 101.6 128.16 24
DFIX 0.8 0.01 H2 O2

L.S. 5 0 9
PLAN  20
SIZE 0.12 0.12 0.12
TEMP -173
BOND
ABIN
fmap 2
acta
REM <olex2.extras>
REM <HklSrc "%.\\platon_sq.hkl">
REM </olex2.extras>

WGHT    0.050800   69.386398
EXTI    0.000176
FVAR       0.03299
ZR1   4    0.119607    0.000000    0.000000    10.12500    0.00749    0.01324 =
         0.01324    0.00000    0.00000    0.00000
PART 1
O3    3    0.173454   -0.091897    0.000000    10.44500    0.03474    0.02443 =
         0.03825    0.00000    0.00000    0.01826

PART 0
PART 2
O2    3    0.067642    0.067642    0.067642    10.08333    0.01744    0.01744 =
         0.01744   -0.00473   -0.00473   -0.00473
H2    2    0.089898    0.089898    0.089898    10.08333   10.03000

PART 0
PART 1
C1    1    0.151716   -0.151716    0.000000    10.22250    0.03263    0.03263 =
         0.04934    0.00000    0.00000    0.00457
C2    1    0.202991   -0.202991    0.000000    10.22250    0.03174    0.03174 =
         0.06722    0.00000    0.00000    0.00707
C3    1    0.267142   -0.185365    0.000000    10.44500    0.03758    0.02962 =
         0.16083    0.00000    0.00000    0.01142
AFIX  43
H3    2    0.278847   -0.141114    0.000000    10.44500   -1.20000
AFIX   0
O1    3    0.050608    0.050608    0.050608    10.08333    0.01471    0.01471 =
         0.01471   -0.00292   -0.00292   -0.00292
PART 0
PART 2
O3A   3    0.199876   -0.070566    0.000000    10.05500   10.03000
HKLF 4




REM  AN_100K1_DMF in Fm-3m #225
REM R1 =  0.0384 for     523 Fo > 4sig(Fo)  and  0.0439 for all     608 data
REM     34 parameters refined using      1 restraints

END  
     
WGHT      0.0508     69.4025 

REM Highest difference peak  0.716,  deepest hole -0.540,  1-sigma level  0.099
Q1    1   0.1398  0.0000  0.0000  10.12500  0.05    0.57
Q2    1   0.1702 -0.1702 -0.0783  10.50000  0.05    0.44
Q3    1   0.1408 -0.0670  0.0000  10.50000  0.05    0.38
Q4    1   0.2377 -0.1956 -0.0661  11.00000  0.05    0.33
Q5    1   0.2661 -0.1442 -0.0637  11.00000  0.05    0.32
Q6    1   0.2714 -0.0740  0.0000  10.50000  0.05    0.31
Q7    1   0.2081 -0.2263 -0.0653  11.00000  0.05    0.29
Q8    1   0.1799 -0.0584  0.0215  11.00000  0.05    0.29
Q9    1   0.2795 -0.1278 -0.0252  11.00000  0.05    0.29
Q10   1   0.2057 -0.0697  0.0697  10.50000  0.05    0.28
Q11   1   0.0000  0.0000  0.0000  10.02083  0.05    0.28
Q12   1   0.2499 -0.1542 -0.0618  11.00000  0.05    0.27
Q13   1   0.1768 -0.1123 -0.0215  11.00000  0.05    0.27
Q14   1   0.2338 -0.2338 -0.0494  10.50000  0.05    0.26
Q15   1   0.1813 -0.1129 -0.0632  11.00000  0.05    0.26
Q16   1   0.1855 -0.0375  0.0000  10.50000  0.05    0.26
Q17   1   0.2175 -0.1067 -0.0315  11.00000  0.05    0.26
Q18   1   0.3108 -0.1187  0.0000  10.50000  0.05    0.25
Q19   1   0.1310 -0.1868 -0.0661  11.00000  0.05    0.24
Q20   1   0.2767 -0.1433  0.0366  11.00000  0.05    0.24

  REM The information below was added by Olex2.
  REM
  REM R1 = 0.0384 for 523 Fo > 4sig(Fo) and 0.0439 for all 13244 data
  REM n/a parameters refined using n/a restraints
  REM Highest difference peak 0.72, deepest hole -0.54
  REM Mean Shift 0, Max Shift 0.000.

  REM +++ Tabular Listing of Refinement Information +++
  REM R1_all = 0.0439
  REM R1_gt = 0.0384
  REM wR_ref = 0.1043
  REM GOOF = 1.104
  REM Shift_max = 0.000
  REM Shift_mean = 0
  REM Reflections_all = 13244
  REM Reflections_gt = 523
  REM Parameters = n/a
  REM Hole = -0.54
  REM Peak = 0.72
  REM Flack = n/a

  
;
_cod_data_source_file            UiO-66_Tswing_100K1.cif
_cod_data_source_block           UiO-66_Tswing_100K1
_cod_original_cell_volume        8940.5(8)
_cod_original_formula_sum        'C42.70 H25.40 O32.04 Zr6'
_cod_database_code               4132639
_shelx_shelxl_version_number     2017/1
_shelx_space_group_comment
;
The symmetry employed for this shelxl refinement is uniquely defined
by the following loop, which should always be used as a source of
symmetry information in preference to the above space-group names.
They are only intended as comments.
;
_shelx_estimated_absorpt_t_max   0.912
_shelx_estimated_absorpt_t_min   0.912
_olex2_refinement_description
;
1. Fixed Uiso
 At 1.2 times of:
  All C(H) groups
2. Restrained distances
 H2-O2
 0.8 with sigma of 0.01
3. Others
 Fixed Sof: O3(0.445) O2(0.08333) H2(0.08333) C1(0.2225) C2(0.2225) C3(0.445)
 H3(0.445) O1(0.08333) O3A(0.055)
 Fixed Uiso: H2(0.03) O3A(0.03)
4.a Aromatic/amide H refined with riding coordinates:
 C3(H3)
;
_shelx_fab_file
;
 1 1 1 -270.81 0.00
 0 0 2 -242.80 0.00
 0 2 2 308.77 0.00
 2 2 2 -149.30 0.00
 1 1 3 -41.40 0.00
 1 3 3 96.53 0.00
 3 3 3 2.34 0.00
 0 0 4 -203.13 0.00
 0 2 4 43.02 0.00
 2 2 4 -82.51 0.00
 0 4 4 22.19 0.00
 2 4 4 -39.66 0.00
 4 4 4 -9.30 0.00
 1 1 5 47.45 0.00
 1 3 5 6.63 0.00
 3 3 5 6.32 0.00
 1 5 5 -49.51 0.00
 3 5 5 10.40 0.00
 5 5 5 8.11 0.00
 0 0 6 150.40 0.00
 0 2 6 -110.72 0.00
 2 2 6 45.21 0.00
 0 4 6 12.61 0.00
 2 4 6 -5.26 0.00
 4 4 6 31.87 0.00
 0 6 6 43.74 0.00
 2 6 6 18.91 0.00
 4 6 6 4.47 0.00
 6 6 6 -33.96 0.00
 1 1 7 16.37 0.00
 1 3 7 -1.68 0.00
 3 3 7 24.35 0.00
 1 5 7 -5.12 0.00
 3 5 7 1.64 0.00
 5 5 7 -30.18 0.00
 1 7 7 -6.28 0.00
 3 7 7 -14.38 0.00
 5 7 7 1.15 0.00
 7 7 7 10.39 0.00
 0 0 8 -23.64 0.00
 0 2 8 13.38 0.00
 2 2 8 -44.05 0.00
 0 4 8 -26.88 0.00
 2 4 8 13.95 0.00
 4 4 8 -3.17 0.00
 0 6 8 17.98 0.00
 2 6 8 -3.04 0.00
 4 6 8 -18.00 0.00
 6 6 8 45.11 0.00
 0 8 8 1.93 0.00
 2 8 8 -3.72 0.00
 4 8 8 9.50 0.00
 6 8 8 -22.32 0.00
 8 8 8 6.76 0.00
 1 1 9 8.65 0.00
 1 3 9 -9.04 0.00
 3 3 9 34.58 0.00
 1 5 9 13.60 0.00
 3 5 9 -18.37 0.00
 5 5 9 -5.19 0.00
 1 7 9 -4.96 0.00
 3 7 9 3.42 0.00
 5 7 9 15.19 0.00
 7 7 9 -4.50 0.00
 1 9 9 -1.33 0.00
 3 9 9 27.07 0.00
 5 9 9 -5.66 0.00
 7 9 9 -9.04 0.00
 9 9 9 17.40 0.00
 0 0 10 15.21 0.00
 0 2 10 -1.94 0.00
 2 2 10 9.99 0.00
 0 4 10 11.17 0.00
 2 4 10 3.46 0.00
 4 4 10 -19.75 0.00
 0 6 10 5.48 0.00
 2 6 10 -13.49 0.00
 4 6 10 15.23 0.00
 6 6 10 -3.09 0.00
 0 8 10 -6.93 0.00
 2 8 10 -4.62 0.00
 4 8 10 -1.84 0.00
 6 8 10 -4.46 0.00
 8 8 10 -5.81 0.00
 0 10 10 -6.32 0.00
 2 10 10 0.71 0.00
 4 10 10 -2.28 0.00
 6 10 10 -5.95 0.00
 8 10 10 -7.24 0.00
 10 10 10 2.36 0.00
 1 1 11 -20.41 0.00
 1 3 11 3.64 0.00
 3 3 11 -15.52 0.00
 1 5 11 -2.89 0.00
 3 5 11 2.92 0.00
 5 5 11 -1.04 0.00
 1 7 11 -1.86 0.00
 3 7 11 5.18 0.00
 5 7 11 -5.31 0.00
 7 7 11 4.54 0.00
 1 9 11 5.15 0.00
 3 9 11 -6.73 0.00
 5 9 11 -2.60 0.00
 7 9 11 13.38 0.00
 9 9 11 5.13 0.00
 1 11 11 -5.77 0.00
 3 11 11 1.30 0.00
 5 11 11 -5.88 0.00
 7 11 11 3.07 0.00
 9 11 11 0.12 0.00
 11 11 11 -8.50 0.00
 0 0 12 20.43 0.00
 0 2 12 -2.57 0.00
 2 2 12 17.47 0.00
 0 4 12 14.65 0.00
 2 4 12 -14.70 0.00
 4 4 12 9.83 0.00
 0 6 12 -14.37 0.00
 2 6 12 10.38 0.00
 4 6 12 10.01 0.00
 6 6 12 -9.85 0.00
 0 8 12 11.22 0.00
 2 8 12 2.29 0.00
 4 8 12 -2.86 0.00
 6 8 12 -2.70 0.00
 8 8 12 -0.68 0.00
 0 10 12 9.06 0.00
 2 10 12 -1.44 0.00
 4 10 12 4.86 0.00
 6 10 12 3.86 0.00
 8 10 12 1.94 0.00
 10 10 12 -2.83 0.00
 0 12 12 8.76 0.00
 2 12 12 1.13 0.00
 4 12 12 -0.86 0.00
 6 12 12 9.90 0.00
 8 12 12 -5.28 0.00
 10 12 12 -0.65 0.00
 12 12 12 15.71 0.00
 1 1 13 4.28 0.00
 1 3 13 -4.47 0.00
 3 3 13 1.59 0.00
 1 5 13 -4.63 0.00
 3 5 13 3.93 0.00
 5 5 13 1.54 0.00
 1 7 13 -0.76 0.00
 3 7 13 0.20 0.00
 5 7 13 -7.88 0.00
 7 7 13 1.43 0.00
 1 9 13 -0.59 0.00
 3 9 13 -5.21 0.00
 5 9 13 -4.56 0.00
 7 9 13 4.21 0.00
 9 9 13 -3.22 0.00
 1 11 13 -2.65 0.00
 3 11 13 -4.08 0.00
 5 11 13 4.06 0.00
 7 11 13 -4.07 0.00
 9 11 13 -9.57 0.00
 11 11 13 5.98 0.00
 1 13 13 -3.63 0.00
 3 13 13 7.85 0.00
 5 13 13 -6.58 0.00
 7 13 13 -4.04 0.00
 9 13 13 7.17 0.00
 11 13 13 -4.79 0.00
 13 13 13 -8.18 0.00
 0 0 14 -14.45 0.00
 0 2 14 10.22 0.00
 2 2 14 -10.94 0.00
 0 4 14 -11.91 0.00
 2 4 14 7.07 0.00
 4 4 14 -0.86 0.00
 0 6 14 4.69 0.00
 2 6 14 -1.58 0.00
 4 6 14 -7.01 0.00
 6 6 14 2.07 0.00
 0 8 14 3.63 0.00
 2 8 14 -9.03 0.00
 4 8 14 6.95 0.00
 6 8 14 0.00 0.00
 8 8 14 4.68 0.00
 0 10 14 -0.47 0.00
 2 10 14 -1.12 0.00
 4 10 14 0.26 0.00
 6 10 14 7.54 0.00
 8 10 14 -9.72 0.00
 10 10 14 5.17 0.00
 0 12 14 -8.70 0.00
 2 12 14 2.38 0.00
 4 12 14 4.01 0.00
 6 12 14 -6.46 0.00
 8 12 14 2.00 0.00
 10 12 14 10.31 0.00
 12 12 14 -3.98 0.00
 0 14 14 6.65 0.00
 2 14 14 -3.92 0.00
 4 14 14 -5.68 0.00
 6 14 14 5.40 0.00
 8 14 14 9.29 0.00
 10 14 14 -12.04 0.00
 12 14 14 -4.27 0.00
 14 14 14 17.90 0.00
 1 1 15 -7.47 0.00
 1 3 15 8.70 0.00
 3 3 15 -17.40 0.00
 1 5 15 1.54 0.00
 3 5 15 8.46 0.00
 5 5 15 -14.04 0.00
 1 7 15 0.94 0.00
 3 7 15 1.74 0.00
 5 7 15 7.00 0.00
 7 7 15 7.42 0.00
 1 9 15 1.66 0.00
 3 9 15 -0.91 0.00
 5 9 15 5.78 0.00
 7 9 15 -3.29 0.00
 9 9 15 -0.11 0.00
 1 11 15 0.57 0.00
 3 11 15 9.61 0.00
 5 11 15 -6.95 0.00
 7 11 15 -7.61 0.00
 9 11 15 10.95 0.00
 11 11 15 -0.64 0.00
 1 13 15 4.39 0.00
 3 13 15 -4.96 0.00
 5 13 15 1.46 0.00
 7 13 15 6.15 0.00
 9 13 15 -4.80 0.00
 11 13 15 -7.28 0.00
 13 13 15 3.68 0.00
 1 15 15 0.88 0.00
 3 15 15 0.88 0.00
 5 15 15 4.05 0.00
 7 15 15 -0.96 0.00
 9 15 15 -11.79 0.00
 11 15 15 7.84 0.00
 13 15 15 8.77 0.00
 15 15 15 -21.61 0.00
 0 0 16 -16.34 0.00
 0 2 16 9.91 0.00
 2 2 16 -1.24 0.00
 0 4 16 2.81 0.00
 2 4 16 2.73 0.00
 4 4 16 3.89 0.00
 0 6 16 -0.24 0.00
 2 6 16 -1.80 0.00
 4 6 16 -0.05 0.00
 6 6 16 -3.11 0.00
 0 8 16 3.30 0.00
 2 8 16 0.72 0.00
 4 8 16 -5.39 0.00
 6 8 16 1.87 0.00
 8 8 16 -14.80 0.00
 0 10 16 -2.58 0.00
 2 10 16 1.34 0.00
 4 10 16 -0.08 0.00
 6 10 16 -2.16 0.00
 8 10 16 7.66 0.00
 10 10 16 -6.91 0.00
 0 12 16 2.60 0.00
 2 12 16 -6.77 0.00
 4 12 16 3.05 0.00
 6 12 16 -2.99 0.00
 8 12 16 3.66 0.00
 10 12 16 -4.56 0.00
 12 12 16 6.76 0.00
 0 14 16 -5.61 0.00
 2 14 16 4.31 0.00
 4 14 16 -2.68 0.00
 6 14 16 -4.57 0.00
 8 14 16 2.77 0.00
 10 14 16 6.47 0.00
 12 14 16 4.88 0.00
 14 14 16 -17.25 0.00
 0 16 16 -4.97 0.00
 2 16 16 -0.44 0.00
 4 16 16 -5.84 0.00
 6 16 16 7.72 0.00
 8 16 16 -7.50 0.00
 10 16 16 1.23 0.00
 12 16 16 4.05 0.00
 14 16 16 14.72 0.00
 1 1 17 0.87 0.00
 1 3 17 -2.14 0.00
 3 3 17 0.50 0.00
 1 5 17 -2.24 0.00
 3 5 17 -12.52 0.00
 5 5 17 14.92 0.00
 1 7 17 -5.08 0.00
 3 7 17 5.41 0.00
 5 7 17 -1.41 0.00
 7 7 17 -1.16 0.00
 1 9 17 -2.94 0.00
 3 9 17 1.69 0.00
 5 9 17 -8.18 0.00
 7 9 17 2.19 0.00
 9 9 17 3.77 0.00
 1 11 17 -0.82 0.00
 3 11 17 -0.25 0.00
 5 11 17 2.96 0.00
 7 11 17 3.43 0.00
 9 11 17 -2.78 0.00
 11 11 17 -10.89 0.00
 1 13 17 5.16 0.00
 3 13 17 -0.46 0.00
 5 13 17 -0.04 0.00
 7 13 17 -3.98 0.00
 9 13 17 -2.02 0.00
 11 13 17 2.02 0.00
 13 13 17 7.37 0.00
 1 15 17 -2.28 0.00
 3 15 17 0.59 0.00
 5 15 17 2.38 0.00
 7 15 17 1.95 0.00
 9 15 17 1.43 0.00
 11 15 17 -4.98 0.00
 13 15 17 -16.65 0.00
 15 15 17 27.90 0.00
 1 17 17 2.31 0.00
 3 17 17 -4.61 0.00
 5 17 17 8.41 0.00
 7 17 17 -1.59 0.00
 9 17 17 2.70 0.00
 11 17 17 7.30 0.00
 13 17 17 -8.86 0.00
 0 0 18 -1.26 0.00
 0 2 18 -2.14 0.00
 2 2 18 2.08 0.00
 0 4 18 3.52 0.00
 2 4 18 -5.71 0.00
 4 4 18 7.95 0.00
 0 6 18 1.09 0.00
 2 6 18 1.25 0.00
 4 6 18 -2.14 0.00
 6 6 18 5.66 0.00
 0 8 18 -1.76 0.00
 2 8 18 6.38 0.00
 4 8 18 3.79 0.00
 6 8 18 -5.74 0.00
 8 8 18 -1.85 0.00
 0 10 18 7.78 0.00
 2 10 18 -2.81 0.00
 4 10 18 -2.23 0.00
 6 10 18 4.49 0.00
 8 10 18 6.94 0.00
 10 10 18 -6.13 0.00
 0 12 18 -8.44 0.00
 2 12 18 -3.49 0.00
 4 12 18 -1.92 0.00
 6 12 18 5.40 0.00
 8 12 18 -1.00 0.00
 10 12 18 1.10 0.00
 12 12 18 3.53 0.00
 0 14 18 -0.77 0.00
 2 14 18 5.11 0.00
 4 14 18 -0.82 0.00
 6 14 18 -4.46 0.00
 8 14 18 3.07 0.00
 10 14 18 4.93 0.00
 12 14 18 -2.68 0.00
 14 14 18 -7.92 0.00
 0 16 18 3.61 0.00
 2 16 18 -2.36 0.00
 4 16 18 8.51 0.00
 6 16 18 -2.67 0.00
 8 16 18 -5.72 0.00
 10 16 18 2.34 0.00
 12 16 18 2.45 0.00
 0 18 18 10.86 0.00
 2 18 18 -1.73 0.00
 4 18 18 -5.98 0.00
 6 18 18 5.18 0.00
 8 18 18 2.41 0.00
 10 18 18 -32.64 0.00
 1 1 19 2.79 0.00
 1 3 19 -2.20 0.00
 3 3 19 5.94 0.00
 1 5 19 1.86 0.00
 3 5 19 6.06 0.00
 5 5 19 -7.58 0.00
 1 7 19 3.02 0.00
 3 7 19 -3.27 0.00
 5 7 19 -3.02 0.00
 7 7 19 6.66 0.00
 1 9 19 -2.64 0.00
 3 9 19 1.21 0.00
 5 9 19 0.15 0.00
 7 9 19 -2.86 0.00
 9 9 19 3.12 0.00
 1 11 19 8.69 0.00
 3 11 19 -0.13 0.00
 5 11 19 -2.44 0.00
 7 11 19 -5.17 0.00
 9 11 19 -1.12 0.00
 11 11 19 5.55 0.00
 1 13 19 -0.95 0.00
 3 13 19 2.29 0.00
 5 13 19 3.41 0.00
 7 13 19 -0.10 0.00
 9 13 19 -4.25 0.00
 11 13 19 3.02 0.00
 13 13 19 -6.56 0.00
 1 15 19 -1.96 0.00
 3 15 19 -6.00 0.00
 5 15 19 -1.07 0.00
 7 15 19 -5.51 0.00
 9 15 19 -0.11 0.00
 11 15 19 -6.41 0.00
 13 15 19 18.07 0.00
 1 17 19 -0.38 0.00
 3 17 19 0.72 0.00
 5 17 19 -9.51 0.00
 7 17 19 -3.28 0.00
 9 17 19 13.96 0.00
 1 19 19 -5.70 0.00
 3 19 19 -5.58 0.00
 5 19 19 9.95 0.00
 0 0 20 21.44 0.00
 0 2 20 -8.64 0.00
 2 2 20 1.88 0.00
 0 4 20 -2.71 0.00
 2 4 20 3.53 0.00
 4 4 20 -0.98 0.00
 0 6 20 4.43 0.00
 2 6 20 -1.22 0.00
 4 6 20 -2.70 0.00
 6 6 20 -2.01 0.00
 0 8 20 -2.78 0.00
 2 8 20 -3.70 0.00
 4 8 20 -1.14 0.00
 6 8 20 8.01 0.00
 8 8 20 -0.03 0.00
 0 10 20 -2.52 0.00
 2 10 20 -6.59 0.00
 4 10 20 6.24 0.00
 6 10 20 1.81 0.00
 8 10 20 -8.22 0.00
 10 10 20 2.36 0.00
 0 12 20 -10.16 0.00
 2 12 20 3.65 0.00
 4 12 20 -4.41 0.00
 6 12 20 -0.23 0.00
 8 12 20 1.15 0.00
 10 12 20 3.60 0.00
 12 12 20 -7.76 0.00
 0 14 20 3.21 0.00
 2 14 20 -5.30 0.00
 4 14 20 9.96 0.00
 6 14 20 5.01 0.00
 8 14 20 -6.74 0.00
 10 14 20 1.17 0.00
 12 14 20 4.54 0.00
 0 16 20 1.97 0.00
 2 16 20 2.68 0.00
 4 16 20 -1.70 0.00
 6 16 20 -0.88 0.00
 8 16 20 25.29 0.00
 10 16 20 -10.37 0.00
 0 18 20 -13.82 0.00
 2 18 20 12.56 0.00
 4 18 20 0.02 0.00
 6 18 20 -4.36 0.00
 1 1 21 4.00 0.00
 1 3 21 -6.80 0.00
 3 3 21 7.10 0.00
 1 5 21 -1.91 0.00
 3 5 21 -2.21 0.00
 5 5 21 -3.77 0.00
 1 7 21 4.49 0.00
 3 7 21 -5.14 0.00
 5 7 21 2.66 0.00
 7 7 21 -1.86 0.00
 1 9 21 0.38 0.00
 3 9 21 6.95 0.00
 5 9 21 -0.70 0.00
 7 9 21 2.06 0.00
 9 9 21 1.08 0.00
 1 11 21 7.62 0.00
 3 11 21 0.18 0.00
 5 11 21 -5.28 0.00
 7 11 21 2.24 0.00
 9 11 21 0.70 0.00
 11 11 21 9.06 0.00
 1 13 21 2.71 0.00
 3 13 21 -7.93 0.00
 5 13 21 0.73 0.00
 7 13 21 5.85 0.00
 9 13 21 7.94 0.00
 11 13 21 -13.42 0.00
 1 15 21 2.23 0.00
 3 15 21 0.07 0.00
 5 15 21 -2.01 0.00
 7 15 21 -7.27 0.00
 9 15 21 -2.02 0.00
 1 17 21 -1.80 0.00
 3 17 21 4.88 0.00
 5 17 21 0.42 0.00
 0 0 22 -1.42 0.00
 0 2 22 -3.58 0.00
 2 2 22 -3.95 0.00
 0 4 22 -3.50 0.00
 2 4 22 4.59 0.00
 4 4 22 -6.56 0.00
 0 6 22 -4.75 0.00
 2 6 22 -1.34 0.00
 4 6 22 9.97 0.00
 6 6 22 -3.50 0.00
 0 8 22 0.06 0.00
 2 8 22 -2.23 0.00
 4 8 22 0.56 0.00
 6 8 22 -5.83 0.00
 8 8 22 -4.09 0.00
 0 10 22 -6.66 0.00
 2 10 22 -6.19 0.00
 4 10 22 -1.50 0.00
 6 10 22 -2.30 0.00
 8 10 22 -5.81 0.00
 10 10 22 3.65 0.00
 0 12 22 -3.57 0.00
 2 12 22 1.84 0.00
 4 12 22 -2.43 0.00
 6 12 22 -1.16 0.00
 8 12 22 -4.98 0.00
 10 12 22 -4.45 0.00
 0 14 22 -3.36 0.00
 2 14 22 0.90 0.00
 4 14 22 5.83 0.00
 6 14 22 -4.43 0.00
 8 14 22 -3.17 0.00
 2 16 22 -2.82 0.00
 4 16 22 -4.20 0.00
 1 1 23 3.32 0.00
 1 3 23 9.28 0.00
 3 3 23 -1.37 0.00
 1 5 23 6.04 0.00
 3 5 23 -5.79 0.00
 5 5 23 8.91 0.00
 1 7 23 1.09 0.00
 3 7 23 -0.80 0.00
 5 7 23 -2.99 0.00
 7 7 23 7.79 0.00
 1 9 23 4.28 0.00
 3 9 23 -0.29 0.00
 5 9 23 3.25 0.00
 7 9 23 4.92 0.00
 9 9 23 9.27 0.00
 1 11 23 4.64 0.00
 3 11 23 6.68 0.00
 5 11 23 4.97 0.00
 7 11 23 7.42 0.00
 9 11 23 1.44 0.00
 1 13 23 -0.21 0.00
 3 13 23 2.20 0.00
 5 13 23 -8.67 0.00
 0 0 24 -10.94 0.00
 0 2 24 -6.85 0.00
 2 2 24 1.98 0.00
 0 4 24 -6.15 0.00
 2 4 24 1.38 0.00
 4 4 24 -9.41 0.00
 0 6 24 3.87 0.00
 2 6 24 -7.38 0.00
 4 6 24 4.44 0.00
 6 6 24 -12.25 0.00
 0 8 24 6.88 0.00
 2 8 24 5.18 0.00
 4 8 24 1.43 0.00
 6 8 24 2.60 0.00
 8 8 24 -7.62 0.00
 0 10 24 -19.86 0.00
 2 10 24 5.66 0.00
 4 10 24 -6.96 0.00
 6 10 24 -2.46 0.00
 2 12 24 -19.08 0.00
 4 12 24 9.91 0.00
 1 1 25 -3.49 0.00
 1 3 25 4.44 0.00
 3 3 25 -18.76 0.00
 1 5 25 2.94 0.00
 3 5 25 4.75 0.00
 5 5 25 11.37 0.00
 1 7 25 -16.92 0.00
 3 7 25 5.25 0.00
 5 7 25 6.59 0.00
 7 7 25 -12.25 0.00
 1 9 25 -2.75 0.00
 3 9 25 -5.78 0.00
 5 9 25 -17.57 0.00
 1 11 25 11.45 0.00
 3 11 25 0.81 0.00
 0 0 26 -16.29 0.00
 0 2 26 10.68 0.00
 2 2 26 8.51 0.00
 0 4 26 3.68 0.00
 2 4 26 -9.54 0.00
 4 4 26 15.54 0.00
 0 6 26 -10.31 0.00
 2 6 26 10.12 0.00
 4 6 26 -28.94 0.00
 6 6 26 14.72 0.00
 0 8 26 16.19 0.00
 2 8 26 12.31 0.00
 1 1 27 8.08 0.00
 1 3 27 -11.27 0.00
 3 3 27 1.48 0.00
 1 5 27 5.34 0.00
 3 5 27 17.38 0.00
 16 16 16 -16.87 0.00
 11 17 19 4.65 0.00
 7 19 19 9.99 0.00
 12 12 22 12.80 0.00
 0 16 22 -1.98 0.00
 11 11 23 -15.62 0.00
 7 13 23 7.08 0.00
 1 15 23 0.84 0.00
 3 15 23 -1.33 0.00
 8 10 24 -3.94 0.00
 0 12 24 5.03 0.00
 6 12 24 0.51 0.00
 0 14 24 1.28 0.00
 7 9 25 5.33 0.00
 5 11 25 -1.07 0.00
 4 8 26 9.09 0.00
 0 0 0 0.00 0.00
# SQUEEZE RESULTS (Version = 91117)
# Note: Data are Listed for all Voids in the P1 Unit Cell
# i.e. Centre of Gravity, Solvent Accessible Volume,
# Recovered number of Electrons in the Void and
# Details about the Squeezed Material
;
_platon_squeeze_void_probe_radius 1.20
_olex2_submission_original_sample_id UiO-66_Tswing_100K1
_olex2_submission_special_instructions 'No special instructions were received'
loop_
_space_group_symop_operation_xyz
'x, y, z'
'-y, x, z'
'-x, -y, z'
'y, -x, z'
'x, -z, y'
'x, -y, -z'
'x, z, -y'
'z, y, -x'
'-x, y, -z'
'-z, y, x'
'z, x, y'
'y, z, x'
'-y, -z, x'
'z, -x, -y'
'-y, z, -x'
'-z, -x, y'
'-z, x, -y'
'y, -z, -x'
'y, x, -z'
'-y, -x, -z'
'-x, z, y'
'-x, -z, -y'
'z, -y, x'
'-z, -y, -x'
'x, y+1/2, z+1/2'
'-y, x+1/2, z+1/2'
'-x, -y+1/2, z+1/2'
'y, -x+1/2, z+1/2'
'x, -z+1/2, y+1/2'
'x, -y+1/2, -z+1/2'
'x, z+1/2, -y+1/2'
'z, y+1/2, -x+1/2'
'-x, y+1/2, -z+1/2'
'-z, y+1/2, x+1/2'
'z, x+1/2, y+1/2'
'y, z+1/2, x+1/2'
'-y, -z+1/2, x+1/2'
'z, -x+1/2, -y+1/2'
'-y, z+1/2, -x+1/2'
'-z, -x+1/2, y+1/2'
'-z, x+1/2, -y+1/2'
'y, -z+1/2, -x+1/2'
'y, x+1/2, -z+1/2'
'-y, -x+1/2, -z+1/2'
'-x, z+1/2, y+1/2'
'-x, -z+1/2, -y+1/2'
'z, -y+1/2, x+1/2'
'-z, -y+1/2, -x+1/2'
'x+1/2, y, z+1/2'
'-y+1/2, x, z+1/2'
'-x+1/2, -y, z+1/2'
'y+1/2, -x, z+1/2'
'x+1/2, -z, y+1/2'
'x+1/2, -y, -z+1/2'
'x+1/2, z, -y+1/2'
'z+1/2, y, -x+1/2'
'-x+1/2, y, -z+1/2'
'-z+1/2, y, x+1/2'
'z+1/2, x, y+1/2'
'y+1/2, z, x+1/2'
'-y+1/2, -z, x+1/2'
'z+1/2, -x, -y+1/2'
'-y+1/2, z, -x+1/2'
'-z+1/2, -x, y+1/2'
'-z+1/2, x, -y+1/2'
'y+1/2, -z, -x+1/2'
'y+1/2, x, -z+1/2'
'-y+1/2, -x, -z+1/2'
'-x+1/2, z, y+1/2'
'-x+1/2, -z, -y+1/2'
'z+1/2, -y, x+1/2'
'-z+1/2, -y, -x+1/2'
'x+1/2, y+1/2, z'
'-y+1/2, x+1/2, z'
'-x+1/2, -y+1/2, z'
'y+1/2, -x+1/2, z'
'x+1/2, -z+1/2, y'
'x+1/2, -y+1/2, -z'
'x+1/2, z+1/2, -y'
'z+1/2, y+1/2, -x'
'-x+1/2, y+1/2, -z'
'-z+1/2, y+1/2, x'
'z+1/2, x+1/2, y'
'y+1/2, z+1/2, x'
'-y+1/2, -z+1/2, x'
'z+1/2, -x+1/2, -y'
'-y+1/2, z+1/2, -x'
'-z+1/2, -x+1/2, y'
'-z+1/2, x+1/2, -y'
'y+1/2, -z+1/2, -x'
'y+1/2, x+1/2, -z'
'-y+1/2, -x+1/2, -z'
'-x+1/2, z+1/2, y'
'-x+1/2, -z+1/2, -y'
'z+1/2, -y+1/2, x'
'-z+1/2, -y+1/2, -x'
'-x, -y, -z'
'y, -x, -z'
'x, y, -z'
'-y, x, -z'
'-x, z, -y'
'-x, y, z'
'-x, -z, y'
'-z, -y, x'
'x, -y, z'
'z, -y, -x'
'-z, -x, -y'
'-y, -z, -x'
'y, z, -x'
'-z, x, y'
'y, -z, x'
'z, x, -y'
'z, -x, y'
'-y, z, x'
'-y, -x, z'
'y, x, z'
'x, -z, -y'
'x, z, y'
'-z, y, -x'
'z, y, x'
'-x, -y+1/2, -z+1/2'
'y, -x+1/2, -z+1/2'
'x, y+1/2, -z+1/2'
'-y, x+1/2, -z+1/2'
'-x, z+1/2, -y+1/2'
'-x, y+1/2, z+1/2'
'-x, -z+1/2, y+1/2'
'-z, -y+1/2, x+1/2'
'x, -y+1/2, z+1/2'
'z, -y+1/2, -x+1/2'
'-z, -x+1/2, -y+1/2'
'-y, -z+1/2, -x+1/2'
'y, z+1/2, -x+1/2'
'-z, x+1/2, y+1/2'
'y, -z+1/2, x+1/2'
'z, x+1/2, -y+1/2'
'z, -x+1/2, y+1/2'
'-y, z+1/2, x+1/2'
'-y, -x+1/2, z+1/2'
'y, x+1/2, z+1/2'
'x, -z+1/2, -y+1/2'
'x, z+1/2, y+1/2'
'-z, y+1/2, -x+1/2'
'z, y+1/2, x+1/2'
'-x+1/2, -y, -z+1/2'
'y+1/2, -x, -z+1/2'
'x+1/2, y, -z+1/2'
'-y+1/2, x, -z+1/2'
'-x+1/2, z, -y+1/2'
'-x+1/2, y, z+1/2'
'-x+1/2, -z, y+1/2'
'-z+1/2, -y, x+1/2'
'x+1/2, -y, z+1/2'
'z+1/2, -y, -x+1/2'
'-z+1/2, -x, -y+1/2'
'-y+1/2, -z, -x+1/2'
'y+1/2, z, -x+1/2'
'-z+1/2, x, y+1/2'
'y+1/2, -z, x+1/2'
'z+1/2, x, -y+1/2'
'z+1/2, -x, y+1/2'
'-y+1/2, z, x+1/2'
'-y+1/2, -x, z+1/2'
'y+1/2, x, z+1/2'
'x+1/2, -z, -y+1/2'
'x+1/2, z, y+1/2'
'-z+1/2, y, -x+1/2'
'z+1/2, y, x+1/2'
'-x+1/2, -y+1/2, -z'
'y+1/2, -x+1/2, -z'
'x+1/2, y+1/2, -z'
'-y+1/2, x+1/2, -z'
'-x+1/2, z+1/2, -y'
'-x+1/2, y+1/2, z'
'-x+1/2, -z+1/2, y'
'-z+1/2, -y+1/2, x'
'x+1/2, -y+1/2, z'
'z+1/2, -y+1/2, -x'
'-z+1/2, -x+1/2, -y'
'-y+1/2, -z+1/2, -x'
'y+1/2, z+1/2, -x'
'-z+1/2, x+1/2, y'
'y+1/2, -z+1/2, x'
'z+1/2, x+1/2, -y'
'z+1/2, -x+1/2, y'
'-y+1/2, z+1/2, x'
'-y+1/2, -x+1/2, z'
'y+1/2, x+1/2, z'
'x+1/2, -z+1/2, -y'
'x+1/2, z+1/2, y'
'-z+1/2, y+1/2, -x'
'z+1/2, y+1/2, x'
loop_
_atom_site_label
_atom_site_type_symbol
_atom_site_fract_x
_atom_site_fract_y
_atom_site_fract_z
_atom_site_U_iso_or_equiv
_atom_site_adp_type
_atom_site_occupancy
_atom_site_site_symmetry_order
_atom_site_calc_flag
_atom_site_refinement_flags_posn
_atom_site_refinement_flags_adp
_atom_site_refinement_flags_occupancy
_atom_site_disorder_assembly
_atom_site_disorder_group
Zr1 Zr 0.11961(3) 0.000000 0.000000 0.0113(3) Uani 1 8 d S T P . .
O3 O 0.17345(19) -0.09190(17) 0.000000 0.0325(8) Uani 0.89 2 d S T P A 1
O2 O 0.0676(3) 0.0676(3) 0.0676(3) 0.017(2) Uani 0.5 6 d DS T P . 2
H2 H 0.0899(4) 0.0899(4) 0.0899(4) 0.030 Uiso 0.5 6 d DS T P B 2
C1 C 0.1517(3) -0.1517(3) 0.000000 0.0382(17) Uani 0.89 4 d S T P A 1
C2 C 0.2030(3) -0.2030(3) 0.000000 0.0436(19) Uani 0.89 4 d S T P A 1
C3 C 0.2671(3) -0.1854(3) 0.000000 0.076(3) Uani 0.89 2 d S T P A 1
H3 H 0.278847 -0.141114 0.000000 0.091 Uiso 0.89 2 calc RS T P A 1
O1 O 0.0506(3) 0.0506(3) 0.0506(3) 0.015(2) Uani 0.5 6 d S T P . 1
O3A O 0.1999(15) -0.0706(15) 0.000000 0.030 Uiso 0.11 2 d S T P A 2
loop_
_atom_site_aniso_label
_atom_site_aniso_U_11
_atom_site_aniso_U_22
_atom_site_aniso_U_33
_atom_site_aniso_U_23
_atom_site_aniso_U_13
_atom_site_aniso_U_12
Zr1 0.0075(4) 0.0132(3) 0.0132(3) 0.000 0.000 0.000
O3 0.035(2) 0.0244(19) 0.038(2) 0.000 0.000 0.0183(15)
O2 0.017(2) 0.017(2) 0.017(2) -0.005(2) -0.005(2) -0.005(2)
C1 0.033(2) 0.033(2) 0.049(5) 0.000 0.000 0.005(3)
C2 0.032(3) 0.032(3) 0.067(6) 0.000 0.000 0.007(3)
C3 0.038(4) 0.030(3) 0.161(8) 0.000 0.000 0.011(3)
O1 0.015(2) 0.015(2) 0.015(2) -0.003(2) -0.003(2) -0.003(2)
loop_
_atom_type_symbol
_atom_type_description
_atom_type_scat_dispersion_real
_atom_type_scat_dispersion_imag
_atom_type_scat_source
C C 0.0040 0.0020 'International Tables Vol C Tables 4.2.6.8 and 6.1.1.4'
H H 0.0000 0.0000 'International Tables Vol C Tables 4.2.6.8 and 6.1.1.4'
O O 0.0120 0.0060 'International Tables Vol C Tables 4.2.6.8 and 6.1.1.4'
Zr Zr -2.4410 0.6100 'International Tables Vol C Tables 4.2.6.8 and 6.1.1.4'
loop_
_geom_angle_atom_site_label_1
_geom_angle_atom_site_label_2
_geom_angle_atom_site_label_3
_geom_angle
_geom_angle_site_symmetry_1
_geom_angle_site_symmetry_3
O3 Zr1 O3 75.19(10) . 7
O3 Zr1 O3 119.3(2) 7 5
O3 Zr1 O3 75.19(10) . 5
O3 Zr1 O3 119.3(2) . 6
O3 Zr1 O3 75.19(10) 7 6
O3 Zr1 O3 75.19(10) 6 5
O3 Zr1 O3A 67.7(3) 5 6
O3 Zr1 O3A 67.7(3) 7 6
O3 Zr1 O3A 101.0(9) . 6
O3 Zr1 O3A 101.0(9) 7 5
O3 Zr1 O3A 18.3(8) 6 6
O3 Zr1 O3A 18.3(8) 5 5
O3 Zr1 O3A 67.7(3) . 5
O3 Zr1 O3A 67.7(3) . 7
O3 Zr1 O3A 67.7(3) 6 5
O3 Zr1 O3A 18.3(8) 7 7
O3 Zr1 O3A 101.0(9) 5 7
O3 Zr1 O3A 67.7(3) 6 7
O1 Zr1 O3 84.9(3) 99 6
O1 Zr1 O3 142.19(7) 4 6
O1 Zr1 O3 84.9(3) 4 7
O1 Zr1 O3 142.19(7) . 5
O1 Zr1 O3 84.9(3) . 7
O1 Zr1 O3 84.9(3) 98 5
O1 Zr1 O3 84.9(3) . 6
O1 Zr1 O3 142.19(7) 4 5
O1 Zr1 O3 142.19(7) 99 .
O1 Zr1 O3 84.9(3) 99 5
O1 Zr1 O3 142.19(7) 98 7
O1 Zr1 O3 142.19(7) . .
O1 Zr1 O3 142.19(7) 99 7
O1 Zr1 O3 84.9(3) 98 .
O1 Zr1 O3 142.19(7) 98 6
O1 Zr1 O3 84.9(3) 4 .
O1 Zr1 O1 61.2(3) . 99
O1 Zr1 O1 61.2(3) 98 4
O1 Zr1 O1 61.2(3) . 4
O1 Zr1 O1 61.2(3) 98 99
O1 Zr1 O1 92.1(6) . 98
O1 Zr1 O1 92.1(6) 4 99
O1 Zr1 O3A 100.7(8) 99 5
O1 Zr1 O3A 100.7(8) 98 5
O1 Zr1 O3A 149.02(18) . 5
O1 Zr1 O3A 149.02(18) 4 6
O1 Zr1 O3A 149.02(18) 4 5
O1 Zr1 O3A 149.02(18) 98 6
O1 Zr1 O3A 149.02(18) 99 7
O1 Zr1 O3A 100.7(8) . 7
O1 Zr1 O3A 100.7(8) 99 6
O1 Zr1 O3A 149.02(18) 98 7
O1 Zr1 O3A 100.7(8) 4 7
O1 Zr1 O3A 100.7(8) . 6
O3A Zr1 O3A 55.7(10) . 7
O3A Zr1 O3A 55.7(10) 7 6
O3A Zr1 O3A 82.6(16) . 6
C1 O3 Zr1 129.7(4) . .
Zr1 O2 Zr1 102.0(3) . 104
Zr1 O2 Zr1 102.0(3) 104 2
Zr1 O2 Zr1 102.0(3) . 2
O3 C1 O3 129.9(7) 115 .
O3 C1 C2 115.0(3) 115 .
O3 C1 C2 115.0(3) . .
C3 C2 C1 119.6(4) . .
C3 C2 C1 119.6(4) 115 .
C3 C2 C3 120.7(8) . 115
C2 C3 C3 119.6(4) . 91_545
Zr1 O1 Zr1 116.58(19) . 2
Zr1 O1 Zr1 116.58(19) 104 2
Zr1 O1 Zr1 116.58(19) . 104
loop_
_geom_bond_atom_site_label_1
_geom_bond_atom_site_label_2
_geom_bond_distance
_geom_bond_site_symmetry_2
Zr1 O3 2.211(3) .
Zr1 O3 2.211(3) 5
Zr1 O3 2.211(3) 6
Zr1 O3 2.211(3) 7
Zr1 O1 2.063(2) .
Zr1 O1 2.063(2) 99
Zr1 O1 2.063(2) 98
Zr1 O1 2.063(2) 4
Zr1 O3A 2.22(3) 7
Zr1 O3A 2.22(3) 5
Zr1 O3A 2.22(3) 6
Zr1 O3A 2.22(3) .
O3 C1 1.321(5) .
C1 C2 1.505(10) .
C2 C3 1.381(7) 115
C2 C3 1.381(7) .
C3 C3 1.394(12) 91_545
loop_
_platon_squeeze_void_nr
_platon_squeeze_void_average_x
_platon_squeeze_void_average_y
_platon_squeeze_void_average_z
_platon_squeeze_void_volume
_platon_squeeze_void_count_electrons
_platon_squeeze_void_content
1 -0.007 -0.005 0.429 4495 1459 ' '
loop_
_refln_index_h
_refln_index_k
_refln_index_l
_refln_F_squared_meas
_refln_F_squared_sigma
1 -1 -1 816.53 73.05
0 -2 0 319.01 32.34
2 0 0 361.7 31.27
0 -2 -2 105.24 10.32
0 -2 2 128.04 10.5
0 2 -2 115.77 10.49
2 -2 0 117.67 10.37
2 0 -2 99.57 10.39
2 0 2 123.54 10.23
-2 2 0 114.96 10.36
-2 0 2 114.61 10.47
-2 0 -2 130.03 10.27
-2 -2 -2 75.98 6.8
2 2 -2 85.91 7.26
2 2 2 72.56 6.82
-2 2 2 67.32 7.14
2 -2 -2 77.37 7.18
-2 2 -2 87.39 7.2
-1 -1 -3 10.79 1.51
-1 -3 1 14.43 1.69
-1 1 -3 15.55 1.8
-1 1 3 10.84 1.74
-1 3 -1 15.08 1.87
-1 3 1 10.87 1.56
1 -3 -1 11.37 1.58
1 -1 -3 12.95 1.75
1 1 -3 13.05 1.89
-1 -1 3 10.18 1.76
-3 -1 1 13.03 1.59
-3 1 -1 12.86 1.43
-3 1 1 9.36 1.52
-1 -3 -1 9.16 1.37
3 -1 1 11.61 1.37
3 1 -1 11.37 1.53
3 -1 -1 11.04 1.55
1 3 -1 14.81 1.69
-1 3 3 24.02 3.39
-1 -3 -3 33.29 3.27
-1 -3 3 40.26 3.75
3 -3 1 32.01 3.38
3 -1 -3 34.14 3.56
3 -1 3 31.6 3.29
3 1 -3 38.03 3.72
3 1 3 31.27 3.07
3 3 -1 33.13 3.36
3 3 1 31.42 3
3 3 1 27.84 3.01
-3 -1 3 35.84 3.71
-3 1 -3 31.6 3.29
-3 1 3 27.83 3.54
-3 3 -1 27.07 3.29
-3 3 1 35.08 3.46
3 -3 -1 30.1 3.4
-3 -3 1 35.51 3.36
-3 -1 -3 34.85 3.12
1 3 -3 29.62 3.58
1 -3 -3 34.32 3.52
1 -3 3 30.34 3.52
-3 3 3 74.21 7.43
-3 -3 -3 76.06 6.84
-3 -3 3 72.1 7.41
-3 3 -3 84.53 7.54
3 3 3 79.91 6.91
3 -3 -3 67.71 7.34
3 3 -3 82.62 7.49
0 0 -4 206.75 18.43
-4 0 -2 39.97 3.51
0 4 -2 30.61 3.97
2 0 -4 34.4 4.1
4 -2 0 40.98 3.86
4 2 0 38.57 3.63
-4 2 0 34.52 3.8
-2 0 -4 35.93 3.9
-2 0 4 32.25 4.11
0 -4 -2 40.18 3.92
-4 0 -2 37.68 3.54
-2 4 0 41.44 4.03
0 -2 -4 34.43 3.91
0 -2 4 30.95 4.07
0 2 -4 47.08 4.37
2 -4 0 46.28 4.04
4 0 -2 41.5 3.99
-4 -2 0 38.01 3.62
-4 -2 2 42.36 5
-4 2 -2 49.04 4.88
-4 2 -2 44.31 4.93
-4 2 2 50.05 5.14
-2 -4 -2 59 4.87
-2 -4 2 57.42 5.19
-2 -2 -4 52.28 4.91
4 -2 -2 62.63 5.27
2 2 -4 40.79 5.24
-2 -2 4 45.61 5.28
-2 2 -4 57.54 5.3
-2 2 4 44.36 5.18
-2 4 -2 46.49 5.21
-2 4 2 46.21 5.06
2 -4 -2 57.44 5.21
2 -2 -4 60.02 5.38
0 -4 -4 98.35 9.36
4 -4 0 104.5 9.44
4 0 -4 91.5 9.54
4 0 4 105.34 9.13
4 4 0 99.98 9.13
-4 4 0 100.18 9.44
-4 0 4 104.96 9.76
2 -4 -4 239.75 18.61
-2 4 4 241.12 18.69
-4 -2 4 167.16 18.4
-4 2 -4 229.33 18.38
-4 2 4 220.35 18.64
-4 4 -2 185.49 18.23
2 -4 4 238.09 18.64
2 4 4 176.18 18.06
4 -2 4 184.85 18.55
4 2 -4 166.72 18.43
4 2 4 218.9 17.91
4 -2 -4 234.64 18.69
-4 -2 -4 208.88 17.87
-2 4 -4 182.33 18.44
-4 4 -2 223.14 18.49
-4 4 2 169.97 18.26
-2 -4 4 198.39 18.54
4 -4 -2 216.57 18.46
-4 -4 4 329.03 31.08
4 -4 -4 382.26 31.16
-4 4 4 342.84 31.14
5 1 1 78.19 6.93
-1 -5 1 78.19 7.56
-1 -1 -5 71.22 7.57
5 -1 -1 89.7 7.42
5 -1 1 75.35 7.17
5 1 -1 89.25 7.33
-1 1 -5 78.91 8.11
-1 1 5 75.95 7.72
-1 5 -1 71.39 7.76
-1 5 1 72.66 7.47
1 -1 -5 94.35 7.87
1 1 -5 85.38 7.94
-5 -1 -1 76.49 6.97
-5 -1 1 67.24 7.27
-5 1 -1 76.52 7.18
-5 1 1 85.01 7.45
-1 -5 -1 76.58 7.43
5 3 1 41.08 3.66
-5 1 3 39.27 4.36
3 -1 -5 40.07 4.5
1 -5 -3 42.72 4.28
-5 -1 -3 39.48 3.6
-1 3 5 44.2 4.5
-3 -1 5 40.77 4.59
5 1 -3 38.48 4.24
-5 -3 1 30.55 3.88
-5 3 -1 31.77 3.97
3 1 5 39.83 4.05
-3 1 -5 41.8 4.28
5 -3 -1 36.22 4.11
-1 -5 3 42.45 4.48
3 -5 1 33.84 4.1
-1 -3 -5 42.93 4.23
1 3 -5 47.45 4.77
1 -5 3 32.66 4.28
-5 -1 3 41.31 4.39
-1 5 3 43.26 4.25
-3 -5 1 41.46 4.13
-1 -3 5 42.39 4.66
5 -3 1 31.89 3.94
5 3 -1 37.83 4.02
-5 1 -3 40.91 3.85
-5 3 1 43.37 4.2
-3 -1 -5 43.92 4.14
-1 3 -5 34.68 4.4
5 -1 -3 43.87 4.36
-5 -3 -1 39.32 3.6
3 5 1 38.38 3.86
3 -5 -1 41.3 4.31
1 5 -3 45.5 4.54
-5 1 -3 35.51 3.87
1 -3 -5 38.6 4.36
-1 -5 -3 35.54 4.02
3 1 -5 35.06 4.47
-3 5 -1 33.83 4.14
5 3 -3 81.31 8.28
5 -3 -3 70.76 8.09
3 5 3 82.16 7.75
3 3 -5 102.76 8.81
3 3 5 82.97 7.92
3 -5 -3 95.26 8.4
3 -3 -5 81.7 8.37
-3 3 5 91.63 8.52
-3 5 3 78.38 8.25
-3 -3 -5 80.4 7.85
-3 3 -5 89.18 8.39
-5 3 -3 91.67 8.11
-5 3 -3 85.03 8.16
-5 3 3 92.72 8.43
-3 -5 -3 79.58 7.78
-1 -5 -5 115.72 9.93
-1 -5 5 128.43 10.5
-1 5 -5 121.67 10.55
-1 5 5 90.99 10.05
1 -5 -5 92.91 9.97
1 5 -5 90.68 10.25
5 -5 -1 127.3 10.26
5 -5 1 101.26 9.99
5 -1 -5 116.68 10.31
5 -1 5 103.63 9.77
5 1 -5 106 10.23
5 1 5 98 9.53
5 5 1 99.03 9.52
-5 5 -1 123.65 10.21
-5 5 1 115.08 10.18
-5 1 -5 95.19 9.79
-5 1 5 93.75 10.25
-5 -1 5 98.42 10.32
-5 -1 -5 117.04 9.67
-5 -5 1 93.46 9.68
-3 -5 -5 238.33 19.48
5 5 -3 207.7 19.8
-5 5 3 178.95 19.75
-5 5 -3 216.33 19.98
-5 5 -3 238.07 19.92
-5 3 -5 230.24 19.88
-5 -5 3 206.89 19.77
-5 -3 5 230.88 20.11
-3 5 -5 222.15 20.16
-3 5 5 223.12 20.13
3 -5 -5 236.13 20.05
3 -5 5 245.12 20.17
3 5 5 234.53 19.59
5 -3 -5 199.07 19.98
5 3 -5 247.36 20.33
5 3 5 211.1 19.24
5 5 3 186.91 19.08
-5 5 -5 687.34 60.03
6 0 0 770.36 78.62
0 6 0 1000 84.87
-2 6 0 0.56 0.86
2 0 -6 -0.13 0.89
-2 0 -6 0.04 0.85
-2 0 6 1.09 1.13
0 6 -2 0.54 0.91
-6 0 -2 0.81 0.47
-6 0 2 0.98 0.88
2 -6 0 0.26 0.71
2 6 0 1.02 0.8
6 0 -2 0.23 0.64
6 0 2 0.49 0.38
0 -6 2 0.59 0.97
0 -2 6 1.19 1.24
0 -6 -2 0.64 0.73
6 -2 0 -0.01 0.61
6 2 0 0.37 0.49
0 -2 -6 -0.21 0.85
-6 -2 0 0.66 0.58
-6 2 0 0.07 0.52
0 2 -6 1.62 1.12
-6 -2 2 18.62 2.42
-2 -2 -6 14.86 2.34
2 -2 -6 16.73 2.65
2 6 2 17.06 2.2
6 -2 -2 10.86 2.13
6 -2 2 14.11 1.98
6 2 -2 17.72 2.24
-2 2 6 14.67 2.57
-2 6 -2 22.61 2.61
-2 -6 2 22.03 2.61
2 -6 -2 16.5 2.45
-6 2 -2 17.37 2.11
-2 2 -6 15.56 2.62
-2 -6 -2 18.71 2.26
2 6 -2 17.24 2.53
-2 6 -2 14.03 2.57
-6 2 2 15.26 2.37
2 2 6 18.52 2.51
-2 6 2 13.13 2.35
-2 -2 6 17.65 2.78
2 2 -6 17.39 2.9
4 6 0 5.89 1.43
6 -4 0 7.37 1.56
0 4 -6 5.46 1.92
0 -6 4 7.56 1.9
-6 0 4 5.84 1.71
6 0 -4 8.12 2
4 0 -6 6.28 1.83
4 0 6 6.86 1.5
0 6 -4 4.87 1.68
6 4 0 6.92 1.26
-4 6 0 8.07 1.97
0 -4 -6 8.38 1.76
0 -4 6 5.84 1.95
-6 0 -4 6.31 1.16
-6 -4 0 7.66 1.21
-6 4 0 7.61 1.66
-4 0 -6 5.5 1.46
-4 0 6 6.08 2.06
0 -6 -4 7.18 1.59
-4 -6 0 9.29 1.5
4 -6 0 6.59 1.67
-2 6 -4 62.72 5.87
-2 -6 4 57.12 5.59
-2 4 6 45.42 5.48
6 -4 -2 52.27 5.34
-6 2 4 46.01 5.42
-2 -4 -6 53.1 5.23
-4 2 -6 37.95 5.16
-4 -2 6 57.83 5.88
2 -4 6 55.03 5.63
6 4 2 52.25 4.47
6 4 2 55.79 4.54
4 -2 -6 46.47 5.5
6 2 -4 64.23 5.65
-6 4 -2 56.77 5.31
2 4 -6 39.42 5.42
-4 6 2 51.9 5.41
4 2 6 48.03 5.04
2 6 4 45.85 5.05
2 -6 -4 41.73 5.26
4 6 2 43.51 4.81
-4 -6 2 39.43 5.09
-4 6 -2 43.52 5.21
-6 4 2 57.47 5.48
4 6 2 45.28 4.95
-2 4 -6 40.51 5.47
-4 -2 -6 56.64 5.05
6 -2 -4 45.75 5.38
-4 2 6 50.44 5.66
-6 2 -4 47.22 5.1
4 -6 -2 53.43 5.46
-6 -2 4 52 5.51
-6 2 -4 53.86 5
-4 6 -2 55.54 5.65
-2 -6 -4 53.24 5.12
2 6 -4 64.79 5.92
2 -6 4 38.65 5.32
4 2 -6 49.69 5.75
2 -4 -6 45.03 5.47
6 -4 2 56.02 5.22
-2 6 4 48.86 5.43
2 4 6 50.11 5.25
-4 -4 -6 191.58 18.55
-6 4 -4 251.5 19.28
-6 4 4 214.86 19.29
-4 -6 -4 233.72 18.6
-6 -4 4 215.49 19.16
-6 4 -4 186.52 18.79
-4 -4 6 240.93 19.64
-4 4 -6 229.03 19.37
-4 4 6 197.73 19.29
-4 6 -4 190.11 19.22
-4 6 4 188.09 19.11
4 -4 -6 218.99 19.43
4 4 6 200.26 18.64
4 6 4 189.11 18.5
6 -4 -4 209.88 19.13
6 4 -4 189.38 20
6 4 4 221.64 18.12
-6 0 6 19.84 3.19
-6 -6 0 19.35 2.4
-6 0 -6 23.48 2.64
6 -6 0 15.67 2.68
6 0 6 22.83 2.53
0 -6 -6 22.79 2.86
0 -6 6 17.4 2.95
0 6 -6 21.02 3.29
-6 6 0 16.55 2.73
2 -6 -6 3.05 1.28
2 6 -6 2.59 1.53
2 6 6 5.39 1.59
6 -6 -2 1.45 0.97
6 -2 -6 1.93 1.13
6 -2 6 2.59 1.09
6 2 -6 4.37 1.87
6 2 6 3.35 0.91
6 6 2 2.97 0.74
-2 6 6 2.87 1.39
-2 -6 -6 3.58 1.14
-2 -6 6 1.8 1.26
-2 6 -6 2.28 1.44
-6 6 -2 2.15 1.13
-6 6 2 2.39 1.15
-6 -6 2 2.95 1.17
-6 -2 -6 3.46 0.89
-6 -2 6 2.78 1.52
-6 2 -6 1.81 0.98
-6 2 6 2.16 1.34
2 -6 6 4.47 1.57
6 -4 -6 242.73 22.57
-6 -6 4 263.62 22.46
-6 -4 6 228.97 22.57
-6 4 -6 270.98 22.54
-6 4 6 206.57 22.42
-6 6 -4 214.84 22.15
-6 6 -4 227.96 22.46
-6 6 4 229.76 22.52
-4 -6 -6 275.82 21.93
-4 -6 6 218.45 22.48
-4 6 6 266.33 22.82
4 -6 -6 262.39 22.57
4 -6 6 234 22.54
4 6 6 251.11 21.92
6 -6 -4 284.29 22.72
6 6 4 244.21 21.52
6 4 6 267.72 21.66
-6 -6 -6 343.62 30.32
-6 6 -6 373.87 31.56
-6 6 6 371.45 31.69
6 -6 -6 340.01 31.36
6 6 -6 316.24 31.41
6 6 6 349.88 30.45
-7 -1 1 185.28 17.62
-7 -1 -1 199.57 17.36
-1 -1 -7 203.76 18.18
-1 -1 7 164.96 18.13
-1 1 -7 170.74 18.09
-1 1 7 205.23 18.38
-1 7 -1 215.34 18.13
-7 1 -1 224.91 17.58
1 -7 -1 176.37 17.87
1 -1 -7 213.2 18.27
1 -1 7 167.33 18.76
1 1 -7 195.39 18.38
1 7 -1 172.83 17.97
7 -1 -1 228.7 17.72
7 -1 1 213.84 17.54
7 1 -1 221.72 17.66
7 1 1 198.35 17.28
-1 -3 -7 0.91 0.91
-3 -1 7 0.86 1.14
-3 7 1 -0.14 0.71
-1 3 7 -0.41 0.71
7 3 1 0.39 0.39
1 -3 7 -0.2 0.84
1 3 -7 -0.13 0.84
3 1 7 0.86 0.86
3 7 -1 0.38 0.84
-7 -3 1 0.6 0.69
-1 -7 3 0.38 1.02
3 -1 -7 0.96 1.05
7 1 -3 1.32 0.94
1 -7 -3 0.93 0.86
-1 7 -3 0.95 1
-3 1 -7 1.1 0.94
-7 -1 -3 0.75 0.38
-7 -1 -3 0.27 0.33
7 -3 -1 0.65 0.78
-7 3 -1 0.57 0.68
-7 1 3 0.79 0.9
3 7 1 -0.03 0.51
-7 -1 3 0.72 0.88
7 -3 1 0.44 0.65
3 7 1 0.69 0.76
1 -3 -7 0.28 0.8
-1 7 3 1.13 0.86
1 -7 3 0.92 0.87
1 7 -3 0.25 0.89
7 -1 -3 0.53 0.86
3 1 -7 0.67 1.04
3 -7 -1 0.35 0.72
-7 1 -3 0.43 0.48
-7 1 -3 0.2 0.55
-1 -3 7 0.05 1.08
-1 3 -7 1.17 1.17
-3 1 7 0.59 0.98
-1 -7 -3 0.07 0.57
7 3 -1 0.71 0.61
-3 -1 -7 0.83 0.8
-7 3 1 1.45 1
-3 7 -1 0.61 0.73
-3 -7 1 0.41 0.7
-7 -3 -1 0.58 0.47
-3 7 -3 10.19 2.19
-3 7 -3 7.63 1.72
-3 3 7 9.47 2.48
7 -3 -3 7.33 1.7
3 3 7 7.72 1.75
3 7 -3 9.36 2.14
3 7 3 7.09 1.45
-7 -3 3 10.01 1.91
-7 3 -3 6.8 1.5
-3 -3 -7 6.97 1.56
-3 -3 7 7.67 2.39
-3 3 -7 9.48 2.45
-3 -7 3 8.4 1.97
3 -7 -3 8.11 2.05
3 -3 -7 10.79 2.58
3 3 -7 7.87 2.27
-7 3 3 6.47 1.78
-3 7 3 5.51 1.62
-7 3 -3 8.61 1.7
-3 -7 -3 8.82 1.5
-7 5 -1 9.29 1.78
1 -7 -5 8.27 1.78
-5 1 -7 7.78 1.89
5 -1 -7 12.81 2.82
-7 1 5 10.72 2.29
-7 -1 -5 9.01 1.2
-1 -7 5 7.7 2.11
-5 7 1 7.75 2.01
-1 -5 -7 6.01 1.62
7 -5 -1 6.45 1.75
-1 5 7 6.3 2.02
1 -5 7 6.93 1.77
1 5 -7 9.33 2.29
5 1 7 7.79 1.58
5 -7 1 6.37 1.71
-7 -5 1 7.03 1.44
-1 7 -5 4.84 1.79
-5 -1 7 7.5 2.32
5 -1 7 7.19 1.63
5 7 1 7.13 1.31
-1 7 5 11.86 2.07
5 -7 -1 5.82 1.65
1 -7 5 4.79 1.71
-1 5 -7 4.58 1.65
-5 1 7 6.59 2.18
1 -5 -7 5.02 1.75
-5 7 -1 7.23 2.11
-5 -1 -7 7.54 1.6
-7 -5 -1 8.46 1.15
1 7 -5 6.14 1.98
-7 -1 5 6.98 2.07
-7 5 1 9.12 1.78
-5 -7 1 6.9 1.54
7 -1 -5 6.34 1.87
5 1 -7 7.52 2.24
-1 -5 7 6.27 1.89
-1 -7 -5 7.15 1.58
-7 1 -5 8.34 1.49
-3 5 7 24.63 3.95
-7 3 5 35.91 4.21
-5 3 -7 28.95 3.96
-5 7 3 32.88 4.01
-3 -5 -7 29.9 3.59
5 3 7 30.61 3.5
7 -5 -3 32.71 3.97
5 -3 -7 37.21 4.4
7 5 3 32.22 2.85
-3 -7 5 37.39 4.21
-7 5 -3 30.55 3.91
-7 -5 3 38.74 4.01
-7 5 -3 33.42 3.8
-3 7 -5 25.44 4
3 -7 -5 32.62 4.05
-5 -3 7 36.71 4.35
3 -5 7 34.54 4.23
3 5 -7 36.32 4.4
3 7 5 32.75 3.65
7 -3 -5 40.4 4.28
-7 3 -5 34.67 3.81
-5 7 -3 35.41 4.27
-3 5 -7 22.66 3.94
-3 -5 7 25.02 4.08
5 3 -7 35.75 4.52
5 7 3 33.5 3.34
-7 -3 5 21.42 3.74
7 5 -3 22.91 3.62
-7 5 3 24.66 3.77
-5 -3 -7 27.53 3.35
3 -5 -7 35.34 4.23
-5 3 7 34.54 4.39
-3 -7 -5 27.5 3.44
5 -7 -3 27.6 3.88
-3 7 5 28.64 4.01
3 -7 5 24.89 3.92
5 7 3 37.23 3.57
3 5 7 26.95 3.6
-7 3 -5 29.06 3.47
-5 -7 3 34.03 3.83
-7 5 -5 205.83 21.6
7 5 5 250.29 20.86
5 7 -5 230.77 22.15
5 7 5 219.01 21.29
7 -5 -5 276.36 22.18
-5 7 5 263.69 22.45
5 -7 -5 283.75 22.42
5 -5 -7 202.35 21.98
5 5 7 226.3 21.42
-7 5 5 261.22 22.33
-5 -7 -5 272.5 21.36
-5 -5 -7 226.17 21.25
-5 -5 7 271.44 22.58
-5 5 -7 257.18 22.35
-5 5 7 202.27 22.06
-5 7 -5 209.12 22.16
-7 5 -5 249.62 22.13
-1 -7 -7 326.63 26.63
-7 7 1 326.27 26.89
-1 7 7 242.72 26.65
1 -7 -7 275.38 26.67
-7 -1 7 262.31 26.97
-7 1 -7 312.15 26.51
-1 -7 7 290.45 27.01
7 -1 7 323.04 26.38
7 1 7 272.52 25.95
7 7 1 313.85 26.15
-7 -1 -7 328.23 26.26
-7 7 -1 286.82 26.69
-7 1 7 290.03 27.15
3 -7 -7 43 5.04
-3 7 7 41.26 5.15
7 -7 -3 36.09 4.79
7 -3 -7 37.02 4.95
7 -3 7 39.6 4.65
7 3 -7 33.17 4.96
7 3 7 43.1 4.13
7 7 3 38.79 3.96
7 7 3 36.45 3.97
-7 -7 3 49.25 4.81
-7 7 3 34.31 4.79
-3 -7 -7 45.11 4.63
-3 -7 7 47.63 5.31
-3 7 -7 42.65 5.35
-7 3 7 48.47 5.47
-7 7 -3 38.32 4.72
3 -7 7 42.41 5.2
3 7 7 37.71 4.56
-7 -3 -7 41.44 4.04
-7 -3 7 42.36 5.17
-7 3 -7 37.83 4.7
-7 7 -3 42.62 5.16
-7 -5 -7 2.2 0.66
-7 -7 5 3.47 1.39
-7 5 -7 1.31 0.98
-7 5 7 2.11 1.41
-7 7 -5 2.45 1.3
-7 7 -5 3.49 1.57
-7 7 5 2.87 1.65
-5 -7 -7 1.96 0.84
-5 -7 7 2.66 1.51
-5 7 -7 1.99 1.47
-5 7 7 2.07 1.47
5 -7 -7 2.07 1.3
5 -7 7 4.45 1.61
7 7 -5 2.19 1.28
7 7 5 2.62 0.77
7 5 -7 1.48 1.23
7 5 7 2.6 0.85
5 7 7 3.46 1.31
5 7 -7 4.2 1.73
-7 -5 7 2.54 1.32
-7 -7 -7 122.06 11.29
-7 7 7 136.87 12.92
-7 7 -7 108.41 12.42
7 7 7 122.87 11.39
-7 -7 7 137.7 12.68
0 0 8 321.72 28.05
0 0 -8 337.38 28.13
0 8 0 273.43 27.59
0 8 2 28.01 3.82
2 0 -8 28.89 4.25
-8 0 -2 32.14 3.32
-8 0 2 26.65 3.72
-2 8 0 35.78 4.18
0 -2 -8 38.84 4.38
0 -2 8 35.62 4.47
0 2 -8 29.02 4.26
2 -8 0 30.03 3.94
-8 -2 0 32.81 3.48
-8 2 0 39 3.81
-2 0 -8 35.88 4.3
-2 0 8 31.02 4.33
0 -8 -2 41.63 4.14
2 -8 -2 26.51 3.82
2 -2 -8 33.35 4.3
2 2 -8 35.54 4.57
2 8 -2 41.87 4.35
-2 -8 -2 35.35 3.83
-8 -2 -2 33.21 3.07
-8 -2 2 31.77 3.78
-8 2 -2 28.86 3.46
-8 2 2 30.48 3.81
8 2 2 33.26 2.98
-2 -2 -8 32.72 4.02
-2 8 2 36.06 4.1
-2 8 -2 30.57 4.22
-2 8 -2 32.43 4.06
-2 -2 8 28.74 4.21
-2 2 -8 28.91 4.12
-2 2 8 31.72 4.34
0 -8 -4 -0.23 0.48
-4 0 8 -0.87 0.8
-8 0 -4 0.24 0.41
-8 0 4 -0.18 0.64
-4 8 0 0.4 0.79
0 -4 -8 0.99 0.88
0 8 -4 -0.61 0.72
4 0 -8 -0.04 0.74
4 0 8 0.35 0.75
-8 -4 0 -0.42 0.44
0 -4 8 0.2 1.09
0 4 -8 0.86 1.17
-4 0 -8 -0.96 0.49
-8 0 -4 0.4 0.43
4 -8 0 -0.14 0.6
4 8 0 -0.26 0.34
-8 4 0 0.27 0.67
0 -8 4 -0.05 0.89
2 8 4 0.99 0.76
-8 -4 2 0.63 0.86
-4 8 2 1.58 0.96
4 2 8 0.9 0.94
2 4 -8 -0.36 0.86
2 -4 8 0.26 1.01
-2 8 -4 0.05 1.08
2 -8 -4 0.46 0.96
-2 -8 4 2.23 1.25
-4 -2 8 0.39 1.17
-2 -4 -8 1.67 0.91
4 -2 -8 1.57 1.26
-8 4 -2 1.36 0.92
-2 4 8 0.75 1.04
-8 2 4 1.54 1.09
-4 2 -8 1.45 1.1
8 2 -4 1.93 1.39
-8 2 -4 1.54 0.81
-2 8 4 1.29 0.97
-8 2 -4 1.05 0.75
-4 -2 -8 0.52 0.76
-2 -8 -4 1.61 0.79
2 8 -4 1.79 1.27
-2 -4 8 1.7 1.49
-2 4 -8 2.83 1.56
-4 2 8 1.27 1.34
2 -4 -8 0.91 1.26
2 4 8 1.37 1.07
4 -8 -2 1.95 1.32
4 8 2 0.59 0.65
4 8 2 0.6 0.65
-4 -8 2 0.85 0.75
8 4 -2 2.27 1.06
-4 8 -2 1.57 0.91
-4 8 -2 1.09 1.13
2 -8 4 1.41 1
-8 4 2 1.2 1.01
-8 -2 4 1.39 0.99
8 -4 2 1.51 0.82
4 2 -8 -0.12 0.87
-4 8 4 29.48 4.53
4 -8 -4 42.52 4.93
-4 8 -4 43.65 4.83
4 4 -8 48.11 5.51
4 4 8 36.98 4.51
4 8 -4 51.29 5.45
4 8 4 31.64 4.07
8 4 -4 36.16 4.58
-8 4 -4 39.52 4.6
-8 4 4 37.29 4.76
-4 -8 -4 47.75 4.45
-4 -8 4 44.28 4.91
-4 -4 -8 43.32 4.47
-4 -4 8 40.34 5.21
-4 4 -8 29.42 4.66
-4 4 8 31.31 4.89
-8 -4 4 50.48 4.96
-4 8 -4 41.22 5.1
4 -4 -8 43.15 5.13
-8 4 -4 36.1 4.31
0 -6 8 270.5 24.37
6 0 -8 254.46 24.33
6 0 8 226.99 23.46
-6 8 0 297.54 24.25
0 -6 -8 282.89 24.12
8 0 -6 253.44 24.37
0 6 -8 289.53 24.78
0 8 -6 245.23 24.34
8 6 0 279.59 23.4
-8 0 -6 262.7 23.34
-8 0 6 247.99 24.2
-8 -6 0 236.56 23.16
-6 0 -8 268.49 23.81
-6 0 8 288.24 24.69
0 -8 -6 220.69 23.71
0 -8 6 306.02 24.48
6 8 0 242.35 23.5
8 -6 0 275.39 23.92
6 -8 0 292.08 24.16
6 -2 -8 119.74 13.73
2 8 6 144.44 13.58
-6 2 -8 117.1 13.44
-2 -6 -8 132.94 13.44
8 6 2 144.45 12.68
-2 8 -6 159.68 14.28
-8 2 6 123.22 13.74
-2 6 8 132.89 13.86
8 6 2 149.32 12.59
-6 8 2 138.76 13.64
-8 6 -2 161.37 13.69
-6 -2 8 154.08 14.32
8 2 -6 172.81 14.1
-8 -2 -6 157.99 12.71
2 -8 -6 135.22 13.68
-2 -8 6 142.97 13.89
2 -6 8 115.61 13.64
-8 -6 2 127.16 13.15
6 2 8 151.96 13.29
6 8 2 132.5 13.04
-8 -2 6 123.58 13.68
-6 8 -2 147.76 13.77
2 6 8 135.97 13.6
6 -8 -2 148.29 13.83
-8 2 -6 163.28 13.49
6 8 2 160.93 13.09
-8 6 2 134.84 13.61
-6 -2 -8 148.41 13.21
-6 -8 2 140.92 13.32
-6 2 8 147.75 14.19
-2 -8 -6 152.78 13.53
-2 6 -8 116.46 13.9
6 -2 8 159.79 13.65
-2 8 6 166.24 14.19
2 -6 -8 167.93 14.1
8 -6 2 161.8 13.62
8 6 -2 138.76 13.34
2 8 -6 112.19 13.85
8 4 -6 -0.06 0.67
-8 6 -4 0.16 0.67
-6 4 -8 0.36 0.86
-6 -4 8 0.8 1.06
-8 -6 4 0.22 0.62
-8 6 -4 0.19 0.73
4 -6 8 1.43 1.08
-4 -8 6 -0.34 0.54
-4 8 -6 0.16 0.96
-8 4 6 0.61 1.02
4 -8 -6 0.77 1.03
4 8 6 0.15 0.6
-4 -6 -8 0.61 0.69
6 4 8 0.97 0.75
-4 6 8 0.46 0.96
6 8 -4 0.14 0.93
-6 8 4 1.29 1.01
-8 6 4 0.09 0.76
-4 8 6 -0.33 0.91
-6 -8 4 0.07 0.67
4 8 -6 -0.05 0.68
-6 8 -4 -0.25 0.8
-8 4 -6 0.42 0.62
6 4 -8 -0.95 0.73
-4 -6 8 -0.37 0.83
-6 8 -4 -0.53 0.64
8 6 -4 1.21 1.12
-6 4 8 0.13 1.03
6 8 4 0.33 0.51
6 8 4 0.67 0.65
4 -8 6 0.83 1.03
-8 -4 6 0.15 0.81
-4 6 -8 0.27 0.99
-8 4 -6 0.65 0.74
4 -6 -8 0.96 0.98
-4 -8 -6 0.6 0.69
4 6 8 0.6 0.72
-6 -4 -8 0.56 0.64
-6 6 -8 20.82 3.46
-6 6 8 22.48 3.61
-6 8 -6 25.95 3.33
-6 8 -6 28.78 3.89
-6 8 6 20.5 3.47
6 6 -8 21.19 3.62
6 6 8 20.12 2.73
6 8 6 21.1 2.63
8 6 -6 21.64 3.5
-8 6 -6 18.77 2.89
-8 6 -6 19.56 3.32
-8 6 6 19.11 3.36
-6 -8 -6 18.51 2.44
-6 -8 6 17.93 3.1
-6 -6 -8 19.94 2.46
-6 -6 8 21.4 3.61
-8 -6 6 19.56 3.25
-8 8 0 291.93 25.59
-8 0 8 318.82 26.29
-8 -8 0 242.3 24.68
-8 0 -8 306.84 25.15
8 8 0 265.65 24.89
8 0 -8 253.55 25.63
0 -8 -8 247.95 25.27
0 -8 8 331.82 26.26
8 -8 0 289.74 25.47
8 0 8 272.01 24.83
-8 8 2 266.1 22.61
-2 -8 -8 224.77 22.18
-2 8 -8 241.53 23.16
-2 8 8 229.33 22.73
2 -8 -8 286.77 22.82
2 -8 8 200.46 22.51
2 8 8 248.37 22.45
8 -8 -2 223.11 22.51
8 -2 8 222.83 22.03
8 2 -8 222.87 22.61
8 2 8 249.31 21.58
8 8 2 221.46 21.45
8 8 2 248.67 21.66
-8 -2 8 287.01 23.27
-8 2 -8 285.69 22.56
-8 2 8 216.17 22.71
-8 8 -2 270.54 22.63
-8 -2 -8 265.59 21.75
-4 8 -8 30.36 4.81
-4 8 8 28.16 4.53
-4 -8 8 39.93 4.89
8 4 8 35.9 3.96
8 8 -4 30.2 4.23
8 8 4 35.73 3.45
8 8 4 35.13 3.48
4 8 8 40.36 4.34
8 -4 8 38.83 4.5
8 4 -8 27.29 4.53
4 -8 -8 31.87 4.47
4 -8 8 45.52 5.18
-8 -8 4 26.32 3.99
-8 -4 -8 35.03 3.47
-4 -8 -8 31.15 3.94
-8 -4 8 31.24 4.51
-8 4 -8 29.21 4.27
-8 4 8 30.27 4.69
-8 8 -4 42.15 4.61
-8 8 -4 28.38 4.46
-8 8 4 34.74 4.65
6 8 8 117.6 12.23
6 -8 -8 147.27 13.34
6 -8 8 118.68 13.2
-6 -8 8 145.23 13.42
-6 8 8 149.75 13.76
-8 -6 -8 138.04 11.74
-8 -6 8 116.66 13.04
-8 6 -8 142.59 13.39
-8 6 8 152.98 13.72
-8 8 -6 121.2 12.71
-8 8 -6 121.71 13.29
-8 8 6 145.35 13.55
-6 -8 -8 124.42 12.11
8 8 -6 107.55 12.83
-8 8 -8 230.01 19.99
-8 8 -8 187.02 20.31
-8 8 8 211.51 20.62
-8 -8 -8 216.62 18.82
1 -9 -1 115.67 11.54
-1 9 1 130.74 11.63
-1 1 9 101.28 11.72
-1 9 -1 133.32 11.92
-1 1 -9 117.67 11.93
-9 -1 -1 114.21 10.76
-9 -1 1 106.27 10.96
-9 1 1 134.55 11.25
-1 -1 -9 118.15 11.72
-1 -1 9 112.85 11.8
1 9 -1 106.29 11.38
9 -1 -1 126.9 11.02
9 -1 1 121.42 10.89
9 1 -1 106.94 10.9
9 1 1 135.7 10.98
1 1 -9 130.19 12.13
1 -1 -9 129.23 11.89
1 -1 9 105.79 11.73
1 -3 9 0.97 1.09
-9 -1 -3 1.5 0.61
-9 -3 1 2.05 0.94
-9 3 -1 1.01 0.75
-3 -1 9 1.92 1.33
-3 1 -9 0.74 1.06
1 3 -9 1.33 1.41
3 1 9 2.51 1.24
3 9 -1 1.84 1.1
-1 9 -3 0.42 1
1 -9 -3 0.55 0.6
-1 3 9 1.8 1.45
3 -1 -9 2.1 1.47
-1 -9 3 1.5 1.24
-9 -1 -3 1.98 0.6
9 -3 -1 1.12 0.81
-9 1 3 1.46 1
9 3 1 2.34 0.62
-3 9 1 2.93 1.35
-1 -3 -9 0.98 0.98
9 1 -3 2.79 1.06
-1 3 -9 3.92 1.68
-1 -3 9 0.65 1.2
1 -3 -9 3.37 1.73
3 1 -9 2.5 1.43
-9 -1 3 1.65 1.14
3 -9 -1 0.7 0.82
-3 9 -1 1.05 0.95
9 3 -1 0.95 0.64
9 -1 -3 0.9 0.96
-9 -3 -1 2.38 0.72
-9 3 1 1.92 1.1
-9 1 -3 1.8 0.79
-1 9 3 2.47 1.16
-3 9 -1 1.49 1.18
-3 -1 -9 2.18 1.23
9 -3 1 2.15 0.93
3 9 1 0.94 0.84
-3 1 9 1.18 1.31
-1 -9 -3 1.31 0.87
1 9 -3 0.5 0.85
-3 -9 3 0.18 0.81
-3 -3 -9 -0.06 0.58
-9 3 -3 0.07 0.48
-9 3 3 0.05 0.73
-3 -9 -3 -0.22 0.42
3 -3 -9 0.35 0.81
3 3 -9 -0.15 1.1
3 3 9 0.29 0.87
3 9 -3 0.38 0.65
3 9 3 -0.06 0.59
9 -3 -3 -0.2 0.6
-3 3 -9 0.34 1.06
-3 3 9 -0.43 1.08
-3 -3 9 0.15 1.14
-9 -3 3 0.83 0.87
-3 9 3 -0.68 0.58
3 -9 -3 0.48 0.86
-3 9 -3 0.09 0.97
9 3 -3 -0.1 0.61
-3 9 -3 -0.26 0.54
5 9 -1 76.08 6.64
-5 9 1 50.71 6.42
9 -5 -1 54.97 6.24
1 -5 9 45.9 6.59
-9 -1 -5 61.42 5.47
9 5 1 58.31 5.55
-1 -9 5 62.91 6.77
-1 5 9 69.41 7.09
-9 -1 -5 57.71 5.57
5 1 9 55.84 6.34
-1 -5 -9 49.77 6.38
-9 5 -1 65.35 6.4
-9 -5 1 63.62 6.01
-9 1 5 66.26 6.68
1 -9 -5 46.94 6.29
5 -1 -9 70.37 7.18
1 5 -9 68.53 7.26
-5 1 -9 59.47 6.6
-5 -1 9 44.83 6.68
9 1 -5 60.05 6.45
-1 -9 -5 58.29 6.39
-1 5 -9 68.97 7.28
-9 -5 -1 59.35 5.56
5 9 1 60.84 6.29
5 9 1 65.14 6.13
1 -5 -9 56 6.65
-1 9 5 63.04 6.64
5 -1 9 65.68 6.58
-1 -5 9 52.34 6.84
9 -5 1 63.81 6.28
-5 1 9 57.18 6.99
5 -9 -1 62.07 6.59
-5 9 -1 52.03 6.48
9 -1 -5 55.31 6.44
9 5 -1 61.36 6.01
-9 1 -5 55.75 5.86
-9 5 1 57.05 6.34
-5 -1 -9 60.79 6.42
-9 1 -5 63.55 5.81
1 9 -5 69.25 7.31
-9 -1 5 61.37 6.68
3 -5 9 -0.59 0.67
5 3 9 0.24 0.59
-9 5 -3 -0.19 0.63
-9 3 5 0.49 0.9
3 9 5 0.84 0.7
-3 -5 -9 -0.64 0.56
-5 -3 9 -0.39 0.88
-5 3 -9 -0.05 0.83
3 -9 -5 0.09 0.78
-5 9 3 0.72 0.89
-3 9 -5 -0.4 0.75
-9 -5 3 0.31 0.65
9 -5 -3 -0.01 0.73
-3 5 9 -0.55 1.05
-3 -9 5 1.04 0.81
9 3 -5 -0.44 0.55
5 -3 -9 0.96 0.91
5 9 -3 -0.06 0.71
5 -9 -3 -0.39 0.46
-5 -3 -9 0.16 0.61
-3 -9 -5 0.49 0.62
3 5 9 0.51 0.79
-5 3 9 0.45 0.95
-5 9 -3 0.13 0.96
-9 3 -5 -0.42 0.41
-9 5 3 1.19 1.11
-9 3 -5 -0.01 0.65
5 9 3 0.42 0.59
5 9 3 0.7 0.7
9 -3 -5 -0.82 0.56
-5 -9 3 0.35 0.73
3 -5 -9 -0.2 0.84
-9 -3 5 0.13 0.87
3 9 -5 0.06 0.98
-3 9 5 -0.1 0.77
-3 -5 9 0.24 1.18
-3 5 -9 1.34 1.28
9 5 -3 0.5 0.75
-5 9 -3 0.41 0.73
5 5 9 10.42 2.02
-9 5 -5 12.19 2.06
-5 -5 -9 8.9 1.8
-9 -5 5 8.27 2.26
-9 5 -5 11.38 2.23
-9 5 5 11.7 2.44
-5 -9 -5 10.82 1.83
9 5 -5 15.88 2.56
5 -5 -9 9.86 2.85
-5 -5 9 13.71 2.92
-5 5 -9 15.24 3.66
5 9 5 10.09 1.75
9 -5 -5 12.37 2.32
-5 -9 5 9.79 2.42
-5 9 5 11.03 2.47
-5 9 -5 6.84 2.03
-5 9 -5 10.65 3.07
-5 5 9 14.45 3
5 -9 -5 13.19 3.06
9 7 1 233.25 19.5
1 -9 -7 203.57 20.33
7 1 9 248.72 20
7 -9 1 227.77 20.55
-7 9 1 211.84 20.41
9 1 -7 210.18 20.4
1 -7 9 215.07 20.71
-1 7 9 255.12 20.99
-9 -1 -7 230.07 19.51
-7 1 -9 259.85 20.4
-9 7 -1 211.88 20.18
-1 -7 -9 218.83 20.33
9 -7 -1 207.41 20.21
-9 1 7 203.73 20.6
-7 -1 9 211.48 20.83
9 7 -1 211.51 19.76
9 -1 -7 209.5 20.4
-1 9 7 195.67 20.37
9 -7 1 234.58 20.3
-9 7 1 196.07 20.07
-1 7 -9 244.21 21.31
7 -1 9 212.03 19.92
7 9 1 210.96 19.63
-9 1 -7 217.33 19.84
-7 9 -1 254.67 20.66
-9 -1 7 198.77 20.49
-1 -9 -7 228.23 20.3
-1 -7 9 185.11 20.46
-7 -1 -9 217.19 19.97
1 -7 -9 204.47 20.43
-7 1 9 229.51 20.99
3 -7 9 45.81 6.06
-9 -3 -7 49.49 4.51
-3 -7 -9 51.4 5.56
3 -9 -7 51.4 6.02
9 3 -7 57.68 6.03
-3 7 9 47.21 6.08
-9 7 -3 40.2 5.58
7 3 9 53.06 5.3
9 -7 -3 53.61 5.89
-9 3 7 49.43 6.09
9 7 3 44.81 4.57
-7 3 -9 48.67 5.87
-3 9 -7 36.79 5.89
-7 9 3 57.02 6.06
3 9 7 41.78 5.43
7 9 -3 50.49 5.71
-7 -3 9 44 6
-3 7 -9 55.82 6.63
-7 9 -3 59.42 6.48
-3 9 7 49.11 6.08
9 -3 -7 47.03 5.9
3 -9 7 51.35 6.15
7 3 -9 53.48 6.4
-3 -9 -7 56.99 5.65
-7 -3 -9 47.47 5.14
-9 7 3 45.82 5.76
-7 9 -3 60.12 6.1
3 -7 -9 45.99 5.95
3 7 9 48.22 5.71
-3 -7 9 42.88 5.99
7 9 3 43.29 4.94
9 7 -3 55.24 5.66
-7 -9 3 56.74 5.65
-7 3 9 51.14 6.28
-9 -3 7 49.07 5.99
-9 3 -7 45.3 5.15
-9 3 -7 49.64 5.61
7 9 3 51.07 5.13
-5 -7 -9 15.49 2.25
-5 9 -7 16.45 3.23
5 -7 9 13.44 2.8
5 7 -9 15.56 3.2
7 5 9 14.98 2.18
7 9 -5 17.75 2.94
-9 7 -5 12.79 2.69
5 -9 -7 17.67 3.08
9 5 -7 17.39 3.02
5 9 7 16.5 2.45
-9 -7 5 9.63 2.27
-5 7 9 18.1 3.26
-9 5 7 15.6 3.03
-9 7 -5 11.95 2.39
-7 9 5 17.61 3.1
-7 -5 9 15.19 3.9
-7 5 -9 13.35 2.82
-7 -9 5 15.01 2.63
-7 -5 -9 13.43 2.01
7 9 5 15.59 2.14
-9 7 5 14.38 2.85
-7 5 9 15.37 3.26
-5 -9 -7 15.92 2.26
-5 7 -9 14.39 3.02
-7 9 -5 10.99 2.97
-5 -7 9 12.94 2.89
7 5 -9 18 3.39
7 9 5 16.24 2.09
5 -7 -9 15.9 3.07
-9 5 -7 12.89 2.29
-9 5 -7 17.03 2.87
5 -9 7 12.7 3.17
5 9 -7 19.99 3.31
-7 9 -5 17.48 2.8
-5 9 7 14.88 3.61
9 7 -5 10.35 2.62
5 7 9 12.36 2.31
7 7 -9 97.76 11.54
7 7 9 116.77 10.59
7 9 7 115.47 10.44
9 7 -7 88.66 11.14
-9 -7 7 127.11 11.85
-9 7 -7 102.88 10.91
-9 7 -7 128.79 11.75
-9 7 7 100.89 11.5
-7 -9 -7 105.56 10.28
-7 -9 7 124.3 11.5
-7 -7 -9 106.59 10.26
-7 -7 9 89.08 11.31
-7 7 -9 125.4 12.03
-7 7 9 101.6 11.62
-7 9 -7 125.06 11.4
-7 9 -7 122.05 11.94
-7 9 7 91.55 11.38
9 7 7 117.3 9.82
-9 -9 1 247.28 19.48
-9 -1 -9 240.62 19.48
-9 -1 9 173.5 20.16
-9 1 -9 204.75 19.56
-9 1 9 230.26 20.76
-9 9 -1 204.79 19.94
-9 9 1 221.73 20.04
-1 -9 -9 236.62 20.2
-1 9 -9 214.16 20.95
-1 9 9 185.63 20.15
1 -9 -9 208.6 20.08
9 9 1 195.03 19.14
9 1 9 220.86 19.18
9 9 1 207.04 19.08
9 1 -9 212.45 20.38
9 -1 -9 209.23 20.3
9 -1 9 205.44 19.43
9 -9 -1 204.73 19.93
9 -9 1 232.01 20.16
-9 -9 3 63.82 7.92
9 -3 9 99.03 8.74
9 3 -9 82.71 8.87
3 9 9 75.33 8.44
9 -9 -3 104.99 10.22
3 -9 9 91.91 9.32
9 9 -3 93.05 8.49
9 9 3 79.53 7.59
-9 -3 9 88.28 9.21
-9 3 -9 79.62 8.55
-9 3 9 77.15 8.96
-9 9 -3 63.89 8.22
-9 9 -3 85.48 9.07
-9 9 3 84.46 8.83
-3 -9 -9 73.68 8.23
-3 -9 9 71.91 8.81
-3 9 -9 82.4 9.41
-3 9 9 73.43 8.92
3 -9 -9 74.57 8.65
-9 -3 -9 78.4 7.54
-5 9 9 50.72 6.68
5 -9 -9 57.32 6.59
5 -9 9 64.56 7.5
-9 9 -5 53.82 6.15
-9 9 -5 37.72 6.5
-9 9 5 40.66 6.19
-5 -9 -9 48.36 5.63
9 9 -5 65.75 6.58
9 9 5 51.53 5.05
9 9 5 50.74 5.03
-9 -9 5 52.9 6.08
-9 -5 -9 54.09 4.95
-9 -5 9 43.99 6.3
-9 5 -9 62.87 6.75
9 5 -9 63.93 6.97
9 5 9 51.85 5.07
-5 -9 9 48.5 6.37
-5 9 -9 43.26 6.54
-9 5 9 48.79 6.62
5 9 -9 58.32 6.85
5 9 9 52.15 5.94
7 -9 -9 126.95 12
7 9 -9 135.1 12.37
-7 9 9 124.68 12.19
9 -9 -7 91.67 11.29
9 -7 -9 115.08 11.65
-9 -9 7 88.42 10.99
-9 7 -9 116.6 11.99
-9 7 9 110.53 11.94
7 9 9 105.62 10.56
-9 -7 -9 108.24 9.96
-7 9 -9 98.97 11.94
9 9 7 112.65 10.12
9 9 7 115.18 10.06
-9 9 -7 105.12 11.1
-9 9 -7 110.07 11.86
-9 9 7 101.19 11.67
-7 -9 -9 119.12 10.55
9 7 -9 120.8 11.99
9 7 9 104.89 10.09
9 9 -7 101.61 13.64
-9 9 -9 134 13.43
-9 -9 -9 126.05 12.19
-9 9 -9 128.06 14.16
-9 9 9 136.88 14.2
9 -9 -9 146.57 14.17
9 9 -9 153.9 14.34
9 9 9 127.18 12.36
0 10 0 630.57 50.98
0 0 10 581.98 51.34
0 0 -10 522.49 51.2
0 -2 -10 22.1 3.58
0 2 -10 25.28 3.98
0 2 10 22.1 3.68
2 10 0 27.93 3.56
0 -2 10 20.55 3.63
-10 0 2 21.95 3.08
-2 10 0 25.05 3.51
-10 0 -2 22 2.65
-10 -2 0 22.57 2.79
-10 2 0 27.51 3.13
-2 0 -10 20.73 3.52
-2 0 10 24.08 3.9
0 -10 -2 29.22 3.63
0 10 -2 19.46 3.28
0 10 2 26.3 3.46
2 0 -10 23.72 3.72
10 -2 0 22.29 2.91
10 2 0 25.91 2.71
10 0 2 22.99 2.57
10 0 -2 23.05 2.96
-10 2 2 2.54 1.14
-10 2 -2 1.85 0.87
-2 -2 -10 1.91 1.25
-2 -2 10 3.38 1.85
10 2 2 1.68 0.54
2 -2 -10 2.56 1.47
2 -2 10 4.52 1.99
2 2 -10 2.58 1.4
10 -2 -2 1.69 0.89
10 -2 2 1.98 0.75
10 2 -2 1.8 0.86
-2 2 10 1.31 1.36
-2 10 -2 3.42 1.6
-2 10 2 1.8 1.26
2 -10 -2 0.95 0.91
-2 2 -10 0.91 1.13
-10 -2 -2 1.76 0.61
-10 -2 2 1.13 1
-4 0 -10 10.2 2.72
4 10 0 11.89 2.26
10 0 -4 10.76 2.06
4 0 10 11.67 2.37
10 -4 0 11.68 2.03
0 -10 4 11.7 2.37
4 -10 0 9.86 2.16
10 4 0 12.08 1.55
-10 -4 0 11.36 1.63
-10 4 0 8.18 1.94
-10 0 -4 12.49 1.5
-10 0 -4 10.39 1.54
-10 0 4 13.75 2.44
-4 10 0 10.67 2.32
0 4 -10 13.64 2.88
4 10 0 8.84 1.92
-4 0 10 11.75 3.07
0 -4 -10 14.35 2.67
0 -4 10 10.1 2.63
0 10 4 10.57 2.12
4 0 -10 11.31 2.52
0 -10 -4 9.29 2.08
-10 2 4 19.48 3.05
4 10 -2 13.38 2.69
2 -4 10 22.62 3.42
-4 10 2 15.94 2.9
-2 -4 -10 22.11 3.13
10 2 -4 14.08 2.53
2 -10 -4 19.38 3.1
-2 4 10 20.63 3.48
-4 2 -10 21.64 3.33
-4 -2 10 21.07 3.58
2 4 -10 14.09 3.23
10 -4 -2 23.68 2.97
4 2 10 18.97 2.96
-10 -4 2 14.97 2.46
4 -2 -10 16.56 3.24
-2 -10 4 20.58 3.09
-10 4 -2 20.01 2.69
4 -10 -2 22.62 3.21
-10 -2 4 12.59 2.67
-10 2 -4 17.89 2.49
10 4 -2 19.43 2.55
-4 -10 2 19.08 2.82
2 -4 -10 19.15 3.27
4 10 2 15.42 2.65
4 10 2 21.56 2.79
10 -4 2 19.43 2.59
-10 4 2 23.29 3.09
-4 -2 -10 18.14 2.86
-4 10 -2 13.18 2.74
-4 2 10 19.62 3.52
-2 -10 -4 19.85 2.85
-2 -4 10 16.71 3.35
-2 4 -10 15.23 3.14
2 10 -4 28.7 3.64
-4 10 -2 21.96 3.48
-10 2 -4 17.81 2.32
10 -2 -4 16.6 2.76
-2 10 4 15.53 2.81
-10 4 4 48.19 6.35
-4 -10 4 63.68 6.64
-4 -4 -10 68.19 6.5
-4 -4 10 45.19 6.73
-4 10 4 53.61 6.5
-4 4 10 51.14 6.78
-4 10 -4 67.09 6.88
-4 -10 -4 62.31 6.27
4 -10 -4 57.21 6.68
4 -4 -10 60.8 6.99
4 4 10 53.71 6.4
4 10 -4 67.71 7.56
4 10 4 46.49 5.96
10 -4 -4 68.98 6.52
10 4 -4 74.43 6.55
-10 4 -4 58.32 6.07
-10 4 -4 65.46 6.43
-10 -4 4 44.44 6.03
-4 10 -4 60.62 7.07
-4 4 -10 60.2 7.04
-6 0 10 143.27 13.4
0 -10 -6 138.4 12.56
0 -10 6 155.41 13.13
10 -6 0 123.5 12.15
10 6 0 117.34 11.54
-10 -6 0 119.41 11.42
-10 0 -6 131.98 11.4
10 0 -6 113.33 12.24
-6 0 -10 117.33 12.34
-6 10 0 131.64 12.67
6 10 0 113.51 11.91
6 10 0 136.17 12.14
-10 6 0 119.79 12.11
0 -6 -10 109.65 12.46
6 0 10 133.16 12.33
-10 0 -6 122.2 11.58
0 6 -10 136.61 13.18
0 -6 10 131.35 13.1
-2 -10 6 4.06 1.82
-2 6 10 1.79 1.31
10 -6 -2 3.52 1.46
-6 -2 10 5.01 2.29
2 -10 -6 3.22 1.47
10 6 2 3.58 0.72
-6 10 2 2.68 1.43
-2 -6 -10 3.47 1.58
6 10 -2 4.24 1.56
-10 -6 2 3.29 1.16
-10 6 -2 4.74 1.68
-10 2 6 2.26 1.26
-6 2 -10 2.7 1.33
10 2 -6 2.05 1.16
2 10 6 3.45 1.52
6 2 10 3.55 1.34
2 -6 10 3.38 1.84
6 10 2 5.53 1.71
-10 -2 6 3.55 1.52
-6 2 10 1.84 1.6
-6 10 -2 1.94 1.22
-10 6 2 3.27 1.43
-2 6 -10 4.68 2.12
6 -2 10 3.68 1.52
-2 10 6 2.53 1.41
10 -2 -6 2.91 1.32
2 6 10 3.83 1.62
-6 10 -2 3.16 1.63
-10 2 -6 3.21 1.07
-10 2 -6 4.24 1.33
-2 -6 10 1.29 1.54
-6 -2 -10 4.36 1.44
2 -10 6 2.73 1.52
2 -6 -10 3.55 1.58
-2 -10 -6 3.14 1.57
6 10 2 3.24 1.2
-6 -10 2 3.45 1.45
10 -6 2 1.14 0.88
10 6 -2 3.66 1.23
-10 6 -4 20.11 3.07
10 -6 -4 16.17 2.85
-10 4 6 19.55 3.22
-4 -6 -10 18.93 2.81
6 10 -4 15.25 2.9
10 4 -6 13.86 2.7
-4 -10 6 20.17 3.27
-4 10 -6 18.19 3.4
-6 10 4 17.31 3.13
4 -10 -6 15.5 3.04
-6 -4 10 19.63 3.59
-6 4 -10 19.64 3.41
-4 6 10 19.57 3.54
-10 -6 4 16.79 2.8
6 4 10 21.29 2.83
4 10 6 15.23 2.64
-10 6 -4 16.96 2.71
4 -6 10 22.78 3.59
-6 4 10 14.84 3.21
10 6 -4 21.31 3.03
-4 -6 10 16.05 3.43
6 10 4 19.66 2.57
10 -4 -6 18.85 3.03
-10 4 -6 17.24 2.55
-4 -10 -6 21.65 2.81
-6 -4 -10 18.88 2.65
-10 6 4 13.55 2.83
4 10 -6 15.8 3.12
-10 -4 6 21.22 3.17
-10 4 -6 15.2 2.71
4 -6 -10 22.23 3.61
-6 10 -4 17.42 2.95
-6 10 -4 21.89 3.57
-4 10 6 19.42 3.35
4 6 10 18.36 2.97
-4 6 -10 20.05 3.57
-10 6 6 12.48 2.75
-6 -10 6 14.94 2.73
-6 10 -6 9.77 2.94
-6 10 6 13.97 2.95
-10 6 -6 11.22 2.15
-10 -6 6 10.63 2.42
6 6 10 11.69 2.27
6 6 -10 11.73 3.3
-6 10 -6 13.64 2.63
-6 -6 -10 15.84 2.24
-6 -6 10 11.28 2.93
-6 6 -10 16.54 3.19
-6 6 10 15.58 3.27
10 -6 -6 11.73 2.48
6 10 6 12.35 2.14
6 -6 -10 13.32 2.97
-10 6 -6 11.62 2.54
6 -10 -6 11.46 3.14
-6 -10 -6 13.54 2.1
6 10 -6 15.62 2.91
10 6 -6 11.8 2.58
-8 0 -10 170.23 17.49
-10 -8 0 181.67 16.88
-10 8 0 163.88 17.52
0 -8 -10 178.27 17.91
0 -8 10 201.33 18.54
-8 0 10 154.36 18.16
0 -10 -8 225.5 18.28
-10 0 8 205.18 18.47
8 0 10 205.26 17.44
0 8 -10 151.77 18.25
8 10 0 213.63 17.55
10 8 0 198.29 17.14
10 -8 0 189.12 17.69
-10 0 -8 194.23 17.12
-8 10 0 169.44 17.83
10 0 -8 211.89 18.21
-10 2 8 61.34 7.23
-10 8 -2 65.8 6.85
8 2 10 67.56 6.39
-8 -2 10 65.73 7.56
-8 2 -10 57.32 6.73
-2 -10 8 56.92 7.17
-10 -2 -8 56.23 5.7
-2 -8 -10 53 6.52
10 8 2 67.5 6.17
2 -10 -8 56.1 6.96
8 10 -2 60.39 6.61
2 -8 10 79.56 7.98
10 -8 -2 66.15 6.97
-8 10 2 58.64 6.83
2 10 8 51.73 6.68
-2 8 10 64.94 7.45
10 2 -8 68.64 7.26
-10 -8 2 64.9 6.27
2 8 10 52.57 6.81
-10 -2 8 62.78 7.21
-2 8 -10 48.35 7.21
-10 2 -8 59.71 6.57
-8 -10 2 50.76 6.22
-8 10 -2 55.04 6.78
10 -8 2 51.46 6.46
-2 -10 -8 65.36 6.87
-2 -8 10 61.28 7.31
8 -2 10 68.44 6.74
8 10 2 60.35 6.11
-2 10 8 52.45 7.01
-8 2 10 69.64 7.73
2 -8 -10 51.07 6.86
-8 -2 -10 68.44 6.39
-10 8 2 60.89 6.88
8 10 2 54.96 6.09
10 -2 -8 55.63 6.92
8 2 -10 54.32 7.07
-10 2 -8 58.33 6.06
10 8 -2 68.55 6.56
-8 10 4 3.04 1.7
10 4 -8 1.42 1.22
-4 -8 -10 3.86 1.3
-4 8 10 5.83 2.42
-10 8 -4 0.67 0.96
8 10 -4 3.95 1.69
8 4 10 5.39 1.51
10 -8 -4 4.86 2.1
4 -10 -8 0.47 0.97
10 8 4 3.25 0.65
10 8 4 3.37 0.73
-4 -10 8 2.57 1.63
4 -8 10 2.08 1.45
-8 -4 10 3.99 2.02
-10 4 8 2.24 1.65
-4 10 -8 1.35 1.36
-10 -8 4 1.34 1.02
-10 8 -4 1.83 1.2
4 10 8 1.12 1.05
-8 4 -10 2.2 1.44
-8 10 -4 5.23 2.53
10 8 -4 4.5 1.59
4 8 10 2.41 1.18
4 10 -8 1.54 1.16
-10 8 4 2.07 1.38
4 -10 8 0.33 0.98
-4 8 -10 4.79 2.33
8 4 -10 0.99 1.23
-8 -10 4 1.43 0.91
-10 4 -8 2.61 1.47
4 -8 -10 3.46 1.96
8 10 4 3.86 1.16
-4 10 8 4.1 1.83
-8 -4 -10 3.63 1.15
10 -4 -8 1.84 1.43
-10 4 -8 1.16 0.82
-4 -10 -8 2.39 1.07
8 -4 10 1.65 1.52
-10 -4 8 5.61 2.06
-8 10 -4 2.73 1.5
-4 -8 10 3.73 1.95
-8 4 10 3.41 1.72
8 10 4 3.51 1.15
-6 -8 -10 30.54 3.66
-6 -10 8 34.6 4.53
-8 6 -10 30.5 4.64
6 10 8 29.25 3.71
-6 8 10 26.59 4.64
10 6 -8 32.02 4.54
-10 8 -6 31.35 4.06
-10 6 8 28.17 4.51
8 -6 -10 29.72 4.5
-10 8 -6 25.77 4.3
-8 10 6 33.83 4.78
-8 -6 10 35.36 4.89
10 -8 -6 24.87 4.14
8 10 -6 34.89 4.48
-10 -8 6 35.28 4.28
6 -8 10 37.88 4.97
6 -10 -8 38.31 4.92
6 8 -10 24.42 4.46
8 -10 -6 29.43 4.49
10 8 -6 26.81 4.15
-10 6 -8 28.91 4.29
-6 10 8 23.61 4.42
-8 10 -6 20.8 3.75
8 10 6 29.88 3.33
10 -6 -8 22.53 3.97
-10 6 -8 31.93 3.93
-10 8 6 27.86 4.46
-6 -8 10 20.54 4.04
-6 8 -10 30.35 4.9
-10 -6 8 24.57 4.16
-8 10 -6 29.92 4.73
6 10 -8 21.87 4.13
-8 6 10 27.34 4.63
-6 -10 -8 22.92 3.39
6 -8 -10 28.19 4.4
-8 -6 -10 32.76 3.33
6 8 10 31.03 3.94
8 6 -10 33.31 4.87
-8 10 8 67.92 8.45
-8 8 -10 57.96 8.27
-8 8 10 75.76 8.79
-8 10 -8 68.9 7.94
-8 10 -8 69.05 8.67
-10 -8 8 72.96 8.1
-10 8 -8 86.11 8.02
-10 8 -8 79.41 8.68
-10 8 8 68.15 8.34
-8 -10 -8 80.08 7.14
-8 -10 8 71.41 8.07
-8 -8 -10 72.45 6.99
-8 -8 10 78.35 8.55
10 -8 -8 71.56 8.19
10 8 -8 58.43 7.93
8 -10 -8 80.56 8.62
8 -8 -10 64.2 8.09
8 -8 10 68.42 8.22
8 8 -10 51.23 7.99
8 8 10 82.22 8.12
8 10 -8 53.6 7.84
-10 0 -10 171.14 16.05
-10 0 10 172.72 17.25
-10 10 0 175.43 16.71
0 -10 -10 167.9 16.76
0 -10 10 148.15 16.95
0 10 -10 194.16 17.94
10 -10 0 168.24 16.6
10 0 -10 180.24 16.98
10 0 10 173.12 15.86
10 10 0 167.97 15.78
-10 -2 10 16.03 3.46
-10 2 -10 21.31 3.14
-10 2 10 15.98 3.51
-10 10 -2 17.6 3.08
-10 10 2 15.94 3.09
-2 -10 -10 18.22 3.11
-10 -2 -10 18.55 2.41
-2 -10 10 13.55 3.18
-2 10 -10 12.3 3.45
-2 10 10 18.6 3.46
2 -10 -10 21.86 3.59
2 -10 10 20.23 3.75
2 10 -10 20.98 4.96
2 10 10 16.95 3.18
10 -10 -2 14.49 2.93
10 -2 -10 18.38 3.43
10 -2 10 18.48 2.86
10 2 -10 18.47 3.42
10 10 -2 20.02 2.84
10 10 2 14.32 2.23
-10 -4 10 0.5 0.92
-10 -4 -10 0.44 0.43
-10 10 -4 0.88 1.08
-10 10 4 0.18 0.9
-4 -10 -10 0.34 0.74
-4 -10 10 0.94 0.99
-4 10 -10 -0.04 0.88
-4 10 10 -0.8 0.77
4 -10 -10 0.52 1.06
4 10 -10 -0.71 1.06
4 10 10 -0.07 0.8
10 -10 -4 -0.68 0.64
10 -4 -10 -0.09 1.11
10 4 -10 1.22 1.23
10 4 10 0.21 0.37
10 10 -4 0.03 0.78
10 10 4 -0.05 0.38
10 10 4 0.3 0.54
-10 -10 4 1.6 1.24
-10 4 -10 -0.84 0.41
-10 4 10 -0.41 0.81
-10 10 -4 -0.26 0.77
-10 10 6 3.11 1.89
-10 10 -6 3.87 1.97
-10 10 -6 4.19 1.84
-10 6 -10 2.97 1.63
-10 6 10 3.97 2.05
-10 -6 -10 4.26 0.97
-10 -6 10 5.39 2.23
-10 -10 6 3.52 1.58
10 6 10 4.5 1.06
10 10 -6 4.57 2.12
10 10 6 4.76 0.97
10 10 6 4.74 0.94
-6 -10 -10 4.86 1.72
-6 -10 10 7.49 2.72
-6 10 -10 5.43 2.92
-6 10 10 5.51 2.4
6 -10 -10 9.33 3.28
6 -10 10 6.64 2.58
6 10 -10 4.17 2.21
6 10 10 6.95 2.12
10 -10 -6 2.67 1.62
10 -6 -10 7.08 2.55
10 6 -10 5.93 2.25
-8 10 -10 23.67 4.53
-8 10 10 26.58 4.49
8 -10 -10 25.01 4.39
8 10 -10 36.04 5.07
8 10 10 22.08 3.24
10 -10 -8 21.31 4.04
10 -8 -10 28.2 4.4
10 8 -10 27.62 4.44
10 8 10 23.94 2.79
10 10 -8 19.92 3.88
10 10 8 24.24 2.81
10 10 8 25.88 2.69
-10 -8 -10 25.68 2.62
-10 8 10 24.37 4.37
-10 10 -8 24.41 3.67
-10 10 -8 28.83 4.69
-10 10 8 25.42 4.38
-8 -10 -10 25.51 3.14
-8 -10 10 18.53 3.8
-10 -10 8 17.21 3.51
-10 -8 10 31.85 4.58
-10 8 -10 26.44 3.78
-10 8 -10 16.29 3.86
-10 10 -10 17.74 3.41
-10 10 -10 22.79 4.53
-10 10 10 24.93 4.47
10 -10 -10 20.88 4.05
-10 -10 10 17.33 3.67
10 10 -10 32.28 4.85
10 10 10 23.94 2.87
11 1 1 123.28 10.87
11 -1 -1 110.69 11.16
1 11 -1 131.41 11.94
1 11 1 141.86 12.04
11 1 -1 111.7 11.04
-1 11 1 112.22 11.78
1 -1 -11 119.77 12.24
1 -1 11 116.75 12.28
1 1 -11 112.61 12.35
1 1 11 114.28 12.34
-1 1 11 130.85 12.54
-1 11 -1 128.44 11.97
-11 -1 1 107.76 11.19
-11 1 1 135.74 11.5
-1 -1 -11 106.44 11.97
-1 -1 11 137.52 12.59
-1 1 -11 109.94 12.27
11 -1 1 114.59 11.02
3 -1 -11 31.11 4.54
-11 1 3 34.84 3.99
11 -3 -1 27.84 3.49
11 1 -3 34.16 3.65
1 -11 -3 26.74 3.84
-1 11 -3 35.4 4.3
1 -3 11 25.25 4.27
-11 -1 -3 28.66 2.93
-3 1 -11 28.69 4.33
-3 11 1 27.82 3.97
-1 -3 -11 27.36 4.06
11 3 1 29.35 2.84
-1 3 11 31.79 4.58
1 3 -11 32.19 4.73
-11 3 -1 31.72 3.51
-3 -1 11 28.54 4.52
-11 -3 1 27.29 3.31
11 -3 1 29.85 3.39
3 -11 -1 21.52 3.69
-11 3 1 31.92 3.78
-3 -1 -11 29.16 4.15
11 -1 -3 32.93 3.69
1 -3 -11 32.35 4.39
-1 -3 11 23.86 4.15
-11 1 -3 26.16 3.1
3 1 -11 22.34 4.18
-1 11 3 20.78 3.66
-11 -3 -1 24.16 2.93
11 3 -1 25.25 3.15
-1 3 -11 25.8 4.34
1 11 -3 24.08 3.95
-3 11 -1 23.11 3.83
-3 1 11 30.82 4.56
-1 -11 -3 25.98 3.77
-11 -1 3 28.23 3.72
3 -3 -11 213.3 20.31
3 -3 11 212.19 20.29
3 3 11 186.42 19.86
-11 -3 3 224.87 19.62
-11 3 -3 187.86 19.04
-11 3 3 222.43 19.74
-3 -11 3 249.48 20.05
-3 -3 -11 207.35 19.94
-3 -3 11 229.23 20.8
-3 3 -11 221.31 20.58
-3 3 11 175.9 20.15
-3 11 3 221.29 20.12
3 -11 -3 256.08 20.36
11 -3 -3 224.17 19.54
3 11 -3 171.35 19.72
3 11 3 217.33 19.64
-1 5 11 1.29 1.5
-11 -1 -5 -0.13 0.29
-1 -5 -11 0.76 0.92
1 -11 -5 0.5 0.72
5 11 -1 -0.01 0.71
11 1 -5 0.09 0.64
5 1 11 0.64 0.81
11 -5 -1 0.77 0.8
5 11 -1 -0.32 0.39
11 5 1 0.36 0.4
-11 -5 1 0.15 0.62
-11 1 5 -0.06 0.67
-5 1 -11 0 0.85
-5 -1 11 -0.74 0.87
-1 -11 5 0.11 0.7
1 -5 11 -0.22 0.89
-11 5 -1 -0.14 0.57
-5 11 1 -0.74 0.56
1 5 -11 1.43 1.29
11 5 -1 -0.05 0.45
5 11 1 0.16 0.77
5 -1 11 -0.9 0.51
11 -5 1 0.53 0.8
-1 -5 11 0.76 1.02
5 11 1 0.45 0.68
1 -5 -11 0.66 0.96
-11 -5 -1 0.22 0.42
-1 11 5 -0.38 0.65
1 -11 5 -0.08 0.7
-11 5 1 -0.09 0.75
-5 -1 -11 0.36 0.88
11 -1 -5 0.4 0.96
-1 5 -11 2.07 1.57
-5 1 11 0.74 1.33
-11 1 -5 0.31 0.46
-11 1 -5 -0.26 0.46
-1 -11 -5 0.01 0.53
-5 11 -1 0.35 0.92
-11 -1 5 1.59 1.12
-11 -5 3 140.16 12.64
-3 5 11 120.65 13.39
3 -11 -5 136.76 13.29
-11 5 -3 125.87 12.49
3 11 5 146.4 12.82
5 -3 -11 126.24 13.43
5 3 11 130.29 12.82
11 -5 -3 147.62 12.95
-11 3 5 120.03 12.93
11 3 -5 148.31 12.91
-5 -3 11 154.39 13.92
-5 11 3 130.59 13.1
-3 -5 -11 130.19 12.94
3 -5 11 113.81 13.15
-5 3 -11 120.03 13.18
-3 11 -5 143.6 13.31
3 5 11 122.26 13.06
11 5 -3 129.95 12.45
11 -3 -5 109.3 12.55
-5 11 -3 160.34 13.98
5 -11 -3 145.37 13.36
-5 3 11 146.2 13.97
-3 -5 11 106.93 13.31
-3 5 -11 108.91 13.21
-3 -11 -5 119.37 12.62
3 -5 -11 154.01 13.82
5 11 3 116.59 12.41
-11 -3 5 122.7 12.8
-11 3 -5 138.83 12.31
-5 -3 -11 136.37 12.9
-3 11 5 148.89 13.42
-11 3 -5 135.47 12.55
-5 11 5 164.95 16.75
5 -11 -5 144.16 16.48
5 5 11 185.1 16.47
11 5 -5 162.35 16.14
-5 -5 11 185.77 17.4
11 -5 -5 177.12 16.34
-11 -5 5 142.37 16.08
5 11 5 200.91 16.16
5 -5 -11 182.82 17.2
-5 5 -11 195.36 17.5
-5 5 11 194.96 17.47
-11 5 -5 180.57 16.02
-11 5 -5 164.28 16.27
-11 5 5 143.23 16.3
-5 -11 5 147.99 16.26
-5 -5 -11 148.78 16
-5 11 -5 197.15 17.54
-5 11 -5 203.45 17.04
-1 -11 7 35.8 5.73
11 -7 -1 42.74 5.58
-11 -7 1 39.97 4.95
-1 -7 -11 45.99 5.93
11 1 -7 50.9 6.89
7 11 -1 57.62 5.81
11 7 1 59.37 5.3
-11 7 -1 53.34 5.75
1 -7 11 44.93 6.32
-7 -1 11 50.39 6.57
-7 11 1 49.5 6.08
-11 -1 -7 55.97 5.08
7 1 11 49.44 5.66
-11 -1 -7 49.91 4.85
1 -11 -7 36.94 5.64
-11 1 7 43.53 6.01
-1 7 11 48.97 6.39
-7 1 -11 48.31 5.97
1 7 -11 52.05 6.67
-7 -1 -11 45.87 5.68
11 7 -1 51.59 5.27
-11 -7 -1 47.41 4.77
-11 7 1 53.89 5.91
-1 -7 11 56.66 6.74
-1 7 -11 58.17 6.99
7 -1 11 44.24 5.7
-7 1 11 48.93 6.55
1 -11 7 61.03 6.59
-1 -11 -7 40.79 5.64
-1 11 7 45.9 6.07
7 11 1 48.65 5.34
-7 11 -1 49.97 6.06
11 -1 -7 55.08 6.1
-11 -1 7 46.59 6.07
-11 1 -7 48.07 4.95
-11 1 -7 44.74 5.22
7 11 1 57.66 5.61
1 -7 -11 57.76 6.46
11 -7 -3 13 2.68
-7 3 -11 19.04 3.27
-11 -7 3 22.07 2.79
-11 3 7 22.52 3.5
-7 -3 11 15.02 3.36
11 3 -7 20.94 3.23
3 -11 -7 13.81 3
3 -7 11 19.9 3.48
7 11 -3 10.11 2.52
-3 11 -7 13.11 3.42
-3 -7 -11 16.35 2.84
-7 11 3 11.49 2.74
-3 7 11 16.54 3.46
3 11 7 18.45 3.09
-11 7 -3 15.2 2.64
7 3 11 21.01 2.85
3 -11 7 14.75 3.13
-11 3 -7 16.84 2.65
-11 -3 7 19.86 3.29
-11 3 -7 17.31 2.4
11 7 -3 16.07 2.65
-11 7 3 17.82 3.1
-7 -3 -11 15.67 2.61
-7 -11 3 10.79 2.42
-7 11 -3 16.99 3.08
7 -3 11 18.28 5.02
-7 11 -3 18.81 3.5
-3 7 -11 14.23 3.98
-3 -11 -7 13.12 2.57
7 11 3 13.97 2.31
-3 -7 11 18.27 3.53
-3 11 7 16.55 3.28
11 -3 -7 16.18 2.98
3 -7 -11 20.64 3.53
-7 3 11 19.18 3.72
3 7 11 19.39 3.28
3 11 -7 17.16 3.41
7 11 3 22.75 2.8
7 5 11 34.78 4.19
-5 -7 -11 33.56 4.26
-11 7 -5 33.31 4.7
-5 7 11 25.34 4.85
5 -7 11 28.88 4.74
-7 5 -11 40.25 5.38
-5 11 -7 40.51 5.55
11 -7 -5 34.16 4.65
11 5 -7 35.1 4.6
5 -11 -7 31.61 4.85
-5 -11 7 40.77 5.05
-7 -5 11 31.92 5.1
7 -5 -11 28.57 4.85
-11 5 7 40.38 5.13
5 7 -11 39.67 5.55
-11 -7 5 32.58 4.4
-7 11 5 30.44 4.77
-11 7 -5 32.17 4.28
11 -5 -7 33.42 4.54
-7 -5 -11 31.3 3.99
-11 -5 7 36.41 4.79
-11 7 5 28.54 4.6
7 5 -11 35.55 5.25
7 11 5 35.95 4.02
-11 5 -7 33.97 4.1
-5 -7 11 32.84 5.18
-5 7 -11 35.87 5.42
-7 11 -5 41.85 4.92
-7 11 -5 35.67 5.22
-5 -11 -7 41.2 4.35
7 -11 -5 32.14 4.84
-7 5 11 32.16 5.17
7 11 5 39.71 4.06
5 -7 -11 30.7 4.84
-5 11 7 30.59 4.91
11 7 -5 25.93 4.22
5 11 -7 25.87 4.6
7 11 7 8.59 2.04
-7 7 -11 5.23 2.16
-11 7 7 4.22 2
7 7 11 4.8 1.66
11 -7 -7 7.56 2.17
7 7 -11 7.84 2.8
-11 7 -7 6.2 2.36
7 11 -7 3.71 1.88
-7 7 11 9.99 3.43
-7 11 -7 5.55 1.98
-7 11 -7 7.55 2.89
11 7 -7 4.7 1.86
-11 7 -7 4.1 1.65
-7 -7 -11 8.69 1.88
-7 11 7 3.98 2.19
7 -11 -7 11.34 3.21
7 -7 -11 8.48 3.04
7 -7 11 4.75 1.95
-7 -7 11 6.75 2.72
-7 -11 7 9.5 2.56
-11 -7 7 6.83 2.22
-1 -11 9 66.19 7.17
-9 11 1 63.53 6.83
1 -9 11 49.14 6.89
-11 -1 -9 52.44 5.24
11 -9 -1 57.19 6.42
9 1 11 56.2 5.85
9 11 -1 45.35 5.83
-1 -9 -11 51.28 6.39
-11 -1 -9 58.23 5.63
9 -11 1 56.66 6.55
11 9 1 54.55 5.51
-9 -1 11 45.65 6.75
-11 1 9 43.02 6.47
1 9 -11 74.38 8.04
-11 9 -1 59.28 6.54
1 -11 -9 66.14 7
-9 1 -11 64.4 6.63
9 -1 -11 56.51 6.91
11 1 -9 60.5 6.75
-1 11 -9 40.07 6.8
-1 9 11 52.79 6.92
-11 -9 1 48.41 5.5
-11 9 1 47.07 6.13
-1 11 9 53.25 6.78
9 1 -11 58.14 7.06
9 -11 -1 43.82 6.2
1 -9 -11 62.05 6.84
9 11 1 61.2 6
-1 -9 11 50.56 6.82
9 11 1 44.23 5.5
11 -1 -9 54.52 6.6
-9 1 11 53.98 7.13
-1 -11 -9 57 6.59
-9 -1 -11 62.24 6.19
-11 1 -9 50.72 5.88
11 -9 1 56.45 6.4
-9 11 -1 56.6 6.61
1 -11 9 58.17 7.02
9 -1 11 54.05 6.03
-11 1 -9 57.79 5.58
-11 -1 9 41.23 6.41
11 9 -1 44.28 5.64
3 -9 11 4.33 2.07
-3 -11 9 4.68 1.87
11 9 3 5.91 0.97
11 9 3 5.52 1.05
9 11 -3 7.17 1.9
3 9 -11 3.66 2.09
-11 3 9 8.29 2.88
9 -3 -11 4.26 2.13
3 11 9 7.74 2.19
-11 -9 3 9.34 2.19
-9 11 3 7.71 2.52
-3 -9 -11 7.81 1.99
11 3 -9 8 2.59
-11 9 -3 5.3 2.02
-11 -3 -9 6.26 0.87
-3 9 11 5.5 2.24
-11 -3 -9 5.42 0.94
11 -9 -3 4.16 1.67
-3 11 -9 4.78 2.5
-11 9 -3 7.04 2.31
3 -11 -9 8.22 2.78
-9 -3 11 5.62 2.33
-9 3 -11 5.34 2.05
-11 3 -9 4.85 1.34
-11 -3 9 8.54 2.8
11 -3 -9 6.17 2.23
-3 -9 11 4.77 2.19
-9 11 -3 9.12 2.79
9 -11 -3 5.09 2.17
-9 -11 3 4.9 1.75
9 11 3 6.25 2.24
3 -9 -11 12.66 3.04
9 11 3 6.77 1.64
3 11 -9 4.07 2.34
-3 9 -11 7.45 4.62
-3 -11 -9 8.28 2.2
9 -3 11 5.8 1.89
-9 11 -3 4.24 2.03
9 3 -11 6.2 2.27
11 9 -3 7.78 2.1
3 9 11 10.06 2.6
-3 11 9 5.66 2.23
-9 3 11 5.23 2.24
-11 9 3 8.04 2.65
-9 -3 -11 7.15 1.5
-11 3 -9 6.09 2.58
3 -11 9 9.7 3.04
-11 -9 5 4.48 1.73
5 11 9 2.3 1.35
9 -5 -11 3.89 2.11
-11 9 -5 2.36 1.22
-5 -11 9 3.78 1.78
-5 11 -9 3.82 2.11
-11 5 9 2.7 1.83
11 -9 -5 4.31 2.04
-9 11 5 3.08 1.82
-5 -9 -11 2.94 1.26
-11 9 -5 5.44 2.42
5 -11 -9 1.77 1.4
-5 9 11 4.03 2.19
9 5 11 3.17 1.15
5 -9 11 1.62 1.45
5 9 -11 6.38 2.98
11 5 -9 3.44 1.58
9 11 -5 1.7 1.34
-9 5 -11 1.51 1.15
-9 -5 11 2.88 1.83
5 9 11 3.46 1.88
11 -5 -9 2.08 1.34
9 11 5 3.46 1.16
9 11 5 3.63 1.07
-11 5 -9 2.17 1.37
-11 -5 9 4.17 1.85
-11 5 -9 4.66 1.66
-5 11 9 5.37 2.36
-5 9 -11 2.14 1.69
9 -11 -5 5.25 2.17
11 9 -5 4.53 1.92
-9 11 -5 4.36 2.15
9 -5 11 2.64 1.44
-9 5 11 2.29 1.87
-5 -11 -9 2.57 1.14
9 5 -11 2.65 1.69
5 -9 -11 1.32 1.42
-9 -11 5 5.03 1.78
5 -11 9 3.68 2.05
5 11 -9 5.74 2.65
-5 -9 11 2.81 1.8
-11 9 5 2.91 1.99
-9 -5 -11 4.25 1.35
-9 11 -5 2.97 1.66
7 -11 -9 12.74 3.38
-7 -9 -11 11.88 1.99
-11 9 -7 9.71 3.14
-7 9 11 9.73 3.28
7 -9 11 10.13 3.25
-9 7 -11 7.3 2.57
-9 11 7 11.3 3.49
-11 -9 7 10.7 2.83
-7 -11 9 8.62 2.79
-7 11 -9 8.98 3.35
7 11 9 8.27 2.17
11 7 -9 14.98 3.67
9 11 -7 7.46 2.41
-11 7 9 10.53 3.43
-11 9 -7 6.93 2.13
7 9 -11 13.39 4.2
-9 -7 11 17.51 4.38
9 -7 -11 15.28 3.92
11 -9 -7 4.1 2.03
7 -9 -11 9.87 3.02
7 11 -9 17.8 4.41
9 11 7 10.59 1.81
9 7 -11 8.03 3.15
9 11 7 9.5 1.61
11 9 -7 15.86 2.93
11 -7 -9 7.98 2.74
-9 -7 -11 9.46 1.6
9 -11 -7 8.09 2.7
-9 7 11 6.85 2.56
-7 -11 -9 7.84 1.71
-7 11 9 6.07 2.7
-7 -9 11 14.5 3.75
-7 9 -11 9.43 3.45
-11 9 7 9.16 2.84
-9 11 -7 9.56 2.53
-9 11 -7 8.64 3.55
7 9 11 10.78 2.68
-9 -11 7 10.67 2.82
-11 7 -9 13.64 2.41
-11 7 -9 9.76 2.95
-11 -7 9 9.51 2.65
9 11 -9 14.43 4.07
9 -9 -11 17.31 3.46
9 9 -11 6.19 2.75
9 9 11 12.29 2.16
-9 11 -9 13.33 2.88
-9 11 -9 19.85 5
-9 11 9 11.11 3.35
9 -11 -9 14.67 4.31
-11 9 -9 11.17 2.44
-11 9 -9 16.95 4.57
-11 9 9 10.96 3.07
-9 -11 9 12.91 2.86
-9 -9 -11 12.45 1.93
-9 -9 11 15.56 3.37
-9 9 -11 10.37 3.4
-9 9 11 14.54 4.17
-11 -9 9 14.18 3.49
11 9 -9 14.9 3.79
11 -9 -9 15.7 3.9
9 11 9 11.78 2.07
-1 11 -11 49.2 8.26
-1 11 11 30.29 5.08
1 -11 -11 28.32 4.83
1 -11 11 29.33 5.05
1 11 -11 40.66 6.01
11 -11 -1 32.44 4.74
11 -11 1 33.24 4.69
11 -1 -11 35.39 5.18
11 -1 11 30.86 4.16
11 1 -11 39.13 5.31
11 1 11 36.67 4.01
-11 -11 1 31.95 3.99
-11 -1 -11 38.4 4.3
-11 -1 11 25.77 4.86
-11 1 -11 29.52 4.34
-11 1 11 40.64 5.65
-11 11 -1 41.92 5.17
-11 11 1 41.24 5.11
-1 -11 -11 33.37 4.88
-1 -11 11 39.43 5.69
11 11 -1 27.91 4.04
11 11 1 36.06 4.01
11 11 -3 31.18 4.54
11 11 3 36.85 4.06
11 11 3 36.21 4.04
11 -11 -3 34.8 5.14
11 -3 -11 40.16 5.57
-11 -11 3 44.26 4.74
-11 -3 -11 36.51 3.97
-11 -3 11 33.69 5.31
-11 3 -11 42.39 5.38
-11 3 11 37.94 5.77
-11 11 -3 33.06 4.92
-11 11 -3 36.89 5.64
-11 11 3 34.88 5.23
-3 -11 -11 34.47 4.94
-3 11 -11 32.34 5.81
-3 11 11 31.8 5.33
3 -11 -11 35.84 5.48
3 -11 11 34.65 5.54
3 11 -11 47.48 6.44
3 11 11 40.19 5.38
11 3 11 41.09 4.03
11 3 -11 35.61 5.35
-11 -11 5 23.41 3.8
-11 -5 -11 30.54 2.98
-11 -5 11 19.77 4.33
-11 5 -11 29.81 4.68
-11 5 11 26.16 4.75
-11 11 -5 26.54 4.16
-11 11 -5 36.69 5.32
-11 11 5 26.94 4.69
-5 -11 -11 29.55 4.11
-5 -11 11 31.03 4.74
-5 11 -11 33.78 5.58
-5 11 11 36.7 5.35
5 -11 -11 26.09 4.67
5 -11 11 26.79 4.81
5 11 -11 21.64 4.56
5 11 11 32.89 4.5
11 -11 -5 30.21 4.62
11 -5 -11 20.34 4.2
11 5 -11 28.86 4.64
11 5 11 30.57 3.08
11 11 -5 27.4 4.18
11 11 5 32.51 3.19
11 11 5 31.05 3.16
-11 -7 11 0.41 1.19
-11 7 -11 0.46 0.64
-11 7 -11 0.97 1.08
-11 7 11 0.5 1.51
-11 11 -7 -0.89 0.77
-11 11 -7 -0.25 1.23
-11 11 7 0.25 1.27
11 11 7 0.01 0.39
7 -11 11 -0.41 0.98
7 11 -11 0.68 1.48
11 -11 -7 0.99 1.47
11 -7 -11 1.07 1.55
11 7 -11 0.22 1.08
11 7 11 0.49 0.5
11 11 -7 1.44 1.32
11 11 7 0.73 0.51
-7 -11 11 0.93 1.2
-7 11 -11 1.36 1.82
-7 11 11 1.14 1.35
7 -11 -11 0.75 1.29
-11 -11 7 -1.06 1.37
-11 -7 -11 0.6 0.38
-7 -11 -11 0.18 0.68
9 11 11 0.73 0.8
-11 11 9 -0.73 1.5
-9 -11 -11 0.64 0.65
-9 -11 11 0.3 0.99
-9 11 -11 -0.33 0.82
-9 11 11 -0.9 0.57
9 -11 -11 0.09 1.12
9 11 -11 1.08 1.47
11 11 -9 0.02 1.18
11 11 9 -0.18 0.44
11 11 9 0.13 0.38
-9 11 -11 -0.79 0.84
11 -11 -9 -0.86 0.98
11 -9 -11 -0.5 0.91
11 9 -11 -0.28 0.99
11 9 11 0.2 0.47
-11 -11 9 0.04 1.06
-11 -9 11 -0.84 0.83
-11 9 -11 0.26 0.81
-11 9 -11 -0.97 0.76
-11 9 11 0.33 1.5
-11 11 -9 1.3 1.15
-11 11 -9 0.25 1.19
-11 11 -11 4.37 3.05
-11 11 11 -0.29 1.5
11 11 11 0.94 0.61
-11 11 -11 0.81 1.03
11 11 -11 1.45 1.61
11 11 11 1.31 0.8
-11 -11 11 -0.37 1.01
11 -11 -11 0.5 1.14
12 0 0 296.82 27.15
0 0 -12 350.88 29.07
0 0 12 308.76 28.65
-12 0 0 288.04 27.32
-12 0 2 1.44 0.82
-12 0 -2 0.08 0.46
0 -2 -12 1.17 1.22
0 -2 12 0.5 1.13
0 2 -12 0.95 1.42
0 2 12 0.96 1.08
-12 -2 0 0.4 0.65
-12 2 0 -0.21 0.49
-2 0 -12 -0.65 0.59
-2 0 12 0.96 1.32
0 12 -2 1.11 1.18
0 12 -2 0.49 1.16
0 12 2 0.13 0.72
2 0 -12 0.74 1.11
12 -2 0 0.38 0.61
12 2 0 0.17 0.43
2 12 0 -0.11 0.78
12 0 -2 -0.18 0.52
12 0 2 0.34 0.37
-2 12 0 -0.36 0.52
-12 -2 -2 25.54 2.87
2 12 2 32.24 4.04
2 -12 -2 28.73 4.13
-12 -2 2 21.02 3.31
-12 2 -2 30.1 3.37
-2 12 2 29.03 4.09
-12 2 2 29.66 3.7
12 -2 -2 22.29 3.31
12 -2 2 24.52 3.11
12 2 -2 22.43 3.21
-2 -2 -12 25.87 4.03
-2 -2 12 24.63 4.35
-2 2 -12 27.87 4.48
2 2 -12 27.71 4.52
2 12 -2 30.23 4.08
2 12 -2 31.87 4.34
2 -2 12 35.12 4.75
-2 2 12 30.26 4.67
-2 12 -2 31.8 4.16
2 -2 -12 26.92 4.34
0 4 -12 54.57 6.5
12 0 -4 43.75 5.1
12 -4 0 44.52 4.99
12 4 0 46.69 4.46
-12 0 4 41.18 5.19
-4 12 0 36.14 5.29
0 -4 -12 44.4 5.69
0 -4 12 56.73 6.6
4 0 12 44.76 7.37
-12 0 -4 45.24 4.41
-12 0 -4 41.23 4.41
4 0 -12 38.12 5.73
-12 -4 0 40.92 4.46
-12 4 0 49.81 5.22
-4 0 -12 45.69 5.73
-4 0 12 42.5 6.05
0 -12 -4 38.04 5.24
0 12 4 40.82 5.31
0 4 12 44.36 5.93
-2 -12 4 167.7 16.84
12 2 -4 191.63 16.58
-4 12 2 162.44 17.03
4 -2 -12 168.9 17.49
4 2 12 180.84 17.09
2 -12 -4 160.42 16.92
-12 4 -2 147.77 16.09
-12 -4 2 166.67 16.16
12 4 2 174.68 15.31
12 -4 -2 205.25 16.74
2 -4 12 206.99 17.9
-4 -2 12 182.68 17.68
-4 2 -12 153.12 17.19
-2 4 12 171.48 17.56
-2 12 -4 211.06 17.59
2 4 -12 190.13 18.08
-2 -4 -12 188.3 17.19
-12 2 4 202.82 17.08
-4 2 12 163.68 17.61
-4 12 -2 169.23 17.03
-12 4 2 192.39 16.84
-4 -2 -12 190.04 17.15
4 -12 -2 203.68 17.51
4 12 2 197.96 16.82
-12 2 -4 184.87 16.27
12 -4 2 159.27 16.19
-2 -12 -4 154.58 16.73
2 -4 -12 201.69 17.8
-12 2 -4 163.43 15.88
-2 -4 12 149.08 17.35
-2 4 -12 187.38 17.91
-2 12 4 171.31 16.92
12 -2 -4 185.02 16.61
12 4 -2 152.98 15.98
-12 -2 4 174.89 16.72
-4 4 -12 275.92 30.94
12 -4 -4 328.01 31.06
-4 12 4 316.29 30.76
-4 4 12 366.33 31.8
4 -4 12 300.56 31.23
4 4 12 341.51 30.88
-12 4 -4 369.09 30.48
-4 12 -4 400.61 31.2
-12 4 4 337.14 30.52
-4 -12 4 282.79 30.37
-4 -4 -12 383.26 30.8
-4 -4 12 369.53 31.77
4 -12 -4 391.18 31.25
4 12 4 349.99 30.4
-12 4 -4 337.78 29.95
12 4 -4 291.07 29.96
4 -4 -12 351.77 31.41
-12 -4 4 295.64 30.07
-12 6 0 2.9 1.27
-12 0 6 2.68 1.39
0 -12 6 3.21 1.56
6 0 12 2.76 1.35
0 6 -12 3.52 1.94
-12 0 -6 4.32 1.02
6 12 0 3.02 1.28
12 0 -6 3.94 1.62
-6 12 0 4.18 1.78
-12 -6 0 4.19 1.16
6 12 0 2.3 1.01
-6 0 12 1.27 2.06
0 -12 -6 2.65 1.4
0 -6 -12 3.13 1.59
0 -6 12 5.75 2.61
12 -6 0 2.82 1.09
-6 0 -12 1.26 1.19
-12 0 -6 3.19 1.01
0 12 6 1.93 1.74
12 6 0 4.92 1.22
-12 -6 2 16.09 2.71
6 -2 -12 26.63 4.14
-6 -2 12 20.02 3.92
-6 2 -12 21.47 3.74
12 2 -6 22.72 3.24
-6 12 2 23.25 3.75
2 -12 -6 21.36 3.64
6 12 -2 21.57 3.36
6 2 12 19.76 3.32
2 6 -12 16.66 3.82
-12 6 -2 25.5 3.2
-2 -6 -12 17.21 3.24
-2 -12 6 20.28 3.49
-12 2 6 23.17 3.51
12 -6 -2 22.23 3.24
2 -6 12 18.82 3.61
6 -2 12 24.53 3.64
-6 12 -2 28.58 4.23
2 12 -6 26.05 4.13
6 -12 -2 17.17 3.29
-12 -2 6 23.44 3.6
-12 2 -6 20.83 2.63
-12 2 -6 24.12 3
-6 -2 -12 22.28 3.32
2 -6 -12 23 3.86
-2 -12 -6 15.82 3.05
2 6 12 19.98 3.83
-2 -6 12 17.84 3.81
-2 6 -12 16.57 3.6
12 6 -2 21.41 2.82
6 12 2 15.22 2.92
6 12 2 21.97 3.05
-6 12 -2 30.17 4
-12 6 2 14.15 3.01
12 -6 2 21.78 3.08
12 -2 -6 20.91 3.28
-6 2 12 18.38 3.92
-12 -6 4 173.72 15.63
12 4 -6 139.75 15.53
6 -4 -12 158.8 16.52
-12 4 6 156.92 16.06
-6 -4 12 158.49 16.69
-6 4 -12 164.06 16.45
4 12 6 160.15 15.66
-4 -12 6 192.55 16.41
-4 12 -6 137.31 15.89
6 12 -4 150.04 16.03
12 -6 -4 152.28 15.68
4 -12 -6 167.52 16.39
4 -6 12 150.33 16.31
4 6 -12 189.97 17.9
-6 12 4 167.16 16.22
-12 6 -4 200.05 16.38
-4 6 12 172.91 17.63
-12 6 -4 151.19 15.36
-12 6 4 190.81 16.3
-4 6 -12 171.03 16.95
-6 12 -4 180.97 16.29
-6 4 12 165.21 17
-4 12 6 155.06 16.38
4 -6 -12 194.38 17.07
-12 4 -6 164.41 15.22
-12 -4 6 172.28 15.91
6 4 -12 140.31 16.5
12 6 -4 137.58 15.19
12 -4 -6 184.82 15.95
4 6 12 153.18 15.96
-12 4 -6 157.8 15.64
-6 -4 -12 178.85 15.73
-6 -12 4 191.83 16.1
-6 12 -4 159.08 16.59
-4 -6 12 148.48 16.61
6 -12 -4 151.93 16.11
-12 6 6 61.45 8.32
6 -6 12 85.76 9.49
6 -12 -6 81.77 9.06
6 -6 -12 90.49 9.63
-6 -6 -12 76.29 8.19
-12 -6 6 93.96 8.74
-12 6 -6 77.29 8.05
-12 6 -6 85.86 8.77
-6 12 6 88.24 9.36
-6 6 -12 91.63 9.71
-6 6 12 79.74 9.69
-6 12 -6 63.54 8.41
6 6 -12 63.16 9.04
6 6 12 78.57 8.41
6 12 6 70.81 8
12 -6 -6 91.1 8.81
12 6 -6 74.39 8.29
-6 -6 12 60.99 8.8
-8 0 12 26.59 4.99
-12 8 0 25.8 4.15
-8 0 -12 28.91 4.96
-12 0 -8 35.69 3.9
-12 0 8 38.85 5.18
0 -12 -8 38.64 4.97
12 0 -8 31.72 4.57
12 8 0 33.93 3.81
8 0 -12 33.37 5.14
8 0 12 33.32 4.45
0 8 -12 40.57 5.7
-12 -8 0 30.87 3.61
-8 12 0 28.05 4.57
0 -12 8 41.87 5.38
-12 0 -8 34.05 3.56
0 -8 12 35.8 5.42
12 -8 0 31.95 4.37
8 12 0 42.39 4.51
8 12 0 44.16 4.55
0 -8 -12 28.88 4.75
8 -12 0 34.42 4.86
0 12 -8 29.69 5.05
8 -2 -12 -0.04 1.05
8 12 -2 2.01 1.21
-12 8 -2 2.41 1.39
8 2 12 1.27 0.9
-12 2 8 1.51 1.37
2 -8 12 2.78 1.71
-8 -2 12 0.9 1.03
-8 2 -12 1.95 1.54
2 12 8 -0.77 0.57
2 8 -12 2.57 1.78
12 8 2 0.94 0.48
-2 8 12 1.27 1.51
-2 12 -8 4.22 2.47
2 -12 -8 0.5 0.98
12 -8 -2 1.6 1.13
12 2 -8 0.9 1.05
12 8 2 0.94 0.45
-2 -12 8 1.07 1.21
-8 12 2 0.91 1.17
-2 -8 -12 2 1.44
-12 -8 2 0.57 0.78
-12 -2 -8 0.83 0.42
-12 -2 -8 1.66 0.45
8 12 2 0.31 0.6
-8 12 -2 0.73 1.04
8 -12 -2 3.02 1.57
2 8 12 0.91 1.14
8 2 -12 1.24 1.5
-12 8 2 0.87 0.92
-12 -2 8 0.53 0.95
12 -8 2 0.5 0.8
-2 12 8 0.17 0.89
-8 2 12 0.5 1.32
-2 -12 -8 0.58 0.8
2 -8 -12 1.07 1.12
-8 -12 2 2.25 1.14
12 8 -2 0.88 0.89
2 -12 8 0.99 1.25
-12 2 -8 0.53 0.7
12 -2 -8 2.83 1.53
-12 2 -8 0.97 0.67
2 12 -8 1.47 1.68
-2 -8 12 0.21 1.6
-2 8 -12 0.09 1.61
8 12 2 0.71 0.74
-8 -2 -12 1.43 1.12
8 -2 12 2.87 1.49
-12 8 -4 45.84 5.33
-8 12 4 50.82 6.11
-4 -12 8 51.3 6
12 -8 -4 43.44 5.55
-4 -8 -12 55.66 5.71
-12 -8 4 47.36 5.2
8 4 12 40.7 5.06
-12 8 -4 42.67 5.74
8 12 -4 30.39 5.03
4 -12 -8 36.7 5.62
4 12 8 46.86 5.56
12 4 -8 36.81 5.49
4 -8 12 55.04 6.62
4 8 -12 55.72 6.96
-8 4 -12 33.31 5.54
-8 -4 12 44.89 6.25
-12 4 8 34.83 5.48
-4 8 12 45.77 6.47
8 -4 -12 35.83 5.79
8 12 4 47.79 4.96
4 8 12 46.84 5.83
8 -12 -4 45.02 5.82
-8 4 12 42.93 6.3
8 12 4 39.27 4.74
-4 12 8 45.62 6.14
-12 -4 8 36.03 5.42
4 12 -8 37.41 5.89
-12 4 -8 44.54 4.87
-4 -12 -8 42.98 5.27
-12 4 -8 39.14 5.24
-8 12 -4 40.27 6.06
-8 12 -4 49.65 5.89
-12 8 4 39.67 5.55
-8 -4 -12 45.1 5.06
-4 8 -12 48.21 6.72
12 -4 -8 40.4 5.53
8 4 -12 40.92 6.05
8 -4 12 38.38 5.44
-4 -8 12 40.66 5.98
4 -8 -12 46.37 6.17
-6 -12 8 -0.01 1.07
-6 12 -8 0.73 1.46
12 6 -8 -0.05 0.96
6 8 -12 -0.51 1.09
-8 12 6 0.24 1.04
-6 -8 -12 0.3 0.8
6 12 8 -0.31 0.57
8 -6 -12 -0.4 0.68
-8 -6 12 2.84 2.02
-6 8 12 0.55 1.22
12 -8 -6 0.01 1.13
-12 -8 6 -0.64 0.65
-6 12 -8 0.45 1.17
6 -12 -8 0.87 1.06
-12 8 -6 -0.78 0.55
-12 6 8 0.47 1.26
-8 6 -12 -0.59 0.8
8 12 -6 0.49 0.9
6 -8 12 0.14 0.86
-12 8 -6 0.39 1.06
-12 6 -8 0.51 0.75
-8 6 12 0.24 1.16
-12 -6 8 1.13 1.05
-8 -12 6 0.39 0.67
-6 -8 12 -1.2 0.89
-6 8 -12 0.91 1.21
6 -8 -12 1.21 1.24
12 -6 -8 0.32 1.06
-12 6 -8 0.08 0.9
-8 12 -6 -0.24 0.96
-6 12 8 -0.68 0.68
8 -12 -6 -0.32 0.82
6 8 12 0.61 0.81
6 12 -8 -0.32 0.92
-6 -12 -8 -0.04 0.61
8 12 6 0 0.6
8 6 -12 0.25 1.39
12 8 -6 -0.33 0.67
-8 12 -6 0.75 1.05
-8 -6 -12 0.11 0.58
-12 8 6 -0.44 0.99
8 12 -8 17.78 3.5
8 12 8 23.45 3.54
-8 12 8 24.53 5.55
-12 -8 8 13.06 3.09
-8 12 -8 26.31 3.99
8 8 -12 18.07 3.97
-8 12 -8 18.38 4.14
12 -8 -8 15.58 3.41
-8 8 -12 20.67 4.19
8 -12 -8 22.97 4.11
8 -8 12 21.69 4.16
-12 8 -8 19.74 3.21
-12 8 -8 16.32 3.61
-12 8 8 24.89 4.02
-8 -12 8 20.96 3.57
-8 -8 -12 17.87 2.7
-8 -8 12 22.65 4.06
8 -8 -12 18.31 3.89
-8 8 12 14.76 4.04
12 8 -8 23.4 3.91
8 8 12 18.69 3.04
0 -10 -12 34.09 4.94
-10 12 0 30.04 4.76
12 10 0 33.89 4.06
10 12 0 37.03 4.33
12 0 -10 30.38 4.87
-12 0 -10 35.27 3.77
-12 0 -10 35.49 4.2
-12 0 10 29.93 5.03
0 -12 -10 33.66 5.01
0 -12 10 40 5.57
-12 10 0 38.64 4.93
-10 0 -12 36.71 4.68
10 0 12 36.4 4.39
12 -10 0 29.44 4.55
0 -10 12 35.97 5.44
0 10 -12 42.61 11.4
10 0 -12 29.57 5.02
-10 0 12 35.42 5.5
10 -12 0 34.69 4.94
10 12 0 35.23 4.3
10 12 -2 7.26 2.27
2 10 -12 2.02 1.75
-12 10 -2 8.04 2.42
-12 2 10 7.72 2.79
-2 12 -10 8.04 3.06
-12 -2 -10 5.29 0.98
-2 10 12 9.17 3.21
-2 -12 10 7.56 2.46
-10 12 2 5.52 2.25
-2 -10 -12 12.13 3.18
2 -10 12 3.76 1.97
12 -10 -2 5.63 1.93
-10 2 -12 3.68 1.92
12 10 2 6.69 1.33
2 12 10 5.09 2.03
-12 -10 2 6.39 1.73
2 -12 -10 4.02 1.99
10 -2 -12 6.05 2.73
-12 -2 -10 6.22 1.21
12 10 2 7.62 1.2
12 2 -10 5.79 2.04
-10 -2 12 8.01 3.02
12 -2 -10 7.89 2.62
2 -12 10 5.2 2.49
10 -2 12 4.88 1.71
10 12 2 6.24 1.78
-2 10 -12 5.4 2.6
10 -12 -2 7.41 2.31
-10 -2 -12 6.01 1.79
-2 12 10 5.99 2.54
-10 -12 2 8.56 2.12
12 10 -2 8.48 2.21
-2 -10 12 2.61 1.69
-10 2 12 8.09 2.95
2 12 -10 3.63 2.42
-12 -2 10 5.06 1.96
-12 2 -10 6.93 1.75
-12 2 -10 7.94 2.47
-12 10 2 6.46 2.33
-10 12 -2 6.09 2.02
-10 12 -2 6.2 2.47
2 10 12 10.04 3.4
2 -10 -12 5.04 2.26
10 2 -12 4.25 2
-2 -12 -10 6.75 2.42
-12 10 -4 58.56 6.82
-12 4 10 52.53 7.24
10 4 12 60.34 6.03
12 -10 -4 56.24 7.03
-12 10 -4 47.64 7.06
4 -10 12 66.66 7.95
4 10 -12 53.99 7.62
12 4 -10 57.57 7.2
10 -4 -12 64.92 7.72
-4 -12 10 60.08 7.54
-10 12 4 70.56 7.79
4 12 10 66.72 7.24
4 -12 -10 56.98 7.46
-10 -4 12 54.51 7.35
-4 10 12 63.94 7.99
-4 -10 -12 61.13 6.92
-10 4 -12 58.24 7.37
-12 -10 4 53.68 6.28
10 12 -4 73.28 7.08
-4 12 -10 42.05 7.32
4 10 12 64.29 7.2
4 -10 -12 60.64 7.56
-4 -10 12 43.7 7.04
4 -12 10 54.21 7.58
12 10 -4 54.49 6.6
12 -4 -10 50.71 6.96
-12 4 -10 60.43 7.13
10 12 4 56.45 5.86
10 12 4 59.15 6.55
-12 10 4 56.77 7.24
-10 12 -4 49.64 7.33
-4 10 -12 51.96 7.82
-4 12 10 63.67 7.89
-12 4 -10 56.84 6.23
10 -4 12 48.3 6.65
-10 -12 4 70.01 6.78
-10 12 -4 59.6 7.05
-10 4 12 57.64 7.83
-4 -12 -10 53.13 6.66
10 -12 -4 50.96 7.02
-10 -4 -12 62.24 7
10 4 -12 62.92 7.56
-12 -4 10 61.29 7.26
4 12 -10 61.18 7.93
-12 10 -6 13.74 3.83
12 6 -10 8.09 2.43
-6 12 -10 20.26 5.68
-12 6 10 14.68 4.25
-12 10 -6 8.09 2.4
6 -10 12 5.59 2.56
10 6 12 13.93 2.02
-10 12 6 4.39 2.42
-6 -12 10 10.09 3.09
10 12 -6 13.6 2.76
10 -6 -12 12.52 3.52
-12 -10 6 9.92 2.73
-6 10 12 10.32 3.49
6 -12 -10 9.64 2.98
12 -10 -6 7.85 2.58
6 12 10 12.01 2.49
6 10 -12 19.2 3.83
-10 6 -12 12.24 3.54
-6 -10 -12 9.85 2.19
-10 -6 12 6.67 2.65
10 -12 -6 15.1 3.13
10 12 6 7.83 1.53
-10 -6 -12 12.13 1.7
6 12 -10 9.35 2.94
6 -10 -12 6.76 2.57
10 -6 12 6.6 2.4
-6 10 -12 13.04 4.6
-6 -10 12 18.36 4.24
10 6 -12 13.09 3.61
10 12 6 12.43 1.86
-12 -6 10 9.13 2.67
12 -6 -10 9.17 2.82
-10 -12 6 13.69 2.6
-10 12 -6 13.12 2.75
-12 6 -10 15.26 4.2
6 10 12 7.37 2.38
-6 -12 -10 10.3 2.18
-12 10 6 8.81 2.87
-10 12 -6 9.62 3.11
12 10 -6 10.53 2.92
-6 12 10 13.16 3.56
-12 6 -10 13.32 2.33
8 10 -12 -0.35 1.35
-10 -8 12 0.05 1.2
10 8 12 0.65 0.73
-8 -12 10 -0.43 0.86
-8 12 -10 0.78 0.75
10 12 -8 0.47 0.84
-8 -10 -12 0.22 0.68
8 -12 -10 -1.42 0.8
8 -10 12 -0.29 0.67
12 8 -10 0.19 1.26
-10 8 -12 -0.58 0.64
-12 8 10 -0.64 0.89
-12 10 -8 0.04 0.79
-8 12 -10 -0.8 1.29
-10 12 8 1.72 1.67
-12 -10 8 0.41 0.9
-12 10 -8 1.14 1.38
8 12 10 0.63 0.87
10 -8 -12 0.62 1.18
-8 10 12 0.08 1.21
12 -10 -8 0.29 1.19
10 12 8 0.18 0.52
-8 12 10 0.4 1.3
8 10 12 1.38 1.08
10 -12 -8 -0.2 1
-8 -12 -10 0.11 0.55
10 12 8 0.18 0.54
8 12 -10 0.47 1.18
-8 -10 12 0.43 1.11
-8 10 -12 -0.03 1.48
-12 8 -10 -0.27 0.8
-10 -12 8 0.83 1.06
-10 12 -8 0.56 0.97
-10 12 -8 -1.24 1.2
-12 -8 10 -0.62 0.78
12 -8 -10 0.39 1.1
-12 10 8 0.29 1.34
-10 -8 -12 0.24 0.54
8 -10 -12 0.18 1.27
10 8 -12 1.11 1.31
10 10 -12 0.87 1.37
10 12 -10 1.93 1.42
10 12 10 2.97 1.28
10 12 10 2.06 0.87
12 -10 -10 1.13 1.45
-12 -10 10 2.84 1.57
10 10 12 2.52 1.1
10 -10 -12 1.15 1.65
-10 12 -10 3.06 2
-10 12 10 2.65 1.97
10 -12 -10 1.56 1.79
-10 10 12 0.9 1.8
-10 12 -10 1.51 1.61
12 10 -10 0.78 0.98
-10 -10 -12 2.27 0.96
-10 -10 12 1.32 1.27
-10 10 -12 0.94 1.15
-10 10 -12 2.04 1.8
-10 -12 10 2.47 1.73
-12 10 10 -0.8 1.17
-12 10 -10 2.59 1.8
-12 10 -10 1.77 1.11
-12 0 12 2.64 1.94
-12 0 -12 3.32 1.44
0 -12 -12 2.24 1.84
0 -12 12 2.02 1.31
0 12 -12 2.42 2.07
12 -12 0 1.27 1.23
12 0 -12 1.97 1.76
12 12 0 1.64 0.94
12 12 0 1.35 0.93
-12 12 0 3.06 1.54
-12 -2 -12 44.33 4.8
-12 -2 12 42.13 6.31
-12 2 -12 38.8 5.48
-12 -12 2 50.05 5.2
-12 12 -2 34.86 5.47
-12 12 2 47.16 6.04
-2 -12 -12 43.74 5.92
-2 -12 12 49.83 6.76
-2 12 -12 54.28 7.53
12 12 2 40.76 4.62
12 2 -12 42.39 6.18
12 2 12 41.21 4.66
12 12 -2 37.24 5.05
12 12 2 44.14 4.66
2 12 12 41.81 6.11
12 -12 -2 43.42 5.74
12 -2 -12 44.12 6.19
-12 2 12 44.23 6.44
-2 12 12 46.69 6.62
2 -12 -12 43.65 6.29
2 -12 12 39.63 6.21
2 12 -12 36.05 9.25
12 -4 -12 182.15 18.74
12 4 -12 197.44 18.89
12 4 12 199.82 16.59
4 12 -12 207.81 19.56
4 12 12 201.42 18.81
12 -12 -4 191.82 18.51
4 -12 -12 161.7 18.69
-12 -12 4 204.43 17.69
-12 -4 12 195.23 18.79
-12 4 -12 164.32 18.27
-12 4 12 157.31 18.76
-12 12 -4 189.32 18.22
-12 12 -4 161.8 18.75
-12 12 4 187.37 18.64
-4 -12 -12 196.15 18.3
-4 -12 12 146.6 18.26
-4 12 -12 201.45 20.23
-4 12 12 164.99 18.97
12 12 4 180.66 16.59
12 12 4 190.74 16.6
12 12 -4 208.71 18.07
-12 6 -12 57.66 7.67
-12 6 -12 69.05 6.82
-12 -12 6 62.41 6.93
-12 -6 12 45.68 7.11
12 12 -6 48.93 6.74
12 12 6 61.63 5.65
-12 12 -6 62.84 8.15
-6 -12 -12 56.35 6.72
-6 -12 12 61.01 7.64
-6 12 -12 52.79 8.29
-6 12 12 61.05 8.27
6 -12 -12 62.15 8.12
6 -12 12 48.55 7.71
6 12 -12 61.08 8.16
6 12 12 58.43 7.08
12 -12 -6 57.06 7.43
12 -6 -12 56.43 7.56
12 6 -12 55.34 7.37
12 12 6 58.69 5.45
12 6 12 60.67 5.71
-12 6 12 42.41 8.68
-12 12 -6 47.04 6.7
-12 12 -8 15.06 3.22
-12 12 -8 17.96 4.96
8 -12 -12 9.55 3.45
8 12 -12 11.14 3.6
-8 -12 -12 16.31 2.6
-8 -12 12 15.09 3.26
-8 12 -12 11.3 4.22
-12 12 8 13.71 4.19
12 -12 -8 15 4.06
12 -8 -12 8.24 2.96
12 8 -12 12.33 3.58
12 12 -8 14.02 3.67
-12 8 -12 17.19 3.03
-12 8 -12 16.6 4.97
8 12 12 14.87 2.88
-8 12 12 14.11 4.42
-12 -12 8 10.55 3.04
-12 -8 12 18.36 3.86
-12 8 12 18.92 4.66
-10 -12 12 29.11 5.05
-12 10 -12 37.71 6.13
-12 10 12 28 5.38
-12 12 -10 25.21 4.31
-12 12 -10 25.57 5.44
-12 12 10 40.85 5.95
-10 -12 -12 27.79 3.67
12 12 -10 35.53 5.37
-12 -10 12 25.03 4.71
-12 10 -12 35.07 4.76
-10 12 -12 37.15 5.15
-10 12 -12 28.58 5.84
-10 12 12 25.35 5.37
10 -12 -12 30.4 5.46
10 12 -12 24.63 4.99
10 12 12 31.23 4.04
12 -12 -10 32.93 5.41
12 -10 -12 29.48 5.19
12 10 -12 35.99 5.57
-12 -12 10 34.5 4.95
-12 -12 12 51.08 7.16
-12 12 -12 54.73 6.91
-12 12 -12 47.31 8.28
-12 12 12 60.21 8.54
12 -12 -12 50.57 7.63
12 12 -12 66.37 8.21
12 12 12 56.87 5.22
12 12 12 56.03 5.38
-13 -1 1 22.95 3.1
-13 1 -1 25.61 3.01
-13 1 1 25.47 3.27
-1 -1 -13 21.74 3.85
-1 -1 13 25 4.27
-1 1 -13 18.68 3.84
-13 -1 -1 23.51 2.79
1 -1 13 21.79 3.92
1 1 -13 29.38 4.7
1 1 13 24.19 3.98
1 13 -1 19.23 3.36
1 13 -1 31.54 4.25
1 13 1 17.67 3.33
1 13 1 20.56 3.59
13 -1 -1 22.27 2.97
13 -1 1 20.92 2.79
13 1 -1 21.56 2.79
13 1 1 24.25 2.67
1 -1 -13 25 4.17
-1 13 -1 17.3 3.37
-1 13 -1 33.47 4.41
-1 13 1 22.3 3.62
-1 13 1 23.05 3.69
-1 1 13 20.58 4.02
-3 -1 13 57.02 7.29
-3 13 1 55.98 6.83
1 3 -13 64.39 7.77
-1 3 13 65.37 7.66
3 13 -1 71.31 7.26
13 1 -3 65.43 6.21
-13 3 -1 46.07 5.9
3 -1 -13 61.44 7.5
-3 1 -13 51.58 7.02
1 -3 13 49.54 7.04
-13 -3 1 55.67 5.9
-13 1 3 57.03 6.39
-13 -1 -3 65.58 5.81
-1 -3 -13 64.27 7.24
-1 13 -3 63.52 7.06
1 -13 -3 51.73 6.73
13 -3 -1 58.18 6.14
13 3 1 50.11 5.76
-13 3 1 61.43 6.34
-3 -1 -13 64.41 7.2
-1 -3 13 63.5 7.62
-3 1 13 58.48 7.45
-1 13 3 45.16 6.43
13 3 -1 56.03 5.7
1 13 -3 67.62 7.3
-3 13 -1 50.22 6.67
-13 -1 3 46.06 6.08
-13 1 -3 57.94 5.74
-13 -3 -1 55.46 5.56
-1 3 -13 57.98 7.53
1 -3 -13 67.37 7.51
3 13 1 61.71 6.79
13 -1 -3 45.7 5.84
1 13 -3 64.35 7.1
3 1 -13 44.68 6.92
13 -3 1 55.68 5.93
3 -3 -13 138.8 15.49
-13 -3 3 158.21 14.63
3 3 -13 159.74 16.04
3 3 13 156.07 15.48
3 13 -3 158.37 15.22
3 -3 13 173.82 15.97
-3 3 13 130.45 15.54
-3 13 -3 153.97 15.24
-13 3 3 173.83 14.99
-3 -3 13 134.06 15.64
-13 3 -3 155.59 14.24
-3 13 3 166.16 15.49
3 -13 -3 157.83 15.47
3 13 3 163.68 15.05
13 -3 -3 125.08 14.35
13 3 -3 158.68 14.4
13 1 -5 34.05 4.5
5 1 13 34.19 4.98
-1 13 -5 33.61 4.98
-5 -1 13 35.35 5.53
5 13 -1 30.56 4.61
-1 13 -5 48.97 6.12
-1 5 13 41.75 5.77
1 -13 -5 44.47 5.39
1 5 -13 34.38 5.61
-13 -1 -5 35.13 3.55
-13 -1 -5 35.61 3.63
-13 -5 1 35.5 4.09
-13 1 5 42.86 5.01
5 -1 -13 42.39 5.76
-5 13 1 39.5 5.21
-1 -5 -13 47.51 5.64
13 5 1 36.52 3.58
13 -5 -1 32.34 4.41
-13 5 -1 34.56 4.45
-5 1 -13 35.74 5.26
1 -5 -13 44.6 5.65
-1 -5 13 37.3 5.61
13 -1 -5 33.79 4.48
5 -13 -1 32.25 4.9
-5 13 -1 41.14 5.52
-13 1 -5 34.31 3.83
5 1 -13 42.18 5.67
5 13 1 34.43 4.6
13 -5 1 39.99 4.45
13 5 -1 31.86 3.88
1 13 -5 38.12 5.41
-1 5 -13 50.21 6.27
-5 13 -1 37.65 5.14
-1 13 5 30.42 4.77
-13 -5 -1 34.12 3.61
-13 1 -5 39.6 4.18
-13 5 1 39.6 4.76
-5 -1 -13 43.02 5.52
5 -1 13 34.19 5.03
-13 -1 5 28.33 4.55
-5 1 13 41.45 5.87
-1 -13 -5 42.18 5.16
13 3 -5 135.23 15.28
-5 3 -13 179.46 17.02
-5 13 3 138.97 15.97
-3 -5 -13 197.85 16.57
-13 -5 3 185.54 15.53
3 13 5 166.45 15.76
5 -3 -13 171.69 16.75
5 3 13 169.28 16.15
13 -5 -3 178.82 17.82
3 5 -13 192.26 17.57
-13 5 -3 134.26 15.03
-3 13 -5 154.22 16.26
-3 13 -5 187.41 17.17
-3 5 13 140.83 16.56
-5 -3 13 148.71 16.6
-13 3 5 131.22 15.63
3 -5 13 163.85 16.64
-5 13 -3 178.14 16.93
-3 13 5 143.6 15.94
3 -5 -13 165.1 18.74
13 5 -3 179.7 15.34
3 5 13 164.25 16.42
5 -13 -3 171.17 16.36
-13 3 -5 154.55 15.01
-13 3 -5 149.09 15.28
13 -3 -5 140.36 15.84
-3 -5 13 191.78 17.39
-3 5 -13 194.79 17.45
5 3 -13 191.17 17.49
-13 -3 5 129.68 15.43
-13 5 3 190.28 16.13
-5 -3 -13 178.03 16.25
-5 3 13 178.92 17.25
-3 -13 -5 179.41 16.15
5 13 3 162.38 15.63
-5 -5 -13 208.03 20.38
-5 13 -5 226.28 21.61
-5 13 5 223.19 21.03
5 -5 13 237.79 21.33
5 5 -13 182.4 21.19
5 5 13 193.36 20.48
5 13 5 246.37 20.26
13 -5 -5 243.78 20.58
13 5 -5 204.82 20.05
-13 5 -5 212.7 20.32
-5 -5 13 194.53 21.2
-5 5 -13 244.18 21.77
-5 5 13 212.68 21.65
-5 -13 5 256.88 20.83
-13 5 -5 221.77 19.86
-13 -5 5 203.15 20.13
-13 5 5 177.41 20.2
-7 13 1 5.09 2.23
1 7 -13 4.26 2.25
-13 -1 -7 4.53 0.89
13 7 1 4.68 0.91
-7 1 -13 4.34 1.97
7 13 -1 4.76 1.73
13 1 -7 4.68 1.85
-1 -13 7 3.01 1.63
-1 13 -7 5.38 2.53
1 -7 13 4.45 2.16
13 -7 -1 3.26 1.31
-1 7 13 2.49 1.81
1 -13 -7 6.7 2.65
-7 -1 13 4.15 2.24
-1 -7 -13 4.16 1.91
-13 1 7 4.8 2.03
7 -1 -13 6.86 2.72
7 1 13 4.77 1.7
-13 -1 -7 4.08 0.76
-13 -7 1 3.97 1.23
7 13 -1 5.17 1.77
-13 1 -7 5.53 1.49
-7 13 -1 8.29 2.64
-1 13 7 3.14 1.75
13 -1 -7 4.29 1.75
-13 1 -7 5.3 1.29
7 -13 -1 4.58 2.08
-13 7 1 2.05 1.17
-7 -1 -13 6.86 2.19
7 13 1 3.36 1.34
7 13 1 3.64 1.54
-13 -1 7 1.47 1.34
1 -13 7 5.45 2.38
1 13 -7 6.23 2.77
1 -7 -13 1.98 1.65
7 -1 13 5.8 2.16
7 1 -13 6.26 2.94
-1 7 -13 3.92 2.21
13 -7 1 3.85 1.43
13 7 -1 3.63 1.25
-1 -7 13 4.71 2.63
-1 -13 -7 3.86 1.99
-7 1 13 5.02 2.61
-13 -7 -1 4.32 0.84
-13 7 -3 21.94 3.44
-3 7 13 31.78 4.88
3 7 -13 23 4.47
7 -3 -13 27.02 4.56
-13 -7 3 24.75 3.31
-3 -13 7 29.35 4.27
-7 3 -13 18.4 3.92
13 -7 -3 26.58 3.77
13 3 -7 31.34 4
-7 -3 13 21.49 4.29
-7 13 3 28.91 4.2
-3 -7 -13 29.54 4.22
7 3 13 24.14 3.79
3 -7 13 30.25 4.67
3 13 7 25.77 3.89
7 13 -3 20.23 3.67
-3 13 -7 34.4 5.2
-13 3 7 24.27 3.89
3 -13 -7 28.35 4.34
-7 13 -3 18.51 4.1
-3 -7 13 15.59 3.84
-3 7 -13 23.03 4.37
-7 13 -3 22.89 3.94
3 -7 -13 31.66 4.83
7 13 3 26.17 3.52
-7 3 13 21.67 4.4
-3 -13 -7 21.76 3.52
13 -3 -7 20.56 3.59
3 7 13 23.77 4.05
7 -13 -3 23.8 3.95
7 13 3 26.29 3.55
13 7 -3 20.39 3.15
7 3 -13 32.46 4.85
-7 -3 -13 27.11 3.78
-13 3 -7 23.01 3.37
-3 13 7 22.02 4.07
3 13 -7 21.25 4.23
-13 7 3 23.17 3.67
7 -3 13 32.05 4.32
-13 3 -7 20.18 2.95
-13 -3 7 24.38 3.84
-5 -13 7 29.01 4.91
-13 5 7 50.63 5.93
-7 5 -13 43.69 5.98
-5 13 -7 47.31 5.86
-13 7 -5 33.74 5.13
7 13 -5 27.85 4.91
-7 -5 13 37.72 5.87
5 -13 -7 46.1 5.91
-5 -7 -13 35.21 4.91
-5 13 -7 34.06 5.77
-5 7 13 26.88 5.36
5 -7 13 44.22 6.13
5 7 -13 32.95 5.84
-13 7 -5 36.19 4.7
5 13 7 43.2 5.16
7 5 13 37.29 4.92
-13 -7 5 28.24 4.57
-7 13 5 38.09 5.58
13 -7 -5 43.61 5.26
13 5 -7 44.15 5.27
-7 5 13 39.07 6.15
-7 -5 -13 38.91 4.85
-5 -13 -7 36.81 4.88
5 7 13 46.59 5.68
-13 -5 7 29.13 4.8
-13 7 5 32.69 5.13
13 -5 -7 47.72 5.39
-5 -7 13 36.3 5.82
-5 7 -13 35.35 5.93
-7 13 -5 50.18 5.8
-7 13 -5 45.03 6.17
5 13 -7 55.91 6.38
5 -7 -13 43.68 6.02
-13 5 -7 40.26 4.62
-13 5 -7 49.52 5.39
7 5 -13 49.93 6.5
13 7 -5 34.49 4.67
-5 13 7 44.99 6.03
7 13 5 35.66 4.58
7 -7 -13 11.73 3.51
7 -7 13 16.92 4.28
7 13 7 13.67 2.5
-7 13 7 11.1 3.31
7 -13 -7 16.25 4.17
-13 7 -7 12.47 2.36
-7 -7 -13 13.02 2.43
-7 -7 13 15.07 4.18
-7 7 -13 14.75 4.24
7 7 -13 11.36 3.7
-7 7 13 17.22 4.45
-7 13 -7 6.97 2.32
13 7 -7 15.8 2.85
-13 -7 7 12.43 2.75
13 -7 -7 12.64 2.82
-13 7 -7 13.2 3.49
-13 7 7 15.22 3.69
7 7 13 13.29 2.67
7 13 -7 15.55 3.33
-7 13 -7 7.37 3.05
9 13 -1 4.35 1.68
1 -9 13 6.94 2.6
13 -9 -1 5.17 1.94
9 -1 -13 6.6 2.77
1 9 -13 9.11 3.46
-13 -9 1 7.8 1.5
-1 13 -9 3.87 2.17
-13 1 9 7.47 2.82
1 -13 -9 6.59 2.21
-9 13 1 6.35 2.29
-1 -9 -13 12.12 3.46
-13 -1 -9 6.6 1.09
-13 -1 -9 8.12 1.43
-9 -1 13 6.25 2.95
13 9 1 6.3 1.22
-9 1 -13 7.88 2.67
-1 -13 9 14.27 4.14
-1 9 13 3.39 2.07
9 1 13 5.92 1.89
-13 9 -1 8.08 2.35
9 13 -1 8.6 2.51
13 1 -9 10.31 2.91
1 -13 9 5.02 2.08
-1 9 -13 8.43 3.43
-13 -1 9 7.61 2.69
9 13 1 6.62 1.84
1 13 -9 5.3 2.53
13 9 -1 8.28 2.13
-1 -9 13 8.13 2.96
9 1 -13 6.41 2.62
1 -9 -13 7.67 2.76
13 -9 1 5.56 1.85
9 -1 13 10.74 2.82
-9 1 13 9.55 3.74
-1 -13 -9 9.89 2.8
13 -1 -9 9.22 2.82
-1 13 9 6.19 2.37
9 -13 -1 9.24 2.96
-9 13 -1 10.46 2.91
-13 1 -9 8.99 1.44
-13 1 -9 7.89 2.07
-9 -1 -13 8.89 2.61
9 13 1 5.75 1.7
-13 9 1 11.88 3.38
3 13 9 12.57 2.79
3 -13 -9 11.11 3.12
13 3 -9 9.02 2.71
3 -9 13 20.69 5.25
3 9 -13 7.55 3.14
9 -3 -13 13.38 3.9
-3 9 13 12.88 3.74
-9 13 3 10.28 3.03
-3 -9 -13 14.54 2.82
-3 13 -9 12 3.93
-9 3 -13 14.59 3.2
9 13 -3 13.77 2.64
-13 9 -3 10.41 3.21
-9 -3 13 14.23 3.84
-3 -13 9 15.76 3.67
-13 9 -3 11.64 3.09
-13 -9 3 12.42 2.19
13 -9 -3 7.06 2.23
-13 3 9 14.74 3.83
-3 13 9 7.16 2.57
-13 3 -9 12.47 2.02
3 9 13 10.9 3.18
-9 13 -3 7.71 3.02
9 3 -13 10.58 3.35
-13 -3 9 13.4 3.44
-9 13 -3 15.27 3.14
9 13 3 9.42 2
-3 9 -13 15.49 4.59
13 -3 -9 13.32 2.83
3 -9 -13 15.26 4.05
9 -13 -3 17.52 3.22
9 -3 13 13.03 2.71
-3 -13 -9 11.77 2.57
13 9 -3 13.53 2.45
-3 -9 13 20.57 4.8
-13 3 -9 11.1 2.44
-9 -13 3 14.22 2.49
-13 9 3 15.21 3.06
-9 -3 -13 12.43 2.35
-9 3 13 15.88 4.25
3 -13 9 7.93 2.87
3 13 -9 14.51 4.38
9 13 3 12.09 2.19
-13 9 -5 5.3 1.75
-9 13 5 11.36 3.62
-13 5 9 10.9 3.37
5 -13 -9 12.17 3.46
-13 -9 5 9.41 2.35
-5 -9 -13 11.08 2.38
13 -9 -5 8.18 2.48
-5 9 13 9.77 3.38
-5 -13 9 16.22 3.8
-5 13 -9 6.9 3.05
5 9 -13 7.32 3.32
-9 -5 13 14 3.63
5 13 9 6.92 2.28
9 -5 -13 9.25 4.86
9 13 -5 14.71 3.42
-13 9 -5 4.91 2.3
-9 5 -13 7.07 2.48
9 5 13 10.92 2.16
5 -9 13 16.43 4.64
13 5 -9 5.66 2.27
13 -5 -9 8.73 2.78
9 13 5 9.59 1.77
-13 9 5 14.93 3.85
-9 -5 -13 9.62 1.92
5 13 -9 17.84 4.4
-9 5 13 11.05 3.76
-13 -5 9 11.98 3.03
9 -5 13 4.84 2.1
-5 -9 13 10.32 3.5
9 5 -13 6.33 2.7
-5 -13 -9 8.67 2.34
5 -9 -13 8.37 2.75
-5 13 9 11.34 3.63
-9 -13 5 8.75 2.55
-13 5 -9 8.17 1.84
-9 13 -5 7.52 2.77
13 9 -5 8.72 2.44
-9 13 -5 9.02 2.88
-5 9 -13 10.32 3.89
-13 5 -9 11.88 3.46
5 9 13 11.91 3.14
9 13 5 7.51 1.69
-7 -13 9 7.07 2.44
-9 -7 13 13.39 3.98
-13 9 -7 17.29 3.36
7 9 -13 12.73 3.79
-13 9 -7 10.54 2.78
9 13 -7 12.4 3.14
9 7 13 10.02 2.26
-9 7 -13 14.01 4.4
-7 -9 -13 12.03 2.29
-13 -9 7 10.76 2.73
13 -9 -7 12.64 3.49
-13 7 9 15.16 3.29
-7 9 13 14.83 4.42
13 7 -9 12.5 2.68
7 -9 13 5.51 2.55
-9 13 7 11.07 3.33
-7 13 -9 10.48 3.09
-7 13 -9 10.19 3.81
9 -7 -13 15.4 3.36
7 -13 -9 10.65 3.19
-7 13 9 9.47 3.33
9 -13 -7 16.15 4.21
9 13 7 12.72 2.23
-13 7 -9 6.29 2.45
13 9 -7 16.93 3.92
-13 7 -9 12.04 2.38
9 13 7 11.95 2.02
-7 -13 -9 9.77 2.15
-13 -7 9 5.97 2.24
-9 13 -7 10.14 2.85
-9 13 -7 16.72 4.67
13 -7 -9 13.35 2.9
-9 -13 7 14.7 2.86
-7 -9 13 14.59 4.21
-7 9 -13 10.49 4.15
7 13 -9 12.66 3.52
9 7 -13 13.6 4.33
-9 -7 -13 11.65 2.01
-9 7 13 18.3 4.62
7 -9 -13 12.99 3.72
-13 9 7 14.85 3.18
-13 9 -9 20.42 4.86
-13 9 9 9.25 3.11
-9 -13 9 13.06 3.71
-9 -9 -13 10.96 1.98
-9 13 -9 16.23 5
9 -13 -9 9.6 3.5
9 -9 -13 12.25 3.77
9 9 13 13.69 2.99
-9 -9 13 22.44 5.08
9 13 9 9.7 2.42
13 -9 -9 8.62 3.07
9 -9 13 6.68 2.84
9 9 -13 11.03 3.46
13 9 -9 11.41 3.02
-9 13 -9 8.23 2.66
-9 9 -13 12.11 4.18
-9 9 13 7.68 3.09
9 13 -9 6.98 2.76
-13 -9 9 15.3 3.59
-13 9 -9 9.43 2.54
-9 13 9 8.35 3.14
1 -11 13 2.71 2.02
13 11 1 5.37 1.36
13 11 1 4.64 1.41
-13 -11 1 5.06 1.52
-13 11 -1 5.36 2.1
-11 1 -13 5.57 2.28
-1 -13 11 5.88 2.54
-1 13 -11 7.07 2.98
-1 11 13 6.18 3.22
13 1 -11 5.5 2.18
1 11 -13 5.18 2.81
-11 -1 13 3.24 1.77
11 1 13 5.82 1.87
1 -13 -11 7.99 2.86
-11 13 1 4.54 1.99
-13 1 11 4.56 2.33
11 13 -1 4.52 1.59
-1 -11 -13 4.35 1.96
-13 -1 -11 5.31 1.08
-13 -1 -11 6.6 1.61
11 13 -1 4.93 1.79
11 -1 -13 5.8 2.6
13 -11 -1 4.59 1.91
13 -1 -11 2.86 2.16
-1 13 11 5.29 2.55
1 -13 11 6.15 2.6
1 -11 -13 6.65 2.73
11 1 -13 9.24 3.02
-13 11 1 4.92 1.87
-1 11 -13 7.14 2.96
-13 -1 11 4.76 2.42
-13 1 -11 5.89 1.24
13 -11 1 3.49 1.57
13 11 -1 6.47 1.82
1 13 -11 5.8 3.14
-11 -1 -13 4.94 2.12
-13 1 -11 4.69 1.78
11 13 1 5.76 1.76
-11 1 13 4.89 2.88
11 -1 13 5.31 1.84
11 -13 -1 3.05 1.83
-11 13 -1 4.56 2.16
-1 -13 -11 9.2 3.06
-1 -11 13 3.54 1.81
-13 -3 -11 131.62 11.09
-13 3 11 152.14 14.28
11 13 -3 104.38 12.29
-3 11 13 109.8 13.85
-11 -3 13 112.62 13.42
-3 13 -11 106.98 14.1
13 3 -11 134.15 13.46
3 -11 13 106.01 13.56
-3 -13 11 137.19 13.77
-13 -11 3 122.84 12.13
-13 11 -3 154.88 13.38
-13 -3 -11 120.8 11.12
13 11 3 122.88 11.34
3 13 11 140.7 13.62
3 -13 -11 155.52 14.34
11 3 13 126.11 12.03
13 -11 -3 131.35 13.19
-13 11 -3 111.1 13.49
-3 -11 -13 137.01 13.37
-11 13 3 112.89 13.17
-11 3 -13 118.94 13.21
11 -3 -13 130.07 13.75
3 11 -13 143.55 14.59
13 -3 -11 121.58 13.32
11 13 3 126.72 13.04
3 -13 11 138.67 14.12
-13 11 3 140.41 13.52
-11 -3 -13 121.91 11.96
11 -3 13 128.73 12.93
11 3 -13 127.3 13.74
-3 13 11 136.78 14.3
3 -11 -13 136.26 13.83
-3 -11 13 109.75 13.4
-11 3 13 127.87 14.02
-3 -13 -11 131.14 13.19
-11 -13 3 109.08 12.17
-3 11 -13 109.13 14.16
3 11 13 139.98 13.76
11 -13 -3 101.01 12.79
-13 3 -11 129.07 12.97
11 13 3 114.33 11.78
-11 13 -3 150.73 14.58
-13 3 -11 137.29 12.1
-11 13 -3 114.8 12.99
5 -11 13 102.76 12.43
11 -5 -13 108.05 12.6
-11 13 5 115.7 12.28
-5 -13 11 109.71 12.13
13 -11 -5 114.86 11.87
-13 11 -5 99.91 12.16
5 13 11 113.14 11.74
-13 5 11 120.65 12.4
-11 -5 13 121.37 12.55
-13 -11 5 100.32 10.82
5 -13 -11 113.55 12.5
-5 -11 -13 105.35 11.27
-5 13 -11 82.78 12.22
-11 5 -13 97.71 11.99
5 11 -13 123.68 13.02
-13 11 -5 117.33 11.55
13 5 -11 93.73 11.52
11 5 13 107.65 10.24
-5 11 13 103.29 12.6
11 13 -5 117.71 11.52
-13 11 5 99.66 11.74
-11 -5 -13 101.11 10.11
5 -11 -13 111.51 12.3
-5 13 11 113.91 12.74
13 11 -5 98.1 11.05
5 11 13 118.8 11.88
-11 5 13 100.41 12.43
-11 -13 5 121.76 11.23
-11 13 -5 94.6 11.31
-5 11 -13 114.11 13.26
11 -5 13 99.19 11.48
11 13 5 105.65 10.22
5 -13 11 108.63 12.31
5 13 -11 127.32 12.81
-11 13 -5 122.17 12.86
-5 -13 -11 94.73 11.14
-13 5 -11 99.67 11.7
11 13 5 106.99 10.17
11 5 -13 130.18 12.47
13 -5 -11 102.14 11.76
-13 5 -11 115.93 10.76
-13 -5 11 102.34 11.72
-7 13 -11 17.88 5.02
13 7 -11 15.52 3.57
-11 7 -13 13.3 4
11 7 13 17.94 2.51
11 13 -7 24.78 4.37
-13 -11 7 15 3.1
11 -7 -13 14.4 4.03
13 -11 -7 18.34 3.79
-11 13 7 19.21 4.17
7 -13 -11 22.29 4.43
-13 7 11 19.64 4.21
-7 11 13 11.39 3.92
-13 11 -7 20.73 3.5
7 -11 13 18.28 5.01
7 11 -13 19.34 4.26
-11 -7 13 15.65 4.4
-7 -11 -13 21.15 3.28
-13 11 -7 24.46 4.59
-7 -13 11 22.03 4.04
-13 7 -11 25.99 4.43
13 11 -7 14.27 3.33
-11 7 13 20.46 4.26
11 -13 -7 17.67 3.86
-13 7 -11 21.39 3.16
13 -7 -11 21.7 4.01
-7 13 11 27.7 4.87
7 13 -11 23.04 4.25
-7 11 -13 29.61 7.27
11 7 -13 18.31 4.16
7 -11 -13 18.76 4.19
-13 -7 11 18.43 3.75
-13 11 7 20.5 4.1
-11 -7 -13 20.21 2.45
11 13 7 19.76 2.55
11 13 7 20.27 2.46
-11 -13 7 24.64 3.69
-11 13 -7 17.72 3.48
-11 13 -7 26.55 4.9
-7 -13 -11 22.36 3.3
-9 -11 -13 11.62 2.32
-13 -11 9 14 2.99
11 9 13 18.33 2.33
-13 9 11 11.14 3.42
9 11 -13 15.63 4.18
-11 -9 13 8.87 3.41
-11 9 -13 16.77 3.95
-11 9 -13 21.66 4.16
-9 -13 11 18.53 3.61
-9 13 -11 20.72 3.7
-9 13 -11 19.77 5.9
9 -13 -11 22.84 5.47
-13 11 -9 12.34 3.96
9 13 11 14.76 2.59
11 -9 -13 14.95 4.16
13 -11 -9 13.85 4.01
-11 13 9 19.52 4.07
-9 11 13 19.74 5.54
-13 11 -9 14.44 2.88
11 13 -9 23.51 3.95
13 9 -11 16.38 3.64
11 -13 -9 12.96 3.66
-13 9 -11 14.99 2.79
9 13 -11 10.77 3.65
-9 13 11 11.48 3.66
-11 13 -9 14.25 4.44
13 11 -9 21.56 3.75
-11 13 -9 18.41 4.49
-11 9 13 17.14 4.68
-9 -13 -11 12.9 2.38
-9 -11 13 14.95 4.29
9 -11 -13 17.18 4.52
-11 -9 -13 13.68 1.95
11 13 9 15.28 2.16
11 13 9 16.04 2.11
13 -9 -11 11.82 3.71
-13 9 -11 12.7 3.97
11 9 -13 7.72 2.87
-13 -9 11 15.03 3.33
-13 11 9 19.12 3.97
9 11 13 16.79 2.84
-9 11 -13 17.76 5.55
-11 13 11 45.04 7.01
11 -11 -13 52.98 7.2
11 11 -13 44.2 6.73
11 11 13 37.35 4.7
11 -13 -11 48.26 6.95
-13 11 -11 38.57 7.12
-13 11 11 47.95 7.04
-11 -13 11 38.16 5.85
-11 -11 -13 41.1 4.64
-11 -11 13 48.72 6.55
-11 11 -13 50.19 6.21
-11 11 -13 51.43 7.85
-11 11 13 45.33 7.37
-11 13 -11 49.77 6.21
-11 13 -11 46.49 7.71
-13 -11 11 31.58 5.48
-13 11 -11 39.27 5.56
13 -11 -11 53.68 7.07
11 13 -11 48.22 6.73
11 13 11 47.35 4.99
11 13 11 46.76 4.63
13 11 -11 35.87 5.96
-13 1 -13 12.17 2.72
-13 1 13 16.27 4.86
-13 13 -1 6.87 2.56
-13 13 1 14.52 3.93
-1 -13 -13 12.16 3.5
-1 -13 13 15.86 4.44
-1 13 -13 11.55 4.32
-1 13 13 12.1 3.9
1 -13 -13 22.63 5.08
1 -13 13 19.9 4.07
1 13 -13 11.13 3.94
13 -13 -1 13.38 3.42
13 -1 -13 8.82 2.84
13 1 -13 15.95 3.89
13 13 -1 10 2.22
13 13 1 12.88 2.08
13 13 1 9.49 2.03
-13 -1 -13 12.88 2.29
-13 -1 13 8.8 3.04
-13 13 -3 142.75 13.89
-13 13 3 106.33 12.14
-3 -13 -13 116.38 12.35
-13 13 -3 129.16 12.31
-13 3 13 110.65 12.8
-13 3 -13 121.46 12.19
-13 -3 13 128.29 12.84
-13 3 -13 119.66 11
13 13 3 113.79 10.46
13 13 3 101.32 10.42
3 -13 13 92.7 12.56
3 13 -13 118.92 13.33
3 13 13 118.13 12.88
13 -13 -3 118.41 12.23
13 -3 -13 108.38 12.45
13 3 -13 124.83 12.72
-13 -3 -13 117.5 10.46
-13 -13 3 90.2 10.81
-3 13 -13 101.75 13.37
-3 13 13 92.32 12.65
3 -13 -13 133.57 13.49
13 13 -3 87.15 11.01
5 -13 13 102.03 14.23
5 -13 -13 146.42 15.11
-5 13 -13 145.47 16
-5 13 13 138.65 15.28
13 -13 -5 138.47 14.27
13 -5 -13 136.94 14.3
13 5 -13 150.42 14.54
-13 -13 5 141.87 13.1
-13 -5 13 121.79 14.04
-13 5 -13 130.82 12.8
-13 5 -13 135.45 14.36
-13 5 13 123.99 14.5
-13 13 -5 130.43 13.59
-13 13 -5 148.77 15.21
-13 13 5 111.47 13.8
-5 -13 -13 129.7 13.53
13 13 5 125.62 11.71
13 13 5 124.97 11.72
13 13 -5 134.42 13.34
5 13 -13 99.43 13.94
5 13 13 141.22 14.22
-7 13 -13 30.26 5.8
-7 -13 -13 23.79 3.67
-7 -13 13 22.47 4.67
13 7 -13 19.5 5.12
13 13 -7 30.73 4.4
-13 7 -13 21.71 5.86
-13 7 13 24.54 4.78
-13 13 -7 16.05 3.52
-13 13 -7 29.45 5.32
-13 13 7 22.39 4.6
-13 -13 7 15.26 3.23
7 13 13 22.01 3.82
13 -13 -7 27.62 4.54
13 -7 -13 22.57 4.32
-13 -7 13 21.14 4.21
-13 7 -13 16.24 3.18
-7 13 13 15.79 4.56
7 -13 -13 19.3 4.4
7 13 -13 29.32 5.11
-13 9 -13 20.62 5.84
-13 9 13 13.75 4.14
-13 13 -9 15.11 3.85
-13 13 -9 21.11 4.54
-13 13 9 13.13 4.12
13 13 -9 15.55 4.11
-13 9 -13 17.98 2.96
-13 -13 9 18.44 3.26
-13 -9 13 17.11 3.71
-9 13 -13 15.2 3.35
-9 13 -13 17.92 5.6
-9 13 13 18.03 5.52
9 -13 -13 18.69 4.85
9 13 -13 12.99 4.31
9 13 13 20.69 3.2
13 -13 -9 14.13 3.94
13 -9 -13 14.6 4.07
13 9 -13 10.06 3.24
-9 -13 -13 18.13 2.82
-9 -13 13 16.86 3.73
-11 13 13 93.97 11.45
11 -13 -13 81.83 10.52
11 13 -13 65.07 9.78
11 13 13 80.3 8.35
13 -13 -11 83.35 10.48
13 -11 -13 80.77 10.37
-11 13 -13 77.23 9.43
-11 13 -13 97.84 12.59
-13 -13 11 83.22 9.49
-13 -11 13 61.47 9.28
-13 11 -13 90.71 9.38
-13 11 -13 101.95 12.2
-13 11 13 88.86 11.2
-13 13 -11 104.56 9.96
-13 13 -11 75.05 11.31
-13 13 11 79.77 10.63
-11 -13 13 101.5 10.39
13 11 -13 69.81 9.76
13 13 -11 66.33 9.53
-13 -13 13 81.17 9.48
-13 13 -13 66.66 8.78
-13 13 13 85.61 10.82
13 -13 -13 77.93 10.29
13 13 -13 76.06 9.76
-14 0 0 147.34 13.68
0 0 -14 178.11 16.25
0 0 14 134.43 14.96
0 14 0 129.66 14.44
0 14 0 154.92 14.9
14 0 0 143.37 13.45
-2 14 0 1.26 1.65
-2 14 0 0.42 1.08
0 -2 -14 0.45 1.23
0 -2 14 1.53 1.41
0 2 -14 1.35 2.02
0 2 14 2.2 1.68
2 14 0 0.85 1.03
2 14 0 2.77 1.49
14 0 -2 1.86 0.99
14 0 2 1.77 0.7
14 2 0 2.05 0.81
2 0 -14 1.43 1.26
2 0 14 0.96 1.24
14 -2 0 1.23 0.87
-2 0 14 1.31 1.56
0 14 -2 0.83 1.1
-14 0 -2 1.56 0.97
-14 0 2 1.52 1.07
-14 -2 0 2.4 1.08
0 14 -2 0.67 1.08
0 14 2 3.27 1.74
-2 0 -14 1.21 1.26
-14 2 0 1.73 1
2 14 -2 4.55 1.87
-14 -2 2 5.62 1.73
-2 14 -2 4.84 2.3
-2 14 -2 8.05 3.03
2 14 -2 4.56 2.12
2 2 -14 7.48 2.89
-2 2 -14 3.8 2.27
-2 2 14 4.88 2.39
2 14 2 3.53 1.7
14 -2 -2 4.18 1.33
-14 2 -2 6.3 1.59
-14 2 2 8.45 2.43
-2 -2 -14 4.24 2.15
14 -2 2 4.85 1.32
-14 -2 -2 5.99 1.18
-2 14 2 5.06 2.15
2 -2 -14 6.27 2.77
14 2 -2 4.9 1.47
14 2 2 5.29 0.92
2 -2 14 5.07 2.34
0 14 4 26.36 3.97
0 14 -4 27.39 4.43
-14 -4 0 25.75 2.88
-4 0 -14 21.74 4.08
-4 0 14 21.13 4.37
0 -14 -4 15.06 3.36
0 14 -4 18.15 3.61
0 4 14 31.36 4.82
4 14 0 31.97 4.19
14 0 -4 19 3.09
0 -4 14 22.11 4.4
0 4 -14 25.71 4.75
4 0 -14 16.19 3.86
14 -4 0 22.15 3.12
-4 14 0 24.5 3.98
-4 14 0 31.95 4.45
0 -4 -14 21.9 4.03
-14 0 -4 24.93 2.73
-14 0 4 20.21 3.43
-14 0 -4 20.87 2.67
-4 -2 14 45.1 6.99
-2 14 -4 49.23 7.13
-2 -4 -14 48.85 6.72
2 -4 14 63.24 7.56
2 4 -14 62.94 7.92
-4 2 -14 52.46 7.23
-14 2 4 65.32 6.68
14 -4 -2 61.34 6.29
14 2 -4 49.78 5.94
4 14 -2 65.75 7.09
14 4 2 52.32 4.93
-14 -4 2 64.33 6
-14 4 -2 50.45 5.88
-4 14 2 66.77 7.3
-2 4 14 51.49 7.22
2 -14 -4 48.24 6.75
4 2 14 58.32 7.14
-14 2 -4 48.73 5.53
14 4 -2 58.53 5.77
2 14 -4 44.16 6.74
4 2 -14 47.66 7.19
-14 -4 -2 52.92 4.99
14 -2 -4 52.78 6.07
14 -4 2 48.94 5.8
2 14 -4 47.63 6.59
-14 2 -4 55.99 5.9
-4 2 14 64.31 7.91
4 -14 -2 59.8 7.32
-4 -2 -14 51.6 6.82
4 14 2 62.81 6.68
-2 -4 14 47.26 8.44
-2 4 -14 59.53 7.63
-4 14 -2 45.91 6.6
-2 14 4 61.37 6.96
-14 4 2 50.3 6.18
-14 -2 4 65.95 6.57
4 14 2 54.67 6.45
2 -4 -14 63.38 7.44
-4 14 -2 61.09 7.37
14 4 -4 111.44 12.22
4 -4 14 149 14.09
-14 -4 4 109.04 12.31
-14 4 -4 125.16 12.14
-4 14 4 114.25 13.02
4 -14 -4 127.65 13.38
4 -4 -14 131.64 13.94
-4 14 -4 156.7 14.26
-4 4 -14 127.53 14.02
-14 4 -4 139.12 12.81
-14 4 4 128.82 12.9
-4 -4 -14 147.04 13.53
-4 -4 14 146.14 14.44
4 4 14 149.61 13.77
4 14 -4 103.69 13.02
4 14 4 132.04 12.95
4 4 -14 109.5 13.68
-4 14 -4 135.29 13.42
-4 4 14 130.41 14.2
0 -6 14 4.18 2.37
0 -6 -14 5.53 2.45
14 -6 0 3.07 1.35
-14 0 6 2.89 1.55
-14 -6 0 5.6 1.24
-14 6 0 4.24 1.69
-6 0 -14 3.78 1.72
-14 0 -6 4.5 1.05
-14 0 -6 6.05 1.44
0 6 -14 2.17 1.74
6 0 14 2.64 1.53
0 6 14 6.51 2.66
6 14 0 3.86 1.5
-6 14 0 9.77 3.19
-6 0 14 7.02 3.27
0 -14 -6 3.3 1.48
0 14 6 4.83 1.99
6 0 -14 6.78 2.98
14 6 0 5.22 1.24
14 0 -6 3.85 1.5
6 14 0 5.72 2.06
0 14 -6 5.57 2.38
-14 -6 2 3.22 1.19
6 -2 -14 3.79 2.18
-2 14 -6 4.24 2.34
-2 6 14 4.68 2.51
-14 2 6 4.25 1.82
-2 14 -6 4.15 1.89
6 14 -2 2.73 2.03
6 14 -2 1.27 1.34
6 2 14 4.3 1.97
14 2 -6 5.36 1.98
2 -6 14 6.2 2.65
-2 -14 6 4.19 2.15
-14 6 -2 2.98 1.48
2 -14 -6 1.17 1.31
-2 -6 -14 4.88 2.19
-6 14 2 6.98 3.26
14 -6 -2 4.74 1.78
-6 2 -14 6.79 2.6
2 6 -14 3.36 2.83
-6 -2 14 10.43 3.41
-6 -2 -14 4.36 1.82
-14 2 -6 4.47 1.22
-2 -6 14 3.78 2.26
6 -2 14 3.38 1.6
-14 -2 6 2.14 1.6
2 -6 -14 6.19 2.7
-2 14 6 4.06 1.86
14 6 -2 5.57 1.41
14 -2 -6 2.96 1.46
-6 14 -2 4.28 1.85
-2 -14 -6 2.01 1.2
-2 6 -14 3.99 2.38
6 14 2 4.29 1.61
2 14 -6 7.18 2.71
-14 6 2 4.29 1.8
6 14 2 4.47 1.9
14 -6 2 3.38 1.54
6 -14 -2 3.88 1.81
-6 2 14 3.38 2.39
6 2 -14 4.69 2.46
-6 14 -2 3.51 2.07
14 4 -6 58.52 6.3
-6 4 -14 60.03 7.62
4 -6 14 52.36 7.23
-6 -4 14 52.83 7.42
-14 6 -4 56.22 6.09
-14 -6 4 47.73 5.97
-4 6 14 62.41 8.03
4 6 -14 50.97 7.45
-4 -6 -14 70.41 7.22
6 -4 -14 54.51 7.34
-14 6 -4 62.26 6.88
-14 4 6 52.2 6.65
-6 14 4 59.82 7.15
6 4 14 46.99 6.51
-4 14 -6 58.98 7.2
-4 -14 6 62.6 7.01
4 -14 -6 68.79 7.52
4 14 6 55.79 6.55
14 -6 -4 48.35 6.22
4 14 -6 38.52 6.6
-6 -4 -14 58.62 6.62
14 6 -4 48.44 5.89
4 6 14 43.29 6.63
-14 4 -6 58.79 5.88
-4 14 6 48.07 6.91
-14 -4 6 42.88 6.06
14 -4 -6 56.7 6.44
-14 4 -6 54.97 6.36
4 -6 -14 57.03 7.47
6 4 -14 62.38 7.96
-6 14 -4 59.76 7.06
6 -14 -4 59.05 7.13
-4 -6 14 47.17 7.64
-4 6 -14 50.98 7.37
-6 4 14 54.22 7.58
-14 6 4 46.24 6.37
-6 14 -4 67 7.87
-4 -14 -6 58.09 6.63
-6 -14 4 57.34 6.44
6 14 4 44.55 6.03
-14 -6 6 4.52 1.69
-14 6 -6 5.38 1.65
6 -6 14 11.29 3.6
6 -6 -14 4.36 2.23
14 6 -6 7.38 2.05
-6 -6 -14 1.63 1.32
-6 -6 14 4.68 2.24
-6 14 -6 6.9 2.25
-6 14 6 7.28 2.67
6 -14 -6 3.37 1.64
-6 6 14 4.03 2.39
-14 6 -6 4.37 1.95
-14 6 6 3.96 1.96
6 6 -14 5.53 2.73
6 6 14 6.17 2.25
6 14 -6 5.79 2.39
14 -6 -6 4.22 1.66
-6 -14 6 3 1.35
-6 6 -14 8.65 3.23
6 14 6 6.93 2.15
6 14 6 10.45 2.5
-6 14 -6 5.99 2.58
0 14 8 22.11 4.2
0 -8 -14 19.2 3.8
-8 0 -14 16.8 3.42
0 -14 8 18.86 3.77
14 -8 0 16.98 2.96
14 8 0 17.88 2.33
-14 8 0 23.03 3.48
0 -14 -8 18.73 3.57
0 -8 14 14.1 3.91
0 14 -8 14.08 4.02
0 8 -14 19.74 4.35
8 14 0 12.96 2.78
-14 -8 0 23.49 2.43
8 0 14 21.65 3.47
8 14 0 23.14 3.24
-14 0 -8 19.4 2.19
-14 0 -8 16.86 2.43
-14 0 8 18.22 3.58
-8 0 14 18.15 4.61
14 0 -8 17.11 3.21
-8 14 0 15.75 3.4
8 0 -14 18.38 3.94
-14 2 8 2.74 1.88
2 -14 -8 6.88 2.69
8 2 14 2.66 1.4
-14 -8 2 2.78 1.08
-2 8 14 3.56 1.99
2 8 -14 4.06 2.36
-8 -2 14 0.86 1.62
14 2 -8 1.74 1.18
-2 -14 8 4.35 2.1
8 14 -2 2.25 1.4
2 -8 14 5.95 2.71
-8 2 -14 1.1 1.38
14 -8 -2 2.32 1.29
-2 -8 -14 3.12 1.7
8 14 -2 0.84 0.85
8 -2 -14 3.56 2.32
2 14 8 0.69 1.5
-14 8 -2 2.48 1.32
-14 2 -8 3.27 1.48
8 14 2 2.46 1.21
2 14 -8 5.12 2.69
-8 2 14 0.07 1.82
-2 -14 -8 4.72 2.22
-8 14 -2 3.36 2
-8 14 -2 2.39 1.61
8 2 -14 3.48 2.47
-8 -2 -14 2.2 1.3
-14 2 -8 2.73 0.96
-2 -8 14 3.82 2.18
-2 8 -14 2.32 1.88
8 -14 -2 2.39 1.7
8 14 2 3.07 1.47
-2 14 8 0.25 1.08
14 -2 -8 4.17 1.8
14 -8 2 1.79 1.6
14 8 -2 1.57 0.94
-14 -2 8 4.54 1.92
2 8 14 3.5 2.13
8 -2 14 3.93 1.8
2 -8 -14 2.03 1.53
-14 8 2 4.2 1.89
-14 8 -4 5.54 2.1
4 14 8 3.28 1.72
14 4 -8 3.51 1.56
-14 -8 4 5.21 1.65
-14 4 8 3.69 1.81
8 14 -4 2.79 1.56
4 -14 -8 4.53 2.01
8 -4 -14 6.26 2.54
-4 14 -8 1.06 1.97
-8 -4 14 8.16 2.93
4 -8 14 6.57 2.85
14 -8 -4 3.77 1.75
-14 8 -4 5.04 1.7
-4 14 -8 7 2.96
-8 4 -14 4.11 2.03
-4 -14 8 3.96 1.77
8 4 14 4.83 1.97
-8 14 4 5.29 2.46
-4 -8 -14 3.24 1.62
-4 8 14 4.6 2.5
-4 -14 -8 5.98 2.06
-4 8 -14 3.57 2.31
4 -8 -14 4.07 2.06
4 8 14 5.98 2.34
8 14 4 3.29 1.51
8 14 4 7.55 2.01
14 -4 -8 3.79 1.74
8 -14 -4 8.83 2.87
-14 8 4 5.21 1.95
-8 -14 4 3.28 1.4
-14 -4 8 1.13 2.29
-4 14 8 6.69 2.86
4 14 -8 5.4 2.34
-8 14 -4 2.32 1.71
-8 14 -4 8.56 2.96
8 -4 14 5.31 2.23
8 4 -14 6.67 2.71
-4 -8 14 4.6 2.52
-14 4 -8 4.7 1.8
14 8 -4 3.18 1.36
-8 4 14 3.81 2.39
-14 4 -8 7.84 1.9
-8 -4 -14 6.23 2.12
-8 14 6 19.18 3.89
8 -6 -14 14.04 4.16
6 14 8 22.2 3.46
-14 -8 6 17.62 3
-8 6 -14 23.27 4.28
14 -8 -6 14.66 3.22
-6 8 14 15.17 4.19
-14 8 -6 15.61 2.85
-14 6 8 20.67 3.87
-8 -6 14 23.67 4.28
-6 14 -8 21.42 4.47
6 8 -14 13.57 4.22
-6 -14 8 15.2 3.22
8 14 -6 11.67 3.5
-14 8 -6 16.45 3.48
-6 -8 -14 19.41 3.15
14 6 -8 15.82 3.14
6 -8 14 21.24 5.31
-6 14 -8 21.07 3.86
6 -14 -8 18.01 3.86
-6 -8 14 18.91 3.92
6 -8 -14 13.3 3.87
-6 -14 -8 12.27 2.65
-14 8 6 20.48 3.74
8 -14 -6 16.55 3.68
8 14 6 14.32 2.52
14 -6 -8 16.34 3.2
-6 8 -14 27 6.37
6 8 14 18.01 3.45
-14 -6 8 16.89 3.26
-14 6 -8 19.56 2.77
8 6 -14 8.6 3.17
14 8 -6 19.43 3.1
-8 6 14 17.25 5.06
-14 6 -8 20.48 3.66
-8 14 -6 14.34 3.32
-8 14 -6 19.96 4.32
6 14 -8 13.3 4.12
-8 -6 -14 18.36 3
-6 14 8 18.48 5.01
8 14 8 52.26 6.18
8 8 14 50.71 6.29
-8 8 -14 46.05 7.5
-14 -8 8 58.7 6.75
-8 14 8 55.85 7.58
8 14 8 50.7 5.81
-8 -8 -14 51.57 5.91
14 8 -8 59.04 6.65
8 -14 -8 47.46 7.05
8 -8 -14 67.15 8.08
-14 8 -8 52.28 6.13
-8 14 -8 42.87 7.22
-14 8 -8 43.57 6.65
-14 8 8 45.35 6.78
-8 -14 8 60.92 6.92
14 -8 -8 58.6 7
-8 14 -8 51.91 6.75
8 -8 14 67.17 7.95
-8 8 14 45.58 7.3
-8 -8 14 42.82 7.03
8 8 -14 46.87 7.29
0 -10 14 15.33 4.11
14 0 -10 15.83 3.68
-14 10 0 15.83 2.91
-10 0 -14 12.33 2.72
0 10 -14 11.59 3.68
-10 0 14 14.45 4.13
0 -14 -10 8.77 2.73
0 -14 10 5.8 2.38
0 14 -10 10.88 3.96
10 14 0 10.71 2.21
-14 0 -10 9.81 1.61
-14 0 -10 13.88 2.12
-14 0 10 16.69 4.39
-10 14 0 14.31 3.72
0 -10 -14 11.13 3.42
10 14 0 14.09 2.53
14 -10 0 11.25 2.54
14 10 0 11.39 1.87
10 0 -14 14.4 3.97
10 0 14 12.78 3.23
2 -14 -10 2.23 1.41
-2 -10 -14 3.39 1.82
-14 10 -2 2.7 1.38
14 2 -10 2.6 1.48
2 -10 14 1.23 1.49
14 -10 -2 2.46 1.36
-2 10 14 0.19 1.33
2 14 10 2.23 1.76
10 -2 -14 3.75 2.21
10 14 -2 1.66 1.18
-14 2 10 5.58 2.48
2 10 -14 2.59 1.91
-2 14 -10 4.28 2.42
-14 -10 2 2.35 1.09
14 10 2 2.33 0.72
-2 -14 10 3.54 1.72
-10 2 -14 4.42 1.94
-10 -2 14 0.89 1.64
-10 14 2 4.29 2.88
14 10 2 2 0.7
10 2 -14 2.56 2.06
2 10 14 2.22 1.76
10 -14 -2 1.06 1.39
-14 2 -10 1.67 1.18
10 -2 14 5.35 2.1
-2 -10 14 0.79 1.54
-14 -2 10 3.04 1.77
-10 14 -2 4.49 2.29
-10 14 -2 5.24 2.34
-14 10 2 1.82 1.44
-10 -2 -14 2.2 1.36
2 14 -10 2.65 1.92
14 -2 -10 1.78 1.66
10 14 2 3.84 1.59
2 -10 -14 3.19 1.97
-2 -14 -10 3.39 1.85
-2 14 10 4.37 2.54
-2 10 -14 1.13 1.88
14 10 -2 3.12 1.28
2 -14 10 4.53 2.37
-10 2 14 0.42 1.51
-14 2 -10 3.87 1.39
14 4 -10 22.53 3.91
-10 4 -14 23.91 4.34
-14 -10 4 24.47 3.27
-4 -14 10 27.33 4.31
-14 4 10 32.23 4.81
-14 10 -4 20.16 3.98
-10 -4 14 19.34 4.21
10 -4 -14 22.43 4.45
10 4 14 21.05 3.22
14 -10 -4 19.25 3.69
-4 14 -10 23.74 6.1
-4 -10 -14 21.09 3.61
4 -10 14 19.69 5.1
4 10 -14 29.23 5.33
-10 14 4 22.22 4.13
10 14 -4 27.58 3.96
4 -14 -10 27.21 4.72
-4 10 14 20.72 4.59
-14 10 -4 22.19 3.61
4 14 10 18.29 3.76
-4 -14 -10 21.69 3.69
-14 4 -10 20.52 2.96
-4 -10 14 16.92 3.97
-14 4 -10 22.4 3.78
-10 14 -4 19.73 4.45
4 10 14 20.22 4.06
-10 -14 4 17.52 3.22
10 14 4 21.43 3.05
10 14 4 21.95 3.05
10 -4 14 24.45 4.1
10 4 -14 23.13 4.42
4 -10 -14 13.61 3.88
-4 14 10 23.92 4.63
-4 10 -14 22.88 4.93
-14 -4 10 20.71 3.77
10 -14 -4 17.55 3.79
-10 14 -4 29.7 4.31
14 -4 -10 18.11 3.7
-10 4 14 23.22 5.64
-14 10 4 17.7 3.75
4 14 -10 28.59 4.97
-10 -4 -14 16.84 3.01
14 10 -4 22.65 3.43
-14 10 -6 -0.33 0.82
-6 -14 10 1.16 1.32
14 -10 -6 -0.01 1.04
-6 14 -10 1.01 1.86
-14 10 -6 -0.73 0.56
-6 -10 -14 -0.64 0.55
10 -6 -14 1.18 1.52
14 6 -10 -1.27 0.65
-14 6 10 0.24 1.25
-10 14 6 -0.36 0.9
-10 6 -14 -0.5 0.86
-10 -6 14 -1.8 0.93
10 6 14 0.54 0.8
-6 14 -10 1.31 1.8
-14 -10 6 -0.66 0.69
-6 10 14 0.93 1.94
6 14 10 0.09 1.17
6 -14 -10 -1.13 0.75
6 -10 14 -0.81 0.98
-10 6 14 -0.99 1.22
-10 -14 6 0.62 1.13
-10 14 -6 1.65 1.98
-14 10 6 0.38 1.18
-6 10 -14 -1.72 1.25
-6 -14 -10 0.47 0.76
-6 -10 14 -0.72 0.97
6 10 14 0.62 0.98
6 14 -10 -0.26 0.95
-6 14 10 -0.43 1.39
10 -6 14 -0.26 0.92
10 -14 -6 0.32 1.43
10 6 -14 -1.55 1.01
-10 -6 -14 0.65 0.73
-14 6 -10 -0.68 0.79
6 -10 -14 -0.61 0.83
-10 14 -6 -0.19 0.79
-14 -6 10 0.65 1.42
-14 6 -10 -0.38 0.65
14 -6 -10 1.11 1.42
14 10 -6 -0.32 0.79
10 14 -8 6.73 2.63
-8 14 -10 7.35 3.64
-14 8 10 6.32 2.78
-10 -8 14 1.51 1.91
-8 14 -10 3.36 1.96
-14 -10 8 4.76 1.85
8 10 -14 6.43 2.76
14 -10 -8 4.67 1.97
8 -10 14 11.74 4.14
8 14 10 7.64 2.39
-8 10 14 2.49 2.25
8 -14 -10 2.13 1.63
-10 14 8 2.5 1.81
10 8 14 5.46 1.77
14 8 -10 5.36 2.27
-8 -14 10 1.98 1.63
-14 10 -8 4.26 1.96
10 -8 -14 4.23 2.21
-8 -10 -14 1.53 1.11
-10 8 -14 3.14 2.08
-14 10 -8 4.55 2.25
10 14 8 5.99 1.76
-14 8 -10 4.14 1.95
8 10 14 3.89 1.74
10 14 8 6.89 1.73
-10 8 14 7.35 2.87
-10 14 -8 1.84 1.47
14 -8 -10 1.52 1.29
-8 14 10 3.28 2.46
-8 -10 14 7.02 3.26
8 14 -10 7.41 3.01
-8 10 -14 1.49 1.79
-14 -8 10 6.58 2.64
10 -14 -8 3.89 2.1
-14 8 -10 4.52 1.83
-10 -14 8 5.9 2.14
-10 14 -8 4.39 2.53
14 10 -8 4.97 2.31
10 8 -14 3.54 2.52
-14 10 8 3 2.08
-10 -8 -14 4.9 1.43
8 -10 -14 5.34 2.72
-14 -10 10 1.1 1.56
10 14 10 0.74 0.9
10 -14 -10 1.08 1.49
10 10 14 0.11 0.8
10 14 10 0.24 0.65
-14 10 10 1.28 2
10 14 -10 -0.21 0.82
-10 10 14 -0.58 1.84
-14 10 -10 0.92 0.84
-10 -10 14 1.67 1.43
14 10 -10 1.06 1.39
10 -10 -14 0.71 1.49
-14 10 -10 2.22 1.58
-10 -10 -14 0.71 0.55
-10 10 -14 -0.4 1.96
-10 14 -10 0.13 1.19
14 -10 -10 0.12 1.34
10 10 -14 -0.65 1.47
-10 14 -10 0.91 1.17
-10 -14 10 1.8 1.39
0 14 -12 4.87 2.84
-14 0 -12 5.24 1.72
0 -14 -12 2.98 2.09
12 0 -14 0.84 1.35
-12 0 -14 2.11 1.34
12 14 0 2.68 1.2
12 14 0 1.86 1.28
-14 0 -12 3.16 1.09
12 0 14 3.73 1.57
14 0 -12 5.85 2.47
0 -14 12 2.28 1.6
-12 14 0 5.08 2.42
0 -12 14 3.19 2.13
14 12 0 2.35 0.99
14 12 0 3.32 1.41
14 -12 0 1.95 1.49
0 -12 -14 2.79 1.84
-12 0 14 2.16 2.23
-14 0 12 4.29 2.11
-14 12 0 2.19 1.57
0 12 -14 4.43 2.56
12 -14 0 2.81 1.66
-14 -2 -12 48.88 4.53
14 12 2 46.04 4.78
12 2 14 50.24 5.39
2 12 -14 33.5 6.74
-2 12 14 62.09 8.01
12 14 -2 43.79 5.53
-2 14 -12 43.69 7.46
14 2 -12 44.36 6.28
-14 2 12 51.17 7.01
-2 -12 -14 39.41 6.23
-12 -2 14 40.78 6.69
2 14 12 55.17 7.14
12 -2 -14 60.14 7.38
-12 14 2 54.26 8.39
2 -14 -12 40.29 6.58
14 -12 -2 45.59 6.09
2 -12 14 35.09 6.48
14 12 2 42.99 4.68
-14 -12 2 37.55 5.06
-12 2 -14 54.9 6.63
-14 12 -2 56.46 6.4
-14 -2 -12 45.45 4.68
-2 -14 12 52.01 7
12 14 2 44.27 6.32
-12 2 14 37.09 7.76
-12 14 -2 58.82 7.61
2 -14 12 45.26 6.88
-2 12 -14 36.31 7.05
2 -12 -14 45.65 6.84
-14 12 2 39.96 6.06
-12 -2 -14 48.78 5.5
2 14 -12 39.92 6.97
-12 14 -2 45.52 6.33
-14 2 -12 49.57 5.1
-14 2 -12 45.88 5.88
14 -2 -12 51.98 6.7
-2 14 12 48.8 7.12
14 12 -2 51.03 5.62
-2 -14 -12 40.83 6.25
-14 -2 12 49.12 6.81
12 14 2 47.92 5.3
-2 -12 14 44.14 7
12 2 -14 54.66 7.11
2 12 14 46.73 6.9
12 -14 -2 49.48 6.64
12 14 -4 153.94 13.84
-14 12 -4 143.97 13.92
-12 -4 14 105.46 14.07
-12 4 -14 141.91 14.54
4 12 -14 161.12 15.87
-4 -14 12 106.5 13.93
-4 14 -12 149.06 16.25
4 -12 14 132.07 15.17
4 -14 -12 148.96 15.31
-12 14 4 110.24 13.96
-4 12 14 147.56 15.8
12 -4 -14 145.79 15
14 4 -12 121.25 13.98
-14 12 -4 124.1 14.75
-4 -12 -14 150.28 14.32
14 -12 -4 134.07 14.07
4 14 12 146.24 14.68
-14 4 12 143.64 14.99
12 4 14 134.52 12.56
-12 14 -4 116.89 14.74
-4 -14 -12 120.1 13.81
-12 -4 -14 130.52 12.56
12 4 -14 143.72 14.84
-4 -12 14 135.64 14.75
-14 4 -12 142 14.27
14 12 -4 116.68 13.19
-12 4 14 158.04 15.53
-4 14 12 134.69 15.12
4 -14 12 128.57 15.01
4 12 14 164.62 15.08
4 14 -12 144.55 15.4
14 -4 -12 147.47 14.52
-14 -4 12 102.06 13.64
4 -12 -14 120.63 14.66
-14 4 -12 124.68 12.72
12 14 4 130.35 12.54
12 14 4 127.91 12.51
12 -4 14 143.74 14.03
-4 12 -14 140.68 16.12
-14 12 4 136.15 14.47
-12 14 -4 160.6 14.5
-12 -14 4 122.44 13.08
12 -14 -4 145 14.48
14 6 -12 47.62 6.8
12 14 -6 53.67 6.6
6 -14 -12 57.5 7.89
12 -6 -14 55.02 7.42
-14 12 -6 39.06 6.06
-14 6 12 46.62 6.98
-12 14 6 62.56 7.83
6 14 12 44.16 6.52
-14 -12 6 47.28 6.03
-6 14 -12 40.3 7.74
-6 12 14 51.62 7.97
-14 12 -6 52.28 7.64
6 -12 14 44.13 7.3
6 12 -14 54.24 7.91
-12 -6 14 55.13 7.51
-12 6 -14 53.32 7.64
12 6 14 54.21 5.21
14 -12 -6 67.78 7.46
-6 -12 -14 52.16 6.49
-6 -14 12 55.06 7.26
14 12 -6 39.26 5.96
6 -12 -14 39.98 7.03
12 14 6 54.29 5.33
12 6 -14 50.7 7.11
-12 14 -6 59.92 6.95
-14 12 6 48.04 7.54
-6 14 12 55.5 7.88
6 14 -12 39.59 6.9
-12 6 14 41.35 7.21
-6 -14 -12 42.51 6.1
-12 -14 6 58.21 6.4
12 -14 -6 49.27 7.04
-12 -6 -14 51.8 5.02
-12 14 -6 66.85 8.4
-14 6 -12 47.23 5.71
-14 6 -12 47 6.96
-6 -12 14 40.91 6.69
12 14 6 47.34 5.15
14 -6 -12 44.15 7.5
-14 -6 12 60.68 7.32
6 12 14 49.5 6.92
-6 12 -14 56.44 8.56
12 -8 -14 10.61 3.35
-8 12 14 10.85 4.18
-14 12 -8 11.29 4.12
8 -14 -12 14.78 4.55
12 14 -8 8.28 2.57
-12 -8 14 20.37 5.1
-12 8 -14 7.67 2.29
-12 14 8 5.49 2.82
-8 -12 -14 10.02 2.23
-8 14 -12 14.24 5.02
-14 12 -8 6.22 2.18
12 8 14 11.65 1.62
14 -12 -8 4.82 2.26
-8 -14 12 18.14 4.39
8 14 12 12.44 3.21
8 -12 14 12.37 5.13
14 8 -12 17.86 4.44
-14 8 12 5.81 2.55
-8 14 -12 8.21 2.85
-14 12 8 22.88 5.74
-12 -8 -14 9.62 1.46
12 14 8 12.19 1.76
-14 8 -12 5.56 1.84
14 -8 -12 12.56 3.63
14 12 -8 12.1 3.23
-12 8 14 20.03 5.54
-8 -14 -12 12.36 2.45
-14 8 -12 9.41 3.45
-12 -14 8 13.16 2.78
-8 14 12 10.39 3.58
-12 14 -8 9.49 4.73
8 14 -12 12.66 3.87
8 12 14 11.49 3.09
12 -14 -8 17.62 4.82
12 14 8 11.71 1.62
-8 -12 14 10.78 3.27
-8 12 -14 17.85 5.67
12 8 -14 15.94 4.78
8 -12 -14 17.6 5.25
-14 -8 12 5.46 2.08
-10 12 14 28.76 5.67
-14 12 -10 23.18 3.98
12 -10 -14 25.38 4.8
-12 10 -14 23.64 4.01
-12 10 -14 37.68 6.41
-10 -14 12 16.52 3.94
10 -14 -12 29.7 5.46
-14 10 12 30.43 5.32
10 14 12 23.73 3.62
-14 -12 10 16.87 3.75
10 12 -14 32.9 5.57
12 10 14 25.53 2.84
14 -12 -10 28.12 5.04
-10 -12 -14 25.13 3.36
-10 14 -12 27.67 7.2
12 14 -10 21.46 4.03
-10 14 -12 31.54 4.87
-12 14 10 24.47 5.3
14 10 -12 20.95 4.32
-12 -14 10 33.29 4.71
-10 14 12 17.85 5.25
-12 10 14 17.58 5.29
-10 -12 14 17.77 4.18
-10 12 -14 27.93 4.45
-14 10 -12 21.86 3.69
-14 10 -12 31.67 5.8
10 14 -12 15.4 4.49
-12 14 -10 18.67 4
-14 12 10 21.88 4.61
10 -12 -14 21.12 5.87
12 10 -14 25.16 5.03
10 12 14 28.96 3.85
12 -14 -10 30.13 5.16
-14 -10 12 20.64 4.09
12 14 10 26.27 2.97
12 14 10 26.21 2.78
-10 12 -14 15.15 5.24
14 12 -10 20.96 4.21
14 -10 -12 27.83 4.97
-12 14 -10 30.51 5.95
12 14 -12 97.69 10.55
14 -12 -12 80.31 10.14
14 12 -12 56.51 8.94
-12 12 -14 70.85 9.05
-12 12 -14 91.12 12.25
-12 12 14 78.27 10.81
-12 14 -12 73.01 9.09
12 14 12 86.82 7.77
12 14 12 77.61 7.41
12 -14 -12 75.43 10.29
12 -12 -14 83.03 10.52
12 12 -14 87.5 10.18
-14 12 12 72.22 10.37
-12 -14 12 79.53 9.4
-12 -12 14 77.43 9.56
-14 -12 12 84.12 9.44
-12 14 -12 77.43 11.47
-12 14 12 89.12 11.07
12 12 14 75.92 7.59
-14 12 -12 71.68 8.86
-14 14 0 1.84 1.59
14 14 0 1.42 1.08
-14 0 -14 0.54 1.02
-14 0 14 0.09 1.46
-14 0 -14 1.68 0.85
0 -14 14 2.55 2.14
0 14 -14 3 2.51
14 0 -14 4.13 2.46
14 14 0 3.69 1.33
0 -14 -14 3.24 2.19
-2 14 -14 14.75 4.79
2 -14 -14 11.77 3.72
2 -14 14 11.11 3.78
2 14 -14 6.78 3.02
2 14 14 9.23 3.76
14 -14 -2 12.88 3.49
14 -2 -14 8.66 3.06
14 2 -14 12.74 3.96
-2 14 14 4.61 3.76
14 14 -2 7.71 2.21
14 14 2 8.69 1.72
-14 -2 -14 8.77 1.48
-14 -2 -14 10.77 1.88
-14 -2 14 10.47 3.92
-14 2 -14 8.97 1.78
14 14 2 8.22 1.76
-14 2 -14 8.64 2.7
-14 2 14 14.22 4.68
-14 14 -2 9.46 2.69
-14 14 -2 9.36 3.19
-2 -14 -14 15.24 4.26
-2 -14 14 8.58 3.21
-4 -14 14 57.15 7.48
-4 14 -14 46.69 8.06
-4 14 14 49.44 8.99
4 -14 -14 50.7 7.81
4 -14 14 43.29 6.95
4 14 -14 56.78 7.93
-14 4 -14 46.56 5.43
-14 4 -14 48.11 6.62
-14 4 14 45.45 7.03
-14 -14 4 36.84 5.22
-14 -4 -14 46.94 4.33
-14 -4 -14 48.41 4.43
-14 -4 14 43.92 6.7
-14 14 -4 35.68 5.83
-14 14 4 44.09 6.69
-4 -14 -14 52.86 7
14 14 4 46.75 4.62
14 14 4 43.86 4.65
14 14 -4 58.06 6.24
14 4 -14 44.59 6.69
14 -4 -14 41.16 6.56
14 -14 -4 43.29 6.32
4 14 14 35.92 6.46
-6 14 14 10.8 4.22
-6 14 -14 11.94 7.44
-6 -14 14 5.95 2.83
14 14 -6 9.24 2.54
-14 -14 6 9.14 2.37
-14 -6 14 10.99 3.8
-14 6 -14 10.3 2.28
-14 6 -14 9.13 3.44
-14 6 14 9.49 3.56
-14 14 -6 6.19 2.71
-14 14 -6 6.15 2.6
-14 14 6 8.95 3.24
-6 -14 -14 9.12 3.98
6 14 -14 17.3 5.23
14 -14 -6 15.81 4.39
14 -6 -14 7.73 3.29
14 6 -14 12.7 3.86
6 -14 14 11.83 4.2
6 -14 -14 4.8 3.33
-8 14 -14 -1.05 1.66
-8 -14 14 0.17 1.22
8 14 -14 2.71 1.79
-14 -8 14 0.08 1
-14 8 -14 0.01 0.84
14 -8 -14 -1.71 1.16
14 8 -14 -0.16 1.28
14 14 -8 0.55 0.92
14 -14 -8 -1.46 0.93
-14 14 8 0.69 1.37
8 14 14 -0.2 0.86
-8 14 14 -0.3 1.68
8 -14 -14 -0.52 1.44
-14 8 -14 -1.78 1.21
-14 8 14 1.11 1.58
-14 14 -8 0.85 1
-14 14 -8 0.12 1.44
14 14 -10 10.61 3.42
10 -14 -14 10.74 4.13
14 10 -14 14.13 4.1
10 14 14 11.2 3.07
14 -14 -10 5.29 2.61
14 -10 -14 4.98 2.74
-14 -14 10 3.93 1.69
-14 -10 14 8.93 3.43
-14 10 -14 7.96 2.26
-14 10 -14 4.76 3.25
-14 10 14 4.96 2.4
-14 14 -10 2.26 1.63
-14 14 10 8.43 3.11
-10 -14 -14 6.48 2.12
-10 -14 14 11.03 3.51
-10 14 -14 13.55 3.76
-10 14 -14 11.87 5.35
-10 14 14 16.91 5.14
10 14 -14 17.59 5.89
-14 -14 12 30.67 5.55
14 -12 -14 41.96 6.95
14 12 -14 52.15 7.26
14 14 -12 40.06 6.33
-12 14 14 53.81 8.6
12 -14 -14 48.98 7.8
12 14 -14 34.44 6.48
12 14 14 47.03 4.8
12 14 14 45.47 4.55
14 -14 -12 38.28 6.89
-14 14 12 44.22 7.67
-12 -14 14 51.49 6.83
-12 14 -14 54.93 6.83
-14 -12 14 30.05 5.82
-14 12 -14 52.63 6.24
-14 12 14 39.33 7.49
-14 14 -12 50.39 6.47
14 14 -14 5.66 2.25
-14 -14 14 4.18 1.69
-14 14 -14 3.82 2.16
-14 14 14 12.73 4.6
14 -14 -14 4.06 3.01
15 -1 -1 94.38 9.53
15 -1 1 98.34 9.39
15 1 -1 89.96 9.35
15 1 1 97.96 9.19
-1 15 -1 101.53 11
-1 15 1 100.95 10.78
-15 -1 1 92.35 9.62
-15 1 -1 100.62 9.59
-1 -1 -15 91.91 11.02
-1 -1 15 104.58 11.53
-1 1 -15 106.92 11.74
-1 1 15 110.62 11.69
-1 15 -1 83.95 10.51
-15 -1 -1 96.56 9.43
1 -1 -15 100.72 11.44
1 -1 15 101.8 11.47
1 1 -15 120.76 12.02
1 1 15 106.42 11.31
1 15 -1 88.93 10.49
1 15 1 98.95 10.61
-1 15 -3 1.06 1.15
-15 -1 -3 0.03 0.47
15 3 1 0.01 0.35
1 -3 15 1.26 1.23
-15 1 3 0.09 0.6
3 15 -1 2.02 1.43
-3 15 1 0.27 1.04
-3 15 1 2 1.59
-1 -3 -15 0.94 1.56
-15 -3 1 1.7 0.96
-15 3 -1 1.25 0.95
-1 3 15 0.76 1.34
1 3 -15 -0.34 1.23
-3 -1 15 0.75 1.22
-3 1 -15 1.17 1.22
3 15 -1 1.48 1.11
-1 15 -3 -0.9 0.83
1 15 3 -0.54 0.83
15 1 -3 0.63 0.78
1 15 3 1.6 1.28
15 -3 -1 0.8 0.9
3 -1 -15 0.95 1.2
-1 15 3 1.04 1.15
15 -3 1 0.86 0.76
15 3 -1 1.08 0.6
-15 -1 3 1.58 1.03
1 15 -3 1.31 1.41
-15 -3 -1 0.46 0.62
1 -3 -15 0.42 1.28
1 3 15 -0.21 0.91
-3 15 -1 0.37 1.09
-15 1 -3 1.16 0.73
-3 1 15 0.9 1.22
-3 15 -1 0.06 0.78
3 15 1 0.95 1.24
3 1 -15 1.08 1.43
1 15 -3 0.48 1.26
-3 -1 -15 0.81 1.03
-1 -3 15 0.25 1.65
-1 3 -15 0 1.26
-15 3 1 -0.16 0.52
15 -1 -3 0.21 0.7
15 3 -3 18.51 2.65
-15 -3 3 17.35 2.75
3 -3 -15 17.91 3.85
3 -3 15 19.6 3.81
-15 3 3 17.05 2.93
-3 -3 -15 11.31 3.36
-3 -3 15 14.76 4.34
-3 3 -15 10.76 3.75
-3 3 15 18.98 4.09
-3 15 -3 14.85 3.2
-3 15 -3 19.91 3.87
-3 15 3 15.25 3.35
3 15 -3 11.36 3.39
-15 3 -3 19.36 2.63
3 15 -3 15.74 3.4
3 -15 -3 15.47 4.17
3 3 -15 16.57 4.78
15 -3 -3 15.13 2.65
15 -5 -1 3.5 1.46
15 5 1 2.59 0.71
5 -1 -15 6.62 2.68
-15 1 5 1.5 1.27
-5 15 1 1.98 1.36
15 1 -5 3.46 1.45
-5 1 -15 1.42 1.25
-15 -1 -5 2.75 0.76
1 -5 15 2.43 1.96
-1 15 -5 2.51 1.79
1 -15 -5 2.4 1.5
-15 5 -1 2.69 1.32
-1 5 15 2.78 1.98
-15 -5 1 3.08 1.07
1 5 -15 2.11 2.01
5 1 15 2.77 1.67
-1 -5 -15 1.3 1.34
-1 15 -5 1.52 1.71
-15 -1 -5 2.03 0.69
-5 -1 15 4.45 2.2
-1 -5 15 2.02 1.82
-15 -5 -1 4 0.91
15 5 -1 2.32 0.91
5 15 1 1.56 1.29
15 -1 -5 2.07 1.1
5 1 -15 2.21 1.56
-1 15 5 1.52 1.48
-5 1 15 1.3 1.66
-15 -1 5 3.4 1.63
-15 1 -5 2.02 0.8
-15 1 -5 1.39 1.01
5 15 1 4.28 1.62
-5 15 -1 3.65 1.72
1 -5 -15 0.99 1.37
-1 -15 -5 1.48 1.14
-1 5 -15 1.66 2.12
1 15 -5 4.11 2.16
-15 5 1 0.22 0.68
-5 -1 -15 4.39 2.29
1 15 -5 2.28 1.91
-5 15 -1 2.03 1.99
15 -5 1 2.65 1.27
-5 15 3 11.07 3.14
3 -5 15 15.94 3.48
15 3 -5 13.48 2.38
5 3 15 15.8 4.02
15 -5 -3 13.12 2.53
-3 15 -5 16.41 4.29
-3 -5 -15 10.43 3.04
-3 15 -5 6.57 2.37
3 15 5 13.94 2.74
3 -15 -5 14.99 4.26
-15 5 -3 12.23 2.23
-15 -5 3 10.32 2.11
5 15 -3 14.95 3.12
-5 3 -15 8.3 2.9
3 5 -15 6.81 2.99
-5 -3 15 11.49 3.71
-3 5 15 12.06 3.64
5 -3 -15 11.96 3.45
-15 3 5 6.71 2.22
3 -5 -15 16.04 4.14
-15 -3 5 14.66 2.68
-3 15 5 8.63 2.79
-15 3 -5 12.8 2.3
-15 5 3 18.16 2.95
-5 15 -3 4.14 3.05
15 5 -3 12.32 2.11
-5 15 -3 12.57 3.41
-5 -3 -15 16.5 4.24
3 15 -5 8.38 3
-5 3 15 11.84 4.37
5 3 -15 19.14 4.02
5 15 3 15.62 2.82
-15 3 -5 12.34 2
-3 5 -15 10.27 3.85
5 -15 -3 18.81 4.39
5 15 3 17.47 2.84
-3 -5 15 13.76 4.01
3 5 15 15.86 3.39
5 5 15 26.55 4.28
-5 15 5 28.31 4.44
-15 5 -5 19.8 2.99
5 -5 -15 21.42 4.42
-5 15 -5 34.83 5.29
5 -5 15 29.46 4.69
-15 -5 5 23.8 3.54
5 -15 -5 28.53 4.49
15 -5 -5 26.34 3.72
15 5 -5 18.75 3.16
5 5 -15 19.5 4.44
-5 5 -15 28.05 4.96
-5 5 15 25.98 4.95
-5 15 -5 18.88 3.76
5 15 5 20.8 3.43
5 15 5 19.53 3.37
-5 -5 -15 21.99 3.94
-5 -5 15 22.68 4.49
5 15 -5 16.03 3.71
-15 5 -5 21.41 3.53
-15 5 5 26.54 4.02
1 -15 -7 25.98 4.36
7 15 -1 20.55 3.72
-7 -1 15 27.06 4.97
-15 7 -1 26.06 3.77
15 1 -7 28.28 3.96
15 -7 -1 25.44 3.81
-15 -1 -7 28.02 2.68
7 1 15 23 4.1
-7 15 1 24.48 4.38
-1 15 -7 31.49 5.28
-1 -7 -15 35.45 5.11
-15 -1 -7 26.34 2.57
-15 1 7 21.19 4.01
-15 -7 1 20.85 3.62
1 -7 15 28.64 4.95
15 7 1 25.28 2.63
-1 7 15 31.88 5.31
1 7 -15 26.89 6.29
7 15 -1 30.82 4.24
-7 1 -15 26.15 4.67
7 -1 -15 27.77 4.94
7 15 1 27.19 4
1 15 -7 19.87 4.54
-15 1 -7 26.74 3.08
-1 15 7 26.25 4.48
7 15 1 32.35 4.15
15 -7 1 25.33 3.69
-7 1 15 27.5 5
-1 -7 15 21.91 4.61
-15 -7 -1 23.14 2.6
15 -1 -7 27.96 4.03
1 -7 -15 31.24 5.07
7 1 -15 30.5 5.27
-1 7 -15 21.54 4.77
15 7 -1 25.44 3.14
-15 1 -7 25.43 3.26
7 -1 15 34.02 4.79
-1 -15 -7 31.24 4.58
-15 -1 7 20 3.91
-15 7 1 32.46 4.26
-7 15 -1 17.21 4
-7 15 -1 37.01 5.39
-7 -1 -15 26.22 4.34
3 -15 -7 -0.01 0.95
3 15 7 -0.48 0.77
-15 7 -3 0.21 0.65
3 -7 15 0.78 1.09
-3 15 -7 0.13 1.37
-15 -7 3 0.09 0.56
-7 -3 15 -1.55 0.82
-7 3 -15 0.1 1.37
7 -3 -15 -1.72 0.9
-3 7 15 -1.29 0.89
-3 -15 7 0.24 1.19
15 3 -7 0.09 0.88
3 7 -15 0.42 1.43
-3 -7 -15 0.46 1.05
-7 15 3 0.48 1.22
15 -7 -3 0.79 0.9
7 15 -3 1.24 1.21
-15 3 7 0.93 1.07
7 3 15 -0.64 0.78
-3 15 -7 0.07 0.81
7 15 -3 0.5 0.96
-3 -7 15 0.6 1.41
7 15 3 0.32 0.73
-15 3 -7 -0.34 0.66
15 -3 -7 0 0.77
-15 -3 7 0.14 1.06
-7 3 15 0.73 1.5
-3 7 -15 0.61 1.6
7 15 3 -0.13 0.69
-7 15 -3 -0.17 1.15
-15 7 3 1.52 0.98
-7 -3 -15 -0.68 0.61
-15 3 -7 -0.17 0.5
-3 15 7 -0.31 1.13
-3 -15 -7 0.08 0.73
3 7 15 0.27 1.21
-7 15 -3 1.05 1.16
7 -3 15 1.63 1.25
3 -7 -15 0.97 1.61
15 7 -3 0.04 0.56
7 -15 -3 -0.94 0.79
-15 7 -5 0.21 0.9
7 15 -5 -0.04 0.88
-15 7 -5 -0.36 0.61
-7 5 -15 0.51 0.9
-5 15 -7 -0.32 1.01
-5 -15 7 1.27 1.39
-5 15 -7 0.04 0.88
5 15 7 0.53 0.92
-7 -5 15 -1.29 1.07
15 -7 -5 1.87 1.43
15 5 -7 0.17 0.71
-7 15 5 -0.5 0.91
-5 -7 -15 1.59 1.32
7 -5 -15 0.41 1.23
-15 5 7 1.49 1.5
-5 7 15 0.68 1.24
5 -7 15 1.04 1.32
5 7 -15 1.29 1.58
5 -15 -7 -0.25 1.1
7 5 15 1.85 1.27
15 7 -5 0.28 0.7
-15 5 -7 -0.48 0.48
-15 7 5 -0.73 0.6
-7 15 -5 -0.39 1.06
-7 5 15 1.37 1.77
7 -15 -5 0.6 1.07
-5 -7 15 1.55 1.62
-5 7 -15 0.06 1.18
5 -7 -15 0.4 1.18
-7 -5 -15 1.24 1.08
7 15 5 0.76 0.99
5 7 15 0.68 1.23
-5 15 7 -0.41 1.14
-7 15 -5 0.98 1.31
-7 -15 5 1.42 1.23
-15 -5 7 -0.14 1
-15 5 -7 0.85 1.16
7 15 5 -0.17 0.9
15 -5 -7 -0.61 0.58
5 15 -7 -0.17 1.19
-15 7 -7 39.53 5.95
-15 7 7 39.76 6.03
-7 15 -7 49.06 6.35
-7 15 -7 43.74 6.95
-7 15 7 50.99 7.02
7 -15 -7 46.26 6.67
7 -7 -15 45.97 6.84
7 -7 15 45.72 6.66
7 7 -15 50.45 7.22
7 7 15 46.22 6.06
7 15 7 42.41 5.29
-15 7 -7 40.53 5.22
-7 -15 7 42.9 5.87
-7 -7 -15 42.6 5.61
-7 -7 15 39.99 6.73
15 -7 -7 42.55 5.86
-15 -7 7 44.72 5.69
15 7 -7 35.98 5.37
7 15 7 56.73 6.07
-7 7 -15 46.79 7
-7 7 15 45.61 7.38
7 15 -7 53.09 6.69
15 1 -9 47.24 5.98
-1 9 15 48.89 7.19
1 -15 -9 48.24 6.59
15 9 1 42.92 4.36
1 -9 15 54.73 7.27
-15 -1 -9 44.36 4.2
-9 -1 15 38.24 6.62
-1 -9 -15 45.27 6.39
-1 -15 9 34.98 6.37
-1 15 -9 38.17 6.73
-15 1 9 34.6 5.76
-15 -9 1 47.6 5.41
9 -1 -15 45.49 6.67
-9 15 1 38.38 6
1 9 -15 51.4 7.45
-15 9 -1 44.17 5.73
9 15 -1 45.63 5.8
9 15 -1 45.1 5.69
15 9 1 52.61 4.61
9 1 15 48.66 5.95
15 -9 -1 46.01 5.7
-15 -1 -9 44.45 4.33
-9 1 -15 44.44 6.35
-9 1 15 48.99 7.16
-9 -1 -15 46.54 6.03
-1 15 9 43.46 6.52
-1 9 -15 45.94 7.15
9 -15 -1 36.82 5.93
-15 -1 9 48.05 6.3
-15 1 -9 48.48 4.69
-15 1 -9 45.57 5.15
9 -1 15 46.18 5.98
-9 15 -1 46.28 6.66
15 9 -1 44.9 4.86
1 -9 -15 51.2 6.98
9 1 -15 54.31 9.14
9 15 1 48.6 5.78
-9 15 -1 35.37 5.86
15 -9 1 41.78 5.54
1 -15 9 42.7 6.27
1 15 -9 51.34 7.37
-1 -9 15 46.63 6.91
-1 -15 -9 34.84 5.83
-15 9 1 46.27 5.9
15 -1 -9 44.39 5.88
-15 3 9 3.85 1.91
-15 -9 3 7.57 2.04
-3 9 15 5.36 2.96
-3 -9 -15 6.08 2.22
-3 15 -9 6.68 3.18
-3 -15 9 5.06 1.88
3 -15 -9 8.75 3.13
15 3 -9 5.02 2.2
3 9 -15 10.13 3.95
15 -9 -3 8.92 2.68
-15 9 -3 9.36 2.7
3 15 9 8.5 2.82
3 -9 15 9.04 3.44
-9 3 -15 7.66 2.82
-15 9 -3 3.75 2.03
-9 -3 15 2.25 2.38
9 -3 -15 5.68 2.47
-9 15 3 4.49 2.18
9 15 -3 5.39 1.93
-3 -15 -9 8.93 2.71
-3 15 9 3.07 1.92
3 -9 -15 12.78 4.51
-9 15 -3 9.1 3.31
9 3 -15 2.06 1.95
-15 9 3 4.47 1.95
-9 -3 -15 2.49 1.44
9 15 3 5.29 1.87
9 15 3 10.16 1.93
-3 9 -15 7.94 3.35
15 9 -3 4.57 1.61
15 -3 -9 6.57 2.05
3 15 -9 9.41 3.6
-9 3 15 7.84 3.5
-3 -9 15 6.8 2.77
-15 3 -9 4.1 1.72
-9 15 -3 5.67 2.47
-15 -3 9 6.11 2.49
9 -3 15 4.61 2.19
9 -15 -3 8.24 3
-15 3 -9 6.89 1.5
3 9 15 8.16 2.92
15 5 -9 17.3 3.11
-5 -15 9 22.29 3.92
-5 15 -9 16.52 4.35
5 15 9 18.92 3.54
5 9 -15 21.66 5.72
5 -15 -9 20.34 4.07
-9 5 -15 27.39 4.78
-15 9 -5 14.62 2.97
-5 9 15 21.04 4.51
-15 5 9 18.72 3.62
-15 9 -5 11.48 3.52
15 -9 -5 16.79 3.34
-5 -9 -15 18.32 3.34
-5 15 -9 15.55 4.46
9 -5 -15 23.73 4.6
-9 15 5 18.68 3.95
-15 -9 5 17.42 2.9
9 5 15 17.13 3.19
9 15 -5 16.53 3.45
5 -9 15 24.68 5.79
-9 -5 -15 17.17 3.01
-9 15 -5 11.35 3.4
5 -9 -15 23.36 4.49
15 -5 -9 17.19 3.28
-5 -9 15 13.29 3.93
-5 15 9 18.86 4.11
5 9 15 19.66 3.72
-9 -15 5 17.49 3.26
-15 -5 9 17.48 3.49
9 15 5 18.16 3.11
9 15 5 18.57 2.75
-5 -15 -9 14.67 3.17
-15 9 5 17.09 3.51
9 5 -15 21.15 4.23
-9 15 -5 13.33 4.25
-15 5 -9 18.26 2.76
-15 5 -9 17.08 3.38
-9 5 15 13.65 4.13
-5 9 -15 17.32 5.17
9 -5 15 11.99 3.47
9 -15 -5 15.75 3.58
5 15 -9 29.2 4.8
15 9 -5 21.59 3.14
-7 9 15 59.17 8.28
-9 -7 15 69.41 10.55
7 -15 -9 47.01 7.3
-9 7 -15 59.13 8.07
7 9 -15 49.88 7.79
9 7 15 53.23 6.4
15 -9 -7 59.95 7.11
-7 -9 -15 56.41 6.47
9 -7 -15 62.76 8.06
9 15 -7 41.17 6.47
-7 -15 9 44.17 6.55
-15 7 9 56.95 7.33
-7 15 -9 63.71 7.51
-9 15 7 53.73 7.59
-15 9 -7 46.7 7.15
-7 15 -9 67.07 8.68
7 -9 15 51.83 7.8
-7 9 -15 47.87 8.01
7 -9 -15 53.37 7.65
9 7 -15 49.06 7.53
9 -15 -7 53.01 7.45
-7 15 9 56.54 7.91
9 15 7 56.96 6.33
-15 9 7 62.84 7.34
-9 7 15 53.29 8.02
-15 -7 9 42.45 6.36
-15 7 -9 49.92 6.9
7 15 -9 70.61 8.04
-9 -15 7 55.1 6.72
-9 15 -7 48.77 6.81
-7 -9 15 34.97 6.68
-15 7 -9 58.08 6.19
-9 -7 -15 57.31 6.19
15 9 -7 42.28 6.08
9 15 7 47.6 5.69
15 -7 -9 48.33 6.64
15 -9 -9 65.7 8.95
9 15 9 80.75 8.49
9 15 -9 56.42 8.79
-9 -15 9 73.6 8.96
9 -9 -15 75.79 9.96
-9 -9 15 90.05 10.07
-9 9 15 61.04 9.77
-9 15 -9 63.41 10.09
-15 9 -9 71.92 9.71
-15 9 9 70.18 9.37
-9 9 -15 77.04 10.77
9 15 9 90.3 8.18
9 9 -15 89.63 12.06
-15 9 -9 82.07 8.56
15 9 -9 101.76 10.03
9 9 15 79.01 8.59
-9 15 9 67.71 9.84
-15 -9 9 93.99 9.24
9 -15 -9 79.11 10
-9 -9 -15 81.01 8.32
15 11 1 5.97 1.19
-15 11 -1 9.25 2.83
-11 15 1 6.85 2.76
-15 1 11 9.4 3.16
-1 11 15 4.93 2.15
-11 1 -15 10.81 3.26
11 15 -1 3.37 1.55
11 -1 -15 5.66 2.46
15 1 -11 14.18 3.65
-15 -1 -11 6.27 1.43
15 -11 -1 9.9 2.97
1 -11 15 7.37 3.09
-1 -11 -15 6.27 2.33
-1 -15 11 4.51 2.46
1 11 -15 6.42 3.21
1 -15 -11 6.05 2.7
-15 -11 1 5.64 1.95
-1 15 -11 18.09 5.46
15 11 1 6.55 1.26
11 15 -1 9.8 2.61
11 1 15 4.57 1.9
-15 -1 -11 6.19 1.02
-11 -1 15 4.8 2.62
15 -1 -11 7.86 2.91
-1 15 11 2.53 1.83
1 -11 -15 5.52 2.47
-11 15 -1 7.87 3.26
-1 -11 15 6.89 3.2
-15 -1 11 2.53 1.72
11 -1 15 5.72 2.48
1 15 -11 6.26 2.98
11 15 1 5.61 1.97
-11 -1 -15 9.78 2.66
15 -11 1 6.95 2.38
15 11 -1 8.9 2.04
-11 1 15 2.21 2.22
-15 1 -11 6.94 1.33
-15 11 1 4.66 2.08
-1 11 -15 8.93 3.75
-11 15 -1 4.77 2.95
-1 -15 -11 4.2 2.17
1 -15 11 11.6 3.97
-15 1 -11 9.36 2.27
11 -15 -1 4.78 2.36
3 -11 15 16.48 4.39
-15 3 11 8.88 3.16
-3 15 -11 17.79 5.7
3 11 -15 13.15 4.31
-3 -15 11 15.41 4.22
3 -15 -11 13.66 3.96
-11 3 -15 13.76 3.89
-15 -11 3 15.38 2.46
-15 11 -3 15.09 3.03
-15 11 -3 21.44 5.36
-3 11 15 10.88 4.19
15 -11 -3 17.1 4.04
11 3 15 12.17 2.44
-3 -11 -15 16.82 3.48
15 3 -11 18.99 3.41
11 15 -3 14.06 2.97
-11 -3 15 22.23 4.65
3 15 11 19.86 3.97
11 -3 -15 16.63 4.6
-11 15 3 10.22 3.12
11 15 3 15.85 2.6
-15 3 -11 15.71 2.33
11 -15 -3 9.85 3.17
-3 15 11 11.97 4
11 15 3 15.13 2.53
-15 -3 11 14.93 3.78
-11 -3 -15 14.81 2.68
-15 3 -11 13.91 2.9
3 -15 11 12.02 3.48
3 11 15 21.39 5.4
11 -3 15 14.07 3.12
-11 3 15 10.55 3.91
-3 -15 -11 14.6 4.13
-3 11 -15 17.75 5.3
15 11 -3 15.07 2.66
3 15 -11 19.9 5.34
15 -3 -11 12.61 3.47
-11 15 -3 11.39 3.84
-3 -11 15 16.25 4.67
11 3 -15 8.43 3.18
-15 11 3 18.56 3.59
-11 15 -3 15.79 3.39
3 -11 -15 21.48 5.21
5 -15 -11 11.25 3.71
-5 11 15 9.73 3.79
-11 -5 15 10.55 3.8
-11 5 -15 13 3.97
5 11 -15 14.96 4.45
5 15 11 12.73 3.48
11 -5 -15 19.99 4.28
-5 15 -11 14.42 4.41
5 -11 15 6.92 2.92
11 5 15 13.57 2.27
-5 -11 -15 13.79 2.96
15 -11 -5 7.15 2.48
-11 15 5 13.3 4.2
-15 -11 5 14.51 2.57
-15 11 -5 12.24 3.04
-15 11 -5 17.49 4.74
11 15 -5 9.68 2.85
15 5 -11 17.2 4.31
-15 5 11 15.03 4.3
-5 -15 11 18.28 4.47
-11 15 -5 11.91 3.79
15 11 -5 17.71 3
11 -15 -5 8.24 2.83
15 -5 -11 11.93 3.51
5 -11 -15 17.71 4.9
11 5 -15 7.67 2.94
-11 5 15 9.65 3.35
5 11 15 9.94 3.33
-11 15 -5 13.86 3.8
11 -5 15 11.94 3.68
11 15 5 11.08 2.05
11 15 5 9.68 1.94
-5 11 -15 21.82 5.92
5 15 -11 11.22 3.78
-5 -15 -11 17.1 3.09
-11 -5 -15 13.92 2.38
-15 5 -11 6.5 1.98
-15 -5 11 14.43 3.16
-5 -11 15 4.89 2.69
-15 5 -11 15.26 3.18
-11 -15 5 14.7 2.78
-15 11 5 7.68 3.06
-7 -15 11 0.08 1.13
7 -15 -11 -1.37 0.94
7 -11 15 1.18 1.55
-11 7 -15 0.74 1.42
-7 -11 -15 -0.39 0.82
-7 11 15 -1.66 1.36
-11 -7 15 1.08 1.64
-7 15 -11 0.91 1.18
15 -11 -7 -1.37 0.85
-7 15 -11 -0.02 1.48
-15 11 -7 0.06 0.75
-11 15 7 -0.78 0.76
7 11 -15 -1.01 1.22
-15 -11 7 0.12 0.88
11 15 -7 0.54 1.33
11 7 15 1.23 0.84
-15 11 -7 -0.98 0.5
15 7 -11 0.17 1.06
11 -7 -15 -0.64 1.09
-7 11 -15 0.01 2.03
-15 7 -11 -0.34 0.95
11 15 7 -0.25 0.68
-7 -11 15 3.69 1.88
11 -15 -7 -1.41 0.86
11 15 7 0.04 0.54
-7 15 11 -1.41 0.95
-11 15 -7 2.79 1.86
15 11 -7 -0.66 0.94
15 -7 -11 0.57 1.06
7 -11 -15 -1.8 0.87
7 11 15 1.45 1.67
-7 -15 -11 0.01 0.81
-15 -7 11 -0.68 0.85
11 -7 15 0.54 1.52
-15 11 7 -1.2 1.32
-11 -7 -15 -0.55 0.52
-11 7 15 2.37 2.1
-11 -15 7 1.76 1.24
-11 15 -7 -1.01 0.62
-15 7 -11 -0.25 0.45
7 15 -11 -0.93 1.05
11 7 -15 0.83 1.41
11 9 15 10.29 1.82
-9 -11 -15 10.85 2.67
-11 15 9 5.18 2.63
-9 15 -11 8.55 3.02
15 -11 -9 11.11 3.92
-15 -11 9 5.58 2.39
9 -11 15 3.03 2.27
9 15 11 9.67 2.7
11 -9 -15 6.44 2.81
-11 9 -15 6.95 2.86
9 -15 -11 5.33 2.31
9 11 -15 5.11 2.88
-15 11 -9 10.7 3.07
-15 11 -9 7.21 2.76
-9 -15 11 5.96 2.31
-11 -9 15 3.52 2.83
-9 15 -11 7.1 4.16
-15 9 11 3.34 2.3
11 15 -9 11.02 3.03
15 9 -11 10.44 3.24
-9 11 15 8.61 3.53
11 15 9 7.55 1.53
9 -11 -15 7.36 2.91
-9 -11 15 9.47 3.73
-11 15 -9 9.7 3.36
9 11 15 9.83 2.84
-11 15 -9 4.73 2.85
-15 9 -11 7.74 2.35
-15 9 -11 9.26 4.05
-11 9 15 12.52 4.33
11 9 -15 5.46 2.49
-15 11 9 4.47 2.51
-11 -9 -15 7.31 1.51
-15 -9 11 6.29 2.21
-9 11 -15 9.48 3.62
15 -9 -11 12.82 3.83
9 15 -11 10.65 3.66
15 11 -9 6.71 2.93
11 -15 -9 5.63 2.64
11 15 9 8.06 1.66
-9 15 11 3.84 2.41
-11 -15 9 7.93 2.51
11 11 15 1.89 1.12
-15 11 11 3.64 2.12
11 -15 -11 3.93 1.73
11 -11 -15 3.75 1.8
-11 15 11 1.56 2.03
-15 11 -11 3.89 2.48
-11 15 -11 -2.54 1.78
-11 11 15 1.92 1.56
15 -11 -11 1.45 1.64
11 11 -15 2.75 4.46
-11 -15 11 1.78 1.44
-11 -11 -15 3.14 1.06
-11 -11 15 2.36 2.3
11 15 -11 0.48 1.15
11 15 11 3.04 1.37
11 15 11 2.25 1.05
-11 15 -11 1.33 1.47
-11 11 -15 0.19 0.95
-11 11 -15 2.32 2.08
-15 -11 11 3.88 2.01
-15 11 -11 0.79 1.1
15 11 -11 0.81 1.41
-1 -15 13 0.43 1.45
15 1 -13 0.04 1.32
-1 -13 -15 -0.48 0.88
13 15 -1 0.39 0.82
15 13 1 0.1 0.57
-15 13 -1 -0.66 0.77
1 -13 15 1.52 1.59
13 1 15 1.19 1.01
13 15 -1 0.3 0.94
1 -15 -13 -0.79 0.7
15 13 1 0.38 0.58
1 13 -15 0.76 1.68
-15 -1 -13 0.6 0.55
-15 -1 -13 1.1 0.77
-1 13 15 -0.41 0.93
-13 15 1 -0.04 0.72
-15 1 13 -0.7 1.05
-13 -1 15 -0.71 1.39
13 -1 -15 -1.41 1.28
15 -13 -1 0.7 1.31
-13 1 -15 0.14 0.84
-1 15 -13 1.55 1.91
-13 -1 -15 -1.1 0.49
1 -15 13 1.09 1.49
15 13 -1 0.01 0.47
15 -1 -13 -0.96 0.76
1 15 -13 2.04 1.89
-1 13 -15 1.22 2.19
-13 1 15 0.99 1.28
-1 -15 -13 0 0.7
1 -13 -15 2.65 1.94
13 15 1 0.19 1.12
-1 15 13 -0.63 0.91
13 -1 15 0.49 0.74
13 -15 -1 0.3 1.05
13 1 -15 1.77 2.01
13 15 1 -0.58 0.58
15 13 -1 0.53 0.86
-15 1 -13 -0.64 0.83
-13 15 -1 0.54 1.52
-15 -1 13 -1.43 1.24
-15 1 -13 0.24 0.58
-15 13 1 -0.9 0.97
-1 -13 15 0.72 1.72
15 -13 -3 46.04 5.95
13 15 -3 34.01 5
3 13 -15 32.04 6.46
-3 13 15 45.76 7.75
-15 3 13 41.53 6.43
-13 3 -15 37.52 5.87
-13 -3 15 36.27 6.1
15 13 3 35.4 3.75
-3 -13 -15 45.78 7.03
-13 15 3 41.9 6.23
-3 -15 13 40.99 6.25
-15 -13 3 41.72 4.81
-15 13 -3 33.45 5.3
13 3 15 38.92 4.52
15 3 -13 43.28 6.01
3 15 13 44.38 6.59
13 -3 -15 41.51 6.28
15 13 3 38.91 3.79
3 -13 15 50.93 7.32
3 -15 -13 42.19 6.89
-3 15 -13 44.77 7.66
3 -15 13 24.98 5.87
3 15 -13 37.2 6.7
-15 3 -13 39.72 4.55
-15 3 -13 38.39 5.54
-13 15 -3 53.43 6.4
-13 15 -3 45.83 7.05
-3 -13 15 28.41 5.92
-15 13 3 40.04 5.98
-3 13 -15 33.35 6.96
-3 -15 -13 41.69 6.59
13 15 3 39.33 4.49
15 -3 -13 41.17 6.03
-13 3 15 36.07 6.42
13 3 -15 44.9 6.44
13 -15 -3 33.61 5.81
-3 15 13 45.45 7.43
13 15 3 36.83 4.51
3 13 15 45.01 6.71
15 13 -3 36.23 4.9
-15 -3 13 39.67 6.01
3 -13 -15 37.33 6.92
-13 -3 -15 43.08 4.7
-15 13 -5 45.6 5.68
-5 -15 13 37.18 5.8
-15 -13 5 28.59 4.55
-5 15 -13 40.4 7.41
13 5 15 38.2 4.13
-13 -5 15 32.14 5.82
5 15 13 43.91 6.38
-13 5 -15 41.49 7.67
15 -13 -5 38.51 5.77
-15 5 13 34.95 6.2
-5 13 15 39.48 7.17
-13 15 5 41.25 6.32
5 13 -15 40.79 6.96
15 5 -13 31.2 5.5
-15 13 -5 37.06 6.51
5 -13 15 45.63 8.9
13 15 -5 41.11 5.37
13 -5 -15 41.58 6.36
-13 15 -5 34.85 6.72
13 5 -15 35.79 6.06
-15 13 5 36.85 5.9
-15 -5 13 28.29 5.58
15 -5 -13 37.22 5.96
-13 5 15 38.25 6.46
-15 5 -13 39.59 6.04
-13 -15 5 45.89 5.23
-5 15 13 46.19 7.27
-15 5 -13 41.63 4.73
13 15 5 34.86 4.14
-5 -13 15 46.29 6.53
-5 13 -15 43.54 7.72
-13 15 -5 37.57 5.7
5 -13 -15 32.53 9.3
5 15 -13 26.43 5.73
5 13 15 30.38 5.7
13 -15 -5 31.76 5.62
-13 -5 -15 40.45 4.12
13 15 5 39.28 4.26
15 13 -5 36.73 5.06
-7 13 15 9.72 4.37
-13 15 7 7.13 2.86
-15 -13 7 5.37 1.97
-7 15 -13 1.65 2.05
15 7 -13 3.78 2.07
13 15 -7 6.69 2.6
-13 7 -15 3.12 1.71
-13 7 -15 1.76 2.2
-15 13 -7 1.96 1.5
7 13 -15 3.59 2.5
-15 13 -7 2.09 2.36
-13 -7 15 4.86 2.42
7 -13 15 8.44 3.75
7 -15 -13 1.13 1.75
-7 -15 13 1.54 1.56
13 -7 -15 3.1 2.18
15 -13 -7 2.75 2.12
7 15 13 1.66 1.45
13 7 15 3.18 0.86
-15 7 13 4.92 2.27
13 7 -15 3.38 2.24
13 15 7 3.94 1.07
13 -15 -7 0.5 1.81
-7 -13 15 1.33 1.62
-15 7 -13 2.81 1.39
7 15 -13 5.7 3.46
13 15 7 4.36 1.16
-7 15 13 4.85 3.04
7 -13 -15 0.6 1.88
-13 -15 7 3.82 1.71
7 13 15 1.04 0.99
-13 -7 -15 2.87 0.83
-15 -7 13 1.46 1.61
-15 13 7 2.33 1.89
-15 7 -13 1.41 1.79
15 -7 -13 4.34 2.42
15 13 -7 3.6 1.65
-13 15 -7 4.6 1.98
-13 15 -7 5.58 2.59
-13 7 15 4.38 3.09
-7 13 -15 4.34 2.58
9 -15 -13 -0.52 1.49
13 -9 -15 1.77 1.72
15 9 -13 -0.02 1.2
-15 9 13 1.21 1.43
-15 13 -9 -2.11 1.15
-9 13 15 -0.95 1.93
-13 15 9 0.57 1.58
-13 9 -15 1.14 0.87
9 13 -15 0.21 1.64
-13 -9 15 0.44 1.23
-15 -13 9 0.62 0.87
-15 13 -9 -0.27 0.81
15 -13 -9 1.8 1.52
9 15 13 0.17 1.13
13 15 -9 -0.04 1.09
-9 15 -13 -0.6 2
-9 15 -13 -0.35 1.09
-13 9 -15 -2.59 1.23
-9 -13 15 -0.58 1.25
-13 -15 9 0.87 0.96
9 15 -13 -0.66 1.22
-13 9 15 -0.28 1.89
15 13 -9 -0.79 1.83
-13 15 -9 2.21 2.29
13 15 9 0.44 0.46
-9 15 13 0.24 1.99
-15 -9 13 1.57 1.38
-15 9 -13 0.93 0.99
15 -9 -13 -0.33 1.24
-15 9 -13 -0.26 1.3
9 -13 -15 2.95 1.96
-13 15 -9 0.44 1
13 9 -15 1.44 1.99
-9 13 -15 1.25 1.87
13 -15 -9 0.55 0.99
-15 13 9 1.58 1.42
9 13 15 -0.69 1.06
-11 -15 13 25.71 4.81
-15 13 -11 24.63 4.26
-15 11 13 15.74 4.66
-13 11 -15 25.33 4.3
-15 -13 11 30.57 4.6
-11 13 15 32.9 6.58
11 -15 -13 25.3 5.49
11 13 -15 30.13 5.65
11 15 13 13.77 4.53
13 15 -11 24.86 4.7
13 -11 -15 21.15 5.45
15 11 -13 28.48 4.96
15 -13 -11 20.89 4.7
-11 -13 -15 24.2 3.35
-13 -11 15 27.5 4.65
-11 15 -13 28.64 4.57
11 15 13 27.59 3.18
-13 15 11 22.29 5.02
-13 -15 11 27.18 4.52
-15 -11 13 25.07 4.52
-11 15 13 22.33 6.54
11 -13 -15 30.29 5.9
13 -15 -11 25.03 5.21
-15 11 -13 22.95 3.99
15 -11 -13 31.82 5.36
13 11 -15 24.79 5.12
15 13 -11 23.98 4.53
-15 13 11 16.84 4.93
-11 -13 15 26.32 5.02
-11 13 -15 27.32 4.68
-13 11 15 26.94 5.32
-13 15 -11 22.77 4.48
-13 13 15 53.36 13.67
13 -15 -13 27.93 5.63
-13 -13 15 27.16 5.09
-15 -13 13 27.11 4.8
-15 13 13 34.22 6.6
-13 -15 13 28.98 5.02
13 -13 -15 29.13 5.72
13 15 -13 36.54 5.88
15 -13 -13 27.52 5.58
15 13 -13 23.07 4.88
-13 13 -15 33.32 4.97
-13 15 13 39.74 7.8
-13 15 -13 30.66 5.02
-15 -1 -15 47.61 5.27
-15 -1 -15 39.9 4.62
-15 1 15 48.17 7.19
-15 15 -1 42.78 7.36
-15 15 -1 37.42 7.03
-15 15 1 50.59 6.81
-1 -15 -15 34.1 6.42
-1 -15 15 38.94 6.87
-1 15 -15 64.85 9.37
1 -15 -15 61.92 8.38
1 -15 15 57.33 8.11
1 15 -15 46.26 7.73
1 15 15 61.07 12.11
15 -15 -1 37.06 6.06
-15 1 -15 39.95 5.68
15 -1 -15 48.72 6.95
15 15 -1 45.5 5.5
15 15 -1 42.5 6.25
15 15 1 50.8 5.23
15 15 1 44.92 5.14
-15 -1 15 50.94 7.51
-15 1 -15 46.29 5.04
-15 3 -15 4.3 1.48
-15 3 15 1.05 1.72
-15 15 -3 2.35 1.54
-15 15 -3 10.23 3.44
15 15 3 5.63 1.4
-15 15 3 5.09 2.67
-3 -15 -15 8.44 3.54
15 15 -3 6.54 2.22
15 15 3 4.25 1.22
-15 -3 -15 4.14 1.08
-15 -3 15 5.61 2.46
-3 -15 15 3.55 2.54
-3 15 -15 7.11 4.86
-3 15 15 4.51 3.46
3 -15 -15 6.7 3.22
3 -15 15 0.19 2.03
3 15 -15 5.01 2.61
-15 -3 -15 4.33 0.86
3 15 15 2.79 2.17
15 -15 -3 3.09 2.09
15 -3 -15 2.83 1.99
15 3 -15 4.42 2.12
5 15 15 0.88 1.64
15 -15 -5 4.02 1.97
-15 -15 5 2.44 1.42
-15 -5 15 5.59 2.12
5 15 -15 -0.13 1.82
-15 5 -15 0.87 0.88
-15 5 -15 1.28 1.62
-15 5 15 0.3 1.73
-15 15 -5 1 1.27
-15 15 -5 1.73 1.9
-15 15 5 4.1 2.24
-5 -15 -15 -0.47 1.06
-5 -15 15 1.7 1.71
-5 15 -15 6.31 3.91
-5 15 15 1.7 1.86
5 -15 -15 0.76 2.3
5 -15 15 7.09 3.26
15 5 -15 4.56 2.55
15 15 -5 3.74 1.87
15 -5 -15 5.44 2.2
-15 15 -7 5.78 2.1
-15 7 -15 25.05 4.86
-15 7 15 16.98 4.19
-15 -15 7 6.11 2.22
-15 -7 15 5.37 2.23
-15 7 -15 9.95 2.6
15 15 -7 14.3 3.07
-15 15 7 11.87 3.96
-7 -15 -15 9.27 2.87
-7 -15 15 12.69 4.05
-7 15 -15 19.3 6.67
-7 15 15 7.34 3.45
7 -15 -15 21.2 5.82
7 15 -15 23.27 6.38
7 15 15 13.66 4.39
15 -15 -7 11.96 3.39
15 -7 -15 11.34 3.53
15 7 -15 19.88 4.98
-9 -15 15 25.5 5.11
-15 -15 9 30.88 4.79
-15 -9 15 26.16 5.23
-15 9 15 26.43 6.18
-15 15 -9 30.44 5.04
-15 15 9 36.61 6.49
-9 -15 -15 32.52 4.71
9 -15 -15 31.21 6.58
9 15 -15 38.24 6.56
9 15 15 38.16 5.27
15 -15 -9 40.57 6.27
15 -9 -15 37.83 5.95
15 9 -15 45.22 6.49
15 15 -9 30.71 5.07
-9 15 -15 35.15 5.7
-9 15 15 34.36 7.39
-15 11 -15 1.51 1.48
-15 15 -11 1.96 1.43
11 -15 -15 4.26 3.63
-15 -15 11 0.94 1.19
-15 -11 15 3.46 2.68
-11 15 -15 1.52 1.59
15 15 -11 3.13 2.13
-11 -15 15 0.2 1.15
15 -11 -15 2.82 1.78
11 15 -15 0.25 1.82
11 15 15 1.99 1.34
15 -15 -11 2.21 1.95
15 11 -15 2.65 1.44
-15 -13 15 -2.88 1.32
15 13 -15 1.29 1.7
15 -13 -15 -0.07 1.79
-13 15 -15 0.83 1.08
13 15 -15 2.57 2.26
15 -15 -13 -2.65 1.35
-15 15 13 -0.76 2.22
-13 -15 15 -2.08 1.27
-15 -15 13 -0.46 1.42
-15 15 -13 0.05 1.76
-15 13 -15 -1.61 0.9
-15 13 15 -2.68 1.61
-15 -15 15 24.06 5.13
0 0 -16 299.95 29.71
0 0 16 307.96 29.9
0 16 0 345.48 29.45
0 16 0 330.71 29.35
16 0 0 297.18 27.47
-16 0 0 289.17 27.65
-16 0 2 81.55 8.69
-2 16 0 103.21 10.18
-16 0 -2 85.64 8.2
0 -2 -16 93.12 10.54
0 -2 16 83.43 10.32
0 2 -16 106.07 11.22
0 2 16 78.98 10.12
2 16 0 76.96 9.35
-16 -2 0 89.03 8.35
-16 2 0 86.11 8.59
-2 0 -16 85.07 10.21
-2 0 16 89.91 10.41
0 16 -2 71.28 9.3
0 16 -2 62.95 9.31
0 16 2 72.6 9.33
0 16 2 80.59 9.47
2 0 -16 77.33 10.09
2 0 16 74.29 9.89
16 -2 0 90.34 8.46
16 2 0 76.73 7.94
16 0 2 84.09 8.01
16 0 -2 91.48 8.5
-2 16 0 66.04 9.27
2 16 0 108.13 10
-2 16 -2 40.27 5.84
-2 2 16 41.24 6.5
-2 2 -16 37.3 6.34
2 16 -2 38.55 5.65
-16 -2 2 42.51 4.96
-16 -2 -2 35.63 4.21
16 -2 -2 45.03 4.93
16 -2 2 43.47 4.62
16 2 -2 37.45 4.49
16 2 2 41.24 4.11
2 16 -2 58.04 6.46
2 16 2 39.87 5.5
2 2 -16 37.52 6.38
-2 -2 16 44.55 6.67
-16 2 -2 33.44 4.54
-2 16 -2 59.21 6.84
-2 16 2 46.72 6.05
2 -2 -16 39.42 6.3
2 -2 16 43.56 6.4
-16 2 2 38.95 5.04
-2 -2 -16 40.84 6.2
-4 16 0 20.8 3.86
-16 -4 0 17.47 2.39
-16 4 0 14.4 2.71
-4 0 -16 18.62 3.95
-4 0 16 26.28 5.93
-4 16 0 15.43 4.28
-16 0 4 17.86 3.11
4 0 -16 23.65 5.8
16 -4 0 18.57 2.79
0 -4 -16 17.44 4.75
0 -4 16 15.17 4.42
-16 0 -4 18.1 2.32
4 16 0 25.75 4.03
16 0 -4 16.66 2.67
16 4 0 17.14 2.22
0 16 -4 15.38 3.43
0 4 -16 13.47 4.14
0 4 16 22.79 5.67
0 16 4 19.11 3.52
0 16 -4 13.72 3.92
-16 2 4 5.29 1.78
-4 -2 16 5.29 2.4
-2 16 -4 4.2 2.33
4 16 -2 5.67 2.36
2 -16 -4 1.12 1.27
16 2 -4 3.79 1.4
4 2 16 3.63 2.17
16 -4 -2 1.29 0.96
-4 16 2 1.82 1.47
-2 4 16 4.93 3
-16 4 -2 1.99 1.04
-16 -4 2 2.11 1.1
-2 16 -4 3.62 1.99
-4 2 -16 1.42 1.59
2 16 4 2.97 1.56
4 -2 -16 2.32 2.27
2 -4 16 5.19 2.75
4 16 -2 3.25 1.97
2 4 -16 4.32 2.3
-2 -4 -16 0.52 1.47
-4 16 -2 3.74 1.85
2 -4 -16 5.47 2.53
16 -4 2 3.71 1.32
-16 -2 4 1.92 1.09
-16 2 -4 3.72 1.2
-16 2 -4 4.12 1.31
-4 16 -2 2.46 2.22
4 2 -16 3.44 1.92
-16 4 2 2.99 1.36
-4 -2 -16 3.31 2.18
16 4 -2 4.23 1.28
-2 -4 16 5.43 2.98
-2 4 -16 1.66 1.97
16 -2 -4 1.96 1.15
2 16 -4 2.71 1.53
-4 2 16 1.78 1.91
-2 16 4 2.06 1.42
2 16 -4 4.8 2.42
-16 -4 4 2.79 1.33
4 4 -16 5.24 2.64
-16 4 -4 3.17 1.28
-16 4 -4 2.73 1.47
-16 4 4 0.53 1.51
-4 -4 -16 2.37 1.62
-4 -4 16 1.74 1.86
-4 4 -16 1.43 1.65
-4 4 16 3.76 2.3
-4 16 -4 0.51 1.18
-4 16 -4 2.21 2.16
-4 16 4 1.11 1.39
4 -16 -4 3.71 2.15
4 -4 -16 1.74 1.78
4 16 -4 4.67 2.18
4 16 -4 2.55 1.9
4 16 4 3.58 1.67
4 16 4 2.36 1.55
16 4 -4 3.63 1.49
16 -4 -4 1.33 1.15
4 -4 16 3.87 2.46
4 4 16 2.82 1.9
16 0 -6 22.7 3.42
0 6 16 21.7 4.6
0 -6 16 21.18 4.52
6 16 0 29.56 4.1
16 -6 0 22.15 3.31
-6 0 -16 23.02 4.32
-16 6 0 16.62 3.21
0 16 -6 31.91 4.82
0 16 -6 28.24 4.84
0 16 6 19.85 3.83
6 0 -16 23.11 5.71
6 0 16 21.02 4.11
16 6 0 20.33 2.42
-6 0 16 20.92 5.54
0 -16 -6 24.76 4.38
-16 0 -6 21.38 2.5
0 6 -16 27.41 5.35
-6 16 0 21.67 4.27
0 -6 -16 22.9 4.53
-16 0 6 18.96 3.5
-16 -6 0 19.91 2.52
6 16 0 22.41 3.84
-6 16 0 19.2 3.85
-2 6 16 4.14 2.34
2 -16 -6 1.61 1.35
16 -6 -2 2.04 1.67
2 -6 16 6.02 2.98
6 2 16 3.79 2.4
-2 -6 -16 5.6 2.7
-6 16 2 2.67 1.9
2 6 -16 1.12 1.91
-6 -2 16 2 1.68
16 2 -6 4.6 1.77
6 -2 -16 2.66 1.74
-2 16 -6 4.16 2.04
-16 -6 2 4.58 1.54
6 16 -2 1.85 1.6
-6 2 -16 5.16 2.56
-16 6 -2 2.19 1.27
-16 2 6 2.91 1.82
-16 2 -6 2.52 1.01
6 -16 -2 2.99 2.07
-16 -2 6 3.67 1.83
6 2 -16 0.74 1.53
16 6 -2 4.03 1.25
-2 16 6 3.71 1.75
2 -6 -16 5.59 2.65
-16 2 -6 3.85 1.47
16 -6 2 3.41 1.39
-6 16 -2 4.12 1.98
6 16 2 2.34 1.41
-16 6 2 2.5 1.7
-6 -2 -16 2.61 1.57
-2 -16 -6 1.24 0.87
6 16 2 2.59 1.3
-6 16 -2 4.7 2.19
6 -2 16 8.67 3.18
-6 2 16 2.64 1.88
-2 -6 16 1.69 1.6
-2 6 -16 4.01 2.41
2 16 -6 5.24 2.79
4 -6 16 4.76 2.61
6 -4 -16 7.43 3.44
-16 4 6 5.71 2.33
-16 6 -4 3 1.22
-16 6 -4 2.27 1.51
6 4 16 6.75 2.56
4 16 6 5.89 2.75
16 -6 -4 5.03 1.9
-6 16 4 4.86 2.53
-4 6 16 4.84 2.79
4 -16 -6 5.9 2.48
-4 -6 -16 6.75 2.55
4 6 -16 4.16 2.41
6 16 -4 6.26 2.43
-4 16 -6 3.13 1.61
-6 -4 16 4.51 2.67
-16 -6 4 6.26 1.83
-6 4 -16 6.95 2.86
16 4 -6 9.39 2.66
-4 16 -6 6.9 3.08
-6 16 -4 3.39 2.02
-16 -4 6 6.69 2.21
-6 -4 -16 8.24 2.79
6 16 4 1.66 1.26
-16 6 4 7 2.24
4 6 16 3.78 2.07
6 -16 -4 3.4 1.86
-4 6 -16 11.2 3.68
6 4 -16 4.8 2.74
16 6 -4 7.5 2.04
-4 16 6 1.91 1.62
4 -6 -16 5.45 2.97
6 16 4 1.77 1.36
16 -4 -6 4.1 1.59
-16 4 -6 10.28 2.66
4 16 -6 5.45 2.43
-6 16 -4 3.83 2.48
-16 4 -6 4.8 1.52
-6 4 16 4.24 2.44
-4 -6 16 6.23 2.72
6 -6 16 5.83 2.63
6 16 6 8.19 2.33
-16 6 -6 6.29 2.1
-16 6 -6 3.77 1.43
-6 6 16 6.08 3.1
-6 16 -6 4.33 2.33
16 -6 -6 5.64 2.19
16 6 -6 2.45 1.43
6 -16 -6 2.43 1.68
-6 6 -16 5.22 2.6
6 -6 -16 5.43 2.54
-16 6 6 4.96 2.2
-6 -16 6 5.25 2.02
6 6 16 6.95 2.52
-6 16 -6 2.08 2.29
-6 16 6 4.79 2.46
6 16 -6 5.73 2.92
-16 -6 6 6.07 2.03
6 16 6 7.27 2.33
6 6 -16 2.29 1.99
-6 -6 16 7.72 3.5
-6 -6 -16 5.64 2.12
0 -8 16 115.45 12.6
0 -8 -16 115.8 12.35
-16 0 -8 106.79 9.46
-16 0 -8 99.39 9.62
-16 0 8 101.54 11.25
-8 16 0 110.06 11.89
-8 16 0 123.99 12.37
8 16 0 123.57 11.22
16 0 -8 98.79 10.87
-16 8 0 110.97 11.03
-8 0 16 106.34 12.57
0 8 -16 89.3 12.38
8 16 0 127.39 11.55
0 -16 -8 120.19 12.06
-16 -8 0 96.56 9.5
-8 0 -16 90.63 11.45
16 -8 0 93.57 10.55
0 16 8 89.45 11.5
8 0 -16 98.29 12.13
8 0 16 86.41 11.08
16 8 0 100.51 9.52
0 8 16 94.94 12.09
8 16 -2 59.36 8.21
8 16 -2 59.6 8.43
2 8 -16 74 10.07
-2 16 -8 75.81 9.88
-2 16 -8 80.21 9.5
-8 16 2 83.92 9.39
-2 8 16 79.79 10.24
2 -16 -8 81.65 9.47
16 -8 -2 78.94 8.41
2 16 8 83.41 11.89
8 -2 -16 80.44 9.78
-8 2 -16 84.77 9.82
-2 -8 -16 83.53 9.52
2 -8 16 72.09 9.63
-8 -2 16 65.13 9.34
-16 2 8 74.98 8.88
8 2 16 67.72 8.6
-16 -8 2 81.47 7.62
2 8 16 67.19 9.33
-16 -2 8 67.55 8.46
-2 8 -16 87.6 10.65
8 2 -16 86.65 10.19
16 -2 -8 65.45 8.2
-16 8 2 84.41 8.75
-8 -2 -16 76.08 8.92
16 8 -2 68.44 8.36
8 16 2 83.15 8.62
8 -2 16 87.7 9.47
-8 2 16 80.41 10.16
-2 16 8 67.99 9.23
-16 2 -8 79.46 7.99
2 -8 -16 67.47 9.39
-8 16 -2 95.23 9.71
-8 16 -2 87.81 9.97
2 16 -8 67.28 9.42
-2 -8 16 70.7 9.6
-2 -16 -8 62.11 8.69
8 16 2 59.54 7.85
8 -16 -2 72.04 9.1
-8 -4 16 37.27 6.02
4 -8 16 31.06 5.51
16 4 -8 30.39 4.33
4 -16 -8 25.41 5.01
8 16 -4 34.46 4.73
-4 -8 -16 34.25 5.01
-16 -8 4 24.5 3.69
-4 16 -8 36.54 5.91
-16 4 8 28.54 4.59
-4 8 16 20.39 4.88
-4 -16 8 32.18 4.97
-8 4 -16 36.21 5.76
16 -8 -4 29.87 4.39
4 8 -16 31.1 5.86
8 -4 -16 23.1 5.07
8 4 16 31.03 4.75
4 16 8 32.93 4.9
-16 8 -4 36.37 4.28
-16 8 -4 25.32 4.48
-8 16 4 34.06 5.23
-4 16 -8 45.67 6.02
8 4 -16 22.7 4.9
4 -8 -16 32.04 5.63
-8 16 -4 30.47 4.97
8 16 4 26.27 3.87
-8 16 -4 30.13 5.39
-8 -4 -16 30.72 4.43
8 -4 16 28.06 4.95
-8 4 16 33.26 5.91
16 -4 -8 33.04 4.47
4 8 16 27.17 4.84
8 -16 -4 20.74 4.51
-4 8 -16 31.52 5.87
-16 -4 8 23.01 4.11
-16 4 -8 28.9 3.62
-16 4 -8 27.13 4.11
-4 16 8 23.63 4.82
8 16 4 28.31 4.19
-16 8 4 27.07 4.4
4 16 -8 23.74 4.93
16 8 -4 19.79 3.47
-4 -16 -8 25.62 4.39
-4 -8 16 21.54 4.87
-6 -8 -16 60.07 7.21
-8 16 6 58.01 7.92
-6 -16 8 68.27 7.6
-6 16 -8 49.19 7.23
6 8 -16 38.9 7.52
-16 8 -6 53.16 7.3
6 16 8 59.1 7.3
8 -6 -16 64.61 8.54
16 -8 -6 49.14 6.86
8 16 -6 45.67 6.95
-16 8 -6 51.19 6.42
-8 6 -16 59.81 8.46
-6 16 -8 76.47 9.24
-6 8 16 50.78 8.35
16 6 -8 59.14 6.81
-16 6 8 45.73 7.02
-16 -8 6 58.22 6.62
6 -8 16 64.61 8.52
-8 -6 16 55.47 8.06
6 -16 -8 53.88 7.85
-8 6 16 61.33 8.73
16 -6 -8 48.55 6.78
8 6 -16 56.38 8.38
8 16 6 46.13 6.15
-8 -6 -16 68.69 7.25
-6 -8 16 48.07 7.67
-6 8 -16 46.25 8.04
-8 -16 6 69.7 7.39
6 -8 -16 46.81 7.76
-8 16 -6 59.78 8.58
-16 6 -8 61.11 6.36
6 8 16 61.49 7.75
8 -16 -6 57.77 7.79
-8 16 -6 75 8.15
-6 16 8 48.87 7.83
-16 8 6 58.67 7.26
-16 -6 8 67.81 7.28
-16 6 -8 59.1 7.32
6 16 -8 62.54 8.03
16 8 -6 61.56 6.77
-8 -8 16 161.47 18.2
8 -8 -16 178.77 18.58
8 16 -8 190.06 18.03
8 16 8 169.34 16.22
-16 -8 8 172.98 16.87
-8 8 16 192.4 19.62
8 16 8 153.76 16.65
-8 16 -8 142.68 18.15
-8 8 -16 181.15 19.14
-8 -8 -16 167.16 16.6
16 -8 -8 169.4 17.15
-8 16 -8 144.5 17.12
8 -16 -8 180.51 18.41
-16 8 8 192.9 17.9
-8 16 8 179.47 18.7
8 8 16 174.56 17.07
16 8 -8 160.57 16.73
-16 8 -8 162.56 17.51
-16 8 -8 183.68 16.52
8 8 -16 178.82 18.58
0 -10 -16 80.72 9.82
-16 0 10 77.74 9.33
-16 10 0 86.38 8.97
16 0 -10 81.27 9.01
0 -10 16 79.48 10.11
-16 0 -10 82.61 7.58
16 10 0 76.49 7.32
-16 0 -10 77.78 7.14
-10 0 -16 70.17 8.96
-10 0 16 76.5 10.18
10 0 16 67.7 8.65
0 -16 -10 66.56 9.25
10 0 -16 80.73 9.87
10 16 0 86.79 8.91
0 10 -16 82.17 10.75
0 16 -10 66.21 9.92
16 -10 0 74.45 8.62
-10 16 0 63.67 8.97
16 2 -10 27.22 4.32
-2 10 16 31.63 5.75
16 -10 -2 28.88 4.27
10 16 -2 28.43 4.51
-10 16 2 21.72 4.53
10 -2 -16 26.53 5.19
-2 16 -10 35.84 6.07
2 -16 -10 29.58 5.23
-16 -10 2 28.84 3.92
-16 10 -2 23.85 3.98
-10 2 -16 35.85 5.51
10 2 16 27.52 5.41
-2 -10 -16 26.92 4.71
-10 -2 16 20.95 4.79
2 -10 16 26.41 5.3
2 16 10 28.92 5.12
-2 -16 10 25.01 4.74
2 10 -16 18.83 5.48
-16 2 10 27.03 4.71
-10 16 -2 26.09 5.12
-10 16 -2 27.74 4.77
-10 2 16 28.4 5.59
-10 -2 -16 32.82 4.54
-16 2 -10 28.7 3.92
-2 -16 -10 22.04 4.4
16 10 -2 30.67 3.91
-2 16 10 30.67 5.44
-16 2 -10 26.65 3.24
10 16 2 27.68 3.82
16 -2 -10 26.06 4.38
2 10 16 27.57 5.28
10 -16 -2 32.04 5.2
2 16 -10 29.66 5.65
10 2 -16 26.92 5.29
-2 -10 16 26.16 5.37
10 -2 16 27.09 4.57
2 -10 -16 27.58 5.09
-16 -2 10 19.11 4.16
-16 10 2 25.06 4.38
-2 10 -16 30.19 5.95
-16 -10 4 8.29 2.04
-4 16 -10 4.2 2.74
-10 -4 16 9.85 3.43
10 4 16 12.17 3.14
16 -10 -4 6.31 2.53
-4 -10 -16 7.57 2.77
4 -10 16 12.14 4.12
-4 10 16 6.02 3.19
-4 -16 10 9.27 3.22
10 16 -4 5.32 2.04
16 4 -10 9.8 2.87
4 -16 -10 7.61 3.49
4 16 10 2.94 2
10 -4 -16 8.87 3.29
-10 4 -16 9.75 3.59
-10 16 4 7.61 2.78
-16 10 -4 12.1 3.09
-4 16 -10 9.76 3.21
-16 10 -4 8.55 2.83
4 10 -16 13.26 5.07
-16 4 10 5.07 2.16
10 -16 -4 8.93 3.32
-16 4 -10 8.05 2.7
-4 -10 16 6.95 2.87
4 -10 -16 10.72 3.95
10 -4 16 8.28 3.02
10 16 4 8.17 2.17
-10 4 16 12.17 4.44
-16 -4 10 8.04 2.76
-16 4 -10 8.58 2.1
16 10 -4 4.84 1.84
10 4 -16 7.63 3.16
-10 16 -4 9.65 3.11
-10 16 -4 8.76 3.1
-4 10 -16 5.67 2.51
4 16 -10 6.54 3.46
-10 -4 -16 5.09 2.04
10 16 4 7.56 2.13
-16 10 4 6.49 2.49
-4 16 10 7.33 3.07
16 -4 -10 6.6 2.35
4 10 16 7.85 3.15
-4 -16 -10 4.67 1.91
-16 10 -6 17.83 4.97
6 16 10 12.8 3.68
-16 -10 6 12.14 3.03
-10 16 6 13.87 4.1
10 6 16 11.92 2.6
6 -16 -10 19.74 5.36
16 6 -10 8.38 2.93
-10 6 -16 14.98 4.92
6 -10 16 17.52 5.3
-16 10 -6 7 2.18
10 -6 -16 9.55 3.54
10 16 -6 9.23 2.87
-6 16 -10 8.84 3.69
-6 16 -10 11.82 3.73
16 -10 -6 14.86 3.21
-10 -6 16 12.39 4.57
6 10 -16 13.67 4.76
-6 10 16 11.57 3.77
-6 -10 -16 14.78 3
-16 6 10 11.79 3.41
-6 -16 10 13.38 4.04
-16 -6 10 11.86 3.38
6 16 -10 8.26 3.32
-10 -16 6 6.21 2.16
-6 10 -16 11.48 4.73
-10 6 16 14.81 4.67
6 -10 -16 18.91 4.05
-6 -10 16 9.19 3.28
-16 10 6 16.01 3.48
16 -6 -10 16.42 3.98
-10 16 -6 15.72 3.29
-16 6 -10 15.57 4.21
-6 16 10 20.42 5.46
10 -16 -6 12.64 3.66
10 16 6 11.78 2.88
-10 -6 -16 10.85 2.42
16 10 -6 13.62 2.65
6 10 16 18.4 4.62
-16 6 -10 12.58 2.32
-10 16 -6 21.88 5.93
10 16 6 9.57 2.01
-6 -16 -10 9.42 2.74
10 6 -16 14.4 4.4
-16 8 10 81.14 10.66
-8 16 -10 70.39 10.93
16 8 -10 79.09 9.67
-16 10 -8 84.92 9.34
-10 16 8 100.33 11.57
-8 -10 -16 84.49 9.36
-8 10 16 75.08 10.95
16 -10 -8 91.74 10.28
8 -16 -10 70.94 10.45
-16 -10 8 87.33 9.52
-16 10 -8 95.58 10.85
-10 8 -16 86.72 11.55
10 -8 -16 95.8 11.23
-10 -8 16 95.87 11.16
8 -10 16 88.31 11.43
10 16 -8 65.74 9.54
10 8 16 88.24 9.41
8 16 10 86.82 9.66
-8 16 -10 82.4 10.13
8 10 -16 88.27 11.2
8 16 10 100.22 9.08
-8 -16 10 86.13 10.04
-10 8 16 76.43 11.33
-16 -8 10 84.57 9.78
16 10 -8 73.21 9.12
8 -10 -16 96.51 11.29
10 -16 -8 88.87 10.87
-16 8 -10 86.79 11.62
8 16 -10 102.47 10.92
-10 -16 8 107.9 10.26
-10 16 -8 93.48 10.42
-10 16 -8 110.77 12.49
-10 -8 -16 86.31 8.85
10 16 8 87.31 9.17
10 16 8 77.65 9.21
-8 -10 16 80.09 10.56
-16 8 -10 84.25 9.11
8 10 16 84.63 9.89
-8 16 10 82.52 11.12
-16 10 8 81.08 10.32
16 -8 -10 84.43 10.08
-8 10 -16 95.86 12.4
10 8 -16 91.49 11.29
-10 16 10 66.85 8.7
10 10 16 54 6.48
10 10 -16 67.68 8.7
-10 -10 16 45.05 7.35
10 16 10 52.32 5.78
16 -10 -10 47.83 7.08
16 10 -10 58.92 7.04
-10 -16 10 51.17 6.93
-10 16 -10 52.49 8.66
10 16 -10 59.23 7.68
-10 16 -10 56.03 7.38
-10 10 -16 46.76 8.81
10 -10 -16 52.74 7.95
10 -16 -10 60.98 8.45
-16 10 -10 56.19 8.1
-10 -10 -16 53.96 6.14
-16 10 10 47.02 7.44
-10 10 16 43.59 7.63
10 16 10 47.1 6.2
-16 10 -10 54.65 6.54
0 -12 16 13.28 4.28
-12 16 0 11.21 3.38
-16 12 0 15.28 3.27
16 -12 0 10.42 3.07
0 16 -12 15.99 4.88
0 -16 12 6.26 2.8
16 12 0 12.83 1.99
0 12 -16 10.52 4.06
12 0 16 12.05 2.7
12 0 -16 7.84 2.99
-16 0 12 17.05 4.52
-12 0 16 12.25 3.57
16 12 0 13.17 1.96
16 0 -12 13.99 3.62
-16 0 -12 12.5 1.74
12 16 0 14.3 2.76
12 16 0 14.38 2.69
-16 0 -12 12.31 2.07
-12 0 -16 13.33 3.61
-12 16 2 3.33 1.92
12 -2 -16 -0.62 1.18
-12 2 -16 2.35 1.75
-2 -12 -16 1.72 1.61
2 -12 16 -0.01 1.54
2 12 -16 1.98 1.58
-16 2 12 -0.74 0.99
-2 16 -12 0.36 1.67
-16 -12 2 0.64 0.68
16 -12 -2 -0.55 0.75
-2 -16 12 1.13 0.97
-16 12 -2 2.09 2.13
-2 12 16 4.45 2.58
12 16 -2 -0.76 0.74
2 16 12 0.43 1.12
16 2 -12 0.91 1.51
-16 12 -2 0.29 0.87
12 16 -2 -1.3 0.7
-12 -2 16 0.59 1.43
12 2 16 0.69 0.86
-2 16 12 2.15 1.63
12 16 2 0.42 0.68
12 16 2 1.8 1.08
2 16 -12 1.7 1.6
-16 12 2 0.09 1.04
-2 -12 16 0.75 1.4
-2 12 -16 -0.53 1.71
-12 16 -2 0.89 0.86
-12 16 -2 3.64 1.75
-12 2 16 1.9 1.79
2 12 16 0.79 1.64
12 -16 -2 0.26 1.04
12 2 -16 0.44 1.15
16 12 -2 0.86 1
-12 -2 -16 1.05 1
-16 2 -12 -0.37 0.63
16 -2 -12 -0.77 0.86
-16 2 -12 0.23 0.52
-16 -2 12 -0.27 0.95
2 -16 12 -0.63 1.19
-16 12 -4 16.2 3.39
4 12 -16 20.41 6.18
-16 -12 4 25.01 3.35
16 -12 -4 23.86 4.01
-16 12 -4 23.52 5.83
-4 -16 12 15.21 4.09
12 4 16 19.67 3.12
16 4 -12 16.08 3.63
4 16 12 9.8 3.59
-16 4 12 17.87 4.62
12 16 -4 24.71 3.76
-12 4 -16 22.65 5
4 -16 -12 15.5 5.45
-4 12 16 22.54 5
4 -12 16 27.08 5.61
-12 16 4 25.29 4.59
-4 16 -12 19.46 5.83
12 -4 -16 23.02 4.74
-12 -4 16 19.69 4.4
-4 -12 -16 21.79 4.45
-4 16 12 12.75 4.27
12 -4 16 16.85 3.79
12 4 -16 11.53 3.83
-12 4 16 24.51 5.16
4 12 16 20.19 4.44
-12 -4 -16 22.21 3.24
4 -12 -16 18.8 6.21
-12 16 -4 27.81 5.41
-16 12 4 24.94 4.38
-4 12 -16 17.41 5.48
-16 4 -12 19.66 2.91
-16 4 -12 27.37 4.18
12 -16 -4 22.99 4.3
-12 16 -4 16.56 3.78
12 16 4 20.13 2.98
16 -4 -12 18.3 3.94
-16 -4 12 21.56 3.93
-4 -12 16 15.86 4.72
-4 -16 -12 21.29 4.36
12 16 4 19.58 2.95
16 12 -4 20.84 3.26
4 16 -12 17.68 5.17
6 -12 16 17.02 5.35
-6 12 16 13.91 4.84
-12 -6 16 4.77 2.76
-12 6 -16 7.88 3.35
-16 6 12 3.05 1.97
-12 16 6 10.94 3.8
-6 -16 12 10.78 3.3
-16 -12 6 6.66 2.19
16 6 -12 14.2 4
-16 12 -6 8.17 2.74
-16 12 -6 9.58 3.76
-6 16 -12 15.56 5.68
-6 -12 -16 6.06 2.21
12 16 -6 9.24 2.76
-6 16 -12 8.16 2.9
6 -16 -12 3.05 2.54
12 -6 -16 7.85 3.34
12 6 16 8.88 1.75
16 -6 -12 11.93 5.49
12 16 6 8.86 1.86
-6 -12 16 10.57 4.06
6 -12 -16 7.01 2.88
-16 12 6 5.88 2.72
-16 6 -12 9.86 2.46
-12 6 16 8.62 3.32
-12 16 -6 5.96 2.43
-6 12 -16 8.81 3.68
-12 -16 6 5.21 1.98
12 -6 16 5.21 2.48
12 6 -16 11.17 4.16
6 16 -12 18.13 5.12
16 12 -6 8.28 2.45
-6 -16 -12 9.15 3.11
-12 -6 -16 11.17 1.87
12 16 6 9.37 1.7
-6 16 12 13.03 4.97
-12 16 -6 4.34 3.04
12 -16 -6 5.76 2.41
-16 -12 8 6.46 1.95
8 16 12 5.97 2.23
-12 -8 16 5.32 2.66
16 8 -12 5.15 2.48
12 16 -8 12.21 3.39
12 -8 -16 20.57 5.52
-8 12 16 18.07 5.59
8 -16 -12 9.91 3.65
-12 16 8 19.69 5.14
-16 12 -8 8.45 2.69
-16 12 -8 9.79 3.48
-8 -12 -16 10.74 2.9
-8 -16 12 8.64 3.11
-8 16 -12 9.98 4.31
-12 8 -16 8.2 2.9
8 12 -16 5.48 2.63
-16 8 12 6.1 2.81
16 -12 -8 16.17 4.48
12 8 16 12.7 2
-8 16 -12 7.5 2.81
8 -12 16 9.98 3.75
-12 16 -8 9.08 3.01
-8 12 -16 8.9 4.93
12 -16 -8 5.86 2.51
-16 8 -12 8.28 3.07
-8 16 12 6.08 3.25
12 16 8 8.82 1.65
16 -8 -12 12.78 3.76
-8 -12 16 4.86 2.66
-12 -16 8 15.82 3.72
-16 12 8 4.92 2.17
12 16 8 8.86 1.87
16 12 -8 9.79 2.71
-16 8 -12 12.9 3.02
-12 -8 -16 11.78 1.78
8 16 -12 4.09 2.17
8 12 16 9.09 2.89
12 8 -16 6.44 2.86
8 -12 -16 15.46 5.14
-16 -8 12 7.13 2.56
-12 16 -8 15.03 5.01
-12 8 16 9.44 2.97
-10 -16 12 0.71 1.17
-10 -12 -16 2.34 0.92
-12 10 -16 1.29 1.41
-10 16 -12 6.25 3.22
12 10 16 1.57 0.85
10 -16 -12 -0.93 1.39
-12 -10 16 2.59 1.48
12 16 -10 0.69 1.26
10 16 12 1.32 1.14
10 16 12 0.94 0.74
12 -10 -16 3.49 2.43
-12 16 10 -0.2 1.2
16 10 -12 0.18 1.03
-10 12 16 1.01 1.78
10 12 -16 -1.27 1.31
-16 10 12 1.26 1.4
-10 16 -12 2.71 1.83
16 -12 -10 1.16 1.45
-16 -12 10 1.04 1.07
-16 12 -10 3.15 1.61
-12 -16 10 -0.26 0.95
-12 -10 -16 0.98 0.62
-16 -10 12 1.45 1.64
-16 10 -12 0.77 0.76
-12 10 16 5.48 2.69
10 -12 -16 4.91 3.05
12 16 10 1.55 0.83
-10 -12 16 -0.17 1.46
10 16 -12 -0.53 1.16
-16 12 10 0.48 1.59
10 12 16 1.63 1.43
12 -16 -10 2.91 2
12 10 -16 1.36 1.97
-12 16 -10 2.16 1.36
-12 16 -10 3.2 2.17
16 12 -10 2.16 1.46
12 16 10 0.07 0.75
-10 16 12 -0.37 1.92
16 -10 -12 1.01 1.5
12 -16 -12 19.01 5.01
-12 -12 16 9.26 2.76
-12 12 -16 16.24 4.14
12 12 -16 15.41 5.14
-16 12 -12 13.44 2.74
-12 -16 12 7.16 2.47
12 -12 -16 11.02 4.14
16 12 -12 6.55 2.56
12 12 16 12.09 2.97
-16 -12 12 5.54 2.13
-12 -12 -16 7.16 1.58
12 16 12 9.41 1.53
16 -12 -12 8.96 3.12
12 16 -12 7.75 2.77
-12 16 -12 7.09 2.13
-12 16 12 10.19 4.3
-12 12 16 17.4 5.47
-14 16 0 26.92 4.94
-16 0 14 29.67 5.35
0 14 -16 46.8 7.36
-16 14 0 36.22 5.34
-14 0 -16 28.97 4.44
-14 0 16 29.18 5.57
0 16 -14 46.91 7.56
16 14 0 27.37 3.7
14 16 0 25.26 3.95
0 -14 -16 28.89 5.99
0 -16 -14 41.27 6.65
0 -14 16 25.36 5.66
-16 0 -14 33.35 4.01
16 14 0 30.4 3.81
14 16 0 26.87 5.42
16 0 -14 34 5.29
-16 0 -14 30.94 3.46
0 -16 14 25.59 5.46
14 0 -16 37.62 5.94
-16 14 -2 14.6 4.75
-2 14 16 3.58 3.3
2 -16 -14 7.01 2.91
-16 2 14 10.19 3.92
-2 16 -14 14.02 5.63
-16 -2 -14 7.64 1.15
14 -2 -16 8.88 3.46
16 2 -14 5.95 2.75
-14 16 2 10.03 3.31
16 14 2 8 1.34
-2 -16 14 6.27 2.5
2 16 14 9.26 3.54
-16 14 -2 8.6 3.23
16 -14 -2 5.9 2.29
2 14 -16 5.72 3.27
16 14 2 7.55 1.29
-2 -14 -16 12.44 4.49
14 16 -2 8.92 2.76
14 16 -2 9.73 2.8
-14 -2 16 6.49 3.08
14 16 2 7.22 1.91
16 -2 -14 2.81 3.07
-14 16 -2 7.5 2.39
16 14 -2 7.96 2.68
-2 16 14 7.28 3.97
-16 2 -14 9.92 3.09
-16 2 -14 8.39 1.69
-2 14 -16 8.55 3.69
-14 16 -2 20.29 5.99
2 -14 -16 14.07 4.81
-2 -14 16 14.16 4.82
14 -16 -2 8.42 3.06
-16 -2 14 6.97 2.65
-2 -16 -14 2.99 2
14 2 -16 12.38 4.19
-14 -2 -16 5.55 1.65
2 16 -14 7.72 3.79
2 14 16 4.83 2.61
-14 2 16 5.07 2.64
14 16 2 11.3 2.48
2 -16 14 11.67 4.43
-4 16 -14 -1.49 1.81
4 -14 16 3.99 2.91
4 14 -16 2.24 2.21
-16 -14 4 0.37 0.75
-14 16 4 2.94 1.85
-16 4 14 3.84 2.12
4 -16 -14 -0.24 1.5
14 16 -4 -0.13 1.19
16 -14 -4 0.12 1.13
-4 14 16 5.26 1.96
-14 -4 16 1.26 2.39
-14 4 -16 1.39 1.33
-16 14 -4 1.94 2.07
14 -4 -16 1.17 1.89
-4 -16 14 -0.65 1.22
-16 14 -4 0.94 1.33
16 4 -14 0.71 1.18
4 16 14 1.94 2.07
-4 -14 -16 1.26 0.94
4 -14 -16 1.23 2.09
-14 4 16 1.47 2.08
-16 14 4 4.27 1.37
-4 16 14 5.93 1.95
-14 16 -4 2.37 1.72
-4 -16 -14 -0.43 0.79
16 -4 -14 3.82 2.4
4 14 16 -0.32 1.33
14 4 -16 -0.49 1.24
-4 14 -16 -1.64 1.91
16 14 -4 0.88 1.14
-14 -4 -16 0.06 0.66
-16 -4 14 -0.05 1.52
4 16 -14 -0.05 1.65
4 -16 14 -0.38 1.13
-4 -14 16 1.16 1.54
14 16 4 1.21 0.91
14 16 4 0.3 0.74
-16 4 -14 0.26 1.01
-14 16 -4 -0.32 1.54
-16 4 -14 -0.4 0.58
14 -16 -4 0.86 1.23
-16 14 -6 0.51 2.37
-16 6 14 -0.71 1.19
-14 6 -16 -1.16 0.55
-16 14 -6 0.28 1.19
-14 16 6 -0.89 1.15
14 16 -6 0.36 0.94
-6 -16 14 2.65 1.79
-16 -14 6 -0.66 0.84
16 -14 -6 -0.09 1.16
14 -6 -16 0.89 1.44
-14 -6 16 -1.24 1.33
-14 6 -16 1.42 1.7
-6 14 16 -1.31 1.6
16 6 -14 1.66 1.86
6 -14 16 3.34 2.47
-6 16 -14 3.8 2.35
-6 -14 -16 -0.25 0.84
6 -16 -14 0.28 1.53
6 14 -16 -1.31 1.71
14 6 -16 1.11 1.63
6 -14 -16 -2.65 1.18
16 -6 -14 -1.61 1.13
-6 16 14 0.68 1.68
-6 -16 -14 -1.39 0.78
-6 14 -16 1.26 2.47
-16 -6 14 0.67 1.37
-6 -14 16 -0.24 1.49
14 16 6 0.78 0.49
16 14 -6 0.49 1.34
-14 -16 6 -0.52 0.76
-16 14 6 0.32 1.3
-16 6 -14 -1.77 0.8
14 -16 -6 0.71 1.63
6 16 -14 -1.57 1.67
-14 6 16 3.28 2.34
-16 6 -14 0.16 0.73
14 16 6 -0.67 0.42
-14 16 -6 1.23 1
-14 -8 16 20.49 5.72
-16 14 -8 21.24 3.93
-14 16 8 23.22 5.07
-8 -14 -16 16.76 3.59
-8 -16 14 22.16 4.48
-14 8 -16 20.17 3.66
16 8 -14 28.97 4.94
-16 -14 8 17.43 3.42
-8 16 -14 25.18 4.81
14 16 -8 31.54 5.56
14 -8 -16 24.12 4.85
8 -16 -14 26.44 7.16
16 -14 -8 23.09 5.58
8 16 14 29.51 4.19
8 14 -16 17.18 5.22
-8 16 -14 38.08 12.12
-14 16 -8 28.81 4.78
-14 -16 8 14.76 3.42
14 -16 -8 27.8 5.2
8 -14 -16 11.97 4.45
-8 16 14 26.47 7.43
-16 -8 14 19.85 4.3
8 16 -14 30.33 5.74
-16 14 8 20.68 4.49
16 -8 -14 20.98 4.42
14 8 -16 19.15 5.4
-16 8 -14 20.37 3.46
16 14 -8 25.03 4.19
-8 -16 -14 23.65 4.07
8 14 16 30.21 4.4
-8 -14 16 22.23 4.63
-14 8 16 16.21 4.9
14 -10 -16 15.91 7.02
10 16 14 9.56 2.72
-10 14 16 17.69 8.9
-16 10 14 16.83 5.01
16 -14 -10 11.62 4.17
16 10 -14 12.2 4.05
10 -16 -14 8.29 3.7
-16 14 -10 13.3 3.85
-14 -10 16 10.92 3.59
-14 10 -16 5.94 2.12
14 16 -10 4.47 2.03
-10 -16 14 17.75 2.85
-10 16 -14 9.3 3.59
10 14 -16 5.19 3.35
10 16 -14 4.53 2.67
14 -16 -10 13.66 4.51
-16 14 10 12.11 4.17
-14 10 16 9.03 6.71
-10 16 14 14.9 7.21
16 14 -10 9.55 3.19
-16 -10 14 9.11 3.61
-16 10 -14 9.62 3.15
14 10 -16 6.24 2.5
-14 -16 10 10.13 3.16
-14 16 -10 13.24 3.75
16 -10 -14 11.9 4.12
-10 -14 16 10.31 3.61
10 14 16 13.47 3.42
-10 14 -16 11.64 3.69
10 -14 -16 15.52 5.44
16 12 -14 6.22 2.3
-16 12 14 4.86 6.33
-16 -14 12 3.3 2.06
12 14 -16 5.67 2.7
-16 14 -12 1.03 1.03
14 16 -12 4.98 2.52
12 16 14 5.6 1.55
12 16 14 1.5 0.83
14 -12 -16 3.55 2.59
-12 16 -14 3.48 1.6
16 -14 -12 2.53 2.17
-12 -16 14 4.61 1.94
-12 -14 16 6.63 2.99
14 -16 -12 5.15 2.37
-16 12 -14 4.64 2.12
16 -12 -14 4.53 2.96
-14 -16 12 0.73 1.28
-14 16 -12 4.41 1.8
16 14 -12 -0.42 1.42
-12 14 -16 2.39 1.52
14 12 -16 3.7 2
-16 -12 14 2.28 1.47
12 16 -14 4.13 2.44
12 14 16 2.76 1.41
-14 12 16 3.89 2.69
16 14 -14 0.45 1.47
-16 14 -14 -0.91 1.16
-14 -16 14 0.67 1.4
-14 -14 16 0.3 1.59
-14 14 -16 3.11 2.12
-14 16 -14 -0.83 1.65
14 14 -16 0.53 1.47
14 16 -14 -0.75 1.82
16 -14 -14 3.6 2.46
-16 -14 14 1.18 1.51
-16 0 -16 85.73 8.3
-16 0 16 93.69 11.26
-16 16 0 96.75 10.63
0 -16 16 70.13 10.69
0 16 -16 82.9 14.41
16 0 -16 75.59 10.31
16 16 0 87.62 8.96
16 16 0 90.26 8.78
-16 0 -16 81.4 8.84
-16 16 2 62.88 8.04
-2 16 -16 66.32 10.48
2 -16 16 44.98 8.17
2 16 -16 59.72 9.2
16 -16 -2 50.53 7.33
16 -2 -16 51.18 7.81
16 2 -16 56.25 7.83
16 16 -2 55.94 6.77
16 16 2 56.01 5.75
16 16 2 58.19 5.76
-16 -2 16 47.82 7.66
-16 2 -16 55.16 5.91
-16 2 -16 55.6 7.15
-16 2 16 38.12 7.46
-16 16 -2 46.34 7.04
-16 -2 -16 56.82 5.61
-2 -16 16 70.73 9.13
-16 -2 -16 57.47 5.39
-16 16 4 9.07 2.86
4 16 -16 16.45 4.53
16 -16 -4 19.58 5.23
16 -4 -16 22.45 5.5
16 4 -16 12.53 3.44
16 16 -4 15.44 2.99
-16 4 -16 18.56 5.24
-16 4 16 11.08 3.2
-16 16 -4 8.68 2.82
-4 -16 16 11.05 3.68
-4 16 -16 14.46 5.48
4 -16 16 9.82 3.67
-16 -4 16 15.72 4.67
-16 4 -16 15.5 2.5
-16 -16 6 15.3 2.79
-16 -6 16 7.74 3.61
-16 6 -16 10.2 2.33
16 16 -6 13.93 2.88
-6 -16 16 11.63 3.99
6 16 -16 16.44 5.56
16 -16 -6 14.36 3.99
16 -6 -16 5.9 2.81
16 6 -16 8.5 3.12
-16 16 -6 9.48 4.28
-16 16 6 19.56 5.44
-16 6 16 12.71 4.57
8 16 -16 83.52 10.6
-8 16 -16 72.01 9.69
16 -8 -16 83.22 10.11
-16 16 -8 54.84 8.41
16 16 -8 83.21 8.97
-16 -8 16 74.14 9.58
-16 8 -16 64.22 7.92
-16 8 16 62.92 10.03
-16 -16 8 69.37 8.35
-16 16 8 86.9 10.4
-8 -16 16 89.72 10.41
16 -16 -8 78.69 10.05
-10 -16 16 58.94 8.16
-16 10 16 52.58 8.88
-16 -16 10 44.79 6.42
-16 -10 16 55.62 7.48
-16 10 -16 43.13 6.17
-16 16 -10 55.62 7.27
-16 16 10 47.77 7.91
16 -10 -16 59.8 8.27
-10 16 -16 64.69 8.27
10 16 -16 57.48 8.11
16 -16 -10 63.69 8.57
16 10 -16 56.41 9.08
16 16 -10 45.48 6.91
16 16 -12 -0.71 1.04
-16 16 -12 4.35 3.14
-16 -12 16 8.53 3.04
-16 12 -16 1.83 0.97
-12 -16 16 -1.06 1.36
-12 16 -16 2.48 2.12
12 16 -16 2.85 2.64
16 -12 -16 6.67 2.72
16 12 -16 6.72 2.89
-16 -16 12 2.53 1.29
16 -16 -12 -0.95 1.85
12 16 16 3.34 1.36
-14 16 -16 29.44 6.59
-14 -16 16 28.91 5.26
-16 16 -14 22.97 4.83
-17 1 -1 158.82 15.28
-17 -1 1 143.92 15.26
-17 -1 -1 150.25 15.01
1 17 -1 164.66 16.95
1 17 1 145.43 16.52
17 -1 -1 166.47 15.3
17 -1 1 163.9 15.06
17 1 -1 154.17 15.03
1 1 17 191.6 18.06
1 -1 -17 178.5 17.95
1 -1 17 127.66 16.88
-17 1 1 173.46 15.52
-1 -1 -17 166.35 17.64
-1 -1 17 172.56 17.91
-1 1 -17 190.32 18.2
-1 1 17 169.08 17.61
-1 17 -1 162.52 16.88
-1 17 1 174.86 17.07
-1 17 1 183.95 17.01
1 1 -17 178.86 17.91
-17 3 -1 34.29 4.52
-17 -3 1 39.8 4.5
1 3 -17 52.56 7.31
3 -1 -17 37.34 6.45
-17 1 3 37.11 4.87
-3 1 -17 44.31 6.78
1 -3 17 42.86 6.73
-17 -1 -3 37.18 4.09
-1 17 -3 32.12 5.74
17 -3 -1 39.97 4.71
-17 -1 -3 37.8 4.13
3 17 -1 41.01 5.76
1 17 3 37.61 5.68
17 3 1 36.48 3.94
17 1 -3 41.69 4.55
-3 -1 17 37.3 6.3
-1 3 17 42.27 6.62
-1 -3 -17 36.91 6.03
-1 17 -3 43.9 5.98
-3 17 1 50.94 6.4
1 17 3 43.61 5.72
3 17 -1 33.69 5.37
-3 17 1 29.93 5.35
1 17 -3 48.73 6.22
17 -3 1 39.77 4.5
-1 3 -17 40.46 6.66
-1 17 3 36.43 5.44
-3 17 -1 29.64 5.51
-17 -3 -1 34.87 4.03
3 -1 17 46.01 6.6
3 17 1 45.17 5.69
-17 3 1 39.4 4.86
1 -3 -17 42.96 6.5
-17 1 -3 42.89 4.46
-3 17 -1 30.15 5.37
-3 -1 -17 43.84 6.36
-1 -3 17 42.2 6.67
3 1 -17 37.27 6.19
17 3 -1 35.78 4.19
1 3 17 31.31 5.89
1 17 -3 44.48 6.13
17 -1 -3 36.17 4.61
-17 -1 3 32.22 4.64
-3 1 17 38.87 6.35
-1 17 3 45.26 6.07
-17 3 3 18.31 3.17
-17 3 -3 18.48 2.71
17 3 -3 15.42 2.5
-3 17 -3 16.15 3.5
-3 17 -3 21.77 4.32
3 17 3 12.76 3.62
17 -3 -3 17.19 2.82
-3 17 3 17.07 4.53
3 -3 -17 15.2 4.26
3 3 -17 12.46 4.06
3 17 -3 19.99 3.71
3 17 -3 16.74 3.65
-17 -3 3 15.35 2.73
-3 3 -17 22.8 4.84
-3 -3 17 18.79 5.44
-3 -3 -17 19.14 3.9
-3 3 17 11.81 4.3
3 -3 17 20.87 4.29
5 -1 -17 4.32 2.5
-17 -1 -5 2.91 0.86
-5 -1 17 1.74 1.8
1 5 -17 7.71 3.92
-1 -5 -17 0.8 1.65
-17 -5 1 2.73 1.03
-1 17 -5 3.43 2.04
-5 17 1 2.96 2.35
-5 17 1 3.23 1.91
17 1 -5 2.65 1.36
-17 1 5 1.35 1.17
1 -5 17 2.95 2.46
-1 5 17 3.68 2.1
5 1 17 0.98 1.43
17 -5 -1 2.5 1.29
-5 1 -17 1.66 1.77
-1 17 -5 4.57 1.87
5 17 -1 4.58 2.15
-17 5 -1 0.47 0.94
-17 -1 -5 3.31 0.82
17 5 1 3.06 0.79
1 17 5 5.89 2.5
1 -17 -5 1.8 1.66
17 -5 1 2.78 1.24
-17 -5 -1 2.85 0.79
-17 -1 5 1.66 1.31
-17 1 -5 2.69 1.07
-17 1 -5 2.48 1.13
-5 17 -1 2.36 1.72
1 -5 -17 2.53 1.48
-1 17 5 3.87 1.92
-5 1 17 0.71 1.72
17 -1 -5 4.24 1.77
5 17 1 2.94 1.99
5 1 -17 5.71 3.15
1 5 17 5.85 3.27
5 17 1 2.09 1.31
-5 17 -1 5.28 2.59
-1 -5 17 6.6 2.84
17 5 -1 2.32 0.93
-5 -1 -17 2.83 1.56
1 17 -5 0.29 1.13
1 17 -5 4.4 2.3
-1 5 -17 3.21 2.5
-17 5 1 2.77 1.31
3 5 -17 4.82 2.81
-5 -3 17 3.24 2.54
-3 5 17 6.05 2.85
3 -5 17 4.57 2.51
-3 -5 -17 4.68 2.19
-5 17 3 3.86 2.12
3 17 5 8.58 2.7
3 -17 -5 0.26 1.2
-3 17 -5 7.53 3.16
5 -3 -17 3.02 1.95
17 3 -5 4.86 1.71
5 3 17 4.86 2.57
17 -5 -3 3.91 1.56
-17 5 -3 6.96 2.13
-5 3 -17 6.63 3.05
-3 17 -5 2.45 1.94
5 17 -3 7.32 2.54
5 17 -3 2.42 2.39
-17 -5 3 4.33 1.66
3 17 5 3.25 1.78
-3 17 5 2.24 1.79
5 17 3 2.07 1.35
17 -3 -5 3.72 1.61
5 3 -17 6.13 2.92
3 17 -5 3.75 2.41
3 5 17 1.79 2.17
5 -17 -3 2.95 2
3 17 -5 2.01 1.51
-17 -3 5 3.1 1.5
-17 3 -5 4.35 1.31
-17 3 -5 4.14 1.58
-5 17 -3 2.99 1.82
-5 17 -3 5.05 2.57
-3 -5 17 4.54 2.58
17 5 -3 4.78 1.6
-3 5 -17 7.78 3.48
3 -5 -17 2.95 2.11
5 17 3 4.15 1.75
-5 3 17 1.68 2.19
5 5 -17 48.47 7.58
-5 17 -5 42.51 7.04
-5 17 5 39.24 6.36
5 -17 -5 60.66 7.56
5 -5 -17 48.59 7.38
5 -5 17 54.1 7.63
-5 5 17 48.99 7.71
-5 17 -5 55.17 7.02
17 -5 -5 47.8 5.81
17 5 -5 44.39 5.42
-17 -5 5 47.37 5.68
-17 5 -5 42.26 5.21
-17 5 -5 55.07 6.17
-5 -5 -17 50.22 6.72
-5 -5 17 51.72 7.55
-5 5 -17 42.95 7.29
-17 5 5 46.69 6.16
5 17 5 32.95 5.44
5 17 5 43.14 5.95
5 17 -5 45.49 6.48
5 17 -5 42.47 6.56
5 5 17 48.86 6.68
-7 1 -17 72.14 9.01
7 17 -1 58.49 7.58
-17 -7 1 64.23 6.47
1 -7 17 57.76 8.57
-7 17 1 65.84 8.44
-1 -7 -17 71.34 8.91
17 1 -7 69.67 7.42
-1 17 -7 79.99 9.19
-17 1 7 68.9 7.85
-1 7 17 65.38 9.15
7 -1 -17 75.86 9.36
1 7 -17 79.6 10.1
7 17 -1 58.18 7.71
7 1 17 60.07 8.13
17 -7 -1 76 8.71
1 -17 -7 63.66 8.51
-7 -1 17 68.2 9.1
-1 17 -7 74.25 9.21
-17 7 -1 60.51 7.31
17 -7 1 76.82 7.53
-17 1 -7 67.26 6.35
-1 -7 17 50.74 8.34
-7 17 -1 72.77 8.93
-1 7 -17 60.7 9.12
7 -1 17 61.68 8.36
7 1 -17 75.29 9.42
-17 1 -7 65.16 6.65
-17 -1 7 59.79 7.61
-7 17 -1 72.87 8.65
1 17 -7 87.34 9.56
1 17 -7 51.26 8.06
7 17 1 47.39 7.11
17 -1 -7 61.17 7.25
-1 17 7 67.55 8.6
17 7 -1 61.39 6.3
-7 -1 -17 65.41 8.27
7 17 1 57.88 7.6
-7 1 17 61.25 9.06
-1 -17 -7 64.69 8.43
1 -7 -17 63.18 8.78
-17 7 1 47.82 7.05
3 -17 -7 25.95 4.98
-17 3 7 30.05 4.71
17 3 -7 31.58 4.36
-3 7 17 28.3 5.89
7 17 -3 35.93 5.06
17 -7 -3 32.34 4.47
-3 17 -7 28.07 5.25
-3 17 -7 43.85 6.6
-3 -7 -17 37.26 5.6
-17 -7 3 28.41 3.85
-7 -3 17 31.34 5.91
3 17 7 27.37 4.94
-17 7 -3 30.4 4.79
3 -7 17 25.88 5.46
-17 7 -3 32.73 4.33
7 3 17 34.46 5.41
-7 17 3 30.86 5.19
3 7 -17 36.23 6.36
7 -3 -17 24.98 5.43
-7 3 -17 42.33 6.32
-7 3 17 34.81 6.29
-17 3 -7 28.04 4.1
3 17 -7 31.64 5.58
-7 17 -3 31.04 5.16
-3 7 -17 30.76 6.09
7 17 3 35.94 4.88
3 -7 -17 30.49 5.62
-17 3 -7 34.06 3.81
-3 -7 17 32.31 5.79
-3 17 7 32.73 5.54
-17 -3 7 22.78 4.19
7 3 -17 27.04 5.32
3 7 17 34.32 5.7
17 -3 -7 37.38 4.65
-7 17 -3 23.52 5.21
17 7 -3 28.01 3.75
7 -17 -3 34.77 5.56
-17 7 3 25.58 4.37
-7 -3 -17 36.7 5.28
7 17 3 39.12 4.76
7 -3 17 33.51 5.53
-7 5 -17 1.64 1.59
-5 7 17 2.7 2.41
5 17 7 -0.66 0.74
17 5 -7 1.58 1.25
-7 -5 17 0 1.73
-17 7 -5 0.9 0.93
7 17 -5 -1.74 0.81
7 -5 -17 -1.39 0.77
5 17 7 0.09 0.69
5 -17 -7 2 1.69
-17 7 -5 0.71 0.95
-17 5 7 0.58 1.14
17 -7 -5 0.39 1.2
-5 -7 -17 0.32 1.09
-5 17 -7 -1.3 1.17
7 5 17 1.61 1.61
5 -7 17 -0.22 0.96
5 7 -17 0.43 1.32
-7 17 5 0.84 1.74
7 -17 -5 -0.25 1.01
-17 7 5 -0.28 0.87
17 7 -5 1.29 1.03
-7 17 -5 -0.51 1.29
7 17 5 1.4 1.01
7 17 5 1.26 1.02
5 -7 -17 1.25 1.52
-7 17 -5 -0.22 1.05
-5 7 -17 0.21 1.5
-17 -5 7 0.32 0.88
5 7 17 3.24 1.67
17 -5 -7 0.46 1.09
5 17 -7 2.27 1.79
-7 5 17 2.42 1.85
-5 17 7 -0.04 1.01
7 5 -17 -0.65 1.3
-7 -5 -17 0.55 1.15
-17 5 -7 0.49 1.02
-5 -7 17 -2.26 1.2
-17 5 -7 0.06 0.74
17 -7 -7 90.41 9.99
-7 17 7 82.41 11.06
7 7 -17 116.06 12.47
-7 7 -17 99.5 12.36
7 -17 -7 82.94 10.87
-7 -7 -17 96.2 10.38
-7 17 -7 68.91 10.78
-17 -7 7 87.33 9.7
-17 7 -7 84.72 9.22
7 -7 -17 79.6 11.22
7 -7 17 106.27 14.2
17 7 -7 99.51 9.78
-7 7 17 98.19 12.07
-7 -17 7 85.05 9.99
7 17 7 91.63 10.16
7 17 7 102.4 9.72
-17 7 -7 82.88 10.25
7 7 17 86.48 10.33
7 17 -7 104.15 11.06
-7 -7 17 79.72 11.09
-7 17 -7 87.18 10.58
1 -17 -9 94.96 11.83
1 9 -17 107.76 13.18
9 17 -1 94.23 11.09
9 17 -1 119.18 11.29
9 1 17 94.97 11.19
-1 17 -9 109.78 12.87
1 -9 17 105.58 12.68
-1 9 17 92.53 12.47
-9 1 -17 106.91 12.14
17 -9 -1 115.26 10.96
9 -1 -17 102.42 12.27
-17 -9 1 99.89 9.65
-17 1 9 99.32 11.36
-17 9 -1 108.86 11
-9 17 1 81.8 11.28
-1 -9 -17 97.78 12.07
-9 -1 17 97.06 12.29
17 1 -9 114.11 11.24
-1 -9 17 114.7 12.84
-1 -17 -9 119.91 12.32
17 -1 -9 109.58 11.02
-1 9 -17 101.21 13.06
-17 1 -9 112.16 10.07
-17 1 -9 103.11 9.53
-9 1 17 95.92 12.55
17 -9 1 91.67 10.57
9 17 1 93.51 10.92
-1 17 9 89.28 12.01
1 -9 -17 129.75 13.08
1 17 -9 92.92 12.35
-9 17 -1 107.49 11.91
-17 9 1 107.6 11.16
9 -1 17 108.49 11.78
17 9 -1 94.01 9.58
-9 17 -1 76.82 11.63
-17 -1 9 102.98 11.32
-9 -1 -17 106.06 11.5
9 1 -17 107.84 12.53
3 9 -17 64.65 9.29
-9 17 3 64.57 8.16
-17 -9 3 54.04 6.21
-17 9 -3 62.01 7
-17 9 -3 58.81 7.88
-17 3 9 62.92 7.86
-3 17 -9 51.34 8.58
-9 -3 17 48.73 8.05
9 17 -3 55.66 7.71
9 17 -3 47.43 6.91
-3 -9 -17 74.87 8.61
3 -17 -9 52.26 8
-3 9 17 52.06 8.65
-9 3 -17 53.87 8.24
3 -9 17 52.47 8.37
-3 17 -9 52.73 8
17 3 -9 62.7 7.24
3 17 9 54.77 7.83
9 -3 -17 58.8 8.45
17 -9 -3 61.02 7.2
-17 3 -9 58.63 6.89
9 17 3 61.41 7.6
9 3 -17 49.21 8.12
-17 3 -9 58.38 6.15
-9 3 17 56.34 8.71
3 9 17 58.31 8.41
-3 -9 17 65.79 8.81
-9 -3 -17 62.49 7.5
-9 17 -3 54.66 7.74
-3 -17 -9 70.84 8.37
-9 17 -3 56.85 8.41
17 9 -3 60.07 6.31
3 -9 -17 68.15 8.99
17 -3 -9 58.2 7.14
3 17 -9 53.43 8.25
-3 9 -17 60.79 9.14
-3 17 9 66.27 8.86
-17 9 3 62.54 7.48
9 -3 17 57.64 8.01
9 -17 -3 73.75 8.73
9 17 3 63.55 6.83
-17 -3 9 65.99 7.58
9 17 -5 17.48 3.77
5 -17 -9 24.75 6.32
5 17 9 20.38 4.11
9 -5 -17 24.57 5.06
9 5 17 19.65 3.81
17 -9 -5 18.36 3.67
-5 17 -9 17.26 4.88
5 -9 17 16.59 4.83
5 9 -17 17.83 5.1
-5 -9 -17 22.5 4.11
-17 5 9 20.75 4.02
-17 9 -5 19.81 3.24
-17 9 -5 23.84 4.4
-17 -9 5 18.26 3.06
-9 -5 17 21.91 4.87
-9 5 -17 19.08 5.74
-5 9 17 22.21 5.99
-5 -17 9 19.08 3.87
-9 17 5 26.61 6.34
-5 17 -9 27.62 4.88
17 5 -9 19.28 3.55
5 17 -9 13.25 4.26
9 -17 -5 21.84 4.44
-17 5 -9 16.86 2.78
17 9 -5 19.14 3.14
-17 -5 9 24.44 5.16
-9 5 17 26.85 5.52
9 17 5 21.95 3.49
9 17 5 22.46 3.25
5 9 17 21.87 4.49
5 -9 -17 25.04 5.22
-5 17 9 23.24 4.78
-9 -5 -17 21.84 3.74
9 -5 17 19.42 6.1
-17 5 -9 22.02 3.83
17 -5 -9 18.55 3.55
-9 17 -5 23.39 3.99
-9 17 -5 23.66 5.13
-17 9 5 21.65 4.07
-5 -9 17 11.08 3.77
-5 9 -17 18.88 5.58
9 5 -17 23.97 6.16
7 17 9 141.21 12.46
-17 9 -7 128.7 14.03
9 17 -7 111.58 13.12
17 -9 -7 123.79 13.04
-7 9 17 115.73 14.96
-9 -7 17 122.45 14.27
-9 7 -17 131.19 15.19
-9 17 7 108.95 13.96
-7 -9 -17 136.88 12.99
-7 17 -9 116.08 14.57
7 -17 -9 125.53 14.36
7 9 -17 153.61 15.33
-17 7 9 108.49 13.13
17 7 -9 104.49 12.32
9 7 17 137.24 13.29
-7 17 -9 123.1 13.51
9 -7 -17 116.5 14.22
-17 9 -7 120.95 12.31
-9 -17 7 117.79 12.83
-17 7 -9 111.24 13.11
-9 17 -7 104.53 13.13
9 17 7 103.22 12.32
-7 9 -17 130.6 15.45
9 17 7 101.28 11.77
-9 7 17 127.38 15.07
17 -7 -9 119.77 12.95
9 7 -17 134.81 14.76
-9 17 -7 107.82 14.33
-17 9 7 132.76 13.49
17 9 -7 126.36 12.55
-7 17 9 144.93 15.09
7 17 -9 118.99 13.79
-17 7 -9 131.48 12.16
9 -17 -7 103.43 13.51
-9 -7 -17 139.78 12.72
7 -9 -17 136.12 14.9
-7 -9 17 117.36 13.99
-9 17 -9 129.94 17.7
9 -9 -17 174.81 17.9
17 9 -9 129.2 15.42
9 17 -9 150.52 16.39
9 17 9 159.25 16.43
-9 17 9 126.66 17.02
-9 -17 9 172.4 16.35
-9 -9 -17 156.62 15.34
-9 -9 17 182.24 17.63
9 -17 -9 149.07 17.24
-9 9 -17 192.01 19.3
-9 17 -9 133.55 16.11
9 17 9 170.41 15.08
17 -9 -9 167.44 16.39
9 9 -17 193.03 18.39
-17 -9 9 150.69 15.59
-17 9 9 153.21 17.17
-9 9 17 157.49 18.45
-17 9 -9 158.41 17.27
-17 9 -9 157.97 15.32
-1 17 -11 24.07 6.69
11 1 17 23.84 4.09
-1 -11 -17 25.94 4.98
17 1 -11 21.67 4.06
1 -17 -11 23.76 5.04
-11 1 -17 26.29 4.76
-17 11 -1 21.92 3.98
17 -11 -1 22.62 4.09
-11 -1 17 24.82 5.02
-17 1 11 29.53 4.93
1 11 -17 22.1 5.92
17 11 1 26.95 2.57
-11 17 1 23.73 4.48
11 17 -1 21.66 4.7
-1 -17 11 35.17 5.47
11 17 -1 24.93 3.91
-1 11 17 20.95 5.85
11 -1 -17 26.06 5.19
1 -11 17 33.59 5.94
-1 -11 17 27.83 5.46
-1 17 11 14.13 4.61
-11 -1 -17 25.13 4.37
-17 1 -11 32.15 3.66
-1 11 -17 28.32 6.22
-11 17 -1 32.13 5.8
1 -11 -17 21.92 4.81
-11 17 -1 31.12 5.15
1 17 -11 29.47 5.86
11 17 1 24.98 3.73
17 -1 -11 25.97 4.44
11 1 -17 22.46 4.79
11 17 1 24.09 3.92
-17 11 1 23.15 4.2
-17 1 -11 25.55 2.91
17 11 -1 23.09 3.01
-1 -17 -11 20.66 4.55
-11 1 17 22.9 5.07
3 -17 -11 -0.27 1.11
-17 3 11 0.45 1.53
-11 -3 17 -0.69 1.5
11 -3 -17 -0.11 1.46
-3 -17 11 0.66 1.19
-3 17 -11 3.63 1.75
11 17 -3 0.23 0.9
17 3 -11 -0.3 0.94
3 -11 17 -0.57 1.64
-17 11 -3 0.82 0.95
-17 11 -3 1.87 1.59
-3 11 17 -0.07 1.76
17 -11 -3 0.18 1.06
3 17 11 -0.14 1.35
-17 -11 3 -0.25 0.72
3 11 -17 0.77 1.79
11 17 -3 -0.03 0.72
-3 -11 -17 3.06 1.61
-11 17 3 0.17 1.48
11 3 17 -1.2 0.57
11 -3 17 0.06 0.83
11 17 3 -0.74 0.72
3 17 -11 1.85 1.95
-11 -3 -17 0.85 0.85
-3 17 11 -0.06 1.24
3 11 17 -0.49 1.51
-17 -3 11 0.36 1.1
-11 17 -3 -1.69 0.76
17 -3 -11 1.43 1.62
-3 -17 -11 1.66 0.97
-11 17 -3 -0.52 0.94
17 11 -3 0.13 1.09
-3 -11 17 0.45 1.9
-3 11 -17 1.42 2.08
11 17 3 0.54 0.75
3 -11 -17 1.9 1.51
11 3 -17 1.75 1.45
11 -17 -3 1.14 1.44
-11 3 17 1.25 1.86
-17 3 -11 0.39 1.17
-17 11 3 -0.62 1.09
17 -11 -5 6.17 2.67
11 -5 -17 4.36 2.73
-5 11 17 1.1 1.99
5 17 11 8.18 3.21
-11 17 5 1.89 2.02
5 -11 17 5.36 3.46
5 11 -17 3.93 2.98
11 5 17 5.23 1.82
-5 -17 11 3.2 2.06
-5 -11 -17 4.27 2.38
-5 17 -11 5.85 2.91
-5 17 -11 8.15 3.84
-11 5 -17 4.5 2.35
17 5 -11 5.31 1.42
-11 -5 17 2.14 2.14
-17 11 -5 4.82 2.2
11 17 -5 5.36 2.18
-17 -11 5 2.62 1.3
-17 5 11 2.55 1.98
5 -17 -11 5.44 2.88
-17 5 -11 5.61 1.73
-5 -17 -11 2.19 1.57
11 -5 17 2.92 1.77
17 -5 -11 2.81 1.67
11 17 5 7.79 2.2
-5 -11 17 9.72 4.19
-5 11 -17 4.55 2.48
-5 17 11 4.94 2.67
-17 11 5 5.72 2.71
-11 17 -5 8.8 2.97
11 5 -17 0.92 2
5 11 17 1.98 1.52
11 -17 -5 5.25 2.2
17 11 -5 4.48 1.86
5 17 -11 6.55 3.54
11 17 5 5.82 2.73
-17 -5 11 4.83 2.37
-17 5 -11 5.39 2.45
-11 -5 -17 3.43 1.73
-11 5 17 3.19 2.33
5 -11 -17 0.47 1.56
-7 11 17 16.79 5.33
-11 -7 17 27.29 6.56
-17 7 11 17.88 5.68
-7 -17 11 16.85 3.47
-17 11 -7 15.49 3.07
11 7 17 17.04 3.02
11 -7 -17 25.84 4.87
7 -17 -11 10.56 3.95
17 -11 -7 15.42 3.49
-17 11 -7 23.4 6.36
7 11 -17 11.29 4.28
-7 -11 -17 17.97 3.42
7 17 11 21.64 3.94
11 17 -7 17.34 4.23
-7 17 -11 13.69 4.3
7 -11 17 8.62 3.28
-11 7 -17 27.96 7.91
17 7 -11 9.39 2.83
-11 17 7 20.41 5.36
-7 17 -11 25.84 6.96
7 -11 -17 21.51 5.67
11 -7 17 22.32 4.53
11 -17 -7 13.73 4.04
-17 -7 11 19.08 3.54
-17 7 -11 16.01 2.84
-11 -7 -17 16.7 2.79
7 11 17 20.56 3.96
11 17 7 14.81 2.87
-17 7 -11 23.9 4.43
-11 7 17 13.19 4.61
-11 -17 7 19.13 3.25
-11 17 -7 21.34 5.26
-11 17 -7 28.17 7.18
17 11 -7 13.33 2.93
7 17 -11 25.66 4.88
-7 -11 17 21.97 4.32
-7 11 -17 18.71 5.88
17 -7 -11 18.82 3.76
-7 17 11 15.83 4.88
11 7 -17 21.36 4.66
11 17 7 12.81 2.41
11 17 -9 45.53 6.3
17 -11 -9 41.36 6.06
9 11 -17 38.93 6.72
-11 17 9 42.05 7.83
11 -9 -17 38.54 6.82
-9 17 -11 36.69 7.83
-9 17 -11 35.52 5.82
-9 -11 -17 39.16 5.22
-9 11 17 42.53 7.71
17 9 -11 47.51 6.08
-11 -9 17 25.14 5.73
-17 11 -9 43.2 5.47
-9 -17 11 38.4 5.79
-17 11 -9 38.87 7.04
11 9 17 47.35 6.81
-17 -11 9 44.76 5.51
9 -17 -11 47.56 7.33
-17 9 11 33.93 6.16
9 17 11 32.99 5.22
9 17 11 36.92 4.66
11 17 9 35.65 4.36
11 17 9 40.13 5.61
17 11 -9 32.4 5.22
-9 -11 17 29.98 5.88
-11 17 -9 35.96 5.88
11 9 -17 36.75 6.6
17 -9 -11 44.38 6.13
9 -11 -17 48.67 7.35
-9 11 -17 58.7 11.03
-17 9 -11 38.92 6.58
-9 17 11 40.53 7.3
-11 9 17 45.69 12.21
-17 -9 11 44.32 5.8
-17 11 9 27.19 5.67
-11 -9 -17 37.39 4.62
-17 9 -11 34.12 4.92
11 -17 -9 30.92 6.21
9 17 -11 46.92 6.81
9 11 17 44.05 5.81
-11 17 -9 43.19 7.68
17 11 -11 4.18 2.23
11 11 17 5.52 1.99
17 -11 -11 4.95 2.54
11 11 -17 2.54 2.47
11 -17 -11 3.56 2.47
11 -11 -17 8.32 3.31
11 17 -11 7.11 3.24
11 17 11 4.67 1.86
11 17 11 5.92 1.29
-17 -11 11 4.57 2.2
-17 11 -11 8.35 2.64
-17 11 11 8.39 2.86
-11 -17 11 0.98 1.55
-11 -11 -17 3.21 1.49
-11 -11 17 5.07 2.54
-11 11 17 3.4 2.48
-11 17 -11 2.78 2.27
-11 17 11 4.15 2.97
-1 -13 -17 6.39 2.54
17 1 -13 9.05 3.1
13 17 -1 8.78 2.44
-13 -1 17 10.79 3.44
-13 1 -17 14.04 4.09
13 -1 -17 6.18 2.68
-17 13 -1 15.41 3.99
-13 17 1 10.14 3.68
1 -17 -13 8.38 3.43
-1 -17 13 13.58 4.23
17 13 1 8.92 1.41
-17 1 13 11.73 3.71
17 13 1 6.85 1.29
17 -13 -1 10.1 3.13
13 1 17 15.29 5.33
1 13 -17 19.7 5.74
13 17 -1 14.47 3.55
-1 17 -13 17.39 5.23
-1 13 -17 14.53 5.18
13 17 1 9.7 2.53
17 13 -1 9.32 1.88
17 13 -1 8.43 1.79
-1 -13 17 10.43 3.86
-13 17 -1 9.93 3.21
1 -17 13 11.97 4.32
1 17 -13 10.07 4.7
13 17 1 11.28 2.13
-13 1 17 8.34 3.56
-13 17 -1 4.69 2.41
1 -13 -17 7.64 3.84
-17 1 -13 7.14 1.48
-17 1 -13 11.61 2.08
-17 13 1 14.18 4.19
13 1 -17 10.1 3.81
-1 -17 -13 10.04 3.87
-17 -1 13 8.26 3.12
-1 17 13 4.67 3.21
-13 -1 -17 7.09 2.35
17 -1 -13 10.31 3.29
13 -1 17 9.49 3.09
-17 13 -3 1.92 1.5
17 3 -13 0.59 1.38
-3 -17 13 2.86 1.81
-3 17 -13 4.11 2.93
13 3 17 2.65 1.37
13 -3 -17 5.11 2.45
3 -17 -13 2.79 2.51
3 17 13 5.73 2.65
-13 3 -17 0.6 1.66
17 -13 -3 1.1 1.46
-13 17 3 4.26 2.57
-3 -13 -17 1.85 1.38
-3 13 17 -0.13 1.77
3 -13 17 2.1 2.16
3 13 -17 2.71 2.28
-17 -13 3 1.56 1.06
-17 13 -3 -1.1 0.98
13 17 -3 2.76 1.7
-13 -3 17 3.38 2.52
-17 3 13 1.03 1.69
3 13 17 0.73 1.88
-13 17 -3 4.72 2.57
13 -17 -3 -0.21 1.25
-17 13 3 2.52 1.42
-13 -3 -17 0.11 1.03
-13 3 17 3.52 2.39
13 17 3 0.09 0.81
-13 17 -3 2 1.52
-3 -17 -13 0.06 1.69
13 17 3 2.07 1.19
3 17 -13 -1.81 1.85
13 -3 17 1.39 1.49
3 -13 -17 0.71 1.86
-3 -13 17 0.82 1.56
-17 3 -13 3.33 1.21
17 -3 -13 1.28 1.52
-3 13 -17 1.54 2.85
-17 -3 13 1.14 1.87
13 3 -17 0.67 1.43
-17 3 -13 3.15 1.81
-3 17 13 1.11 2.47
-17 5 13 7.63 3.08
5 -13 17 27.08 5.33
17 -13 -5 18.14 3.72
-17 13 -5 18.05 3.37
-13 -5 17 9.15 3.38
-13 5 -17 11.55 3.96
-17 -13 5 14.48 2.69
13 -5 -17 19.04 5.37
-5 -17 13 14.92 4.35
-17 13 -5 20.26 5.86
-5 -13 -17 18.82 3.87
5 -17 -13 22.27 6.1
-5 17 -13 13.89 4.69
17 5 -13 13.87 3.52
-5 13 17 11.76 4.04
13 17 -5 10.32 3
5 17 13 12.75 3.99
13 5 17 11.39 2.26
5 13 -17 14.63 4.86
-13 17 5 28.31 6.96
13 -17 -5 9.9 3.72
5 17 -13 25.59 6.55
13 17 5 19.43 2.75
13 5 -17 14.19 4.35
-17 -5 13 16.75 3.67
5 -13 -17 13.92 4.3
-17 5 -13 20.36 5.02
17 13 -5 15.79 2.9
-5 -13 17 22.66 4.27
-13 5 17 24.74 4.98
-5 -17 -13 18.98 3.8
17 -5 -13 14.19 4.27
-17 13 5 10.74 3.42
-13 -5 -17 14.78 2.39
-5 17 13 16.46 5.05
5 13 17 19.42 5.33
-13 17 -5 11.28 3.95
-5 13 -17 19.59 6.72
13 17 5 12.31 2.21
-17 5 -13 16.78 2.6
-13 17 -5 12.27 3.73
17 -13 -7 6.09 2.89
-7 17 -13 9.95 4.4
-13 -7 17 3.83 2.2
-17 13 -7 4.97 2.18
-17 7 13 0.98 2.1
-7 -17 13 8.72 3.45
-7 17 -13 7.31 3.4
-17 -13 7 4.3 1.73
13 7 17 7.48 1.79
-13 17 7 8.51 3.61
7 17 13 5.8 2.2
7 13 -17 5 2.86
17 7 -13 8.97 3.01
-7 13 17 4.46 2.98
7 -17 -13 3.11 2.51
-7 -13 -17 1.48 1.42
13 -7 -17 7.55 3.46
-17 13 7 3.05 2.01
-7 -13 17 5.2 2.82
13 -17 -7 5.37 2.62
-7 -17 -13 2.28 1.69
7 -13 -17 2.81 2.34
-13 7 17 4.16 2.62
7 17 -13 2.14 2.29
-13 17 -7 5.86 3.64
13 17 7 6.14 1.79
17 13 -7 5.11 1.76
-7 13 -17 10.7 6.57
17 -7 -13 5.39 2.64
-17 -7 13 2.56 1.61
-17 7 -13 5.87 2.04
-17 7 -13 8.31 3.17
13 17 7 7.91 1.78
-13 -17 7 3.94 2.03
-13 17 -7 3.44 2.15
-13 -7 -17 6.29 1.51
7 13 17 2.13 1.77
-7 17 13 4.07 2.9
13 7 -17 2.91 2.29
13 -9 -17 16.03 8.25
-13 9 -17 13.14 2.87
-17 -13 9 9.31 2.73
17 9 -13 11.6 3.86
-13 -9 17 6.97 3.09
9 13 -17 11.65 3.9
-17 13 -9 16.97 4.01
13 17 -9 20.4 4.92
-9 -17 13 12.85 3.81
9 -17 -13 11.75 4.49
-9 17 -13 25.05 4.48
-9 -13 -17 7.03 2.26
17 -13 -9 21.06 5.19
-13 17 9 10.68 4.79
9 17 13 14.88 2.9
-17 9 13 6.26 2.69
-9 13 17 17.29 5.82
13 9 17 12.31 1.87
-13 -9 -17 11.52 1.73
-17 9 -13 13.67 2.76
-9 17 13 25.2 7.77
13 17 9 13.39 1.98
17 -9 -13 9.83 3.43
-17 -9 13 17.13 4.45
-9 -13 17 10.42 3.32
9 -13 -17 9.41 3.93
-13 -17 9 15.37 3.99
13 9 -17 20.28 5.55
13 17 9 16.17 2.12
-13 9 17 13.25 4.54
-17 13 9 13.92 4.42
17 13 -9 15.97 3.14
9 17 -13 17.06 4.75
9 13 17 19.48 3.54
17 11 -13 0.74 1.23
-11 -13 -17 0.26 0.81
-13 -11 17 -1.8 1.59
17 -13 -11 -0.47 1.71
11 17 13 0.42 1.12
11 13 -17 -2.27 1.14
13 -11 -17 1.76 1.98
13 11 17 1.65 0.56
-17 13 -11 0.08 1.01
-13 11 -17 0.36 1.23
13 17 -11 0.29 1.63
-11 17 -13 1.81 1.97
11 17 13 0.45 0.54
-17 -13 11 1.14 1.22
13 11 -17 -0.32 1.35
-17 -11 13 3.01 2.03
17 -11 -13 3.63 2.13
-17 11 -13 0.81 1.14
13 -17 -11 1.48 1.87
17 13 -11 -1.08 1.11
-13 17 -11 0.11 0.96
-11 -13 17 0.03 1.24
11 17 -13 0.11 1.04
11 13 17 1.46 1.19
13 17 11 0.61 0.7
-13 -17 11 -0.38 1.09
-11 13 -17 0.88 0.99
-17 13 -13 2.44 1.77
13 13 -17 7.48 3.66
-17 -13 13 3.62 1.98
-17 13 13 1.48 2.6
-13 13 -17 6.48 2.97
13 17 -13 8.7 3.27
13 17 13 4 1.26
13 17 13 5.37 0.95
17 -13 -13 5.65 3.19
17 13 -13 4.84 2.52
-13 -17 13 2.04 1.95
-13 -13 17 2.52 2.3
17 15 1 43.63 4.59
15 17 -1 37.43 5.5
-1 -17 15 32.99 6.38
17 15 1 42.56 4.62
-17 -1 -15 41.95 4.29
-15 -1 17 46.83 7.34
-15 1 -17 44.51 5.33
15 17 -1 55.46 6.93
-1 17 -15 46.88 8.63
1 15 -17 45.6 8.64
15 -1 -17 47.15 7.11
-15 17 1 35.44 6.23
-15 1 -17 45.49 6.19
17 -15 -1 48.13 6.54
1 -15 17 44.3 7.59
-17 -1 -15 41.84 4.48
-17 1 15 44.61 6.98
-17 15 -1 49.63 6.7
-17 1 -15 47.88 5.56
1 -17 15 51.68 7.75
17 15 -1 46.01 5.07
-1 15 -17 47.95 8.47
15 1 -17 39.62 6.75
15 17 1 43.55 5.37
-17 1 -15 39.79 4.67
-15 17 -1 44.24 6.54
-15 1 17 42.95 7.12
15 17 1 44.05 5.08
17 -1 -15 40.83 6.55
-17 -1 15 56.03 8.1
17 15 -1 49.86 5.41
-17 15 1 44.49 6.5
1 17 -15 40.28 7.77
-1 -15 17 36.89 7.08
-17 3 15 5.79 3
-15 -3 17 18.88 4.04
-15 17 3 16.3 4.65
17 -15 -3 12.09 3.76
3 -15 17 9 4.27
15 -3 -17 12.62 4.23
15 17 -3 13.05 3.57
-15 3 -17 13.39 4.22
17 3 -15 19.13 4.75
-3 -17 15 12.72 4.14
-3 17 -15 9.27 4.07
3 15 -17 13.46 4.62
-15 3 -17 8.32 2.28
-17 15 -3 8.3 2.77
15 17 -3 11.26 2.52
15 17 3 11.78 2.01
17 -3 -15 14.01 3.87
15 -17 -3 8.76 3.25
-15 17 -3 8.81 2.83
-15 3 17 14.3 5.01
17 15 -3 16.28 5.03
-3 -15 17 5 2.69
-17 3 -15 15.57 3.3
-17 3 -15 9.47 2.04
3 17 -15 24.24 5.03
-17 -3 15 11.86 3.52
3 -17 15 10.32 3.76
-15 -3 -17 12.11 1.98
-17 15 3 7.06 3
15 3 -17 13.19 4.54
-3 15 -17 11.13 5.64
17 5 -15 0.67 1.16
-15 17 5 4.05 1.59
-5 17 -15 -2.01 2.25
-15 -5 17 3.09 1.89
15 17 -5 -0.03 0.95
15 -5 -17 0.22 1.42
-17 15 -5 -0.89 0.89
5 15 -17 3.07 2.53
17 -15 -5 -1.95 0.83
-17 -15 5 1.26 1.11
-17 5 15 4.31 2.28
-15 5 -17 0.45 1
-5 -17 15 -0.53 1.18
15 17 5 0.16 0.65
15 -17 -5 -1.83 1.02
17 -5 -15 2.27 1.97
-15 5 17 1.16 1.94
15 5 -17 -0.04 1.45
-17 5 -15 0.95 1.74
-15 17 -5 -0.18 0.96
5 17 -15 -0.38 1.55
-5 -15 17 2.17 1.82
-17 15 5 2.11 1.8
15 17 5 0.63 0.6
-17 -5 15 2.01 1.91
-17 5 -15 -0.02 0.7
17 15 -5 1.65 1.48
-7 -17 15 21.73 4.64
7 15 -17 13.35 4.17
-17 15 -7 24.33 4.25
-15 7 -17 21.9 3.67
17 7 -15 18.99 4.1
-7 17 -15 23.24 4.92
-17 -15 7 23.1 3.8
15 -7 -17 34.95 5.72
-17 7 15 32.18 5.64
17 -15 -7 24.72 4.65
-17 15 7 37.2 5.21
17 15 -7 26.07 4.15
-15 -17 7 26.51 4.12
-15 7 17 15.45 4.61
-7 -15 17 27.73 5.28
7 17 -15 26.86 5.79
-17 7 -15 23.65 3.7
17 -7 -15 29.08 4.95
-17 -7 15 19.86 4.44
15 -17 -7 22.17 4.75
-15 17 -7 19.65 4.2
15 7 -17 22.24 5.9
15 -9 -17 52 8.08
-17 9 15 56.11 8.53
9 15 -17 59.34 8.78
17 9 -15 50.82 7.31
17 -15 -9 56.72 7.89
-15 -9 17 51.08 7.78
-17 15 -9 53.62 6.92
-17 -15 9 55.06 6.58
-9 17 -15 45.59 7.48
-15 17 9 44.66 8.01
-9 -17 15 42.81 6.78
17 15 -9 57.92 7.11
-15 -17 9 54.98 6.77
17 -9 -15 51.81 7.53
15 -17 -9 38.26 7.61
-17 15 9 41.57 7.53
-17 -9 15 60.91 7.92
-15 17 -9 48.08 6.82
-9 -15 17 54.21 7.96
-15 9 17 52.3 8.92
-17 9 -15 51.06 6.37
15 9 -17 46.05 7.5
9 17 -15 67.04 8.86
15 -11 -17 2.04 2.68
-17 11 15 2.19 2.46
-11 17 -15 1.18 1.52
-15 11 -17 4.42 1.51
-11 -17 15 8.7 2.88
-17 -15 11 5.04 2.14
-17 15 -11 2.74 1.55
11 17 15 5.12 1.42
17 11 -15 2.48 1.73
11 15 -17 9.74 3.75
17 -15 -11 7.12 3.28
15 17 -11 2.23 1.69
-15 -11 17 7.42 3.08
15 11 -17 6.35 3.21
17 15 -11 6.3 2.72
-15 -17 11 6.28 2.39
-17 11 -15 6 2.34
-17 15 11 3.03 2.6
17 -11 -15 5.03 2.92
-17 -11 15 7.34 2.77
-15 17 -11 5.84 2.75
-11 -15 17 3.9 2.09
15 -17 -11 2.18 2.84
11 17 -15 7.26 2.72
-11 15 -17 1.83 1.92
13 15 -17 2.65 2.26
-13 17 -15 3.02 1.67
-15 13 -17 0.34 1.42
-17 13 15 -0.77 2.83
13 17 15 0.44 0.59
17 -15 -13 0.79 2.18
-17 -15 13 0.72 1.46
-17 15 -13 -1.15 1.25
-13 -17 15 -2.03 1.41
-15 -13 17 0.21 1.59
13 17 15 1.28 0.57
-17 15 13 -2.08 1.6
13 15 17 0.31 0.63
17 -13 -15 0.98 2.09
-15 -17 13 0.95 2.18
-15 17 -13 -1.86 1.62
-13 -15 17 -1.06 1.56
-13 15 -17 -1.79 1.06
-17 -13 15 -1.03 1.72
-17 13 -15 -1.72 1.11
13 17 -15 -3.12 1.47
15 13 -17 2.12 1.66
-15 -15 17 37.18 10.71
17 17 1 66.29 6.87
17 17 1 68.42 6.94
17 17 -1 65.63 7.19
17 -1 -17 61.69 8.9
17 1 -17 67.97 9.23
17 17 -1 73.7 7.79
-17 17 -1 52.64 8.25
-17 17 1 68.2 9.02
-1 17 -17 71.68 11.94
1 17 -17 93.72 11.82
-17 1 17 61.75 9.32
-17 -1 -17 62.89 6.43
-17 -1 17 77.7 9.6
-17 1 -17 66.5 6.81
-17 1 -17 65.81 7.6
17 3 -17 42.39 6.39
17 17 -3 39.39 5.57
3 17 -17 48.09 8.22
17 -17 -3 37.29 5.91
17 -3 -17 34.24 5.93
-3 -17 17 24.55 5.4
-17 17 -3 28.53 5.07
-17 17 3 34.61 6.15
-17 3 -17 29.08 3.95
-17 3 17 33.51 6.4
-17 -3 17 21.75 5.21
17 -17 -5 2.98 2.52
-17 5 -17 1.52 1.13
-17 5 17 -0.56 1.7
-17 17 5 0.95 2.03
-17 -5 17 3.57 1.92
-17 17 -5 2.99 1.49
17 -5 -17 1.13 2.23
17 5 -17 5.16 2.28
17 17 -5 0.37 1.24
5 17 -17 5.43 4.12
17 17 -7 50.93 5.98
17 -17 -7 34.09 6.38
17 -7 -17 49.2 7.12
17 7 -17 39.22 6.54
-7 -17 17 37.83 7.07
7 17 -17 30.65 7.08
-17 -7 17 40.4 6.84
-17 7 -17 40.13 5.25
-17 7 17 47.61 7.78
-17 17 -7 52.79 6.77
-17 17 7 35.75 7.06
-17 -9 17 81.33 9.98
-17 9 -17 60.98 8.04
-17 9 17 69.39 10.46
-9 -17 17 75.87 9.88
-9 17 -17 66.67 9.65
9 17 -17 90.48 11.41
17 -17 -9 73.58 9.95
17 -9 -17 95.69 10.68
17 9 -17 62.7 9.33
-17 -11 17 23.12 4.7
-11 -17 17 24.06 6.19
17 11 -17 16.91 5.48
11 17 -17 14.25 5.43
-11 17 -17 9.07 3.15
-13 -17 17 1.56 2
0 0 18 189.37 21.5
18 0 0 212.59 18.99
-18 0 0 197.42 19.22
0 0 -18 229.67 22.16
0 18 0 218.83 21.08
-2 18 0 58.95 7.85
18 2 0 57.74 5.87
0 18 2 61.53 7.83
2 0 -18 58.81 8.49
18 0 -2 55.28 6.18
18 0 2 55.89 5.84
-2 18 0 60.07 7.85
0 -2 -18 59.2 8.4
0 -2 18 62.74 8.7
2 0 18 51.81 8.05
18 -2 0 61.35 6.28
0 18 -2 49.54 7.5
0 18 -2 66.54 8.23
0 2 -18 56.91 8.64
0 2 18 48.9 7.89
2 18 0 53.2 7.55
2 18 0 48.51 7.11
-18 2 0 64.8 6.62
-2 0 -18 62.85 8.42
-2 0 18 58.51 8.36
-18 0 2 62.88 6.67
-2 18 2 33.84 5.56
-2 18 2 34.66 5.6
2 -2 -18 32.26 6.12
-2 2 -18 37.81 6.66
-2 2 18 37.92 6.43
-18 -2 2 32.33 4.3
-18 2 -2 34.54 4.26
-18 2 2 38.87 4.73
-2 -2 -18 34.6 6.07
-2 -2 18 27.66 5.95
-2 18 -2 41.06 5.97
-2 18 -2 32.56 5.56
18 -2 -2 31.5 4.24
18 -2 2 34.84 4.1
18 2 -2 33.17 4.07
-18 -2 -2 34.88 3.8
2 18 2 29.44 5.22
2 18 2 44.63 5.71
2 18 -2 38.83 5.8
2 -2 18 37.64 6.37
2 2 -18 37.88 6.45
2 2 18 37.31 7.2
4 18 0 -0.27 0.93
0 4 -18 2.38 2.08
0 4 18 4.42 2.87
-18 0 4 1.52 1.11
-4 18 0 0.75 1.43
-4 18 0 0.8 1.27
-18 0 -4 1.45 0.78
-18 0 -4 0.32 0.63
18 4 0 1.76 0.75
0 18 -4 1.71 1.82
-18 -4 0 2.02 0.95
0 -4 -18 0.71 1.24
0 -4 18 0.35 1.55
18 -4 0 0.71 0.74
0 18 4 3.48 2
18 0 -4 0.68 0.8
-18 4 0 0.81 0.87
-4 0 -18 2.44 1.86
-4 0 18 3.7 2.47
0 18 -4 1.6 1.75
0 18 4 0.33 0.76
4 0 -18 1.03 1.54
-2 -4 -18 1.64 1.8
18 -4 -2 1.49 0.9
18 2 -4 1.58 0.88
-18 4 -2 0.05 0.68
2 -4 18 1.24 1.55
-2 18 -4 1.49 1.34
-4 -2 18 3.41 2.23
2 18 4 2.52 1.5
4 -2 -18 3.09 2.76
4 18 -2 0.39 1.36
-18 2 4 1.26 1.04
-2 4 18 1.32 2.63
4 2 18 0.84 1.67
-18 -4 2 1.75 1.04
-4 18 2 2.81 1.62
-2 18 -4 -1.06 1.2
4 18 -2 1.24 1.23
-4 18 2 1.22 1.31
2 4 -18 3.33 2.36
-4 2 -18 1.15 1.79
18 -2 -4 1.39 1.06
-18 2 -4 1.52 0.96
18 -4 2 2.21 1.03
-2 -4 18 2.21 2.05
4 2 -18 1.65 1.93
2 18 -4 3.15 2.06
18 4 -2 2 0.91
-2 4 -18 -0.49 1.4
-2 18 4 3.21 1.78
-4 18 -2 -0.01 1.24
-4 18 -2 1.43 1.56
-18 2 -4 2.31 1.28
-18 4 2 0.9 1.17
-4 2 18 1.05 1.62
-4 -2 -18 2.67 1.68
4 18 2 -0.54 0.83
-18 -2 4 1.39 1.12
2 -4 -18 1.07 1.41
2 18 -4 1 1.15
4 4 18 37.53 6.39
-18 4 -4 44.55 4.92
4 -18 -4 42.51 6.54
4 -4 -18 46.4 7.19
4 -4 18 41.71 6.87
-4 4 18 42.26 7.11
4 18 -4 36.29 6.14
-4 18 -4 37.56 6.54
-4 18 4 44.21 6.39
18 4 -4 42.69 4.87
-18 4 -4 41.97 5.31
4 18 4 41.17 6
-4 18 -4 38.69 6.2
-4 -4 18 37.87 6.67
4 4 -18 37.75 6.69
-4 4 -18 54.52 7.9
-18 -4 4 41.25 5.01
-4 -4 -18 33.9 5.92
-18 4 4 45.85 5.65
4 18 4 31.89 5.24
18 -4 -4 37.54 5.1
-18 0 -6 25.27 2.81
-6 18 0 24 4.97
-18 0 6 19.06 3.68
0 -6 -18 24.99 5.05
-6 0 18 26.9 5.38
0 -18 -6 28.42 4.93
0 18 -6 33.21 5.41
0 18 6 19.51 4.17
6 0 -18 25.82 5.27
6 0 18 16.92 4.68
18 -6 0 26.62 3.58
18 6 0 24.83 2.64
-18 0 -6 23.37 2.65
-18 -6 0 25.66 2.76
-18 6 0 19.13 3.42
-6 0 -18 25.36 4.83
6 18 0 17.65 3.71
18 0 -6 19.2 3.3
0 -6 18 19.95 4.6
0 6 -18 32.71 6.12
0 6 18 20.93 4.74
6 18 0 17.37 3.88
-6 18 0 26.41 4.75
18 2 -6 7.6 2.08
6 2 18 4.99 2.28
-2 18 -6 12.59 4.32
2 6 -18 10.65 4.37
-18 -6 2 10.96 2.71
6 -2 -18 8.54 3.52
-6 2 -18 8.4 3.66
-18 6 -2 3.71 1.65
2 -18 -6 4.75 2.42
-6 18 2 10.35 3.56
-2 -6 -18 14.69 4.51
6 18 -2 6.11 2.67
2 -6 18 8.38 3.57
18 -6 -2 5.35 1.83
-2 6 18 10.63 3.78
-2 18 -6 4.69 2.43
-18 2 6 2.99 2.76
-6 -2 18 5.57 2.78
-6 -2 -18 11.78 3.98
-6 2 18 9.65 3.69
-18 2 -6 7.16 1.51
-18 2 -6 8.06 2.12
-2 -6 18 9.79 3.94
-18 -2 6 7.96 2.44
18 6 -2 5.72 1.54
-6 18 -2 6.94 2.89
6 18 2 6.5 2.47
18 -2 -6 10.5 2.71
2 -6 -18 6.74 3.05
-2 6 -18 7.53 3.27
-6 18 -2 6.96 3.03
-2 18 6 7.58 3.11
-18 6 2 4.57 2.91
2 18 -6 3.84 2.14
2 18 -6 8.55 3.34
6 2 -18 6.52 2.95
6 18 2 8.29 2.57
6 4 18 15.83 4.1
-4 6 18 21.68 5.89
-4 -6 -18 16.61 3.61
6 18 -4 19.09 3.55
-6 18 4 19.28 4.92
18 -6 -4 13.11 2.74
4 -6 18 11.84 3.97
4 6 -18 16.81 5.05
-18 4 6 11.46 3.07
-18 -6 4 13.69 2.55
-18 6 -4 11.31 2.35
-18 6 -4 11.86 3.25
18 4 -6 14.33 2.58
-6 -4 18 18.39 5.33
-6 4 -18 13.24 4.35
6 -4 -18 17.99 5.37
4 18 6 10.89 3.13
-4 18 -6 13.05 3.76
-4 18 -6 25.97 4.91
4 -18 -6 12.05 3.84
4 18 6 20.95 3.66
-6 -4 -18 17.23 4.54
-18 4 -6 10.91 2.16
4 6 18 21.45 4.37
-6 18 -4 18.52 3.91
6 -18 -4 10.79 3.23
6 18 4 6.45 2.43
-4 18 6 14.62 4.17
-4 6 -18 16.32 4.8
4 18 -6 20.79 4.18
4 18 -6 24.34 4.37
4 -6 -18 26.72 6.35
-6 18 -4 19.03 5.02
-18 -4 6 11.95 2.56
6 4 -18 9.6 3.56
-18 4 -6 19.57 3.16
18 6 -4 11.86 2.24
-6 4 18 17.55 5.31
18 -4 -6 14.75 2.87
-4 -6 18 17.51 5.28
-18 6 4 8.18 2.62
18 6 -6 -0.19 0.72
6 6 18 0.51 1.01
18 -6 -6 2.08 1.32
-18 6 6 0.88 1.29
-6 -6 18 -1.12 2.41
-6 -6 -18 1.86 1.59
-6 6 -18 0.85 2.08
-18 6 -6 -0.03 1.17
-18 6 -6 0.19 0.74
6 18 6 0.76 0.88
6 -6 -18 -0.11 1.75
-18 -6 6 0.29 0.85
-6 18 -6 -1.24 1.19
-6 18 -6 0.81 1.69
-6 18 6 0.05 1.62
-6 6 18 -1.33 1.1
6 18 6 -0.36 0.85
6 6 -18 0.39 1.84
6 -6 18 0.26 1.27
6 18 -6 0.93 1.98
8 18 0 89.87 9.54
0 -8 -18 77.82 10.23
0 8 18 79.84 13.6
18 0 -8 87 8.75
-18 0 -8 69.79 6.89
-18 0 -8 79.23 7.07
-18 0 8 83.98 9.15
18 -8 0 67.99 8.22
-18 -8 0 72.61 7.01
-18 8 0 73.72 8.46
8 0 -18 79.8 10.41
8 0 18 63.61 9.15
0 8 -18 82.55 11.02
-8 18 0 86.18 9.91
-8 0 -18 91.39 10.18
-8 0 18 57.88 9.72
0 -18 -8 72.51 9.76
0 18 -8 89.31 10.44
0 18 -8 85.74 10.41
0 18 8 74.33 11.82
18 8 0 72.42 6.92
0 -8 18 56.56 9.31
-8 18 0 73.46 9.85
-18 -8 2 53.87 5.62
18 -8 -2 51.96 6.39
8 18 -2 49.15 7.62
-2 18 -8 57.97 8.01
8 -2 -18 40.13 7.3
-8 18 2 55.31 7.52
-2 18 -8 65.04 8.78
2 -18 -8 53.6 7.75
2 -8 18 63.22 8.66
2 8 -18 55.71 8.74
8 2 18 46.88 7.13
-8 -2 18 51.5 8.1
-18 2 8 45.04 6.64
-8 2 -18 62.23 8.4
-2 8 18 49.35 8.7
8 18 -2 53.75 9.03
-18 8 -2 57.26 6.55
-2 -8 -18 56.65 7.85
18 2 -8 46.95 6.3
-18 2 -8 54.7 6.05
-2 8 -18 43.74 8.19
2 18 -8 64.43 8.61
-18 2 -8 55.23 5.49
-18 -2 8 43.57 6.48
-18 8 2 40.43 6.23
8 18 2 60.82 6.7
18 -2 -8 48.92 6.28
18 8 -2 52.88 5.55
-2 18 8 55.62 8.18
-2 -8 18 49.07 8
-8 2 18 67.82 9.04
-2 -18 -8 45.03 7.11
-8 -2 -18 51.94 7.33
2 -8 -18 60.16 8.48
-8 18 -2 59.71 7.7
-8 18 -2 73.97 8.89
8 2 -18 49.41 7.91
8 18 2 46.12 6.71
8 -2 18 65.61 9.24
-18 8 -4 7.13 2.76
18 -8 -4 9.23 2.81
-18 -8 4 4.59 1.51
-8 18 4 7.01 3.28
-4 -8 -18 7.38 3.34
-4 18 -8 5.8 2.59
4 18 8 3.94 2.04
-4 8 18 5.24 2.97
8 18 -4 1.08 1.36
8 18 -4 9.85 3.16
-8 -4 18 4.13 2.34
-8 4 -18 5.93 4.06
4 -8 18 2.07 2.87
4 8 -18 6.23 3.09
-4 18 -8 6.87 3.47
18 4 -8 5.64 2.21
4 -18 -8 6.39 2.67
8 4 18 7.05 3.09
-18 8 -4 2.99 1.48
-18 4 8 2.55 1.56
8 -4 -18 8.96 3.88
-18 4 -8 3.83 1.53
4 -8 -18 2.3 2.01
-18 -4 8 2.03 1.28
18 8 -4 4.83 1.46
-8 -4 -18 10.67 3.28
8 4 -18 5.02 2.42
8 18 4 2.82 1.41
18 -4 -8 4.02 1.74
-8 18 -4 3.96 2.37
-4 8 -18 7.43 3.3
-18 4 -8 4.65 1.43
-18 8 4 3.26 1.62
8 -4 18 4.33 2.29
4 18 -8 6.01 2.9
8 -18 -4 4.61 2.28
4 8 18 4.57 2.53
-8 18 -4 11.51 3.54
-4 -8 18 5.23 2.96
-4 18 8 5.34 3.01
-8 4 18 3.48 2.59
8 18 4 4.56 1.99
18 6 -8 39.2 5.1
-18 8 -6 34.07 5.63
-18 8 -6 34.98 4.72
18 -8 -6 34.73 5.23
-6 18 -8 26.03 5.43
6 18 8 36.73 5.75
6 18 8 27.91 4.65
-6 -18 8 40.6 5.61
-8 18 6 42.62 6.66
8 18 -6 41.88 5.93
-18 6 8 39.87 5.8
6 -18 -8 37.47 6.32
-6 18 -8 37.95 6.98
8 -6 -18 39.39 7
-8 6 -18 44.23 7.31
-6 -8 -18 31.78 7.16
6 8 -18 42.41 7.14
-6 8 18 45.11 8.56
-8 -6 18 45.22 7.06
-18 -8 6 39.62 4.94
6 -8 18 51.05 7.58
8 -18 -6 39.81 6.49
-18 6 -8 50.15 6.18
-8 18 -6 43.88 6.28
-18 6 -8 35.99 4.46
-8 18 -6 37.94 6.93
6 18 -8 49.41 6.82
8 6 -18 45.29 7.06
18 -6 -8 34.72 5.22
-18 8 6 31.77 5.32
18 8 -6 34.03 4.67
8 18 6 29.18 4.63
6 -8 -18 38.96 6.63
-6 18 8 46.51 8.04
-8 6 18 36.59 6.89
-6 8 -18 23.15 7.02
-8 -6 -18 38.37 5.54
6 8 18 41.14 6.34
-18 -6 8 37.22 5.18
-6 -8 18 33.52 6.25
-8 -8 18 120.08 14.53
8 18 8 133.15 13.53
8 -8 -18 119.41 14.86
-8 18 -8 139.33 14.25
-8 8 -18 116.12 15.44
-18 -8 8 115.02 12.61
18 8 -8 108.29 12.39
8 18 -8 101.72 13.34
-8 18 -8 142.84 17.02
8 8 -18 108.89 14.53
8 8 18 126.36 13.6
-18 8 -8 119.39 13.69
-18 8 8 116.49 13.46
-18 8 -8 116.54 12.25
8 -18 -8 145.98 15.11
18 -8 -8 113.12 12.96
-8 -8 -18 150.96 13.59
8 18 8 146.74 12.62
18 0 -10 55.09 6.79
-10 0 -18 53.69 8.71
-10 0 18 40.25 7.52
0 -10 18 68.54 8.94
-18 0 10 46.16 6.8
-10 18 0 44.07 7.27
0 10 -18 49.64 8.75
10 0 -18 53.06 8
0 18 -10 49.27 8.14
10 18 0 60.79 6.83
18 10 0 53.87 5.07
10 18 0 56.25 7.14
-18 10 0 55.87 6.89
0 -10 -18 58.93 8.12
18 -10 0 54.63 6.66
0 -18 -10 49.95 7.58
-10 18 0 47.97 7.79
10 0 18 49.51 7.04
2 18 10 14.52 4.52
-18 10 -2 16.52 3.09
10 18 -2 15.3 2.95
2 -10 18 8.71 4.85
-10 2 -18 23.58 5.89
-2 18 -10 11.19 4.08
-18 -10 2 11.42 2.07
-10 18 2 22.3 4.59
18 -10 -2 14.31 2.93
-18 2 10 16.56 3.59
-10 -2 18 22.5 5.71
10 18 -2 10.59 3.49
-2 -10 -18 9.77 3.26
-2 18 -10 25.55 6.68
2 10 -18 15.93 5.02
2 -18 -10 10.86 3.6
-2 10 18 26.89 6.81
18 2 -10 9.65 2.8
10 -2 -18 22.95 6.16
-18 2 -10 13.7 2.04
10 2 -18 19.58 5.38
-10 18 -2 12.36 4.38
18 10 -2 16.35 2.24
-18 -2 10 10 3.11
2 -10 -18 14.2 4.41
-10 -2 -18 17.83 3.55
10 18 2 11.46 2.58
-10 18 -2 21.37 5.23
-18 2 -10 14.37 2.59
-10 2 18 10.17 3.83
-2 -18 -10 15.99 4.59
2 10 18 20.51 5.72
10 -2 18 23.77 5.65
-18 10 2 15.68 3.21
-2 18 10 14.25 4.23
18 -2 -10 13.6 3.05
2 18 -10 15.14 5.09
-2 -10 18 16.89 5.48
-2 10 -18 8.63 3.39
-10 18 4 -1.08 1.27
4 10 -18 1.11 2.36
10 18 -4 -1.01 1.11
10 18 -4 1.28 1.5
-4 10 18 1.32 2.18
-18 4 10 0.39 1.36
4 -10 18 0.15 1.31
-4 18 -10 -0.81 0.9
18 4 -10 0.37 0.76
-18 10 -4 -0.67 0.85
4 -18 -10 1.86 2.03
-4 -18 10 1.46 1.88
4 18 10 -0.34 1.14
-4 18 -10 1.49 1.76
-10 -4 18 1.7 1.68
18 -10 -4 1.56 1.16
-4 -10 -18 2.06 1.71
10 -4 -18 -1.06 1.23
-18 10 -4 2 1.57
-18 -10 4 0.31 0.76
-10 4 -18 1.68 1.6
-4 10 -18 -1.19 2.05
-4 18 10 0.3 1.91
4 10 18 2.14 1.81
-10 4 18 1.46 2.23
-4 -18 -10 1.01 1.08
4 18 -10 2.55 2.13
18 -4 -10 -0.96 0.95
-18 10 4 -0.52 1.07
10 18 4 0.9 0.94
10 -18 -4 -0.78 1.01
-18 -4 10 -0.46 0.99
-18 4 -10 -0.19 0.69
-4 -10 18 -0.61 1.47
10 -4 18 -0.03 1.06
10 4 -18 -1.23 1.22
-10 18 -4 -0.75 1.8
18 10 -4 -0.22 0.7
10 18 4 -0.16 0.68
-10 -4 -18 0.53 0.95
4 -10 -18 0.99 1.82
-6 10 18 7.22 3.67
-6 18 -10 3.87 3.06
6 -10 18 7.78 3.38
-18 6 10 6.45 2.46
10 18 -6 14.18 3.97
6 18 10 9.68 3.42
10 -6 -18 13.25 4.72
6 10 -18 18.86 5.75
-10 -6 18 11.64 4.2
-18 10 -6 7.78 2.22
-10 6 -18 14.43 5.43
18 -10 -6 13 3.54
-18 -10 6 7.04 2.22
-6 18 -10 15.73 4.38
-18 10 -6 5.79 2.51
-6 -10 -18 16.26 3.29
-6 -18 10 9.48 2.78
6 -18 -10 13.69 4.81
10 6 18 17.98 3.09
18 6 -10 13.8 2.94
-10 18 6 4.87 2.64
-18 6 -10 6.04 2.65
-6 -10 18 9.76 3.75
-10 18 -6 15.74 5.31
6 -10 -18 19.58 5.24
10 -18 -6 12.99 3.73
-18 10 6 5.03 2.28
-10 -6 -18 14.45 3.02
10 6 -18 8.85 3.57
10 -6 18 15.13 4.48
10 18 6 11.93 2.83
18 -6 -10 10.54 3.14
6 10 18 6.32 2.6
-6 10 -18 10.12 3.65
6 18 -10 12.06 4.22
-18 6 -10 9.96 2.02
18 10 -6 12.63 2.46
-6 18 10 9.46 3.85
-18 -6 10 14.28 3.71
-10 18 -6 13.16 4.34
-10 6 18 7.55 3.61
10 18 6 13.31 3.43
-18 -10 8 67.47 7
-18 10 -8 56.12 6.66
-8 -18 10 39.56 6.68
10 8 18 57.01 7.09
18 8 -10 43.51 7.75
8 10 -18 60.81 8.68
18 -10 -8 47.71 7
8 18 10 50.91 7.23
8 18 10 42.22 5.97
-10 18 8 47.47 8.34
-18 10 -8 51.87 8.06
-8 10 18 67.3 9.87
-8 18 -10 46.88 8.57
10 -8 -18 47.99 13.52
10 18 -8 59.29 7.51
-10 -8 18 45.35 7.89
8 -18 -10 63 8.99
-8 -10 -18 62.85 7.22
-8 18 -10 67.56 8.28
-8 -10 18 61.44 8.46
-18 -8 10 58.45 7.34
8 10 18 59.03 7.67
8 -10 -18 60.55 8.84
10 18 8 54.45 6.3
-8 18 10 47.49 8.15
-10 8 18 59.45 9.06
8 18 -10 53.65 7.8
-18 8 -10 62.84 8.34
18 10 -8 69.73 7.14
-10 -8 -18 58.47 6.55
-8 10 -18 52.71 8.88
-18 8 -10 56.72 6.37
10 18 8 54.65 6.79
-10 -18 8 43.91 6.65
-10 18 -8 51.77 7.61
-10 18 -8 45.4 8.57
18 -8 -10 52.55 7.16
10 8 -18 61.78 8.7
-18 -10 10 19.06 5.97
-10 -10 -18 32.75 4.48
-10 10 18 30.83 8.18
-10 18 -10 37.62 5.75
-10 18 10 33.34 6.53
-18 10 10 26.55 5.41
-10 -18 10 33.47 5.08
10 10 -18 32.24 6.39
10 18 10 27.4 4.42
10 18 10 29.9 3.92
18 -10 -10 28.13 5.16
18 10 -10 37.62 5.01
10 -18 -10 27.78 6
10 -10 -18 36.62 6.29
-18 10 -10 30.76 4.46
10 10 18 29.8 4.66
10 18 -10 27.52 6.49
0 -12 18 7.19 3.4
12 0 -18 9.04 3.72
12 18 0 6.83 2.27
18 0 -12 6.1 2.37
-18 0 12 13.04 3.76
0 -12 -18 5.16 2.63
-12 18 0 10.07 4.18
18 12 0 5.68 1.13
18 12 0 5.57 1.1
0 -18 12 8.85 3.48
12 18 0 3.72 1.71
-18 0 -12 5.37 0.93
12 0 18 6.82 2.31
-12 0 18 7.16 3.13
0 -18 -12 7.92 3.63
-12 18 0 6.81 2.82
0 18 -12 9.01 3.56
18 -12 0 2.96 1.41
-18 12 0 3.06 1.63
-12 0 -18 4.76 1.9
-18 0 -12 4.08 0.99
2 12 -18 1.04 2.05
-2 12 18 0.21 2
12 -2 -18 2.19 1.75
2 -12 18 -2.05 1.47
-2 -18 12 0.03 1.19
-18 2 12 1.8 1.58
2 18 12 0.19 1.39
-2 -12 -18 4.23 2.17
-18 12 -2 0.22 0.95
-18 12 -2 3.4 2.51
12 2 18 3.05 1.18
12 18 -2 1.07 1.33
-12 -2 18 1.08 1.65
-12 2 -18 1.35 1.37
-2 18 -12 2.79 2.56
18 2 -12 0.44 0.99
2 -18 -12 1.5 2.2
18 -12 -2 0.71 1.06
-12 18 2 3.89 1.73
2 -12 -18 -0.35 1.14
-18 -2 12 -0.3 1.2
2 18 -12 -1.48 1.76
18 12 -2 1.18 0.8
12 -2 18 -0.81 1.33
12 2 -18 -1.23 1.34
-18 12 2 0.28 1.23
2 12 18 7.62 2.55
-2 18 12 -1.37 1.5
-12 18 -2 -0.53 1.41
12 18 2 0.44 0.94
18 -2 -12 1.09 1.09
-2 -18 -12 -0.85 1.07
-18 2 -12 -0.34 0.55
-18 2 -12 0.15 0.71
-12 -2 -18 0.49 1.13
12 18 2 -0.73 0.86
-2 -12 18 1.08 1.8
-2 12 -18 3.49 2.12
-12 18 -2 3.45 1.59
-12 2 18 3.4 2.16
-4 18 -12 39.43 6.28
4 -18 -12 29.98 6.36
12 -4 -18 29.93 5.91
-18 4 12 35.82 5.76
-4 -18 12 38.3 5.84
12 4 18 30.57 4.41
18 -12 -4 32.6 4.96
-4 -12 -18 33.18 5.76
-18 12 -4 28.69 4.6
12 18 -4 30.54 5.55
-4 18 -12 45.17 12.84
-12 4 -18 30.95 6.23
4 12 -18 27.63 6.31
-4 12 18 38.33 9.63
4 -12 18 39.15 6.87
-18 -12 4 29.56 4.08
18 4 -12 38.48 5.35
-12 -4 18 31.9 6.16
-12 18 4 30.47 5.54
4 18 12 39.7 6.3
12 18 -4 35.79 4.92
-12 4 18 21 6.18
-4 -12 18 38.57 6.4
12 4 -18 22.6 5.38
18 -4 -12 39.18 5.21
-18 -4 12 27.82 5.01
-18 4 -12 37.85 5.36
-4 -18 -12 37.86 6.09
12 18 4 32.95 4.53
4 12 18 30.55 5.97
12 -18 -4 31.2 5.66
-4 18 12 34.94 6.79
4 -12 -18 29.1 6.04
4 18 -12 36.05 6.44
18 12 -4 29.85 4.29
-4 12 -18 40.71 7.63
12 -4 18 31.05 5.64
-12 18 -4 28.2 5.24
12 18 4 26.64 4.22
-18 12 4 30.15 5.41
-12 18 -4 37.4 6.87
-18 6 12 5.47 2.65
12 -6 -18 3.35 3.15
18 6 -12 2.71 1.75
-6 18 -12 3.16 2.19
6 -18 -12 7.86 3.86
-6 12 18 2.86 2.25
-18 -12 6 1.11 0.92
-18 12 -6 2.16 1.48
6 12 -18 7.56 4.12
-6 -18 12 0.11 1.21
12 18 -6 3.52 1.85
-6 18 -12 5.13 3.15
-12 18 6 7.79 3.26
-6 -12 -18 5.91 2.64
-12 -6 18 3.87 2.23
12 6 18 3.68 1.62
18 -12 -6 -0.87 1.29
-6 -18 -12 2.1 1.44
6 18 -12 2.36 2.26
-6 18 12 0.48 1.95
12 -18 -6 3.45 2.15
12 6 -18 -1.03 1.61
-6 12 -18 6.56 4.57
12 18 6 5.9 1.67
18 12 -6 2.99 1.66
-12 18 -6 1.82 2.07
-6 -12 18 4.94 2.45
18 -6 -12 3.56 2.09
12 18 6 3.08 1.56
-18 12 6 3.18 1.85
-12 -6 -18 -0.31 1.42
-18 6 -12 2.95 2.23
-12 6 18 3.1 2.29
-18 -6 12 0.43 1.43
-18 6 -12 2.1 1.22
-12 18 -6 2.62 1.94
6 -12 -18 5.64 3.29
12 -8 -18 7.75 3.79
8 -18 -12 3.93 2.32
12 8 18 9.13 2.52
-8 -18 12 7.12 2.78
-18 12 -8 12.96 3.46
-8 -12 -18 4.1 1.92
8 12 -18 10.06 3.47
-18 -12 8 10.48 2.78
-12 -8 18 13.11 3.95
18 8 -12 12.14 3.68
-18 8 12 9.99 3.58
-8 18 -12 14.48 7.44
-8 18 -12 6.21 2.84
-12 18 8 18 5.61
18 -12 -8 8.12 3.08
8 -12 -18 8.56 3.53
-12 -8 -18 10.34 1.99
-18 12 8 4.64 2.41
-18 8 -12 7.23 2.29
12 18 8 10.11 2.66
12 18 8 9.15 1.57
-12 -18 8 4.49 2.28
-8 -12 18 6.66 3.6
8 18 -12 13.69 4.54
12 8 -18 7.86 3.25
12 -18 -8 7.4 3.08
-12 8 18 3.88 2.66
-18 -8 12 9.65 3.3
18 -8 -12 6.09 2.84
18 12 -8 11.62 3.12
-12 18 -8 18.37 3.22
12 -10 -18 9.28 3.27
-12 -10 18 1.04 1.66
12 10 18 3.5 1.14
18 -12 -10 0.36 1.52
10 12 -18 -0.79 1.06
-18 12 -10 0.82 1.5
18 10 -12 0.05 1.46
10 18 12 0.83 0.92
-18 -12 10 0.95 1.57
-10 -12 -18 0.92 0.98
-10 18 -12 -0.11 1.21
-18 10 12 1.98 1.91
12 18 -10 0.77 1.33
-10 -18 12 -0.98 1.14
-12 -10 -18 0.01 0.66
-12 -18 10 -0.31 0.88
-18 10 -12 -0.07 0.94
12 18 10 2.44 1.18
12 18 10 1.3 0.78
-10 -12 18 -0.05 1.48
12 -18 -10 4.69 2.08
12 10 -18 2.68 2.07
10 18 -12 2.94 1.74
18 12 -10 -1.29 0.73
10 12 18 2.73 1.55
-18 12 10 -1.11 1.24
18 -10 -12 0.78 1.49
-18 -10 12 0.79 1.17
-12 18 -10 0.06 1.43
18 -12 -12 2.42 2.45
12 18 12 1.19 1.26
-12 -12 -18 4.37 1.24
-18 -12 12 6.69 2.61
-18 12 -12 1.67 1.01
-18 12 12 4.93 2.94
12 18 -12 5.07 2.61
-12 18 -12 4.61 2.35
12 12 -18 6.97 2.75
18 12 -12 4.5 2.29
-12 -12 18 12.5 3.7
-12 12 -18 10.44 3.54
12 12 18 6.49 1.95
12 18 12 4.78 1.42
-14 0 -18 14.82 3.03
18 14 0 9.55 1.59
-14 0 18 9.69 3.35
0 -18 14 6.21 2.67
0 14 -18 7.25 3.43
14 18 0 6.64 2.15
14 0 -18 23.52 6.21
-18 14 0 18.59 4.85
-18 0 -14 9 1.35
-18 0 -14 10.54 1.6
-18 0 14 4.12 2.19
-14 18 0 4.99 2.12
14 0 18 14.52 2.68
0 18 -14 8.79 3.89
14 18 0 11.2 2.34
18 0 -14 12.23 3.97
-14 18 0 16.96 6.1
0 -14 18 5.59 2.59
18 14 0 9.29 1.6
2 -14 18 3.43 2.3
18 2 -14 1.32 1.4
2 14 -18 -0.87 1.78
14 2 18 0.99 1.06
14 18 -2 -0.72 1.2
14 18 -2 0.44 1.07
-2 18 -14 4.2 3.08
18 -14 -2 -1.54 0.99
-14 2 -18 0.83 1.61
-18 2 14 2.95 1.95
-14 18 2 3.07 1.95
-18 14 -2 0.46 1.18
-2 -18 14 4.33 2.49
-14 -2 18 -0.83 1.35
14 -2 -18 1.37 1.51
18 14 -2 0.27 0.8
-14 18 -2 2.71 1.99
-2 -14 18 -1.47 1.39
14 18 2 -0.63 0.91
-14 -2 -18 1.72 1.04
18 14 -2 0.3 0.59
-2 14 -18 3.17 2.8
2 -18 14 0.39 1.11
14 2 -18 -0.48 1.01
-18 -2 14 -2.17 1.06
-18 2 -14 0.03 0.63
-14 2 18 0.06 2.12
14 18 2 0.34 0.74
2 18 -14 -1.5 1.22
4 14 -18 7.96 3.6
-4 -18 14 10.68 3.58
14 -4 -18 6.08 3.12
18 -14 -4 10.86 3.37
-4 18 -14 12.7 5.15
-14 18 4 17.71 4.8
-18 14 -4 15.54 3.96
14 18 -4 12.98 2.77
14 4 18 12.17 2.2
-14 -4 18 13.29 3.91
-18 4 14 7.31 3.01
18 4 -14 7.54 3.38
-18 -14 4 13.05 2.37
14 18 4 13.08 2.07
14 4 -18 10.12 3.59
-18 -4 14 6.93 2.69
-14 18 -4 16.27 3.22
18 -4 -14 8.91 3.19
-4 -14 18 11.19 5.36
-18 4 -14 10.94 2.17
14 -18 -4 19.42 5.14
4 18 -14 9.67 4.27
14 18 4 10.73 2.18
18 14 -4 13.59 4.56
-18 14 4 11.35 3.81
-14 4 18 10.16 4.73
-18 4 -14 17.89 3.25
14 18 -6 -0.65 0.83
-18 6 14 1.3 1.61
-6 -18 14 0.22 1.42
-14 18 6 -1.84 1.6
-18 -14 6 -0.07 0.96
-14 -6 18 -0.48 1.55
14 -6 -18 0.23 1.06
-18 14 -6 0.72 1.25
-6 18 -14 -1.45 1.31
6 14 -18 -1.54 1.47
18 -14 -6 0.12 1.31
18 6 -14 3.27 1.91
18 -6 -14 0.21 1.51
-6 -14 18 -0.04 1.27
-18 -6 14 0.57 1.54
14 18 6 1.18 0.69
14 -18 -6 -0.59 1.29
-14 18 -6 2.53 1.51
-14 6 18 -1.67 2.4
14 6 -18 0.95 1.93
-18 6 -14 -0.76 0.7
14 18 6 1.63 0.76
-14 -6 -18 0.64 0.7
18 14 -6 0.27 0.94
-18 14 6 -0.04 1.26
6 18 -14 0.04 1.86
-8 18 -14 19.84 4.09
-18 -14 8 7.02 2.26
-18 14 -8 11.39 3.51
8 14 -18 21.92 6.25
-8 -18 14 19.2 5.22
18 8 -14 14.37 4.34
-14 -8 18 8.41 3.22
18 -14 -8 11.03 3.7
-14 18 8 13.98 4.56
-14 8 -18 15.61 4.41
14 8 18 11.11 1.53
-18 8 14 12.38 4.48
14 18 -8 13.23 3.89
14 -8 -18 20.4 5.63
-18 8 -14 10.23 2.73
-14 18 -8 15.2 4.05
18 14 -8 13.45 2.96
14 -18 -8 12.79 4.35
-18 -8 14 15.64 4.45
8 18 -14 8.13 3.37
18 -8 -14 8.07 2.84
-14 8 18 11.13 4.84
14 8 -18 9.95 3.77
-14 -8 -18 10.94 1.43
-18 14 8 12.24 4.54
-8 -14 18 11.78 3.54
-14 -18 8 11.48 3.29
-18 14 -10 -0.37 1.23
-10 18 -14 5.2 2.72
14 -10 -18 3.17 2.05
10 18 14 2.58 1.1
-10 -18 14 1.42 1.66
14 18 -10 3.66 1.85
-18 -14 10 1.55 1.66
18 -14 -10 1.07 1.47
10 14 -18 6.71 3.1
-14 18 10 -0.67 2.54
18 10 -14 3.21 1.91
-14 10 -18 1.27 1.65
-18 10 14 -0.16 1.63
-14 -10 18 3.06 2.32
-14 10 18 3.35 3.08
14 10 -18 1.72 1.55
-14 18 -10 1.77 1.94
-14 -18 10 0.52 1.61
-18 10 -14 4.23 2.01
-18 -10 14 2.55 1.54
-18 14 10 -1.25 1.5
14 -18 -10 7.2 3.38
10 18 -14 1.71 2.26
-10 -14 18 -0.15 1.96
18 14 -10 0.96 1.08
18 -10 -14 4.87 2.72
-14 12 -18 1.5 1.64
12 14 -18 10.81 3.21
-14 -12 18 7.34 3.06
-12 18 -14 2.98 2.63
-12 -18 14 5.77 2.01
-18 14 -12 7.91 2.82
12 18 14 6.98 1.5
18 12 -14 13.95 5.26
14 18 -12 5.66 2.45
-18 12 14 5.06 2.81
-18 -14 12 5.47 2.23
18 -14 -12 2.82 2.41
-12 14 -18 9.22 3.48
14 12 -18 4.59 2.23
18 -12 -14 8.77 3.48
-18 12 -14 4.06 1.82
-14 -18 12 4.04 2.04
-18 -12 14 7.8 3.08
-14 18 -12 7.03 3.51
-12 -14 18 2.73 2.07
12 18 -14 12.77 3.97
-14 -18 14 2.73 2.35
18 -14 -14 3.02 2.93
-14 -14 18 -0.11 2.36
14 14 -18 1.09 1.65
-14 18 -14 0.01 1.69
-16 0 18 46.16 7.83
-18 0 -16 50.57 5.17
-16 0 -18 53.35 5.67
-18 16 0 52.15 7.21
18 0 -16 55.19 7.55
-16 0 -18 47.89 6.29
-16 18 0 57.41 7.92
0 16 -18 73.93 11.12
18 16 0 48.8 5.51
0 18 -16 67.82 10.32
-18 0 16 51.38 7.94
16 18 0 49.62 5.99
16 0 -18 66.92 8.43
18 16 0 49.65 5.42
-16 18 2 30.12 5.5
-18 2 16 31.97 5.72
-2 -18 16 29.3 5.82
16 -2 -18 31.89 5.92
18 -16 -2 23.53 4.73
-18 16 -2 27.02 4.78
-16 2 -18 31.06 3.87
18 2 -16 27.96 5.12
2 16 -18 39.82 7.2
-16 -2 18 28.51 5.75
-16 18 -2 32.29 5.18
-16 -2 -18 27.12 3.21
-18 2 -16 26.59 4.25
16 18 2 23.64 3.48
-18 16 2 29.52 5.55
-2 -16 18 33.51 6.88
18 16 -2 29.58 3.78
-16 -2 -18 27.41 3.56
16 2 -18 24.41 5.31
18 16 -2 33.3 5.31
-18 -2 16 30.94 5.34
-18 2 -16 23.77 3.33
2 18 -16 36.1 8.86
-16 2 18 31.29 6.05
18 -2 -16 25.2 5
16 18 2 27.54 3.62
-16 -4 18 7.85 2.15
-18 16 -4 3.54 2.28
-16 18 4 1.09 1.46
18 4 -16 2.3 1.44
16 18 -4 2.7 1.59
16 -4 -18 2.99 2.07
18 -16 -4 3.77 2.6
-18 4 16 -0.98 1.49
-16 4 -18 1.14 1.2
-18 4 -16 3.3 1.26
4 18 -16 6.28 3.13
18 16 -4 4.14 2.13
-18 -4 16 5.18 1.98
16 18 4 3.71 1.06
-4 -16 18 -1 1.6
-16 4 18 2.24 2.29
-18 16 4 0.77 1.5
-16 18 -4 4.44 2.07
16 4 -18 3.76 2.59
16 -18 -4 4.41 2.15
16 18 4 2.72 1.29
18 -4 -16 2.27 2.27
18 6 -16 2.53 2.94
-6 -18 16 4.62 2.63
6 16 -18 5.61 2.25
16 18 -6 7.85 2.65
-18 6 16 3.36 2.49
-16 -6 18 3.99 2.44
-18 -16 6 4.86 1.93
18 -16 -6 5.61 2.72
-18 16 -6 10.63 3.4
-6 18 -16 1.69 2.63
-16 6 -18 3.69 1.64
18 -6 -16 2.39 1.77
16 6 -18 7.47 2.52
-16 6 18 9.97 4.46
18 16 -6 3.76 1.77
-6 -16 18 8.37 3
-18 -6 16 2.16 1.76
-16 18 -6 10.16 3.55
-18 6 -16 3.01 1.44
-18 16 6 4.45 3.09
16 -18 -6 4.05 2.17
6 18 -16 7.93 3.22
-18 16 -8 46.54 6.8
-16 8 -18 53.3 6.3
18 -16 -8 52.25 7.46
8 16 -18 56.26 8.87
-18 -16 8 56.18 6.62
-8 18 -16 38.31 7.37
-8 -18 16 47.17 7.26
16 -8 -18 56.84 8.19
16 18 -8 54.73 7.05
18 8 -16 41 6.78
-16 18 8 52.05 8.15
-18 8 16 56.17 8.86
-16 -8 18 55.67 8.23
-16 8 18 52.06 8.89
-18 16 8 54.84 8.42
-8 -16 18 58.5 9.09
8 18 -16 44.03 7.87
16 -18 -8 50.24 7.96
16 8 -18 43.34 7.39
18 -8 -16 62.15 7.83
18 16 -8 62.41 8.12
-18 -8 16 38 7.85
-16 -18 8 44.72 6.46
-18 16 -10 27.26 6.02
-16 10 -18 20.39 4.11
18 10 -16 43.37 7.29
-10 18 -16 24.89 5.51
-18 10 16 10.5 4.27
18 -16 -10 16.06 4.32
-16 -10 18 35.06 5.44
16 10 -18 26.47 5.18
-18 -10 16 12.82 3.78
-16 18 -10 22.52 4.62
-10 16 -18 25.48 4.82
10 18 -16 28.11 6.15
18 -10 -16 21.22 5.65
-16 -12 18 3.75 2.85
-12 18 -16 0.56 2.16
12 16 -18 1.67 2.59
-12 -18 16 0.78 2.44
-12 16 -18 0.47 1.75
-16 18 -12 -2.11 1.47
-12 -16 18 1.56 2.49
-18 0 -18 39.86 4.51
18 0 -18 47.13 6.83
18 18 0 36.12 4.42
-18 0 18 41.26 6.73
-18 18 0 41.49 6.35
-18 0 -18 36.52 4.27
18 -2 -18 21.62 5.93
-18 -2 18 14.6 4.07
-18 18 -2 21.62 4.58
18 18 -2 18.22 3.15
18 18 2 20.38 2.32
18 18 2 19.17 2.27
-18 2 -18 20.3 2.86
-18 2 18 19.83 6.2
18 2 -18 24.07 4.58
18 -4 -18 -3.01 1.62
-18 4 -18 -0.56 0.99
-18 4 18 1.18 1.96
18 -18 -4 0.53 1.56
-18 -4 18 -3.05 1.4
-18 18 -4 0.61 1.2
-18 18 4 2.92 2.02
4 18 -18 0.31 2.97
18 4 -18 2.13 2.33
-18 6 18 8.66 4.37
-18 18 -6 3.44 2.26
-18 18 6 9.44 2.8
-6 -18 18 5.26 2.23
6 18 -18 11.39 4.55
-18 -6 18 5.85 2.72
18 6 -18 4.07 1.95
18 -6 -18 -0.52 1.58
18 -18 -6 -0.59 1.62
-18 18 8 41.24 7.21
-8 -18 18 28.14 6.01
-18 18 -8 32.2 6.01
-18 8 18 42.77 7.09
-18 -8 18 43.77 7.19
18 -18 -8 43.11 6.75
18 -8 -18 33.4 6.29
8 18 -18 46.15 7.39
-10 18 -18 3.84 2.9
-10 -18 18 4.99 2.56
1 19 1 51.83 7.61
-19 -1 -1 52.77 5.99
-19 -1 1 50.67 6.22
-19 1 -1 61.88 6.3
-19 1 1 50.79 6.31
-1 -1 -19 67.58 9.07
-1 -1 19 62.66 9.01
-1 1 -19 58.3 8.66
-1 1 19 61.02 8.71
-1 19 -1 65.71 8.23
-1 19 -1 48.86 7.46
-1 19 1 66.18 8.35
-1 19 1 46.89 7.27
1 -1 -19 57.96 8.72
1 -1 19 53.47 8.42
1 1 -19 67.94 8.94
1 1 19 61.05 8.81
1 19 -1 63.28 8.14
1 19 -1 75.69 8.47
19 -1 -1 58.11 6.24
19 -1 1 52.76 5.92
19 1 -1 58.06 6.07
19 1 1 57.86 5.77
-19 -3 1 1.44 0.93
-19 1 3 0.26 0.96
1 19 3 -0.07 1.08
1 19 3 2.01 1.59
3 -1 -19 1.93 1.66
-3 19 1 -1.25 1.26
-1 -3 -19 0.56 1.87
-1 19 -3 2.26 1.5
-1 19 -3 2.44 1.92
19 1 -3 2.53 1.29
1 -3 19 5.1 3.01
-3 -1 19 4.35 3.03
-3 1 -19 4.77 2.67
3 19 -1 1.35 1.29
-1 3 19 2.71 2.25
1 3 -19 1.56 1.94
19 -3 -1 1.43 1.05
3 19 -1 1.4 1.52
19 3 1 0.76 0.54
-19 -1 -3 2.2 0.82
-19 -1 -3 1.7 0.86
-3 19 1 2.35 2.04
-19 3 -1 0.45 0.82
1 19 -3 1.6 1.82
-19 1 -3 2.45 1.28
-3 19 -1 -0.47 1
1 -3 -19 5.12 2.61
-1 19 3 -1.08 1.05
3 1 -19 1.47 1.77
-19 -3 -1 2.22 0.8
19 -3 1 4.04 1.44
19 3 -1 1.29 0.84
-19 3 1 1.02 1
-3 -1 -19 3.44 2.33
-19 1 -3 2.15 1.05
-1 -3 19 0.92 1.61
-1 3 -19 1.43 1.81
1 19 -3 2.34 2.25
-1 19 3 1.12 1.24
1 3 19 3.62 1.92
3 -1 19 2.04 2.1
-19 -1 3 0.84 1.2
19 -1 -3 2.82 1.28
3 19 1 1.3 1.35
-3 1 19 0.02 1.33
-3 19 -1 2.26 2.01
3 19 -3 32.08 5.98
3 19 -3 50.35 7.09
-3 19 3 48.67 7.13
3 3 -19 53.26 7.96
-3 19 -3 61.79 7.88
-3 19 3 33.09 5.82
3 -3 -19 42.94 7.16
-3 19 -3 39.95 6.59
-19 -3 3 39.89 5.19
-19 3 -3 43.97 5.1
-19 3 3 44.45 5.64
-3 -3 -19 49.12 7.35
-3 -3 19 34.72 6.97
-3 3 -19 43.42 7.32
-3 3 19 46.26 7.71
3 -3 19 47.98 7.55
19 -3 -3 45.83 5.43
19 3 -3 52.15 5.11
-19 3 -3 49.98 5.68
-19 1 5 -0.32 0.95
-5 -1 19 -0.06 1.62
5 19 -1 -0.55 0.95
-1 5 19 0.58 1.36
1 19 5 -0.82 0.76
1 -5 19 -0.01 1.09
5 -1 -19 1.06 1.53
5 1 19 -0.15 1.35
-1 -5 -19 -0.56 1.27
-5 19 1 -0.68 1.04
1 19 5 0.34 1.13
19 1 -5 0.01 0.65
-5 1 -19 0.07 1.5
-1 19 -5 1.01 1.3
19 -5 -1 -0.26 0.71
-19 5 -1 0.17 0.92
1 5 -19 2.6 2.13
19 5 1 0.68 0.37
-19 -5 1 0.42 0.67
-5 19 1 2.02 1.92
-1 19 -5 -0.67 1.55
-5 19 -1 -0.43 1.21
-1 5 -19 0.47 1.55
5 19 1 2.37 1.76
5 19 1 0.02 0.93
19 -1 -5 0.84 0.97
-5 19 -1 1.27 1.75
1 19 -5 -0.11 1.62
-19 1 -5 1.47 0.89
-19 -5 -1 0.4 0.42
-1 -5 19 0.37 2.01
19 -5 1 -0.27 0.65
19 5 -1 -0.25 0.47
-19 5 1 1.29 1.31
-5 -1 -19 1.52 1.82
-1 19 5 -0.09 1.27
1 -5 -19 -1.2 1.34
-19 -1 5 -0.96 0.5
1 19 -5 1.95 1.36
-19 1 -5 0.61 0.69
-5 1 19 -0.12 1.42
1 5 19 3.54 3.12
-3 19 -5 27.6 5.52
-19 -5 3 38.47 4.5
-19 5 -3 37.81 4.6
-3 19 -5 45.15 6.72
5 19 -3 38.64 5.75
-3 5 19 33.88 6.67
-19 3 5 33.36 4.87
5 -3 -19 37.43 6.52
-5 19 3 36.26 5.86
5 19 -3 35.97 6.16
3 5 -19 36.3 6.99
-5 -3 19 32.59 7.73
-5 3 -19 38.54 7.08
19 -5 -3 35.23 4.72
3 19 5 27.84 4.74
19 3 -5 36.51 4.49
-19 5 -3 33.66 4.96
-3 -5 -19 54.65 6.97
3 -5 19 43.72 9.29
-19 -3 5 29.8 4.56
19 -3 -5 33.38 4.61
-3 5 -19 37.97 7.03
-3 19 5 24.69 5.25
3 19 -5 41.55 6.98
3 19 -5 41.19 6.28
-3 -5 19 41.13 7
-5 -3 -19 47.98 6.68
5 19 3 28.97 6.32
-19 5 3 29.87 4.74
19 5 -3 32.59 4.06
5 19 3 34.04 5.08
-5 3 19 32.55 6.45
-5 19 -3 25.26 5.49
5 3 -19 35.53 6.37
-19 3 -5 38.53 4.31
-19 3 -5 38.26 4.74
3 -5 -19 36.67 6.56
-5 19 -3 40.52 6.15
3 5 19 41.22 7.09
5 19 -5 36.05 6.44
19 5 -5 35.08 4.51
5 5 19 41.83 6.7
5 19 5 26.45 4.73
-19 -5 5 33.36 4.68
-19 5 -5 36.45 4.63
-19 5 -5 37.21 5.21
-19 5 5 33.05 5.2
-5 -5 -19 36.36 8.07
-5 -5 19 42.51 7.06
5 5 -19 54.96 8.09
-5 19 -5 32.32 6.01
-5 19 -5 41.38 6.65
-5 19 5 36.42 6.09
5 -19 -5 37.94 6.43
5 -5 -19 35.65 6.58
5 -5 19 46.01 7.38
5 19 5 40.8 5.78
-5 5 -19 44.32 7.63
-5 5 19 43.43 7.48
5 19 -5 43.93 6.29
19 -5 -5 40.15 5.16
19 1 -7 19.74 3.24
7 19 -1 23.59 4.29
7 19 -1 14.81 3.42
7 -1 -19 24.31 6.45
-1 -7 -19 22.93 4.72
-1 19 -7 17.35 4.77
-19 1 7 18.92 3.66
19 -7 -1 15.06 3.01
-7 -1 19 17.87 5.41
-7 19 1 15.98 4.48
1 7 -19 27.78 5.78
-1 19 -7 20.81 4.37
-7 1 -19 32.03 5.65
-1 7 19 27.26 7.13
7 1 19 14.31 4.27
1 -19 -7 9.63 3.48
-7 19 1 21.24 4.64
-19 -7 1 19.31 2.49
-19 7 -1 13.91 3.06
1 -7 19 24.32 6.2
-1 -7 19 10.05 3.98
-7 19 -1 26.13 4.85
7 -1 19 25.55 4.85
-19 1 -7 17.61 2.63
1 19 -7 15.06 4.46
1 19 -7 22.97 5.85
7 19 1 15.3 4.14
-7 1 19 27.57 6.89
19 -1 -7 16.3 3.19
-1 7 -19 29.18 5.77
1 -7 -19 23.3 5.09
-1 19 7 19.52 4.36
-7 19 -1 22.39 4.47
-19 -1 7 19.29 4.33
-19 1 -7 21.79 2.49
7 19 1 22.99 3.8
19 7 -1 19.56 2.33
19 -7 1 23.77 3.44
-19 -7 3 4.38 1.9
-19 7 -3 3.56 1.71
-3 -7 -19 9.29 3.47
7 3 19 6.37 3.25
-7 -3 19 5.45 2.57
-7 3 -19 8.71 3.51
3 19 7 1.8 1.62
19 3 -7 3.03 1.22
7 -3 -19 4.47 2.96
7 19 -3 3.05 1.46
3 19 7 2.07 1.27
3 7 -19 7.04 3.36
-3 19 -7 1.81 1.96
-3 19 -7 8.07 3.36
-19 3 7 5.36 2.24
19 -7 -3 4.53 1.96
3 -19 -7 5.44 3.18
-7 19 3 5.33 2.76
-3 7 19 3.26 2.85
3 -7 19 2.96 2.49
3 -7 -19 3.5 2.19
-7 -3 -19 2.47 1.72
-7 19 -3 3.92 2.57
3 19 -7 4.01 2.43
3 19 -7 4.38 2.75
-19 -3 7 4.02 1.8
-19 3 -7 6.46 1.7
19 7 -3 4.17 1.32
7 -3 19 5.51 2.69
7 19 3 3.33 2.26
7 19 3 3.68 1.51
-3 7 -19 4.42 2.85
-19 7 3 5.77 2.02
-3 -7 19 5.18 2.64
-19 3 -7 7.32 2.16
-7 3 19 5.18 3.6
7 3 -19 8.06 3.15
3 7 19 1.15 1.65
-3 19 7 2.92 2.4
-7 19 -3 2.3 1.76
19 -3 -7 5.53 2.06
-7 5 -19 3.16 2.42
-5 7 19 3.45 2.7
-5 -7 -19 1.08 1.58
5 19 7 3.28 1.5
-7 19 5 1.84 1.73
5 7 -19 5.22 2.45
-19 -7 5 0.5 1.03
7 19 -5 2.93 1.98
5 -19 -7 1.99 1.91
5 -7 19 2.87 2.52
-5 19 -7 1.97 2.12
5 19 7 0.17 1.11
19 5 -7 3.94 1.84
7 -5 -19 2.25 1.87
-7 -5 19 1.84 2.35
19 -7 -5 2.39 1.3
7 5 19 -0.93 1.18
-19 7 -5 2.9 1.86
-19 7 -5 1.76 1.25
-19 5 7 1.71 1.5
-5 19 -7 0.88 1.61
-19 5 -7 2.06 1.5
-19 -5 7 3.67 1.86
19 -5 -7 3.52 1.83
5 19 -7 1.08 1.67
-7 5 19 5.69 3.48
5 7 19 0.23 1.1
-7 19 -5 5.44 2.67
-7 -5 -19 1.36 1.38
7 5 -19 4.46 2.61
5 19 -7 3.5 2.76
-19 5 -7 6.44 1.94
-19 7 5 2.35 1.77
-5 7 -19 2.95 2.69
-7 19 -5 2.86 2.48
-5 19 7 7.34 3.22
7 19 5 0.56 1.42
7 19 5 5.01 2.13
7 -19 -5 6.37 2.23
-5 -7 19 0.76 2.18
19 7 -5 3.2 1.24
5 -7 -19 6.07 3.03
7 7 -19 15.34 5.05
7 -19 -7 11.4 4.14
7 19 -7 20.29 5.12
-19 -7 7 20.9 3.53
-19 7 -7 19.04 2.95
-7 19 -7 12.58 4.5
7 19 7 22.19 4.19
7 19 7 22.43 3.41
-7 -7 19 13.05 4.21
-7 19 7 12.5 3.98
-7 7 19 27.76 7
-7 19 -7 19.74 5.15
-7 7 -19 17.54 5.37
19 -7 -7 16.29 3.3
19 7 -7 18.38 3.13
-7 -7 -19 23.02 4.43
-19 7 7 12.74 3.68
-19 7 -7 21.53 3.96
7 -7 -19 17.7 5.81
-9 19 1 27.81 5.23
-19 9 -1 23.43 3.9
19 -9 -1 21.67 3.7
1 -19 -9 25.19 5.28
-9 19 1 18.9 4.34
9 19 -1 26.33 4.65
9 19 -1 22.72 4.05
-1 19 -9 27.65 5.47
-19 -9 1 22.92 2.7
-9 -1 19 29.61 5.74
-9 1 -19 27.41 5.27
9 1 19 23.7 4.47
-1 19 -9 27.3 5.61
9 -1 -19 24.63 5.15
-19 1 9 25.97 4.52
-1 -9 -19 23.52 5.12
1 -9 19 28.66 7.5
1 9 -19 36.3 9.18
-1 9 19 27.66 5.83
19 1 -9 23.37 3.86
-1 19 9 30.3 5.58
-9 1 19 27.91 5.82
-19 9 1 18 3.69
-1 -19 -9 29.43 5.38
-9 19 -1 26.17 6.85
19 -9 1 19.19 3.46
1 19 -9 30.21 5.63
1 19 -9 22.57 6.06
9 19 1 25.36 4.4
9 19 1 14.5 3.28
9 1 -19 27.22 5.19
-1 -9 19 14.38 5.04
-19 1 -9 20.77 2.8
-1 9 -19 31.57 6.64
-19 1 -9 18.76 2.53
-9 -1 -19 19.82 4.44
19 -1 -9 22.57 3.79
-9 19 -1 14.93 4.4
-19 -1 9 22.93 4.14
19 9 -1 23.75 2.68
1 -9 -19 24.54 5.46
9 -1 19 23.99 4.69
-3 19 -9 2.58 2.08
-19 9 -3 1.27 1.15
19 -9 -3 1.29 1.05
3 -9 19 2.15 2.06
9 19 -3 -1.05 0.91
-3 19 -9 0.17 2.26
-9 3 -19 0.9 1.88
9 19 -3 -0.51 1.11
-9 19 3 -1.44 1.23
-3 -9 -19 -1.51 1.37
3 9 -19 3.5 2.75
-19 3 9 0.55 1.06
-19 9 -3 -1.38 1.09
19 3 -9 -0.3 0.86
-3 9 19 1.38 2.2
-19 -9 3 0.68 0.8
-9 -3 19 -0.46 1.79
3 -19 -9 -0.25 1.77
9 -3 -19 2.42 1.88
19 -3 -9 1.21 1.19
-3 19 9 0.95 1.78
-9 19 -3 -0.08 1.35
-9 19 -3 2.32 2.43
-9 -3 -19 1.36 1.36
3 19 -9 1.74 1.93
-3 -9 19 -0.16 1.28
9 -3 19 1.94 2.12
-19 -3 9 1.89 1.24
9 3 -19 0.49 1.64
-19 3 -9 0.75 0.77
-3 9 -19 -1.35 1.91
19 9 -3 1.42 0.75
9 19 3 3.28 1.29
-19 9 3 1.49 1.46
-9 3 19 0.8 2.05
3 -9 -19 0.48 2.04
3 9 19 1.19 1.89
-19 3 -9 -0.54 0.68
-9 -5 19 2.03 2.13
-5 19 -9 3.66 2.31
9 -5 -19 1.63 1.94
5 9 -19 4.75 2.75
-5 19 -9 1.08 2.62
-19 -9 5 1.8 1.22
-19 9 -5 1.17 1.16
5 19 9 0.65 0.89
-19 5 9 2.18 1.63
9 19 -5 3.94 2.14
5 19 9 0.78 1.93
-9 5 -19 2.43 2.23
5 -9 19 1.03 1.47
19 -9 -5 1.65 1.32
19 5 -9 1.62 1.35
-19 9 -5 2.63 1.78
-5 9 19 1.55 3
5 -19 -9 2.53 1.95
9 5 19 2.21 1.29
-5 -9 -19 3.48 1.48
-9 19 5 -0.47 1.31
-9 19 -5 3.12 1.45
-5 -9 19 2.18 1.94
-9 -5 -19 2.54 1.43
-19 5 -9 0.81 0.8
-19 5 -9 1.64 1.51
5 19 -9 2.58 2.31
9 -5 19 2.71 1.08
9 5 -19 -0.01 1.48
-19 9 5 0.55 1.27
-19 -5 9 -0.12 1.09
-5 9 -19 1.65 2.57
9 19 5 -0.32 0.73
9 19 5 1.42 1.12
19 -5 -9 1.52 1.56
-9 5 19 4.68 2.13
9 -19 -5 4.11 2.31
5 9 19 -0.97 1.4
5 -9 -19 -1.97 1.48
-5 19 9 0.01 2.39
19 9 -5 0.74 0.76
7 19 9 29.97 3.92
-19 7 9 19.26 4.02
-7 9 19 25.27 6.94
9 19 -7 20.82 4.46
-7 -19 9 21.97 4.08
-7 19 -9 22.68 4.52
-7 19 -9 29.08 7.81
19 -9 -7 21.45 4.08
7 9 -19 38.08 6.59
9 7 19 23.66 4.63
-19 -9 7 18.21 3.43
-19 9 -7 22.78 3.63
-19 9 -7 25.11 5.06
-9 -7 19 27.53 7.01
7 -19 -9 18 5.39
19 7 -9 25.56 3.9
9 -7 -19 26.54 5.66
-9 19 7 26.78 5.2
-7 -9 -19 24.09 4.46
-19 -7 9 24.61 4.06
19 9 -7 23.37 3.58
7 -9 -19 18.18 5.47
-9 19 -7 20.71 4.52
-9 19 -7 31.51 7.93
-9 7 19 20.2 5.64
-19 9 7 26.83 4.6
7 19 -9 36.19 5.82
-7 9 -19 23.93 7.42
-7 19 9 26.95 6.83
9 -19 -7 30.04 5.6
-19 7 -9 26.55 4.6
-9 -7 -19 29.08 4.4
9 19 7 23.77 3.64
9 7 -19 28.96 7.42
7 9 19 20.38 4.58
-7 -9 19 25.63 6.66
-19 7 -9 16.74 3.07
19 -7 -9 19.33 3.94
-19 9 -9 37.24 4.8
-9 19 -9 25 5.53
-9 19 -9 40.12 7.55
9 19 9 34.8 5.03
-9 -9 19 29.08 5.96
9 -19 -9 41.48 7.02
9 19 9 30.78 4.45
-9 19 9 31.92 6.4
9 9 -19 37.9 6.62
-9 9 19 41.18 7.75
-19 -9 9 24.63 4.57
9 -9 -19 34.97 7.01
-9 -9 -19 40.87 5.42
9 9 19 41.04 5.6
9 19 -9 43.16 6.27
19 -9 -9 37.53 5.7
19 9 -9 40.83 5.19
-9 -19 9 34.94 5.41
-11 1 -19 1.46 1.86
-11 -1 19 0.84 1.91
11 19 -1 1.41 1.1
-1 19 -11 -1.41 0.86
11 -1 -19 -1.13 1.46
-19 1 11 -2.15 1.02
1 11 -19 0.69 2.07
-11 19 1 0.84 1.45
-1 19 -11 0.44 2.11
1 -19 -11 2.48 1.48
-11 19 1 1.06 1.49
19 1 -11 2.04 1.21
1 -11 19 1.97 1.98
-19 11 -1 -0.06 0.78
19 -11 -1 -0.8 0.64
-1 11 19 0.14 1.99
11 1 19 -0.89 0.85
11 19 -1 1.74 1.38
11 19 1 -0.53 1.02
-11 1 19 2.87 2.09
19 11 -1 0.4 0.55
-19 1 -11 0.47 0.71
-19 11 1 -1.14 0.86
-19 1 -11 0.09 0.47
19 -1 -11 -0.35 0.82
11 1 -19 3.3 1.49
1 19 -11 1.15 1.79
-1 -11 19 2.06 1.6
-11 19 -1 2.35 1.63
11 19 1 0.44 0.92
-11 19 -1 -0.04 1.51
-1 11 -19 0.39 1.79
1 -11 -19 0.73 1.45
-11 -1 -19 1.38 1.4
11 3 19 43.94 5.72
-3 19 -11 42.46 6.93
3 -11 19 31.05 6.96
19 3 -11 37.34 5.32
-11 -3 19 39.99 6.79
11 -3 -19 48.68 7.57
3 11 -19 36.95 7.49
19 -11 -3 32.05 5.12
-19 -11 3 32.74 4.23
-11 3 -19 35.91 6.74
-3 19 -11 34.57 7.08
-19 11 -3 50.57 13.14
-3 -19 11 45.3 6.13
-11 19 3 32.37 5.98
-3 -11 -19 33.88 6.03
-19 11 -3 35.9 5.26
3 -19 -11 50.24 7.76
-19 3 11 34.86 5.78
11 19 -3 37.78 6.25
11 19 -3 41.97 5.51
11 -3 19 35.19 6.18
-3 11 -19 39.73 8.08
3 -11 -19 48.71 7.31
3 19 -11 46.6 7.27
19 11 -3 33.18 4.26
-11 -3 -19 42.42 5.49
-19 11 3 39.61 5.8
-19 3 -11 35.11 4.83
19 -3 -11 28.98 5.08
-11 19 -3 36.13 6.01
-11 19 -3 34.23 6.65
11 19 3 39.92 4.98
11 3 -19 35.4 6.44
11 19 3 34.8 5.32
-11 3 19 39.01 6.57
-3 -19 -11 38.22 7.05
-19 3 -11 33.3 4.03
-19 -11 5 22.46 3.24
-19 11 -5 22.55 3.68
5 -19 -11 31.08 7.72
-11 19 5 27.68 6.82
-11 -5 19 21.11 5.47
-5 -19 11 13.56 3.82
19 -11 -5 21.28 4.09
-19 5 11 19.76 5.03
11 5 19 24.84 4.05
-5 19 -11 30.16 6.41
5 11 -19 30.3 6.19
11 -5 -19 22.08 6.46
-5 19 -11 12.33 3.84
19 5 -11 14.81 3.55
-11 19 -5 18.64 5.37
11 19 5 22.97 3.26
-19 5 -11 18.19 2.92
-19 5 -11 21.55 3.95
11 19 5 24.98 3.87
-11 -5 -19 28.75 4.07
19 11 -5 23.32 3.28
-19 -5 11 19.9 5
19 -5 -11 17.88 3.72
-5 -11 19 23.72 5.14
5 19 -11 28.49 5.56
5 -11 -19 12.46 4.69
11 -19 -5 22.94 4.96
-5 11 -19 14.06 7.57
11 5 -19 28.82 5.49
-11 19 -5 18.45 4.97
-7 19 -11 2.23 2.29
19 7 -11 1.61 0.89
-19 -11 7 -0.43 0.97
11 7 19 2.84 1.61
-11 -7 19 1.99 2.63
-19 11 -7 -1.58 0.78
7 19 11 -1.18 0.68
-7 19 -11 -1.82 1.71
-19 7 11 2.02 1.69
-11 19 7 0.41 1.79
-7 -19 11 2.28 1.33
11 -7 -19 -0.1 1.47
7 11 -19 0.31 2.46
-11 19 -7 4.62 4.86
-19 -7 11 -1.56 0.92
-11 -7 -19 0.98 0.89
11 19 7 0.85 0.83
-11 19 -7 1.09 1.48
-7 -11 19 -0.3 1.34
19 11 -7 0.56 0.86
-19 7 -11 1.43 0.92
-19 11 7 0.6 1.44
7 19 -11 -1.66 1.36
11 -19 -7 -1.48 1.72
11 19 7 0.1 0.96
11 7 -19 -0.16 1.3
-11 7 19 3.29 2.17
-19 7 -11 3.19 1.53
-9 -19 11 0.17 1.1
11 19 -9 3.07 1.88
-9 19 -11 2.77 1.58
9 19 11 1.68 1.01
11 -9 -19 2.57 2.41
9 11 -19 2.19 1.99
19 9 -11 0.97 1.37
-19 -11 9 0.09 1.2
11 9 19 5.84 1.95
-11 -9 19 2.56 1.76
19 -11 -9 -0.32 1.5
-19 11 -9 0.88 1.06
-19 9 11 3.58 1.93
-19 9 -11 -0.7 0.7
-11 19 -9 1.19 1.3
19 11 -9 2.31 1.05
11 9 -19 0.14 1.87
-11 -9 -19 -0.09 0.69
19 -9 -11 -0.43 1.11
11 19 9 2.48 1.42
-19 -9 11 0.14 1.25
11 -19 -9 -1.24 1.77
9 19 -11 2.02 1.68
-11 -19 9 1.12 1.34
-19 11 9 -1.15 1.25
11 19 9 1.28 0.93
-9 -11 19 4.08 2.82
11 11 -19 5.3 3.39
11 19 11 4.74 1.5
-11 -11 19 2.92 2.46
-19 11 11 2.93 2.09
-11 -19 11 6.05 2.62
19 -11 -11 4.96 2.51
19 11 -11 5.04 2.37
-11 19 -11 2.66 2.05
-19 -11 11 7.35 2.34
11 19 -11 3.09 2.04
-19 11 -11 0.97 1.18
-13 -1 19 2.65 2.56
19 -13 -1 1.2 1.04
-1 -19 13 1.57 1.59
-1 19 -13 6.35 3.21
13 19 -1 -0.08 1.06
19 1 -13 0.11 1.27
-13 19 1 3.6 2.26
13 1 19 3.85 1.88
-13 1 -19 -0.42 1.24
1 -13 19 3.3 2.34
1 13 -19 3.2 2.64
-13 19 1 0.52 2.42
-19 13 -1 -0.4 0.98
-19 1 13 -1.11 1.4
13 -1 -19 5.98 3.31
19 13 -1 1 0.61
-13 1 19 -1.93 1.96
19 13 -1 3.76 1.03
19 -1 -13 3.34 1.94
1 19 -13 8.45 3.82
13 19 1 1.97 1.22
13 19 1 3.48 1.74
-19 1 -13 1.18 0.63
-19 1 -13 2.16 0.84
-13 19 -1 1.77 1.57
-19 13 1 2.45 1.97
-13 -1 -19 2.32 1.15
-1 -13 19 3.71 2.39
-1 13 -19 4.88 2.86
-13 19 -1 0.03 1.76
13 1 -19 2.07 1.77
3 13 -19 44.19 8.29
-3 19 -13 55.68 9.08
13 19 -3 48.79 5.87
-19 3 13 39.95 6.67
-3 -19 13 33.88 6.13
-19 13 -3 42.71 5.9
-13 19 3 47.31 7.4
-13 -3 19 42.03 7.4
19 -13 -3 40.31 6.04
13 -3 -19 45.21 7.41
13 3 19 40.93 5.55
19 3 -13 46.23 6.33
-13 19 -3 30.33 6.06
13 3 -19 49.77 7.53
-19 -3 13 35.33 5.99
-19 3 -13 45.43 4.71
-19 3 -13 44.73 5.68
-3 -13 19 64.64 8.41
13 19 3 37.94 5.07
-13 -3 -19 39.91 5.5
3 19 -13 36.54 7.25
-13 3 19 44.95 7.79
19 13 -3 41.69 4.85
13 19 3 40.24 5.4
19 -3 -13 43.58 6.29
13 5 19 29.94 4.26
19 -13 -5 36.67 5.41
-5 19 -13 38.82 7.96
-13 19 5 21.06 6.21
13 -5 -19 33.94 10.66
19 5 -13 29.94 4.93
5 13 -19 37.04 10.56
-13 -5 19 30.15 6.11
13 19 -5 32.99 4.84
-19 -13 5 25.08 3.89
-19 5 13 31.17 5.77
-5 -19 13 39.6 6.11
-19 13 -5 27.96 4.49
-19 13 5 29.43 5.3
19 13 -5 29.42 4.21
-19 -5 13 24.14 4.6
-13 5 19 16.15 5.21
13 19 5 29.09 3.81
19 -5 -13 30.02 5.11
-19 5 -13 39.98 5.4
13 5 -19 35.45 6.22
-13 -5 -19 33.41 4.27
-13 19 -5 23.57 5.13
5 19 -13 35.25 6.62
-5 -13 19 37.23 6.61
13 19 5 25.72 4.08
-19 13 -7 0.03 1.15
19 7 -13 1.14 1.28
-13 -7 19 -0.33 1.26
13 -7 -19 1.73 2.22
13 19 -7 1.24 1.42
-7 -19 13 1.88 1.9
7 13 -19 -0.23 1.99
-19 -13 7 -0.16 1.09
-19 7 13 2.82 3.35
-13 19 7 1 2.08
13 7 19 4.19 1.28
-7 19 -13 2.18 2.21
13 19 7 0.6 0.9
-13 7 19 3.06 2.12
7 19 -13 -0.14 1.99
-13 -7 -19 0.97 0.95
-19 13 7 -2.01 1.24
19 13 -7 0.64 1.07
13 -19 -7 3.98 2.09
13 7 -19 1.71 2.05
-7 -13 19 -0.39 1.87
19 -7 -13 1.04 1.37
-19 -7 13 -1.08 1.18
-19 7 -13 0.18 0.84
-13 19 -7 0.21 1.16
13 19 7 1.79 0.95
9 19 13 0.67 0.7
-13 -9 19 1.99 2.35
-19 -13 9 -0.57 1.1
13 -9 -19 2.59 2.27
9 13 -19 2.52 2.22
19 9 -13 0.17 1.37
13 19 -9 0.44 1.25
-9 -19 13 -0.13 1.04
-19 9 13 -0.88 1.53
-9 19 -13 -0.49 1.4
13 9 19 1.92 0.95
19 -13 -9 0.67 1.41
-13 19 9 -1.37 2.56
-19 13 -9 -0.93 0.97
-9 -13 19 -0.21 1.32
-13 19 -9 -0.44 1.4
-19 13 9 -1.75 1.29
19 13 -9 0.34 0.77
13 19 9 0.43 0.93
19 -9 -13 1.97 1.49
13 9 -19 -0.79 1.24
13 19 9 -0.12 0.58
13 -19 -9 4.81 1.99
-13 -9 -19 -0.17 0.62
-13 -19 9 0.04 1.2
9 19 -13 -0.52 1.58
-19 -9 13 1.95 1.61
-19 9 -13 0.18 0.95
-13 9 19 2.66 4.77
19 -13 -11 25.05 6.16
-19 13 -11 20.67 3.6
19 11 -13 15.29 4.46
11 13 -19 15.2 4.56
11 19 13 15.25 2.51
-11 19 -13 25.06 4.6
-19 -13 11 19.05 3.65
-13 -11 19 12.49 3.86
13 11 19 15.33 2.48
13 19 -11 9.48 3.63
-19 11 13 12.01 3.84
-13 19 -11 12.69 3.55
13 11 -19 17.25 5.06
-11 -13 19 13.54 4.28
19 -11 -13 19.34 5.01
-19 11 -13 13.77 3.16
-19 13 11 25.46 5.06
11 19 -13 24.61 4.84
-13 -11 -19 19.66 2.38
-13 -13 19 26.49 5.1
-19 13 13 14.38 4.79
19 -13 -13 23.35 4.87
13 13 -19 25.5 5.59
-13 13 -19 28.24 5.37
-1 -19 15 2.07 2.29
-19 1 15 6.28 2.57
1 15 -19 9.68 7.41
-1 19 -15 1.48 2.6
-19 15 -1 5.01 2.12
19 1 -15 4.27 2.5
15 19 -1 3.6 1.88
-15 19 1 6.38 1.99
15 -1 -19 0.84 2.12
-15 -1 19 0.04 2.53
15 19 1 5.61 1.85
-15 1 19 4.58 2.77
1 19 -15 7.62 4.26
-19 -1 15 7.17 3.54
19 15 -1 4.36 1.4
-19 15 1 2.22 1.7
19 -1 -15 7.43 2.77
-19 1 -15 6.09 1.2
-15 19 -1 6.01 2.76
15 1 -19 3.62 2.17
19 15 -1 8.26 1.53
-15 -3 19 7.26 3.97
15 -3 -19 4.27 2.24
-3 -19 15 1.7 2.3
15 19 -3 2.91 1.71
3 15 -19 2.61 3.17
19 3 -15 4.46 2.41
-19 15 -3 6.35 2.65
-19 3 15 5.53 3.19
-15 19 3 9.51 3.69
19 -15 -3 3.95 1.91
-15 3 19 16.12 4.96
-15 19 -3 9.99 3.72
-3 -15 19 10.02 4.58
15 19 3 4.46 1.54
-19 -3 15 3.9 2.03
15 3 -19 3.52 2.06
-19 3 -15 7.49 1.92
-15 -3 -19 6.41 2.08
-19 3 -15 4.81 1.53
-19 15 3 6.41 2.83
19 -3 -15 6.29 2.92
3 19 -15 9.44 4.38
19 15 -3 2.82 1.23
19 -15 -5 3.3 1.62
-5 19 -15 2.89 1.86
-19 5 15 -1.11 1.5
5 15 -19 -2.28 1.96
-19 -15 5 2.07 1.26
-15 19 5 2.41 1.82
15 -5 -19 6.54 2.67
15 19 -5 3.94 1.34
-19 15 -5 1.07 1.35
-5 -19 15 1.24 1.77
-15 5 -19 1.13 1.06
-15 -5 19 5.18 2.52
19 5 -15 2.25 1.98
15 19 5 2.65 1.08
15 5 -19 3.86 2.42
-15 -5 -19 2.52 1.03
15 -19 -5 2.53 1.9
-5 -15 19 5.38 2.94
-19 5 -15 1.27 0.91
-19 -5 15 1.3 1.52
-19 15 5 6.26 3.23
5 19 -15 10.96 4.1
-15 19 -5 5.17 1.79
-15 5 19 9.43 3.87
19 -5 -15 2.33 1.26
15 19 5 2.18 1.16
-7 19 -15 7.09 3.4
19 -15 -7 4.84 2.43
-19 -15 7 1.64 1.26
-15 -7 19 -0.69 1.62
15 -7 -19 5.05 2.56
-7 -19 15 4.03 2.01
-19 15 -7 0.04 1.21
19 7 -15 1.78 1.45
-15 7 -19 1.54 1.33
15 19 -7 3.13 1.53
7 15 -19 -0.49 1.99
-19 7 15 2.24 2.13
-19 7 -15 -0.24 1
15 19 7 2.85 0.99
7 19 -15 4.25 2.71
-19 -7 15 1.91 1.99
19 15 -7 3.45 1.57
-7 -15 19 2.35 2.44
19 -7 -15 6.88 2.58
-19 15 7 2.69 1.93
15 7 -19 11.99 4.37
15 19 7 4.72 0.89
15 -19 -7 0.63 2.3
-15 19 -7 1.18 1.72
-15 -9 19 4.54 2.62
9 15 -19 11.21 4.1
-19 9 15 6.46 3.34
-19 -15 9 10.73 3.11
19 -15 -9 7.28 3.07
-9 -19 15 3.48 2.59
-19 15 -9 16.35 4.34
19 9 -15 10.64 3.64
-9 -15 19 10.76 4.08
15 9 -19 19.47 5.46
19 -9 -15 13.92 4.1
-19 9 -15 10.92 2.84
-15 -19 9 13.87 3.83
-19 15 9 5.09 1.93
-19 11 15 5.25 2.75
-15 -11 19 1.99 2.15
19 -15 -11 4.86 2.02
-11 -19 15 3.44 1.93
11 15 -19 7.23 5.27
-11 19 -15 1.35 1.66
11 19 -15 1.93 1.77
15 11 -19 6.65 3.15
-11 -15 19 3.21 3.43
-19 15 11 1.54 2.22
-15 19 -11 -1.29 1.46
19 -11 -15 6.34 2.36
-11 15 -19 2.71 2.64
-13 19 -15 1.8 2.45
-15 -13 19 1.34 2.26
-13 -15 19 2.28 2.48
-17 19 1 29.88 5.27
-19 17 -1 23.14 4.83
-19 1 17 24.45 5.2
-17 1 -19 21.92 3.09
17 -1 -19 27.21 5.32
17 19 -1 27.45 3.65
19 1 -17 28.71 5.14
-17 -1 19 25.49 5.37
19 17 -1 20.91 2.99
17 19 1 22.57 3.24
-17 19 -1 12.71 3.93
-19 1 -17 19.73 3.45
-17 1 19 31.24 5.69
19 -1 -17 26.57 5.04
-17 -1 -19 24.16 3.01
-19 17 1 21.07 4.78
-19 -1 17 28.38 5.56
17 1 -19 37.31 5.87
19 -17 -3 0.22 1.23
-19 17 -3 3.09 2.01
17 -3 -19 6.88 4.28
-17 3 -19 1.21 1.27
-17 -3 19 5.92 2.4
-17 19 3 5.69 3.26
19 3 -17 6.27 3.11
-19 3 17 4.78 3.26
3 19 -17 3.17 3.06
19 17 -3 2.54 1.27
19 -3 -17 7.23 2.55
17 19 3 2.76 0.94
-17 19 -3 1.55 2.34
-19 3 -17 2.95 1.16
17 3 -19 3.85 2.41
-19 17 3 1.22 1.66
17 19 3 1.26 0.87
-19 17 -5 2.67 2.39
-5 -19 17 0.17 1.58
17 -5 -19 0.34 1.89
-17 -5 19 1.01 1.73
5 17 -19 0.21 3.19
19 -17 -5 0.19 1.48
-19 5 17 1.09 2.05
-17 5 -19 -0.56 0.85
-17 19 5 3.45 2.51
17 -19 -5 -0.23 1.51
-17 19 -5 1.59 2.44
-19 -5 17 -2.21 1.84
-5 -17 19 0.74 2.94
-19 17 5 2.8 2.68
19 -5 -17 -1.79 1.37
-17 5 19 -0.83 1.67
17 5 -19 1.1 1.72
5 19 -17 3.02 2.74
-19 5 -17 -0.33 0.76
-7 19 -17 8.31 3.6
-7 -19 17 25.11 6.42
-17 -7 19 10.39 3.68
7 17 -19 20.94 7.56
-19 17 -7 6.13 2.36
-19 7 17 22.14 6.42
19 7 -17 13.01 4.14
-17 19 7 15.07 4.37
17 -7 -19 27.71 5.09
-17 7 19 17.73 4.83
17 -19 -7 17.36 5.74
19 -7 -17 9.64 3.6
-17 19 -7 13.71 3.93
7 19 -17 13.13 4.46
17 7 -19 21.15 5.66
-19 -7 17 7.61 3.3
-7 -17 19 19.76 4.24
-19 17 7 22.35 7.87
19 -17 -9 29.09 5.58
-9 -19 17 47.04 12.09
-9 19 -17 17.55 5.45
-19 9 17 32.02 6.8
9 17 -19 30.74 6.75
-17 -9 19 32.67 5.94
-9 17 -19 25.13 6.31
-19 17 9 34.18 8.33
19 -1 -19 1.86 1.85
-19 -1 19 0.27 2.27
-19 1 19 8.86 4.05
-19 19 -1 3.63 2.22
-19 19 1 9.35 2.74
19 1 -19 2.21 2.28
-19 19 -3 6.32 3.01
-19 -3 19 4.3 3.41
-19 3 19 4.86 3.5
19 3 -19 20.93 6.14
-19 19 3 8.44 4.28
19 -3 -19 2.59 1.97
-19 -5 19 4.43 2.93
-19 19 -5 7.97 2.72
19 -19 -5 1.01 2.02
19 -5 -19 3.7 2.37
-19 5 19 3.73 2.85
0 0 -20 72.39 9.81
-20 0 0 59.04 6.53
0 20 0 63.76 10.47
0 20 0 63.01 8.09
20 0 0 55.09 6.24
0 2 20 0.57 1.53
2 20 0 -1.31 0.91
2 20 0 -1.82 0.98
20 0 -2 -0.18 0.6
20 -2 0 -0.09 0.59
20 2 0 0.15 0.58
-20 0 2 1.93 1.08
-2 20 0 1.38 1.6
0 20 -2 0.01 1.48
0 20 2 -1.02 0.69
0 20 2 -2.3 1.26
-20 -2 0 1.06 0.79
-20 2 0 0.24 0.83
-2 0 -20 4.52 4.35
-2 0 20 0.56 1.59
0 20 -2 1.71 1.51
0 2 -20 0.68 1.59
-20 0 -2 0.05 0.64
-2 20 0 -0.24 1.28
0 -2 -20 3.47 3.01
2 0 20 -1.83 1.09
2 0 -20 0.13 1.28
0 -2 20 1.79 2.43
20 -2 -2 14.34 2.47
-2 20 -2 15.66 4.41
-2 20 -2 5.91 3.09
-2 20 2 9.57 3.48
2 -2 -20 14.88 5.02
2 -2 20 18.68 6
20 2 -2 11.35 2.11
-2 -2 20 16.47 5.76
-2 2 -20 20.86 7.75
-2 2 20 14.29 5.94
-20 -2 -2 13.68 1.8
-20 -2 2 9.96 2.17
-20 2 -2 12.74 2.33
-20 2 2 11.67 2.44
-2 -2 -20 17.52 5.65
2 20 -2 7.45 3.19
2 20 -2 21.94 5.3
2 20 2 10.14 3.66
2 2 -20 11.11 4.49
2 2 20 14.52 4.58
2 20 2 9.39 3.14
-20 4 0 12.58 3.12
-4 0 -20 10.43 4.25
-20 -4 0 9.97 1.73
-4 20 0 13.88 4.45
0 20 4 12.74 3.87
4 0 -20 5.76 3.15
20 -4 0 10.77 2.1
20 4 0 10.68 1.64
0 4 -20 9.96 4.01
0 4 20 3.85 2.64
4 20 0 8.34 2.95
20 0 -4 12.27 2.27
0 20 4 18.55 3.65
0 -4 20 15.12 5.38
-20 0 4 12.89 3.18
0 20 -4 8.65 3.1
-20 0 -4 14.05 2.05
-4 20 0 12.8 3.92
0 -4 -20 6.74 2.92
-20 0 -4 9.85 1.75
-4 0 20 6.87 2.96
20 -4 -2 42.77 5.39
4 20 -2 49.16 7.07
-2 20 -4 40.42 6.85
-4 20 2 50.81 7.08
2 20 4 36.48 5.85
4 -2 -20 53.06 8.25
2 -4 20 42.52 7.53
2 4 -20 48.63 8.19
-2 4 20 48.03 8.12
-4 -2 20 32.94 7.17
-4 2 -20 49.08 8.09
-4 20 2 39.88 6.84
20 2 -4 44.47 5.12
-2 20 -4 40.48 6.68
-20 -4 2 43.65 5.09
-20 4 -2 42.78 5.24
-20 2 4 47.96 5.96
4 20 -2 32.81 6.01
-2 -4 -20 57.28 8.04
-2 20 4 45.77 6.52
20 -2 -4 44.77 5.4
2 20 -4 49.04 7.34
-4 20 -2 64.18 7.81
-4 20 -2 50.91 7.36
-20 4 2 45.95 5.74
-2 -4 20 47.44 7.86
-2 20 4 49.14 7.24
20 4 -2 46.73 4.89
-4 2 20 53.12 9.64
2 -4 -20 46 7.78
-20 2 -4 47.12 5.05
-20 2 -4 42.25 5.22
4 2 -20 65.03 8.98
2 20 -4 34.57 6.34
-2 4 -20 39.41 7.62
-20 -2 4 38.43 5.36
-4 -2 -20 46.98 7.46
4 20 2 34.95 5.81
-20 4 -4 93.16 10.82
20 4 -4 105.98 10.16
4 20 -4 91.24 11.82
-20 4 4 81.02 10.61
4 -4 20 126.8 14.1
4 4 -20 117.29 13.8
-4 4 -20 118.1 14.2
-4 4 20 97.01 13.42
-4 20 -4 120.53 13.35
-4 20 4 115.58 12.81
4 -4 -20 113.3 14.24
-4 -4 -20 119.15 13.22
-4 -4 20 119.94 13.84
4 20 4 119.89 12.61
-20 -4 4 97.53 10.43
-20 4 -4 91.06 10.15
4 20 -4 98.57 12.41
4 4 20 113.91 13.32
4 20 4 104.66 11.33
20 -4 -4 95.36 10.57
-20 0 -6 2.34 0.74
-20 0 6 2.56 1.82
-20 0 -6 2.88 0.89
0 -6 -20 1.08 1.81
0 -6 20 0.56 2.09
0 6 -20 4.3 3.43
0 6 20 3.84 2.7
6 20 0 2.22 1.88
6 20 0 1.1 1.23
20 0 -6 2.28 1.25
6 0 20 4.03 1.96
20 -6 0 3.13 1.65
0 20 6 1.42 1.71
6 0 -20 2.82 2.16
0 20 -6 2.66 2.48
-20 -6 0 2.45 0.79
-20 6 0 1.76 1.34
-6 0 -20 3.93 2.43
-6 20 0 1.48 1.68
-6 20 0 1.02 1.96
20 6 0 2.54 0.81
-6 0 20 -0.89 1.75
6 -2 -20 7.72 3.94
-2 6 20 14.03 4.56
20 2 -6 7.62 2.02
-6 20 2 9.72 3.56
-6 20 2 9.81 3.37
-20 6 -2 5.02 1.81
6 20 -2 7.66 2.33
-2 -6 -20 9.38 3.68
-6 -2 20 7.82 3.55
-20 2 6 4.05 1.88
-6 2 -20 11.27 4.93
-2 20 -6 9.89 4.03
-2 20 -6 15.34 4.67
6 2 20 11.22 4.09
20 -6 -2 9.18 2.47
-20 -6 2 8.51 1.66
2 20 6 6.22 2.53
2 6 -20 13.84 4.98
2 -6 20 10.16 4.01
-6 2 20 8.66 3.56
2 -6 -20 13.45 5.02
-6 20 -2 8.21 3.07
-6 20 -2 4.33 2.99
6 20 2 7.24 3.06
-20 2 -6 7.02 1.59
-20 2 -6 9.78 2.03
-20 -2 6 8.57 2.68
-6 -2 -20 14.53 4.74
-2 20 6 10.53 3.79
2 20 -6 4.58 2.64
2 20 -6 10.23 3.57
6 20 2 5.1 1.95
20 -2 -6 5.99 1.95
-20 6 2 11.11 3.01
20 6 -2 7.43 1.4
-2 6 -20 14.95 5.63
6 2 -20 6.51 2.95
-20 6 -4 42.19 6.41
-4 6 20 48.22 8.54
20 4 -6 51.69 5.77
-20 -6 4 47.91 5.72
-4 20 -6 37.24 6.92
4 20 6 40.11 6.09
-6 4 -20 36.77 7.91
-4 -6 -20 50.36 7.83
-6 -4 20 44.25 7.95
-20 6 -4 55.98 6
6 -4 -20 51.76 8.51
4 20 6 44.6 6.92
-20 4 6 44.87 6.25
4 -20 -6 53.27 8.01
4 -6 20 58.58 8.58
20 -6 -4 48.38 6.11
6 20 -4 58.53 7.33
6 4 20 49.81 7.74
4 6 -20 51.55 8.64
-4 20 -6 53.58 8.21
-6 20 4 37.51 6.92
20 -4 -6 47.83 6.07
-20 4 -6 50.93 6.03
-6 20 -4 66.73 8.75
-20 -4 6 42.88 5.82
-20 4 -6 50.46 5.57
-4 -6 20 42.91 8.04
6 4 -20 53.54 8.28
-6 4 20 54.61 8.86
4 20 -6 54.79 8.08
20 6 -4 51.92 5.55
-4 6 -20 56.72 9.24
-6 20 -4 60.26 8.05
-4 20 6 46.51 7.59
4 6 20 50.07 7.68
-20 6 4 54.37 6.68
6 20 4 41.56 6.69
6 20 4 37.19 5.98
-6 -4 -20 55.62 7.84
4 20 -6 60.01 7.82
4 -6 -20 60.87 9.01
-6 20 -6 8.17 4.01
20 -6 -6 12.98 2.81
-6 20 6 16.15 4.95
6 20 -6 24.72 5.77
-6 20 -6 6.81 2.75
-20 6 6 15.47 3.92
6 -6 20 19.64 3.85
6 6 -20 8.44 3.41
-20 6 -6 9.96 2.23
-20 6 -6 14.76 3.9
20 6 -6 14.18 3.16
-6 6 20 11.1 4.12
6 -20 -6 12.81 4.71
6 -6 -20 15.63 5.23
-6 6 -20 14.05 4.9
-6 -6 20 15.19 5.07
6 6 20 13.87 4.89
6 20 -6 17.94 5.72
-6 -6 -20 8.11 2.7
6 20 6 15.86 4.8
0 8 -20 9.5 4.3
8 20 0 11.94 3.22
8 20 0 8.6 2.97
0 20 -8 8.98 3.97
0 20 8 6.73 3.12
8 0 -20 20.99 5.96
-20 0 8 7.75 2.52
-8 20 0 17.52 5.16
-8 0 20 9.61 4.25
0 -20 -8 9.35 3.69
0 -8 20 12.05 4.52
-8 20 0 10.07 3.43
0 -8 -20 7.73 3.69
-8 0 -20 6.05 2.57
8 0 20 12.45 3.77
20 -8 0 13.43 2.64
0 20 -8 3.84 2.5
-20 8 0 10.36 2.84
-8 20 2 1.81 1.77
-8 2 -20 1.64 1.5
8 20 -2 0.66 1.06
2 8 -20 1.13 1.82
-8 20 2 1.59 1.71
-20 2 8 0.64 1.06
-8 -2 20 -0.62 1.67
2 -20 -8 0.49 1.57
-2 20 -8 1.72 1.77
20 2 -8 0.03 1
8 -2 -20 -2.2 1.18
-20 -8 2 1.19 0.75
8 20 -2 -1.44 0.84
8 2 20 3.24 1.79
-20 8 -2 -0.07 0.73
-2 20 -8 0.01 1.44
20 -8 -2 -1.23 0.52
20 8 -2 -0.24 0.43
-8 20 -2 2.81 2.28
8 -2 20 -0.47 1.06
2 20 -8 -1.42 1.6
-20 8 2 0.49 0.89
20 -2 -8 0.04 0.86
2 20 -8 0.42 1.37
8 2 -20 2.75 2.32
-8 -2 -20 2 1.74
8 20 2 -0.15 0.83
-2 20 8 1.07 1.43
8 20 2 -1.25 1.17
-8 2 20 2.75 1.76
-20 -2 8 1.64 1.62
-20 2 -8 0.25 0.58
-20 2 -8 1.29 0.98
-2 -8 20 -1.19 1.5
-8 20 -2 -1.65 1.08
2 8 20 2.26 2.44
2 -8 -20 -0.33 1.66
-2 8 -20 2.86 2.67
4 -8 20 13.35 5.32
20 -8 -4 8.55 2.45
-8 20 4 8.32 2.96
4 8 -20 21.53 6.71
4 20 8 11.3 3.94
-8 4 -20 28.34 7.67
-20 4 8 5.53 2.43
-4 20 -8 9.15 3.62
-4 20 -8 11.1 3.86
8 -4 -20 9.62 3.86
8 20 -4 16.87 5.47
8 20 -4 13.56 4.06
-20 -8 4 22.15 5.58
-8 -4 20 13.59 4.04
20 4 -8 13.23 3.34
4 20 8 12.11 3.05
-4 -8 -20 8.07 3.22
-20 8 -4 13.17 2.67
-20 8 -4 8.9 3
-4 8 20 21.76 7.07
4 -20 -8 10.9 3.77
20 -4 -8 11.74 3
-20 4 -8 14.08 2.79
20 8 -4 14.54 2.3
-8 20 -4 21.22 5.28
-8 20 -4 8.8 3.52
-8 -4 -20 15.17 4.28
4 20 -8 25.13 6.64
-20 -4 8 12.34 3.22
-20 4 -8 11.94 2.12
4 -8 -20 27.33 7.01
-20 8 4 5.25 2.22
8 20 4 7.3 2.88
8 20 4 17.24 3.01
-4 20 8 10.67 3.42
8 4 -20 15.9 5.36
4 8 20 8.82 3.43
-8 4 20 10.69 4.41
-4 8 -20 14.9 5.22
-20 -8 6 0.24 0.78
6 -20 -8 1.17 2.19
-6 20 -8 4.28 4.29
6 8 -20 1.63 1.86
-20 8 -6 -0.23 0.72
-20 8 -6 1.2 1.73
-8 -6 20 1.57 1.52
-8 20 6 -0.87 1.16
-6 -8 -20 2.19 2.16
8 6 20 1.83 1.95
-6 20 -8 2.81 1.66
8 20 -6 -0.15 1.51
6 20 8 -0.04 0.91
20 6 -8 2.55 1.43
8 -6 -20 3.16 2.65
-20 6 8 1.96 1.65
20 -8 -6 0.68 1.26
-6 8 20 1.57 2.6
6 20 -8 -0.61 1.58
-8 20 -6 2.55 2.24
8 6 -20 -1.7 0.98
-6 20 8 1.09 1.87
-6 -8 20 0.42 1.47
8 20 6 1.07 1.26
6 -8 -20 5.95 2.82
-8 6 20 1.9 2.41
-20 8 6 0.2 1.31
-8 20 -6 1 1.26
-20 6 -8 2.8 1.31
20 8 -6 1 0.92
-20 -6 8 0.37 1.11
20 -6 -8 -1.09 0.75
-8 -6 -20 4.19 1.59
-20 6 -8 0.57 0.82
-8 20 8 15.91 5.55
8 -8 -20 21.99 6.28
8 20 8 12.06 2.96
-8 20 -8 17.56 5.38
20 8 -8 17.06 2.87
-20 -8 8 12.87 2.79
-20 8 -8 12.29 2.49
-20 8 8 10.29 3.42
8 20 -8 13.86 4.59
-8 8 20 17.99 6.24
-8 20 -8 17.04 4.97
8 8 -20 14.18 5.37
20 -8 -8 17.33 4.27
-8 -8 20 19.68 5.73
8 -20 -8 14.95 5.18
-8 -8 -20 8.6 3.59
-10 20 0 -0.28 1.39
0 10 -20 0.71 2.62
0 20 -10 0.27 1.4
10 0 -20 -2.01 1.43
20 -10 0 0.69 0.86
10 20 0 -0.21 0.85
-20 10 0 0.55 1.14
-10 0 -20 3.46 2.62
-10 0 20 5.37 1.96
0 -10 20 -1.47 1.58
-10 20 0 2.91 1.49
0 20 -10 -1.84 1.73
-20 0 10 0.1 1.12
10 20 0 -2.34 1.37
20 0 -10 1.71 1.23
10 2 20 9.78 3.11
20 -10 -2 8.54 2.6
2 10 -20 7.91 3.99
-20 2 10 12.29 3.35
10 -2 -20 10.68 3.66
-10 -2 20 8.46 3.6
-10 2 -20 23.82 8.35
-10 20 2 10.84 5.35
-2 20 -10 7.07 3.13
-2 20 -10 23.17 6.43
2 -10 20 29.74 7.91
-20 -10 2 10.69 1.89
-20 10 -2 15.88 3.88
10 20 -2 19.88 3.65
20 2 -10 12.42 2.78
-10 20 2 12.16 4.04
10 20 2 15.98 4.63
-20 2 -10 12.33 2.2
10 20 2 13.54 2.76
20 -2 -10 14.05 2.96
-10 20 -2 15.64 4.8
-20 -2 10 10.59 2.93
-20 2 -10 12.07 1.9
-10 2 20 10.14 4.91
2 20 -10 21.35 6.11
-10 -2 -20 17.62 4.67
2 20 -10 10.98 4.95
10 2 -20 16.38 5.33
-10 20 -2 11.18 3.96
-2 -10 20 21.72 6.69
-2 10 -20 13.98 5.72
-20 10 2 12.62 3.59
20 10 -2 12.56 1.93
10 20 -4 35.13 5.38
-10 20 4 27.65 5.73
-20 -10 4 30.23 4.08
-10 -4 20 31.51 6.58
10 4 20 30.74 5.5
4 10 -20 33.66 7.15
-20 4 10 30.8 5.28
-20 10 -4 31.9 4.79
-4 20 -10 31.76 6.06
10 -4 -20 39.17 7.13
20 4 -10 32.48 4.88
20 -10 -4 26.53 4.67
-10 20 -4 32.01 6.46
10 20 4 35.7 5.36
20 -4 -10 34.96 5.02
-20 4 -10 37.48 4.12
-20 10 4 30.75 5.03
-10 4 20 38.21 7.05
-4 -10 20 28.89 5.93
-20 -4 10 35.75 5.19
-20 4 -10 33.74 4.84
10 -20 -4 25.88 5.75
10 20 4 31.4 4.49
10 4 -20 38.94 6.84
-10 20 -4 32.59 5.64
20 10 -4 38.51 4.19
-10 -4 -20 33.81 5.57
-20 6 10 6 2.98
6 20 10 9.03 2.75
-10 -6 20 2.68 2.56
-20 -10 6 4.27 1.69
-20 10 -6 4.5 1.92
20 -10 -6 4.82 2.48
10 6 20 8.45 4.6
20 6 -10 3.4 1.78
10 20 -6 4.62 2.47
-10 20 6 1.51 1.96
-6 20 -10 -0.7 2.59
-6 20 -10 2.44 3.78
10 -6 -20 2.4 2.69
-10 6 20 5.67 3.02
10 -20 -6 2.04 1.91
-20 10 6 3.64 2.39
-10 20 -6 8.33 3.08
20 -6 -10 4.26 2.19
-6 -10 20 8.18 2.99
-10 -6 -20 4.29 1.91
-10 20 -6 7.91 3.5
-20 -6 10 0.73 1.4
6 20 -10 7.79 3.02
-20 6 -10 6.25 2.24
10 6 -20 5.81 2.81
-20 6 -10 2.01 1.16
10 20 6 2.52 1.19
20 10 -6 6.71 2.04
10 -8 -20 -1.91 1.6
20 8 -10 -1.22 0.78
-20 8 10 0.5 1.15
-20 -10 8 -1.32 0.78
-10 -8 20 -1.97 1.41
20 -10 -8 2.22 2.1
10 20 -8 0.68 1.55
8 10 -20 0.95 2.1
-20 10 -8 -1.17 0.71
-8 20 -10 0.31 1.54
8 20 10 0.16 0.79
-20 10 8 2.42 1.9
8 20 -10 -0.85 1.49
10 -20 -8 -1.13 1.76
10 8 -20 0.44 1.96
-10 20 -8 -0.58 1.24
20 -8 -10 0.11 1.17
-8 -10 20 -5.01 2.1
20 10 -8 -0.31 0.8
10 20 8 1.67 0.9
-20 -8 10 -0.35 1.26
-20 8 -10 -0.32 0.84
-10 20 -10 -0.91 1.69
-20 -10 10 2.24 1.12
-20 10 -10 0.82 0.99
10 20 -10 2.29 1.93
10 20 10 -0.97 0.62
20 -10 -10 0.74 1.32
10 10 -20 3.95 1.79
20 10 -10 -0.05 1.03
-20 10 10 0.59 2.03
-10 -20 10 0.57 1.49
-10 -10 20 4.96 2.59
-20 12 0 9.75 3.07
0 -12 20 10.36 4.1
0 12 -20 6.73 4.25
12 20 0 8.08 2.68
-12 0 20 7.99 4.28
0 20 -12 9.2 3.82
20 0 -12 11.62 3.4
-12 20 0 6.54 2.92
-12 20 0 12.15 4.6
-20 0 12 9.75 3.15
2 12 -20 37.02 8
-12 -2 20 46.73 7.25
20 -12 -2 44.42 6.02
12 -2 -20 30.24 9.66
-12 20 2 20.64 8.31
-2 20 -12 64.43 9.72
-2 20 -12 62.02 8.15
-20 2 12 42.98 6.51
12 20 -2 34.35 5.41
20 2 -12 33.66 5.44
-20 12 -2 44.36 5.98
12 2 -20 47.69 7.46
-2 -12 20 38.86 7.52
-12 2 20 30.66 8.72
-20 12 2 41.36 6.16
12 20 2 51.23 5.69
-12 20 -2 36.09 6.61
-20 2 -12 38.85 4.28
-12 -2 -20 40.84 6.56
20 12 -2 39.66 4.41
-20 -2 12 34.18 5.7
2 20 -12 36.91 7.32
20 -2 -12 48.39 6.21
-12 20 -2 57.53 10.13
-20 2 -12 45.56 4.94
-20 12 -4 96.45 10.44
12 20 -4 72.47 9.85
-4 -20 12 102.55 11.32
-12 -4 20 94.74 12.51
-20 -12 4 85.9 9.24
12 -4 -20 88.42 12.23
20 -12 -4 91.92 10.45
4 12 -20 79.48 12.51
20 4 -12 87.25 10.38
-20 4 12 89.25 11.11
-4 20 -12 95.45 12.35
-12 20 4 100.23 12.1
-4 20 -12 106.91 13.65
12 20 4 91.74 10.31
-12 20 -4 103.02 11.72
-20 12 4 104.09 11.14
-12 4 20 93.32 12.72
20 -4 -12 95.32 10.66
-20 -4 12 95.16 10.78
20 12 -4 91.87 9.3
-20 4 -12 83.42 8.93
12 4 -20 93.57 12.26
4 20 -12 117.13 13.21
12 -20 -4 96.91 12
-20 4 -12 98.58 10.26
20 -12 -6 22 4.49
-6 -20 12 19.56 4.59
-20 12 -6 27.38 4.28
12 -6 -20 35.39 6.53
12 20 -6 24.33 4.62
6 12 -20 27.81 5.9
-20 6 12 35.24 5.82
-6 20 -12 26.17 5.45
-12 -6 20 37.09 6.14
-20 -12 6 30.56 4.06
20 6 -12 29.56 4.53
-20 12 6 22.25 4.76
6 20 -12 24.72 5.65
12 6 -20 32.08 6.11
20 -6 -12 28.29 4.76
-20 6 -12 26.76 3.67
12 -20 -6 28.97 5.92
20 12 -6 27.53 3.9
-6 -12 20 19.79 5.93
-20 -6 12 28.93 4.82
12 20 6 24.45 3.64
20 8 -12 2.4 1.83
12 20 -8 2.2 2.08
8 20 12 4.69 1.6
-20 -12 8 1.75 1.28
8 12 -20 3.9 2.64
-12 -8 20 7.74 3.6
-8 -20 12 2.05 1.72
-8 20 -12 12.86 3.95
-20 12 -8 5.58 2.32
20 -12 -8 4.27 2.41
-20 8 12 2.87 1.64
-12 20 -8 4.1 2.92
-20 12 8 7.14 3.05
8 20 -12 0.64 2.16
20 -8 -12 1.73 1.64
-20 8 -12 6.05 2.18
-20 -8 12 4.29 2.19
12 20 8 3.75 1.51
20 12 -8 7.11 2.51
12 8 -20 7.89 3.17
-8 -12 20 4.46 2.95
10 20 12 17.43 2.86
-20 10 12 21.4 4.5
-20 12 -10 18.43 3.52
10 12 -20 30.42 10.29
-20 -12 10 13.04 3.09
-10 20 -12 9.17 3.54
12 20 -10 24.55 6.04
20 10 -12 15.52 3.22
-12 -10 20 19.61 5.67
-12 -20 10 26.01 5.57
12 10 -20 24.58 4.58
20 12 -10 18.89 3.66
-20 -10 12 16.32 3.63
-12 20 -10 24.32 4.41
12 20 10 14.71 2.58
-20 12 10 20.46 4.46
-10 -12 20 23.08 6.34
10 20 -12 14.05 4.64
20 -10 -12 19.39 3.83
-12 20 -12 49.92 7.61
-20 12 12 56.26 8.55
-12 -20 12 40.71 7.32
20 -12 -12 51.43 6.97
-14 0 20 0.55 2.3
0 20 -14 -2.72 2.43
14 20 0 0.65 1.15
-20 14 0 2.16 1.87
20 0 -14 1 1.5
-14 20 0 0.22 1.14
14 0 -20 6.89 2.56
-20 0 14 1.85 2.47
20 -14 -2 16.16 4.61
-14 20 2 17.05 5.31
-2 20 -14 30.41 6.3
14 -2 -20 22.96 6.05
-20 2 14 13.69 3.88
-14 -2 20 11.65 4.15
-20 14 -2 23.16 5.23
20 2 -14 22.95 4.31
14 20 -2 14.42 3.19
-2 -20 14 11.86 4.13
-14 2 20 8.18 3.73
-20 2 -14 16.95 2.31
20 14 -2 17.45 2.37
20 -2 -14 11.61 3.46
2 20 -14 27.94 10.39
20 14 -2 17.29 2.69
14 20 2 23.3 3.13
-14 20 -2 22.69 4.63
-20 2 -14 18.59 2.75
14 2 -20 18.03 5.22
-20 14 2 11.56 4.55
-20 14 -4 42.55 5.85
14 20 -4 49.64 5.77
-4 20 -14 43.28 7.66
20 -14 -4 40.41 5.98
-14 20 4 31.31 6.64
14 -4 -20 34.32 6.96
-20 4 14 38.26 6.45
-4 -20 14 28.76 6.13
4 14 -20 39.61 7.7
20 4 -14 42.46 6.12
14 -20 -4 41.76 7.08
20 14 -4 33.35 4.47
-4 -14 20 31.99 6.98
-14 4 20 44.44 8.19
4 20 -14 50.18 8.18
-20 4 -14 41.17 4.42
20 -4 -14 28.69 5.36
-14 20 -4 35.53 6.38
-20 14 4 34.07 5.67
14 20 4 35.91 4.61
14 4 -20 39.51 6.73
20 -14 -6 4.52 2.68
-6 -20 14 5.24 2.41
-20 14 -6 6.56 2.59
-14 -6 20 3.56 2.49
20 6 -14 10.74 3.48
6 14 -20 11.21 5.1
14 20 -6 5.71 2.29
14 -6 -20 7.26 4.07
-20 6 14 6.91 2.98
20 14 -6 9.25 2.34
14 20 6 8.27 2.02
-20 14 6 5.94 2.75
14 -20 -6 1.85 2.46
14 6 -20 7.87 2.7
6 20 -14 1.21 2.22
20 -6 -14 9.2 3.6
-14 20 -6 5.61 3.25
-20 6 -14 5.48 2.11
-14 -6 -20 8.21 1.95
-20 -6 14 11.05 3.1
-14 6 20 11.34 6.05
-20 14 -8 1.4 1.15
20 8 -14 0.58 1.54
8 14 -20 5.81 2.76
-20 8 14 -1.03 2.44
-14 8 -20 -0.56 1.32
-14 -8 20 1.27 1.73
-8 20 -14 2.52 1.94
20 -14 -8 4.63 1.95
-20 -14 8 0.35 1.12
-8 -20 14 -1.92 1.39
14 8 20 1.45 1.18
14 8 -20 -2.22 1.54
-20 -8 14 -0.33 1.53
-14 20 -8 -0.99 1.61
14 20 8 1.01 0.94
8 20 -14 3.37 2
-20 14 8 1.49 1.51
-14 -8 -20 0.44 0.6
-20 8 -14 -0.07 1.01
-8 -14 20 1.05 1.86
20 -8 -14 1.37 1.36
-10 -20 14 3.4 2.22
-20 10 14 3.55 2.63
20 -14 -10 6.76 2.58
10 14 -20 5.46 2.84
-10 20 -14 10.38 3.84
-14 -10 20 9.15 3.18
-14 20 -10 5.41 2.83
-20 14 10 9.84 3.8
-10 -14 20 7.27 3.03
14 20 10 8.24 1.44
20 -10 -14 7.52 2.83
14 10 -20 7.7 3.38
10 20 -14 7.16 2.97
-12 20 -14 32.46 6.25
12 14 -20 40.24 7.46
-14 -12 20 27.47 9.28
20 -14 -12 32.82 5.75
20 -12 -14 28.46 6.12
-12 -14 20 29.19 6.35
-20 14 12 43.17 6.26
14 12 -20 25.16 8.63
-14 20 -12 29.1 6.22
-20 16 0 8.42 3.9
20 0 -16 9.82 3.57
16 0 -20 3.31 2.79
-20 0 16 2 2.72
-16 20 0 9.56 3.92
-16 0 -20 5.5 1.64
20 2 -16 0.93 0.96
-16 2 -20 -1.11 0.77
-20 2 16 0.69 1.8
-20 16 -2 0.89 1.62
16 -2 -20 0.95 1.63
-16 -2 -20 -0.54 0.68
-16 2 20 0.87 2.48
-20 2 -16 0.13 0.96
-20 -2 16 2.77 1.45
-20 16 2 1.18 1.95
2 20 -16 2.28 3.39
-16 20 -2 -0.69 1.57
20 -2 -16 -0.92 1.45
-20 2 -16 0.91 0.93
16 2 -20 -1.68 1.29
-4 -20 16 10.01 4.64
-20 4 16 7.22 3.26
-16 4 -20 6.45 2.17
-16 20 4 5.29 2.97
-16 -4 20 5.49 2.66
20 4 -16 2.9 2.29
16 -4 -20 8.64 4.62
20 -16 -4 6.95 2.4
-20 16 -4 0.81 2.15
-16 4 20 2.76 3.34
-20 4 -16 3.61 1.24
-20 16 4 7.88 3.45
-16 20 -4 5.03 2.34
4 20 -16 6.32 4.22
-16 -4 -20 6.41 1.38
20 -4 -16 6.1 2.09
-20 -4 16 3.7 3.17
16 4 -20 7.27 3.55
-16 -4 -20 6.69 1.45
-20 16 -6 -0.96 1.3
20 -16 -6 -0.93 1.34
-16 -6 20 3.39 2.57
-16 20 6 2.8 3.37
16 -6 -20 -4.29 3.11
-6 20 -16 -0.61 2.05
-6 -20 16 -0.66 1.47
-20 6 16 0.72 2.55
-16 20 -6 -1.01 2.2
6 20 -16 6.02 3.06
-20 -6 16 0.53 2.1
-20 16 6 -2.66 1.86
20 -6 -16 0.51 1.52
16 6 -20 2.76 2.01
16 -20 -6 1.52 1.76
8 16 -20 21.12 7.91
20 -16 -8 20.62 4.4
-8 -16 20 18.74 6.28
8 20 -16 13.23 4.31
10 16 -20 -3.24 1.99
-10 20 -16 0.37 2.6
-16 -10 20 -0.76 2.41
20 -16 -10 4.02 2.57
-10 -20 16 -0.52 2.1
-20 10 16 -0.31 2.41
20 -10 -16 1.51 1.86
-20 16 10 6.84 3.8
-10 16 -20 2.5 2.39
-10 -16 20 -2.11 2.14
-16 20 -10 -2.21 1.81
20 0 -18 2.6 2.26
-18 20 0 5.14 2.99
-20 0 18 0 2.34
-20 18 0 5.17 2.79
-18 0 20 8.26 4.82
18 0 -20 13.44 4.6
18 -2 -20 -1.48 1.9
-20 2 18 0.52 2.9
-20 18 -2 -0.1 1.88
-18 20 2 3.79 2.53
-20 -2 18 0.85 2.15
18 2 -20 7.12 2.36
-18 2 20 -1.45 2.36
-18 20 -2 2.25 1.98
-20 18 2 3.72 2.84
20 -2 -18 1.03 1.88
20 -18 -4 4.62 3.3
18 -4 -20 0.61 2.82
-18 20 4 4.8 2.91
-18 -4 20 10.04 5.1
-20 4 18 24.08 9.64
20 -4 -18 10.6 4.83
18 4 -20 4.86 2.59
-20 18 4 16.72 5.41
-20 -4 18 10.32 3.65
-18 20 -4 7.02 3.1
-18 4 20 11.15 4.19
-20 6 18 2.72 3.15
-18 -6 20 -0.43 3.47
20 -6 -18 1.25 1.76
-20 18 6 -1.68 2.37
-18 20 -6 4 3.27
-21 -1 -1 2.93 1.18
-21 -1 1 3.93 1.76
-21 1 1 7.77 2.18
-1 -1 -21 3.47 2.67
-1 -1 21 4.33 3.39
-1 1 -21 1.44 2.17
-1 1 21 9.81 4.39
-1 21 -1 2.9 1.8
-1 21 -1 4.18 2.59
-1 21 1 1.9 2.47
-1 21 1 4.22 2.09
1 -1 -21 0.8 1.34
1 -1 21 3.26 3.04
1 1 -21 3.33 2.53
1 1 21 3.75 2.09
1 21 -1 2.44 1.82
1 21 -1 1.63 1.63
1 21 1 2.6 1.73
1 21 1 1.63 1.65
21 -1 -1 4.64 1.65
21 -1 1 4.77 1.57
21 1 -1 2.52 1.19
21 1 1 3.43 1.05
-21 -1 -3 20.18 2.42
-21 -1 -3 18.62 2.4
21 1 -3 17.1 2.78
1 21 3 21.42 4.41
-1 21 -3 20.66 5.31
-21 1 3 17.62 3.18
1 21 3 23.59 4.27
3 -1 -21 16.83 5.96
-3 21 1 17.24 4.81
-3 21 1 12.25 4.17
-1 -3 -21 15.89 4.78
-21 3 -1 22.3 3.16
21 -3 -1 18.72 2.85
-1 3 21 28.14 7.19
-3 1 -21 25.49 5.5
1 -3 21 15.88 5.05
1 3 -21 12.32 4.16
-21 -3 1 16.1 2.58
3 21 -1 16.05 4.74
3 21 -1 12 3.56
-1 21 -3 17.91 4.97
-3 -1 21 17.44 5.28
-1 3 -21 19.88 6.21
-3 1 21 17.86 5.28
-21 1 -3 22.38 3.01
-1 -3 21 30.52 7.67
-1 21 3 23.41 5.97
-1 21 3 25.01 4.29
1 21 -3 26.32 5.11
1 21 -3 23.92 4.7
-21 1 -3 19.48 2.66
-3 21 -1 22.1 4.67
-3 21 -1 17.08 4.47
3 -1 21 26.79 5.78
3 1 -21 14.97 4.93
3 21 1 29.44 4.69
21 -3 1 16.56 2.72
-21 -1 3 17.75 3.03
-21 3 1 14.75 2.9
-3 -1 -21 17.05 5.12
21 -1 -3 16.37 2.8
1 -3 -21 11.23 3.61
-21 -3 -1 17.82 2.36
1 3 21 20.24 5.69
21 3 -1 17.01 2.48
-3 3 21 57.27 9.36
-3 21 -3 53.33 8.17
-3 21 -3 64.78 8.88
3 21 -3 68.36 8.43
3 21 3 72.97 8.02
-3 -3 -21 61.94 9.02
-3 -3 21 62.5 9.42
-3 3 -21 67.34 10.22
-21 -3 3 49.46 6.27
-21 3 -3 61.84 6.52
-21 3 -3 52.08 6.75
-21 3 3 57.82 6.9
-3 21 3 71.13 9.11
-3 21 3 44.12 7.56
3 -3 -21 58.75 9.32
3 -3 21 55.7 9.14
3 3 -21 60.21 9.33
3 21 -3 52.57 8.43
21 3 -3 61.49 6.29
21 -3 -3 56.24 6.6
1 21 5 19.69 3.69
-21 1 5 14.18 2.93
-5 21 1 10.78 3.87
-1 5 21 4.87 3.19
-21 -5 1 15.23 2.17
1 -5 21 12.9 4.63
5 -1 -21 20.12 6.49
1 21 5 13.92 4.53
21 1 -5 13.07 2.55
-1 21 -5 17.37 5.09
-5 21 1 8.85 3.56
-5 1 -21 21.54 6.45
-1 -5 -21 17.89 5.85
5 21 -1 22.54 5.26
-21 5 -1 18.57 2.93
1 5 -21 25.42 7.63
21 -5 -1 11.53 2.41
-5 -1 21 11.69 4.81
-1 21 -5 14.35 4.36
5 1 21 11.31 4.67
-1 21 5 19.64 4.92
-5 1 21 9.6 4.17
1 21 -5 16.19 4.44
-1 5 -21 19.36 6.89
5 21 1 12.97 4.22
-21 1 -5 14.93 2.28
5 1 -21 16.06 5.29
-5 21 -1 9.97 3.47
-1 -5 21 16.04 5.49
21 -5 1 17.14 2.66
21 5 -1 15.76 2.08
-21 5 1 17.11 3.81
21 -1 -5 13.28 2.6
5 21 1 9.66 3.24
-5 21 -1 10.4 3.57
-21 1 -5 11.24 1.96
-5 -1 -21 14.58 4.65
-1 21 5 13.78 4.85
-21 -1 5 15.2 2.93
1 21 -5 8.34 2.96
1 -5 -21 13.37 4.7
3 -5 21 78.8 10.86
3 21 5 62.3 8.34
21 3 -5 70.87 7.56
-21 5 -3 74.96 8.71
-21 3 5 71.89 8.43
-21 -5 3 65.6 7.44
-21 5 -3 73.31 7.81
-5 3 -21 73.64 11.21
5 3 21 74.45 10.38
-3 5 21 68.95 11.03
5 21 -3 65.83 8.99
21 -5 -3 66.59 7.89
3 5 -21 57.94 10.26
-3 21 -5 58.65 9.3
-3 -5 -21 90.61 11.36
-5 -3 21 74.87 10.89
5 -3 -21 75.04 10.8
-3 21 -5 68.97 9.96
-5 21 3 90.17 10.43
-5 21 3 69.58 9.42
5 3 -21 68.17 10.54
-5 -3 -21 74.81 10.29
21 -3 -5 66.83 7.86
21 5 -3 69.56 7.19
3 21 -5 71.02 9.98
3 21 -5 84.74 10.01
3 5 21 75.49 10.68
-21 5 3 76.67 8.42
-3 -5 21 62.4 10.19
-3 5 -21 76.73 11.42
-21 3 -5 72.75 7.99
3 -5 -21 79.89 10.95
5 21 3 82.33 9.85
5 21 3 61.03 8.36
-21 -3 5 70.06 7.87
-21 3 -5 65.72 7.24
-3 21 5 70.88 9.79
-5 21 -3 90.29 10.51
-5 3 21 70.12 10.49
-5 21 -3 69.58 9.89
-21 5 -5 88.11 10.36
-21 5 -5 102.12 9.84
-21 -5 5 97.22 10.02
5 -5 -21 103.19 13.47
5 5 -21 98.01 12.98
5 21 -5 103.57 11.77
5 21 5 115.63 11.02
21 -5 -5 96.61 10.27
21 5 -5 89.9 9.56
-21 5 5 102.51 10.65
-5 -5 -21 92.6 12.08
-5 -5 21 79.08 12.19
-5 5 -21 113.77 18.2
-5 5 21 85.71 12.98
-5 21 -5 98.6 12.09
-5 21 -5 77.39 11.81
-5 21 5 96.24 12.33
7 -1 -21 0.01 2.19
21 1 -7 3.04 1.55
-21 -7 1 2.71 0.89
-21 7 -1 2.21 1.61
-1 21 -7 0.05 2.16
7 21 -1 2.56 1.51
1 7 -21 8.35 3.61
-7 21 1 -0.48 1.28
-7 -1 21 3.24 2.76
-7 1 -21 4.26 2.98
1 -7 21 1.76 2.04
1 21 7 2.44 1.66
-7 21 1 7.1 2.99
-1 21 -7 -0.81 1.21
21 -7 -1 1.73 1.07
-7 -1 -21 2.6 2.05
7 21 1 0.57 1.29
-21 1 -7 2.21 0.77
-7 21 -1 2.76 2.31
-1 -7 21 3.26 2.42
1 -7 -21 1.88 2.34
-7 1 21 2.43 2.64
-21 1 -7 2.29 0.85
-21 7 1 1.57 1.36
-21 -1 7 1.78 1.39
7 1 -21 0.1 1.77
-1 7 -21 4.81 2.93
-7 21 -1 4.68 2.41
21 -1 -7 2.73 1.29
1 21 -7 3.35 2.36
21 7 -1 3.84 1.01
1 21 -7 2.49 2.02
3 21 7 15.44 3.2
3 -21 -7 10.24 3.59
-7 21 3 13.43 4.81
7 21 -3 10.79 3.63
21 -7 -3 12.59 2.59
-7 -3 21 8.18 3.68
-21 7 -3 10.98 3.82
-21 -7 3 12.38 2.27
-21 7 -3 12.47 2.58
-3 21 -7 9.08 3.73
-3 21 -7 17.67 5.51
-21 3 7 16.51 3.99
3 7 -21 18.67 6.52
7 -3 -21 13.98 5.2
-7 21 3 9.54 3
21 3 -7 13.61 2.5
-3 7 -21 16.24 5.58
-21 7 3 13.96 3.04
3 -7 -21 12.29 4.31
-7 3 21 12.75 4.44
7 3 -21 8.76 3.67
7 21 3 20.64 3.24
3 21 -7 15.17 4.79
-7 21 -3 6.17 3.33
21 7 -3 10.87 1.93
-21 3 -7 11.1 2.36
-7 21 -3 7.28 3.1
-21 -3 7 14.68 2.93
-21 3 -7 15.38 2.22
21 -3 -7 15.8 2.81
-7 -3 -21 7.78 3.25
-21 7 -5 26.69 4.46
21 5 -7 16.49 3
7 -5 -21 14.18 4.81
-5 21 -7 20.56 5.97
5 -21 -7 22.21 7.05
-7 21 5 15.97 4.89
5 21 7 24.72 4.77
7 21 -5 22.33 4.65
-5 21 -7 12.66 4.15
-21 -7 5 13.8 2.85
21 -7 -5 15.24 3.23
-7 -5 21 25.58 5.38
-21 7 -5 17.59 3.09
5 7 -21 17.45 5.39
-21 5 7 17.1 3.64
5 -7 -21 22.61 7.7
-21 5 -7 18.07 2.89
21 7 -5 18.9 2.86
7 5 -21 21.39 5.91
-21 -5 7 20.78 3.49
7 21 5 23.97 3.91
21 -5 -7 21.29 3.55
-7 5 21 22.25 7
-7 21 -5 36.98 9.84
5 21 -7 27.97 5.42
-5 -7 21 17.6 5.64
-7 21 -5 15.43 4.28
21 7 -7 1.59 1.18
-21 -7 7 1.26 1.36
21 -7 -7 1.52 1.29
7 7 -21 -1.09 1.44
7 21 -7 -2.56 1.27
7 21 7 2.79 1.5
-7 -7 21 0.68 1.85
-21 7 -7 1.94 1.21
-7 21 -7 1.68 1.36
-7 21 -7 -2.47 1.77
-21 7 7 0.87 1.2
9 21 -1 -0.15 0.94
-21 1 9 -0.45 1.38
21 -9 -1 -0.37 0.62
-21 9 -1 -0.4 0.89
-1 21 -9 4.24 2.27
-9 21 1 3.55 1.92
21 1 -9 -0.74 0.89
1 9 -21 -0.1 2.18
-1 21 -9 -0.87 1.81
-9 -1 21 1.86 2.3
9 -1 -21 0.97 2.01
9 1 -21 0.65 1.65
-9 21 -1 -0.8 1.71
-21 9 1 0.59 1.26
21 9 -1 0.06 0.59
-9 1 21 -1.44 1.61
-9 21 -1 -0.3 1.14
1 21 -9 -2.3 2.03
21 -1 -9 -0.92 0.89
-21 -1 9 -1.9 0.92
9 21 1 0.66 0.87
-1 -9 21 1.35 2.41
21 -9 -3 19.33 3.21
-21 -9 3 16.95 2.48
-9 -3 21 26.4 5.16
-9 21 3 16.41 4.68
21 3 -9 14.22 2.89
-3 21 -9 9.31 3.59
-3 21 -9 14.52 4.66
9 -3 -21 17.05 5.7
3 9 -21 13.07 4.63
3 21 9 18.64 3.38
-21 9 -3 16.19 3.1
9 21 -3 14.84 3.91
-21 3 9 16.37 3.56
21 -3 -9 15.28 2.92
-9 21 -3 15.13 4.84
-21 9 3 19.66 3.63
3 21 -9 18.85 5.38
21 9 -3 19.14 2.41
-21 -3 9 15.1 3.29
-3 -9 21 8.71 3.72
9 21 3 11.76 3.34
-9 21 -3 19.61 6.69
9 3 -21 18.78 7.44
-21 3 -9 14.25 2.34
-9 3 21 16.69 4.74
9 -5 -21 19.12 5.95
9 21 -5 8.83 3.03
21 5 -9 16.9 3.13
21 -9 -5 22.04 4.77
-21 5 9 16.76 3.66
5 9 -21 23.4 6.89
-21 9 -5 16.41 2.97
-9 21 5 19.09 5.82
-9 -5 21 11.53 3.91
-21 -9 5 14.97 4.38
-5 21 -9 23.81 4.57
-5 21 -9 16.82 4.88
5 21 9 13.53 2.93
9 21 5 15.81 2.97
-9 21 -5 16.62 5.62
9 5 -21 14.16 5.57
5 21 -9 29.31 6.8
9 -21 -5 8.9 3.44
-9 5 21 7.5 3.81
-9 21 -5 9.7 4.86
21 -5 -9 15.3 3.29
-21 -5 9 19.39 3.31
-21 5 -9 17.53 2.58
-21 5 -9 14.08 3.11
21 9 -5 12.47 2.41
-5 -9 21 10.19 4.22
-21 9 -7 -0.89 0.91
-21 -9 7 2.12 1.22
-7 21 -9 2.49 2.57
7 21 9 -0.11 0.78
21 7 -9 0.11 0.94
-9 -7 21 0.02 1.34
9 21 -7 2.36 1.69
21 -9 -7 0.46 1.23
7 9 -21 4.06 3.22
-7 21 -9 2.55 1.99
-21 7 9 0.04 1.21
-9 21 -7 0.96 1.9
-7 -9 21 -0.93 1.65
-21 7 -9 0.15 0.77
21 -7 -9 1.78 1.39
-21 -7 9 -1.14 0.93
-21 9 7 0.06 1.1
9 21 7 1.08 1.17
21 9 -7 -0.12 0.84
-21 9 -9 -0.77 0.93
-9 -9 21 -0.3 2.32
-21 9 9 2.69 2.31
21 9 -9 0.1 0.62
-21 -9 9 0.39 1
9 21 -9 2.39 1.72
9 21 9 0.16 0.88
-9 21 -9 1.6 2.02
9 9 -21 -2.14 1.84
-21 1 11 3.08 2.01
21 -11 -1 9.66 2.91
11 21 -1 6.57 1.98
11 -1 -21 11.14 4.23
-11 21 1 14.39 4.74
21 1 -11 9.3 3.07
-21 11 -1 5.99 2
-1 21 -11 5.92 3.73
-11 21 1 9.67 3.53
-11 -1 21 10.81 4.81
11 21 1 10.28 2.94
21 -1 -11 6.38 2.01
-21 -1 11 7.9 2.77
1 21 -11 4.34 3.27
-11 21 -1 0.98 3.13
11 1 -21 2.72 2.21
-11 21 -1 4.07 2.62
-11 1 21 4.54 2.82
-21 11 1 2.89 1.97
-3 21 -11 68.98 10.31
-21 3 11 53.45 7.74
-11 -3 21 50.02 8.89
-21 -11 3 53.88 5.97
-21 11 -3 65.1 7.48
3 11 -21 51.84 9.61
11 -3 -21 63.08 9.18
21 -11 -3 63.96 7.44
11 21 -3 43.36 6.9
21 3 -11 58.84 7.23
-21 -3 11 52.32 7.21
11 3 -21 62.15 9.81
-21 3 -11 54.23 5.85
-21 3 -11 62.41 6.62
3 21 -11 65.5 9.52
21 -3 -11 58.5 7.18
-21 11 3 58.39 7.61
21 11 -3 60.52 6.01
11 21 3 52.42 6.77
-11 21 -3 63.6 10.89
5 11 -21 60.45 9.52
-21 -11 5 44.45 5.4
11 -5 -21 69.82 9.54
5 21 11 35.58 5.45
21 -11 -5 50.01 6.38
-5 21 -11 69.21 10.69
11 21 -5 35.31 6.05
-5 21 -11 48.31 7.63
-11 -5 21 53.25 8.21
21 5 -11 38.49 5.84
-21 5 11 47.27 7.01
-21 11 -5 58.12 6.4
11 5 -21 47.31 9.52
-21 -5 11 38.41 5.96
21 11 -5 40.98 5.19
11 21 5 42.6 5.57
11 -21 -5 43.44 7.65
5 21 -11 45.71 7.72
-21 5 -11 47.74 5.28
21 -5 -11 48.47 6.48
-21 11 5 55.98 7.15
7 21 11 9.12 2.66
21 7 -11 1.85 2.24
-21 7 11 6.39 2.36
11 21 -7 8.73 3.15
21 -11 -7 10.44 3.95
-21 -11 7 5.36 1.96
-21 11 -7 7.05 2.4
7 11 -21 10.37 4.73
-11 -7 21 1.69 2.29
-7 21 -11 10.28 3.95
21 11 -7 6.87 1.93
21 -7 -11 5.73 2.51
-7 -11 21 3.76 2.16
7 21 -11 4.53 2.84
-21 -7 11 2.43 1.2
11 21 7 7.85 2.81
-21 11 7 11.66 3.51
-21 7 -11 4.17 1.62
-11 21 -7 6.37 4.1
11 7 -21 10.58 3.65
-11 -9 21 6.3 3.22
-21 11 -9 6.41 2.64
-21 -11 9 2.48 1.19
-21 9 11 4.92 2.88
21 9 -11 2.99 1.44
-9 21 -11 4.2 2.22
11 21 -9 6.78 2.55
21 -11 -9 2.31 1.57
9 11 -21 5.11 3.45
-9 -11 21 3.2 2.39
21 11 -9 8 2.65
11 21 9 6.54 1.97
11 9 -21 2.81 2.37
21 -9 -11 3.5 2.29
-21 11 9 4.01 3.23
-11 21 -9 3.54 1.94
9 21 -11 3.34 2.43
-21 -9 11 6.64 2.46
-21 9 -11 6.61 1.98
-11 -21 11 14.79 4.36
21 -11 -11 12.19 3.53
-11 -11 21 6.57 2.72
-21 11 11 22.25 4.46
11 11 -21 8.71 3.39
-11 21 -11 17.95 4.9
-21 13 -1 20.02 3.87
-13 21 1 22.14 5.72
13 21 -1 16.6 3.32
-1 21 -13 15.88 5.31
13 -1 -21 9.85 3.75
-21 1 13 18.67 4.01
-13 -1 21 12.81 3.75
21 1 -13 20.85 4.84
21 -1 -13 17.19 3.61
13 1 -21 9.74 3.87
13 21 1 14.37 2.86
-13 1 21 23.34 7.2
-21 13 1 8.91 3.22
-13 21 -1 8.21 3.2
-13 -3 21 79.58 10.72
-21 13 -3 76.27 8.7
-21 3 13 71.03 9.54
-13 21 3 85.15 10.81
13 -3 -21 74.06 10.7
13 21 -3 82.18 8.55
21 3 -13 78.57 9.03
21 -13 -3 62.42 8.54
13 21 3 70.33 8.38
21 -3 -13 62.84 8.39
-13 21 -3 74.36 10.04
3 21 -13 65.9 10.57
-21 3 -13 70.57 7
13 3 -21 77.33 10.18
-21 13 3 50.6 8.34
21 13 -3 65.42 7.05
-21 3 -13 72.66 7.69
-13 3 21 76.47 11.15
-13 -5 21 58.76 9
-21 -13 5 51.82 5.94
-21 13 -5 44.89 6.65
-21 5 13 65.71 8.36
21 5 -13 56.9 7.2
13 21 -5 45.79 6.58
21 -5 -13 42.03 6.68
-21 13 5 59.23 7.78
5 21 -13 73.99 9.92
13 5 -21 49.34 8.63
21 13 -5 49.05 5.86
-21 5 -13 55.25 5.77
-21 -5 13 57.63 7.48
13 21 5 47.68 5.94
13 -21 -5 75.56 12.7
21 7 -13 10.89 3.92
-21 13 -7 2.7 1.58
-21 -13 7 4.01 1.7
-13 -7 21 17.15 5.62
-7 -21 13 10.57 3.53
21 -13 -7 3.55 1.83
-21 7 13 8.39 3.42
7 13 -21 5.71 2.46
7 21 -13 16.86 4.94
-21 7 -13 3.19 1.58
-21 -7 13 4.79 1.74
13 7 -21 9.23 4.41
13 21 7 8.41 2.16
21 -7 -13 8.05 3.25
-13 -9 21 10.73 4.43
-9 21 -13 14.09 4.12
-9 -21 13 4.2 2.64
21 -13 -9 11.27 3.92
9 13 -21 10.35 3.43
21 -9 -13 7.9 2.61
9 21 -13 10.69 4.24
13 9 -21 12.59 4.49
-21 13 9 3.38 2.4
-13 21 -9 6.97 2.73
-9 -13 21 5.54 2.99
11 13 -21 57.68 8.89
21 -13 -11 42.92 6.38
-11 21 -13 40.39 7.15
-13 -11 21 43.83 7.23
13 11 -21 32.66 8.59
21 -11 -13 47.47 6.58
-21 13 11 42.97 7.38
21 1 -15 -0.19 1.35
-21 15 -1 0.28 1.54
15 -1 -21 0.23 1.59
-15 21 1 0.59 2.05
-15 -1 21 0.8 2.17
-21 1 15 0.48 1.71
-15 1 21 -0.51 2.78
1 21 -15 2.21 3.41
21 -1 -15 0.2 1.22
-15 21 -1 2.5 2.08
-21 15 1 0.1 1.43
15 1 -21 1.28 1.7
-21 3 15 9.91 3.29
21 -15 -3 18.44 5.03
-21 15 -3 26.42 3.94
-15 21 3 17.92 5.92
-3 -21 15 32.38 7.59
15 -3 -21 9.38 3.53
-15 -3 21 10.91 4.93
-21 -3 15 23.48 5.98
21 -3 -15 13.94 3.98
-15 3 21 27.61 7.17
-15 21 -3 28.42 4.95
3 21 -15 19.54 6.89
-21 3 -15 18.87 2.97
-15 -5 21 13.47 5.35
-5 -21 15 25.93 5.22
21 -15 -5 9.18 3.37
-21 15 -5 12.92 4.06
5 21 -15 33.38 6.39
-21 -5 15 7.28 3.55
-15 21 -5 6.92 4.08
21 -5 -15 15.37 4.07
15 5 -21 15.82 5.64
-21 5 -15 14.92 2.47
-7 -21 15 2.34 2.38
-21 7 15 -1.71 2.02
21 -15 -7 -0.82 1.42
-15 -7 21 3.42 2.88
7 21 -15 5.83 3.2
21 -7 -15 -1.12 1.56
-21 15 7 -0.27 1.87
15 7 -21 2 1.74
-15 -9 21 -1.04 2.44
-9 -21 15 0.52 2.77
-15 21 -9 -4.59 2.17
-21 15 9 -3.1 2.49
15 9 -21 -1.75 1.72
17 -1 -21 5.09 2.67
-17 21 1 8.04 3.44
-21 17 -1 1.06 2.24
-21 1 17 5.94 3.07
-17 -1 21 5.65 3.84
-21 17 1 0.06 1.93
17 1 -21 2.57 1.99
-17 21 -1 10.07 3.46
-17 1 21 3.26 2.45
-21 -1 17 0.36 2.36
-21 3 17 0.35 2.5
-17 -3 21 0.1 2.47
-17 21 3 5.31 3.81
-17 21 -3 -2.87 1.9
17 3 -21 1.55 2.54
-21 17 3 1.21 2.45
-17 -3 -21 0.92 0.73
-17 -5 21 12.14 4.22
-21 5 17 1.19 2.67
-21 17 5 6.88 3.87
-17 21 -5 7.12 3.91
-22 0 0 45.66 5.16
0 0 -22 50.4 8.68
0 0 22 47.67 8.32
0 22 0 34.1 6.85
22 0 0 41.77 4.76
-22 0 -2 0.25 0.78
-22 0 -2 0.89 0.85
-22 0 2 0.11 0.74
-2 22 0 -1.43 1.15
-2 22 0 2.15 2.12
0 -2 -22 2.72 2.78
0 -2 22 1.52 2.63
0 2 -22 -0.4 1.39
2 22 0 5.56 2.42
22 0 -2 1.98 0.99
0 22 2 3.39 2.17
2 0 -22 0.51 1.91
22 -2 0 0.48 0.58
22 2 0 0.98 0.64
-2 0 -22 3.99 2.53
-2 0 22 0.41 2.02
0 22 -2 0.59 1.54
0 22 -2 0.1 1.42
0 22 2 -1.02 1.54
-22 -2 0 -0.39 0.56
-22 2 0 0.54 0.81
-2 2 22 10.36 4.24
-2 22 2 16.1 4.85
-22 -2 -2 9.93 1.52
-22 -2 -2 9.11 1.52
-22 -2 2 12.66 2.34
-22 2 -2 5.96 1.78
-22 2 2 12.14 2.95
-2 -2 22 14.47 5.41
2 22 2 12 3.36
22 -2 -2 8.73 2.34
-2 22 -2 11.46 4.35
-2 22 -2 9.25 3.51
2 2 -22 6.84 3.28
2 22 -2 15.28 4.04
-2 2 -22 17.4 5.89
2 -2 -22 3.42 3.19
22 2 -2 10.72 2.41
4 0 -22 8.48 3.98
0 -4 22 4.31 3.15
0 4 -22 11.8 5.23
-4 22 0 3.36 2.3
-4 22 0 7.02 2.75
4 22 0 4.4 2.42
22 0 -4 5.39 1.76
-22 0 -4 4.59 1.26
-22 0 -4 4.42 1.21
-22 0 4 5.56 2.03
-4 0 22 7.48 4.01
0 22 -4 2.69 2.2
0 22 -4 6.97 3.54
0 22 4 2.82 1.73
-22 4 0 7.25 2.11
22 -4 0 6.47 1.94
22 4 0 5.48 1.25
-22 -4 0 5.12 1.43
2 22 4 21.55 4.44
4 22 -2 28.22 5.07
-4 -2 22 39.73 9.51
22 2 -4 30.1 3.84
-2 22 -4 28.71 5.66
4 -2 -22 32.32 6.62
22 -4 -2 27.92 3.93
-22 -4 2 29.27 3.79
-22 4 -2 27.53 3.92
-4 22 2 18.48 5.33
-4 22 2 32.43 6.24
2 4 -22 34.96 7.03
-22 2 4 29.55 4.48
-22 2 -4 30.19 3.93
-4 22 -2 36.77 6.51
-4 22 -2 38.97 6.24
-22 -2 4 22.58 3.87
-22 4 2 27.21 4.18
-2 -4 22 36.87 7.49
-22 2 -4 28.91 3.62
22 4 -2 31.69 3.58
4 22 2 38.44 5.55
22 -2 -4 33.87 4.24
-4 2 22 40.82 7.34
2 22 -4 26.49 5.29
-2 22 4 26.85 5.02
4 2 -22 21.2 6.63
22 4 -4 64.89 8.28
-22 -4 4 68.89 7.86
-22 4 -4 64.79 8.05
-22 4 -4 74.6 8.48
-22 4 4 67.87 8.32
-4 -4 22 67.95 11.1
-4 22 -4 93.97 11.16
-4 22 -4 66 10.05
-4 22 4 88.42 10.21
4 4 -22 96.54 12.13
4 22 4 94.69 9.4
22 -4 -4 70.41 8.1
-6 22 0 3.68 1.89
6 22 0 3.33 2.16
-22 0 6 0.31 1.18
-6 22 0 -0.36 1.56
22 0 -6 2.77 1.3
0 22 -6 -2.14 1.44
6 0 -22 -1.21 1.92
-22 6 0 0.27 0.95
-6 0 22 3.17 2.75
22 -6 0 2.9 1.53
0 22 6 0.72 1.76
-6 22 2 9.32 3.9
22 2 -6 4.28 1.51
2 22 6 5.86 2
-6 22 2 10.61 3.96
-22 2 6 3.97 1.9
6 22 -2 7.93 2.57
-6 -2 22 8.8 3.51
-22 6 -2 5.84 1.92
-22 6 -2 3.79 2.35
6 -2 -22 10.1 4.56
-2 22 -6 13.97 4.75
-2 22 -6 3.99 2.81
22 -6 -2 4.48 1.57
2 6 -22 7.18 3.4
-22 -6 2 8.79 1.95
6 22 2 4.65 1.91
-22 -2 6 5.96 2.04
-22 2 -6 5.19 1.51
2 22 -6 11.24 3.99
22 6 -2 9 1.51
6 2 -22 3.12 2.51
-6 22 -2 2.53 2.23
-2 -6 22 11.34 4.91
-2 22 6 4.64 2.1
-22 6 2 5.07 1.87
-6 22 -2 5.08 2.95
22 -2 -6 8.86 2.62
-6 2 22 7.93 3.9
-22 4 6 35.18 5.66
22 4 -6 40.21 4.92
22 -6 -4 38.79 5.43
4 6 -22 43.08 8.4
-22 -6 4 36.59 4.83
-22 6 -4 40.74 5.14
-22 6 -4 47.79 6.67
-4 22 -6 49.88 7.79
-6 -4 22 31.29 7.06
6 22 -4 50.94 7.03
-6 22 4 45.9 6.93
-4 22 -6 55.45 8.08
22 -4 -6 39.66 5.37
-22 6 4 36.67 5.67
-22 4 -6 43.34 5.42
-6 22 -4 45.59 7.47
-22 -4 6 44.02 5.44
-4 -6 22 35.61 7.21
22 6 -4 39.86 4.58
6 4 -22 38.49 7.76
6 22 4 44.14 5.93
4 22 -6 40.9 6.89
-22 4 -6 33.39 4.57
-6 22 -4 51.92 7.73
22 6 -6 18.96 3
-22 -6 6 16.82 3.19
6 22 -6 20.18 4.48
-22 6 6 20.24 3.89
-6 -6 22 23.09 7.14
-6 22 -6 31.89 5.92
-6 22 -6 24.87 6.29
6 6 -22 17.58 5.72
22 -6 -6 20.48 3.59
-22 6 -6 15.99 2.99
-22 8 0 17.96 3.16
22 -8 0 11.87 2.64
-8 22 0 23 6.7
-22 0 8 16.55 3.97
8 0 -22 8.46 3.5
22 0 -8 12.04 2.59
0 22 -8 16.12 5.42
-8 0 22 25.06 7.6
-8 22 0 8.07 3.25
8 22 0 17.32 3.41
8 -2 -22 -1.25 1.81
-22 -8 2 0.71 0.75
22 -8 -2 -0.72 0.79
-8 -2 22 2 2.3
-2 22 -8 -1.81 2.04
2 22 8 -0.05 1.08
-22 8 -2 1.77 1.52
22 2 -8 -0.7 0.68
8 22 -2 -0.67 1.02
-22 2 8 1.39 1.72
-8 22 2 1.66 1.77
-8 2 22 4.1 2.64
8 2 -22 0.63 1.86
-8 22 -2 1.24 2.39
-8 22 -2 0.03 1.93
-22 2 -8 0.34 0.7
-22 2 -8 0.7 0.84
-22 8 2 -0.75 1.09
2 22 -8 -1.16 1.79
8 22 2 0.57 1.29
-22 -2 8 1.13 0.99
22 -2 -8 -1.18 0.88
22 8 -2 -0.14 0.43
4 8 -22 14.23 5.65
22 4 -8 10.12 2.2
-22 4 8 6.58 2.45
-22 8 -4 10.71 2.89
-8 22 4 6.12 2.69
-4 22 -8 9.02 4.19
-22 -8 4 6.56 1.89
22 -8 -4 8.3 2.69
4 22 8 4.52 1.98
8 22 -4 14.66 4.41
22 -4 -8 8.53 2.74
-22 8 4 9.17 2.76
-22 4 -8 6.95 2.22
-8 22 -4 8.93 4.38
8 22 4 9.38 2.98
4 22 -8 7.92 3.68
-22 4 -8 10.12 1.87
8 4 -22 15.99 5.69
-22 -4 8 3.1 1.7
22 8 -4 7.83 1.62
-22 -8 6 0.97 1.07
-22 8 -6 1.24 1.07
22 6 -8 0.14 0.67
-6 22 -8 0.43 2.41
-22 6 8 -0.69 1.24
6 22 8 -0.99 0.95
8 22 -6 0.64 1.55
22 -8 -6 1.46 1.43
6 8 -22 -0.02 1.98
8 6 -22 1.09 2.18
-22 -6 8 2.72 1.44
-22 6 -8 0.49 1.45
6 22 -8 0.4 1.98
-8 22 -6 3.25 1.57
-8 22 -6 -0.23 2.93
22 8 -6 -0.05 0.77
-22 8 6 1.06 1.53
8 22 6 -0.79 0.76
22 -6 -8 -0.04 1.05
8 22 -8 8.42 3.01
-8 22 -8 3.46 2.64
-8 -8 22 14.04 5.26
-22 8 8 8.04 3.01
-22 -8 8 4 1.8
-22 8 -8 5.26 1.76
22 -8 -8 13.43 3.7
8 8 -22 6.95 2.97
22 8 -8 11.41 2.71
0 22 -10 1.68 2.73
-22 0 10 2.2 1.65
-10 22 0 -0.35 2.08
10 0 -22 3.84 3.54
22 0 -10 3.38 1.85
10 22 0 2.45 1.6
-22 10 0 -0.79 1.24
-10 -2 22 0.96 2.54
-2 22 -10 5.18 3.07
22 2 -10 5.58 2.17
10 -2 -22 4.16 3.17
-10 22 2 10.16 4.16
-22 10 -2 4.97 2.12
22 -10 -2 3.47 1.92
10 2 -22 3.15 2.38
2 22 -10 12.22 4.84
22 -2 -10 3.14 1.45
-22 2 -10 4.25 1.36
-22 2 -10 5.9 1.21
-10 22 -2 6.47 3
10 22 2 1.7 1.55
-22 -2 10 1.45 1.36
22 -10 -4 26.06 4.11
-10 -4 22 11.2 4.18
-4 22 -10 22.53 6.8
10 22 -4 24.13 4.55
22 4 -10 19.19 3.48
-22 10 -4 23.8 3.73
-22 4 10 23.12 4.69
-22 4 -10 22.11 3.47
-22 4 -10 21.94 2.96
22 10 -4 19.12 2.77
22 -4 -10 24.3 4.02
-10 22 -4 11.95 4.38
4 22 -10 23.4 6.04
10 22 4 17.02 3.27
22 6 -10 2.65 1.31
-22 10 -6 5.65 2.26
10 22 -6 12.17 3.34
22 -10 -6 1.78 1.67
-22 -10 6 2.78 1.52
-22 6 10 3.73 1.52
6 22 10 1.87 1.38
-10 -6 22 1.14 2.81
-6 22 -10 0.18 3.4
22 10 -6 5.75 1.89
10 22 6 0.46 1.22
-22 10 6 2.94 2
22 -6 -10 1.33 1.38
-22 6 -10 5.12 1.77
10 6 -22 5.36 4.02
-10 22 -6 -0.76 2.28
-22 -6 10 5.86 2.51
6 22 -10 9.5 3.63
-22 -10 8 -0.21 1.23
8 10 -22 -0.32 2.51
-22 8 10 0.23 1.43
10 22 -8 1.29 1.82
-22 10 -8 0.57 1.27
-22 10 8 1.92 1.96
8 22 -10 1.61 2.24
-22 8 -10 0.42 1.26
-22 -8 10 0.64 1.43
10 8 -22 3.03 1.66
-10 -10 22 3.23 3.72
22 -10 -10 1.38 1.68
10 10 -22 0.16 1.91
-22 10 10 1.63 2.13
-10 22 -10 -1.49 1.54
-22 0 12 0.92 1.34
-12 22 0 4.89 2.56
-12 0 22 2.92 3.33
-22 12 0 -0.25 1.23
12 0 -22 0.5 2
22 0 -12 0.17 1.1
12 22 0 -0.32 0.94
0 22 -12 1.92 2.1
-2 22 -12 14.55 6.57
22 2 -12 20.11 3.76
12 22 -2 20.7 3.97
-22 2 12 20.91 4.56
-22 12 -2 16.08 3.71
22 -2 -12 20.16 3.86
22 12 -2 18.2 2.41
12 2 -22 12.23 4.32
12 22 2 24.05 3.78
22 12 -2 21.98 2.28
2 22 -12 33.31 7.06
22 -12 -4 47.75 6.68
-22 12 -4 42.28 6.48
12 22 -4 51.72 6.92
-22 4 12 55.59 7.66
-22 -12 4 46.78 5.54
22 4 -12 47.33 6.55
-22 -4 12 57.5 7.24
22 -4 -12 48.32 6.75
-12 22 -4 42.61 9.81
-22 4 -12 52.31 5.58
12 4 -22 50.23 8.81
12 22 4 66.21 8.44
22 12 -4 52.06 5.56
4 22 -12 72.17 9.68
-12 -6 22 7.66 3.38
22 -12 -6 22.1 4.96
-22 -12 6 14.6 2.88
-22 12 -6 16.41 4.05
6 22 -12 25.3 5.07
-12 22 -6 9.82 3.84
22 -6 -12 10.59 3.12
-22 6 -12 16.75 2.62
-22 -6 12 20.39 3.98
12 6 -22 24.7 7.48
22 -12 -8 0.8 2.03
-12 -8 22 -1.74 2.55
-22 8 12 1.02 2.19
22 -8 -12 3.3 2.14
8 22 -12 -2.15 1.79
-12 22 -8 3.04 2.11
12 8 -22 0.64 2.09
-22 12 8 6.57 2.79
-12 -10 22 8.94 2.69
-22 10 12 4.86 2.31
-12 22 -10 15.89 5.26
22 -10 -12 9.43 4.04
12 10 -22 2.67 2.62
-22 12 10 11.93 4.12
14 0 -22 5.81 2.9
-14 0 22 8.54 4.69
-22 14 0 3.14 1.45
-22 0 14 4.16 2.74
-14 22 0 4.2 2.55
-14 -2 22 33.3 8.63
-22 14 -2 24.35 4.79
-22 2 14 23.82 4.66
-22 14 2 8.99 4.8
2 22 -14 18.01 5.8
-22 -2 14 23.18 4.84
22 14 -2 21.42 2.5
22 14 -2 20.7 2.33
-14 22 -2 25.93 5.43
14 2 -22 15.11 5.12
-22 4 14 41.23 7.34
-22 14 -4 37.08 7.64
22 -14 -4 43.24 6.52
-22 4 -14 43.25 4.91
-22 -4 14 42.63 7.59
-14 22 -4 51.21 7.31
14 4 -22 48.89 8.3
-22 14 4 51.38 7.25
-22 6 14 14.66 4.89
-14 -6 22 12.78 4.59
14 6 -22 10.11 4.65
-22 14 6 17.02 5.16
6 22 -14 20.42 6.83
-8 -22 14 2.84 3.07
-14 -8 22 11.2 3.44
-22 8 14 -2.63 2.52
14 8 -22 0.13 2.36
-14 22 -8 3.38 2.11
-22 14 8 1.62 2.46
-16 -2 22 -4.35 3.48
16 2 -22 1.29 2.33
-16 22 -2 2.99 2.82
-16 -4 22 4.8 2.92
-16 22 -4 3.65 2.2
16 4 -22 6.5 3.6
-23 -1 -1 25.46 3.47
-23 -1 1 28.61 3.84
-23 1 -1 27.37 3.79
-23 1 1 27.25 4.05
-1 23 -1 37.21 6.18
-1 23 1 34.03 5.83
1 23 1 26.85 5.26
23 -1 -1 30.14 3.83
23 1 -1 29.75 3.55
-23 -1 -3 0.33 0.81
-23 -1 -3 1.31 0.5
23 -3 -1 -0.2 0.58
-1 23 -3 -0.57 1.53
1 23 3 0.81 1.5
-23 1 3 0.28 0.96
-23 -3 1 0.65 0.85
-3 23 1 -0.19 1.27
3 23 -1 1.87 1.98
-23 3 -1 0.37 0.87
23 1 -3 1.56 0.83
1 23 -3 0.55 2.12
-23 1 -3 0.44 0.74
-23 -1 3 -0.24 0.8
23 3 -1 -0.61 0.49
-3 23 -1 0.01 1.59
-23 1 -3 0.1 0.79
-23 3 1 -0.82 0.79
3 23 1 1.06 1.4
-1 23 3 0.51 1.24
-23 -3 -1 -0.21 0.98
-3 23 3 13.89 4.25
3 23 3 10.02 3.07
-23 3 -3 14.7 2.42
-23 3 -3 14.25 2.79
-23 3 3 15.22 3.02
-3 23 -3 11.52 3.85
23 -3 -3 13.38 2.55
23 3 -3 13.67 2.26
-23 -3 3 13.13 2.47
3 23 -3 7.11 3.07
23 1 -5 -0.5 0.74
-23 1 5 0.85 1.28
-23 -5 1 -0.38 0.59
-5 23 1 -0.81 1.3
23 -5 -1 -0.04 0.67
-1 23 -5 -0.17 1.58
1 23 5 0.37 1.22
-23 5 -1 0.92 1.08
5 23 -1 0.56 1.24
-1 23 5 -1.46 0.82
-23 5 1 1.51 1.18
-23 1 -5 1.4 0.65
5 23 1 1.04 1.33
1 23 -5 -1.38 1.73
-5 23 -1 0.89 1.79
23 5 -1 0.06 0.4
-23 -1 5 -0.52 0.8
23 -1 -5 0.52 0.97
-23 1 -5 0.75 0.67
-23 -5 3 20.95 3.13
-23 5 -3 20.03 3.35
5 23 -3 26.04 4.92
-3 23 -5 32.96 7.56
23 -5 -3 20.61 3.36
-23 3 5 20.88 3.58
3 23 5 20.27 3.93
-5 23 3 23.79 4.77
23 3 -5 21.39 3.13
-23 5 3 22.54 3.54
-3 23 5 12.75 4.08
-23 -3 5 18.39 3.24
-23 3 -5 14.68 2.73
-23 3 -5 19.88 3.21
3 23 -5 19.24 5.54
-5 23 -3 24.52 5.39
23 5 -3 20.84 2.75
5 23 3 20.41 4.14
23 -3 -5 19.21 3.33
-23 -5 5 26.66 4.6
5 23 5 32.46 5
-5 23 5 36.9 6.1
5 23 -5 30.7 5.6
-5 23 -5 39.68 7.3
-23 5 -5 33.57 4.85
-1 23 -7 21.18 5.91
23 -7 -1 14.79 2.92
-23 7 -1 18.99 3.26
23 1 -7 16.56 3.01
1 23 7 18.34 3.85
-23 1 7 15.1 3.43
1 23 -7 18.67 5.26
-23 -1 7 14.77 3.12
-23 7 1 14.08 3.61
-7 23 -1 15.53 4.87
7 23 1 19.62 4.46
23 -1 -7 17.08 3.02
-1 23 7 10.31 3.49
-23 3 7 -0.01 1.08
7 23 -3 1.86 1.4
-23 7 -3 -0.15 0.86
3 23 7 2.13 1.47
-23 -7 3 -0.6 0.77
23 3 -7 -0.55 0.61
-7 23 3 1.97 2.37
23 -7 -3 0.46 1.2
-23 3 -7 1.52 1.04
23 -3 -7 -0.65 0.83
3 23 -7 2.22 2.24
23 7 -3 0.73 0.67
-7 23 -3 -0.17 1.79
-23 -3 7 -0.07 1.13
-23 3 -7 0.11 0.78
-23 7 3 -0.29 1.38
7 23 3 1.24 1.45
-23 7 -5 2.97 1.5
-23 -7 5 6.6 1.98
-5 23 -7 4.45 3.06
-7 23 5 8.17 2.96
5 23 7 1.4 1.36
23 -7 -5 2.1 1.27
23 5 -7 1.87 0.99
-23 5 7 3.39 1.94
7 23 -5 3.11 1.88
-23 5 -7 4.85 1.15
23 7 -5 5.35 1.56
5 23 -7 7.37 3.29
7 23 5 9.55 3.02
23 -5 -7 4.03 1.94
-23 -5 7 2.02 1.38
-7 23 -5 6.38 2.14
-23 7 5 2.57 1.84
23 7 -7 8.15 2.32
-23 7 7 4.95 2.31
7 23 -7 2.2 2.19
7 23 7 12.43 3.52
-23 7 -7 5.28 1.8
23 -7 -7 2.89 1.85
23 -9 -1 19.03 3.64
-23 1 9 23.62 4.39
1 23 9 21.39 3.98
-9 23 1 33.21 6.21
9 23 -1 20.84 4.22
-23 9 -1 17.56 3.75
23 1 -9 23.41 3.63
-9 23 -1 36.35 5.8
-23 9 1 18.02 3.91
9 23 1 21.3 3.91
23 -1 -9 22.95 3.83
1 23 -9 15.41 5.27
9 23 -3 1.62 1.76
-23 3 9 -0.59 1.63
-9 23 3 1.31 2.43
-23 -9 3 0.66 0.8
3 23 9 1.78 1.34
23 -9 -3 -0.89 0.75
-3 23 -9 -1.44 2.39
23 3 -9 1.38 1.2
-23 9 -3 -0.15 1.32
-23 3 -9 1.47 0.94
9 23 3 2.32 1.43
-23 9 3 -1.24 1.29
3 23 -9 3.37 2.42
-23 -3 9 0.59 1.37
-23 3 -9 1.61 1
23 9 -3 0.51 0.66
5 23 9 -1.64 0.89
23 -9 -5 1.38 1.19
-23 9 -5 -0.48 1.32
-23 -9 5 0.17 0.94
-23 5 9 0.34 1.61
23 5 -9 -0.88 0.79
-23 9 5 -2.56 1.24
-23 5 -9 -0.37 0.92
23 9 -5 -0.28 0.69
-23 -5 9 -0.01 1.4
9 23 5 0.56 0.86
23 -5 -9 -1.34 0.95
5 23 -9 2.2 2.29
-23 9 -7 20.01 3.27
-23 7 9 15.07 4.42
9 23 -7 15.81 4.42
23 -9 -7 15.84 3.34
-23 -9 7 13.38 2.81
7 23 -9 13.5 4.3
23 -7 -9 15.38 4.01
-23 7 -9 21.1 5.79
-23 9 7 8.57 3.3
-23 9 9 28.71 5.29
-1 23 -11 4.61 4.49
-23 1 11 6.1 2.83
23 1 -11 7.96 2.76
1 23 -11 4.44 3.31
23 -1 -11 6.12 2.5
-23 -1 11 4.37 2.67
-23 11 1 2.8 2.27
-23 11 -3 1.26 1.43
-23 3 11 2 1.74
23 -11 -3 3.24 1.49
3 23 11 6.78 2.55
-23 3 -11 4.78 1.2
-23 11 3 3.87 2.25
23 11 -3 3.99 1.16
-23 -3 11 2.01 1.48
3 23 -11 8.4 3.51
-23 -11 5 3.2 1.32
-23 11 -5 4.47 2.25
5 23 -11 1.43 3.05
-23 -5 11 3.54 2.32
-23 5 -11 6.85 1.99
-23 7 11 1.41 2.16
-23 11 7 2.08 2.39
7 23 -11 2.12 2.64
-23 9 11 6.75 3.28
-23 11 9 4.59 4.08
-23 1 13 2.57 2.78
-23 13 1 0.96 2.21
1 23 -13 10.17 3.9
-23 3 13 26.89 5.82
-23 13 3 25.61 5.55
-23 3 -13 26.95 2.93
3 23 -13 40.76 7.44
-23 13 5 28.85 9.67
5 23 -13 36.08 11.53
-24 0 0 62.91 7.32
24 0 0 77.3 7.29
-24 0 -2 22.99 3.27
-24 0 -2 25.61 3.47
-24 0 2 26.17 4.47
-2 24 0 25.67 5.3
2 24 0 38.5 7.15
24 0 -2 24.65 3.45
0 24 -2 28.67 5.58
0 24 2 27.88 4.8
24 -2 0 24.72 3.46
-24 2 0 29.42 4.85
-24 -2 0 28.89 3.44
2 24 -2 10.25 3.09
24 -2 -2 9.24 2.09
-24 -2 2 10.82 2.26
-24 2 -2 12.25 2.35
-24 2 -2 15.97 2.78
-24 2 2 6.58 2.07
-2 24 -2 12.01 3.81
24 2 -2 10.41 1.99
2 24 2 15.66 4.13
-2 24 2 12.76 4.38
24 -4 0 3.04 1.44
0 24 -4 1.99 2.05
0 24 4 -0.56 1.17
-24 0 4 1.47 1.29
-24 -4 0 2.28 0.85
-24 4 0 0.32 1.04
-4 24 0 6.25 2.45
4 24 0 5.27 2.57
24 0 -4 2.33 1.26
2 24 4 2.14 1.49
24 -4 -2 0.41 0.82
-4 24 2 -0.47 1.55
4 24 -2 -2.76 1.37
-2 24 -4 -0.33 1.82
24 2 -4 -1.01 1.1
-24 -4 2 -0.16 0.8
-24 2 4 -0.27 1
-24 4 -2 -1.72 0.84
24 4 -2 -0.39 0.56
-24 2 -4 1 1.03
-4 24 -2 7.12 2.29
24 -2 -4 0.9 0.81
-24 2 -4 -0.26 0.76
-2 24 4 -0.14 1.44
2 24 -4 1.44 2.05
-24 -2 4 -0.25 1.05
-24 4 2 -0.94 0.74
4 24 2 -0.72 1.29
24 -4 -4 12.5 2.69
4 24 4 23.07 4.1
4 24 -4 11.73 3.86
-24 -4 4 13.64 2.65
24 4 -4 9.99 2.16
-4 24 4 19.39 5.25
-24 4 4 12.93 3.47
-4 24 -4 18.38 7.15
-24 4 -4 15.26 2.55
-24 0 6 21.06 3.92
-6 24 0 22.88 5.08
6 24 0 23.12 4.48
0 24 -6 28.08 7.29
24 0 -6 20.12 3.39
-24 6 0 20.26 3.83
-6 24 2 17.22 6.5
6 24 -2 5.41 2
24 -6 -2 6.1 2.1
-2 24 -6 6.09 3.62
-24 -6 2 6.25 1.63
-24 6 -2 4.14 1.53
2 24 6 6.93 2.78
24 2 -6 3.42 1.47
-24 2 6 4.5 2.08
-24 -2 6 5.33 2.06
6 24 2 4.1 1.72
-24 2 -6 9.49 2.56
-24 6 2 5.42 2.64
24 6 -2 4.6 1.38
-2 24 6 5.34 2.49
2 24 -6 13.46 4.26
-6 24 -2 5.05 2.82
24 -2 -6 5.1 1.63
-24 2 -6 7.07 1.44
-6 24 4 2.31 2.09
-24 -6 4 4 1.48
-4 24 -6 12.78 4.68
24 -6 -4 1.84 1.13
-24 4 6 8.5 3.91
4 24 6 4.04 2.16
6 24 -4 2.91 2.15
-24 6 -4 2.82 1.53
24 4 -6 5.67 1.63
-4 24 6 9.3 2.84
-24 6 4 1.35 3.02
-6 24 -4 3.69 3.13
24 -4 -6 5.83 2.17
6 24 4 1.37 1.23
-24 -4 6 4.36 1.93
-24 4 -6 3.18 1.43
24 6 -4 3.88 1.36
4 24 -6 -0.59 1.47
24 -6 -6 0.43 0.98
-24 6 -6 -2.01 0.93
-6 24 6 -1.06 1.15
6 24 6 1.74 0.99
6 24 -6 0.24 1.73
-24 6 6 -1.94 1.02
-24 0 8 52.07 6.71
8 24 0 38.98 6.32
24 0 -8 57.49 6.28
0 24 8 52.46 7.14
-8 24 0 54.11 8.65
0 24 -8 64.66 9.1
-24 8 0 37.19 5.76
8 24 -2 24.41 4.71
2 24 8 22.12 4.31
-2 24 -8 43.66 7.69
-24 8 -2 27.11 4.31
-24 2 8 19.05 4.29
-8 24 2 33.18 5.69
-24 -8 2 24.82 2.93
24 2 -8 37.2 5.16
24 -2 -8 32.68 4.84
8 24 2 34.44 4.96
-2 24 8 26.07 4.77
2 24 -8 18.69 6.21
24 8 -2 28.26 2.85
-24 -2 8 32.09 4.75
-24 8 2 20.11 4.48
-24 8 -4 2.39 1.39
-8 24 4 7.53 3.4
-4 24 -8 3.3 4.49
-24 4 8 0.83 1.41
-24 -8 4 1.96 1.26
8 24 -4 1.07 1.47
4 24 8 5.45 2.7
24 -4 -8 7.25 3.04
4 24 -8 7.3 2.54
-24 -4 8 0.81 1.65
-24 4 -8 4.67 1.57
-24 8 4 -0.87 1.29
-24 -8 6 13.99 2.62
-24 8 -6 8.41 3.63
-24 -6 8 9.54 3.51
6 24 -8 13.44 3.96
-24 8 6 19.63 3.92
-24 6 -8 15.09 2.6
-24 8 8 43.16 11.12
0 24 10 43 5.71
0 24 -10 46.06 7.82
-24 10 0 30.03 5.3
-24 0 10 34.84 5.73
-2 24 -10 38.96 11.3
-24 10 -2 11.09 4.89
-24 10 2 21.7 5.1
2 24 -10 17.81 6.28
-24 -10 4 0.13 0.93
-24 4 10 2.28 2.47
-24 4 -10 0.84 1.52
4 24 -10 0.34 2.25
-24 10 4 2.91 2.34
6 24 -10 7.77 3.87
2 24 -12 4.31 2.33
-24 4 -12 12.2 2.27
4 24 -12 4.81 2.84
-25 -1 -1 61.91 6.02
-25 -1 -1 61.44 6.06
-25 -1 1 49.18 6.09
-25 1 -1 46.57 6.1
-25 1 1 56.16 6.51
-1 25 -1 73.8 9.13
-1 25 1 62.64 8.7
1 25 1 63.07 8.39
25 -1 -1 54.36 6.17
25 1 -1 57.59 6.01
-25 3 -1 9.03 2.55
25 1 -3 10.19 1.9
-1 25 -3 3.73 3.25
-25 1 3 9.41 2.52
-25 -3 1 9.49 1.87
-3 25 1 8.51 3.03
3 25 -1 12.58 4.44
25 -3 -1 10.75 2.24
1 25 3 8.91 3.16
-25 1 -3 7.23 1.79
25 -1 -3 10.3 2.05
3 25 1 11.73 3.87
25 3 -1 7.56 1.53
1 25 -3 13.97 4.23
-25 1 -3 11.3 2.15
-1 25 3 5.41 3.11
-25 -1 3 7.27 2.15
-25 3 1 10.67 2.8
-3 25 -1 20.96 4.29
-25 3 3 0.63 1.02
3 25 -3 -1.2 1.94
-25 -3 3 -0.26 0.94
25 -3 -3 1.17 1
-3 25 3 2.31 1.77
3 25 3 2.94 1.74
-3 25 -3 0.26 2.37
-1 25 -5 17.42 5.53
-25 1 5 13.02 2.91
-5 25 -1 7.91 3.85
-25 5 1 14.24 2.83
5 25 1 17.57 4.77
1 25 -5 20.23 5.72
-1 25 5 17.77 4.97
3 25 5 -0.93 1.09
-25 -5 3 -1.08 0.81
-5 25 3 -1.77 1.37
5 25 -3 -2.23 1.58
-25 3 5 0.46 1.5
-25 5 -3 1.07 1.39
-3 25 -5 -0.22 2.21
5 25 3 0.59 1.23
3 25 -5 -3.36 1.69
-25 5 3 -2.22 1.15
-25 3 -5 0.97 0.99
-3 25 5 0.56 1.07
-5 25 -3 5.1 2.9
-25 -3 5 -1.79 1.62
-25 5 -5 0.27 1.18
-5 25 5 0.47 1.65
5 25 -5 0.64 2.34
-25 -5 5 3.37 1.34
-25 5 5 -0.52 1.64
-5 25 -5 -3.42 2.78
-7 25 1 27.57 6
-1 25 -7 39.58 7.24
-25 1 7 34.21 6.83
-25 -1 7 24.92 7.12
1 25 -7 31.15 6.66
-25 7 1 47.13 6.63
-1 25 7 25.28 5.16
-3 25 -7 6.69 4.47
-7 25 3 4.43 2.85
-3 25 7 10.35 3.14
-25 3 -7 6.5 1.87
3 25 -7 9.82 3.93
-7 25 5 5.1 2.2
-5 25 7 4.56 2.13
5 25 -7 8.51 3.89
-7 25 7 24.37 5.05
-1 25 -9 63.87 10.6
1 25 -9 63.67 9.88
-25 -9 3 15.21 2.22
-3 25 9 24.31 5.53
3 25 -9 31.53 5.99
5 25 -9 8.87 4.61
1 25 -11 16.32 7.24
3 25 -11 0.17 2.37
-26 0 0 70.8 7.27
0 26 0 60.98 8.9
-26 0 -2 20.39 2.83
-26 0 -2 21.75 3.13
-26 0 2 22.86 3.42
-2 26 0 31.74 5.5
2 26 0 30.52 5.36
0 26 -2 23.83 6.53
-26 -2 0 25.21 3.02
-26 -2 0 17.84 3.07
-26 2 0 23.91 3.48
0 26 2 11.65 4.05
2 26 2 9.36 2.53
-26 -2 2 2.14 1.3
-26 2 -2 4.65 1.9
-2 26 -2 5.31 2.6
-2 26 2 6.44 3.29
2 26 -2 4.92 2.78
-4 26 0 9.19 3.88
0 26 4 9.97 4.11
0 26 -4 8.33 3.63
-4 26 2 -0.28 2.34
4 26 -2 4.23 2.83
-2 26 -4 -1.86 2.07
-2 26 4 -1.11 1.34
-26 2 -4 -0.06 1.43
-4 26 -2 0.42 2.27
2 26 -4 -0.11 1.99
-4 26 -4 1.11 2.18
-4 26 4 0.92 2.11
0 26 -6 14.51 4.54
-2 26 -6 7.44 3.78
-6 26 2 4.43 3.2
2 26 -6 9.24 4.35
-6 26 4 2.25 1.99
-4 26 6 6.71 2.11
-6 26 6 4.21 2.51
0 26 -8 71.64 10.97
2 26 -8 41.83 9.08
-27 -1 -1 12.39 1.88
-1 27 -1 23.3 4.16
-1 27 1 16.3 4.27
-27 -3 1 -0.02 0.82
-1 27 -3 0.44 2.61
-3 27 1 -2.69 2.29
1 27 -3 1.89 2.02
-27 1 -3 -0.45 0.77
-3 27 -1 0.49 2.83
-3 27 -3 2.25 2.85
-5 27 1 4.2 4.77
-1 27 -5 -3.9 2.02
-5 27 3 5.05 3.25
