#------------------------------------------------------------------------------
#$Date: 2019-11-26 04:13:42 +0200 (Tue, 26 Nov 2019) $
#$Revision: 242583 $
#$URL: file:///home/coder/svn-repositories/cod/cif/4/13/26/4132636.cif $
#------------------------------------------------------------------------------
#
# This file is available in the Crystallography Open Database (COD),
# http://www.crystallography.net/
#
# All data on this site have been placed in the public domain by the
# contributors.
#
data_4132636
loop_
_publ_author_name
'Lee, Seungkyu'
'B\"urgi, Hans-Beat'
'Alshmimri, Sultan A.'
'Yaghi, Omar M.'
_publ_section_title
;
 Impact of Disordered Guest-Framework Interactions on the Crystallography
 of Metal-Organic Frameworks.
;
_journal_issue                   28
_journal_name_full               'Journal of the American Chemical Society'
_journal_page_first              8958
_journal_page_last               8964
_journal_paper_doi               10.1021/jacs.8b05271
_journal_volume                  140
_journal_year                    2018
_chemical_formula_moiety         '0.5(C85.44 H42.72 O56 Zr12), 4(H1 O1)'
_chemical_formula_sum            'C42.7 H25.4 O32.04 Zr6'
_chemical_formula_weight         1598.39
_chemical_name_systematic        Uio-66
_space_group_crystal_system      cubic
_space_group_IT_number           225
_space_group_name_Hall           '-F 4 2 3'
_space_group_name_H-M_alt        'F m -3 m'
_atom_sites_solution_hydrogens   mixed
_audit_creation_date             2018-04-24
_audit_creation_method
;
Olex2 1.2
(compiled 2017.08.10 svn.r3458 for OlexSys, GUI svn.r5381)
;
_cell_angle_alpha                90
_cell_angle_beta                 90
_cell_angle_gamma                90
_cell_formula_units_Z            4
_cell_length_a                   20.7439(6)
_cell_length_b                   20.7439(6)
_cell_length_c                   20.7439(6)
_cell_measurement_reflns_used    5181
_cell_measurement_temperature    100.15
_cell_measurement_theta_max      28.860
_cell_measurement_theta_min      2.85
_cell_volume                     8926.3(4)
_computing_cell_refinement       'SAINT V8.38A (?, 2016)'
_computing_data_reduction        'SAINT V8.38A (?, 2016)'
_computing_molecular_graphics    'Olex2 (Dolomanov et al., 2009)'
_computing_publication_material  'Olex2 (Dolomanov et al., 2009)'
_computing_structure_refinement  'ShelXL (Sheldrick, 2015)'
_diffrn_ambient_temperature      100.15
_diffrn_detector                 'Bruker Photon 2'
_diffrn_detector_area_resol_mean 10.42
_diffrn_detector_type            'Bruker Photon 2'
_diffrn_measured_fraction_theta_full 1.000
_diffrn_measured_fraction_theta_max 0.992
_diffrn_measurement_device       'three-circle diffractometer'
_diffrn_measurement_device_type  'Bruker Photon 2'
_diffrn_measurement_method       '\f and \w scans'
_diffrn_radiation_monochromator  'silicon 111'
_diffrn_radiation_probe          x-ray
_diffrn_radiation_wavelength     0.7288
_diffrn_reflns_av_R_equivalents  0.0987
_diffrn_reflns_av_unetI/netI     0.0389
_diffrn_reflns_Laue_measured_fraction_full 1.000
_diffrn_reflns_Laue_measured_fraction_max 0.992
_diffrn_reflns_limit_h_max       21
_diffrn_reflns_limit_h_min       -21
_diffrn_reflns_limit_k_max       25
_diffrn_reflns_limit_k_min       -27
_diffrn_reflns_limit_l_max       25
_diffrn_reflns_limit_l_min       -25
_diffrn_reflns_number            14886
_diffrn_reflns_point_group_measured_fraction_full 1.000
_diffrn_reflns_point_group_measured_fraction_max 0.992
_diffrn_reflns_theta_full        25.930
_diffrn_reflns_theta_max         29.028
_diffrn_reflns_theta_min         1.744
_diffrn_source                   'Advanced Light Source, station 11.3.1'
_diffrn_standards_number         0
_exptl_absorpt_coefficient_mu    0.785
_exptl_absorpt_correction_T_max  0.7054
_exptl_absorpt_correction_T_min  0.6020
_exptl_absorpt_correction_type   multi-scan
_exptl_absorpt_process_details
'SADABS-2016/2 (Bruker,2016/2) was used for absorption correction. wR2(int) was 0.1763 before and 0.0976 after correction. The Ratio of minimum to maximum transmission is 0.8534. The \l/2 correction factor is Not present.'
_exptl_crystal_colour            clear
_exptl_crystal_colour_lustre     clear
_exptl_crystal_density_diffrn    1.189
_exptl_crystal_description       'truncated octahedron'
_exptl_crystal_F_000             3112
_exptl_crystal_size_max          0.12
_exptl_crystal_size_mid          0.12
_exptl_crystal_size_min          0.12
_platon_squeeze_details
;
TITL shelx     F m -3 m     R = 0.06
CELL   20.7439   20.7439   20.7439     90.00     90.00     90.00
SPGR Fm-3m
# Solvent Accessible Volume =      4607
# Electrons Found in S.A.V. =      1357
# Note: Atoms in Void are Labelled as Cxxx and Qxxx for all Others
C101 0.158 0.500 0.000 !       2.07 eA-3
Q102 0.648 0.367 0.133 !       1.83 eA-3
C103 0.671 0.327 0.173 !       1.52 eA-3
C104 1.000 0.500 0.000 !       1.20 eA-3
C105 0.316 0.304 0.304 !       1.19 eA-3
C106 0.174 0.228 0.186 !       1.18 eA-3
C107 0.831 0.282 0.282 !       0.95 eA-3
Q108 0.384 0.500 0.000 !       0.95 eA-3
Q109 0.168 0.090 0.178 !       0.94 eA-3
C110 0.801 0.138 0.153 !       0.94 eA-3
C111 0.301 0.138 0.653 !       0.94 eA-3
C112 0.138 0.294 0.660 !       0.94 eA-3
C113 0.719 0.282 0.218 !       0.89 eA-3
C114 0.910 0.406 0.004 !       0.89 eA-3
C115 0.407 0.093 0.093 !       0.82 eA-3
C116 1.000 0.550 0.147 !       0.79 eA-3
C117 0.500 0.050 0.147 !       0.79 eA-3
C118 0.500 0.550 0.647 !       0.79 eA-3
C119 0.593 0.096 0.062 !       0.77 eA-3
C120 0.232 0.341 0.233 !       0.77 eA-3
Q121 0.874 0.126 0.126 !       0.75 eA-3
C122 0.578 0.068 0.068 !       0.72 eA-3
C123 0.922 0.432 0.932 !       0.72 eA-3
C124 0.859 0.457 0.043 !       0.70 eA-3
C125 0.520 0.152 0.969 !       0.70 eA-3
Q126 0.500 0.409 0.158 !       0.69 eA-3
C127 0.619 0.436 0.436 !       0.69 eA-3
Q128 1.000 0.207 0.059 !       0.68 eA-3
Q129 0.878 0.391 0.247 !       0.65 eA-3
Q130 0.453 0.453 0.047 !       0.64 eA-3
Q131 0.210 0.500 0.000 !       0.61 eA-3
C132 0.273 0.354 0.854 !       0.61 eA-3
C133 0.619 0.871 0.912 !       0.60 eA-3
C134 0.119 0.371 0.912 !       0.60 eA-3
C135 0.619 0.371 0.412 !       0.60 eA-3
C136 0.119 0.412 0.871 !       0.60 eA-3
Q137 0.065 0.250 0.250 !       0.60 eA-3
C138 0.194 0.250 0.250 !       0.59 eA-3
Q139 0.764 0.371 0.291 !       0.57 eA-3
C140 0.113 0.440 0.020 !       0.56 eA-3
C141 0.445 0.085 0.963 !       0.56 eA-3
C142 0.719 0.163 0.141 !       0.56 eA-3
C143 0.529 0.031-0.002 !       0.55 eA-3
Q144 0.099 0.178 0.217 !       0.54 eA-3
C145 0.145 0.143 0.332 !       0.53 eA-3
C146 0.283 0.217 0.217 !       0.51 eA-3
;
_refine_diff_density_max         0.579
_refine_diff_density_min         -0.716
_refine_diff_density_rms         0.107
_refine_ls_extinction_method     none
_refine_ls_goodness_of_fit_ref   1.095
_refine_ls_hydrogen_treatment    mixed
_refine_ls_matrix_type           full
_refine_ls_number_parameters     33
_refine_ls_number_reflns         612
_refine_ls_number_restraints     13
_refine_ls_restrained_S_all      1.084
_refine_ls_R_factor_all          0.0440
_refine_ls_R_factor_gt           0.0361
_refine_ls_shift/su_max          0.000
_refine_ls_shift/su_mean         0.000
_refine_ls_structure_factor_coef Fsqd
_refine_ls_weighting_details
'w=1/[\s^2^(Fo^2^)+(0.0647P)^2^+49.7667P] where P=(Fo^2^+2Fc^2^)/3'
_refine_ls_weighting_scheme      calc
_refine_ls_wR_factor_gt          0.1035
_refine_ls_wR_factor_ref         0.1101
_reflns_Friedel_coverage         0.000
_reflns_number_gt                518
_reflns_number_total             612
_reflns_threshold_expression     'I > 2\s(I)'
_iucr_refine_instructions_details
;
TITL AN_100K2_DMF in Fm-3m #225
    platon_sq.res
    created by SHELXL-2017/1 at 14:32:14 on 24-Apr-2018
REM reset to Fm-3m #225
CELL 0.7288 20.7439 20.7439 20.7439 90 90 90
ZERR 4 0.0006 0.0006 0.0006 0 0 0
LATT 4
SYMM -Y,+X,+Z
SYMM -X,-Y,+Z
SYMM +Y,-X,+Z
SYMM +X,-Z,+Y
SYMM +X,-Y,-Z
SYMM +X,+Z,-Y
SYMM +Z,+Y,-X
SYMM -X,+Y,-Z
SYMM -Z,+Y,+X
SYMM +Z,+X,+Y
SYMM +Y,+Z,+X
SYMM -Y,-Z,+X
SYMM +Z,-X,-Y
SYMM -Y,+Z,-X
SYMM -Z,-X,+Y
SYMM -Z,+X,-Y
SYMM +Y,-Z,-X
SYMM +Y,+X,-Z
SYMM -Y,-X,-Z
SYMM -X,+Z,+Y
SYMM -X,-Z,-Y
SYMM +Z,-Y,+X
SYMM -Z,-Y,-X
SFAC C H O Zr
DISP C 0.004 0.002 12.046
DISP H -0 0 0.625
DISP O 0.012 0.006 34.424
DISP Zr -2.441 0.61 2648.569
UNIT 170.8 101.6 128.16 24
DFIX 0.8 0.01 O2 H2
ISOR 0.01 0.02 O1 O2

L.S. 6 0 8
PLAN  20
SIZE 0.12 0.12 0.12
TEMP -173
BOND
ABIN
fmap 2
acta
REM <olex2.extras>
REM <HklSrc "%.\\platon_sq.hkl">
REM </olex2.extras>

WGHT    0.064700   49.766705
FVAR       0.03377
ZR1   4    0.119613    0.000000    0.000000    10.12500    0.00967    0.01467 =
         0.01467    0.00000    0.00000    0.00000
PART 1
O3    3    0.173346   -0.092298    0.000000    10.44500    0.03679    0.02712 =
         0.03701    0.00000    0.00000    0.01938
PART 0
PART 2
O2    3    0.067879    0.067879    0.067879    10.08333    0.01832    0.01832 =
         0.01832   -0.00695   -0.00695   -0.00695
H2    2    0.090142    0.090142    0.090142    10.08333   10.03000
PART 0
PART 1
C1    1    0.151560   -0.151560    0.000000    10.22250    0.03521    0.03521 =
         0.04174    0.00000    0.00000    0.00242
C2    1    0.202842   -0.202842    0.000000    10.22250    0.03461    0.03461 =
         0.06309    0.00000    0.00000    0.00746
C3    1    0.267080   -0.185543    0.000000    10.44500    0.03942    0.03003 =
         0.14885    0.00000    0.00000    0.00811
AFIX  43
H3    2    0.278904   -0.141300    0.000000    10.44500   -1.20000
AFIX   0
O1    3    0.050790    0.050790    0.050790    10.08333    0.01331    0.01331 =
         0.01331   -0.00487   -0.00487   -0.00487
PART 0
PART 2
O3A   3    0.199050   -0.070408    0.000000    10.05500   10.03000
HKLF 4




REM  AN_100K2_DMF in Fm-3m #225
REM R1 =  0.0361 for     518 Fo > 4sig(Fo)  and  0.0440 for all     612 data
REM     33 parameters refined using     13 restraints

END  
     
WGHT      0.0647     49.7387 

REM Highest difference peak  0.579,  deepest hole -0.716,  1-sigma level  0.107
Q1    1   0.1720 -0.1720  0.0774  10.50000  0.05    0.38
Q2    1   0.2617 -0.1510  0.0588  11.00000  0.05    0.35
Q3    1   0.1254  0.1254  0.1254  10.16667  0.05    0.34
Q4    1   0.2099 -0.1045 -0.0322  11.00000  0.05    0.32
Q5    1   0.2501 -0.1770 -0.0741  11.00000  0.05    0.32
Q6    1   0.2633 -0.1414  0.0534  11.00000  0.05    0.29
Q7    1   0.1724 -0.1081  0.0000  10.50000  0.05    0.28
Q8    1   0.2596 -0.0735  0.0000  10.50000  0.05    0.28
Q9    1   0.1483 -0.0730  0.0000  10.50000  0.05    0.26
Q10   1   0.2500 -0.2500  0.0635  10.25000  0.05    0.26
Q11   1   0.2144 -0.0720  0.0720  10.50000  0.05    0.23
Q12   1   0.2177 -0.0750  0.0618  11.00000  0.05    0.23
Q13   1   0.2932 -0.1311  0.0357  11.00000  0.05    0.22
Q14   1   0.1959 -0.0910 -0.0287  11.00000  0.05    0.22
Q15   1   0.2407 -0.0626  0.0428  11.00000  0.05    0.22
Q16   1   0.0769  0.0494  0.0769  10.50000  0.05    0.22
Q17   1   0.3268 -0.1163  0.0000  10.50000  0.05    0.21
Q18   1   0.1846 -0.1065 -0.0726  11.00000  0.05    0.21
Q19   1   0.2232 -0.1061  0.0418  11.00000  0.05    0.20
Q20   1   0.1519 -0.0551  0.0000  10.50000  0.05    0.20

  REM The information below was added by Olex2.
  REM
  REM R1 = 0.0361 for 518 Fo > 4sig(Fo) and 0.0440 for all 14886 data
  REM n/a parameters refined using n/a restraints
  REM Highest difference peak 0.58, deepest hole -0.72
  REM Mean Shift 0, Max Shift 0.000.

  REM +++ Tabular Listing of Refinement Information +++
  REM R1_all = 0.0440
  REM R1_gt = 0.0361
  REM wR_ref = 0.1101
  REM GOOF = 1.095
  REM Shift_max = 0.000
  REM Shift_mean = 0
  REM Reflections_all = 14886
  REM Reflections_gt = 518
  REM Parameters = n/a
  REM Hole = -0.72
  REM Peak = 0.58
  REM Flack = n/a

  
;
_cod_data_source_file            UiO-66_Tswing_100K2.cif
_cod_data_source_block           UiO-66_Tswing_100K2
_cod_original_cell_volume        8926.3(8)
_cod_original_formula_sum        'C42.70 H25.40 O32.04 Zr6'
_cod_database_code               4132636
_shelx_shelxl_version_number     2017/1
_shelx_space_group_comment
;
The symmetry employed for this shelxl refinement is uniquely defined
by the following loop, which should always be used as a source of
symmetry information in preference to the above space-group names.
They are only intended as comments.
;
_shelx_estimated_absorpt_t_max   0.912
_shelx_estimated_absorpt_t_min   0.912
_olex2_refinement_description
;
1. Fixed Uiso
 At 1.2 times of:
  All C(H) groups
2. Restrained distances
 O2-H2
 0.8 with sigma of 0.01
3. Uiso/Uaniso restraints and constraints
Uanis(O1) \\sim Ueq, Uanis(O2) \\sim Ueq: with sigma of 0.01 and sigma for
terminal atoms of 0.02
4. Others
 Fixed Sof: O3(0.445) O2(0.08333) H2(0.08333) C1(0.2225) C2(0.2225) C3(0.445)
 H3(0.445) O1(0.08333) O3A(0.055)
 Fixed Uiso: H2(0.03) O3A(0.03)
5.a Aromatic/amide H refined with riding coordinates:
 C3(H3)
;
_shelx_fab_file
;
 1 1 1 -256.28 0.00
 0 0 2 -206.33 0.00
 0 2 2 272.31 0.00
 2 2 2 -141.31 0.00
 1 1 3 -39.69 0.00
 1 3 3 106.18 0.00
 3 3 3 7.72 0.00
 0 0 4 -184.71 0.00
 0 2 4 37.59 0.00
 2 2 4 -74.38 0.00
 0 4 4 25.75 0.00
 2 4 4 -53.14 0.00
 4 4 4 -18.61 0.00
 1 1 5 28.82 0.00
 1 3 5 1.16 0.00
 3 3 5 0.22 0.00
 1 5 5 -45.92 0.00
 3 5 5 33.43 0.00
 5 5 5 -29.57 0.00
 0 0 6 131.17 0.00
 0 2 6 -64.76 0.00
 2 2 6 45.35 0.00
 0 4 6 21.49 0.00
 2 4 6 -0.35 0.00
 4 4 6 31.47 0.00
 0 6 6 43.53 0.00
 2 6 6 20.08 0.00
 4 6 6 -2.27 0.00
 6 6 6 -12.24 0.00
 1 1 7 10.95 0.00
 1 3 7 -34.07 0.00
 3 3 7 41.48 0.00
 1 5 7 -12.00 0.00
 3 5 7 -2.48 0.00
 5 5 7 -20.62 0.00
 1 7 7 -1.77 0.00
 3 7 7 -16.31 0.00
 5 7 7 -0.76 0.00
 7 7 7 -2.61 0.00
 0 0 8 -1.34 0.00
 0 2 8 16.27 0.00
 2 2 8 -30.01 0.00
 0 4 8 -15.68 0.00
 2 4 8 17.44 0.00
 4 4 8 -10.16 0.00
 0 6 8 11.55 0.00
 2 6 8 -0.13 0.00
 4 6 8 -17.15 0.00
 6 6 8 42.24 0.00
 0 8 8 2.63 0.00
 2 8 8 -4.96 0.00
 4 8 8 10.09 0.00
 6 8 8 -14.83 0.00
 8 8 8 4.58 0.00
 1 1 9 -2.48 0.00
 1 3 9 -1.38 0.00
 3 3 9 26.76 0.00
 1 5 9 13.59 0.00
 3 5 9 -20.08 0.00
 5 5 9 6.68 0.00
 1 7 9 0.27 0.00
 3 7 9 1.37 0.00
 5 7 9 8.22 0.00
 7 7 9 -7.83 0.00
 1 9 9 -11.71 0.00
 3 9 9 26.48 0.00
 5 9 9 -0.38 0.00
 7 9 9 -8.80 0.00
 9 9 9 5.98 0.00
 0 0 10 11.14 0.00
 0 2 10 -6.03 0.00
 2 2 10 13.37 0.00
 0 4 10 14.31 0.00
 2 4 10 -0.31 0.00
 4 4 10 -23.08 0.00
 0 6 10 5.94 0.00
 2 6 10 -15.37 0.00
 4 6 10 14.36 0.00
 6 6 10 1.69 0.00
 0 8 10 -9.26 0.00
 2 8 10 -1.25 0.00
 4 8 10 -1.89 0.00
 6 8 10 -2.36 0.00
 8 8 10 3.44 0.00
 0 10 10 -1.45 0.00
 2 10 10 6.55 0.00
 4 10 10 -2.67 0.00
 6 10 10 -9.12 0.00
 8 10 10 -2.63 0.00
 10 10 10 8.19 0.00
 1 1 11 -18.40 0.00
 1 3 11 5.20 0.00
 3 3 11 -18.12 0.00
 1 5 11 -7.08 0.00
 3 5 11 7.80 0.00
 5 5 11 0.92 0.00
 1 7 11 0.18 0.00
 3 7 11 5.90 0.00
 5 7 11 -5.87 0.00
 7 7 11 -1.55 0.00
 1 9 11 4.59 0.00
 3 9 11 -4.79 0.00
 5 9 11 -1.36 0.00
 7 9 11 8.11 0.00
 9 9 11 -1.03 0.00
 1 11 11 -3.47 0.00
 3 11 11 -0.88 0.00
 5 11 11 -4.21 0.00
 7 11 11 5.51 0.00
 9 11 11 1.89 0.00
 11 11 11 -18.96 0.00
 0 0 12 30.81 0.00
 0 2 12 -4.87 0.00
 2 2 12 15.75 0.00
 0 4 12 10.66 0.00
 2 4 12 -11.39 0.00
 4 4 12 5.75 0.00
 0 6 12 -10.82 0.00
 2 6 12 8.21 0.00
 4 6 12 9.67 0.00
 6 6 12 -9.90 0.00
 0 8 12 10.01 0.00
 2 8 12 0.14 0.00
 4 8 12 -9.15 0.00
 6 8 12 -3.56 0.00
 8 8 12 3.85 0.00
 0 10 12 6.97 0.00
 2 10 12 -2.62 0.00
 4 10 12 -0.41 0.00
 6 10 12 4.52 0.00
 8 10 12 -0.12 0.00
 10 10 12 2.68 0.00
 0 12 12 -3.26 0.00
 2 12 12 -3.76 0.00
 4 12 12 7.19 0.00
 6 12 12 8.44 0.00
 8 12 12 -8.43 0.00
 10 12 12 -7.23 0.00
 12 12 12 17.56 0.00
 1 1 13 3.63 0.00
 1 3 13 -3.83 0.00
 3 3 13 8.22 0.00
 1 5 13 -2.95 0.00
 3 5 13 2.44 0.00
 5 5 13 0.26 0.00
 1 7 13 -4.26 0.00
 3 7 13 3.60 0.00
 5 7 13 -4.51 0.00
 7 7 13 2.75 0.00
 1 9 13 1.28 0.00
 3 9 13 -2.07 0.00
 5 9 13 -2.12 0.00
 7 9 13 7.16 0.00
 9 9 13 -1.15 0.00
 1 11 13 -0.96 0.00
 3 11 13 -2.05 0.00
 5 11 13 4.84 0.00
 7 11 13 -3.50 0.00
 9 11 13 -7.18 0.00
 11 11 13 10.03 0.00
 1 13 13 2.59 0.00
 3 13 13 1.04 0.00
 5 13 13 -8.19 0.00
 7 13 13 -0.21 0.00
 9 13 13 4.77 0.00
 11 13 13 -5.97 0.00
 13 13 13 5.49 0.00
 0 0 14 -11.74 0.00
 0 2 14 8.84 0.00
 2 2 14 -18.79 0.00
 0 4 14 -9.32 0.00
 2 4 14 5.83 0.00
 4 4 14 -8.89 0.00
 0 6 14 1.75 0.00
 2 6 14 2.28 0.00
 4 6 14 -5.35 0.00
 6 6 14 7.52 0.00
 0 8 14 6.53 0.00
 2 8 14 -8.17 0.00
 4 8 14 7.43 0.00
 6 8 14 -2.11 0.00
 8 8 14 -0.28 0.00
 0 10 14 -0.61 0.00
 2 10 14 1.62 0.00
 4 10 14 -1.08 0.00
 6 10 14 5.92 0.00
 8 10 14 -8.73 0.00
 10 10 14 3.64 0.00
 0 12 14 -2.30 0.00
 2 12 14 0.64 0.00
 4 12 14 6.14 0.00
 6 12 14 -9.53 0.00
 8 12 14 0.89 0.00
 10 12 14 9.70 0.00
 12 12 14 -7.32 0.00
 0 14 14 9.94 0.00
 2 14 14 -0.69 0.00
 4 14 14 -3.31 0.00
 6 14 14 4.66 0.00
 8 14 14 10.14 0.00
 10 14 14 -8.87 0.00
 12 14 14 -3.38 0.00
 14 14 14 6.29 0.00
 1 1 15 -6.06 0.00
 1 3 15 10.81 0.00
 3 3 15 -8.44 0.00
 1 5 15 -1.51 0.00
 3 5 15 10.39 0.00
 5 5 15 -10.86 0.00
 1 7 15 4.35 0.00
 3 7 15 -4.53 0.00
 5 7 15 -2.75 0.00
 7 7 15 7.73 0.00
 1 9 15 -1.21 0.00
 3 9 15 -1.78 0.00
 5 9 15 5.20 0.00
 7 9 15 -2.62 0.00
 9 9 15 -4.59 0.00
 1 11 15 -4.13 0.00
 3 11 15 10.07 0.00
 5 11 15 -8.20 0.00
 7 11 15 -4.69 0.00
 9 11 15 7.17 0.00
 11 11 15 10.40 0.00
 1 13 15 0.17 0.00
 3 13 15 -5.39 0.00
 5 13 15 0.40 0.00
 7 13 15 7.96 0.00
 9 13 15 0.45 0.00
 11 13 15 -7.52 0.00
 13 13 15 2.70 0.00
 1 15 15 0.01 0.00
 3 15 15 -4.89 0.00
 5 15 15 5.65 0.00
 7 15 15 -2.00 0.00
 9 15 15 -6.28 0.00
 11 15 15 1.54 0.00
 13 15 15 7.24 0.00
 15 15 15 -9.80 0.00
 0 0 16 -13.47 0.00
 0 2 16 13.05 0.00
 2 2 16 -4.52 0.00
 0 4 16 1.17 0.00
 2 4 16 -0.39 0.00
 4 4 16 1.04 0.00
 0 6 16 -0.83 0.00
 2 6 16 -1.22 0.00
 4 6 16 1.76 0.00
 6 6 16 1.17 0.00
 0 8 16 -2.44 0.00
 2 8 16 -2.86 0.00
 4 8 16 1.69 0.00
 6 8 16 5.77 0.00
 8 8 16 -9.08 0.00
 0 10 16 1.85 0.00
 2 10 16 0.28 0.00
 4 10 16 2.13 0.00
 6 10 16 -2.54 0.00
 8 10 16 4.89 0.00
 10 10 16 -1.93 0.00
 0 12 16 1.07 0.00
 2 12 16 -0.21 0.00
 4 12 16 -3.59 0.00
 6 12 16 1.07 0.00
 8 12 16 0.54 0.00
 10 12 16 -9.85 0.00
 12 12 16 -6.49 0.00
 0 14 16 -3.67 0.00
 2 14 16 3.22 0.00
 4 14 16 0.86 0.00
 6 14 16 -3.28 0.00
 8 14 16 -3.36 0.00
 10 14 16 1.38 0.00
 12 14 16 4.73 0.00
 14 14 16 -3.40 0.00
 0 16 16 -4.64 0.00
 2 16 16 -2.11 0.00
 4 16 16 1.47 0.00
 6 16 16 -2.76 0.00
 8 16 16 -1.04 0.00
 10 16 16 0.80 0.00
 12 16 16 1.43 0.00
 14 16 16 3.76 0.00
 1 1 17 -4.03 0.00
 1 3 17 -3.39 0.00
 3 3 17 -1.80 0.00
 1 5 17 -0.60 0.00
 3 5 17 -8.38 0.00
 5 5 17 4.07 0.00
 1 7 17 -3.33 0.00
 3 7 17 10.58 0.00
 5 7 17 -3.93 0.00
 7 7 17 -7.04 0.00
 1 9 17 1.57 0.00
 3 9 17 -0.49 0.00
 5 9 17 -4.34 0.00
 7 9 17 1.88 0.00
 9 9 17 -1.19 0.00
 1 11 17 2.71 0.00
 3 11 17 -8.67 0.00
 5 11 17 4.60 0.00
 7 11 17 5.75 0.00
 9 11 17 -1.08 0.00
 11 11 17 -5.95 0.00
 1 13 17 -0.57 0.00
 3 13 17 5.37 0.00
 5 13 17 -1.31 0.00
 7 13 17 -7.14 0.00
 9 13 17 1.35 0.00
 11 13 17 15.55 0.00
 13 13 17 -2.69 0.00
 1 15 17 -0.73 0.00
 3 15 17 2.61 0.00
 5 15 17 0.12 0.00
 7 15 17 1.97 0.00
 9 15 17 0.13 0.00
 11 15 17 0.35 0.00
 13 15 17 -9.34 0.00
 15 15 17 1.33 0.00
 1 17 17 3.46 0.00
 3 17 17 -4.72 0.00
 5 17 17 -1.18 0.00
 7 17 17 1.31 0.00
 9 17 17 1.49 0.00
 11 17 17 -1.79 0.00
 13 17 17 -9.47 0.00
 0 0 18 3.96 0.00
 0 2 18 0.21 0.00
 2 2 18 8.02 0.00
 0 4 18 1.24 0.00
 2 4 18 -4.27 0.00
 4 4 18 14.49 0.00
 0 6 18 8.31 0.00
 2 6 18 -0.71 0.00
 4 6 18 -1.59 0.00
 6 6 18 1.33 0.00
 0 8 18 -4.06 0.00
 2 8 18 1.65 0.00
 4 8 18 -1.92 0.00
 6 8 18 -0.85 0.00
 8 8 18 -0.25 0.00
 0 10 18 4.73 0.00
 2 10 18 -1.94 0.00
 4 10 18 2.74 0.00
 6 10 18 -4.15 0.00
 8 10 18 9.57 0.00
 10 10 18 -11.00 0.00
 0 12 18 -2.61 0.00
 2 12 18 5.87 0.00
 4 12 18 -4.65 0.00
 6 12 18 5.91 0.00
 8 12 18 -4.19 0.00
 10 12 18 4.45 0.00
 12 12 18 3.04 0.00
 0 14 18 -0.89 0.00
 2 14 18 -0.12 0.00
 4 14 18 3.21 0.00
 6 14 18 5.12 0.00
 8 14 18 -0.96 0.00
 10 14 18 5.08 0.00
 12 14 18 -7.85 0.00
 14 14 18 10.95 0.00
 0 16 18 4.31 0.00
 2 16 18 -1.33 0.00
 4 16 18 -2.48 0.00
 6 16 18 1.22 0.00
 8 16 18 7.30 0.00
 10 16 18 -5.10 0.00
 12 16 18 2.22 0.00
 0 18 18 -2.65 0.00
 2 18 18 -0.84 0.00
 4 18 18 20.06 0.00
 6 18 18 -1.23 0.00
 8 18 18 -0.90 0.00
 10 18 18 -3.82 0.00
 1 1 19 0.80 0.00
 1 3 19 0.20 0.00
 3 3 19 0.62 0.00
 1 5 19 -3.60 0.00
 3 5 19 3.54 0.00
 5 5 19 -3.92 0.00
 1 7 19 0.98 0.00
 3 7 19 -4.14 0.00
 5 7 19 4.75 0.00
 7 7 19 0.64 0.00
 1 9 19 -0.62 0.00
 3 9 19 0.73 0.00
 5 9 19 0.60 0.00
 7 9 19 -1.81 0.00
 9 9 19 4.77 0.00
 1 11 19 -1.69 0.00
 3 11 19 -1.92 0.00
 5 11 19 -2.94 0.00
 7 11 19 4.44 0.00
 9 11 19 -3.41 0.00
 11 11 19 -1.87 0.00
 1 13 19 -6.23 0.00
 3 13 19 0.34 0.00
 5 13 19 -3.36 0.00
 7 13 19 -3.17 0.00
 9 13 19 -5.33 0.00
 11 13 19 -5.05 0.00
 13 13 19 -8.56 0.00
 1 15 19 -2.77 0.00
 3 15 19 6.48 0.00
 5 15 19 0.10 0.00
 7 15 19 -12.19 0.00
 9 15 19 -0.16 0.00
 11 15 19 2.12 0.00
 13 15 19 -0.08 0.00
 1 17 19 9.12 0.00
 3 17 19 -10.94 0.00
 5 17 19 -4.01 0.00
 7 17 19 -4.22 0.00
 9 17 19 4.81 0.00
 3 19 19 -10.72 0.00
 5 19 19 -3.80 0.00
 0 0 20 11.37 0.00
 0 2 20 -4.59 0.00
 2 2 20 -0.56 0.00
 0 4 20 -3.90 0.00
 2 4 20 0.75 0.00
 4 4 20 0.61 0.00
 0 6 20 8.78 0.00
 2 6 20 -1.44 0.00
 4 6 20 -4.63 0.00
 6 6 20 2.48 0.00
 0 8 20 2.09 0.00
 2 8 20 3.33 0.00
 4 8 20 -3.21 0.00
 6 8 20 1.65 0.00
 8 8 20 -2.21 0.00
 0 10 20 2.75 0.00
 2 10 20 -1.12 0.00
 4 10 20 4.16 0.00
 6 10 20 -2.65 0.00
 8 10 20 -8.62 0.00
 10 10 20 7.58 0.00
 0 12 20 1.92 0.00
 2 12 20 3.06 0.00
 4 12 20 5.65 0.00
 6 12 20 -0.64 0.00
 8 12 20 6.63 0.00
 10 12 20 0.01 0.00
 12 12 20 -0.03 0.00
 0 14 20 4.25 0.00
 2 14 20 0.09 0.00
 4 14 20 -7.42 0.00
 6 14 20 8.51 0.00
 8 14 20 5.92 0.00
 10 14 20 -3.31 0.00
 12 14 20 19.95 0.00
 0 16 20 2.66 0.00
 2 16 20 -15.66 0.00
 4 16 20 0.48 0.00
 6 16 20 0.39 0.00
 8 16 20 -0.49 0.00
 10 16 20 3.10 0.00
 0 18 20 -25.87 0.00
 2 18 20 13.41 0.00
 4 18 20 -2.91 0.00
 6 18 20 6.50 0.00
 1 1 21 -1.63 0.00
 1 3 21 -4.66 0.00
 3 3 21 10.55 0.00
 1 5 21 3.03 0.00
 3 5 21 -2.63 0.00
 5 5 21 -1.30 0.00
 1 7 21 -4.07 0.00
 3 7 21 -3.79 0.00
 5 7 21 3.89 0.00
 7 7 21 -0.65 0.00
 1 9 21 -5.96 0.00
 3 9 21 5.67 0.00
 5 9 21 -4.66 0.00
 7 9 21 1.45 0.00
 9 9 21 4.84 0.00
 1 11 21 -2.54 0.00
 3 11 21 0.63 0.00
 5 11 21 -4.35 0.00
 7 11 21 -3.91 0.00
 9 11 21 8.37 0.00
 11 11 21 1.82 0.00
 1 13 21 -6.61 0.00
 3 13 21 3.90 0.00
 5 13 21 0.81 0.00
 7 13 21 -6.46 0.00
 9 13 21 -3.47 0.00
 11 13 21 -8.77 0.00
 1 15 21 19.89 0.00
 3 15 21 -4.26 0.00
 5 15 21 2.98 0.00
 7 15 21 2.97 0.00
 9 15 21 -0.60 0.00
 1 17 21 -0.02 0.00
 3 17 21 18.13 0.00
 5 17 21 8.28 0.00
 0 0 22 8.34 0.00
 0 2 22 0.52 0.00
 2 2 22 3.10 0.00
 0 4 22 7.64 0.00
 2 4 22 -1.61 0.00
 4 4 22 -7.82 0.00
 0 6 22 -0.18 0.00
 2 6 22 -0.63 0.00
 4 6 22 2.12 0.00
 6 6 22 -0.13 0.00
 0 8 22 1.22 0.00
 2 8 22 3.46 0.00
 4 8 22 -0.44 0.00
 6 8 22 4.65 0.00
 8 8 22 0.62 0.00
 0 10 22 -6.09 0.00
 2 10 22 4.53 0.00
 4 10 22 0.63 0.00
 6 10 22 8.33 0.00
 8 10 22 -12.90 0.00
 10 10 22 -0.88 0.00
 0 12 22 32.92 0.00
 2 12 22 -11.89 0.00
 4 12 22 2.31 0.00
 6 12 22 0.35 0.00
 8 12 22 8.31 0.00
 10 12 22 -2.40 0.00
 0 14 22 0.09 0.00
 2 14 22 -7.25 0.00
 4 14 22 -2.95 0.00
 6 14 22 0.49 0.00
 8 14 22 9.62 0.00
 0 16 22 -40.28 0.00
 2 16 22 10.85 0.00
 4 16 22 -16.91 0.00
 1 1 23 -3.25 0.00
 1 3 23 -1.64 0.00
 3 3 23 3.92 0.00
 1 5 23 3.00 0.00
 3 5 23 -2.43 0.00
 5 5 23 6.83 0.00
 1 7 23 -3.43 0.00
 3 7 23 10.48 0.00
 5 7 23 -7.58 0.00
 7 7 23 -4.14 0.00
 1 9 23 2.77 0.00
 3 9 23 -1.15 0.00
 5 9 23 -1.76 0.00
 7 9 23 1.97 0.00
 9 9 23 5.17 0.00
 1 11 23 -8.97 0.00
 3 11 23 4.26 0.00
 5 11 23 3.73 0.00
 7 11 23 -4.06 0.00
 9 11 23 -5.94 0.00
 1 13 23 1.03 0.00
 3 13 23 -6.18 0.00
 5 13 23 -2.35 0.00
 7 13 23 -9.87 0.00
 1 15 23 -7.75 0.00
 3 15 23 21.26 0.00
 0 0 24 3.57 0.00
 0 2 24 -0.16 0.00
 2 2 24 -0.68 0.00
 0 4 24 -0.63 0.00
 2 4 24 -1.44 0.00
 4 4 24 -1.55 0.00
 0 6 24 -0.34 0.00
 2 6 24 -0.90 0.00
 4 6 24 0.03 0.00
 6 6 24 3.52 0.00
 0 8 24 -4.11 0.00
 2 8 24 -4.98 0.00
 4 8 24 0.62 0.00
 6 8 24 -6.22 0.00
 8 8 24 3.36 0.00
 0 10 24 18.14 0.00
 2 10 24 -8.38 0.00
 4 10 24 -12.05 0.00
 6 10 24 -4.05 0.00
 8 10 24 12.66 0.00
 0 12 24 -7.31 0.00
 2 12 24 9.75 0.00
 4 12 24 -4.81 0.00
 6 12 24 14.40 0.00
 1 1 25 4.04 0.00
 1 3 25 -1.32 0.00
 3 3 25 5.95 0.00
 1 5 25 -8.94 0.00
 3 5 25 1.26 0.00
 5 5 25 0.63 0.00
 1 7 25 5.41 0.00
 3 7 25 -9.46 0.00
 5 7 25 3.05 0.00
 7 7 25 6.81 0.00
 1 9 25 5.34 0.00
 3 9 25 7.51 0.00
 5 9 25 5.19 0.00
 7 9 25 -4.03 0.00
 1 11 25 -5.83 0.00
 3 11 25 10.24 0.00
 0 0 26 1.61 0.00
 0 2 26 -0.62 0.00
 2 2 26 -10.82 0.00
 0 4 26 4.32 0.00
 2 4 26 8.01 0.00
 4 4 26 -7.34 0.00
 0 6 26 1.99 0.00
 2 6 26 15.93 0.00
 4 6 26 6.16 0.00
 6 6 26 -17.09 0.00
 0 8 26 4.74 0.00
 2 8 26 -11.61 0.00
 4 8 26 6.17 0.00
 1 5 27 -15.85 0.00
 16 16 16 1.97 0.00
 11 17 19 -3.49 0.00
 1 19 19 0.64 0.00
 7 19 19 0.20 0.00
 12 12 22 11.46 0.00
 11 11 23 3.91 0.00
 0 14 24 0.35 0.00
 5 11 25 3.90 0.00
 1 1 27 -5.16 0.00
 1 3 27 14.29 0.00
 3 3 27 -17.87 0.00
 3 5 27 -0.70 0.00
 0 0 0 0.00 0.00
# SQUEEZE RESULTS (Version = 91117)
# Note: Data are Listed for all Voids in the P1 Unit Cell
# i.e. Centre of Gravity, Solvent Accessible Volume,
# Recovered number of Electrons in the Void and
# Details about the Squeezed Material
;
_platon_squeeze_void_probe_radius 1.20
_olex2_submission_original_sample_id UiO-66_Tswing_100K2
_olex2_submission_special_instructions 'No special instructions were received'
loop_
_space_group_symop_operation_xyz
'x, y, z'
'-y, x, z'
'-x, -y, z'
'y, -x, z'
'x, -z, y'
'x, -y, -z'
'x, z, -y'
'z, y, -x'
'-x, y, -z'
'-z, y, x'
'z, x, y'
'y, z, x'
'-y, -z, x'
'z, -x, -y'
'-y, z, -x'
'-z, -x, y'
'-z, x, -y'
'y, -z, -x'
'y, x, -z'
'-y, -x, -z'
'-x, z, y'
'-x, -z, -y'
'z, -y, x'
'-z, -y, -x'
'x, y+1/2, z+1/2'
'-y, x+1/2, z+1/2'
'-x, -y+1/2, z+1/2'
'y, -x+1/2, z+1/2'
'x, -z+1/2, y+1/2'
'x, -y+1/2, -z+1/2'
'x, z+1/2, -y+1/2'
'z, y+1/2, -x+1/2'
'-x, y+1/2, -z+1/2'
'-z, y+1/2, x+1/2'
'z, x+1/2, y+1/2'
'y, z+1/2, x+1/2'
'-y, -z+1/2, x+1/2'
'z, -x+1/2, -y+1/2'
'-y, z+1/2, -x+1/2'
'-z, -x+1/2, y+1/2'
'-z, x+1/2, -y+1/2'
'y, -z+1/2, -x+1/2'
'y, x+1/2, -z+1/2'
'-y, -x+1/2, -z+1/2'
'-x, z+1/2, y+1/2'
'-x, -z+1/2, -y+1/2'
'z, -y+1/2, x+1/2'
'-z, -y+1/2, -x+1/2'
'x+1/2, y, z+1/2'
'-y+1/2, x, z+1/2'
'-x+1/2, -y, z+1/2'
'y+1/2, -x, z+1/2'
'x+1/2, -z, y+1/2'
'x+1/2, -y, -z+1/2'
'x+1/2, z, -y+1/2'
'z+1/2, y, -x+1/2'
'-x+1/2, y, -z+1/2'
'-z+1/2, y, x+1/2'
'z+1/2, x, y+1/2'
'y+1/2, z, x+1/2'
'-y+1/2, -z, x+1/2'
'z+1/2, -x, -y+1/2'
'-y+1/2, z, -x+1/2'
'-z+1/2, -x, y+1/2'
'-z+1/2, x, -y+1/2'
'y+1/2, -z, -x+1/2'
'y+1/2, x, -z+1/2'
'-y+1/2, -x, -z+1/2'
'-x+1/2, z, y+1/2'
'-x+1/2, -z, -y+1/2'
'z+1/2, -y, x+1/2'
'-z+1/2, -y, -x+1/2'
'x+1/2, y+1/2, z'
'-y+1/2, x+1/2, z'
'-x+1/2, -y+1/2, z'
'y+1/2, -x+1/2, z'
'x+1/2, -z+1/2, y'
'x+1/2, -y+1/2, -z'
'x+1/2, z+1/2, -y'
'z+1/2, y+1/2, -x'
'-x+1/2, y+1/2, -z'
'-z+1/2, y+1/2, x'
'z+1/2, x+1/2, y'
'y+1/2, z+1/2, x'
'-y+1/2, -z+1/2, x'
'z+1/2, -x+1/2, -y'
'-y+1/2, z+1/2, -x'
'-z+1/2, -x+1/2, y'
'-z+1/2, x+1/2, -y'
'y+1/2, -z+1/2, -x'
'y+1/2, x+1/2, -z'
'-y+1/2, -x+1/2, -z'
'-x+1/2, z+1/2, y'
'-x+1/2, -z+1/2, -y'
'z+1/2, -y+1/2, x'
'-z+1/2, -y+1/2, -x'
'-x, -y, -z'
'y, -x, -z'
'x, y, -z'
'-y, x, -z'
'-x, z, -y'
'-x, y, z'
'-x, -z, y'
'-z, -y, x'
'x, -y, z'
'z, -y, -x'
'-z, -x, -y'
'-y, -z, -x'
'y, z, -x'
'-z, x, y'
'y, -z, x'
'z, x, -y'
'z, -x, y'
'-y, z, x'
'-y, -x, z'
'y, x, z'
'x, -z, -y'
'x, z, y'
'-z, y, -x'
'z, y, x'
'-x, -y+1/2, -z+1/2'
'y, -x+1/2, -z+1/2'
'x, y+1/2, -z+1/2'
'-y, x+1/2, -z+1/2'
'-x, z+1/2, -y+1/2'
'-x, y+1/2, z+1/2'
'-x, -z+1/2, y+1/2'
'-z, -y+1/2, x+1/2'
'x, -y+1/2, z+1/2'
'z, -y+1/2, -x+1/2'
'-z, -x+1/2, -y+1/2'
'-y, -z+1/2, -x+1/2'
'y, z+1/2, -x+1/2'
'-z, x+1/2, y+1/2'
'y, -z+1/2, x+1/2'
'z, x+1/2, -y+1/2'
'z, -x+1/2, y+1/2'
'-y, z+1/2, x+1/2'
'-y, -x+1/2, z+1/2'
'y, x+1/2, z+1/2'
'x, -z+1/2, -y+1/2'
'x, z+1/2, y+1/2'
'-z, y+1/2, -x+1/2'
'z, y+1/2, x+1/2'
'-x+1/2, -y, -z+1/2'
'y+1/2, -x, -z+1/2'
'x+1/2, y, -z+1/2'
'-y+1/2, x, -z+1/2'
'-x+1/2, z, -y+1/2'
'-x+1/2, y, z+1/2'
'-x+1/2, -z, y+1/2'
'-z+1/2, -y, x+1/2'
'x+1/2, -y, z+1/2'
'z+1/2, -y, -x+1/2'
'-z+1/2, -x, -y+1/2'
'-y+1/2, -z, -x+1/2'
'y+1/2, z, -x+1/2'
'-z+1/2, x, y+1/2'
'y+1/2, -z, x+1/2'
'z+1/2, x, -y+1/2'
'z+1/2, -x, y+1/2'
'-y+1/2, z, x+1/2'
'-y+1/2, -x, z+1/2'
'y+1/2, x, z+1/2'
'x+1/2, -z, -y+1/2'
'x+1/2, z, y+1/2'
'-z+1/2, y, -x+1/2'
'z+1/2, y, x+1/2'
'-x+1/2, -y+1/2, -z'
'y+1/2, -x+1/2, -z'
'x+1/2, y+1/2, -z'
'-y+1/2, x+1/2, -z'
'-x+1/2, z+1/2, -y'
'-x+1/2, y+1/2, z'
'-x+1/2, -z+1/2, y'
'-z+1/2, -y+1/2, x'
'x+1/2, -y+1/2, z'
'z+1/2, -y+1/2, -x'
'-z+1/2, -x+1/2, -y'
'-y+1/2, -z+1/2, -x'
'y+1/2, z+1/2, -x'
'-z+1/2, x+1/2, y'
'y+1/2, -z+1/2, x'
'z+1/2, x+1/2, -y'
'z+1/2, -x+1/2, y'
'-y+1/2, z+1/2, x'
'-y+1/2, -x+1/2, z'
'y+1/2, x+1/2, z'
'x+1/2, -z+1/2, -y'
'x+1/2, z+1/2, y'
'-z+1/2, y+1/2, -x'
'z+1/2, y+1/2, x'
loop_
_atom_site_label
_atom_site_type_symbol
_atom_site_fract_x
_atom_site_fract_y
_atom_site_fract_z
_atom_site_U_iso_or_equiv
_atom_site_adp_type
_atom_site_occupancy
_atom_site_site_symmetry_order
_atom_site_calc_flag
_atom_site_refinement_flags_posn
_atom_site_refinement_flags_adp
_atom_site_refinement_flags_occupancy
_atom_site_disorder_assembly
_atom_site_disorder_group
Zr1 Zr 0.11961(3) 0.000000 0.000000 0.0130(3) Uani 1 8 d S T P . .
O3 O 0.17335(18) -0.09230(17) 0.000000 0.0336(8) Uani 0.89 2 d S T P A 1
O2 O 0.0679(3) 0.0679(3) 0.0679(3) 0.018(2) Uani 0.5 6 d DS TU P . 2
H2 H 0.0901(4) 0.0901(4) 0.0901(4) 0.030 Uiso 0.5 6 d DS T P B 2
C1 C 0.1516(3) -0.1516(3) 0.000000 0.0374(15) Uani 0.89 4 d S T P A 1
C2 C 0.2028(3) -0.2028(3) 0.000000 0.0441(18) Uani 0.89 4 d S T P A 1
C3 C 0.2671(3) -0.1855(3) 0.000000 0.073(2) Uani 0.89 2 d S T P A 1
H3 H 0.278904 -0.141300 0.000000 0.087 Uiso 0.89 2 calc RS T P A 1
O1 O 0.0508(3) 0.0508(3) 0.0508(3) 0.0133(19) Uani 0.5 6 d S TU P . 1
O3A O 0.1991(14) -0.0704(15) 0.000000 0.030 Uiso 0.11 2 d S T P A 2
loop_
_atom_site_aniso_label
_atom_site_aniso_U_11
_atom_site_aniso_U_22
_atom_site_aniso_U_33
_atom_site_aniso_U_23
_atom_site_aniso_U_13
_atom_site_aniso_U_12
Zr1 0.0097(3) 0.0147(3) 0.0147(3) 0.000 0.000 0.000
O3 0.037(2) 0.0271(18) 0.0370(19) 0.000 0.000 0.0194(15)
O2 0.018(2) 0.018(2) 0.018(2) -0.007(2) -0.007(2) -0.007(2)
C1 0.035(2) 0.035(2) 0.042(4) 0.000 0.000 0.002(3)
C2 0.035(2) 0.035(2) 0.063(5) 0.000 0.000 0.007(3)
C3 0.039(4) 0.030(3) 0.149(8) 0.000 0.000 0.008(3)
O1 0.0133(19) 0.0133(19) 0.0133(19) -0.0049(19) -0.0049(19) -0.0049(19)
loop_
_atom_type_symbol
_atom_type_description
_atom_type_scat_dispersion_real
_atom_type_scat_dispersion_imag
_atom_type_scat_source
C C 0.0040 0.0020 'International Tables Vol C Tables 4.2.6.8 and 6.1.1.4'
H H 0.0000 0.0000 'International Tables Vol C Tables 4.2.6.8 and 6.1.1.4'
O O 0.0120 0.0060 'International Tables Vol C Tables 4.2.6.8 and 6.1.1.4'
Zr Zr -2.4410 0.6100 'International Tables Vol C Tables 4.2.6.8 and 6.1.1.4'
loop_
_geom_angle_atom_site_label_1
_geom_angle_atom_site_label_2
_geom_angle_atom_site_label_3
_geom_angle
_geom_angle_site_symmetry_1
_geom_angle_site_symmetry_3
O3 Zr1 O3 75.34(10) 7 6
O3 Zr1 O3 75.34(10) 6 5
O3 Zr1 O3 119.6(2) 7 5
O3 Zr1 O3 75.34(10) 7 .
O3 Zr1 O3 75.34(10) 5 .
O3 Zr1 O3 119.6(2) 6 .
O1 Zr1 O3 84.7(2) 99 6
O1 Zr1 O3 84.7(2) 98 .
O1 Zr1 O3 142.12(6) 4 6
O1 Zr1 O3 142.12(6) 98 7
O1 Zr1 O3 142.12(6) 99 .
O1 Zr1 O3 84.7(2) 98 5
O1 Zr1 O3 142.12(6) 98 6
O1 Zr1 O3 84.7(2) 4 7
O1 Zr1 O3 84.7(2) 4 .
O1 Zr1 O3 142.12(6) 99 7
O1 Zr1 O3 142.12(6) . .
O1 Zr1 O3 142.12(6) . 5
O1 Zr1 O3 84.7(2) . 7
O1 Zr1 O3 142.12(6) 4 5
O1 Zr1 O3 84.7(2) 99 5
O1 Zr1 O3 84.7(2) . 6
O1 Zr1 O1 61.4(3) 98 99
O1 Zr1 O1 61.4(3) 98 4
O1 Zr1 O1 61.4(3) 4 .
O1 Zr1 O1 92.4(6) 4 99
O1 Zr1 O1 92.4(6) 98 .
O1 Zr1 O1 61.4(3) 99 .
O1 Zr1 O3A 100.3(7) 98 5
O1 Zr1 O3A 148.92(17) 4 6
O1 Zr1 O3A 100.3(7) 99 6
O1 Zr1 O3A 100.3(7) 99 5
O1 Zr1 O3A 100.3(7) . 6
O1 Zr1 O3A 148.92(17) 98 7
O1 Zr1 O3A 148.92(17) 4 5
O1 Zr1 O3A 100.3(7) 4 7
O1 Zr1 O3A 148.91(17) . 5
O1 Zr1 O3A 100.3(7) . 7
O1 Zr1 O3A 148.92(17) 98 6
O1 Zr1 O3A 148.92(17) 99 7
O3A Zr1 O3 18.2(7) 7 7
O3A Zr1 O3 67.9(3) 5 6
O3A Zr1 O3 67.9(3) . 7
O3A Zr1 O3 67.9(3) 6 7
O3A Zr1 O3 101.3(8) 5 7
O3A Zr1 O3 101.3(8) . 6
O3A Zr1 O3 67.9(3) 7 6
O3A Zr1 O3 18.2(7) 6 6
O3A Zr1 O3A 55.9(9) 7 6
O3A Zr1 O3A 55.9(9) . 7
O3A Zr1 O3A 83.1(16) . 6
C1 O3 Zr1 129.6(4) . .
Zr1 O2 Zr1 101.7(3) 104 2
Zr1 O2 Zr1 101.7(3) . 104
Zr1 O2 Zr1 101.7(3) . 2
O3 C1 O3 130.4(7) 115 .
O3 C1 C2 114.8(3) . .
O3 C1 C2 114.8(3) 115 .
C3 C2 C1 119.9(4) 115 .
C3 C2 C1 119.9(4) . .
C3 C2 C3 120.1(8) . 115
C2 C3 C3 119.9(4) . 91_545
Zr1 O1 Zr1 116.47(17) 104 2
Zr1 O1 Zr1 116.47(17) . 2
Zr1 O1 Zr1 116.47(17) . 104
loop_
_geom_bond_atom_site_label_1
_geom_bond_atom_site_label_2
_geom_bond_distance
_geom_bond_site_symmetry_2
Zr1 O3 2.215(3) 7
Zr1 O3 2.215(3) .
Zr1 O3 2.215(3) 6
Zr1 O3 2.215(3) 5
Zr1 O1 2.064(2) 4
Zr1 O1 2.064(2) 98
Zr1 O1 2.064(2) 99
Zr1 O1 2.064(2) .
Zr1 O3A 2.20(3) 6
Zr1 O3A 2.20(3) .
Zr1 O3A 2.20(3) 5
Zr1 O3A 2.20(3) 7
O3 C1 1.310(5) .
C1 C2 1.504(10) .
C2 C3 1.380(7) 115
C2 C3 1.380(7) .
C3 C3 1.390(11) 91_545
loop_
_platon_squeeze_void_nr
_platon_squeeze_void_average_x
_platon_squeeze_void_average_y
_platon_squeeze_void_average_z
_platon_squeeze_void_volume
_platon_squeeze_void_count_electrons
_platon_squeeze_void_content
1 -0.007 -0.005 0.431 4491 1380 ' '
loop_
_refln_index_h
_refln_index_k
_refln_index_l
_refln_F_squared_meas
_refln_F_squared_sigma
-1 -1 1 886.4 71.46
1 1 -1 971.03 71.39
0 2 0 429.88 33.86
2 0 0 439.38 35.38
0 2 -2 119.25 8.8
0 2 2 96.43 8.53
2 0 -2 125.96 8.71
2 0 2 115.34 8.6
2 2 0 114.13 8.5
0 -2 2 112.3 8.81
0 -2 -2 123.23 8.61
-2 -2 0 100.48 8.46
-2 0 -2 108.51 8.59
-2 0 2 113.94 8.65
-2 -2 2 76.2 5.99
-2 -2 -2 61.87 5.69
2 2 -2 74.66 5.93
2 -2 2 88.25 5.98
-2 2 -2 76.03 5.89
-2 2 2 61.33 5.6
2 -2 -2 77.18 5.72
3 -1 -1 13.08 1.24
1 3 1 16.15 1.43
-1 3 -1 11.61 1.44
-1 3 1 13.5 1.31
1 -3 -1 11.47 1.28
-3 -1 -1 14.67 1.29
-3 -1 1 11.62 1.43
-3 1 -1 11.55 1.3
-1 -3 -1 14.98 1.43
-1 -3 1 12.79 1.6
-1 -1 -3 10.09 1.53
1 -1 -3 15.66 1.79
1 -1 3 12.84 1.88
1 1 -3 13.98 1.79
1 -3 1 14.66 1.58
1 3 -1 11.96 1.52
-1 1 3 11.26 1.67
1 1 3 13.37 1.56
-1 -1 3 13.49 1.98
-1 1 -3 14.52 1.95
3 -1 1 14.84 1.31
3 1 -1 14.09 1.38
3 -1 3 30.33 3.16
3 1 -3 34 3.35
3 -3 -1 33.72 2.82
3 -3 1 28.88 2.95
-1 -3 -3 36.61 3.23
-1 -3 3 34.42 3.57
-3 1 -3 36.04 3.37
-3 1 3 30.77 3.09
1 -3 3 32.97 3.38
-3 -3 -1 39.01 2.97
-3 -1 -3 31.14 3.13
-3 -1 3 37.07 3.52
-1 3 3 33.22 3.1
1 -3 -3 38.74 3.17
3 1 3 39.2 3.15
3 3 -1 30.68 3.05
3 3 1 34.96 2.93
1 3 -3 32.3 3.44
1 3 3 40.89 3.22
3 -3 3 93.16 6.73
3 -3 -3 81.03 6.33
-3 -3 -3 80.82 6.4
-3 -3 3 75.52 6.69
-3 3 -3 68.91 6.48
-3 3 3 65.25 6.14
3 3 3 87.95 6.37
3 3 -3 78.9 6.6
0 0 -4 207.95 17.52
0 0 4 252.57 17.65
-4 0 -2 40.43 3.37
-4 0 2 35.2 3.42
-2 -4 0 39.24 3.49
-2 4 0 37.83 3.31
0 -2 -4 44.04 3.73
0 -2 4 45.58 4.14
0 2 -4 37.15 3.98
0 2 4 33.5 3.51
2 0 -4 43.22 3.97
2 0 4 46.62 3.87
2 -4 0 42.56 3.39
2 4 0 41.79 3.48
4 0 -2 40.51 3.45
4 0 2 34.76 3.23
-4 -2 0 43.4 3.33
-2 0 -4 35.75 3.81
0 -4 -2 44.91 3.41
0 -4 2 34.17 3.69
0 4 -2 38.91 3.67
4 2 0 39.76 3.24
4 -2 0 38.53 3.05
-4 -2 2 44.67 4.4
-4 2 -2 55.39 4.33
-4 2 2 53.48 4.07
-2 -4 -2 59.25 4.33
-2 -4 -2 53.45 4.41
-2 -4 2 50.05 4.56
-2 -2 -4 54.33 4.65
-2 -2 4 52.8 4.92
-2 2 -4 46.25 4.76
-2 2 4 42.92 4.41
-2 4 -2 52.54 4.47
2 -4 -2 44.58 4.12
2 -4 -2 52.35 4.25
2 -4 2 57.82 4.62
2 -2 -4 47.86 4.54
2 -2 4 59.64 4.93
2 2 -4 51.35 4.88
2 2 4 43.63 4.37
2 4 -2 56.32 4.58
4 -2 -2 48.58 4.15
4 -2 2 54.09 4.34
4 2 -2 53.34 4.39
-4 4 0 101.2 7.32
0 -4 -4 80.44 7.63
0 -4 4 99.24 8.28
0 4 -4 94.81 8.08
0 4 4 84.58 7.64
-4 -4 0 81.41 7.53
-4 0 -4 98.33 7.92
-4 0 4 88.29 7.82
4 4 0 104.4 7.56
4 -4 0 108.2 7.45
4 0 -4 100.87 7.96
4 0 4 109.24 7.79
-4 2 4 214.49 17.01
-4 4 -2 189.83 16.89
-2 -4 -4 253.51 17.27
-2 -4 4 225.07 17.6
-2 4 -4 222.77 17.42
-2 4 4 209.54 17.03
2 -4 -4 206.34 17.1
2 -4 4 260.09 17.66
2 4 -4 221.76 17.47
4 4 -2 207.18 17.06
4 -4 2 245.55 17.18
4 -2 -4 230.11 17.25
4 -2 4 228.57 17.29
4 2 -4 213.72 17.34
4 -4 -2 248.3 16.93
-4 -4 -2 249.81 17.11
2 4 4 218.32 17.05
-4 2 -4 263.79 17.46
-4 -4 2 224.35 17.28
-4 -2 -4 201.65 17.11
-4 -2 4 232.29 17.51
-4 -4 -2 200.06 16.86
-4 4 4 329.95 26.08
4 4 -4 362.62 26.63
-4 4 -4 332.94 26.44
4 -4 4 342.43 26.57
-4 -4 -4 390.02 26.41
-4 -4 4 343.56 26.73
-5 -1 -1 75.77 6.12
-1 -5 -1 90.39 6.46
-1 -5 1 79.62 6.51
-1 -1 -5 72.37 6.76
-1 -1 5 76.24 6.86
-1 1 -5 69.25 6.78
-1 1 5 70.55 6.67
-1 5 -1 84.02 6.46
-1 5 1 70.47 6.24
1 -5 -1 79.64 6.32
1 -5 1 80.41 6.5
1 -1 -5 75.42 6.83
1 -1 5 73.58 6.88
1 1 -5 81.96 7.04
1 1 5 93 6.88
1 5 -1 80.62 6.48
1 5 1 82.65 6.34
5 -1 -1 88.99 6.03
5 1 -1 77.02 6.12
5 1 -3 41.05 3.7
-5 1 3 37.02 3.58
-1 3 5 35.18 3.7
-5 -3 1 42.84 3.69
-5 3 -1 43.52 3.27
-3 1 -5 39.07 4.13
-3 -1 5 40.51 4.18
-3 5 1 34.36 3.34
1 3 -5 36.53 4.23
1 -3 5 45.24 4.4
1 -5 -3 30.31 3.54
3 1 5 45.62 3.98
3 5 -1 37.84 3.59
3 -1 -5 46.3 4.25
-5 -1 -3 40.61 3.83
-1 -5 3 42.8 4.06
-3 -5 -1 44.99 3.7
5 -3 -1 39.05 3.14
3 -5 1 37.52 3.62
5 -3 -1 48.13 3.25
-1 5 -3 36.27 3.84
5 -3 1 39 3.4
-3 -1 -5 41.09 4.05
-1 -3 5 41.93 4.41
3 5 1 43.08 3.58
3 -5 -1 32.7 3.38
1 -5 3 41.78 4.13
1 5 -3 38.41 3.87
-3 1 5 45.47 4.04
3 -1 5 34.98 3.94
3 1 -5 43.5 4.28
5 -1 -3 41.82 3.7
1 3 5 48.55 3.94
-1 -5 -3 37.89 3.48
-1 -5 -3 45.65 3.71
-1 3 -5 38.1 4.24
5 3 -1 44.6 3.54
-5 1 -3 40.67 3.69
5 1 3 38.43 3.47
-5 -3 -1 37.15 3.43
-3 -5 1 38.53 3.77
-3 5 -1 46.01 3.6
1 -3 -5 38.48 3.92
-3 -3 5 83.32 7.45
-3 3 -5 72.16 7.15
-3 3 5 90.11 6.95
-3 5 -3 75.06 6.88
3 -5 -3 82.42 6.73
3 -5 3 86.84 7.17
3 -3 -5 87.19 7.07
3 -3 5 78.47 7.26
3 3 -5 86.38 7.31
3 3 5 70.11 6.8
3 5 -3 88.17 7.09
5 -3 -3 84.36 6.68
-3 -5 -3 91.64 6.91
-5 3 3 72.36 6.45
-3 -5 -3 89.71 6.74
-5 -3 3 84.8 7.1
-5 3 -3 69.39 6.72
5 -3 3 85.45 6.89
5 3 -3 93.34 7
-3 -5 3 82.14 7.23
-5 -3 -3 96.56 6.86
-5 -1 -5 143.71 11.09
-5 -1 5 101.86 9.44
-5 -5 -1 100.32 8.92
-5 -5 1 112.3 9.17
1 -5 5 122.55 9.82
1 5 -5 103.32 9.54
1 5 5 125.73 9.19
5 -1 -5 111.03 9.37
5 1 -5 108.98 9.39
5 1 5 94.02 8.99
5 5 -1 120.14 9.04
5 5 1 116.82 8.95
-1 -5 -5 93.26 9.1
-1 -5 5 120.47 9.87
-1 5 -5 111.48 9.58
-1 5 5 129.3 9.22
1 -5 -5 107.89 9.2
5 -5 -1 113.47 8.72
-5 1 5 123.12 9.34
-5 5 -1 118.47 8.77
-5 1 -5 132.16 9.56
3 -5 -5 199.13 16.64
-3 5 -5 214.54 17
-3 5 5 245.65 16.64
-5 -5 3 220.42 16.98
-5 -3 -5 216.55 16.74
-5 -3 5 204.31 17.06
-5 3 -5 179.87 16.73
-5 3 5 247.21 16.64
-5 5 -3 226.61 16.6
-3 -5 -5 198.26 16.66
-3 -5 5 215.39 17.25
-5 -5 -3 178.74 16.33
-5 -5 -3 203.29 16.52
5 5 -3 223.66 16.72
5 -3 5 255.54 17.07
5 3 -5 218.72 16.98
5 -5 3 232.63 16.84
5 -3 -5 227.87 16.81
5 -5 -3 207.1 16.35
3 -5 5 208.08 17.11
3 5 -5 228.04 17.13
-5 -5 5 853.73 65.09
-5 5 -5 866.52 64.71
5 -5 5 898.4 64.91
0 6 0 1000 72.29
-6 0 0 780.12 75.63
2 6 0 0.32 0.48
6 0 -2 0.26 0.43
6 0 2 0.54 0.44
2 -6 0 0.96 0.65
-6 0 -2 0.32 0.56
-6 0 2 0.44 0.63
-2 -6 0 -0.02 0.58
-2 6 0 0.31 0.53
0 -2 -6 -0.34 0.69
0 -2 6 0.61 0.97
0 2 -6 1.09 1.24
0 2 6 0.3 0.97
2 0 -6 0.44 0.89
2 0 6 -0.54 0.85
6 2 0 0.1 0.36
-6 -2 0 0.53 0.5
-2 0 -6 0.5 1.22
-2 0 6 1.26 1.2
0 -6 -2 0.14 0.53
0 -6 2 0.77 0.88
0 6 -2 -0.02 0.72
0 6 2 1.04 0.57
2 -2 -6 19.06 2.73
2 -2 6 18.49 2.78
2 2 -6 16.82 2.84
2 2 6 20.07 2.53
2 6 -2 20.11 2.36
2 6 2 16.35 1.94
6 -2 -2 17.61 1.77
6 -2 2 14.35 1.74
6 2 -2 18.32 1.92
-6 -2 -2 19.66 1.95
-6 -2 2 18.04 2.17
2 -6 2 19.39 2.36
-6 2 -2 18.19 1.83
-6 2 2 18.03 1.59
-2 -6 -2 16.27 1.98
-2 -2 -6 19.11 2.66
-2 -2 6 18.69 2.95
-2 2 -6 18.35 2.6
-2 2 6 19.94 2.53
-2 6 -2 15.28 2.05
2 -6 -2 20.43 1.95
-6 -2 -2 13.53 1.68
-2 -6 2 17.88 2.48
4 6 0 5.21 1.14
6 0 -4 5.51 1.22
6 0 4 8.16 1.33
0 4 6 6.68 1.47
4 -6 0 5.12 1.12
0 4 -6 4.55 1.56
-4 -6 0 6.21 1.3
-4 6 0 8.15 1.13
0 -4 -6 7.68 1.73
0 -4 6 7.53 1.82
-6 0 -4 6.66 1.38
-6 0 4 5.52 1.34
4 0 -6 6.67 1.87
4 0 6 5.48 1.45
6 -4 0 7.27 0.98
6 4 0 10.11 1.19
0 6 -4 6.01 1.41
0 -6 -4 6.81 1.56
0 -6 4 6.99 1.91
-6 -4 0 7.79 1.29
-6 4 0 6.37 0.76
-4 0 -6 6.37 1.75
-4 0 6 6.38 1.59
-2 -4 -6 63.8 5.04
4 6 -2 51.65 4.62
-6 -2 -4 46.34 4.45
-6 -4 2 50.5 4.71
-6 4 -2 58.86 4.3
-2 4 6 42.62 4.49
-4 -2 6 49.45 5.12
-4 2 -6 46.4 4.98
2 4 -6 49.59 5.13
6 -2 4 54.49 4.56
-2 -6 4 52.26 5.14
-2 6 -4 52.65 4.88
2 -6 -4 47.79 4.5
4 -6 2 44.97 4.56
2 -4 6 57.34 5.36
4 -2 -6 52.02 4.95
-4 -6 -2 48.3 4.39
-6 2 4 50.24 4.34
4 2 6 57.68 4.8
6 -4 -2 47.53 3.96
6 -4 -2 52.03 4.14
6 2 -4 51.3 4.72
4 2 -6 50.68 5.09
-6 -4 -2 43.68 4.3
2 -6 4 53.33 5.07
-6 -4 -2 46.2 4.23
6 -4 2 51.96 4.4
4 -2 6 63.68 5.19
-4 -6 2 41.43 4.67
-4 6 -2 48.95 4.39
-2 -4 6 56.95 5.33
-2 4 -6 57.46 5.3
-4 -2 -6 49.65 4.88
2 6 -4 54.26 4.95
-2 -6 -4 50.77 4.41
2 4 6 54.39 4.67
4 -6 -2 56.47 4.26
4 -6 -2 39.57 4.17
-2 -6 -4 58.94 4.75
4 6 2 43.62 4.27
6 -2 -4 45.64 4.49
6 2 4 44.7 4.31
-6 -2 4 48.93 4.83
-6 2 -4 48.95 4.61
-6 -4 4 225.02 18.14
-6 -4 -4 240.57 17.77
4 -6 -4 215.97 17.6
4 -6 4 239.65 18.2
4 -4 6 225.97 18.27
4 4 -6 236.6 18.31
4 4 6 275.53 18.03
4 6 -4 214.97 18.33
6 -4 -4 254.57 17.7
6 -4 4 202.8 17.76
-4 -4 6 229.66 18.45
-4 4 -6 240.64 18.32
-4 4 6 217.2 17.65
-4 6 -4 201.02 17.78
-4 -4 -6 252.15 18.1
-4 -6 -4 221.89 17.8
-4 -6 4 214.07 18.24
-6 4 4 236.51 17.44
-4 -6 -4 219.89 17.58
-6 4 -4 260.85 17.91
-6 -6 0 22.39 2.58
0 -6 6 21.85 3.33
6 0 -6 23.01 2.92
6 0 6 24.07 2.68
6 -6 0 20.45 2.23
6 6 0 20.34 2.27
-6 0 -6 24.85 2.96
-6 0 6 20.1 2.82
0 6 6 27.4 2.68
-6 6 0 18.77 2.01
-2 6 6 4.45 1.21
-2 -6 6 2.05 1.44
6 -2 -6 3.07 1.34
6 -2 6 3.11 1.16
6 2 -6 3.08 1.33
6 2 6 2.58 1.02
6 6 -2 2.85 0.96
6 -6 -2 4.1 0.89
6 -6 2 3.34 1.05
6 -6 -2 3.17 0.7
-6 -6 -2 2.2 0.93
-6 -6 2 3.41 1.17
-6 -2 -6 3.05 1.4
-6 -2 6 4.24 1.58
-6 2 -6 2.92 1.43
-6 2 6 2.5 1.06
-6 6 -2 1.98 0.81
2 6 6 2.74 1
2 -6 6 4.16 1.58
6 4 6 266.44 20.81
6 -4 6 229.42 21.07
6 -4 -6 321.87 21.31
-6 -6 -4 302.31 20.85
-6 -4 6 268.41 21.55
-6 4 -6 317.2 21.48
-6 4 6 282.42 20.78
-6 6 -4 246.64 20.83
-4 -6 -6 322.2 21.3
-4 -6 6 269.5 21.72
-4 6 -6 315.32 21.58
-4 6 6 279.26 20.82
4 -6 -6 253.84 21.04
4 -6 6 248.56 21.43
4 6 -6 270.78 21.45
4 6 6 240.06 20.82
6 -6 -4 260.56 20.73
6 -6 4 237.27 21
6 6 -6 360.96 26.14
-6 -6 -6 309.31 25.71
-6 6 -6 361.47 26.08
-6 6 6 353.18 25.45
6 -6 -6 316.8 26.33
6 -6 6 319.89 26.1
-1 -7 -1 222.71 15.99
-7 -1 -1 201.51 15.44
-7 -1 -1 219.15 15.51
-7 -1 1 209.26 15.66
1 -7 -1 207.91 15.88
1 -7 1 225.42 16.16
1 -1 -7 200.18 16.52
1 -1 7 234.96 16.66
1 1 -7 209.48 16.69
1 1 7 188.26 16.27
1 7 -1 212.87 15.99
1 7 1 230.67 15.93
7 -1 -1 205.26 15.2
7 1 -1 206.36 15.44
-1 -1 -7 245.73 16.76
-1 -1 7 191.67 16.46
-1 1 -7 211.31 16.7
-1 1 7 184.68 16.28
-1 7 -1 173.11 15.78
-1 7 1 183.07 15.72
-1 -7 1 213.35 16.14
-3 7 1 0.41 0.49
1 -7 -3 0.2 0.53
7 1 -3 0.16 0.5
-1 3 7 1.67 1.05
3 1 7 0.99 1.05
7 -3 -1 0.47 0.23
7 -3 -1 0.53 0.32
-3 1 -7 0.62 1.18
3 -7 1 0.16 0.61
-7 3 -1 0.47 0.25
-7 1 3 1.03 0.62
-3 -7 -1 0.76 0.69
3 -1 -7 0.43 1.12
-7 -1 -3 0.16 0.56
1 -3 7 -0.39 1.06
1 3 -7 0.21 1.11
-1 -7 3 -0.58 0.81
-1 7 -3 -0.05 0.7
1 -7 -3 0.33 0.52
3 7 -1 0.27 0.47
7 -1 3 0.66 0.52
-3 -1 7 -0.04 0.77
-7 -3 1 1.13 0.68
-1 -3 -7 0.5 0.91
7 3 -1 0.53 0.5
7 -3 1 0.24 0.34
-3 1 7 0.67 0.81
-7 -1 3 0.97 0.8
-7 1 -3 -0.31 0.54
3 7 1 0.66 0.49
7 -1 -3 0.27 0.64
-3 -7 1 0.4 0.78
-3 7 -1 -0.01 0.63
-1 -3 7 -1.07 0.76
-1 3 -7 1.02 1.1
3 1 -7 -0.71 1
1 -3 -7 0.68 1.14
-1 -7 -3 -0.01 0.56
-1 -7 -3 0 0.69
1 3 7 0.18 0.84
3 -7 -1 0.73 0.64
-3 -1 -7 -0.03 0.89
1 7 -3 1.32 0.74
-7 -3 -1 0.07 0.47
3 -1 7 0.52 0.96
7 1 3 0.78 0.5
1 -7 3 0.83 0.97
3 -3 -7 7.6 1.79
3 -3 7 9.79 2.22
3 3 -7 6.77 1.79
3 3 7 6.92 1.48
7 -3 -3 7.44 1.25
7 -3 3 5.46 1.11
7 3 -3 9.73 1.45
-7 3 3 8.05 1.03
-3 -7 -3 6.98 1.2
-7 3 -3 6.67 1.32
-7 -3 -3 5.88 1.21
-7 -3 3 6.22 1.35
-7 -3 -3 6.84 1.07
-3 -3 7 8.46 2.13
-3 3 -7 5.19 1.74
-3 3 7 8.59 1.82
3 -7 -3 9.72 1.25
3 -7 -3 7.31 1.32
3 -7 3 6.19 1.54
-3 -3 -7 5.82 1.79
-3 -7 3 4.03 1.39
5 -1 -7 6.88 1.8
-5 -7 -1 10.55 1.6
7 -1 5 8.84 1.51
-7 -1 -5 9.93 1.81
-5 1 -7 7.43 1.88
-5 7 1 7.49 1.13
7 -5 -1 8.22 1.07
5 1 7 6.14 1.5
7 -5 -1 7.11 0.97
7 1 -5 6.54 1.53
5 -7 1 7.23 1.46
-7 1 5 7.5 1.55
-7 -5 1 5.87 1.29
-5 -1 7 6.26 1.77
-1 -7 5 4.49 1.73
-7 5 -1 8.42 1.01
1 -5 7 7.22 2.11
7 5 1 9.57 1.28
-1 5 7 8.74 1.71
-5 -7 1 5.51 1.35
1 5 7 6.24 1.41
5 1 -7 10.07 2.26
-7 1 -5 6.36 1.45
7 1 5 9.89 1.42
-1 -5 7 10.28 2.44
-7 -1 5 8.38 1.82
7 5 -1 9.03 1.35
5 -7 -1 7.34 1.23
7 -1 -5 10.82 1.89
-5 1 7 6.45 1.65
7 -5 1 7.54 1.24
1 -7 5 5.46 1.85
-5 7 -1 7.94 1.27
-7 -5 -1 8.31 1.36
-7 3 5 34.2 3.19
7 3 -5 33.63 3.56
7 -3 5 37.74 3.56
5 -3 -7 28.9 3.66
5 -7 3 28.55 3.44
-5 -3 7 29.79 3.98
3 -7 -5 31.42 3.41
3 -5 7 34.93 4.23
3 5 -7 40.12 4.64
-3 -5 -7 36.98 3.85
-7 5 -3 34.52 3.16
-7 -3 -5 27.94 3.31
-5 3 -7 37.94 4.12
7 -5 -3 32.64 3.08
7 -5 -3 30.76 2.78
-7 -5 3 29.61 3.56
-3 -7 5 29.04 3.84
5 3 7 27.15 3.26
-5 -7 -3 28.64 3.15
-5 7 -3 35.43 3.36
3 7 -5 33.01 3.77
3 5 7 36.73 3.64
5 -3 7 28.38 3.74
-5 -7 3 29.99 3.73
5 -7 -3 36.46 3.09
7 -5 3 30.71 3.36
7 5 -3 35.26 3.41
5 -7 -3 31.26 3.17
-7 3 -5 39.55 3.74
-3 -7 -5 28.72 3.12
7 -3 -5 36.73 3.51
-7 -3 5 29.28 3.67
7 3 5 40.82 3.38
3 -7 5 35.21 4.05
-7 -5 -3 32.39 3.12
-7 -5 -3 33.71 3.26
-3 -7 -5 38.57 3.72
-3 -5 7 35.99 4.33
-5 3 7 26.52 3.4
-5 -5 7 241.17 19.38
-5 -5 -7 201.95 18.65
-5 -7 5 237.04 19.23
-7 -5 5 233.86 19.12
-7 5 5 211.67 18.11
-5 -7 -5 225.86 18.64
7 -5 -5 245.52 18.51
7 -5 5 219.83 18.69
5 5 7 243.44 18.58
-5 5 7 254.32 18.56
-5 7 -5 249.16 18.83
5 -7 -5 252.23 18.56
5 -7 5 252.98 19.1
5 -5 -7 262.41 19.05
5 -5 7 267.07 19.38
5 5 -7 237.4 19.14
5 7 -5 254.4 18.95
7 -7 -1 279.9 22.92
1 7 -7 291.79 23.93
1 7 7 351.49 23.54
-7 -7 -1 295.04 23.28
-7 -7 1 295.28 23.43
-7 -1 -7 276.95 23.6
-7 -1 7 289.05 23.71
-7 1 -7 360.72 24.06
-7 1 7 273.81 23.41
-7 7 -1 287.04 22.78
-1 -7 7 305.76 24.26
-1 7 -7 311.99 24
-1 7 7 337.88 23.44
1 -7 -7 334.43 23.76
1 -7 7 314.99 24.23
7 1 7 273.42 23.26
7 1 -7 311.3 23.83
7 -7 1 320.94 23.22
7 -1 -7 312.29 23.78
-3 7 7 37.73 3.89
3 -7 7 44.38 4.91
7 -3 -7 47.78 5.44
7 -3 7 32.92 4.2
7 3 7 44.4 4.09
7 7 -3 38.47 3.98
-7 3 -7 43.31 4.6
-7 3 7 43.84 4.13
-7 7 -3 33.9 3.66
-3 -7 -7 32.49 3.98
-3 -7 7 41.89 4.97
7 -7 -3 36.76 3.46
7 -7 -3 40.83 3.7
7 -7 3 36.16 4.03
-7 -7 -3 38.89 3.8
-7 -7 -3 46.02 4.09
-7 -7 3 46.96 4.59
-7 -3 7 40.5 4.68
3 7 -7 42.05 4.6
3 7 7 44.32 4.06
7 5 7 3.4 1.13
7 7 -5 2.91 1.28
-7 -5 7 1.62 1.29
-5 -7 7 1.58 1.26
-5 7 -7 2.74 1.27
-5 7 7 0.81 0.72
5 -7 7 0.61 1.07
5 7 -7 3.3 1.44
5 7 7 3.83 1.36
-7 -7 5 2.86 1.45
-7 -5 -7 1.15 0.99
7 -7 5 2.95 1.41
-7 -7 -5 1.75 0.85
-7 -7 -5 2.28 1.13
-5 -7 -7 0.43 0.99
-7 5 -7 3.72 1.46
-7 5 7 2.04 0.89
-7 7 -5 2.14 0.96
7 5 -7 1.94 1.13
7 -5 7 1 1.09
-7 -7 7 115.86 10.72
-7 7 -7 105 10.63
7 7 -7 119.66 10.27
-7 7 7 132.4 9.67
7 -7 7 106.86 10.24
-8 0 0 365.04 26.01
0 -8 0 349.71 26.72
0 0 8 342.3 27.15
-8 0 -2 33.16 2.95
-8 -2 0 30.11 2.94
-2 0 8 26.75 3.82
0 -8 -2 33.86 3.26
-8 0 -2 36.09 2.73
0 -8 2 33.93 3.68
2 0 8 33.73 3.91
8 2 0 35.45 2.86
2 -8 0 33.65 3.41
-2 -8 0 29.93 3.34
-2 8 0 31.25 3.15
0 -2 8 33.76 4.09
0 2 8 35.47 3.8
-8 0 2 31.88 3.01
8 0 -2 33.1 2.79
-2 -2 8 35.38 4.27
-8 2 -2 34.92 2.97
-2 8 -2 37.21 3.54
-2 -8 -2 34.76 3.48
-2 -8 2 36.11 3.86
2 2 8 31.13 3.68
8 -2 -2 37.57 2.86
-2 8 2 34.98 3.26
2 -8 -2 31.96 3.3
-2 2 8 37.94 4.01
8 2 -2 37.13 3.16
-8 -2 -2 31.12 3.1
-8 -2 2 34.91 3.42
2 -2 8 41.59 4.37
8 -2 2 33.21 2.8
-8 -2 -2 32.34 2.97
2 -8 2 36.35 3.78
-8 2 2 34.32 2.73
-4 -8 0 -0.08 0.74
-4 8 0 -0.28 0.4
8 -4 0 0.1 0.3
8 -4 0 0.08 0.19
8 4 0 0.38 0.46
0 -8 4 -0.16 1.03
4 0 8 1.19 1.12
0 -4 8 0.38 1.1
0 4 8 -0.06 0.86
8 0 -4 -0.17 0.5
0 -8 -4 -0.24 0.44
-8 -4 0 -0.03 0.59
-4 0 8 -0.13 1.07
-8 0 -4 -0.15 0.72
-8 0 4 0.2 0.78
8 0 4 0.3 0.56
4 -8 0 -0.09 0.5
4 -8 2 0.46 0.9
4 8 -2 1.46 0.82
-4 -8 -2 2.07 0.9
-2 -8 4 -0.44 0.93
-2 -4 -8 0.2 1.12
-2 4 8 -0.52 0.75
-8 4 -2 1.05 0.44
8 2 -4 1.45 0.78
8 -2 4 0.89 0.61
4 2 8 1.24 1.03
8 -4 -2 0.84 0.29
8 -4 -2 1.39 0.52
2 4 -8 1.21 1.28
-8 -4 2 1.62 1.07
2 -8 -4 1.23 0.75
-8 2 4 0.42 0.56
2 -4 8 1.44 1.54
-8 -2 -4 0.76 0.73
-4 -2 8 0.12 1.21
-2 -4 8 1.35 1.2
-8 -2 4 2.15 0.97
8 4 -2 1.29 0.7
-8 -4 -2 0.65 0.56
2 4 8 1.66 0.97
8 2 4 0.94 0.54
-8 -4 -2 1.26 0.68
8 -4 2 1.44 0.63
-4 -8 2 2.44 1.28
8 -2 -4 1.86 0.79
-8 2 -4 0.65 0.74
-4 2 8 0.04 1.03
-2 -8 -4 0.37 0.52
-2 -8 -4 -0.39 0.65
-4 8 -2 0.11 0.63
2 -8 4 0.26 0.94
2 8 -4 1.22 0.81
4 -2 8 0.49 1.14
4 8 2 1.3 0.61
4 -8 -2 0.58 0.63
-8 4 -4 37.1 3.78
-4 -8 -4 35.66 3.77
-4 8 -4 41.81 4.42
4 -8 -4 33.72 3.58
4 -8 -4 41.06 3.94
4 -8 4 41.54 4.38
-8 4 4 38.67 3.41
4 4 -8 44.03 4.82
-4 -4 8 44.18 4.95
-4 4 8 36.27 4.02
-8 -4 -4 40.63 3.6
-8 -4 4 38.98 4.26
4 4 8 42.24 4.07
4 8 -4 37.59 4.07
8 -4 -4 37.37 3.69
-4 -8 -4 37.86 3.97
-4 -8 4 38.82 4.37
-4 -4 -8 48.8 4.64
4 -4 8 43.2 4.82
8 4 -4 40.26 3.92
8 -4 4 42.55 3.91
0 -6 -8 293.96 21.42
-8 -6 0 281.47 20.86
-8 0 -6 224.47 20.84
-8 0 6 270.88 21.03
-6 -8 0 254.63 20.95
0 6 8 294.14 21.11
8 -6 0 255.44 20.36
8 0 6 315.69 20.89
-8 6 0 278.42 20.12
-6 0 8 274.11 21.33
-6 8 0 264.38 20.41
8 6 0 262.47 20.58
0 -6 8 249.2 21.68
0 6 -8 274.45 21.65
8 0 -6 272.94 21.09
0 8 -6 263.76 21.28
6 -8 0 257.86 20.63
0 -8 -6 249.84 20.93
0 -8 6 275.09 21.73
6 8 0 282.79 20.71
6 0 8 308.57 21.22
8 -2 6 143.98 12.64
-2 8 -6 162.28 13.21
-6 -8 -2 168.88 12.77
-2 -8 6 156.63 13.56
-2 -6 -8 171.63 13.34
-2 6 8 181.75 13.03
6 2 8 151.66 12.86
8 -6 -2 151.2 12.18
2 -8 -6 181.37 13.03
-8 2 6 164.3 12.71
8 -6 -2 165.37 12.15
8 2 -6 149.07 12.91
-8 -2 -6 135.76 12.76
2 -6 8 161.01 13.64
-6 -2 8 171.21 13.55
-8 6 -2 165.14 12.22
6 -8 2 168.05 12.92
-8 -6 2 157.17 12.92
2 6 -8 161.97 13.49
6 8 -2 143.11 12.6
2 8 -6 155.72 13.24
6 -2 8 158.63 13.11
8 -2 -6 166.87 12.98
-2 -8 -6 156.61 12.94
-2 -6 8 141.57 13.54
-2 6 -8 147.3 13.38
-8 -6 -2 168.02 12.63
-6 -8 2 154.3 13.05
6 8 2 139.89 12.47
-6 -2 -8 196.19 14.3
-8 -2 6 152.28 13.1
6 -8 -2 162.41 12.43
2 -8 6 168.32 13.65
2 -6 -8 131.58 12.89
6 -8 -2 176.2 12.5
8 -6 2 160.46 12.57
-6 2 8 166.76 13.05
-8 2 -6 191.86 13.25
-6 8 -2 153.76 12.44
4 6 -8 -0.89 0.74
6 4 8 0.2 0.61
-8 4 6 0.97 0.67
6 -8 4 -0.01 0.7
-4 8 -6 0.33 0.87
4 -8 -6 0.59 0.72
8 -6 -4 0.29 0.32
8 -6 -4 0.12 0.6
-4 -6 -8 0.79 1.05
8 -4 6 -0.24 0.74
-4 6 8 0.21 0.74
-6 -8 -4 0.55 0.65
-6 -8 -4 0.27 0.58
-4 -8 6 0.89 1.25
-8 6 -4 0.48 0.6
-8 -6 4 0.24 0.83
4 -6 8 -0.32 1.2
6 8 -4 0.62 0.81
-6 -4 8 0.04 1.19
-6 -4 -8 1.11 1
-4 -8 -6 0.27 0.42
4 6 8 1.12 0.81
6 -8 -4 0.65 0.47
-8 -6 -4 -0.02 0.55
-8 -4 6 0.99 1.12
-8 4 -6 1.3 1.02
6 4 -8 1.04 0.9
8 -4 -6 -0.62 0.77
-6 4 8 0.26 0.77
8 4 6 -0.11 0.64
8 -6 4 0.57 0.87
4 8 -6 0.81 0.92
6 -4 8 1.09 1.28
-4 -6 8 1.27 1.42
-4 6 -8 -1.09 0.81
4 -6 -8 -0.27 0.72
-6 8 -4 -0.75 0.49
4 -8 6 0.98 1.11
-8 -6 -4 0.45 0.84
-6 -8 4 -0.46 0.73
-4 -8 -6 0.04 0.85
-6 6 -8 21.16 3.18
-6 8 -6 21.31 3.25
6 -8 6 22.03 3.21
6 -6 8 22.22 3.34
-6 6 8 22.81 2.74
-6 -6 -8 25.56 3.3
-6 -6 8 21.4 3.57
-6 -8 -6 23.74 2.96
-6 -8 6 21.91 3.44
-8 -6 -6 22.24 2.48
-8 -6 -6 16.62 2.59
-8 -6 6 20.95 3.32
-8 6 -6 15.59 2.63
-8 6 6 22.33 2.38
-6 -8 -6 20.44 2.54
6 6 8 23.74 2.82
6 8 -6 20.27 2.88
8 -6 6 21.29 3.06
8 6 -6 19.86 2.79
6 6 -8 23.12 3.13
-8 -8 0 329.78 22.99
-8 8 0 281.49 22.1
0 -8 -8 315.88 23.21
0 -8 8 274.21 23.57
0 8 -8 284.55 23.38
8 -8 0 258.07 22.37
8 0 8 318.52 22.92
8 8 0 308.68 22.59
-8 0 8 295.66 23.1
-8 -2 8 245.73 20.25
-8 -2 -8 278.95 20.26
-2 -8 -8 222.09 19.9
-2 -8 8 247.73 20.69
-2 8 -8 250.39 20.34
-2 8 8 275.59 19.8
2 -8 -8 231.12 19.91
2 -8 8 266.6 20.8
2 8 -8 253.8 20.38
2 8 8 237.86 19.64
8 -8 -2 274.61 19.28
8 -8 -2 246.5 19.21
8 -8 2 274.01 19.76
8 -2 8 273.64 19.97
8 2 8 286.09 19.81
8 8 -2 255.63 19.6
-8 2 8 224.36 19.66
-8 8 -2 218.12 19.08
-8 -8 -2 270.26 19.69
-8 -8 2 246.98 20.01
8 -8 -4 43.19 3.56
8 -8 4 33.04 4.06
8 -4 8 38.5 4.39
8 4 -8 35.93 4.4
8 4 8 41.2 4.02
8 8 -4 35.95 3.96
4 -8 8 34.46 4.66
4 8 -8 37.81 4.52
4 8 8 46.16 4.29
-4 -8 8 35.05 4.83
-4 8 -8 41.17 4.57
-4 8 8 33.95 3.85
4 -8 -8 38.75 4.3
-8 8 -4 31.65 3.65
-4 -8 -8 40.09 4.36
-8 -4 8 35.5 4.6
-8 4 8 40.98 4
-8 -8 4 34.89 4.4
-8 -4 -8 44.64 4.51
-8 -8 -4 40.97 4.02
-8 6 8 118.32 11.31
-8 -8 -6 147.81 11.58
-8 -6 8 130.3 12.46
-8 6 -8 165.82 12.41
8 8 -6 130.78 11.77
-8 -6 -8 122.76 11.84
8 6 -8 146.78 12.25
8 6 8 170.21 11.88
8 -8 6 146.3 12.24
8 -6 8 113.91 11.88
-6 8 8 122.49 11.37
6 -8 8 163.29 12.73
6 8 -8 152.36 12.31
8 -8 -6 147.67 11.2
-6 -8 8 145.03 12.81
-6 8 -8 151.36 12.27
-8 -8 -6 147.6 11.89
-8 -8 6 158.57 12.74
-8 8 -8 253.43 18.16
-8 8 8 243.27 17.32
-8 -8 -8 214.42 17.84
-8 -8 8 208.97 18.49
-8 -8 -8 203.12 17.22
8 8 -8 204.7 17.88
8 -8 8 219.47 18.26
1 9 -1 119.05 9.54
1 9 1 112.14 9.34
9 1 -1 118.62 8.81
1 -9 1 111.65 9.65
1 -1 -9 122.63 10.47
1 -1 9 111.54 10.2
1 1 -9 122.26 10.49
-9 -1 -1 101.83 8.85
-9 -1 -1 113.27 8.91
-9 -1 1 120.97 9.13
-1 -9 -1 124.54 9.62
-1 -9 1 106.85 9.64
-1 -1 -9 105.39 10.14
-1 -1 9 116.01 10.16
-1 1 -9 108.29 10.3
-1 1 9 125.41 10.16
1 -9 -1 128.12 9.6
1 1 9 140.71 10.3
-9 -1 -3 1.23 0.76
-3 -1 9 1.22 1.41
9 -1 3 1.64 0.49
-9 -1 -3 1.57 0.47
3 9 -1 2.27 0.91
-1 3 9 1.56 1.21
-9 -3 1 2.47 0.88
1 -3 9 2.06 1.3
9 1 -3 2.73 0.72
3 -9 1 1.63 0.78
-1 -9 3 1.64 0.94
-1 9 -3 1.19 0.99
1 -9 -3 1.18 0.73
1 -9 -3 1.35 0.91
1 3 -9 3.4 1.74
-3 1 -9 1.08 1.07
3 -1 -9 1.07 1.5
-9 1 3 1.28 0.6
-3 -9 -1 1.58 0.77
3 1 9 1.71 1.24
-1 -3 -9 1.1 1.21
1 -9 3 1.14 1.09
1 3 9 1.94 1.19
-1 -9 -3 2.58 0.82
-1 -3 9 3.04 1.57
-9 -3 -1 1.82 0.66
-9 -1 3 0.69 0.71
-1 3 -9 2.08 1.56
-9 -3 -1 2.51 0.8
1 -3 -9 1.66 1.38
-3 -1 -9 2.09 1.63
1 9 -3 1.01 0.92
3 -9 -1 1.61 0.84
3 1 -9 1.32 1.17
3 9 1 1.59 0.74
9 3 -1 1.53 0.51
3 -1 9 1.86 1.46
9 -1 -3 1.04 0.54
-3 -9 1 1.78 0.88
-9 1 -3 1.44 0.66
-3 1 9 0.5 1.15
-9 -3 3 -0.22 0.74
-9 -3 -3 0.69 0.64
-9 3 -3 0.45 0.52
9 3 -3 -0.14 0.44
3 9 -3 0.05 0.48
9 -3 -3 -0.05 0.47
9 -3 3 -0.26 0.4
3 3 9 0.32 0.77
-3 3 9 -0.17 0.66
-9 3 3 -0.16 0.27
3 -9 -3 0.22 0.48
3 -9 3 0.42 0.9
3 -3 -9 -0.45 0.85
3 -3 9 0.17 1.25
3 3 -9 0.78 1.11
-3 -9 3 -0.64 0.58
-3 -9 -3 0.28 0.51
-9 -3 -3 0.05 0.35
-3 -3 -9 -0.26 0.93
-3 -3 9 -1.48 1.02
-3 3 -9 1.05 1.37
1 -9 -5 60.89 5.68
-9 -1 -5 53.84 5.47
9 -5 -1 66 4.82
5 -9 1 60.78 5.61
5 9 -1 58.76 5.45
-9 5 -1 58.82 4.68
-9 -5 1 62.67 5.56
9 1 -5 63.89 5.57
-9 1 5 62.81 5.41
9 -5 -1 62.49 4.81
-5 -1 9 69.03 6.44
-5 9 1 57.8 5.19
1 -5 9 63.46 6.57
-1 -5 -9 51.26 5.95
5 -1 -9 57.86 6.52
1 5 -9 63.9 6.51
-1 9 -5 54.4 5.73
1 -9 -5 57.73 5.36
-5 -9 -1 57.91 5.58
-5 1 -9 61.29 6.35
-1 -9 5 64.27 6.34
-1 5 9 49.63 5.54
9 -1 5 53.76 5.17
5 1 9 67.98 6.03
1 -5 -9 68.81 6.18
5 -1 9 54.41 5.96
-9 -1 5 64.51 5.77
-5 9 -1 58.82 5.28
1 -9 5 64.96 6.29
1 9 -5 60.98 5.86
9 -5 1 59.96 4.99
9 5 -1 64.16 5.79
-1 -5 9 58.03 6.47
1 5 9 69.03 5.89
5 -9 -1 62.81 5.45
-9 1 -5 69.99 5.75
-5 1 9 61.05 5.98
-5 -9 1 57.11 5.69
9 1 5 67.83 5.31
-1 -9 -5 54.55 5.34
9 -1 -5 68.24 5.6
5 9 1 62.32 5.44
-9 -5 -1 64.28 5.37
-1 5 -9 64.11 6.42
-1 -9 -5 57.08 5.57
-3 -9 5 -0.16 1.12
3 -9 -5 -0.31 0.58
5 3 9 0.09 0.77
9 -5 -3 -0.08 0.26
3 -9 -5 -0.5 0.31
-3 9 -5 0.56 0.78
3 -5 9 0.58 1
-9 -3 -5 0.37 0.75
-9 3 5 0.03 0.5
5 -3 -9 0.01 1.05
5 -9 3 -0.02 0.56
5 9 -3 0.52 0.75
-3 -5 -9 0.38 0.92
9 -3 5 0.6 0.68
3 5 -9 0.92 1.15
-5 -9 -3 0.35 0.7
9 -5 -3 0.19 0.51
-9 -5 3 0.78 0.73
-9 5 -3 -0.07 0.4
-5 -3 9 1.5 1.62
-5 3 -9 -0.71 1.09
-5 3 9 1.53 0.94
9 -3 -5 -0.35 0.64
-3 -9 -5 -0.07 0.67
3 -5 -9 0.61 1.03
3 -9 5 0.09 0.92
-5 -3 -9 -0.02 1.09
9 -5 3 0.75 0.66
-9 3 -5 0.3 0.85
9 3 5 0.11 0.51
3 5 9 0.45 0.9
-9 -3 5 -0.08 0.73
-5 -9 3 1.34 1.07
-3 -9 -5 0.14 0.5
-3 -5 9 -0.53 1.18
-3 5 -9 -0.47 1.17
-9 -5 -3 0.29 0.4
-9 -5 -3 0.31 0.56
5 3 -9 0.81 1.12
3 9 -5 0.5 0.87
5 -9 -3 0.66 0.62
5 -3 9 0.47 1.07
-9 5 5 10.4 1.36
-5 -9 -5 10.37 1.65
-5 -9 5 14.18 2.86
-5 -5 -9 9.82 2.12
-5 -5 9 9.7 2.47
-5 5 -9 8.32 2.22
-5 5 9 6.78 1.6
-9 -5 -5 7.32 1.4
-9 -5 5 8.71 2.27
-9 5 -5 10.72 1.77
-5 9 -5 6.64 1.63
5 -9 -5 10.75 1.55
5 9 -5 9.36 1.96
9 -5 -5 11.64 1.83
9 -5 5 13.8 2.01
-5 -9 -5 11.71 1.99
5 -5 -9 11.98 2.62
5 -5 9 9.73 2.31
5 5 -9 12.73 2.74
5 -9 5 10.44 2.29
5 5 9 7.81 1.75
-9 1 7 232.2 18.38
9 -7 -1 229.71 17.65
9 7 1 254.25 18.09
-1 9 -7 245.89 18.92
7 9 -1 246.04 18.29
-9 -1 -7 204.68 18.54
9 -7 -1 249.35 17.82
-9 -7 1 223.74 18.39
-1 -9 7 252.65 19.48
7 1 9 259.79 18.64
7 -9 1 237.65 18.31
-7 -9 -1 253.3 18.5
-9 7 -1 230.34 17.55
9 -1 7 196.33 18.09
-7 -1 9 239.87 19.03
-1 -7 -9 218.8 18.7
1 7 -9 243.46 19.2
-7 1 -9 210.15 18.9
1 -7 9 221.65 19.32
1 -9 7 217.44 19.16
1 9 -7 215.68 18.71
7 1 -9 241.41 19.08
7 -9 -1 217.19 18.01
-9 -1 7 240.29 18.73
-1 -9 -7 223.31 18.46
9 7 -1 246.27 18.07
-7 -1 -9 262.6 19.2
-7 1 9 238.86 18.71
-1 -7 9 265.98 19.73
1 7 9 277.36 18.68
9 -7 1 225.37 17.97
-9 -7 -1 213.03 18.16
7 -1 9 198.85 18.43
-1 7 -9 241.72 19.2
9 1 7 245.16 18.19
-7 -9 1 240.04 18.6
-9 1 -7 212.71 18.57
7 9 1 239.16 18.19
-7 9 -1 261.69 17.92
7 3 9 43.49 4.89
-9 -7 3 62.05 5.63
-3 7 9 51.89 5.11
9 -3 7 48.41 4.98
-9 7 -3 59.06 4.66
9 -7 -3 49.85 4.37
-9 -3 -7 53.82 5.41
7 -9 3 58.63 5.35
3 7 -9 58.78 5.92
-9 3 7 54.46 4.9
-7 -9 -3 63.54 5.21
-7 -9 -3 46.89 4.9
9 -7 -3 58.89 4.67
-3 9 -7 54.3 5.44
-3 -7 -9 46.5 5.35
-3 -9 7 53.15 5.84
-7 3 -9 41.56 5.47
3 -9 -7 52.68 5.15
-7 -3 9 56.44 5.98
3 -7 9 52.46 5.88
-9 3 -7 59.95 5.47
3 7 9 52.69 5.09
7 -9 -3 53.16 4.66
-9 -3 7 44.94 5.42
-3 7 -9 55.57 5.69
-9 -7 -3 45.71 4.76
-3 -7 9 49.98 5.97
9 3 7 43.77 4.68
-9 -7 -3 56.99 4.95
3 -7 -9 43.63 5.27
-7 3 9 49.21 5.12
3 -9 7 46.31 5.63
3 9 -7 49.97 5.37
7 3 -9 44.45 5.44
9 7 -3 47.8 4.81
-3 -9 -7 59.9 4.97
-7 9 -3 51.05 4.75
-7 -9 3 53.97 5.42
9 -7 3 56.05 5.04
-7 -3 -9 43.3 5.29
-3 -9 -7 54.56 5.21
-7 -9 -5 16.46 2.05
-9 5 7 16.68 2.04
5 -9 -7 14.55 2.27
-5 -7 -9 17.41 2.65
-5 7 9 8.66 2.16
-7 5 -9 11.23 2.59
5 -7 9 12.47 2.89
5 7 -9 10.41 2.56
-5 -9 7 11.25 2.84
-7 -5 9 11.29 3
7 -9 5 11.08 2.48
9 -5 7 14.02 2.37
9 5 -7 15.8 2.57
-9 -7 5 11.87 2.55
-7 -9 -5 14.67 2.21
-9 -5 -7 13.44 2.3
9 -7 -5 13.72 2.12
-5 9 -7 20.66 2.88
-9 7 -5 11.94 1.95
7 5 9 15.68 2.3
9 -7 -5 15.12 1.68
9 7 -5 13.59 2.12
7 -5 9 10.01 2.44
7 5 -9 17.27 2.83
-5 -9 -7 15.2 2.41
9 -7 5 14.95 2.43
-9 -5 7 15.15 3.04
5 -9 7 12.74 2.73
5 9 -7 15.37 2.57
-5 -9 -7 12.03 1.9
5 7 9 18.55 2.35
-7 -5 -9 18.9 2.82
7 -9 -5 14.26 1.85
5 -7 -9 14.87 2.54
-7 5 9 11.24 2.07
-9 -7 -5 15.84 2.07
-9 -7 -5 13.12 2.18
9 5 7 14.37 2.08
-5 7 -9 16.62 2.86
-7 -9 5 17.61 2.88
-9 5 -7 19.44 2.7
-5 -7 9 11.07 3.05
7 -9 7 104.87 10.25
-9 -7 -7 102.55 9.31
-9 -7 -7 118.3 9.88
-9 7 7 125.59 9.32
-7 -9 -7 124.47 9.6
-7 -9 -7 96.85 9.65
-7 -9 7 110.31 10.61
-9 -7 7 110.56 10.52
7 -7 9 121.45 10.53
7 7 -9 115.89 10.33
7 7 9 136.95 9.9
7 9 -7 108.93 9.98
9 -7 7 124.27 10.22
9 7 -7 120.48 10.01
-7 9 -7 132.71 10.12
7 -9 -7 106.53 9.18
-7 7 9 96.99 9.42
-7 -7 -9 113.41 10.1
-7 -7 9 101.32 10.55
-7 7 -9 105.45 10.09
-1 9 -9 217.88 17.45
-1 -9 -9 192.83 16.93
-1 -9 9 217.15 17.84
-9 -9 -1 225.61 16.86
-9 -9 1 213.21 16.9
-9 -1 -9 175.47 16.93
-9 -1 9 201.17 17.11
-9 1 -9 242.25 17.57
-9 1 9 218.74 16.95
-9 9 -1 216.01 16.02
9 -9 1 198.73 16.45
9 -1 9 207.39 16.76
9 1 9 240.18 16.78
9 9 -1 194.45 16.3
9 9 1 213.37 16.42
1 -9 -9 200.99 16.99
1 -9 9 210.31 17.77
1 9 -9 232.93 17.61
1 9 9 176.09 16.49
9 -9 -1 209.95 16.28
9 -9 -1 218.8 16.09
3 9 -9 88.64 8.06
9 -9 -3 82.99 6.73
9 -9 -3 83.5 6.85
9 -9 3 77.2 7.32
9 -3 9 83.37 7.47
9 3 -9 80.24 7.83
9 3 9 77.99 7.16
9 9 -3 82.77 7.12
3 9 9 96.85 7.56
-3 -9 -9 89.44 7.8
-3 -9 9 73.27 8.1
-3 9 -9 73.5 7.66
-3 9 9 87.91 7.23
3 -9 -9 71.87 7.5
3 -9 9 80.01 8.22
-9 3 9 72.92 7.15
-9 9 -3 70.11 6.65
-9 -9 -3 73.3 7.01
-9 -9 -3 83.55 7.23
-9 -9 3 79.79 7.68
-9 -3 -9 83.18 7.74
-9 -3 9 76.1 7.85
-9 3 -9 95.31 8.1
-5 -9 -9 59.7 5.84
-5 -9 9 53.61 6.38
-5 9 -9 47.38 5.71
-5 9 9 65.06 5.44
5 -9 -9 57.38 5.75
5 -9 9 52.73 6.24
5 9 -9 53.76 5.89
9 -9 -5 57.62 4.85
9 -9 -5 63.05 5.39
9 -9 5 48.96 5.6
9 -5 9 50.22 5.67
9 5 -9 52.75 5.83
9 5 9 49.78 5.22
-9 5 9 63.53 5.37
9 9 -5 53.6 5.39
-9 -9 -5 45.47 5
-9 -9 -5 57.89 5.51
-9 -9 5 51.04 5.99
-9 -5 -9 57.4 5.81
-9 -5 9 55.18 6.25
-9 5 -9 60.92 5.99
-9 9 -7 92.38 9.55
-9 -9 -7 117.83 9.54
-7 9 -9 124.13 10.37
-7 9 9 134.45 9.72
7 -9 -9 114.96 10.15
7 -9 9 111.73 10.56
7 9 -9 113.16 10.27
9 -9 -7 125.27 9.28
9 -9 -7 128.76 10.04
9 -9 7 107.28 10.21
9 -7 -9 112.57 10.2
9 -7 9 121.73 10.39
9 7 -9 108.97 10.08
9 7 9 105.72 9.65
9 9 -7 114.86 9.94
-9 -7 9 106.87 10.66
-9 7 9 107.92 9.42
-7 -9 -9 99.6 9.34
-7 -9 -9 97.41 9.86
-7 -9 9 114.25 10.85
-9 -7 -9 123.15 10.33
-9 -9 7 110.14 10.67
-9 -9 -7 107.51 9.8
-9 -9 -9 134.33 10.79
-9 -9 -9 109.96 11.07
-9 -9 9 125.77 12
-9 9 -9 131.97 11.36
-9 9 9 153.01 10.91
9 -9 -9 129.79 11.39
9 -9 9 121.52 11.58
9 9 -9 117.68 11.2
0 0 10 608.7 44.56
0 -10 0 538.27 43.98
-10 0 0 580.61 43.1
0 0 -10 629.82 45.01
10 0 -2 24.67 2.09
0 10 -2 25.41 2.88
2 10 0 26.84 2.79
-2 0 -10 25.11 3.57
-2 0 10 29 3.63
0 -10 -2 28.47 2.92
0 -10 2 28.13 3.31
-10 -2 0 22.76 2.42
-10 0 -2 25.49 2.11
-10 0 -2 21.36 2.31
-10 0 2 22.31 2.35
-2 -10 0 19.5 2.78
0 -2 -10 22.31 3.57
0 -2 10 20.71 3.33
0 2 -10 29.32 3.96
0 2 10 26.02 3.33
2 -10 0 21.99 2.86
2 0 10 25.22 3.53
2 0 -10 24.9 3.54
0 10 2 23.79 2.66
2 2 -10 2.15 1.31
-2 -2 10 0.99 1.44
-2 -2 -10 0.19 1.23
10 2 -2 1.81 0.58
-2 -10 2 3.74 1.42
-10 -2 -2 1.53 0.62
-10 -2 2 0.88 0.77
-10 2 -2 1.28 0.27
-10 2 -2 1.25 0.43
-2 -10 -2 1.62 0.79
2 2 10 2.37 1.34
2 10 -2 0.7 0.74
2 10 2 1.33 0.7
-10 -2 -2 1.66 0.54
2 -10 2 0.64 0.7
2 -2 -10 4.71 1.92
2 -2 10 0.12 0.87
2 -10 -2 1.98 0.83
-2 10 2 0 0.59
-2 2 10 -0.3 0.96
-2 2 -10 0.85 1.45
0 4 -10 9.78 2.64
0 -4 10 5.22 2.24
0 -4 -10 9.54 2.39
4 0 10 11.14 2.28
10 4 0 13.11 1.89
-4 -10 0 7.16 1.72
10 0 4 11.58 1.41
-10 -4 0 10.55 1.61
-4 0 -10 9.38 2.33
-4 0 10 9.72 2.39
-10 0 -4 8.72 1.64
-10 0 4 11.37 1.79
0 10 -4 11.7 1.93
4 0 -10 10.82 2.49
0 -10 -4 11.31 1.87
0 -10 4 11.18 2.46
0 4 10 13.24 2.33
4 -10 0 10.75 1.86
4 10 0 10.78 1.73
10 0 -4 12.29 1.6
0 -10 -4 12.58 1.77
-2 -10 4 24.86 3.21
-4 -10 -2 22.66 2.62
2 -4 10 18.5 3.35
-2 -4 -10 21.88 3.18
10 -2 4 20.73 2.06
10 2 -4 21.59 2.36
4 -10 2 18.92 2.69
4 10 -2 21.98 2.61
4 -2 -10 14.05 3.11
2 -10 -4 22.3 2.44
-10 -4 2 19.9 2.64
-10 -2 -4 18.17 2.04
-10 -2 -4 18.09 2.38
10 -4 -2 19.94 1.7
-10 2 4 21.23 2.12
2 -10 -4 16.56 2.45
-10 4 -2 21.82 1.74
-2 4 10 21.95 2.94
-4 -2 10 24.11 3.54
-4 2 -10 26.82 3.71
4 2 10 20.51 2.94
10 -4 -2 21.39 1.63
2 4 -10 20.82 3.48
-4 2 10 22.19 3.12
2 -4 -10 25.91 3.5
-10 2 -4 17.87 2.34
10 -2 -4 19.79 2.23
-2 -4 10 17.04 3.11
-2 4 -10 23.1 3.59
2 10 -4 21.74 2.78
4 -2 10 21.64 3.24
-2 -10 -4 17.23 2.38
-2 -10 -4 17.53 2.45
-10 -2 4 17.53 2.64
-4 10 -2 18.26 2.38
-10 -4 -2 24.41 2.38
4 -10 -2 18.14 2.33
2 4 10 20.09 2.92
-4 -2 -10 23.53 3.56
4 10 2 18.9 2.37
10 -4 2 19.41 1.8
-10 -4 -2 21.14 2.24
4 2 -10 26.69 3.76
-4 -10 2 21.21 2.97
2 -10 4 21.41 3.08
-4 -4 10 58.14 6.6
-4 4 10 61.67 5.97
-10 4 -4 70.3 5.39
-4 4 -10 69.03 6.73
4 -10 -4 66.83 5.47
4 -10 4 60.48 6.14
-10 -4 -4 50.14 5.11
-10 -4 -4 51.4 5.35
10 -4 -4 63.75 5.3
10 -4 4 66.31 5.29
4 -4 -10 57.82 6.31
4 4 -10 62.03 6.6
4 4 10 68.49 5.99
4 10 -4 65.91 5.93
-4 -10 -4 56.36 5.51
-4 -10 -4 57.4 5.61
-4 -10 4 58.18 6.22
-4 -4 -10 55.75 6.23
-10 4 4 56.95 4.88
-10 -4 4 72.5 6.21
4 -10 -4 69.32 5.67
-4 10 -4 59.64 5.73
-6 0 -10 134.43 11.57
0 -10 6 117.77 11.4
6 0 10 129.8 11.05
10 -6 0 124.88 9.99
6 0 -10 149.54 11.82
0 6 -10 136.04 11.78
0 6 10 151.82 11.14
6 10 0 137.57 10.58
-6 0 10 132.62 11.42
-6 -10 0 125.35 10.88
0 -6 -10 136.66 11.44
0 10 -6 125.7 11.04
-10 -6 0 124.69 10.59
0 -10 -6 153.4 10.75
0 -10 -6 120.9 10.8
-10 0 -6 125.89 10.8
-10 0 6 129.56 10.74
10 0 -6 132.68 10.75
10 0 6 106.66 10.22
6 -10 0 128.85 10.66
0 -6 10 132.48 11.81
10 -6 0 123.58 9.79
-6 -10 -2 3.37 1.07
-2 6 10 5.26 1.45
2 -6 10 5.49 2.26
-10 2 6 1.48 0.77
-6 2 -10 3.8 1.66
6 -10 2 2.31 1.01
-10 -2 -6 1.59 1.01
10 -6 -2 4.1 0.86
6 2 10 2.68 1.22
10 -6 -2 2.36 0.59
-2 -6 -10 3.01 1.5
2 -10 -6 2.8 1.05
2 -10 -6 4.13 1.3
2 6 -10 3.45 1.48
6 -2 -10 2.5 1.42
-10 6 -2 2.25 0.54
-6 -2 10 2.67 1.37
6 10 -2 1.97 0.95
10 -2 6 2.63 0.94
-2 -10 6 4.49 1.7
-10 -6 2 2.58 1.19
-10 -2 6 2 1.34
2 10 -6 4.23 1.36
-2 6 -10 2.43 1.43
-2 -10 -6 2.95 1.09
2 -6 -10 4.02 1.58
10 2 6 4.28 1.13
10 -6 2 2.77 0.89
6 -2 10 1.9 1.29
-6 2 10 2 1.25
-6 -2 -10 3.58 1.69
-10 2 -6 2.59 1.12
2 6 10 4.12 1.41
-2 -6 10 1.81 1.69
6 2 -10 5 2.14
-10 -6 -2 2.28 0.87
10 -2 -6 1.84 1.07
6 10 2 3.26 1.04
-2 -10 -6 2.77 1.03
-6 -10 2 2.31 1.15
2 -10 6 2.23 1.38
6 -10 -2 2.57 0.96
4 -6 10 20.2 3.82
6 10 -4 21.09 2.64
-6 4 -10 18.24 3.23
-4 6 10 18.78 2.62
4 -10 -6 21.45 2.34
-6 -10 -4 14.99 2.28
4 6 -10 17.23 3.07
-4 -6 -10 17.42 2.75
-6 -4 10 16.29 3.42
-10 -6 4 19.73 2.87
-10 6 -4 16.63 2.05
4 -10 -6 19.16 2.51
6 -10 4 17.2 2.76
-4 -10 6 12.9 2.95
-4 10 -6 15.67 2.58
10 -4 6 16.85 2.34
6 -4 -10 20.25 3.14
-10 4 6 17 2.06
-6 -10 -4 19.71 2.56
10 -6 -4 20.97 2.23
10 -6 -4 14.13 1.68
-10 -4 -6 20.66 2.66
6 -10 -4 12.18 2
-4 -6 10 18.56 3.27
-4 6 -10 17.85 3.23
-10 -6 -4 12.81 2.28
-10 4 -6 16.53 2.48
4 6 10 24.29 2.92
-4 -10 -6 20.38 2.78
-10 -6 -4 21.66 2.26
4 -10 6 13.8 2.92
-6 -10 4 19.59 3.1
-10 -4 6 19.22 3.02
-6 4 10 18.81 2.73
-6 -4 -10 16.22 2.77
6 4 -10 13.4 2.98
4 -6 -10 20.38 3.09
10 -6 4 19.67 2.43
4 10 -6 20.95 2.72
-4 -10 -6 21.59 2.49
6 -4 10 12.83 2.78
10 -4 -6 17.24 2.45
-6 10 -4 19.7 2.53
6 -6 10 15.27 3.21
-10 -6 -6 12.51 1.82
6 6 10 15.06 2.32
-10 -6 6 15.25 3.05
-10 6 -6 11.22 1.92
-6 -10 6 10.48 2.75
-6 -6 -10 11.23 2.99
-6 6 -10 11.93 2.9
-6 6 10 11.13 2.03
-6 10 -6 10.81 2
-10 6 6 13.36 1.65
-10 -6 -6 12.61 2.09
6 10 -6 13.25 2.32
-6 -10 -6 16.55 2.16
-6 -10 -6 11.57 2.41
-6 -6 10 9.36 2.64
6 -10 -6 12.39 1.79
6 -10 6 11.56 2.52
6 -6 -10 10.65 2.39
10 -6 -6 14.41 2.2
10 -6 6 11.43 2.36
0 8 -10 175.77 16.05
0 8 10 216.27 15.56
10 0 8 189.76 15.1
0 -10 8 179.1 16.28
0 10 -8 189.68 15.81
0 -8 -10 186.18 15.8
10 -8 0 204.41 14.92
10 -8 0 180.02 14.5
10 8 0 178.4 14.94
8 10 0 184.67 15.09
-8 10 0 181.24 14.71
-10 -8 0 209.76 15.48
0 -8 10 178.62 16.32
-8 0 10 197.14 15.94
0 -10 -8 203.65 15.62
8 -10 0 205.07 15.28
-8 -10 0 200.06 15.53
-8 0 -10 195.63 16.08
8 0 10 170.46 15.38
-10 0 8 203.73 15.61
-8 -2 10 61.35 6.53
-10 -8 2 60.71 6.04
-10 -2 -8 67.79 6.28
2 -8 10 62.77 6.88
2 8 -10 64.6 6.66
-8 -10 -2 69.67 6
-2 -10 8 60.03 6.79
8 -10 2 47.14 5.67
8 10 -2 64.39 5.75
10 -8 -2 67.62 5.29
8 2 10 70.03 6.02
10 -8 -2 59.09 5.2
-2 -8 -10 63.36 6.39
-10 8 -2 63.89 5.1
-10 2 8 72.48 6
-8 2 -10 69.34 6.75
10 -2 8 64.25 5.82
-2 8 10 74.34 6.23
-10 -8 -2 63.97 5.79
-8 -2 -10 55.97 6.38
8 2 -10 65.03 6.59
8 10 2 66.74 5.66
-10 -2 8 57.69 6.22
-2 -10 -8 54.7 5.92
-8 -10 2 60.76 6.2
10 -8 2 57.76 5.59
-2 -8 10 70.04 7.14
-2 8 -10 54.08 6.27
2 -10 8 61.88 6.74
2 -8 -10 58.27 6.2
-8 2 10 60.53 6.07
-2 -10 -8 55.99 5.57
2 8 10 63.18 5.88
8 -10 -2 49.83 5.37
10 2 8 50.39 5.48
2 10 -8 51.93 6.14
10 8 -2 71.62 5.74
-10 -8 4 1.51 1.21
-8 -10 -4 2.2 0.99
-4 -8 -10 1.08 1.19
4 -10 -8 2.7 1.19
4 -8 10 2.38 1.61
-4 10 -8 2.93 1.25
4 8 -10 3.94 1.8
8 10 -4 5.07 1.3
8 4 10 2.06 1.16
10 -8 -4 3.45 0.88
10 -8 -4 2.72 1.11
-4 -10 8 3.97 1.8
-10 8 -4 2.68 0.85
8 -10 4 1.23 1.12
-8 -4 10 4.27 2.01
-8 4 -10 4.85 1.89
-10 -4 -8 2.62 1.35
-10 4 8 2.03 0.98
10 -4 8 2.14 1.22
-4 8 10 2.17 1.13
-8 -10 -4 2.5 1.08
-4 -8 10 0.13 1.19
10 8 -4 2.5 1.02
-4 8 -10 1.87 1.24
4 -8 -10 1.54 1.18
4 -10 8 3.01 1.56
-10 -8 -4 2.99 1.05
-4 -10 -8 2.29 0.88
10 -4 -8 3.41 1.46
-10 -8 -4 2.03 1.09
-8 4 10 2.67 1.27
-10 -4 8 3.69 1.66
-4 -10 -8 4.36 1.4
8 4 -10 0.39 1.03
10 -8 4 2.11 1.03
8 -10 -4 3.12 0.99
-8 -4 -10 3.37 1.51
8 -4 10 4.49 1.79
-8 -10 4 3.73 1.73
4 8 10 3.14 1.35
10 4 8 2.95 1.05
-8 10 -4 4.42 1.34
4 10 -8 4.52 1.65
8 6 10 29.65 3.48
8 10 -6 29.93 3.75
6 -8 10 30.91 4.55
6 8 -10 29.56 4.12
-8 -10 -6 34.95 3.95
-6 8 10 28.64 3.54
-10 -6 -8 28.88 3.85
8 -10 6 33.56 4.22
10 -8 -6 32.94 3.1
10 -8 -6 26.96 3.42
-6 -8 -10 41 4.47
10 -6 8 20.32 3.51
-8 -10 -6 35.12 3.53
-10 6 8 31.59 3.38
6 -10 -8 26.86 3.67
-10 -8 6 34.25 4.49
-8 -6 10 30.1 4.56
-8 6 -10 32.07 4.31
8 -6 -10 37.46 4.34
10 6 -8 30.98 3.88
-6 10 -8 37.46 4.11
-6 -10 8 31.3 4.62
-6 -10 -8 33.74 3.86
8 -10 -6 36.26 3.77
6 -10 8 25.23 4.22
6 10 -8 32.53 3.95
-6 -10 -8 29.38 3.45
6 8 10 37.54 3.81
-8 -10 6 31.25 4.36
-8 10 -6 35.77 3.76
8 6 -10 28.41 4.04
-10 -8 -6 26.8 3.29
-10 -8 -6 31.21 3.67
8 -10 -6 32.76 3.25
-8 -6 -10 31.04 4.01
-8 6 10 28.5 3.48
-6 -8 10 32.46 4.95
-6 8 -10 29.77 4.1
6 -8 -10 39.13 4.32
10 -8 6 40.52 4.2
10 8 -6 31.45 3.68
8 -6 10 27.91 4.06
-10 -6 8 30.27 4.31
-10 6 -8 35.8 4
10 -6 -8 23.96 3.62
10 8 -8 76.82 7.17
10 -8 -8 82.95 7.25
10 -8 8 75.28 7.44
8 10 -8 68.87 7.04
-8 8 -10 86.37 7.72
-8 8 10 68.66 6.63
-8 10 -8 74.2 7.12
8 -8 10 70.13 7.71
8 8 -10 84.45 7.65
8 8 10 64.6 6.77
-10 -8 -8 62.45 6.5
-10 -8 -8 72.65 7.14
-10 -8 8 68.82 7.72
-10 8 -8 87.91 7.33
-10 8 8 70.67 6.47
8 -10 -8 68.41 6.41
8 -10 -8 67.49 6.98
8 -10 8 93.72 8.17
8 -8 -10 72.71 7.32
-8 -8 10 67.38 7.83
-8 -10 -8 65.97 6.99
-8 -10 8 72.16 7.82
-8 -8 -10 92.62 7.83
-8 -10 -8 84.04 6.9
10 0 -10 179.58 15.93
10 0 10 171.8 15.32
10 10 0 171.71 15.07
10 -10 0 184.22 15.18
0 10 10 215.94 15.66
0 -10 -10 217.06 16.13
0 -10 10 201.11 16.78
0 10 -10 187.32 16.14
-10 -10 0 184.58 15.52
-10 0 -10 208.46 16.28
-10 0 10 196.15 15.92
10 -10 -2 15.63 2.17
10 -10 2 19.38 2.72
10 -2 -10 20.75 3.26
-10 -2 10 15.42 3.11
-10 2 -10 22.9 3.57
-10 2 10 20.79 2.93
-10 10 -2 18.77 2.06
-2 -10 -10 15.38 2.83
-2 -10 10 21.45 3.76
-2 10 -10 19.38 3.18
-2 10 10 14.94 2.5
2 -10 -10 23.07 3.19
2 -10 10 10.76 2.95
2 10 -10 20.34 3.3
2 10 10 20.13 2.8
10 -10 -2 20.78 2.36
-10 -10 -2 16.17 2.54
-10 -10 2 17.83 2.9
-10 -2 -10 24.61 3.6
10 10 -2 17.73 2.39
10 2 -10 19.84 3.13
10 2 10 21.71 2.74
10 -2 10 14.06 2.61
-10 -10 -4 -0.05 0.68
-10 -10 4 -0.2 1.02
-4 -10 -10 -0.94 0.89
-10 -10 -4 -0.21 0.54
10 4 -10 -0.69 0.84
10 4 10 -0.53 0.52
10 10 -4 0.21 0.71
-10 -4 -10 -1.23 0.91
-10 -4 10 0.99 1.44
-10 4 -10 0.49 1.16
-10 4 10 0.79 0.85
10 -4 10 0.26 0.99
-4 -10 10 1.43 1.53
-4 10 -10 1.73 1.33
-4 10 10 0.52 0.83
4 -10 -10 0.29 0.86
4 -10 10 0.44 1.21
4 10 -10 0 0.96
10 -10 -4 0.19 0.39
10 -10 -4 -0.57 0.47
10 -10 4 -0.4 0.8
10 -4 -10 -1.07 0.84
10 6 -10 1.51 1.11
10 -10 6 3.43 1.65
10 -6 -10 5.13 1.83
10 -6 10 3.1 1.67
-10 -10 -6 6.41 1.52
-10 -10 -6 4.26 1.45
-10 -10 6 3.3 1.76
-10 -6 -10 3.28 1.39
-10 -6 10 4.9 2.07
-10 6 -10 2.79 1.56
-10 6 10 3.58 1.32
-10 10 -6 2.82 1.09
-6 -10 -10 6.03 2.06
-6 -10 10 5.04 2.16
-6 10 -10 5.38 1.86
-6 10 10 4.76 1.47
6 -10 -10 4.99 1.68
6 -10 10 5.1 1.97
6 10 -10 3.43 1.47
10 -10 -6 4.37 1.09
10 -10 -6 4.45 1.36
10 10 -6 5.52 1.61
10 6 10 5.34 1.42
8 -10 10 15.65 3.78
8 10 -10 30.46 3.94
10 -10 -8 23.33 2.82
10 -10 -8 24.21 3.42
10 -10 8 22.66 3.75
10 -8 -10 24.52 3.77
10 -8 10 27.15 3.96
10 8 -10 31.17 3.91
10 10 -8 22.63 3.36
-8 -10 10 26.15 4.4
-8 10 -10 28.41 3.81
-8 10 10 24.5 3.19
8 -10 -10 25.39 3.74
-8 -10 -10 28.55 3.25
-8 -10 -10 31.07 3.92
-10 8 10 28.58 3.2
-10 10 -8 30.31 3.62
-10 -8 10 18.14 4.02
-10 8 -10 27.66 3.8
-10 -10 -8 22.45 3.02
-10 -10 -8 28.52 3.64
-10 -10 8 31.54 4.48
-10 -8 -10 28.34 3.88
-10 -10 10 25.17 4.27
-10 10 -10 31.45 3.99
10 10 -10 27.86 3.69
-10 -10 -10 19.36 3.48
10 -10 -10 21.22 3.63
10 -10 10 21.13 3.93
-10 -10 -10 26.39 3.2
-11 -1 -1 129.98 9.66
-11 -1 1 123.27 9.86
11 1 -1 133.07 9.53
-1 -11 1 130.39 10.68
-1 -1 -11 117.34 11.22
-1 -1 11 117.68 11.15
-1 1 -11 119.93 11.39
-1 1 11 120.67 10.91
-1 11 -1 109.68 10.16
-1 11 1 108.81 10.07
1 -11 -1 130.27 10.5
1 -11 1 120.31 10.57
1 -1 -11 123.03 11.28
1 -1 11 149.75 11.4
1 1 -11 128.61 11.4
1 1 11 131.45 11.01
1 11 -1 134.85 10.42
1 11 1 146.73 10.39
-11 -1 -1 128.49 9.68
-1 -11 -1 112.08 10.34
-11 -1 -3 32.64 3.06
-11 -1 -3 31.35 2.72
3 -11 1 32.94 3.63
-1 -11 3 29.71 3.77
-1 11 -3 28.66 3.42
1 -3 11 43.08 4.78
1 3 -11 25.05 3.96
3 11 -1 32.81 3.36
-3 1 -11 32.14 4.41
-1 -3 -11 33.78 4.24
3 1 11 25.7 3.72
-11 1 3 30.12 2.72
-11 -3 1 29.59 3.21
-3 -11 -1 26.95 3.35
-3 -1 11 28.34 4.08
-3 11 1 30.86 3.18
11 1 -3 30.46 2.79
1 -11 -3 24.27 3.21
-1 3 11 34.38 3.87
3 -1 -11 30.4 4.25
-1 -3 11 30.47 4.11
1 -3 -11 30.92 4.22
-3 1 11 33.43 4.1
-3 11 -1 33.45 3.32
-1 3 -11 27.73 4.31
-11 1 -3 26.91 2.52
-11 -3 -1 30.86 3.01
-11 1 -3 33.02 2.98
-11 -3 -1 31.82 2.94
-3 -1 -11 28.63 4.28
-3 -11 1 36.25 3.75
3 11 1 32.78 3.27
-11 -1 3 31 3.22
-1 -11 -3 29.26 3.32
3 -11 -1 31.77 3.43
3 1 -11 31.69 4.33
1 11 -3 26.31 3.35
3 -1 11 35.83 4.2
1 3 11 28.53 3.69
11 3 -1 29.37 2.77
11 -1 -3 27.57 2.55
1 -11 3 34.59 3.94
-11 3 -3 227.02 17.05
-3 -11 -3 249.1 18
-3 -11 3 231 18.41
-3 -3 -11 241.86 18.94
-3 -3 11 231.52 18.89
-3 3 -11 213.32 18.8
-3 3 11 225.76 18.26
-3 11 -3 198.44 17.69
3 -11 -3 212.94 17.68
3 -11 -3 213.14 17.74
3 -11 3 217.55 18.29
3 -3 -11 216.5 18.68
3 -3 11 244.24 18.81
3 3 -11 232.83 18.97
3 3 11 256.52 18.41
3 11 -3 232.45 17.94
11 -3 -3 233.52 16.83
11 -3 3 233.66 16.9
11 3 -3 215.1 17.31
-11 -3 -3 247.5 17.33
-11 -3 -3 202.98 17.37
-11 -3 3 241.13 17.98
-11 1 5 0.46 0.62
11 -1 5 0.61 0.52
11 1 -5 0.25 0.57
1 5 -11 -0.31 0.86
-5 11 1 0.32 0.45
-1 -5 -11 -0.34 0.81
-11 -5 1 0.75 0.71
5 1 11 0.67 0.79
-5 -1 11 -0.41 1.17
-5 1 -11 -0.91 1
-1 5 11 0.51 0.88
1 -5 11 -0.52 1.16
-1 -11 5 0.58 1.1
-1 11 -5 0.64 0.75
1 -11 -5 -0.04 0.42
-11 -1 -5 1.18 0.8
1 -11 -5 0.6 0.72
5 11 -1 0.35 0.73
-5 -11 -1 0.09 0.53
5 -11 1 0.66 0.85
5 -1 -11 0.46 1.21
5 1 -11 0.53 1.24
-5 11 -1 1.21 0.74
-1 -5 11 0.67 0.94
-1 5 -11 -0.22 1.26
1 -5 -11 1.61 1.38
1 5 11 -0.24 0.77
-11 -5 -1 0.59 0.74
-11 1 -5 0.41 0.86
-5 -1 -11 -1.34 1.05
11 -1 -5 0.1 0.58
1 -11 5 0.13 0.95
-11 -1 5 -0.6 0.7
-1 -11 -5 0.16 0.64
11 1 5 -0.03 0.47
5 -11 -1 1.23 0.79
-1 -11 -5 0.56 0.75
5 -1 11 1.04 1.15
-5 -11 1 0.47 0.84
5 11 1 0.45 0.56
1 11 -5 0.58 0.67
-5 1 11 0.89 1.15
11 -5 -3 141.85 10.16
5 -11 3 133.64 11.6
5 -3 -11 150.63 12.25
-11 3 5 136.13 10.46
-5 -11 -3 121.18 11.06
5 3 11 146.71 11.63
-3 -11 5 137.63 12.01
3 -5 11 148.22 12.32
11 -3 5 130.32 10.62
-11 5 -3 142.6 10.34
3 5 -11 144.69 12.36
-3 -5 -11 135.99 11.96
-5 3 -11 130.65 12.08
-3 5 11 119.41 11.46
5 11 -3 143.32 11.3
-11 -3 -5 111.93 10.53
-3 11 -5 122.42 11.23
3 -11 -5 122.05 10.85
3 -11 -5 133.15 11.16
11 -5 -3 138.31 10.42
-11 -5 3 135.59 11.44
11 -3 -5 143.96 10.85
11 -5 3 151.35 10.51
-3 -11 -5 119.9 10.94
-5 11 -3 139.67 11.1
-11 -5 -3 146.36 10.93
-5 -11 3 142.71 11.79
-11 -3 5 140.19 11.52
5 -11 -3 147.88 11.12
5 -11 -3 111.51 10.8
-5 3 11 111.08 11.27
3 -11 5 132.46 11.82
-3 -11 -5 142.72 11.32
3 5 11 136.13 11.4
3 -5 -11 147.17 12.17
3 11 -5 129.42 11.43
-3 5 -11 138.41 12.19
5 -3 11 127.14 11.85
-5 -3 -11 158.94 12.35
-3 -5 11 138.26 12.39
5 3 -11 132.34 12.1
-11 3 -5 149.34 11.01
11 -5 5 181.29 13.85
-5 -11 5 170.74 14.95
-5 -11 -5 157.01 13.95
5 5 -11 173.86 15.17
-5 -11 -5 184.28 14.31
-5 11 -5 172.76 14.29
5 -11 -5 172.26 13.86
5 -11 -5 199.69 14.38
5 5 11 190.47 14.53
-5 -5 -11 187.62 15.04
-5 -5 11 185.77 15.5
-5 5 -11 171.53 15.07
-11 -5 5 157.69 14.54
-11 5 -5 199.16 13.97
5 11 -5 173.55 14.47
11 -5 -5 171.78 13.84
5 -5 -11 161.22 14.87
5 -5 11 176.89 15.13
5 -11 5 164.67 14.77
-5 5 11 181.67 14.52
-11 -5 -5 190.98 14.19
-11 5 5 157.12 13.35
7 1 11 57.37 5.37
1 7 -11 39.75 5.46
11 -7 -1 48.33 4.16
7 11 -1 47.99 4.69
1 -11 -7 59.67 4.91
1 -7 11 53.04 6.08
-7 -11 -1 40.49 4.85
-1 11 -7 43.66 5.03
-7 11 1 45.1 4.36
-1 7 11 43.8 4.88
1 -11 -7 50.46 5.04
-11 -7 1 40.28 4.78
-7 -1 11 44.19 5.35
-11 1 7 43.71 4.68
-7 1 -11 49.68 5.74
11 -7 -1 49.89 4.07
7 -1 -11 48.22 5.63
11 -1 7 50.43 4.56
7 -11 1 55.29 5.08
-1 -11 7 55.79 5.96
-1 -7 -11 47.93 5.48
1 11 -7 52.02 5.27
-11 1 -7 53.31 5.24
-1 -11 -7 49.7 4.75
-1 7 -11 45.52 5.64
7 11 1 56.05 4.85
-7 1 11 52.94 5.44
-7 11 -1 51.2 4.49
7 -1 11 47.82 5.28
11 -1 -7 52.8 5.03
11 1 7 47.63 4.58
1 7 11 35.32 4.73
7 -11 -1 49.15 4.76
-1 -11 -7 47.13 5.05
-7 -1 -11 49.17 5.66
11 -7 1 54.55 4.4
-1 -7 11 47.37 5.96
7 1 -11 48.34 5.61
1 -7 -11 47.33 5.49
1 -11 7 51.83 5.85
-11 -7 -1 45.47 4.74
-11 -1 7 51.07 5.15
-7 -11 1 48.97 5.16
-11 7 -3 17.47 1.86
-11 -3 -7 14.68 2.53
11 -7 -3 18.84 1.87
7 3 11 19.99 2.74
-11 -7 3 20.46 2.92
-3 -7 -11 20.47 3.24
-3 11 -7 20.03 2.92
3 -11 -7 20.17 2.71
-11 3 7 18.29 2.31
11 -7 -3 14.6 1.97
3 -7 11 16.36 3.32
3 7 -11 20.81 3.39
7 -11 3 20.16 2.88
-7 -3 11 19.42 3.48
-3 7 11 21.69 2.86
-7 3 -11 18.62 3.34
-3 -11 7 16.37 3.43
3 -11 -7 20.12 2.4
7 11 -3 18.38 2.54
11 -3 7 20 2.44
7 -3 -11 20.42 3.87
-7 -11 -3 18.55 2.53
3 11 -7 16.41 2.74
-11 -7 -3 15.09 2.24
-7 11 -3 18.72 2.35
3 7 11 10.7 2.59
7 -11 -3 23.46 2.48
-7 -3 -11 17.3 2.99
3 -11 7 21.54 3.46
11 -3 -7 15.83 2.59
7 3 -11 19.35 3.29
11 3 7 14.59 2.14
-3 7 -11 13.02 2.98
3 -7 -11 19.79 3.21
-11 3 -7 13.86 2.58
11 -7 3 15.23 2.19
7 -3 11 19 3.07
-3 -11 -7 17.85 2.77
-11 -7 -3 16.65 2.27
-3 -11 -7 21.59 2.57
-7 3 11 19.24 2.81
-7 -11 3 18.13 3.24
-11 -3 7 15.86 2.93
-3 -7 11 18.95 3.69
5 -11 -7 39.2 3.7
5 7 -11 27.7 4.36
11 -7 -5 38.41 3.72
-11 5 7 33.87 3.39
-11 7 -5 44.75 3.7
7 -11 5 40.56 4.64
5 -11 -7 31.5 3.79
7 -5 -11 28.86 4.23
-11 -5 -7 28.3 3.84
-7 5 -11 28.14 4.3
5 -7 11 37.53 4.82
11 -5 7 33.24 3.74
11 5 -7 39.03 4.07
-7 -5 11 32.51 4.6
11 -7 -5 37.03 3.15
-11 -7 5 40.49 4.63
-7 -11 -5 37.97 3.8
-11 -5 -7 33.01 3.46
7 5 11 32.72 3.91
7 11 -5 31.45 3.86
-5 -7 -11 29.78 4.09
-7 -11 -5 40.6 4.11
-5 7 11 30.85 3.85
-5 -11 7 31.52 4.56
-5 11 -7 32.94 4.13
-5 -11 -7 34.17 4.08
7 -5 11 30.86 4.3
-11 -5 7 33.9 4.48
-11 5 -7 42.86 4.18
5 11 -7 30.89 4.01
-7 5 11 25.7 3.7
7 -11 -5 26.96 3.55
-11 -7 -5 37.42 3.91
5 -7 -11 35.99 4.51
-11 -7 -5 35.68 3.55
11 -5 -7 37.8 4
-5 -7 11 34.83 4.95
-5 7 -11 38.65 4.77
11 7 -5 40.62 3.95
-5 -11 -7 41.69 3.91
-7 11 -5 30.96 3.74
7 5 -11 32.71 4.45
-7 -5 -11 33.09 4.43
5 -11 7 30.16 4.43
5 7 11 28.39 3.71
11 -7 5 35.06 3.81
7 -11 -5 35.67 3.55
-11 -7 -7 3.77 1.18
-11 -7 -7 4.16 1.5
-11 -7 7 5.51 2.31
-7 11 -7 8.79 2.12
-7 -11 -7 4.32 1.36
7 -7 11 6.06 2.21
-7 -7 11 5.61 2.28
-7 -11 -7 5.5 1.71
-7 -11 7 5.98 2.35
11 -7 -7 4.29 1.48
7 7 11 6.16 1.55
7 11 -7 6.72 1.76
-7 7 11 4.86 1.58
7 7 -11 8.62 2.43
11 7 -7 4.94 1.54
11 -7 7 7.32 1.97
7 -11 7 6.46 2.18
-7 -7 -11 4.87 1.85
7 -11 -7 4.81 1.27
-7 7 -11 4.08 1.74
7 -11 -7 8.25 2.01
7 -7 -11 3.25 1.61
-11 1 9 56.89 5.69
-1 -11 9 59.52 6.7
11 -1 9 63.33 5.58
1 -9 11 52.61 6.57
1 9 -11 60.08 6.36
-1 11 -9 56.47 6.04
11 -9 -1 53.69 4.84
9 -11 1 53.18 5.49
9 11 -1 58.42 5.32
-11 -1 -9 52.93 5.95
9 1 11 59.44 5.75
11 -9 -1 51.74 5.04
-1 -9 -11 63.7 6.25
11 1 -9 62.09 6.04
11 9 1 62.57 5.29
-1 9 11 59.54 5.61
-11 9 -1 58.14 4.76
1 -11 -9 67.37 5.51
-9 1 -11 51.72 6.18
9 -1 -11 61.83 6.42
-9 -11 -1 56.7 5.73
-11 -9 1 59.37 5.79
1 -11 -9 52.36 5.79
-9 -1 11 60.63 6.23
9 11 1 55.57 5.31
11 9 -1 56.89 5.25
-11 1 -9 52.53 5.93
1 9 11 42.73 5.27
-9 -11 1 50.61 5.68
-1 -9 11 54.86 6.55
1 11 -9 59.21 6.2
9 1 -11 57.26 6.26
-1 -11 -9 56.57 5.35
-1 -11 -9 60.55 5.9
-11 -1 9 62.8 6.08
-9 1 11 52.86 5.87
9 -11 -1 47.43 5.17
1 -9 -11 53.94 5.94
-11 -9 -1 57.25 5.56
9 -1 11 52.61 5.66
-9 -1 -11 63.43 6.49
-1 9 -11 49.7 6.1
11 -1 -9 55.02 5.85
11 -9 1 56.7 5.28
1 -11 9 48.79 6.32
9 -11 -1 50.28 5.06
11 1 9 66.48 5.57
11 -3 9 5 1.44
-3 9 11 5.33 1.62
-11 -9 3 5.13 1.74
-3 -11 9 4.41 1.94
3 -9 11 5.68 2.21
-9 -11 -3 6.39 1.64
-9 -11 -3 5.14 1.55
3 9 -11 4.89 1.87
-3 -9 -11 7.34 2.2
-11 3 9 7.16 1.76
-11 -3 -9 7.04 2.16
11 3 -9 5.35 1.76
-11 9 -3 4.76 1.05
9 -11 3 9.82 2.29
11 -9 -3 5.99 1.6
9 11 -3 5.99 1.74
-3 11 -9 6.45 1.91
3 -11 -9 7.59 2.03
9 3 11 6.46 1.78
-9 -3 11 4.86 1.9
11 -9 -3 6.22 1.93
9 -3 -11 5.48 2.16
-9 3 -11 3.11 1.77
9 3 -11 4.23 1.75
-9 -11 3 5.62 1.92
-11 -9 -3 7.01 1.57
11 -9 3 6.39 1.59
11 9 -3 4.56 1.3
-3 -9 11 7.11 2.37
11 3 9 5.28 1.46
3 -11 9 8.58 2.51
-3 9 -11 6.7 2.14
-9 3 11 6.39 1.78
-3 -11 -9 5.17 1.3
-3 -11 -9 4.24 1.71
9 -3 11 3.21 1.66
-9 -3 -11 4.76 1.88
-11 3 -9 4.07 1.73
11 -3 -9 4.09 1.69
-11 -9 -3 6.21 1.62
3 -9 -11 7.43 2.17
3 11 -9 8.7 2.18
-11 -3 9 6.64 2.17
3 9 11 4.63 1.49
9 -11 -3 7.49 1.61
9 -11 -3 5.12 1.43
-9 11 -3 5.17 1.21
11 -9 -5 1.77 1.16
-9 -11 -5 1.59 0.95
-9 -11 -5 2.54 1.06
9 -5 -11 2.82 1.69
9 5 11 2.88 1.27
11 -9 -5 2.55 1.14
-9 5 -11 3.72 1.78
9 11 -5 2.9 1.18
-5 11 -9 2.87 1.32
5 -11 -9 1.4 0.77
5 -11 -9 0.41 0.99
-11 -9 5 0.4 1.12
-11 9 -5 1.42 0.79
5 -9 11 3.22 1.59
5 9 -11 3.72 1.6
-11 -5 -9 3.59 1.57
-5 -11 9 3.1 1.66
9 -11 5 2.15 1.38
-9 -5 11 4.61 2.05
-5 9 11 3.2 1.33
11 5 -9 1.87 1.39
-5 -9 -11 1.94 1.19
-11 5 9 1.61 0.88
11 -5 9 2.79 1.29
-9 11 -5 2.6 1.1
-5 -9 11 3.32 1.95
11 -5 -9 2.84 1.43
5 11 -9 4.09 1.45
-5 9 -11 1.13 1.22
11 -9 5 3.45 1.44
9 -11 -5 3.39 1.03
9 -11 -5 3.52 1.19
5 -9 -11 2.19 1.26
9 -5 11 3.44 1.61
11 5 9 3.4 1.25
5 9 11 1.07 0.84
-11 -9 -5 2.78 1.05
-11 -9 -5 2.33 1.14
-11 -5 9 1.32 1.78
-9 -5 -11 3.48 1.72
-9 -11 5 4.97 1.71
-9 5 11 2.68 1.22
5 -11 9 3.27 1.84
-5 -11 -9 1.69 0.83
-11 5 -9 5.23 1.8
11 9 -5 1.02 0.81
9 5 -11 0.99 1.13
-5 -11 -9 3.63 1.39
7 -11 -9 8.98 1.61
-11 7 9 9.97 1.68
-11 -9 7 10.49 2.76
-9 -11 -7 9.27 2.17
-11 -7 -9 9.81 1.7
-7 -9 -11 9.81 2.53
9 7 11 8.68 2.06
11 -9 -7 9.81 1.49
-7 9 11 6.92 1.77
-9 7 -11 12.88 2.83
7 -9 11 10.77 3.02
7 9 -11 8.33 2.64
7 -11 -9 6 1.94
-7 -11 9 6.48 2.57
9 -11 7 7.15 2.22
9 11 -7 10.05 2.35
11 -7 9 10.78 2.37
11 7 -9 12.5 2.68
-9 -7 11 11.12 2.99
9 -7 -11 11.12 2.76
-9 -11 -7 7.94 1.75
-11 9 -7 8.39 1.86
11 -9 -7 13.5 2.21
-11 -7 -9 11.39 2.59
-7 11 -9 8.13 2.24
-9 -7 -11 5.01 1.88
7 -11 9 5.93 2.29
7 -9 -11 6.98 2.17
-9 11 -7 13.69 2.52
-7 -11 -9 11.33 1.83
-7 -11 -9 11.76 3.03
9 -11 -7 7.49 1.89
9 -11 -7 8.5 1.72
-11 -7 9 7.82 2.54
-11 -9 -7 14.71 1.99
-11 -9 -7 5.91 1.86
7 11 -9 5.45 1.91
-9 -11 7 11.82 3.29
11 9 -7 11.01 2.31
-7 9 -11 8.98 2.56
-9 7 11 7.83 1.89
9 7 -11 7.55 2.13
-7 -9 11 7.57 2.84
9 -7 11 10.37 2.83
9 -11 -9 9.99 2.4
11 -9 9 14.22 3.06
11 9 -9 15.28 2.63
-11 -9 9 10.21 2.92
-11 9 -9 10.28 2.48
-9 -11 -9 14.62 2.21
-9 -11 -9 11.91 2.74
-9 -11 9 10.17 3.19
-9 -9 -11 11.03 2.75
-9 -9 11 14.5 3.52
-9 9 -11 18.39 3.12
-9 9 11 12.86 2.22
-9 11 -9 11.83 2.54
9 -11 -9 10.73 1.85
9 9 -11 10.29 2.55
9 11 -9 9.42 2.42
11 -9 -9 10.57 2.5
-11 -9 -9 13.78 2.11
-11 -9 -9 8.48 2.25
9 -9 11 8.37 2.65
9 -9 -11 10.8 2.62
9 -11 9 12.55 3.02
11 -11 1 33.12 3.93
11 1 -11 42.49 4.9
11 1 11 32.36 4.01
11 11 -1 37.64 3.92
11 11 1 34.45 3.82
-1 11 11 37.33 4.29
11 -1 -11 39.82 4.87
11 -1 11 34.94 4.09
11 -11 -1 34.61 3.53
1 -11 -11 34.98 4.62
1 -11 11 38.89 5.37
1 11 -11 34.19 4.55
1 11 11 38.08 4.31
11 -11 -1 37.95 3.86
-11 -11 -1 40.52 4.39
-11 -11 1 40.45 4.53
-11 -1 -11 41.28 5.04
-11 -1 11 40.77 4.77
-11 1 -11 44.46 5.1
-11 1 11 38.23 4.53
-11 11 -1 33.52 3.38
-1 -11 -11 25.78 4.22
-1 -11 11 40.93 5.45
-1 11 -11 36.04 4.62
-11 -3 -11 46.62 5.32
-11 -3 11 36.08 4.92
-11 3 -11 40.35 5.03
-11 -11 3 40.76 4.91
-11 -11 -3 42.5 4.42
-11 -11 -3 41.48 4.33
11 11 -3 38.72 4.12
11 -11 -3 38.81 3.91
11 -11 3 34.2 4.35
11 -3 -11 37.18 4.89
11 -3 11 41.55 4.53
11 3 -11 38.78 4.8
11 3 11 46.01 4.52
3 -11 -11 29.47 4.45
3 -11 11 37.68 5.25
3 11 -11 33.05 4.72
11 -11 -3 39.48 3.94
-3 11 -11 36.4 4.81
-3 11 11 38.34 4.31
-3 -11 11 39.56 5.58
-11 3 11 33.02 4.27
-3 -11 -11 41.49 4.92
5 -11 11 32.6 4.86
5 -11 -11 35.7 4.34
11 -11 5 30.42 4.11
11 -5 -11 34.44 4.48
11 -5 11 25.52 3.91
11 5 -11 33.27 4.34
11 5 11 23.95 3.45
11 11 -5 31.29 3.66
11 -11 -5 30.41 3.59
-11 -11 -5 33.82 3.76
-11 -11 -5 37.8 4.05
-11 -11 5 35.13 4.61
-11 -5 -11 32.41 4.39
-11 -5 11 34.26 4.75
-11 5 -11 33.18 4.48
-11 11 -5 30.64 3.36
-5 -11 -11 26 3.97
-5 -11 11 30.76 4.68
-5 11 -11 23.24 3.94
-5 11 11 32.54 3.77
11 -11 -5 29.53 3.23
5 11 -11 35.77 4.44
-11 7 11 1.74 1.07
-11 7 -11 1.91 1.37
-11 -11 -7 -0.82 0.52
-11 -11 -7 0.48 0.99
-11 -11 7 1.36 1.42
-11 -7 -11 0.54 1.24
-11 -7 11 3.59 2.15
11 -11 -7 1.15 1.1
11 -11 7 -0.45 1.06
11 -7 -11 1.21 1.45
11 -7 11 -1.11 1.02
11 7 -11 0.32 1.17
11 7 11 0.35 0.94
11 11 -7 0.38 0.85
11 -11 -7 0.3 0.45
-7 11 -11 -0.17 0.9
-7 11 11 0.27 0.81
7 -11 -11 -1.9 0.65
7 -11 11 0.23 1.27
7 11 -11 1.2 1.12
-11 11 -7 0.72 0.89
-7 -11 -11 -0.03 0.72
-7 -11 11 1.34 1.55
9 -11 11 -0.96 1.32
9 11 -11 1.14 0.88
11 -11 -9 -0.22 0.55
11 -11 -9 -0.61 0.88
11 -11 9 0.58 1.43
-9 -11 11 0.44 1.53
-9 11 -11 -0.07 0.92
9 -11 -11 0.46 1.17
-11 9 -11 1.01 1.07
-11 9 11 1.57 0.99
-11 11 -9 -1.21 0.68
-9 -11 -11 -0.19 0.49
-9 -11 -11 -1.69 0.81
-11 -11 -9 -0.38 0.56
-11 -11 -9 1.32 1.15
-11 -11 9 -0.14 1.4
-11 -9 -11 0.16 0.52
-11 -9 -11 0.71 1.22
-11 -9 11 -2.1 1.38
11 -9 11 -0.47 1.17
11 9 -11 -0.54 0.81
11 11 -9 0.43 0.94
11 -9 -11 2.39 1.45
-11 -11 -11 2.67 1.69
-11 -11 11 1.77 1.96
-11 -11 -11 1.09 0.93
11 -11 -11 0.88 0.86
11 -11 -11 1.11 1.03
11 -11 11 -0.09 1.26
11 11 -11 2.36 1.39
-11 11 -11 5 1.78
0 -12 0 360.43 26.52
0 0 -12 348.36 27.41
0 0 12 282.77 26.62
0 12 0 368.23 26.09
-12 0 0 327.05 25.25
-12 0 0 361.02 25.18
-12 -2 0 -0.3 0.44
0 -2 12 0.14 1.07
2 12 0 0.61 0.62
12 0 -2 0.06 0.2
2 -12 0 0.84 0.77
0 -12 -2 0.05 0.66
0 -12 2 1.45 1.09
0 12 -2 0.55 0.8
0 12 2 -0.36 0.61
-12 0 2 -0.13 0.41
2 0 12 0.35 0.92
-12 0 -2 0.24 0.32
-12 0 -2 0.46 0.46
-12 -2 0 0.37 0.41
-2 0 -12 -0.66 1.55
-2 0 12 -0.69 1.09
0 2 -12 0.96 1.14
0 2 12 -0.06 0.76
-2 12 0 0.28 0.59
0 -2 -12 1.29 1.56
2 0 -12 -1.08 1.11
-2 -12 0 0.46 0.73
-2 -12 -2 31.24 3.38
-12 -2 2 31.92 3.11
2 12 -2 24.96 3.16
-2 -2 12 27.06 4.02
2 12 2 32.16 3.18
-2 2 12 33.42 3.99
-2 12 -2 26.6 3.12
-12 -2 -2 25.27 2.57
-12 -2 -2 26.77 2.68
2 -12 2 22.68 3.39
2 -2 -12 28.5 4.12
2 -2 12 25.07 3.93
-2 12 2 28.54 3.01
2 2 12 31.3 3.84
-2 2 -12 24.25 3.82
2 2 -12 26.09 4.16
12 2 -2 23.15 2.41
2 -12 -2 25.41 3.15
-2 -2 -12 25.36 4.06
-2 -12 2 28.94 3.67
0 4 -12 48.39 5.69
0 4 12 47.68 5.01
4 -12 0 41.05 4.51
4 12 0 45.77 4.4
4 0 -12 36.79 5.2
4 0 12 41.7 5.01
-12 0 4 44.77 4.16
-4 -12 0 43.05 4.72
-4 12 0 37.23 4.15
0 -4 -12 41.7 5.38
0 -4 12 42.49 5.4
12 0 -4 44.28 3.85
-12 0 -4 47.22 3.76
-12 0 -4 47.84 4.28
-4 0 -12 45.36 5.59
-4 0 12 46.57 5.36
0 -12 4 43.15 4.99
0 12 -4 49.96 4.78
0 -12 -4 50.54 4.67
0 -12 -4 37.31 4.26
-12 -4 0 45.21 4.28
2 -12 -4 195.37 15.03
4 -12 2 204.93 15.53
-12 -2 -4 208.31 14.44
-12 -2 -4 195.31 14.75
12 -2 4 186.61 14.13
2 4 -12 194.46 16.21
2 -4 12 199.34 16.21
-2 12 -4 175.39 15.05
2 -12 -4 196.06 15.01
-4 12 2 186.86 14.7
-2 -4 -12 172.9 15.86
-2 4 12 164.61 15.28
-12 -4 2 187.03 15.06
12 2 -4 196.9 14.57
4 2 12 173.79 15.42
-4 -2 12 168.5 15.79
-4 2 -12 187.79 16.34
4 12 -2 186.94 15.08
-2 -12 4 184.81 15.72
-12 2 4 175.45 14.09
-4 -12 -2 169.65 15.02
-2 -12 -4 211.42 15.2
2 4 12 209.57 15.63
4 -12 -2 191.03 15.02
-2 -4 12 183.59 16.1
-2 4 -12 170.21 16.02
4 12 2 204.58 15
-4 -12 2 190.23 15.54
2 -12 4 193.42 15.76
-2 -12 -4 205.65 15.25
-12 -4 -2 167.39 14.48
-12 -4 -2 201.26 14.7
4 2 -12 175.63 16.05
2 -4 -12 219.83 16.34
12 -2 -4 185.22 14.15
-4 12 -2 180.77 14.9
2 12 -4 172.95 15.07
4 -2 12 190.67 15.79
-12 -2 4 188.98 15.03
-12 2 -4 174.74 14.44
-4 -2 -12 184.75 16.05
12 4 -2 174.28 14.36
-4 2 12 201.78 15.72
-12 -4 4 344.15 27.64
-12 -4 -4 370.67 26.87
-4 -12 -4 327.44 27.39
-4 -12 4 377.43 28.31
-4 -4 -12 368.06 28.39
-4 -4 12 351.37 28.58
4 4 12 385.58 27.84
-4 12 -4 351.21 27.4
4 -12 -4 372.11 27.37
4 -12 -4 335.66 27.25
4 12 -4 359.18 27.56
-12 4 -4 363.4 26.66
-4 -12 -4 359.72 27.48
4 -4 -12 369.69 28.53
4 4 -12 339.39 28.47
12 -4 -4 391.54 26.6
12 -4 4 333.18 26.49
-4 4 -12 388.94 28.82
-4 4 12 296.48 27.56
12 -4 -4 348.93 26.24
4 -12 4 377.26 28.19
6 -12 0 2.9 1.1
0 6 12 3.6 1.5
0 -6 12 0.86 1.46
-12 0 6 2.54 1.02
0 6 -12 3.07 1.59
-12 0 -6 3.92 1.28
0 12 -6 4.31 1.4
6 0 -12 3.78 1.92
-12 -6 0 5.12 1.45
-6 0 -12 3.71 1.79
0 -12 6 3.12 1.59
6 12 0 3.11 1.12
12 0 -6 3.42 1.11
0 -6 -12 2.4 1.42
-6 0 12 4.76 1.81
0 -12 -6 2.91 1.03
0 -12 -6 4.01 1.37
6 0 12 4.74 1.53
12 0 6 2.78 0.84
-6 12 0 3.49 0.93
-6 -12 0 2.14 1.25
-2 -12 6 28.43 3.92
-6 -12 -2 19.73 2.91
-6 -2 12 26.12 3.89
-6 2 -12 24.87 3.91
12 -2 6 23.83 2.48
-2 12 -6 24.44 3.17
2 -6 12 22.65 3.66
2 6 -12 22.53 3.63
-2 -6 -12 22.55 3.65
-12 -2 -6 21.62 3.25
-12 -6 2 20.39 3.01
6 2 12 16.43 2.93
6 -2 -12 16.32 3.59
-12 2 6 22.32 2.51
12 -6 -2 25.64 1.92
6 12 -2 22.57 2.85
12 -6 -2 22.67 1.87
12 2 -6 19.69 2.65
-2 6 12 22.91 3.13
6 -12 2 21.57 3.12
2 -12 -6 18.81 2.86
2 -12 -6 24.01 2.76
-6 12 -2 24.11 2.73
-2 -12 -6 19.38 2.93
6 12 2 25.17 2.81
-12 -6 -2 21.3 2.67
-6 2 12 25.79 3.53
12 -6 2 22.51 2
2 6 12 27.47 3.2
6 -12 -2 20.78 2.72
-2 -6 12 23.45 3.97
-12 -2 6 22.36 3.21
-12 2 -6 19.61 2.77
6 2 -12 20.11 3.56
12 -2 -6 20.8 2.64
-6 -2 -12 25.59 3.88
2 -12 6 18.68 3.22
6 -2 12 17.36 3.19
-12 -6 -2 18.16 2.51
2 12 -6 26.99 3.33
-6 -12 2 19.47 3.06
2 -6 -12 26.27 3.74
-2 -12 -6 21.84 2.73
-2 6 -12 20.3 3.74
-4 -12 6 180.93 15.32
-4 12 -6 195.13 14.6
12 -4 6 183.6 13.81
-6 -4 12 168.93 15.33
6 -12 4 173.32 14.79
6 12 -4 173.96 14.28
6 -4 -12 172.28 15.14
12 4 -6 171.98 14.07
6 4 12 167.9 15.51
-6 -12 -4 205.59 14.52
-12 -6 4 165.73 14.62
4 -6 12 155.46 15.03
4 -12 -6 198.5 14.11
4 -12 -6 162.49 14.23
4 6 -12 169.95 15.24
-4 6 12 165.97 14.33
-12 -4 -6 182.12 13.83
-6 4 -12 174.21 15.32
-12 -4 -6 152.04 14.1
-6 -12 -4 194.22 14.48
-4 -6 -12 148.13 14.74
-12 6 -4 183.79 13.46
-4 -12 -6 161.49 14.01
6 4 -12 179.7 15.37
-6 -12 4 178.68 15.07
-6 12 -4 179.02 14.21
-12 -4 6 177.4 14.77
6 -12 -4 184.53 14.09
6 -12 -4 186.74 14.21
-4 -12 -6 168.15 14.37
4 12 -6 185.4 14.67
6 -4 12 163.01 14.99
-4 6 -12 196.9 15.66
-12 -6 -4 170.83 14.07
4 -6 -12 153.48 14.89
-12 4 -6 184.58 14.1
-6 -4 -12 202.02 15.42
12 -6 4 197.6 13.95
12 -4 -6 179.22 14
-4 -6 12 182.26 15.62
4 -12 6 184.59 15.21
-12 -6 -4 146.35 13.72
12 6 -4 179.77 14.17
-6 4 12 141.25 14.31
-6 -6 12 82.07 8.7
-6 -12 6 80.87 8.37
-12 -6 6 84.32 8.2
-12 -6 -6 71.43 7.02
-12 -6 -6 81.24 7.54
6 -6 -12 86.37 8.38
6 -6 12 74.52 8.22
6 6 -12 90.74 8.65
-6 12 -6 90.02 7.71
6 12 -6 76.4 7.64
12 -6 -6 76.63 7.23
12 6 -6 72.5 7.29
6 -12 -6 91.83 7.27
-6 6 -12 75.43 8.33
-6 6 12 94.97 7.8
6 6 12 94.75 7.92
-12 6 -6 78.02 7.16
-6 -12 -6 89.26 7.45
6 -12 -6 89.85 7.62
6 -12 6 72.82 8.08
-6 -12 -6 88.25 7.77
0 -8 -12 41.86 4.76
12 0 8 37.23 3.67
8 -12 0 30.68 3.8
8 12 0 37.04 3.75
8 0 -12 32.54 4.58
-12 0 8 34.82 4.05
-8 -12 0 35.82 4.16
-8 12 0 33.57 3.42
0 -12 -8 33.9 4.03
-8 0 -12 39.44 4.92
-8 0 12 27.69 4.21
0 -8 12 34.72 5.03
0 8 -12 33.12 4.51
0 8 12 38.49 4.22
0 12 -8 31.13 4.08
8 0 12 29.64 4.08
12 -8 0 31.42 3.24
12 -8 0 33.11 2.97
12 8 0 38.02 3.58
-12 -8 0 30.29 3.73
12 0 -8 37.2 4.04
0 -12 -8 28.53 3.53
0 -12 8 41.2 5.08
12 -2 8 1.18 0.89
8 -2 -12 -0.06 1.28
-2 12 -8 0.96 1.09
12 -8 -2 1.51 0.59
2 -8 12 0.66 1.57
8 -12 2 0.36 0.92
8 12 -2 0.7 0.75
-2 -8 -12 -0.46 0.95
-2 -12 8 0.25 1.07
12 -8 -2 1.11 0.53
-12 -8 2 1.09 0.95
-12 8 -2 1.02 0.46
2 8 -12 -0.43 0.74
2 -12 -8 0.53 0.86
2 -12 -8 0.25 0.54
-8 -2 12 2.64 1.59
-8 2 -12 0.49 1.21
-12 2 8 1.32 0.87
-2 8 12 1.31 1.21
-12 -2 -8 0.64 0.99
8 2 12 0.36 0.97
-8 -12 -2 -0.27 0.68
12 2 -8 0.61 0.89
8 12 2 0.89 0.57
-8 12 -2 1 0.63
-2 8 -12 2.69 1.59
-2 -8 12 2.96 1.87
8 2 -12 0.22 1.16
-2 -12 -8 1.34 1.01
-8 -12 2 0.15 0.93
-8 -2 -12 1.24 1.49
2 -12 8 1.6 1.59
8 -12 -2 1.33 0.81
8 -2 12 1.27 1.19
12 8 -2 0.48 0.69
-8 2 12 0.66 0.99
-12 -2 8 0.14 1.03
2 8 12 2.37 1.33
8 -12 -2 0.88 0.69
12 -8 2 0.5 0.77
-2 -12 -8 1.12 0.7
2 12 -8 1.08 1.02
-12 -8 -2 2.18 0.96
-12 -8 -2 0.61 0.73
12 2 8 0.26 0.62
2 -8 -12 1.75 1.36
12 -2 -8 -0.08 0.8
12 -8 -4 40.46 4.23
-4 -12 8 44.12 5.63
12 -8 -4 41.55 3.93
8 4 12 49.26 5
-8 -12 -4 51.88 4.89
-8 -12 -4 41.49 4.67
-4 8 12 56.03 5.16
8 12 -4 46.34 4.75
-4 -8 -12 41.13 5.24
4 -12 -8 47.13 4.56
-12 -4 -8 40.22 4.92
-8 -4 12 43.55 5.68
-12 4 8 51.83 4.46
4 8 -12 50.32 5.7
-12 -8 4 50.25 5.49
-4 12 -8 40.99 4.96
8 -12 4 47.26 5.3
-12 8 -4 43.92 4.07
8 -4 -12 40.48 5.41
-8 4 -12 42.81 5.56
12 4 -8 47.95 4.96
4 -8 12 41.57 5.67
4 -12 -8 38.32 4.7
12 -4 8 50.9 4.71
-8 -4 -12 51.46 5.73
-8 -12 4 40.03 5.22
4 -8 -12 43.59 5.36
-12 -8 -4 50.25 4.68
4 12 -8 43.56 5.02
-12 -4 8 45.15 5.37
-4 -8 12 42.2 5.87
12 -8 4 38.31 4.42
12 8 -4 52.23 4.68
4 -12 8 55.93 5.96
8 -4 12 49.51 5.45
8 4 -12 45.9 5.55
4 8 12 51.06 5.02
-8 4 12 45.36 5.06
-4 -12 -8 50.37 4.8
-4 -12 -8 44.61 5.05
-4 8 -12 53.47 5.83
8 -12 -4 46.62 4.68
12 -4 -8 40.61 5.95
8 -12 -4 38.65 4.32
-12 -8 -4 52.95 4.97
-8 12 -4 44.35 4.49
6 -12 -8 -0.24 0.47
8 -12 6 1.03 1.03
8 12 -6 -0.56 0.55
12 -8 -6 0.41 0.76
-12 -8 6 -1.05 1.03
-12 8 -6 0.59 0.53
6 8 -12 -1.1 0.81
-8 -12 -6 0.52 0.48
-8 -12 -6 -0.73 0.74
12 -6 8 1.03 0.9
6 -12 -8 0.88 0.86
-12 -6 -8 0.6 0.67
-12 -6 -8 -1.1 0.6
-6 -12 8 0.57 0.96
-12 6 8 -0.63 0.37
-6 12 -8 -0.08 0.7
12 6 -8 0.32 0.77
8 -6 -12 -1.48 0.76
-6 -8 -12 -1.12 0.91
-8 6 -12 -0.22 1.1
-6 8 12 0.79 0.81
-8 -6 12 1.26 1.59
6 -8 12 0.83 1.35
8 6 12 0.39 0.83
12 -8 -6 0.33 0.46
12 -6 -8 -0.33 0.77
-12 -6 8 0.6 1.36
-6 -12 -8 0.07 0.46
-6 -8 12 -0.09 1.45
8 -12 -6 -0.9 0.47
8 -12 -6 1.11 0.85
12 -8 6 0.54 0.68
6 12 -8 0.43 0.77
-6 -12 -8 -1.53 0.54
8 -6 12 -0.01 1.21
8 6 -12 0.62 1.12
-12 -8 -6 0.32 0.79
-8 6 12 0.03 0.78
6 -12 8 0.98 1.31
-8 -6 -12 -1.25 0.88
6 -8 -12 1.62 1.38
-8 -12 6 -0.2 1.27
-8 12 -6 0.41 0.74
6 8 12 1.07 0.92
-12 -8 -6 2.06 0.86
-6 8 -12 0 1.01
12 8 -6 0.32 0.61
8 12 -8 17.79 2.85
-12 -8 -8 16.81 2.95
8 -12 8 22.45 4.28
8 -8 -12 15.89 3.39
8 -8 12 21.96 4.32
8 8 -12 20.53 3.27
-12 -8 8 19.27 4.05
-8 -8 12 16.09 3.82
-8 8 -12 21.17 3.52
8 -12 -8 24.36 2.67
12 -8 -8 17.59 2.95
-8 8 12 19.15 2.94
-8 12 -8 24.83 3.23
8 -12 -8 20.35 3.15
-12 -8 -8 18.36 2.53
-12 8 -8 17.56 2.78
-8 -12 -8 18.87 2.69
12 -8 8 22.48 3.26
12 8 -8 21.65 3.03
-8 -8 -12 14.62 3.22
8 8 12 15.24 2.64
-8 -12 -8 23.15 3.25
-8 -12 8 16.26 3.86
0 12 -10 34.16 4.49
0 -12 10 33.47 4.9
12 0 10 39.56 3.93
10 12 0 36.4 3.79
-12 0 10 33.97 4.24
0 -12 -10 29.65 4.15
0 -10 12 34.31 5.2
0 10 -12 32.28 4.55
-12 0 -10 31.02 4.48
10 -12 0 26.22 4.58
10 0 12 25.64 3.84
12 -10 0 36.79 3.7
0 -10 -12 42.84 4.77
0 -12 -10 32.26 3.66
10 0 -12 37.05 4.72
-12 -10 0 36.58 4.13
12 10 0 35.71 3.71
12 -10 0 36.44 3.24
-10 -12 0 35.94 4.23
0 10 12 25.86 3.71
12 0 -10 35.16 4.38
-10 0 -12 32.66 4.75
-10 0 12 34.18 4.4
-2 -12 10 5.63 2.47
12 2 -10 9.52 2.36
12 -10 -2 9.44 1.41
-10 -2 12 5.46 1.88
10 -12 2 7.03 2.37
10 12 -2 6.43 1.53
10 -2 -12 9.33 2.57
2 -12 -10 6 1.87
2 -10 12 8.27 2.65
-10 2 -12 9.68 2.63
-10 -12 -2 6.85 1.97
10 2 12 9.74 2.14
2 10 -12 3.85 1.86
2 -12 -10 9.56 1.99
-12 -2 -10 5.57 1.98
12 -2 10 9 1.93
12 -10 -2 4.93 1.22
-2 12 -10 10.59 2.57
-2 10 12 8.34 2.05
-2 -10 -12 8.02 2.42
-12 10 -2 5.65 1.03
-12 -10 2 4.89 1.71
10 -2 12 4.12 1.5
-10 12 -2 5.62 1.26
12 2 10 6.81 1.64
2 -12 10 3.59 2.13
-10 -2 -12 4.12 1.96
12 -10 2 8.21 1.85
12 10 -2 7.69 1.61
-2 -10 12 2.74 2.08
12 -2 -10 5.33 1.9
2 10 12 3.5 1.3
2 -10 -12 4.98 2.15
2 12 -10 7.28 2.09
10 2 -12 3.61 1.88
-10 -12 2 8.56 2.32
-2 -12 -10 5.72 1.89
-12 -2 10 5.77 2.03
-10 2 12 7.31 2.11
-2 -12 -10 5.42 1.47
-12 2 -10 5.63 2.05
-2 10 -12 5.74 2.23
-12 -10 -2 4.01 1.42
-12 -10 -2 4.98 1.66
4 10 -12 64.9 6.95
4 -12 -10 62.75 5.85
-12 10 -4 69.52 5.52
12 -10 -4 56.68 5.65
-4 -12 10 66.57 7.45
4 -10 12 60.65 7.17
-10 -12 -4 55.18 5.94
10 12 -4 52.84 5.84
-4 12 -10 62.99 6.64
4 -12 -10 57.49 6.43
-12 -10 4 67.96 6.86
-12 -4 -10 62.38 6.6
12 -10 -4 59.83 5.45
-10 -12 -4 70.24 6.26
-10 4 -12 72.83 7.25
10 -4 -12 53.5 6.69
-4 10 12 46.94 5.77
-4 -10 -12 57.92 6.58
12 4 -10 56.49 6.39
-10 -4 12 59.03 7.02
12 -4 10 71.97 6.42
-12 4 10 64.21 6
10 4 12 57.71 6.08
10 -4 12 64.94 6.54
10 4 -12 67.92 6.94
-10 12 -4 57.71 5.61
-10 -4 -12 66.64 6.98
12 4 10 53.52 5.77
10 -12 -4 66.74 5.99
-12 -10 -4 63.53 6
-4 -12 -10 71.54 6.11
-4 10 -12 60.73 6.8
-12 -10 -4 56.02 5.91
12 -4 -10 45.11 6.1
-10 4 12 58.55 6.2
4 -12 10 66.29 7.34
4 12 -10 70.23 6.82
12 10 -4 64.04 6.03
4 -10 -12 73.69 7.07
-10 -12 4 60.49 6.73
4 10 12 70.81 6.33
10 -12 -4 64.9 6.1
-12 -4 10 66.21 7.07
-12 4 -10 68.09 6.74
12 -10 4 66.97 6.31
-4 -12 -10 70.14 6.69
-4 -10 12 63.9 7.46
-10 -6 12 13.19 3.36
10 -6 -12 8.91 2.61
12 -6 10 7.99 2.2
-12 -6 -10 8.37 2.48
10 6 12 9.29 2.18
10 12 -6 13.31 2.69
12 -10 -6 8.45 1.54
-10 6 -12 8.66 2.57
6 10 -12 9.59 2.81
-12 6 10 14.62 2.11
10 -12 6 12.03 3.75
-6 -10 -12 16.05 3.34
-12 -10 6 13.29 3.09
-12 10 -6 13.48 2
-6 10 12 9.4 2.02
12 -10 -6 10.25 2.15
6 -12 -10 13.04 2.03
6 -12 -10 9.11 2.49
-6 -12 10 12.04 3.09
6 -10 12 11.36 3.28
-10 -12 -6 10.03 2.39
-6 12 -10 7.47 2.34
12 6 -10 11.75 2.75
-10 -12 -6 11.16 2.37
-12 -10 -6 13.85 2.13
-10 -12 6 17.16 3.78
6 -12 10 11.39 3.24
12 -6 -10 11.88 2.66
-6 -10 12 9.81 3.13
-6 10 -12 9.75 2.53
-10 -6 -12 10.35 2.73
6 -10 -12 9.77 2.65
10 -6 12 8.97 2.44
10 -12 -6 8.01 1.78
10 -12 -6 7.78 1.86
-6 -12 -10 14.03 2.92
-10 12 -6 13.38 2.18
-12 -10 -6 14.47 2.55
12 -10 6 10.85 2.59
12 10 -6 13.86 2.19
-12 6 -10 8.54 2.33
6 10 12 12.09 2.58
6 12 -10 13.15 2.71
10 6 -12 8.01 2.36
-12 -6 10 7.81 2.59
-6 -12 -10 14.07 2.16
-10 6 12 12.57 2.23
-12 -8 -10 -0.31 0.57
12 -10 -8 -0.49 0.4
-12 8 10 0.07 0.64
-10 -12 -8 0.28 0.63
-10 -12 -8 -0.44 0.77
-10 -8 12 1.19 1.53
-8 -10 -12 0.58 1.11
10 8 12 0.14 0.76
-8 10 12 -0.96 0.61
-8 -12 10 1.85 1.84
8 -10 12 0.19 1.05
8 10 -12 0.22 0.82
10 -8 -12 -0.95 1.14
10 -12 8 0.4 1.28
-10 8 -12 1.42 1.25
12 -8 10 0.54 1.02
12 8 -10 -1.67 0.61
-12 -10 8 -0.83 1.33
12 -10 -8 -0.75 0.8
-12 -8 -10 0.26 1.1
8 -12 -10 1.43 0.81
8 -12 -10 -0.32 0.87
-12 10 -8 1.44 0.95
-8 12 -10 -0.17 0.7
10 -12 -8 1.74 1.07
10 -12 -8 0.16 0.6
-12 8 -10 -0.58 0.64
-8 10 -12 1.08 1.26
12 -8 -10 1.59 1.35
-8 -12 -10 0.29 0.75
-8 -12 -10 0.8 1.15
-12 -10 -8 -0.71 0.42
-12 -10 -8 0.25 0.78
10 8 -12 1.13 1.04
-8 -10 12 0.56 1.38
-10 -8 -12 -0.53 0.8
-10 12 -8 -0.4 0.56
12 -10 8 -0.19 0.98
-10 8 12 0.61 1.07
8 -12 10 0.87 1.47
8 12 -10 -0.44 0.87
8 -10 -12 -0.18 1.09
10 -8 12 -0.92 1.09
-12 -8 10 -1.21 1.31
12 10 -8 0.7 0.85
-10 10 -12 0.38 1.1
-10 10 12 1.69 0.97
-12 -10 10 1.34 1.72
-12 10 -10 0.79 1.01
-10 -12 -10 0.23 0.7
-10 -12 -10 -0.17 1.13
-10 -12 10 0.93 1.17
-10 -10 -12 1.62 0.95
-10 -10 -12 2.19 1.5
-10 -10 12 0.92 2.12
-12 -10 -10 2.49 0.97
-12 -10 -10 0.08 1.06
12 -10 -10 1.91 1.56
12 -10 10 1.49 1.74
12 10 -10 0.14 0.88
10 12 -10 1.54 1.43
12 -10 -10 2.79 0.95
10 -12 -10 2.38 1.45
10 -12 10 -2.53 1.24
10 -10 -12 -0.17 1.25
10 10 -12 2.11 1.5
10 -12 -10 2.67 1
-10 12 -10 1.78 1.11
12 0 12 2.92 1.21
12 12 0 2.13 0.97
-12 -12 0 3.36 1.45
-12 0 -12 0.16 1.27
12 0 -12 2.05 1.42
12 -12 0 1.29 1.02
-12 0 12 3.66 2.25
0 -12 -12 2.61 1.44
0 -12 12 1.22 1.69
0 12 -12 2.45 1.44
12 2 12 44.66 4.73
12 -2 -12 46.94 7.47
12 -2 12 51.08 5.12
12 2 -12 38.04 5.22
12 -12 2 35.61 4.57
-12 2 12 51.3 5.22
-2 -12 -12 35.9 5.05
-2 -12 12 41.98 5.98
-2 12 -12 40.68 5.26
-2 12 12 34.27 4.47
2 -12 -12 51.48 5.52
2 -12 12 35.47 5.47
2 12 -12 37.58 5.04
12 -12 -2 43.57 4.47
12 -12 -2 47.25 4.37
-12 -12 -2 42.43 4.86
-12 -12 -2 47.08 4.89
-12 -12 2 42.77 5.14
-12 -2 -12 44.52 5.55
-12 -2 12 44.35 5.39
12 12 -2 40.54 4.38
-12 -12 -4 182.99 14.68
-12 -12 4 174.06 15.41
-12 -4 -12 170.51 15.47
-12 -12 -4 178.68 14.73
12 4 -12 178.64 15.34
12 4 12 177.22 14.55
12 12 -4 182.92 14.55
-12 12 -4 174.33 13.99
-4 -12 -12 157.83 15.1
-4 -12 12 173.19 16.1
-4 12 -12 199.05 15.67
4 -12 -12 163.04 15.1
4 -12 12 186.4 16.19
4 12 -12 178.93 15.45
12 -12 -4 195.95 14.36
12 -12 -4 160.52 14.24
-12 4 -12 189.15 15.69
-12 4 12 174.9 14.64
-12 -4 12 196.9 15.92
12 -12 4 177.32 15.04
12 -4 -12 182.76 15.55
12 -4 12 150.93 14.76
6 -12 -12 49.52 6.46
-6 -12 -12 73.62 6.2
-6 -12 -12 58.81 6.68
6 12 -12 57.87 6.61
12 -12 -6 65.08 5.65
12 -12 -6 59.8 6.04
12 -12 6 51.7 6.38
12 -6 -12 58.63 6.88
12 -6 12 54.5 6.4
-12 -12 -6 65.78 6.15
-12 -12 -6 69.8 6.5
-12 -12 6 68.66 7.18
-12 -6 -12 66.52 7.05
-12 -6 12 64.75 7.26
-12 6 -12 53.03 6.54
-12 6 12 61.71 6
-12 12 -6 60.6 5.74
12 12 -6 62.39 6.04
-6 12 -12 41.69 6.07
12 6 -12 57.26 6.61
12 6 12 58.72 5.98
-6 -12 12 64.71 7.68
6 -12 12 64.36 7.46
-12 -12 -8 10.18 2.51
-12 -12 -8 14.58 2.33
-8 12 -12 18.11 3.53
8 -12 -12 16.09 3.43
8 -12 12 14.54 3.7
8 12 -12 16.21 3.43
12 -12 -8 14.71 2.14
12 -12 -8 15.07 2.97
12 -12 8 17.44 3.68
12 -8 -12 14.78 3.31
12 -8 12 10.98 2.95
12 8 -12 12.91 3
12 12 -8 16.17 2.68
-12 8 12 16.14 2.49
-12 12 -8 18.16 2.64
-8 -12 -12 14.08 2.38
-8 -12 -12 13.5 3.1
-8 -12 12 19.51 4.33
-12 8 -12 9.89 2.67
-12 -8 12 15.68 4.07
-12 -8 -12 15.53 3.45
-12 -12 8 14.78 3.66
10 12 -12 32.52 4.47
10 -12 12 34.2 5.2
10 -12 -12 41.08 5.16
-12 -12 -10 27.79 3.78
-12 -12 -10 37.04 4.72
-12 -12 10 43.7 5.81
-12 -10 -12 35.98 4.06
-12 -10 -12 33.94 4.69
-12 -10 12 36.66 5.67
-12 10 -12 39.04 4.8
-12 10 12 28.59 3.85
-12 12 -10 36.29 4.39
-10 -12 -12 35.18 4.07
-10 -12 -12 39.05 5.04
-10 -12 12 34.24 5.59
-10 12 -12 37.69 4.7
10 -12 -12 35.29 3.91
12 -10 12 33.13 4.94
12 10 -12 29.99 4.39
12 12 -10 37.19 4.57
12 -10 -12 35.63 5.07
12 -12 10 27.42 4.86
12 -12 -10 35.75 4.74
12 -12 -10 33.78 3.74
-12 -12 -12 55.86 5.81
-12 12 -12 64.63 6.66
12 -12 12 63.15 7.26
12 -12 -12 68.09 7.26
12 -12 -12 50.48 5.49
12 12 -12 53.92 6.3
-12 -12 12 51.03 7.25
-12 -12 -12 62.14 6.83
-13 -1 -1 27.66 2.4
-13 -1 -1 22.3 2.28
-13 -1 1 21.65 2.42
-13 -1 1 22.77 2.13
-1 -13 -1 23.58 3.16
-1 -13 1 21.96 3.19
-1 -1 -13 16.27 3.56
-1 -1 13 21.38 3.61
-1 1 -13 26.08 3.89
-1 1 13 20.13 3.22
1 -13 -1 22.58 3.18
1 -13 1 27.45 3.43
1 -1 -13 28.18 4.19
1 -1 13 24.48 3.7
1 1 -13 28.55 4.18
1 1 13 24.59 3.49
1 13 -1 21.89 2.82
1 13 1 25.57 2.95
-13 -1 -3 56.97 4.76
-13 -1 -3 54.66 5.03
3 -13 1 61.01 5.93
-13 -3 1 67.98 5.49
-3 13 1 53.81 5.25
-3 -1 13 62.2 6.49
-3 1 -13 66.24 6.97
-1 -3 -13 50.69 6.39
-1 3 13 51.16 5.91
-1 -13 3 55.96 6
-1 13 -3 66.07 6.67
1 -13 -3 63.44 5.67
1 -3 13 59.33 6.5
1 3 -13 55.55 6.62
3 -1 -13 51.19 6.46
3 13 -1 56.51 5.44
3 1 13 50.07 5.89
13 1 -3 56.14 4.69
-3 -13 -1 50.31 5.62
-13 -1 3 56.59 5.17
-13 1 -3 59.31 4.6
-13 1 -3 61.71 5.04
-3 -13 1 54.57 5.84
-3 13 -1 58.56 5.36
-3 -1 -13 49.1 6.33
-3 1 13 48.28 5.93
-1 -3 13 57.68 6.54
-1 3 -13 66.68 6.99
3 1 -13 56.74 6.49
1 -3 -13 59.21 6.64
1 -13 3 46.82 5.77
1 13 -3 57.13 5.51
1 3 13 68.51 6.34
3 -1 13 61.48 6.43
13 -1 -3 56.25 4.38
13 3 -1 59.72 4.83
3 -13 -1 56.65 5.7
-13 -3 -1 66.84 5.21
-13 -3 -1 61.1 5.05
3 13 1 54.26 5.43
-1 -13 -3 59.79 5.61
13 3 -3 157.52 11.6
3 -13 3 134.37 12.66
-3 -13 3 153.26 12.86
-3 -3 -13 163.82 13.47
-3 -3 13 141.25 13.15
-3 3 -13 137.22 13.32
-3 3 13 146.59 12.71
-3 13 -3 153.38 12.21
3 -13 -3 131.04 12.04
3 -13 -3 173.26 12.46
-13 -3 3 147.09 12.22
3 -3 -13 186.69 13.87
-3 -13 -3 125.56 12.09
-13 -3 -3 137.84 11.55
-13 -3 -3 150.33 11.84
3 13 -3 158.51 12.36
3 3 -13 154.69 13.55
3 3 13 138.67 12.59
3 -3 13 145.45 13.21
1 -13 -5 40.28 4.17
-5 1 -13 39.26 5.29
-1 5 13 30.38 4.32
-13 -1 -5 46.45 3.62
-1 -13 5 37.89 4.86
-13 1 5 39.32 3.71
-5 -1 13 33.36 4.68
13 -1 5 41.27 3.52
13 1 -5 37.03 3.66
-1 -5 -13 47.34 5.37
-1 13 -5 47.79 6.39
1 -13 -5 39.45 4.22
1 -5 13 34.9 5.05
1 5 -13 38.5 5.09
-5 13 1 44.2 4.01
5 -1 -13 41.2 5.29
5 -13 1 40.38 4.51
5 13 -1 41.61 4.13
5 1 13 42.36 4.69
-5 -13 -1 37.07 4.42
-13 -1 -5 35.52 4
-13 -5 1 41.17 4.25
1 -13 5 34.14 4.79
1 5 13 41.41 4.49
1 -5 -13 37.12 5.09
5 13 1 39.27 4.05
13 5 -1 38.5 3.64
-5 1 13 45.88 5.08
-13 -5 -1 33.18 3.83
-1 -13 -5 32.95 4.06
-1 -5 13 43.91 5.48
-1 5 -13 30.64 4.85
-5 13 -1 40.41 3.96
-5 -1 -13 42.78 5.28
1 13 -5 34.1 4.23
-1 -13 -5 34.59 4.05
-13 -1 5 37.81 4.09
-5 -13 1 39.88 4.59
5 1 -13 43.77 5.48
5 -1 13 46.21 4.99
5 -13 -1 32.3 4.06
13 -1 -5 40.44 3.62
5 -13 3 169.64 14.63
5 -3 -13 152.98 15.03
-5 -13 -3 196.48 14.39
-5 3 -13 191.26 15.62
-3 -5 -13 158.05 14.9
-5 -3 13 159.86 14.99
-3 -13 5 172.49 14.98
-3 5 13 192.02 14.7
-13 3 5 174.15 13.13
-13 -3 -5 161.06 13.46
5 13 -3 168.54 14.11
13 3 -5 171.91 13.75
-13 -5 3 166.79 14.29
3 -5 13 177.76 15.28
13 -3 5 159.91 13.55
3 5 -13 167.12 15.28
5 3 13 179.76 14.58
3 -13 -5 149.8 13.83
3 -13 -5 157.96 14
-3 13 -5 168.61 14.21
-3 -13 -5 182.42 14.2
-3 5 -13 169.21 15.16
3 -13 5 175.52 14.98
3 13 -5 193.79 14.5
-3 -5 13 172.7 15.37
-5 -13 3 200.52 15.01
-5 3 13 167.82 14.51
13 -5 3 169 12.76
-3 -13 -5 188.62 14.36
-13 -3 5 174.65 14.36
-13 3 -5 189.89 13.71
13 -3 -5 173.69 13.35
13 5 -3 171.69 13.62
5 -3 13 148.74 14.66
-5 -3 -13 193.92 15.39
-13 -5 -3 186.05 13.76
3 5 13 157.72 14.24
5 -13 -3 200.43 14.24
5 -13 -3 163.72 13.94
-5 13 -3 186.66 14.1
-5 -13 5 238.94 19.42
-5 -13 -5 235.57 18.6
-5 -5 -13 229.26 19.32
-5 -5 13 236.59 19.77
-13 -5 -5 217.7 17.87
-13 -5 -5 234.75 18.38
5 -13 -5 223.45 18.42
5 -13 5 210.47 19.04
5 -5 -13 220.68 19.45
5 -5 13 247.02 19.59
-5 5 -13 219.27 19.47
-5 -13 -5 218.13 18.4
5 5 -13 242.07 19.75
5 5 13 256.36 18.85
5 13 -5 235.99 18.64
13 -5 -5 224.23 17.28
13 -5 -5 229.66 17.72
13 -5 5 227.7 17.67
13 5 -5 232.61 18.14
-13 5 -5 248.32 17.81
5 -13 -5 238.45 18.35
-13 -5 5 242.17 19.02
-5 13 -5 232.41 18.51
-5 5 13 241.99 18.86
7 13 -1 3.39 1.2
-7 -13 -1 7.76 2
13 -1 7 3.98 1.14
-1 -13 7 3.33 1.85
-1 7 13 2.71 1.36
-13 -7 1 2.95 1.32
-13 1 7 5.3 1.35
-7 1 -13 3.24 2.04
1 -7 13 7.51 2.51
1 7 -13 6.17 2.19
-7 13 1 6.1 1.38
1 -13 -7 2.47 1.14
1 -13 -7 3.65 1.34
13 1 -7 3.67 1.27
7 -1 -13 5.13 2.2
-1 -7 -13 3.18 1.7
7 1 13 3.49 1.45
-7 -1 13 4.96 2.06
7 -13 1 3.31 1.28
7 1 -13 1.87 1.56
1 7 13 4.42 1.51
7 -13 -1 4.66 1.41
-7 1 13 3.69 1.65
-7 13 -1 1.65 0.84
13 7 -1 3.2 0.98
1 -7 -13 6.13 2.17
-1 -7 13 4.89 2.1
-1 -13 -7 4.32 1.57
-7 -1 -13 3.61 1.82
1 -13 7 4.54 1.93
-1 7 -13 2.96 1.73
-1 -13 -7 4.12 1.22
-13 -7 -1 2.28 0.98
7 13 1 1.81 0.97
1 13 -7 4.07 1.37
-13 -1 7 3.55 2.06
13 1 7 3.52 0.98
-7 -13 1 6.34 1.72
-13 -7 -1 4.9 1.45
-13 1 -7 3.65 1.47
7 -1 13 1.21 1.25
3 7 -13 26.14 3.95
-7 -3 13 25.49 4.09
-13 -3 -7 24.39 2.62
13 -3 7 25.83 2.77
13 3 -7 22.69 3
-3 -7 -13 26.67 3.98
-13 7 -3 24.87 2.12
-3 7 13 18.87 3.08
-13 -7 3 23.68 3.42
-7 -13 -3 24.58 3.22
7 -3 -13 24.38 4.01
-7 3 -13 21.18 3.89
7 3 13 23.93 3.32
13 -7 -3 25.38 2.18
-3 -13 7 22.52 3.88
-3 13 -7 22.17 3.25
7 13 -3 30.39 3.33
3 -13 -7 26.43 3.35
13 -7 -3 22 2.28
3 -13 -7 23.46 2.9
-13 3 7 25.39 2.72
-13 -3 -7 25.28 3.29
7 -13 3 20.65 3.33
3 7 13 26.24 3.33
7 -3 13 20.56 3.55
13 -3 -7 24.66 3.03
-3 -13 -7 23.05 3.33
3 -7 -13 19.83 3.63
13 -7 3 23.66 2.41
13 7 -3 25.25 2.83
-3 -7 13 20.44 4.17
-7 3 13 26.39 3.51
3 13 -7 23.25 3.27
-13 3 -7 23.39 3.11
-7 -3 -13 16.66 3.61
-7 -13 3 21.51 3.46
7 -13 -3 27.29 3.15
7 -13 -3 21.82 2.87
7 3 -13 22.53 4.45
-3 -13 -7 33.01 3.3
-3 7 -13 32.33 4.4
-13 -7 -3 24.53 2.97
-13 -3 7 25.42 3.56
-7 13 -3 24.64 2.96
-13 -7 -3 24.33 3
3 -13 7 21.52 3.77
-7 -13 -5 36.77 4.33
5 -13 -7 30.83 3.85
-13 7 -5 41.41 3.73
7 -5 -13 46.12 5.42
-13 -7 5 34.19 4.7
5 -7 13 47.25 5.55
-13 -5 -7 31.86 3.8
-13 -5 -7 34.08 4.32
7 -13 5 45.39 5.28
-13 5 7 43.76 3.73
-5 -13 7 46.73 5.49
-7 -13 -5 42.97 4.58
-7 5 -13 37.46 5.15
13 5 -7 40.41 4.27
13 -5 7 40.57 4.01
7 13 -5 46.06 4.57
-5 7 13 43.46 4.6
-5 -7 -13 42.32 5.17
7 5 13 37.46 4.4
13 -7 -5 36.72 3.39
-5 13 -7 42.81 4.6
5 7 -13 36.97 5.02
5 -13 -7 34.84 4.29
-7 -5 13 44.65 5.6
13 -7 -5 31.27 3.78
5 13 -7 40.49 4.68
5 -13 7 36.86 5.08
7 -13 -5 34.03 4.02
-7 -13 5 43.78 5.25
-7 5 13 43.24 4.73
-13 5 -7 41.96 4.23
-5 7 -13 41.84 5.32
7 -5 13 33.31 4.88
7 5 -13 37.39 5.08
-13 -7 -5 33.83 4.14
7 -13 -5 43.24 4.42
13 -7 5 38.86 3.94
13 7 -5 39.13 4.11
5 7 13 46.33 4.78
-13 -5 7 44.11 5.16
-5 -13 -7 47.77 4.44
-5 -13 -7 50.83 4.97
-13 -7 -5 46.57 4.24
-5 -7 13 41.6 5.46
5 -7 -13 37.26 5.12
-7 -5 -13 39.77 5.12
-7 13 -5 36.06 4.17
13 -5 -7 43.63 4.38
-13 -7 -7 13.63 2.05
-7 -13 -7 14.34 2.25
-7 -13 -7 13.87 2.78
-7 -13 7 9.41 2.87
-7 -7 -13 12.58 3.01
-7 -7 13 9.1 3.12
-7 7 -13 10.2 2.86
-13 7 -7 14.99 2.17
7 -13 -7 9.87 2.33
-13 -7 7 13.25 2.99
13 -7 7 14.12 2.26
-13 -7 -7 15.04 2.56
13 7 -7 14.27 2.29
7 -7 13 13.31 3.27
7 7 -13 7.7 2.5
7 7 13 8.37 2.1
7 13 -7 10.95 2.54
13 -7 -7 13.44 1.62
13 -7 -7 13.77 2.35
-7 7 13 16.81 2.54
-7 13 -7 17.21 2.56
7 -13 7 13.79 3.26
7 -7 -13 16.8 3.49
7 -13 -7 10.94 1.9
9 -1 -13 2.67 1.77
9 1 13 8.32 2.07
13 -9 -1 8.18 1.19
13 1 -9 8.15 2.34
13 -9 -1 7.17 1.29
9 13 -1 4.76 1.45
-1 9 13 7.65 1.96
-9 1 -13 8.88 2.7
1 9 -13 8.53 2.64
-1 -9 -13 4.19 1.78
-13 1 9 5.02 1.71
-9 -13 -1 5.71 1.8
-1 -13 9 6.62 2.3
1 -9 13 11 3.01
-9 -1 13 8.51 2.57
9 -13 1 9.41 2.17
-13 -9 1 9.04 2.22
9 -1 13 3.24 1.56
-1 -13 -9 8.55 2.03
-13 -1 9 7.69 2.11
9 -13 -1 5.54 1.59
9 -13 -1 4.94 1.36
-13 -9 -1 4.35 1.53
13 -9 1 5.7 1.27
1 13 -9 6.85 1.94
-1 -9 13 9.53 2.94
-1 9 -13 5.48 2.24
1 -9 -13 7.36 2.28
9 1 -13 6.83 2.58
1 9 13 9.54 2.22
-13 1 -9 6.4 2.02
13 -9 1 6.01 1
-9 -1 -13 6.9 2.42
-1 -13 -9 9.4 1.64
9 13 1 6.35 1.49
13 -1 -9 9.31 2.16
-9 -13 1 4.58 1.76
13 1 9 7.31 1.56
13 9 -1 6.3 1.48
1 -13 9 4.38 2.05
-9 1 13 5.25 2
-9 13 -1 5.23 1.26
13 -9 -3 9.04 1.55
-13 9 -3 12.62 1.43
-13 3 9 14.55 2.15
-13 -9 3 11.62 2.63
-9 3 -13 13.81 3.24
9 3 13 9.19 2.13
-3 -9 -13 11.41 2.86
13 -9 -3 12.97 1.79
9 -13 3 12.27 2.67
-3 9 13 12.62 2.58
3 -9 13 12.94 3.37
3 9 -13 12.17 3.16
13 3 -9 12.46 2.6
13 -3 9 15.59 2.21
-9 -13 -3 10.88 2.35
9 13 -3 11.76 1.98
-3 13 -9 7.63 2.25
3 -13 -9 11.85 2.02
-13 -3 -9 16.46 3.28
-3 -13 9 14.01 3.28
-9 -3 13 19.39 3.73
9 -3 -13 12.45 3.18
-9 -13 -3 9.39 2.24
3 -13 -9 15.07 3.02
-13 3 -9 13.17 2.77
-9 -13 3 10.5 2.46
9 -13 -3 12.17 2.15
9 -13 -3 10.56 1.92
-3 9 -13 9.27 2.59
-3 -9 13 12.85 3.43
3 -9 -13 17.47 3.66
13 -9 3 7.87 1.79
-13 -9 -3 12.82 2.08
3 -13 9 14.94 3.72
3 9 13 8.29 2.06
9 3 -13 10.93 2.83
-9 13 -3 14.55 1.97
-3 -13 -9 10.51 1.93
13 3 9 15.29 2.19
-9 3 13 9.52 2.47
13 9 -3 12.46 1.93
-13 -9 -3 11.29 2.34
-13 -3 9 11.06 2.67
3 13 -9 9.43 2.35
9 -3 13 11.44 2.62
13 -3 -9 13.41 2.65
-9 -3 -13 13.1 3.18
-3 -13 -9 19.65 2.73
-5 13 -9 3.52 1.56
-5 -9 -13 7.82 2.57
13 5 -9 9.08 2.17
-5 9 13 8.33 2.04
-5 -13 9 4.75 2.4
-9 -13 -5 7.88 1.91
9 -5 -13 8.87 2.67
-13 -9 5 9.22 2.42
5 9 -13 8.76 2.56
9 5 13 11.56 2.5
13 -9 -5 9.8 1.35
13 -9 -5 10.87 1.81
9 -13 5 8.82 2.66
9 13 -5 10.17 2.2
5 -13 -9 11.53 1.87
-9 -5 13 12.83 3.19
-13 5 9 9.77 1.7
-9 -13 -5 9.49 2.11
-9 5 -13 8.33 2.55
5 -9 13 3.85 2.24
-13 9 -5 10.12 1.5
-13 -5 -9 7.83 2.29
13 -5 9 5.82 1.69
5 -13 -9 7.98 2.1
-13 -9 -5 7.74 1.77
9 -13 -5 7.23 1.71
-5 -13 -9 6.44 2.02
9 5 -13 8.64 2.56
5 9 13 6.29 1.89
5 -13 9 10.96 3.08
-9 5 13 11 2.46
5 13 -9 8.27 2.25
-5 9 -13 6.65 2.18
9 -5 13 5.03 2.02
13 -5 -9 7.24 2.1
-9 -13 5 4.2 2.22
-5 -9 13 9.48 3.08
5 -9 -13 10.94 2.89
-9 13 -5 8.97 1.85
-9 -5 -13 12.25 2.84
13 9 -5 7.13 1.78
-13 -5 9 5.02 2.17
13 -9 5 5.77 1.59
-5 -13 -9 6.25 1.75
9 -13 -5 8.25 1.96
-13 5 -9 6.5 1.99
-13 -9 -5 7.07 2
-13 -7 -9 16.99 3.36
9 13 -7 9.44 2.16
-9 -13 -7 8.2 2.02
-7 -9 -13 12.64 3.09
9 -13 7 12.07 3.25
-13 -9 7 8.42 2.6
-7 13 -9 12.19 2.66
7 -13 -9 10.75 1.89
7 -13 -9 11.11 2.5
13 -9 -7 12 1.59
13 -9 -7 10.26 2.26
9 7 13 9.44 2.33
-9 7 -13 14 3.16
-9 -7 13 9.53 3.04
-7 -13 9 8.06 2.79
-9 -13 -7 11.03 2.56
13 -7 9 10.06 2.33
13 7 -9 13.03 2.33
7 -9 13 10.44 3.18
7 9 -13 12.6 2.91
9 -7 -13 9.46 2.77
-7 9 13 13.84 2.36
-13 7 9 11.31 1.79
-13 -7 -9 14.75 2.11
13 -9 7 10.03 2.46
9 -13 -7 18.13 2.84
13 9 -7 13.15 2.24
-9 -7 -13 12.79 2.95
13 -7 -9 12.03 2.57
9 -13 -7 13.49 2.21
-13 -7 9 12.55 3.3
-13 7 -9 14.41 2.54
9 -7 13 13.93 3.25
-13 -9 -7 10.69 2.55
-13 -9 -7 10.97 1.95
-9 -13 7 8.42 2.69
9 7 -13 14.67 3.12
-7 9 -13 13.46 3.11
7 -9 -13 10.37 2.92
-7 -9 13 11.94 3.31
7 -13 9 11.44 3.11
7 13 -9 10.94 2.52
-7 -13 -9 10.33 2.28
-9 7 13 11.02 2.43
-7 -13 -9 12.27 2.65
7 9 13 11.73 2.57
-13 -9 -9 10.72 1.94
-9 -13 -9 8.99 2.34
9 9 -13 14.57 3.3
13 9 -9 11.23 2.58
13 -9 -9 8.47 1.55
-9 -9 13 14.02 3.65
9 13 -9 12.21 2.59
-9 13 -9 10.8 2.37
9 -13 -9 11.48 2.19
9 -13 -9 8.9 2.49
9 -13 9 9.93 3.1
9 -9 -13 10.52 2.78
9 -9 13 6.21 2.41
-13 9 -9 9.14 2.12
-9 9 -13 9.16 2.76
9 9 13 14.13 2.7
-9 9 13 11.38 2.29
13 -9 9 8.23 2.34
-13 -9 -9 11.91 2.7
-13 -9 9 11.12 3.36
-9 -13 -9 14.86 2.27
13 -9 -9 10.27 2.61
-9 -13 9 13.27 3.38
-9 -9 -13 9.76 2.79
11 -1 -13 8.42 2.6
13 -1 11 3.73 1.37
-11 -13 -1 4.62 1.74
11 1 13 5.8 1.72
-13 1 11 2.61 1.31
-1 11 13 2.29 1.44
-11 1 -13 3.84 2.07
11 -13 1 6.21 1.96
1 -13 -11 6.95 2.09
13 -11 -1 3.02 1.24
13 -11 -1 4.37 1.1
1 -13 -11 2.41 1.09
-1 13 -11 3.2 1.55
13 1 -11 3.83 1.7
11 13 -1 2.53 1.13
-13 -1 -11 11.47 2.81
1 11 -13 5.22 2.08
-1 -13 11 3.4 1.91
-11 -1 13 4.82 2.01
1 -11 13 6.88 2.47
-1 -11 -13 4.2 1.88
-13 -11 1 6.01 1.9
11 -1 13 5.73 1.8
13 -1 -11 4.39 1.71
-1 -11 13 2.42 1.91
1 13 -11 4.93 1.93
-1 11 -13 4.1 1.9
-1 -13 -11 5.47 1.57
1 -13 11 3.95 2.25
11 -13 -1 3.45 1.38
11 -13 -1 4.45 1.29
-13 -11 -1 5.11 1.68
-1 -13 -11 1.04 1.24
13 -11 1 5.8 1.62
13 -11 1 3.54 0.97
13 11 -1 4.42 1.28
-13 1 -11 4.07 1.97
-11 13 -1 3.57 0.99
11 13 1 5.46 1.49
1 11 13 5.48 1.62
11 1 -13 3.35 1.76
-11 1 13 4.54 1.79
-11 -13 1 3.09 1.61
1 -11 -13 4.76 2.07
-13 -1 11 3.86 1.66
-11 -1 -13 3.47 1.92
13 1 11 4.23 1.46
3 -11 13 134.68 12.31
-3 -13 11 131.84 12.3
13 -3 11 107.14 10.65
13 3 -11 113.73 11.93
-13 -11 3 136.11 11.68
11 -13 3 103.82 10.94
-11 -3 13 146.28 12.17
3 11 -13 139.47 12.02
13 -11 -3 124.81 10.37
11 -3 -13 135.77 12.06
3 -13 -11 117.04 11.3
13 -11 -3 127.48 10.32
-11 -13 -3 131.18 11.08
11 3 13 143.05 11.16
-3 11 13 98.72 10.48
11 13 -3 136.17 10.73
-3 13 -11 133.74 11.61
3 -13 -11 124.62 10.65
-13 -3 -11 109.12 11.43
-11 -13 -3 121.41 10.86
-11 3 -13 103.27 11.5
-13 11 -3 131.05 9.98
-3 -11 -13 141.71 11.77
3 -13 11 125.4 12.22
-3 -13 -11 119.62 11.31
3 -11 -13 120.97 11.57
11 -3 13 144.23 11.44
11 3 -13 126.77 11.73
11 -13 -3 124.5 10.59
11 -13 -3 139.62 10.69
-13 -11 -3 122.64 10.91
-11 3 13 125.56 11.12
-3 -13 -11 152 10.98
-13 -3 11 118.53 11.59
-13 3 -11 130.75 11.65
-11 -3 -13 133.47 11.98
13 -11 3 131.12 10.91
13 3 11 111.95 10.48
-11 -13 3 133.68 11.72
-11 13 -3 117.62 10.16
13 -3 -11 129.62 11.5
-3 -11 13 133.42 12.46
-3 11 -13 113.53 11.51
3 13 -11 127.45 11.5
3 11 13 121.43 10.9
-13 -11 -3 111.65 10.63
13 11 -3 117.85 10.45
5 -13 -11 101.26 10.1
-5 -13 11 113.76 11.13
13 5 -11 106.38 10.05
11 -13 5 108.71 10.24
-5 11 13 120.76 9.77
-11 -5 13 98.59 10.63
5 -11 13 100.3 10.79
5 11 -13 118.77 10.66
-13 -5 -11 94.97 10.05
-11 -13 -5 106.71 9.64
11 -5 -13 130.47 11.81
-5 13 -11 85.88 9.79
-11 -13 -5 121.68 9.94
-5 -11 -13 116.02 10.5
-13 5 11 124.75 9.6
-13 -11 5 101.33 10.34
13 -5 11 104.51 9.75
5 -13 -11 96.98 9.28
11 5 13 96.75 9.47
13 -11 -5 113.83 9.08
13 -11 -5 112.23 9.49
11 13 -5 107.61 9.6
13 11 -5 103.16 9.5
-11 5 13 100.6 9.65
13 -11 5 111.48 9.91
-5 11 -13 88.3 10.07
11 -5 13 119.29 10.32
-5 -13 -11 109.33 9.59
-5 -13 -11 108.42 10.21
5 11 13 107.42 9.8
-13 -11 -5 97.97 9.44
-13 -5 11 102.42 11.1
-13 5 -11 85.14 9.85
5 -13 11 123.38 11.28
5 13 -11 105.93 10.14
-11 -13 5 99.08 10.4
-11 13 -5 103.1 9.18
-5 -11 13 115.83 11.41
11 -13 -5 115.69 9.7
11 5 -13 110.34 10.57
13 -5 -11 112.61 10.32
-11 -5 -13 131.73 11.06
5 -11 -13 119.34 10.61
13 5 11 135.25 9.89
-13 -11 -5 122.06 10.06
11 -13 -5 119.83 9.42
7 11 -13 18.45 3.36
-13 11 -7 19.22 2.71
-7 11 13 16.11 2.71
11 13 -7 20.6 2.98
7 -13 -11 15.49 3.36
-7 13 -11 16.04 3.49
-13 -11 7 23.8 4.08
-13 7 11 19.69 2.75
7 -11 13 22.72 4.02
11 7 13 18.11 2.84
13 -11 -7 19.94 2.48
13 -11 -7 17.19 2.94
-7 -11 -13 19.64 3.58
-11 -13 -7 24.63 3.36
-11 7 -13 26.98 4.14
13 7 -11 20.9 3.28
-7 -13 11 9.22 3.64
-13 -7 -11 19.45 3.5
11 -13 7 19.97 4.07
-11 -7 13 18.52 4.26
11 -7 -13 14.19 3.58
13 -7 11 20.57 3.36
-11 -13 -7 17.7 2.84
7 -13 -11 17.3 2.54
-13 -7 -11 22.84 2.77
-13 7 -11 21.37 3.51
-7 11 -13 19.22 3.46
13 -11 7 18.33 3.28
-7 -11 13 23.75 4.98
-13 -11 -7 18.11 2.77
7 -13 11 27.93 4.49
-11 7 13 23.11 3.05
-7 -13 -11 18.21 2.69
-7 -13 -11 19.69 3.41
-13 -11 -7 23.93 3.31
13 -7 -11 22.07 3.62
11 -13 -7 24.23 3.39
7 13 -11 23.9 3.51
-13 -7 11 19.83 4.18
-11 -13 7 16.59 3.92
-11 13 -7 22.16 2.94
11 -13 -7 16.55 2.55
13 11 -7 14.42 2.66
-11 -7 -13 25.94 3.99
11 7 -13 22.44 3.72
11 -7 13 21.53 3.75
7 -11 -13 26.17 4.11
-9 -13 11 13.94 3.71
-9 11 13 17.2 2.59
-9 -11 -13 14.1 2.31
-9 -11 -13 11 2.94
11 13 -9 14.99 2.7
11 -9 -13 18.85 3.89
-11 -13 -9 19.97 2.71
-11 -13 -9 16.14 2.86
13 -11 -9 16.18 2.18
13 -11 -9 10.98 2.76
-13 -11 9 17.06 4.06
-13 11 -9 10.9 2.43
-11 -9 13 20.82 4.49
9 -13 -11 13.61 2.2
9 -13 -11 11.7 2.82
-11 9 -13 12.89 3.29
11 -13 9 14.83 3.64
-9 13 -11 20.37 3.19
-13 -9 -11 13.98 2.33
-13 9 11 16.7 2.41
13 -9 11 13.76 3.33
13 9 -11 18.79 3.02
-13 -9 -11 14.72 3.35
9 11 -13 13.33 3.09
9 -11 13 18.67 4.1
-13 -11 -9 16.81 2.53
9 -11 -13 15.55 3.64
-11 13 -9 11.57 2.51
-13 -9 11 12.13 3.55
-11 -9 -13 13.09 3.21
-13 9 -11 12.01 2.74
-9 -11 13 15.62 4.03
-11 9 13 12.4 2.21
9 -13 11 15.23 4.94
11 9 -13 10.72 2.83
-11 -13 9 18.85 4.39
13 -11 9 10.88 2.98
13 11 -9 12.8 2.87
-9 -13 -11 12.38 2.31
-9 -13 -11 14.64 3.19
11 -9 13 16.31 3.69
13 -9 -11 12.51 3.15
11 -13 -9 13.26 2.97
-13 -11 -9 16.14 3.3
11 -13 -9 15.66 2.28
9 13 -11 15.93 3.23
-11 -11 -13 43.92 4.69
-11 -13 -11 38.36 5.24
-11 -13 11 45.16 6.22
-13 11 -11 47.24 5.26
-11 -13 -11 45.99 4.82
-13 -11 -11 42.59 5.52
-13 -11 11 49.4 6.51
-13 -11 -11 37.83 4.54
13 -11 11 44.48 5.67
13 11 -11 47.39 5.27
11 -11 -13 43.4 5.76
11 -11 13 49.04 6.1
11 11 -13 41.5 5.27
11 13 -11 40.41 5.09
13 -11 -11 43.02 4.41
13 -11 -11 32.86 5.12
-11 11 13 43.36 4.79
-11 13 -11 38.61 4.92
11 -13 -11 46.53 4.7
11 -13 -11 40.87 5.42
11 -13 11 36.3 5.67
-11 -11 -13 33.72 5.1
-11 -11 13 42.89 6.43
-11 11 -13 50.07 5.73
13 -13 1 16.46 2.72
13 -13 1 14.54 2.03
13 -1 -13 10.27 2.84
13 -1 13 10.67 2.4
13 1 -13 13.85 3.4
1 13 -13 10.54 2.71
13 -13 -1 11.56 2.51
13 -13 -1 11.79 1.99
-1 -13 -13 11.58 2.88
-1 -13 13 12.91 3.47
-1 13 -13 13.67 3.02
1 -13 -13 12.32 2.85
1 -13 13 16.04 3.71
-13 -1 13 13.71 3
-13 1 -13 10.4 3.12
-13 1 13 7.26 2.33
-13 -13 -1 12.52 2.76
-13 -13 1 10.84 2.7
-13 -1 -13 8.23 2.82
13 13 -1 10.04 2.19
13 1 13 10.17 2.4
-13 -3 13 107.36 10.89
-13 13 -3 102.14 9.31
-3 -13 -13 99.97 9.76
-3 -13 -13 116.07 10.9
-3 -13 13 110.43 11.58
-3 13 -13 122.71 10.96
3 -13 -13 126.48 11.01
3 -13 13 126.75 11.9
3 13 -13 109.42 10.84
13 -13 -3 123.61 9.99
13 -13 -3 117.29 9.79
13 -13 3 118.07 10.48
13 -3 -13 108.27 10.86
13 -3 13 131.49 10.67
13 3 -13 111.87 10.9
13 3 13 96.84 9.91
13 13 -3 124.61 9.96
-13 -13 -3 113.99 10.43
-13 -13 -3 121.39 10.22
-13 -13 3 126.77 11.16
-13 -3 -13 116.87 11.24
-13 3 -13 101.27 10.88
-13 3 13 115.37 10.4
-13 5 13 134.55 11.16
-13 13 -5 131.47 10.6
-5 -13 -13 138.73 11.16
-5 -13 -13 122.73 11.86
-5 -13 13 124.89 12.72
-5 13 -13 117.14 11.66
5 -13 -13 146.25 12.34
5 -13 13 133.04 12.75
5 13 -13 126.97 11.87
13 -13 -5 119.7 10.73
13 -13 -5 145.31 11.32
13 -13 5 124.91 11.74
13 -5 -13 118.62 11.97
13 -5 13 131.02 11.53
-13 -5 13 124.56 12.29
-13 5 -13 119.27 11.98
-13 -13 -5 129.93 11.3
-13 -13 -5 135.49 11.42
-13 -13 5 118.74 12.04
-13 -5 -13 113.11 12.09
13 13 -5 121.19 10.98
13 5 13 139.59 11.26
13 -7 13 20.83 3.64
13 7 -13 22.34 3.58
-7 -13 13 16.79 4.38
-7 13 -13 20.82 3.66
7 -13 -13 24.74 4.79
7 -13 13 17.82 4.48
13 -13 -7 21.6 2.77
13 -13 -7 22.93 3.41
13 -13 7 17.53 3.81
13 -7 -13 19.04 4.13
-7 -13 -13 24.09 3.88
-13 -13 7 25.47 4.4
-13 -7 -13 20.43 4.18
-13 7 -13 23.59 3.96
-13 7 13 16.15 2.81
-13 13 -7 21.61 2.91
-7 -13 -13 24.85 3.14
13 7 13 19.66 3.11
13 13 -7 22.15 3.13
-13 -13 -7 25.8 3.4
-13 -13 -7 26.24 3.72
-13 9 13 14.89 2.6
-13 -13 -9 18.1 2.73
-13 -13 -9 16.81 3.39
-13 -13 9 13.16 3.66
-13 -9 -13 19.42 2.76
-13 -9 13 15.52 4.08
-13 9 -13 13.29 3.14
13 13 -9 19.57 3.03
13 -13 -9 17.13 2.44
13 -13 -9 12.86 3.04
13 -13 9 16.35 3.82
13 -9 -13 14.86 3.78
13 -9 13 12.57 3.17
13 9 -13 12.33 2.99
9 13 -13 19 3.2
-13 13 -9 15.01 2.66
-9 -13 -13 17.09 2.65
-9 -13 -13 19.66 3.48
-9 -13 13 14.15 3.91
-9 13 -13 15.76 3.38
9 -13 -13 18.74 2.62
9 -13 -13 14.54 3.57
9 -13 13 9.79 3.36
-13 -9 -13 14.93 3.59
11 -13 -13 90.7 7.96
11 -13 -13 89.57 9.35
-13 -11 -13 86.61 8.96
-13 -11 13 74.2 9.31
-13 11 -13 94.47 8.93
13 13 -11 79.14 8.44
-11 13 -13 77.85 8.65
-13 -13 -11 76.5 7.86
-13 -13 -11 96.81 9.05
-13 -13 11 79.2 9.43
-13 -11 -13 78 7.92
-13 13 -11 92.48 8.53
-11 -13 -13 89.03 8.16
-11 -13 -13 92.46 9.1
-11 -13 13 90.05 10.01
13 -11 -13 90.61 9.43
13 -11 13 86.42 9.21
13 11 -13 85 8.62
11 -13 13 99.13 9.96
11 13 -13 81.67 8.53
13 -13 -11 90.04 7.86
13 -13 -11 85.77 9.14
13 -13 11 85.73 9.24
-13 -13 -13 86 7.51
-13 -13 -13 64.77 7.95
-13 -13 13 61.93 8.73
13 13 -13 66.85 7.5
13 -13 13 86.85 8.85
13 -13 -13 76.41 8.5
13 -13 -13 74.62 7.04
-13 13 -13 69.26 7.62
0 0 14 156.3 12.95
0 0 -14 146.32 13.37
0 -14 0 149.65 12.38
0 14 0 132.17 11.8
0 -14 2 0.8 1.06
0 -14 -2 2.01 1.13
-14 0 -2 0.93 0.44
-14 0 -2 1.42 0.57
-14 0 2 1.68 0.52
-14 0 2 1.71 0.38
-2 -14 0 3.18 1.41
-2 14 0 1.53 0.86
0 -2 -14 2.42 1.76
0 -2 14 1.62 1.36
0 2 -14 1.78 1.83
0 2 14 2.84 1.33
2 -14 0 2.2 1.08
2 14 0 1.6 0.91
2 0 -14 2.61 1.48
2 0 14 3.66 1.48
-14 -2 0 2.11 0.81
-14 -2 0 1.41 0.59
-2 0 -14 2.72 1.46
-2 0 14 1.5 1.19
0 14 -2 1.81 0.92
0 14 2 0.22 0.68
-2 -2 14 8.84 2.34
2 14 2 3.97 1.2
-2 14 2 5.37 1.38
2 -14 -2 4.54 1.45
2 -14 2 1.06 1.37
2 -2 -14 5.59 2.26
-2 -2 -14 6.34 2.33
-14 -2 -2 6.18 1.09
-14 -2 -2 6.81 1.34
-14 -2 2 4.57 1.26
-2 -14 -2 5.69 1.68
2 14 -2 7.77 1.88
2 2 -14 3.77 2
2 2 14 6.5 1.85
-2 2 -14 3.37 1.8
-2 14 -2 5.99 1.54
2 -2 14 7.31 2.38
-2 2 14 4.58 1.8
-2 -14 2 4.82 1.74
4 0 -14 20.72 3.76
-14 0 -4 26.13 2.29
4 -14 0 24.31 3.29
4 14 0 20.85 2.9
14 0 -4 24.62 2.22
-14 0 -4 26.1 2.83
-14 0 4 24.76 2.6
-4 -14 0 20.84 3.19
0 4 14 25.93 3.55
0 14 -4 21.63 2.96
4 0 14 25.89 3.74
0 -4 14 26.6 3.94
0 4 -14 24.84 4.14
-4 14 0 18.95 2.69
-14 -4 0 25.48 4.05
-4 0 -14 25.29 4.14
0 -4 -14 22.28 3.89
0 -14 -4 23.16 3.03
0 -14 -4 26.92 3.17
0 -14 4 25.6 3.72
-14 -2 -4 63.76 5
2 -14 -4 56.78 5.59
-2 -14 4 56.78 6.32
-2 14 -4 42.4 5.28
4 -14 2 47.7 5.76
4 -2 -14 70.51 7.11
-2 -4 -14 55.91 6.6
2 -4 14 47.43 6.25
14 2 -4 53.02 4.88
-2 4 14 57.62 6.1
2 4 -14 67.85 7.04
4 14 -2 51.69 5.44
-14 -2 -4 60.01 5.38
4 2 14 50.73 5.99
-4 -2 14 55.74 6.38
2 -14 -4 59.44 5.62
-4 -14 -2 59.79 5.88
-14 2 4 57.37 4.36
2 14 -4 57.64 5.7
2 -14 4 57.3 6.31
2 -4 -14 60.62 6.75
4 2 -14 55.75 6.71
4 -14 -2 54.15 5.67
-4 2 14 54.06 6.18
4 14 2 65.85 5.63
-14 -2 4 54.4 5.46
-14 2 -4 56.03 4.5
-4 -2 -14 53.72 6.51
-2 4 -14 57.29 6.81
-14 2 -4 51.91 4.79
2 4 14 63.11 6.17
-4 -14 2 56.29 6.1
-4 14 -2 61.83 5.53
4 -2 14 63.7 6.54
-2 -4 14 64.75 6.92
14 4 -2 58.17 4.96
-2 -14 -4 61.76 5.72
-2 -14 -4 58.5 5.74
-14 -4 -2 67.59 5.9
14 -2 -4 58.63 4.35
-4 14 -4 115.32 11.42
4 -4 -14 130.88 12.71
4 4 14 155.46 12.35
14 4 -4 146.64 11.2
-4 -4 14 131.35 12.67
4 -14 4 148.35 12.54
-4 4 14 150.59 12.38
4 -14 -4 135.15 11.59
-4 -14 -4 118.6 11.6
-4 -14 4 138.1 12.49
-4 -4 -14 162.25 13.15
-14 -4 4 145.4 12.44
-14 4 -4 144.5 10.48
-4 -14 -4 141.95 11.78
4 4 -14 149.73 13.14
-4 4 -14 133.55 12.89
4 -4 14 130.77 12.63
4 14 -4 125.8 11.6
4 -14 -4 157.75 11.84
-6 0 -14 3.94 2.31
6 -14 0 3.33 1.47
0 6 14 5.6 1.66
-6 14 0 5.96 1.47
-14 0 -6 5.46 1.61
-14 0 6 3.64 1.19
-6 -14 0 6.49 1.82
0 14 -6 3.77 1.44
6 0 -14 7.38 2.52
6 0 14 5.25 1.85
0 6 -14 6.12 2.44
0 -6 -14 3.2 1.9
0 -6 14 2.82 1.86
-14 -6 0 2.73 1.31
6 14 0 4.94 1.41
14 0 -6 5.51 1.16
0 -14 -6 4.52 1.33
0 -14 -6 3.54 1.32
0 -14 6 4.24 1.86
-6 0 14 4.52 1.81
-14 2 6 3.69 0.93
6 2 14 3.17 1.53
6 -2 -14 7.45 2.49
6 -14 2 3.64 1.47
6 14 -2 3.86 1.25
14 -2 6 3.27 0.88
14 2 -6 2.75 0.98
-2 -14 6 2.92 1.77
-2 14 -6 2.98 1.29
2 -14 -6 4.3 1.35
-2 -6 -14 2.9 1.67
2 6 -14 3.46 1.82
-6 -14 -2 3.09 1.4
-6 2 -14 1.57 1.71
-6 -2 14 2.44 1.81
2 -14 -6 3.39 1.49
-14 -2 -6 1.97 0.75
-2 6 14 2.64 1.39
2 -6 14 3.64 2.05
-14 -6 2 3.35 1.44
-6 -2 -14 1.42 1.67
-2 -14 -6 4.14 1.4
-14 2 -6 2.77 1.12
2 14 -6 4.29 1.49
6 2 -14 3.55 1.96
-6 -14 2 2.1 1.64
-6 14 -2 4.07 1.22
-14 -6 -2 3.69 1.24
-14 -6 -2 5.81 1.47
-6 2 14 5.2 1.99
6 -14 -2 4.83 1.55
-2 -6 14 3.94 1.99
-2 6 -14 2.84 1.93
2 -6 -14 3.41 1.89
14 -2 -6 4.28 1.1
14 6 -2 5.45 1.21
-14 -2 6 4.38 1.6
2 -14 6 2.55 1.56
6 -2 14 4.12 1.73
2 6 14 4.24 1.46
6 14 2 3.33 1.13
-2 -14 -6 4.9 1.58
6 -14 4 53.57 6.14
4 -6 14 48.89 6.36
4 -14 -6 64.07 5.83
-14 -4 -6 50.64 5.43
4 6 -14 57.9 6.65
4 -14 -6 54.73 5.34
-14 -6 4 52.52 5.93
-6 -14 -4 56.09 5.63
-6 -14 -4 51.25 5.49
-14 6 -4 60.11 4.34
-14 -4 -6 56.93 5.37
14 -4 6 57.14 4.76
-4 -14 6 58.01 6.49
-14 4 6 52.6 4.49
6 -4 -14 53.91 6.5
-4 6 14 62.78 5.93
-6 -4 14 48.31 6.36
6 14 -4 44.89 5.24
-4 -6 -14 54.06 6.35
-4 14 -6 62.21 5.81
-6 4 -14 57.67 6.68
6 4 14 54.94 5.71
-4 -6 14 63.65 7
-14 -4 6 56.89 5.94
-4 -14 -6 58.82 5.57
4 -14 6 56.68 6.38
-6 -14 4 51.72 6.11
4 14 -6 57.14 5.74
-4 6 -14 57.65 6.65
-14 -6 -4 61.52 5.26
-14 -6 -4 56.31 5.33
-14 4 -6 50.03 4.95
6 -4 14 50.92 6.17
6 4 -14 56.13 6.58
-6 14 -4 54.97 5.34
4 -6 -14 61.15 6.65
-6 -4 -14 51.53 6.45
-4 -14 -6 55.31 5.57
14 -6 4 53.74 4.41
14 6 -4 45.06 4.94
6 -14 -4 48.87 5.27
4 6 14 42.97 5.46
14 -4 -6 52.19 4.87
6 -14 -4 55.77 5.37
-6 4 14 48.57 5.72
-6 6 -14 4.25 2.14
-6 -14 6 3.44 1.87
-14 -6 -6 5.34 1.29
-6 -6 14 10.37 3.01
6 -14 -6 4.22 1.32
-6 -14 -6 3.63 1.4
-6 -14 -6 4.32 1.64
-6 6 14 4.79 1.62
6 6 14 4.92 1.77
-14 -6 -6 5.03 1.79
-14 6 -6 5.2 1.21
14 -6 -6 4.29 1.21
14 -6 6 4.33 1.15
14 6 -6 5.04 1.35
6 6 -14 3.49 1.81
6 -6 14 3.8 1.85
6 -14 -6 5.96 1.7
14 -6 -6 5.29 0.84
6 -14 6 5.74 2.24
-6 14 -6 5.06 1.51
-6 -6 -14 5.43 2.2
6 14 -6 5.77 1.86
6 -6 -14 7.01 2.48
8 -14 0 17.23 2.91
-14 0 8 17.13 2.68
-8 14 0 21.58 2.47
0 -14 -8 16.2 2.84
0 -14 8 22.33 3.71
0 -8 14 25.22 4.22
0 8 -14 20.02 3.52
0 -8 -14 14.23 3.34
8 0 14 19.28 3.12
-14 -8 0 16.45 2.77
14 0 8 19.56 2.39
0 8 14 16.09 2.79
0 -14 -8 17.86 2.54
-8 -14 0 14.8 2.79
-8 0 -14 22.19 3.85
0 14 -8 21.46 3.15
8 0 -14 22.25 3.87
14 0 -8 18.51 2.69
-8 0 14 19.15 3.3
-14 0 -8 21.03 5.31
-14 2 8 1.23 0.88
-2 -14 8 2.68 1.65
8 -14 2 3.38 1.51
-8 2 -14 2.17 1.98
-14 -8 2 4.38 1.56
8 2 14 4.25 1.58
2 -8 14 3.16 2.18
-14 -2 -8 1.97 1.37
-2 8 14 2.68 1.45
2 -14 -8 3.74 1.29
8 -2 -14 1.93 1.86
2 8 -14 6.33 2.42
-2 -8 -14 4.01 1.93
-8 -14 -2 4.24 1.47
-2 14 -8 1.69 1.22
14 -2 8 3.47 1.11
2 -14 -8 3.15 1.38
14 2 -8 3.02 1.23
-8 -2 14 2.48 1.6
2 8 14 4.06 1.61
-2 -14 -8 2.75 1.18
-14 -8 -2 2.81 1.05
2 -14 8 0.92 1.56
-14 -8 -2 2.21 1.06
14 -2 -8 2.38 1.06
2 14 -8 4.72 1.72
-8 2 14 2.28 1.54
-8 -14 2 2.68 1.6
8 2 -14 1.46 1.37
2 -8 -14 1.19 1.33
-2 8 -14 2.66 1.85
-14 -2 8 3.94 1.51
14 -8 2 2.53 0.49
14 8 -2 2.78 1.06
8 -2 14 0.46 1.25
8 -14 -2 1.38 0.94
-2 -14 -8 2.41 1.31
8 -14 -2 2.18 1.04
-2 -8 14 0.72 1.7
14 -8 2 2.31 0.54
-8 -2 -14 4.51 2.17
-8 14 -2 4.26 1.14
-8 -4 14 6.25 2.35
8 -4 -14 2.38 1.92
4 -14 -8 7.12 1.64
4 -14 -8 4.63 1.58
-8 -14 -4 4.91 1.59
8 -14 4 6.54 2.07
8 14 -4 6.26 1.71
14 -4 8 4.02 1.28
-14 -4 -8 4.94 1.27
-14 -4 -8 7.94 2.02
-8 -14 -4 5.35 1.58
8 4 14 3.17 1.31
4 -8 14 6.12 2.31
-4 -8 -14 2.73 1.7
-4 -14 8 3.28 1.88
-4 14 -8 2.81 1.36
-4 8 14 4.03 1.56
14 -8 -4 3.73 0.81
-14 4 8 4.55 1.09
4 8 -14 6.59 2.25
14 4 -8 4.11 1.59
-14 -8 4 4.4 1.87
-14 8 -4 3.59 0.75
-8 4 -14 7.26 2.44
14 -8 -4 5.22 1.1
-8 -14 4 6.05 2.29
-8 -4 -14 3.12 1.9
-14 -8 -4 6.96 1.8
-4 -14 -8 3.64 1.66
-8 14 -4 1.36 0.93
-14 -4 8 3.88 1.81
-14 4 -8 6.32 2.61
4 -8 -14 5.09 2.14
-8 4 14 2.63 1.45
14 -8 4 4.05 1.13
4 -14 8 5.39 2.18
4 14 -8 6.38 1.89
-4 -14 -8 5.31 1.5
14 -4 -8 4.1 1.38
8 -14 -4 5.85 1.58
-4 8 -14 9.08 2.71
-4 -8 14 7.91 2.9
8 -4 14 3.88 1.77
8 4 -14 1.98 1.81
4 8 14 1.65 1.23
8 -14 -4 4.03 1.45
14 8 -4 4.82 1.34
-14 -8 -4 3.54 1.29
6 -14 -8 18.35 2.52
14 -6 8 21.54 2.67
8 14 -6 16.77 2.64
8 -14 6 23.48 3.83
8 6 14 15.36 2.77
-6 8 14 17.86 2.88
-6 14 -8 13.52 2.92
6 -8 14 18.93 4.07
-6 -14 8 13.94 3.47
-14 6 8 19.85 2.16
-8 -14 -6 15.6 2.65
-8 -6 14 14 3.65
-8 6 -14 14.46 3.48
14 -8 -6 18.63 1.96
14 -8 -6 12.76 2.36
8 -6 -14 16.35 3.89
-14 -8 6 18.56 3.86
-14 8 -6 16.76 2.16
6 -14 -8 13.27 2.79
-6 -8 -14 25.5 3.9
-8 -14 -6 19.71 2.9
6 -8 -14 17.24 3.9
-14 -8 -6 18.77 2.81
-6 -14 -8 16.8 2.98
6 8 14 16.08 2.74
8 -14 -6 16.18 2.59
-8 -6 -14 18.41 3.67
6 -14 8 18.05 3.89
6 14 -8 13.88 2.88
-8 -14 6 11.94 3.25
8 -6 14 16.81 3.87
8 -14 -6 15.15 2.46
14 8 -6 13.53 2.38
-14 -6 8 21.08 3.73
-6 8 -14 13.03 3.38
-8 6 14 20.38 2.98
-6 -14 -8 20.7 2.69
14 -8 6 18.08 2.5
8 6 -14 14.54 3.72
-14 -8 -6 20.06 2.59
14 -6 -8 15.22 2.75
-6 -8 14 20.62 4.42
-8 14 -6 22.15 2.84
8 -14 -8 50.78 5
-8 -14 8 51.69 6.44
-8 -8 -14 63.15 6.55
-8 -8 14 49.09 6.6
-8 8 -14 46.04 6.02
14 8 -8 48.06 5.29
14 -8 8 45.29 5.11
8 -14 8 57.79 6.53
8 -14 -8 42.8 5.27
8 -8 -14 43.12 5.99
8 -8 14 46.66 6.12
8 8 -14 57.16 6.28
-14 -8 8 40.19 8.51
-8 -14 -8 41.31 5.25
-8 8 14 58.6 5.57
-8 14 -8 58 5.59
-14 -8 -8 47.53 4.87
8 14 -8 54.01 5.56
14 -8 -8 48.71 4.46
14 -8 -8 55.12 5.46
-14 -8 -8 45.92 5.88
-14 8 -8 55.51 5.48
-8 -14 -8 44.14 5
8 8 14 44.55 5.16
14 -10 0 12.24 1.84
0 10 -14 10.7 2.94
0 10 14 10.53 2.25
10 0 -14 11.28 3
-14 -10 0 11.13 2.7
-14 0 -10 12.49 2.98
0 14 -10 9.85 2.54
0 -14 -10 11.7 2.5
10 0 14 10.37 2.49
-10 -14 0 13.46 2.82
0 -10 -14 13.91 3.32
0 -10 14 12.41 3.56
14 -10 0 11.72 1.46
14 10 0 10.24 1.83
10 14 0 14.56 2.21
-10 0 -14 11.08 3.27
-10 0 14 15.42 3.23
0 -14 -10 12.4 2.12
-14 0 10 10.3 2.44
14 0 -10 8.89 2.21
10 -14 0 12.04 2.57
14 0 10 13.33 2.17
0 -14 10 17.1 3.99
-10 2 -14 4.19 2.16
-14 2 10 2.81 1.17
2 -14 -10 4.08 1.58
-2 -14 10 1.28 1.86
10 2 14 3.3 1.5
10 -14 2 2.53 1.49
14 -10 -2 0.83 0.71
2 -10 14 -1.81 1.34
-10 -2 14 3.96 2.23
-10 -14 -2 2.76 1.49
14 -10 -2 1.95 0.8
10 14 -2 2.52 1.04
-14 -10 2 2.53 1.34
14 -2 10 1.61 0.9
-2 -10 -14 0.45 1.41
-2 10 14 2.09 1.16
2 10 -14 1.93 1.49
14 2 -10 2.55 1.33
2 -14 -10 2.94 1.15
10 -2 -14 -0.56 1.27
-14 -2 -10 2.3 1.51
-2 14 -10 2.75 1.55
-10 -14 2 1.58 1.39
-2 -14 -10 3.66 1.61
-2 -14 -10 3.14 1.21
-10 14 -2 2.49 0.82
10 2 -14 0.75 1.48
2 10 14 4.12 1.55
14 2 10 3.11 1.23
-2 10 -14 2.48 1.67
14 -10 2 2.39 1.01
-10 -2 -14 1.54 1.71
10 -2 14 2.42 1.44
14 -2 -10 1.69 1.34
-10 2 14 2.6 1.42
-2 -10 14 3.28 2.14
14 10 -2 0.64 0.66
-14 -10 -2 2.86 1.16
-14 -10 -2 1.89 1.12
2 -14 10 0.55 1.53
2 14 -10 3.06 1.45
10 -14 -2 3.05 1.24
-14 2 -10 0.7 1.37
-14 -2 10 2.41 1.45
2 -10 -14 1.16 1.08
14 -10 2 3.09 0.75
10 -14 -2 1.51 0.97
10 14 -4 20.47 2.87
4 -14 -10 26.94 3.64
-10 -14 -4 17.31 2.91
-14 10 -4 21.57 2.21
-14 4 10 22.41 2.78
-14 -10 4 20.58 3.69
10 4 14 18.22 3
4 -10 14 19.28 4.11
10 -14 4 20.06 3.55
-4 10 14 21.51 3.11
14 4 -10 24.65 3.36
14 -10 -4 20.17 2.6
-10 -14 -4 19.97 3.05
-10 -4 14 22.79 4.42
-10 4 -14 15.57 3.8
-4 -14 10 17.06 4
14 -4 10 17.06 2.8
-14 -4 -10 23.73 3.6
-4 14 -10 20.31 3.34
4 -14 -10 18.34 2.68
14 -10 -4 23.81 2.47
-4 -10 -14 26.28 4.12
4 10 -14 21.55 3.6
10 -4 -14 26.58 4.35
-14 -4 10 16.55 3.57
14 10 -4 16.92 2.66
-4 -10 14 27.29 4.67
-10 14 -4 22.2 2.75
-14 -10 -4 24.83 3.19
14 -10 4 21.5 2.85
-10 4 14 18.55 3.16
-4 -14 -10 17.41 2.67
4 -10 -14 24.51 3.91
-10 -14 4 13.89 3.36
10 4 -14 12.49 3.31
4 10 14 25.48 3.22
-14 4 -10 18.57 3.25
-14 -10 -4 24.03 3.18
10 -14 -4 26.1 3.17
-4 -14 -10 17.71 3.02
14 -4 -10 22.7 3.4
10 -14 -4 20.48 2.95
4 14 -10 24.48 3.36
-4 10 -14 26.94 4.14
4 -14 10 21.97 4.54
10 -4 14 23.35 3.61
-10 -4 -14 22.73 4.61
10 14 -6 0.36 0.83
-6 10 14 -0.32 0.73
-14 -6 -10 -0.86 0.74
-14 6 10 0.92 0.71
10 -6 -14 0.69 1.35
-6 -14 10 -0.38 1.4
10 6 14 -0.16 0.92
14 -10 -6 0.42 0.5
6 -14 -10 1.19 1.08
-14 -10 6 1.85 1.56
-6 14 -10 0.96 0.9
6 -14 -10 0.24 0.6
-14 -6 -10 -0.34 0.51
14 -6 10 -0.39 0.72
14 6 -10 -1.52 0.67
6 -10 14 -1.96 1.05
-10 -14 -6 0.47 0.8
-10 -14 -6 -0.26 0.88
-10 6 -14 0.83 1.51
-10 -6 14 -2.32 1.33
-6 -10 -14 -0.92 0.63
10 -14 6 -0.34 1.12
14 -10 -6 -0.27 0.84
10 -14 -6 -0.45 0.67
-14 6 -10 0.64 1.06
-6 -14 -10 1.15 0.84
-10 6 14 -0.54 0.78
-14 -6 10 0.95 1.54
-10 -6 -14 0.32 1.22
-6 -14 -10 -0.52 0.53
10 6 -14 1.7 1.84
6 14 -10 -0.84 0.81
-6 -10 14 -1.92 1.13
14 -6 -10 1.87 1.33
6 10 14 -0.42 0.67
6 -14 10 -1.47 1.22
-10 14 -6 -0.85 0.49
-6 10 -14 -0.19 0.83
6 -10 -14 -0.93 0.97
10 -14 -6 0.25 0.69
-10 -14 6 0.31 1.21
14 10 -6 -0.86 0.57
-14 -10 -6 0.07 0.57
-14 -10 -6 1.15 1.12
14 -10 6 1.14 1.11
14 -10 -8 4.4 1.7
-8 -14 10 5.97 2.46
-8 14 -10 5.5 1.77
-10 8 -14 3.66 1.91
-10 -14 -8 3.94 1.46
14 -8 10 6.78 1.92
-10 -14 -8 3.66 1.73
10 -14 8 6.91 2.47
8 -14 -10 4.08 1.4
14 8 -10 3.68 1.68
-10 -8 14 4.15 2.38
-14 10 -8 6.34 1.58
-14 -8 -10 4.29 1.85
10 8 14 3.79 1.46
-14 -10 8 3.15 2.29
8 -10 14 5.61 2.61
8 -14 -10 5.32 2.05
14 -10 -8 4.04 1.02
10 -8 -14 4.05 2.37
10 14 -8 2.62 1.34
-8 10 14 3.85 1.47
-8 -10 -14 4.84 2.18
8 10 -14 5.37 2.17
8 -10 -14 0.24 1.61
10 -14 -8 4.68 1.83
-14 -10 -8 4.03 1.34
-14 -8 10 2.16 1.88
-8 -10 14 7.37 2.77
-10 -14 8 1.8 2.07
14 -8 -10 3.87 1.92
-10 8 14 4.23 1.63
10 -14 -8 2.88 1.19
-10 -8 -14 3.96 1.96
-14 8 -10 5.44 1.76
-14 -10 -8 3.27 1.58
8 14 -10 3.7 1.5
-10 14 -8 4.11 1.48
10 8 -14 4.12 2.02
10 -8 14 1.78 1.91
-8 10 -14 6.1 2.23
14 -10 8 4.17 1.64
14 10 -8 1.86 1.22
8 -14 10 5.98 2.51
8 10 14 3.08 1.58
-8 -14 -10 4.31 1.8
-8 -14 -10 3.35 1.26
10 10 -14 0.59 1.21
10 -10 -14 1.02 1.53
-10 14 -10 -0.67 0.6
14 -10 10 2.52 1.5
10 -10 14 0.59 1.27
-10 10 14 0.16 0.83
-10 -10 -14 1.2 1.5
-10 -10 14 0.23 1.79
-10 10 -14 0 1.04
10 -14 -10 1.02 0.86
14 -10 -10 0.7 0.6
14 -10 -10 0.71 1.28
-10 -14 10 3.16 2
-14 -10 -10 0.07 0.75
10 -14 10 0.3 1.66
-14 10 -10 0.67 1
-10 -14 -10 -0.32 0.78
-10 -14 -10 0.94 1.24
-14 -10 10 1.85 1.8
10 -14 -10 0.18 1.22
10 14 -10 2.17 1.28
14 0 -12 2.94 1.57
-12 0 -14 1.99 2.36
-12 -14 0 0.48 1.11
0 -12 -14 0.75 1.21
0 -12 14 6.16 2.49
0 -14 -12 3.36 1.27
-12 0 14 4.11 1.7
12 -14 0 3.95 1.19
12 0 14 5.2 1.58
-14 -12 0 2.87 1.51
12 14 0 3.26 1.2
0 -14 12 2.3 2.11
0 14 -12 4.85 1.89
14 -12 0 2.51 0.92
14 12 0 4.71 1.44
0 -14 -12 6.1 2.22
0 12 14 1.04 1.11
12 -14 0 0.3 0.97
0 12 -14 4.24 1.89
12 0 -14 4.14 2.5
14 -12 0 2.58 1.15
-14 0 -12 0.98 1.59
-14 0 12 5.96 1.89
14 0 12 3.37 1.36
12 14 -2 46.07 4.93
-2 14 -12 41.12 5.51
-14 -2 -12 55.13 6.25
2 -12 14 48.59 6.57
12 2 14 42.2 5.08
14 -2 12 48.28 5.1
14 -12 -2 46.09 4.78
-12 -14 -2 50.86 5.52
14 2 -12 46.32 5.67
-2 -14 12 45.58 6.29
2 -14 -12 41.98 4.85
-12 2 -14 46.49 6.18
-14 2 12 52.62 5.41
-14 -12 2 52.08 5.82
12 -14 2 44.99 5.47
2 12 -14 54.03 6.18
-2 -12 -14 48.25 5.87
2 -14 -12 46.2 5.73
-12 -14 -2 48.68 5.31
14 -12 -2 49.64 4.69
-2 12 14 37.94 4.97
12 -2 -14 46.19 5.97
-2 -14 -12 44.38 5.46
2 -12 -14 51.45 6.05
2 -14 12 51.4 6.62
12 -14 -2 53.07 5.03
12 2 -14 44.28 5.84
-2 -14 -12 55.82 5.21
14 -12 2 48 5.17
-14 -2 12 53.54 5.98
14 -2 -12 44.31 5.67
2 14 -12 48.1 5.65
14 2 12 54.64 5.28
-12 14 -2 48.3 4.55
-14 -12 -2 51.06 5.41
-2 12 -14 42.74 5.78
-12 2 14 46.63 5.42
-14 -12 -2 50.64 5.23
-12 -14 2 48.59 5.75
-12 -2 -14 48.3 6.27
12 -14 -2 48.83 5.2
-2 -12 14 45.47 6.56
2 12 14 46.67 5.26
14 12 -2 41.91 4.73
-14 2 -12 50.95 6.09
14 -12 -4 145.94 11.41
12 -14 4 136.01 12.31
12 14 -4 144.32 11.61
-4 14 -12 133.42 12.28
14 -12 -4 138.15 11.2
-12 -14 -4 123.87 11.62
4 -14 -12 136.48 12.35
-14 4 12 144.49 11.76
-12 -4 14 139.23 12.93
-4 -12 -14 127.18 12.31
14 -4 12 139.83 11.9
-14 -4 -12 124.22 12.44
14 4 -12 129.61 12.17
12 -4 -14 135.03 12.84
12 4 14 152.58 11.97
-12 -14 -4 142.75 11.96
-14 -12 4 127.39 12.44
-12 4 -14 120.97 12.59
4 12 -14 150.12 12.75
4 -14 -12 122.33 11.33
4 -12 14 154.6 13.57
-4 -14 12 133.15 13.1
4 -14 12 127.04 13.05
12 -4 14 129.6 11.99
-4 -12 14 133.42 13.26
-4 -14 -12 147.65 11.74
4 -12 -14 132.07 12.5
14 -12 4 130.05 11.78
-4 -14 -12 115.93 12
4 12 14 105.04 11.46
-14 4 -12 159.24 12.79
-4 12 -14 145.3 12.76
14 4 12 146.3 11.61
-14 -4 12 132.25 12.53
-12 -14 4 157.19 12.98
12 -14 -4 144.14 11.56
12 -14 -4 135.42 11.45
-14 -12 -4 145.12 11.92
-14 -12 -4 120.29 11.57
14 -4 -12 145.05 12.53
-12 -4 -14 123.79 12.56
14 12 -4 146.72 11.53
-12 4 14 142.12 11.97
12 4 -14 122.96 12.45
-12 14 -4 126.62 10.99
4 14 -12 123.27 12.08
14 6 -12 48.94 5.91
-12 6 -14 58.1 6.7
-14 -12 6 51.21 6.36
12 14 -6 42.18 5.22
6 -14 -12 48.06 5.17
14 -6 12 55.92 5.88
-6 -12 -14 52.26 6.2
12 -14 6 46.03 6.11
-12 -6 14 42.49 6.38
-14 6 12 53.32 5.33
6 -12 14 55.36 6.92
-12 -14 -6 45.29 5.53
-14 -6 -12 52.12 6.19
6 12 -14 50.33 6.01
6 -14 -12 59.36 6.29
12 6 14 49.95 5.44
14 -12 -6 57.98 5.69
-6 12 14 43.49 5.33
-6 -14 12 53.06 6.71
-14 12 -6 56 5
14 -12 -6 46.47 4.87
12 -6 -14 58.57 6.8
-12 -14 -6 46.14 5.35
-6 14 -12 64.79 6.39
12 -14 -6 54.01 5.25
-12 -6 -14 63.71 6.77
-14 6 -12 63.79 6.47
-14 -12 -6 57.63 5.65
12 6 -14 53.3 6.27
-14 -6 12 50.37 6.54
6 -14 12 59.43 7.12
-12 14 -6 57.41 5.29
14 -12 6 52.47 5.9
-12 6 14 45.51 5.34
-6 -14 -12 44.58 5.22
12 -14 -6 47.58 5.54
6 -12 -14 40.94 5.91
-14 -12 -6 56.34 5.82
-12 -14 6 58.57 6.68
-6 -12 14 47.17 6.64
6 14 -12 52.74 5.98
12 -6 14 44.58 5.81
14 -6 -12 51.46 6.21
-6 -14 -12 59.5 6.29
14 12 -6 48.7 5.39
-6 12 -14 50.59 6.18
-12 8 -14 8.89 2.78
-14 -8 -12 10.24 2.31
14 -12 -8 12.02 2.86
14 -8 12 10.23 2.73
12 -8 -14 13.25 3.52
-12 -14 -8 7.34 2.3
-14 12 -8 13.68 2.19
-8 -12 -14 5.98 1.78
-8 -12 -14 8.65 2.61
14 8 -12 9.75 2.67
8 -14 -12 11.03 2.27
8 -14 -12 6.83 2.62
8 -12 14 10.23 3.33
8 12 -14 13.52 3.08
-8 -14 12 9 3.2
-14 -8 -12 12.32 3.19
12 8 14 8.13 2.37
14 -12 -8 11.05 1.88
-14 8 12 10.79 2.16
-12 -14 -8 11.85 2.54
-12 -8 14 5.17 2.74
12 -14 8 6.42 2.55
12 14 -8 12.58 2.75
-14 -12 8 5.82 2.71
-8 -12 14 13.14 3.82
8 -12 -14 9.12 2.94
12 -8 14 5.34 2.51
12 8 -14 10 2.89
-12 -14 8 7.65 2.93
14 12 -8 16.39 3.08
-14 -12 -8 10.7 2.29
14 -12 8 7.72 2.34
8 -14 12 4.53 2.77
-8 12 -14 11.3 3.13
-12 14 -8 10.23 2.36
-12 -8 -14 10.76 3.2
-14 -8 12 13.58 3.59
-14 8 -12 15.08 3.14
-12 8 14 12.94 2.62
-8 -14 -12 13.58 2.29
-8 -14 -12 10.79 2.73
-14 -12 -8 13.23 2.75
12 -14 -8 13.18 2.13
12 -14 -8 16.41 2.76
8 14 -12 10.59 2.72
14 -8 -12 13.5 3.46
-10 -12 -14 24.95 3.35
-10 -12 -14 25.22 4.16
10 -14 -12 28.86 3.46
10 -14 -12 28.22 4.36
-14 -10 -12 19.26 3.41
-12 -14 -10 24.64 3.39
12 -14 10 28.74 4.75
-14 -12 10 19.72 4.97
-14 12 -10 27.37 3.48
14 -10 12 25.28 4.07
14 10 -12 22.48 3.63
-12 -10 14 22.68 4.94
12 -10 -14 22.16 4.77
14 -12 -10 29.26 4.27
10 -12 14 27.68 5.53
-12 10 -14 33.46 4.69
-10 -14 12 28.23 5.01
-10 14 -12 23.63 3.71
-14 -10 -12 23.47 4.08
10 12 -14 26.04 4.03
-12 -14 -10 25.37 4
12 14 -10 27.5 3.77
14 -12 -10 23.98 3.05
-14 -12 -10 29.97 3.57
14 -10 -12 24.54 4.29
-12 -10 -14 20.46 3.17
12 -10 14 22.14 4.64
10 14 -12 24 3.79
-12 14 -10 23.58 3.51
-12 10 14 34.23 3.78
14 -12 10 19.16 4.32
-10 -14 -12 23.94 4.05
10 -14 12 23.54 5.14
10 -12 -14 31.04 4.77
-10 -12 14 32.29 5.11
-14 -10 12 30.24 5.1
-14 10 -12 24.44 3.88
12 10 -14 27.67 4.27
-12 -10 -14 20.99 4.48
-10 -14 -12 27.95 3.51
-10 12 -14 26.33 4.1
12 -14 -10 27.41 3.3
-14 -12 -10 28.13 4.36
-12 -14 10 30.51 4.99
-12 -12 14 99.54 10.12
-12 12 -14 76.59 8.47
-12 14 -12 69.91 8.01
12 -14 -12 85 7.76
12 -14 -12 92.75 9.22
12 -14 12 85.35 9.42
14 -12 -12 78.75 7.58
-14 -12 -12 77.44 8.6
-14 -12 12 94.08 10.06
-14 12 -12 104.47 8.74
-12 -14 -12 81.31 7.85
-12 -14 -12 94.11 9.09
-12 -14 12 88.58 9.86
14 -12 12 81.64 8.87
14 12 -12 79.91 8.34
-12 -12 -14 73.08 8.63
14 -12 -12 89.71 9.19
12 14 -12 92.05 8.69
-12 -12 -14 71.94 7.67
12 -12 14 85.9 9.37
12 12 -14 94.18 8.77
12 -12 -14 72.03 8.93
14 14 0 1.56 0.94
14 0 -14 -0.74 1.15
14 0 14 1.07 1.21
0 -14 -14 1.31 1.04
0 -14 14 2.88 2.36
14 -14 0 1.71 1.24
14 -14 0 2.57 1.01
-14 -14 0 0.19 0.97
-14 0 -14 1.02 1.78
-14 0 14 -0.62 1.06
0 14 -14 0.63 0.85
0 -14 -14 2.76 1.12
2 -14 -14 9.33 2.7
2 -14 14 12.73 3.52
-2 -14 -14 5.88 1.82
-14 -14 -2 5.83 1.87
-14 -14 2 8 2.46
14 -2 14 7.75 2.12
-14 -14 -2 7.62 2.23
-2 -14 -14 8.2 2.48
-2 -14 14 7.9 2.99
-2 14 -14 6.93 2.32
2 -14 -14 13.25 2.13
14 2 -14 5.49 2.09
14 2 14 9.21 2.25
14 14 -2 7.51 1.91
-14 -2 -14 7.37 2.88
-14 -2 14 8.51 2.74
-14 2 -14 8.8 2.78
-14 2 14 6.75 2.14
14 -14 2 8.55 2.3
14 -2 -14 9.63 2.84
14 -14 -2 9.32 1.89
2 14 -14 12.95 3.23
14 -14 -2 4.89 1.76
14 -14 -4 44.06 4.84
14 -14 -4 49.04 5.07
4 -14 -14 46.85 4.87
4 -14 -14 41.12 5.71
4 -14 14 40.52 6.3
4 14 -14 41.9 5.58
-14 -14 -4 42.47 5.23
-14 -14 -4 53.56 5.29
-14 -14 4 45.38 5.81
-14 -4 -14 44.02 6.06
-14 -4 14 49.41 6.17
-14 4 -14 41 5.73
-14 4 14 52.6 5.43
-14 14 -4 44.64 4.38
-4 -14 -14 40.07 4.76
-4 -14 -14 36.4 5.44
-4 -14 14 60.3 7.17
-4 14 -14 53 5.96
14 -14 4 45.36 5.63
14 -4 -14 46.98 6.07
14 -4 14 47.25 5.44
14 4 -14 48.79 5.83
14 4 14 41.55 4.85
14 14 -4 39.15 4.63
-14 -14 -6 8.29 2.4
-14 -6 14 8.72 2.82
-14 6 -14 8.57 2.67
-14 6 14 11.01 2.35
-14 14 -6 7.35 1.68
-6 -14 -14 6.49 1.78
-6 -14 -14 7.39 2.49
-6 -14 14 8.16 3.15
-6 14 -14 10.47 2.73
6 -14 -14 9.74 2.18
6 -14 -14 7.74 2.54
-14 -14 6 6.72 2.71
-14 -6 -14 6.75 2.43
-14 -14 -6 7.17 2.2
14 -14 -6 9.7 2.56
14 -14 6 5.53 2.35
14 -6 -14 7.31 2.7
14 -6 14 10.69 2.59
14 6 -14 8.15 2.52
14 6 14 5.21 1.87
14 14 -6 10.12 2.27
14 -14 -6 6.82 1.72
6 -14 14 11.56 3.66
6 14 -14 9.07 2.64
-14 -14 -8 -0.63 0.92
-14 -14 8 -0.45 0.86
-14 14 -8 -0.77 0.75
-8 -14 -14 -0.38 0.62
-8 -14 -14 -2.34 0.95
-8 -14 14 -2.47 1.25
-8 14 -14 1.97 1.52
8 -14 -14 0.82 0.7
8 -14 -14 -1.17 1.1
8 -14 14 -0.99 1.64
8 14 -14 0.16 1.03
14 -14 -8 -0.29 0.61
14 -14 -8 0.01 1.15
14 -14 8 -0.84 1.2
14 -8 -14 0.19 1.52
14 -8 14 -0.11 1.36
14 8 -14 1.44 1.31
14 14 -8 -0.58 0.66
-14 -14 -8 -0.69 0.67
-14 8 14 -0.4 0.85
-14 -8 -14 1.88 1.52
-14 -8 14 0.98 2.02
-14 8 -14 0.42 1.21
-14 -14 -10 10.86 2.83
-14 -14 -10 6.91 2.01
-14 10 14 8.91 2.14
-10 -14 -14 9.48 2.29
-10 -14 -14 5.01 2.29
-10 -14 14 5.66 3.06
-10 14 -14 9.34 2.97
10 -14 -14 9.05 2.14
10 -14 -14 8.54 2.95
10 -14 14 2.17 2.69
10 14 -14 5.12 2.03
14 -14 10 5.69 2.56
14 -10 -14 9.56 3.17
14 -10 14 5.8 2.38
14 10 -14 11.21 2.67
14 14 -10 4.57 1.92
-14 10 -14 6.07 2.02
-14 -10 -14 7.42 1.91
-14 -10 -14 8.84 2.39
-14 -10 14 7.06 3.41
-14 -14 10 8.48 3.28
14 -12 -14 41.66 5.57
14 -12 -14 35.83 6.12
14 -12 14 46.11 6.25
14 -14 -12 40.44 6.15
12 -14 14 50.04 6.76
12 14 -14 44.13 5.55
14 -14 -12 43.87 4.76
12 -14 -14 49.14 6.49
-12 -14 14 45.63 7.1
-12 14 -14 48.27 5.89
12 -14 -14 49.59 5.13
-14 -14 -12 54.83 6.26
-14 -14 12 45.71 7
-14 -12 -14 47.65 5.22
-14 -12 -14 49.31 6.29
-14 -12 14 53.21 7.02
-14 14 -12 48.53 5.52
-12 -14 -14 37.55 4.94
-12 -14 -14 44.84 6.02
14 12 -14 45.24 5.64
14 14 -12 50.65 5.64
14 -14 -14 4.45 1.63
14 -14 -14 4.4 2.88
14 -14 14 1.05 2.22
14 14 -14 8.15 2.42
-14 -14 -14 5.18 2.57
-14 -14 -14 6.85 2.8
-14 -14 14 10.63 3.92
-14 14 -14 4.4 1.8
-1 1 -15 104.62 10.49
-1 1 15 99.82 9.78
-1 -1 -15 122.43 10.81
-1 -1 15 105.61 10.01
-15 -1 -1 103.66 8.28
-15 -1 -1 105.39 8.22
-15 -1 1 105.59 8.31
-15 -1 1 95.01 7.99
-1 -15 -1 111.76 9.56
-1 -15 1 111.58 9.7
1 15 -1 110.91 9.05
1 15 1 104.79 8.98
1 1 -15 106.09 10.47
1 1 15 88.39 9.6
-1 15 -1 108.25 9.01
-1 15 1 98.21 8.87
1 -15 -1 106.25 9.42
1 -15 1 96.94 9.46
1 -1 -15 103.49 10.42
1 -1 15 117.85 10.26
-3 -15 -1 0.51 0.87
3 15 -1 0.28 0.67
-15 -1 -3 1.27 0.59
-15 -1 -3 1.12 0.67
3 -15 1 0.85 1.01
15 1 -3 0.56 0.33
-1 15 -3 0.92 0.91
-3 15 1 0.42 0.63
-1 -3 -15 -0.28 1.15
3 1 15 0.5 1.1
1 -15 -3 -0.92 0.47
-15 -3 1 0.48 0.5
-1 3 15 0.57 1.09
3 -1 -15 1.16 1.58
-3 1 -15 1.15 1.77
1 3 -15 0.6 1
-1 -15 3 0.56 0.91
1 -3 15 -0.18 1.41
-3 -1 15 -0.48 0.99
-15 -3 1 1.2 0.82
3 1 -15 -1.06 0.73
-3 -1 -15 1.85 1.69
-15 -1 3 0.92 0.7
1 -15 3 1.53 1.33
-15 1 -3 0.64 0.26
-3 -15 1 1.39 0.88
1 15 -3 0.1 0.79
-3 15 -1 0.36 0.6
3 15 1 0.12 0.62
-1 -3 15 0.56 1.5
3 -1 15 0.28 1.22
-15 -3 -1 1.18 0.54
-15 -3 -1 1.78 0.75
-3 1 15 1.23 1.39
1 3 15 -0.66 0.67
3 -15 -1 1.41 1.08
1 -3 -15 1.3 1.75
-1 3 -15 2.16 1.68
-1 -15 -3 0.8 0.97
-3 3 -15 13.35 3.53
3 3 -15 18.15 3.99
3 3 15 12.41 2.81
3 15 -3 15.61 2.48
-15 -3 -3 18.04 2.06
-15 -3 -3 15.51 2.15
-15 -3 3 12.79 2.25
-3 -15 -3 16.46 2.62
-3 -15 3 14.78 2.98
-3 -3 -15 10.97 3.14
15 3 -3 15.87 1.81
-3 -3 15 20.7 3.62
3 -3 15 16.81 3.48
-3 15 -3 15.48 2.4
3 -15 -3 9.45 2.17
3 -15 -3 15.15 2.42
3 -15 3 13.64 2.92
3 -3 -15 21.17 4.49
15 1 -5 2.11 0.68
-5 -15 -1 1.6 1.08
-5 1 -15 1.79 1.73
-15 1 5 2.31 0.67
-1 -5 -15 2.03 1.58
1 5 -15 2.3 1.89
-15 -1 -5 3.6 0.78
-15 -1 -5 0.65 0.93
5 -1 -15 4.21 2.03
-5 -1 15 2.11 1.6
-5 15 1 0.85 0.75
-1 15 -5 1.17 0.85
5 -15 1 4.57 1.54
5 15 -1 1.9 0.95
1 -5 15 3.13 2.03
1 -15 -5 1.74 1.12
1 -15 -5 2.19 1.06
-1 -15 5 2.86 1.8
-15 -5 1 2.73 1.07
-1 5 15 1.49 1.13
5 1 15 -0.68 1.02
-5 -15 1 1.58 1.32
-15 -1 5 1.75 1.02
5 -1 15 2.2 1.63
-1 -5 15 3.52 1.76
-15 -5 -1 3.28 1.11
1 5 15 2.53 1.44
-5 1 15 2.11 1.44
-15 1 -5 0.97 0.94
1 15 -5 1.54 0.93
5 1 -15 4.85 2.18
-5 15 -1 1.54 0.91
5 -15 -1 1.77 1.01
1 -15 5 1.63 1.35
1 -5 -15 2.93 2.03
5 15 1 2.43 1.09
-15 1 -5 2.29 0.6
-5 -1 -15 1.28 1.47
15 -1 -5 2.15 0.61
-1 -15 -5 2.52 1.23
-1 5 -15 3.18 2.04
-1 -15 -5 2.81 1.09
5 -15 3 9.9 2.54
-15 -3 -5 11.85 1.71
-3 -5 -15 7.61 2.95
-3 -15 5 13.08 3.19
-3 15 -5 14.6 2.21
3 -15 -5 9.97 2.17
3 -15 -5 11.93 2.06
3 -5 15 9.11 2.82
3 5 -15 11.12 3.38
5 -3 -15 8.09 2.72
15 3 -5 13.9 1.81
5 15 -3 12.97 2.21
-15 -5 3 14.61 2.56
-5 -15 -3 13.42 2.74
-5 -3 15 9.49 2.76
-5 3 -15 8.87 2.94
5 3 15 8.84 2.52
-3 5 15 16.29 2.61
3 5 15 9.83 2.31
5 -15 -3 13.6 2.24
5 -3 15 11.08 2.92
15 -3 -5 11.73 1.1
5 3 -15 14.09 3.37
-3 -15 -5 12.18 2.16
-15 -5 -3 8.82 1.89
3 -5 -15 14.16 3.25
-15 3 -5 14.45 1.65
3 15 -5 10.7 2.31
-5 -15 3 12.41 2.99
-5 15 -3 13.74 2.19
-5 3 15 10.11 2.68
-3 -5 15 8.49 2.76
-3 -15 -5 16.55 2.38
15 5 -3 13.06 1.73
-15 -5 -3 15.78 2.14
5 -15 -3 13.65 2.34
-5 -3 -15 9.49 2.82
3 -15 5 12.71 3.2
-3 5 -15 15.05 3.51
-15 -3 5 12.05 2.51
5 -5 15 17.89 4.03
5 15 -5 26.71 3.23
-15 -5 -5 19.54 2.64
-5 -15 -5 27.78 3.32
-5 -15 -5 23.41 3.3
-5 -5 -15 19.58 4.28
-5 5 -15 22.27 3.91
-5 15 -5 25.94 3.2
5 -15 -5 26.21 3.15
5 -15 -5 21.16 3.1
5 -15 5 29.15 4.08
5 -5 -15 16.43 3.83
-15 -5 -5 27.51 3.25
5 5 -15 21.22 4.39
5 5 15 18.94 3.18
-15 5 -5 26.96 2.24
15 -5 5 22.82 2.13
15 5 -5 21.31 2.7
-5 5 15 20.31 3.35
-5 -15 5 24.79 3.76
-15 -5 5 22.78 3.52
7 1 15 28.22 3.94
7 15 -1 24.02 3.23
1 -7 15 28.22 4.54
15 -1 7 30.2 2.95
-7 -15 -1 27.08 3.62
-1 7 15 19.95 3.41
-7 -1 15 25.21 4.06
-7 1 -15 27.89 4.61
15 1 -7 26.03 3.06
-1 -15 7 23.17 4.09
7 -1 -15 26.29 4.47
-15 -7 1 26.17 3.61
-1 15 -7 20.73 3.35
1 -15 -7 27.84 3.59
-15 1 7 30.06 3.17
7 -15 1 24.83 3.71
1 -15 -7 28.57 3.4
-1 -7 -15 31.38 4.51
-15 -1 -7 25.36 2.77
1 7 -15 13.9 3.87
-15 -7 -1 25.57 3.11
-1 -15 -7 25.31 3.32
-1 -7 15 39.78 5.27
1 7 15 24.59 3.56
-7 1 15 27.42 4.01
-15 1 -7 24 3.4
7 15 1 27.89 3.34
15 -1 -7 28.29 3.04
-15 -1 7 27.87 3.44
7 -15 -1 27.82 3.59
1 -15 7 28.17 4.36
1 15 -7 36.76 3.97
-7 -1 -15 32.96 4.89
-15 -7 -1 28.39 3.45
7 -1 15 29.68 4.02
7 1 -15 26.84 4.43
-7 -15 1 27.98 3.8
15 7 -1 27.76 2.99
-7 15 -1 30.21 3.24
-1 7 -15 27.96 4.38
-1 -15 -7 28.1 3.71
1 -7 -15 29.46 4.57
-3 7 15 1.84 1.21
-7 3 -15 0.42 1.15
7 3 15 -0.57 0.93
7 -3 -15 0.06 1.28
-7 -15 -3 -0.74 0.71
3 -7 15 -1.06 1.52
-15 -7 3 0.53 1.08
-3 -15 7 1 1.34
3 7 -15 -0.57 1.14
3 -15 -7 0.46 0.72
15 -3 7 -0.11 0.57
7 -15 3 0.78 1.04
7 15 -3 0.12 0.64
-15 -3 -7 -0.08 0.48
-15 3 7 -0.14 0.43
-3 -7 -15 -0.49 0.68
-3 15 -7 -0.13 0.7
15 3 -7 0.57 0.66
3 -15 -7 -0.64 0.71
-15 -3 -7 0.87 0.93
-7 -3 15 1.06 1.56
-3 -15 -7 -0.62 0.49
7 -15 -3 -0.93 0.53
7 -15 -3 -0.18 0.67
-7 3 15 -0.99 0.9
3 -7 -15 0.8 1.61
3 15 -7 0.38 0.71
-15 -7 -3 -1.16 0.54
-7 -15 3 -0.06 0.91
-15 -7 -3 -0.24 0.66
-3 7 -15 -0.65 1.01
-3 -15 -7 0.47 1.01
-7 -3 -15 -1.08 0.98
15 7 -3 0.59 0.56
7 3 -15 1.35 1.61
-7 15 -3 -0.27 0.53
-15 -3 7 -1.83 0.8
3 -15 7 0.68 1.22
7 -3 15 1.28 1.46
15 -3 -7 -0.29 0.56
-3 -7 15 0.46 1.33
3 7 15 -0.47 0.76
-15 3 -7 0.57 0.83
15 -5 7 0.92 0.6
15 5 -7 0.14 0.59
-5 -15 7 -0.31 0.95
-5 15 -7 0.9 0.88
7 15 -5 -0.13 0.66
5 -7 15 -1.33 1.02
-15 -5 -7 -0.19 0.54
15 -7 -5 0.53 0.3
7 -15 5 -0.02 1.17
7 -5 -15 -0.72 1.2
-7 -15 -5 0.2 0.79
-15 7 -5 0.64 0.35
5 -15 -7 -0.61 0.51
7 5 15 -1.18 0.72
-7 -15 -5 0.83 0.92
15 -7 -5 0.44 0.49
-15 -5 -7 -0.31 0.78
5 7 -15 -0.47 1.02
-5 7 15 -0.33 0.84
5 -15 -7 -0.4 0.74
-7 -5 15 2.11 1.77
-7 5 -15 0.56 1.43
-5 -7 -15 -1.32 1.13
-15 -7 5 -0.71 1.14
-15 -7 -5 0.74 0.74
-15 -7 -5 0.18 0.58
-7 -5 -15 -0.9 1.18
-15 5 -7 0.28 0.66
-7 15 -5 -0.55 0.48
-5 -15 -7 -0.58 0.58
5 15 -7 -0.58 0.7
-15 -5 7 1.55 1.4
5 7 15 -0.64 0.83
15 -5 -7 0.23 0.54
15 7 -5 -0.28 0.58
7 -15 -5 -0.04 0.66
-5 -7 15 0.42 1.79
-5 7 -15 -0.88 1.19
-7 5 15 -0.75 0.87
5 -15 7 2.1 1.52
5 -7 -15 1.7 1.5
15 -7 5 -0.19 0.41
7 -5 15 1.29 1.37
-5 -15 -7 0.45 0.98
-7 -15 5 -0.03 1.27
7 -15 -5 0.71 0.88
7 5 -15 -1.36 0.89
-7 7 15 45.86 5.07
-7 15 -7 46.64 4.96
-7 -7 -15 44.37 5.76
-7 -7 15 37.76 5.86
-15 -7 7 39.04 5.44
-15 7 -7 48.52 4.43
-7 -15 -7 34.38 4.63
15 7 -7 48.42 4.83
15 -7 7 50.1 4.49
7 -7 15 48.02 5.92
-15 -7 -7 38.61 4.39
-15 -7 -7 53.89 5.34
-7 7 -15 44.11 5.93
7 -15 -7 46.47 5.04
7 -15 7 38.84 5.67
-7 -15 -7 40.31 5.06
7 -7 -15 43.02 5.95
-7 -15 7 44.24 5.93
15 -7 -7 46.79 4.64
7 7 15 51.98 5.24
7 -15 -7 44.18 4.72
15 -7 -7 45.1 3.89
7 7 -15 43.65 5.78
7 15 -7 39.05 4.82
1 -15 -9 49.87 5.3
-15 -9 1 49.32 5.33
-15 1 9 48.7 4.92
1 9 -15 42.92 5.75
9 -1 -15 34.89 5.57
15 -1 9 45.1 4.54
1 -9 15 50.16 6.35
-9 -15 -1 41.93 5.15
-1 -15 9 49.37 6.18
15 1 -9 48.45 4.94
-15 -1 -9 47.16 5.45
-1 9 15 50.21 5.35
-1 -9 -15 44.76 5.88
-1 15 -9 45.01 5.23
9 -15 1 36.18 5.06
9 15 -1 54.85 5.03
9 1 15 57.59 5.66
-9 -1 15 37.24 5.46
1 -15 -9 55.96 5.05
-9 1 -15 46.55 6.12
-1 -15 -9 38.02 4.6
1 9 15 54.3 5.41
15 -1 -9 49.03 5.04
-15 1 -9 51.37 5.52
-9 -15 1 44.28 5.39
-1 9 -15 42.51 5.69
9 -1 15 50.8 5.59
9 -15 -1 50.74 4.91
-1 -9 15 43.26 6.06
-9 15 -1 44.13 4.51
-1 -15 -9 40.74 5.08
1 -9 -15 57.55 6.24
-15 -9 -1 41.6 4.73
-15 -9 -1 47.4 5.09
9 -15 -1 41.13 5.03
-15 -1 9 42.44 5.12
-9 1 15 51.23 5.7
-9 -1 -15 52.62 6.38
9 1 -15 47.49 5.98
1 15 -9 47.09 5.23
9 15 1 41.94 4.65
15 9 -1 43.54 4.52
1 -15 9 43.77 5.91
15 1 9 38.68 4.41
-3 9 15 8.7 2.24
-3 -15 9 5.84 2.56
15 -9 -3 6.34 0.89
-9 -15 -3 5.42 1.58
3 -15 -9 8.82 2.35
9 -3 -15 5.76 2.41
-3 -9 -15 5.76 2.29
15 -3 9 7.53 1.63
3 -15 -9 4.05 1.35
-9 3 -15 7.62 2.74
-15 -9 3 6.03 2.13
-15 -3 -9 6.51 2.09
-9 -3 15 7.21 2.48
-3 15 -9 8.22 2.13
3 -9 15 6.9 2.84
-9 -15 -3 7.08 2.04
9 15 -3 6.47 1.69
15 -9 -3 5.87 0.84
9 3 15 6.7 1.87
-15 3 9 5.61 1.45
15 3 -9 6.43 1.85
9 -15 3 6.21 2
3 9 -15 5.51 2.15
3 -15 9 5.75 2.63
-3 -9 15 3.94 2.4
-15 3 -9 7.53 2.07
-9 -3 -15 8.62 2.84
-15 -3 9 6.92 2.05
-3 -15 -9 8.93 2.35
-9 -15 3 9.15 2.39
-3 -15 -9 4.96 1.49
15 -9 3 5.74 0.85
15 9 -3 9.17 1.81
9 -15 -3 11.21 2.19
-15 -9 -3 8.36 2
-15 -9 -3 7.6 1.95
3 -9 -15 7.38 2.5
9 3 -15 4.92 2.03
-9 15 -3 7.15 1.6
15 -3 -9 6.42 1.73
3 9 15 9.11 2.09
9 -15 -3 5.45 1.69
9 -3 15 8.66 2.59
-9 3 15 5.93 2.17
3 15 -9 6.29 1.98
15 -9 3 4.75 0.97
-3 9 -15 6.27 2.33
5 -15 -9 20.34 3.13
-9 5 -15 12.54 3.45
-5 15 -9 15.73 2.84
5 -15 -9 15.86 2.41
15 5 -9 15.92 2.58
-5 -15 9 20.27 4.34
9 5 15 17.8 2.96
15 -9 -5 17.63 1.96
-9 -5 15 20.51 4.35
5 -9 15 25.44 4.25
-15 -9 5 26.3 3.9
-15 9 -5 16.77 1.92
15 -9 -5 18.44 2.34
-15 5 9 20.42 2.34
-9 -15 -5 20.83 2.92
-9 -15 -5 19.22 2.97
5 9 -15 16.34 3.6
-15 -5 -9 19.96 3.26
15 -5 9 17.27 2.55
9 15 -5 18.5 2.85
-5 -9 -15 22.41 3.82
9 -15 5 14.32 3.31
-5 9 15 20.69 3.15
9 -5 -15 19.1 4.15
-15 -5 -9 16.7 2.39
9 -5 15 20.55 3.62
5 -9 -15 14.37 3.69
5 -15 9 16.15 3.69
9 -15 -5 17.88 2.76
-15 -9 -5 18.73 2.72
-15 -9 -5 16.04 2.77
-5 -9 15 20.66 4.5
5 15 -9 17.52 3.06
15 -5 -9 16.82 2.81
-9 15 -5 19.43 2.74
9 -15 -5 16.55 2.72
5 9 15 13.78 2.65
-15 -5 9 13.29 3.25
-15 5 -9 17.62 3.2
15 -9 5 16.97 2.29
15 9 -5 18.01 2.56
-9 -15 5 15.19 3.6
-9 5 15 16.19 2.89
-5 -15 -9 19.56 2.75
-5 -15 -9 22.2 3.18
-5 9 -15 11.44 3.18
-9 -5 -15 16.6 3.76
9 5 -15 16 3.9
9 -15 7 59.09 6.85
15 -9 -7 59.29 5.6
-15 -9 7 61.34 6.99
-15 -7 -9 57.01 5.4
-9 7 -15 54.92 6.76
7 -9 15 46.04 6.47
15 7 -9 57.83 5.84
-9 -7 15 60.58 7.22
-7 15 -9 49.08 5.75
7 -15 -9 58.32 5.48
7 -15 -9 54.26 5.99
9 7 15 48.87 5.59
15 -7 9 58.5 5.56
-15 -7 -9 54.01 6
9 -7 -15 50.75 6.63
-7 -15 9 62.35 7.23
-9 -15 -7 47.42 5.55
-9 -15 -7 60.93 6.15
-7 9 15 47.73 5.69
9 15 -7 48.73 5.57
15 -9 -7 53.13 4.78
-7 -9 -15 52.69 6.47
7 9 -15 60.6 6.71
-15 -9 -7 61.35 5.69
-9 15 -7 52.28 5.57
7 9 15 49.92 5.59
-9 -7 -15 55.62 6.68
-15 7 -9 57.41 5.62
-7 9 -15 51.93 6.5
7 -9 -15 49.4 6.5
15 -9 7 55.16 5.43
-15 -7 9 62.14 6.93
9 7 -15 56.89 6.65
-15 -9 -7 54.26 5.9
15 -7 -9 58.01 5.93
-7 -9 15 53.88 7.13
7 -15 9 50.7 6.69
-9 7 15 54.1 5.77
-7 -15 -9 52.1 5.46
-7 -15 -9 51.87 5.94
9 -15 -7 51.46 5.76
15 9 -7 54.64 5.52
9 -7 15 56.68 6.8
9 -15 -7 49.3 5.34
-9 -15 7 58.83 6.74
7 15 -9 43.67 5.68
9 -9 -15 92.41 9.83
9 -9 15 79.82 8.55
9 -15 9 89.9 9
9 -15 -9 71.25 7.75
-9 -15 9 82.86 8.9
15 9 -9 83.6 7.68
15 -9 -9 82.85 6.69
15 -9 -9 77.69 7.66
15 -9 9 68.26 7.32
-15 9 -9 77.67 7.28
9 9 -15 77.44 8.31
9 9 15 85 7.64
-15 -9 -9 86.24 8.18
-15 -9 9 63.41 8.24
-9 9 15 78.4 7.68
-9 -15 -9 71.98 7.28
9 15 -9 63.89 7.34
-9 -9 -15 67.03 8.12
-9 -9 15 69.95 8.74
-15 -9 -9 72.62 7.08
-9 -15 -9 80.81 7.86
-9 15 -9 71.89 7.52
9 -15 -9 89.33 7.38
-9 9 -15 81.9 8.51
-15 1 11 5.52 1.73
11 15 -1 3.85 1.34
-1 11 15 6.71 1.84
-1 -15 11 6.7 2.72
-11 -15 -1 4.55 1.78
11 1 15 5.93 2.01
15 -11 -1 4.76 1.26
15 -11 -1 7.03 1.22
11 -15 1 4.01 1.77
1 -11 15 4.91 2.49
1 -15 -11 7.49 2.21
-15 -11 1 9.03 2.14
11 -1 -15 7.01 2.71
15 1 -11 4.31 1.69
-11 -1 15 4.09 2.27
-11 1 -15 5.93 2.62
-1 -11 -15 5.45 2.1
-15 -1 -11 8.49 2.7
-1 15 -11 4.03 1.88
1 11 -15 4.35 2.01
1 -15 -11 7.09 1.77
15 -1 11 4.01 1.34
1 -15 11 5.11 2.3
11 -15 -1 5.51 1.75
15 -11 1 7.75 1.12
15 1 11 3.25 1.27
1 11 15 5.08 1.72
11 -15 -1 6.14 1.56
-15 1 -11 3.76 1.92
-11 15 -1 6.61 1.44
-15 -1 11 2.13 1.58
-1 11 -15 7.05 2.45
-15 -11 -1 5.69 1.68
11 15 1 5.11 1.56
11 1 -15 5.51 2.39
-1 -11 15 2.24 2.35
-1 -15 -11 1.79 1.41
11 -1 15 4.9 1.79
-1 -15 -11 3.45 1.36
-15 -11 -1 4.82 1.59
-11 -15 1 7.34 2.18
15 -11 1 7.54 1.55
-11 -1 -15 6.84 2.63
15 -1 -11 3.01 1.54
-11 1 15 5.95 2.28
1 15 -11 3.76 1.59
15 -11 -3 15.53 2.09
11 3 15 13.56 2.85
15 -11 -3 11.96 1.97
-11 3 -15 13.37 3.57
15 3 -11 16.19 3.3
3 -15 -11 12.77 2.26
3 -15 -11 21.5 3.26
11 -15 3 15.59 3.53
-11 -15 -3 11.79 2.74
-3 11 15 16.41 2.76
-3 15 -11 22.29 3.25
3 11 -15 19.57 3.32
-15 3 11 14.04 2.43
15 -3 11 15.42 2.43
-3 -15 11 15.64 4.17
-11 -3 15 12.63 3.47
-15 -11 3 11.69 2.99
-3 -11 -15 19.02 4.03
-11 -15 -3 10.54 2.48
3 -11 15 10.56 3.19
-15 -3 -11 11.71 3.13
11 15 -3 14.79 2.25
11 -15 -3 14.92 2.59
-3 -11 15 15.28 3.96
3 -11 -15 14.73 3.49
-3 11 -15 16.69 3.66
11 -3 15 15.1 3.18
11 -15 -3 14.11 2.44
-11 -15 3 11.84 3.2
-11 15 -3 13.5 2.07
11 3 -15 11.18 3.03
-15 -11 -3 14.9 2.66
-15 -11 -3 11.31 2.47
-15 -3 11 19.83 3.48
-11 -3 -15 12.41 3.29
-15 3 -11 8.72 2.65
3 15 -11 15.07 2.72
3 11 15 12.01 2.54
-3 -15 -11 11.28 2.47
-3 -15 -11 10.98 2.86
3 -15 11 17.51 3.91
15 -3 -11 12.24 2.86
15 3 11 19.39 2.64
15 11 -3 12.31 2.25
15 -11 3 14.42 2.29
11 5 15 9.63 2.33
15 -11 -5 14.26 2.25
11 -5 -15 6.11 2.53
-15 -5 -11 13.27 3.06
-11 -5 15 8.96 3.15
-5 15 -11 9.18 2.43
-15 -11 5 11.49 3.16
11 -15 5 14.56 3.56
-11 -15 -5 14.98 2.58
15 -5 11 14.11 2.46
15 5 -11 14.76 2.6
5 -11 15 11.98 3.59
11 15 -5 12.68 2.26
-15 11 -5 12.7 1.64
5 11 -15 16.35 3.51
-15 5 11 8.56 2.05
-11 -15 -5 9.05 2.37
15 -11 -5 11.99 1.84
-11 5 -15 11.46 3.23
5 -15 -11 9.4 2.6
-5 -11 -15 13.93 3.4
-5 -15 11 13.71 3.77
5 -15 -11 12.38 2.13
-5 11 15 12.22 2.61
-11 -15 5 7.27 2.72
-15 5 -11 11.39 2.8
11 5 -15 12.95 3.32
11 -15 -5 12.44 2.59
5 11 15 15.19 2.6
-15 -11 -5 8.78 2.12
-15 -5 11 10.5 3.02
-11 15 -5 12.97 2.12
5 15 -11 12.16 2.77
5 -11 -15 10.31 2.86
-11 5 15 11.11 2.6
-5 -15 -11 12.8 2.25
-5 -15 -11 12.31 2.83
-15 -11 -5 11.63 2.64
15 -5 -11 12.17 2.7
-5 11 -15 7.15 2.53
11 -15 -5 13.84 2.43
-11 -5 -15 10.93 3.22
15 -11 5 10.9 2.42
5 -15 11 11.16 3.52
-5 -11 15 9.92 3.23
15 11 -5 13.31 2.2
11 15 -7 0.1 0.81
11 -7 -15 0.53 1.55
-11 -15 -7 -1.07 0.68
7 -15 -11 0.68 1.13
15 -7 11 0.06 1.02
11 -15 7 -0.12 1.6
11 7 15 0.48 1.02
-11 7 -15 0.05 1.15
-7 -15 11 2.5 1.94
-7 15 -11 0.38 0.92
7 11 -15 0.73 1.34
-11 -7 15 -2.92 1.46
-7 -11 -15 0.65 1.39
15 7 -11 0.42 0.8
-7 11 15 -0.41 0.84
-15 7 11 -0.1 0.58
-11 -15 -7 -0.42 0.81
15 -11 -7 -0.44 0.97
15 -11 -7 0.19 0.57
-15 11 -7 0.59 0.65
-15 -7 -11 0.27 1.12
-15 -7 -11 -0.59 0.64
7 -15 -11 0 0.69
7 -11 15 -1.76 1.34
11 -7 15 -0.12 1.1
7 11 15 0.09 0.92
15 11 -7 1.47 0.99
-11 15 -7 1.22 0.85
-15 7 -11 0.79 1.16
7 15 -11 0.9 0.99
15 -7 -11 -0.84 1.21
11 -15 -7 0.08 0.72
-7 -11 15 -0.42 1.62
11 -15 -7 0.04 0.9
-15 -11 -7 0.05 0.7
-15 -11 -7 0.61 1
-11 -7 -15 0.3 1.17
15 -11 7 0.58 1.04
7 -11 -15 -0.94 1.04
-7 11 -15 1.44 0.81
-7 -15 -11 1.46 1.28
11 7 -15 -0.66 1.08
7 -15 11 0.17 1.7
-11 -15 7 0.51 1.44
-15 -7 11 -0.22 1.37
-11 7 15 1.25 1.28
11 -15 9 9.85 3.3
9 11 -15 7.67 2.59
-15 -9 -11 8.62 1.97
-9 -11 -15 8.33 2.69
11 -9 -15 6.51 2.58
9 -15 -11 8.8 2.04
15 -11 -9 7.47 2.39
11 9 15 5.89 1.88
15 -11 -9 8.13 1.61
-11 -15 -9 4.19 1.76
-11 -15 -9 9.71 2.47
-9 15 -11 5.54 1.98
11 15 -9 12.97 2.73
9 -15 -11 5.95 2.34
15 9 -11 5.53 1.88
15 -9 11 5.35 2.2
-9 11 15 6.29 1.8
-11 9 -15 10.43 2.96
-15 -9 -11 7.78 2.58
-15 -11 9 8.76 2.97
-15 11 -9 7.45 1.84
-11 -9 15 3.99 2.6
-9 -15 11 8.32 3.1
11 9 -15 6.79 2.37
11 -9 15 6.22 2.71
-15 -11 -9 5.95 2.03
15 -9 -11 6.8 2.61
-9 -11 15 11.56 3.35
9 15 -11 3.77 1.63
-11 9 15 7.3 2.03
-15 -11 -9 7.08 1.86
9 -15 11 8.85 3.22
-11 -9 -15 6.36 2.6
-11 -15 9 4.92 2.51
-9 11 -15 10.66 2.56
-11 15 -9 10.4 2.4
-9 -15 -11 5.68 1.74
-15 9 -11 7.09 2.04
-15 -9 11 3.92 2.25
15 -11 9 6.6 2.14
15 11 -9 6.2 1.91
9 -11 -15 1.59 2.14
11 -15 -9 6.6 1.83
-9 -15 -11 7.4 2.39
11 -15 -9 9.18 2.35
11 -15 11 -1.62 1.68
-11 11 15 0.43 1.09
15 -11 -11 3.49 2.7
-11 -11 -15 3.8 1.82
11 -15 -11 0.4 0.77
11 -15 -11 1.1 1.37
15 -11 11 0.11 1.36
15 11 -11 2.52 1.32
11 15 -11 0.49 0.89
15 -11 -11 2.91 1.26
11 -11 -15 2.58 2.1
-15 11 -11 1.87 1.36
-11 -15 -11 1.01 1.21
-11 -15 -11 1.11 1.37
-11 -15 11 1.81 1.58
-11 -11 -15 1.19 0.97
11 11 -15 3.42 1.73
-11 -11 15 2.8 2.23
-11 11 -15 -0.39 0.93
-15 -11 11 2.83 2.01
-11 15 -11 1.98 1.41
11 -11 15 -1.23 1.11
-15 -11 -11 2.57 1.67
-15 -11 -11 1.5 1.18
15 1 -13 1.42 1.29
-15 1 13 -0.57 0.92
-13 -15 -1 0.82 1.25
13 -15 1 0.44 0.98
13 -15 1 -0.12 0.65
-1 -13 -15 1.07 1.38
-15 -13 1 0.27 1.07
-1 13 15 -0.44 0.91
-13 -1 15 1.36 1.35
1 13 -15 2.47 1.61
13 15 -1 -1.07 0.6
15 -1 13 1.86 1.06
-1 15 -13 -0.58 0.91
1 -15 -13 1.09 0.82
1 -15 -13 -0.78 1.15
-15 -1 -13 0.41 1.46
-13 1 -15 -1.17 1.48
13 -1 -15 1.08 1.6
13 1 15 2 1.2
15 -13 -1 -0.09 0.88
15 -13 -1 -0.27 0.6
-1 -15 13 0.85 1.64
15 -1 -13 1.56 1.26
1 13 15 1.95 1.26
15 1 13 -1.2 0.57
-15 1 -13 1.27 1.36
13 -1 15 -0.25 0.72
-15 -13 -1 0.56 1
1 15 -13 0.38 1.07
1 -15 13 -0.27 1.31
-1 -15 -13 -0.11 1.28
15 -13 1 0.85 0.68
1 -13 -15 -0.59 1.21
13 -15 -1 1.26 1.05
-13 1 15 -1.19 0.92
-1 -15 -13 0.06 0.64
15 -13 1 0.93 1.04
-13 -15 1 0.99 1.15
-1 -13 15 1.38 1.64
-1 13 -15 0.66 1.04
-13 -1 -15 -1.49 1.28
-15 -1 13 -0.49 1.13
-15 -13 -1 0.6 1
13 -15 -1 0.99 0.81
15 3 -13 40.45 5.11
-15 -3 -13 45.26 5.81
13 3 15 30.24 4.46
15 -3 13 33.65 4.42
3 -15 -13 43.47 4.62
3 -15 -13 45.73 5.44
-13 -3 15 37.68 5.39
-13 -15 -3 36.53 4.8
-3 -13 -15 41.81 5.34
15 -13 -3 38.77 4.31
-15 3 13 42.16 4.77
13 -3 -15 37.15 5.5
-13 -15 -3 37.8 4.57
-3 15 -13 40.96 5.17
-15 -13 3 48.7 5.66
-13 3 -15 34.69 5.57
-3 -15 13 33.98 5.75
-3 13 15 40.97 4.77
13 15 -3 42.1 4.57
3 -13 15 46.26 6.31
3 13 -15 39.41 5.31
15 -13 -3 39.44 4.21
13 -15 3 36.98 4.98
-15 -13 -3 46.34 5.04
3 -13 -15 38.4 5.32
15 -13 3 33.96 4.55
-13 -3 -15 46.27 6.06
-3 -15 -13 39.12 4.47
-3 -15 -13 44.74 5.44
13 -3 15 40.82 5.06
-13 -15 3 36 5.22
-13 15 -3 39.64 4.09
13 3 -15 32.34 5.06
-3 -13 15 36.35 5.86
-3 13 -15 37.26 5.22
15 13 -3 40 4.4
3 -15 13 40.3 6.01
13 -15 -3 46.41 4.81
13 -15 -3 39.43 4.44
-15 3 -13 37.39 5.45
15 -3 -13 46.09 5.57
-13 3 15 27.88 4.61
-15 -13 -3 42.41 4.74
15 3 13 38.83 4.47
3 15 -13 40.22 5.14
-15 -3 13 37.03 5.19
5 -15 -13 42.66 5.31
-13 -5 15 41.68 5.73
-13 5 -15 34.89 5.44
13 -5 -15 34.41 5.54
15 5 -13 33.43 4.82
-5 -13 -15 46.86 5.48
15 -13 -5 35.12 4.05
15 -13 -5 50.17 4.74
13 -15 5 36.05 5.22
-5 -15 13 41.28 5.82
-15 13 -5 41.29 3.84
-15 -5 -13 35.39 5.28
5 -13 15 46.62 6.26
-5 15 -13 30.07 4.7
-15 -13 5 48.52 5.75
-13 -15 -5 40.83 4.77
-13 -15 -5 35.37 4.6
13 15 -5 35.54 4.28
-15 5 13 39.86 4.5
15 -5 13 36.36 4.71
5 -15 -13 35.45 4.29
13 5 15 34.43 5.05
-5 13 15 30.74 4.35
5 13 -15 33.42 4.94
-15 -5 13 41.48 5.73
5 -13 -15 39.49 5.45
13 -15 -5 49.44 4.7
13 -15 -5 37.63 4.52
-5 -15 -13 37.93 5.16
-13 -15 5 35.03 5.24
-13 15 -5 44.17 4.15
-15 -13 -5 33.71 4.54
13 -5 15 32.31 4.75
15 5 13 36.75 4.54
-15 5 -13 31.42 5.06
-5 -13 15 39.11 6.09
-13 -5 -15 44.23 5.85
5 -15 13 40.45 5.98
5 15 -13 36.3 4.87
-15 -13 -5 35.3 4.68
13 5 -15 38.96 5.38
-5 13 -15 39.69 5.23
-13 5 15 36.16 4.54
-5 -15 -13 42.91 4.53
15 -13 5 37.4 4.83
15 13 -5 30.82 4.14
15 -5 -13 42.74 5.43
-15 -13 7 0.45 1.75
-15 7 13 4.55 1.53
13 -7 -15 5.2 2.4
7 -15 -13 3.79 1.44
15 -7 13 3.55 1.68
-15 -7 -13 4.36 1.44
-15 -7 -13 3.5 1.84
-13 -7 15 5.04 2.39
-13 7 -15 4.49 2.27
13 15 -7 1.23 1.21
-13 -15 -7 4.29 1.53
-13 -15 -7 1.24 1.07
-7 15 -13 3.44 1.68
13 -15 7 0.13 1.85
-7 -13 -15 4.42 1.57
-7 -13 -15 3.17 1.85
15 -13 -7 4.66 1.39
-7 -15 13 5.04 2.57
-7 13 15 2 1.37
15 7 -13 2.16 1.58
7 -13 15 6.52 2.53
7 13 -15 0.7 1.38
13 7 15 2.63 1.36
13 -15 -7 1.87 1.43
7 -13 -15 6.04 2.24
7 15 -13 1.8 1.15
15 -7 -13 4.18 2.19
-15 -13 -7 1.6 1.28
13 -15 -7 3.33 1.36
-15 -7 13 2.16 1.88
-15 7 -13 1.24 1.51
-13 7 15 5.48 1.71
-13 15 -7 3.14 1.18
-7 13 -15 6.27 2.21
-13 -15 7 0.89 1.99
-15 -13 -7 2.55 1.25
7 -15 13 2.15 2.12
13 -7 15 2.88 1.96
13 7 -15 3.24 1.67
-7 -15 -13 4.63 1.58
-7 -15 -13 3.8 1.92
15 -13 7 2.06 1.67
15 13 -7 2.23 1.32
-7 -13 15 1.12 1.82
-9 15 -13 0.34 1.08
-15 -13 9 -0.5 1.62
-9 -13 -15 -0.55 0.69
-9 -13 -15 0.63 1.43
-13 -9 15 -3.41 1.29
-13 9 -15 -0.22 1.59
-15 -9 -13 -1.47 1.22
9 -13 15 -3.01 1.17
9 13 -15 0.71 1.16
-9 -15 13 -0.77 1.98
-13 -15 -9 -0.07 1.13
13 -15 9 -1.26 1.65
13 15 -9 -0.92 0.64
-15 9 13 1.68 1.08
15 -9 13 -0.6 1.29
15 9 -13 -0.23 0.79
9 -15 -13 -0.28 0.63
9 -15 -13 0.46 1.29
15 -13 -9 -0.82 0.63
15 -13 -9 1 1.26
-13 -15 -9 -0.83 0.66
-15 -9 -13 0.07 0.68
13 -9 -15 0.09 1.61
-15 13 -9 1.09 0.77
-13 -15 9 -1.64 1.61
15 -9 -13 0 1.48
15 13 -9 -0.26 0.83
-15 9 -13 -0.31 0.85
-9 -15 -13 -0.06 0.77
-9 -15 -13 2.5 1.59
-15 -9 13 0.79 1.75
-13 -9 -15 -0.36 1.03
-9 -13 15 -1.55 1.14
-9 13 -15 1.21 1.27
-13 9 15 0.99 0.88
-13 15 -9 1.81 0.85
9 15 -13 -1 0.87
-15 -13 -9 -0.05 0.87
-15 -13 -9 -0.47 0.95
13 -15 -9 -1.76 1
13 9 -15 2.2 1.36
9 -15 13 0.15 1.59
13 -9 15 1.02 1.7
13 -15 -9 1.52 1.05
9 -13 -15 1.6 1.72
-13 -11 15 31.43 5.25
15 -13 -11 20.4 4.44
-13 -15 -11 31.68 3.88
-13 11 -15 30.88 4.35
13 -11 -15 26.19 5.41
15 11 -13 27.47 4.04
13 15 -11 24.5 3.8
11 -13 15 23.34 5.12
11 13 -15 27.26 4.13
-11 15 -13 21.47 3.58
11 -15 -13 27.03 3.46
13 -15 11 26.45 5.58
-15 -11 -13 30.04 3.66
-15 -11 -13 17.06 4.14
-13 -15 -11 24.38 4.05
11 -15 -13 31.66 4.72
15 -13 -11 22.97 3.07
-11 -13 -15 24.73 3.44
-11 -13 -15 30.21 4.54
-15 -13 11 23.59 5.16
-11 -15 13 25.18 5.36
11 -13 -15 21.37 3.18
15 13 -11 24.73 3.74
-13 -15 11 24.67 5.66
-15 11 -13 31.26 4.18
15 -13 11 29.3 4.61
-15 -13 -11 25.84 3.52
-15 -13 -11 23.24 4.14
11 -13 -15 29 5.61
-13 -11 -15 25.24 3.45
-13 -11 -15 23.02 4.23
-11 -13 15 20.52 5.18
-11 13 -15 24.05 4.7
-13 11 15 20.58 3.49
-11 -15 -13 22.41 3.38
-11 -15 -13 24.75 4.31
15 -11 -13 29.22 3.38
13 -15 -11 25.9 3.41
13 -15 -11 24.42 4.33
-15 -11 13 20.28 4.94
11 -15 13 26.08 5.38
11 15 -13 23.59 3.85
15 -11 -13 27.19 4.76
13 -11 15 28.52 4.97
-13 15 -11 25.25 3.74
13 -15 -13 27.53 5.58
13 -15 13 32.38 7.35
13 -13 15 27.92 4.89
-15 -13 -13 33.09 3.92
-15 -13 -13 29.01 4.54
-15 -13 13 24.94 5.94
-15 13 -13 30.37 4.26
-13 -15 -13 34.36 3.89
-13 -15 -13 27.42 4.62
-13 -15 13 29.3 6.02
-13 -13 -15 26.17 3.8
-13 -13 -15 31.77 4.84
-13 -13 15 23.66 6.51
-13 13 -15 23.77 4.44
-13 15 -13 32.92 6.58
13 -15 -13 24.3 3.59
15 13 -13 30.22 4.38
15 -13 13 28.5 5.03
15 -13 -13 29.35 5.7
13 15 -13 29.06 4.28
15 -15 -1 44.63 5.3
1 15 -15 43.17 5.52
1 -15 15 39.05 6.28
-15 -15 -1 39.61 5.26
-15 -15 -1 50.37 5.3
-15 -15 1 53.65 5.93
-15 -1 -15 36.93 6.02
-15 -1 15 44.16 5.69
-15 1 -15 38.25 5.88
-15 1 15 40.6 5.24
-1 -15 -15 39.94 4.7
-1 -15 -15 49.67 5.73
-1 -15 15 35.13 6.05
-1 15 -15 53.37 6.13
1 -15 -15 44.4 4.8
1 -15 -15 43 5.66
15 1 15 38.38 4.93
15 1 -15 36.89 5.47
15 -1 15 47.05 5.17
15 -15 -1 37.14 4.41
15 -15 1 53.72 5.7
15 -1 -15 43.93 5.95
-15 3 15 3.97 1.63
-15 3 -15 2.74 2.26
-15 -3 15 1.91 1.76
-15 -15 -3 4.1 1.74
-15 -15 -3 3.35 1.6
-15 -15 3 2.77 1.77
-15 -3 -15 2.79 2.1
15 -3 -15 2.9 2.2
15 -3 15 2.19 1.42
15 3 -15 5.45 2.2
15 3 15 4.62 1.79
15 15 -3 4.1 1.48
15 -15 -3 2.21 1.32
15 -15 3 0.05 1.47
3 -15 -15 0.77 1.22
3 -15 15 1.48 2.18
3 15 -15 3.79 1.65
15 -15 -3 2.16 1.3
3 -15 -15 3.45 1.44
-3 -15 15 0.29 1.84
-3 15 -15 5.22 2.05
-3 -15 -15 3.84 1.55
-3 -15 -15 3.44 1.72
15 -15 5 2.11 1.74
15 -5 -15 2.17 1.81
15 -15 -5 4.31 1.52
15 -15 -5 4.02 1.55
5 -15 15 2.38 2.33
5 15 -15 3.07 1.62
5 -15 -15 1.27 1.59
-5 -15 -15 2.48 1.7
-5 -15 15 -0.88 2.21
-5 15 -15 5.95 2.29
5 -15 -15 3.55 1.41
-15 5 15 0.68 1.06
-5 -15 -15 3.49 1.47
15 5 -15 6.1 2.14
15 5 15 2.15 1.42
15 15 -5 4.1 1.43
-15 -5 15 1.05 1.94
-15 5 -15 4.44 2.26
-15 -15 -5 0.49 1.19
-15 -15 -5 2.89 1.52
-15 -15 5 1.29 1.48
-15 -5 -15 1.37 1.75
15 -5 15 2.21 1.69
-15 -15 -7 11.03 2.72
-15 -15 7 17.1 3.97
-15 -7 -15 8.62 3.11
-15 -7 15 15.22 3.96
-15 7 -15 12.19 3.3
-15 7 15 13.95 2.83
-15 -15 -7 14.86 3.2
-7 -15 -15 10.41 2.38
-7 -15 -15 9.21 2.81
-7 -15 15 4.02 2.98
-7 15 -15 12.45 3.14
7 -15 -15 12.93 2.64
7 -15 -15 15.87 3.78
7 -15 15 17.48 4.37
7 15 -15 9.47 2.65
15 -7 15 10.29 2.86
15 7 -15 10.35 3.01
15 15 -7 9.11 2.48
15 -7 -15 9.23 3.33
15 -15 -7 14.72 2.58
15 -15 -7 13.06 2.92
15 -15 7 7.72 2.96
-15 15 -7 11.8 1.98
-9 -15 -15 38.61 5.05
-9 -15 15 23.69 5.62
-9 15 -15 34.94 4.8
-9 -15 -15 32.95 4.16
-15 -9 15 47.79 6.1
-15 9 -15 13.64 5.3
-15 9 15 40.05 4.68
-15 -9 -15 41.69 5.42
-15 -15 -9 33.96 4.49
-15 -15 9 45.48 5.83
-15 -9 -15 29.16 3.94
15 15 -9 32.73 4.28
15 -9 -15 45.76 6.08
15 -9 15 29.22 4.84
15 9 -15 26.55 4.4
-15 -15 -9 29.73 4.21
9 15 -15 36.04 4.73
15 -15 -9 29.35 4.81
9 -15 15 32.71 5.63
9 -15 -15 31.09 4.04
9 -15 -15 30.75 4.95
-15 11 -15 5.8 1.93
-15 -11 -15 1.55 1.53
-15 -11 15 -1.69 2
-15 -15 -11 1.07 1.21
-15 -15 -11 3.55 1.75
-15 -15 11 -1.44 1.52
-15 -11 -15 3.16 1.45
-11 -15 -15 2.79 1.12
-11 -15 -15 0.08 1
-11 -15 15 2.55 2.24
-11 15 -15 3.07 1.69
11 -15 -15 1.59 1
11 -15 -15 0.85 1.72
11 -15 15 4.24 2.95
11 15 -15 1.93 1.39
15 -15 -11 -0.17 0.9
15 -15 -11 3.27 2.2
15 -15 11 -0.67 1.57
15 15 -11 0.02 0.85
15 -11 -15 -0.66 1.66
15 -11 15 4.08 1.98
15 11 -15 -0.17 1.16
13 -15 -15 0.01 1.88
-15 -15 -13 0.04 1.01
-15 -15 -13 0.05 1.2
-15 -15 13 -1.92 2.09
-15 -13 -15 -1.79 0.73
-15 -13 -15 1.23 2.75
-15 -13 15 4.93 3.31
-15 13 -15 -1.67 1.46
15 13 -15 -0.14 1.3
15 15 -13 0.24 1.26
13 -15 15 -0.7 1.68
15 -15 13 2.47 3.13
15 15 -15 32.58 4.66
0 -16 0 342.66 26.32
0 0 16 337.99 26.69
0 0 -16 313.04 27.18
2 0 16 90.2 8.97
0 2 -16 83.99 9.45
0 2 16 83.01 8.61
2 -16 0 95.8 8.64
2 16 0 100.2 8.16
-2 0 -16 87.07 9.53
2 0 -16 95.85 9.57
-2 0 16 88.66 8.92
0 -16 -2 90.36 8.54
0 -16 2 83.11 8.7
-2 16 0 90.76 8.04
0 -2 -16 91.68 9.5
0 -2 16 100.68 9.23
-16 -2 0 91.06 7.55
-16 -2 0 87.76 7.21
-2 -16 0 84.7 8.46
2 -16 -2 39.5 4.7
2 2 16 36.17 4.92
2 16 -2 44.77 4.48
2 16 2 46.43 4.46
2 2 -16 42.86 5.82
-2 -16 -2 36.54 4.65
-2 -16 2 38.35 4.95
-2 -2 -16 34.64 5.52
-2 -2 16 42.9 5.46
-2 2 -16 43.54 5.81
-2 2 16 43.43 5.18
-2 16 -2 41.35 4.35
-2 16 2 45.75 4.36
2 -2 16 38.42 5.09
-16 -2 -2 38.68 3.82
-16 -2 -2 40.43 3.85
-16 -2 2 42.09 4.09
-16 -2 2 39.57 3.55
2 -2 -16 38.51 5.63
2 -16 2 42.57 5.06
4 0 16 20.21 3.41
4 -16 0 19.46 3.01
4 16 0 18.28 2.61
-16 -4 0 18.74 2.24
-4 0 -16 18.59 4
-16 -4 0 20.02 2.55
-16 0 -4 15.4 2.15
0 4 -16 17.68 4.02
-16 0 -4 17.8 1.83
0 4 16 15.53 2.85
0 -4 -16 21.51 4.46
0 -4 16 20.78 4.18
16 0 -4 18.11 1.62
-4 16 0 18.64 2.52
-4 0 16 16.74 3.51
0 -16 -4 15.58 2.63
0 -16 -4 15.2 2.55
0 -16 4 19.59 3.43
4 0 -16 6.98 3.98
-16 0 4 17.14 1.85
-4 -16 0 17.58 2.99
4 -16 2 0.42 1.21
2 4 -16 6.76 2.46
-16 -2 -4 2.64 1.1
2 -4 16 4.66 2.11
-4 -16 -2 2.91 1.45
16 2 -4 3.22 0.76
4 16 -2 5.29 1.34
-4 2 -16 3.67 2.03
2 -16 -4 3.06 1.41
2 -16 -4 2.15 1.1
-2 -16 4 3.52 1.65
-2 4 16 3.67 1.75
-16 -2 -4 2.86 0.81
-2 16 -4 2.4 1.18
-4 -2 16 3.1 1.82
-2 -4 -16 1.29 1.61
4 2 16 4.3 1.86
4 -2 -16 1.33 1.74
-16 -4 2 4.67 1.48
2 4 16 4.32 1.96
-4 -2 -16 0.47 1.57
2 -16 4 2.85 1.74
2 16 -4 1.72 1.06
4 -16 -2 2.47 1.24
-2 4 -16 1.59 1.78
4 16 2 3.36 1.3
-4 16 -2 2 0.93
-16 -4 -2 3.2 1.06
-16 -4 -2 1.83 0.86
2 -4 -16 3.65 1.95
4 -2 16 1.4 1.41
4 2 -16 4.95 2.23
-2 -4 16 2.6 1.89
-2 -16 -4 4.43 1.37
-2 -16 -4 1.5 1.11
-4 -16 2 1.72 1.38
-4 2 16 3.03 1.68
-16 -2 4 2.49 1.17
-4 -16 4 4.24 1.81
16 4 -4 2.79 0.89
4 4 16 3.53 1.52
-4 4 16 2.87 1.47
4 16 -4 1.14 1.02
-4 -16 -4 2.01 1.15
-16 -4 -4 2.89 0.97
-16 -4 4 3.57 1.43
-4 -16 -4 1.5 1.08
4 -4 -16 1.46 1.41
4 -4 16 -0.79 1.16
4 4 -16 -0.44 1.22
4 -16 -4 2.97 1.25
-4 -4 16 1.01 1.47
-4 4 -16 2.21 1.82
4 -16 -4 1.71 0.98
-4 -4 -16 1.96 1.82
-4 16 -4 3.24 1.29
4 -16 4 1.08 1.36
0 -16 6 21.47 3.81
-16 0 -6 19.36 2.85
-16 0 6 25.32 2.71
0 -16 -6 21.5 3.04
0 -6 -16 14.94 3.85
0 -6 16 17.72 3.85
0 6 -16 21.41 3.83
0 6 16 18.33 2.98
6 -16 0 19.35 3.17
6 16 0 25.41 3.09
16 0 -6 19.75 2.24
0 -16 -6 19.11 3
-16 0 -6 21.19 2.23
-6 0 16 24.48 3.81
-6 0 -16 20.22 4.36
6 0 -16 18.37 4.24
-6 -16 0 21.1 3.21
-6 16 0 22.79 2.88
-16 -6 0 26.19 3.26
-16 -6 0 20.6 2.61
6 0 16 25.39 3.7
6 -16 2 4.34 1.77
-2 16 -6 3.14 1.4
2 -16 -6 2.48 1.19
-6 -16 -2 4.25 1.66
-6 -2 16 3.4 1.69
6 2 16 0.94 1.22
-2 -6 -16 4.35 2.14
-16 2 6 3.28 0.74
6 16 -2 1.26 0.95
-6 2 -16 1.72 1.64
16 2 -6 2.85 0.96
-2 -16 6 2.3 1.49
-16 -6 2 2.72 1.33
6 -2 -16 5.26 2.27
-16 -2 -6 3.55 0.91
2 6 -16 4.38 2.25
2 -16 -6 1.21 1.22
-2 6 16 1.57 1.07
2 -6 16 5.45 2.24
-6 -2 -16 5.08 2.27
-16 2 -6 2.14 0.99
16 6 -2 2.21 0.79
-2 -6 16 3.42 1.96
-16 -2 6 0.78 1.03
2 6 16 4.67 1.66
6 -16 -2 5.46 1.66
6 -16 -2 4.99 1.65
6 2 -16 5.46 2.25
6 16 2 4.3 1.32
16 -2 -6 2.48 0.66
2 -6 -16 3.42 1.81
-2 -16 -6 5.43 1.7
-6 -16 2 1.4 1.18
-6 16 -2 1.94 1.07
2 -16 6 1.74 1.68
2 16 -6 1.32 1.25
-2 6 -16 1.7 1.85
-6 2 16 3.78 1.76
-16 -6 -2 2.24 1.01
-16 -6 -2 0.79 0.81
-16 2 -6 3.08 0.73
-2 -16 -6 4.47 1.49
6 -2 16 3.88 1.82
16 4 -6 7.54 1.53
-4 -16 6 7.54 2.43
4 -16 -6 8.6 2.02
-16 -4 -6 4.89 1.23
-4 -6 -16 5.33 2.27
-4 16 -6 5.36 1.76
-16 -6 4 6.06 2.08
-6 4 -16 5.69 2.6
-6 -4 16 4.77 2.32
-16 -4 -6 5.3 1.76
-6 -16 -4 4.28 1.56
6 -16 4 7.83 2.46
6 4 16 6.38 1.75
4 -16 -6 7.62 2.1
4 -6 16 3.8 2.25
4 6 -16 5.91 2.45
6 -4 -16 8.04 2.84
6 16 -4 6.06 1.74
-6 -16 -4 4.77 1.7
-4 6 16 5.29 1.8
-16 -6 -4 5.99 1.6
-6 4 16 8.61 2.53
6 -16 -4 2.18 1.16
16 -4 -6 5.03 0.71
4 -6 -16 6.23 2.59
-6 -4 -16 5.16 2.28
6 4 -16 4.03 1.88
-4 -16 -6 6.55 1.74
-4 -16 -6 6.14 1.9
-4 -6 16 5.02 2.37
-16 -6 -4 9.8 2.08
16 6 -4 3.44 1.11
6 -16 -4 6.64 1.85
4 -16 6 3.95 2.18
-16 4 -6 5.62 1.17
-16 -4 6 6.74 1.89
16 -4 -6 5.66 0.61
-6 -16 4 4.32 1.81
-6 16 -4 6.23 1.68
4 16 -6 6.03 1.84
6 -4 16 3.09 1.87
4 6 16 2.62 1.41
-4 6 -16 4.96 2.45
6 6 -16 6.1 2.35
6 -6 16 5.66 2.21
-6 6 16 2.76 1.63
6 -6 -16 3.54 2.29
6 -16 -6 7.11 1.96
-6 16 -6 4.26 1.57
6 -16 -6 3.79 1.37
-16 -6 -6 5.19 1.44
-16 -6 -6 3.41 1.6
-16 -6 6 1.46 1.7
-16 6 -6 5.88 0.98
16 -6 6 3.91 0.84
-6 -16 -6 5.67 1.79
-6 -16 6 5.25 2.09
-6 -16 -6 7.86 1.94
16 -6 -6 3.99 0.71
-6 6 -16 0.25 1.77
-6 -6 -16 4.59 2.2
-6 -6 16 3.1 2.08
6 -16 6 4.18 1.97
16 -6 -6 4.87 0.59
16 6 -6 6.95 1.67
6 6 16 4.82 1.64
6 16 -6 6.05 1.71
0 8 16 109.18 9.88
-8 0 16 109.76 10.45
0 8 -16 126.47 11.22
16 0 -8 113.25 9.17
-16 0 8 113.33 9.41
0 -8 -16 86.46 10.16
0 -8 16 102.84 10.86
8 0 -16 104.35 10.82
8 0 16 91.69 9.81
-8 0 -16 128.17 11.41
8 -16 0 98.88 9.83
8 16 0 100.41 9.31
0 -16 8 110.39 10.81
-16 -8 0 116.41 9.86
-16 -8 0 107.03 9.3
-16 2 8 81.61 6.76
-16 -2 -8 86.08 7.84
-2 16 -8 81.74 7.76
-2 -16 8 65.83 8.21
2 -16 -8 74.48 7.54
-8 2 -16 78.62 8.71
8 2 16 75.63 7.69
-16 -2 -8 67.11 6.59
-8 -2 16 73.48 8.22
2 -16 -8 81.44 7.3
-2 -8 -16 72.92 8.3
-16 -8 2 78.82 7.79
8 -2 -16 77.53 8.61
2 8 -16 66.8 8.2
-2 8 16 95.89 7.97
16 2 -8 85.99 7.13
2 -8 16 80.5 8.55
8 16 -2 81.62 7.21
8 -16 2 71.77 7.78
16 -2 8 73.81 6.59
2 -8 -16 68.22 8.21
-16 2 -8 83.32 7.71
-2 -16 -8 66.37 7.09
8 -16 -2 79.3 7.23
-16 -8 -2 72.33 7.22
-16 -8 -2 75.96 7.14
8 -16 -2 76.25 7.47
-16 -2 8 75.33 7.5
8 -2 16 81.83 8.11
2 -16 8 79.04 8.58
-8 2 16 76.73 7.93
-2 -16 -8 80.06 7.67
16 8 -2 70.81 6.8
8 2 -16 80.92 8.64
16 -2 -8 74.76 6.82
-8 16 -2 73.23 8.33
-2 -8 16 79.69 8.87
-2 8 -16 76.39 8.5
-8 -2 -16 83.89 8.79
2 8 16 88.36 7.86
2 16 -8 85.1 7.79
-4 16 -8 29.02 3.91
-4 -16 8 31.93 4.98
-8 -4 16 28.8 4.74
-8 4 -16 34.08 5.12
4 -16 -8 27.04 3.5
8 -4 -16 29.41 4.9
-16 -4 -8 33.66 3.4
-16 -4 -8 28.02 4.05
-16 -8 4 35.06 4.54
-16 4 8 25.73 2.91
4 -8 16 29.56 4.93
16 -4 8 29.74 3.19
16 4 -8 30.63 3.63
4 8 -16 37.13 4.96
-4 -8 -16 24.97 4.55
8 16 -4 29.92 3.66
8 4 16 29.67 3.96
8 -16 4 31.03 4.47
-4 8 16 25.39 3.85
-8 -16 -4 29.42 4.64
4 -16 -8 33.2 4.06
8 4 -16 30.13 4.82
8 -4 16 38.54 4.91
-16 -8 -4 25.42 3.48
-8 16 -4 31.91 3.7
4 -16 8 33.52 4.95
-16 4 -8 27.77 3.54
16 8 -4 33.64 3.47
4 -8 -16 34.44 4.99
16 -4 -8 28.02 3.35
-8 -16 4 29.16 4.54
-8 4 16 31.8 4.25
-16 -4 8 31.35 4.45
-4 -8 16 32.11 5.2
4 16 -8 27.84 3.89
8 -16 -4 33.07 5.67
-4 -16 -8 36.49 4.01
-8 -4 -16 26.22 4.75
-4 -16 -8 32.39 4.08
-16 -8 -4 27.23 3.65
-4 8 -16 28.34 4.58
4 8 16 33.69 4.1
6 -16 -8 52.52 5.92
-16 -8 6 58.49 6.8
6 -16 -8 63.05 5.85
8 6 16 60.96 6.2
-16 8 -6 53.16 4.77
-8 6 -16 58.01 7.06
8 -16 6 53.41 7.3
8 -6 -16 49.29 6.83
16 -6 8 48.38 5.15
6 8 -16 57.99 6.86
-16 -6 -8 58.51 6.31
-16 -6 -8 51.53 5.33
16 -8 -6 62.74 4.99
-6 8 16 48.02 5.83
-6 16 -8 54.95 5.93
6 -8 16 65.4 7.25
-6 -16 8 65.9 7.2
16 -8 -6 59.42 4.67
16 6 -8 62.73 5.87
-6 -8 -16 56.98 7
-8 -6 16 57.02 7.1
-8 -16 6 59 6.87
-6 -8 16 52.63 7.07
-6 8 -16 62.26 7.21
8 6 -16 55.76 6.85
-16 -8 -6 66.97 6.31
-16 -6 8 59.79 6.74
-16 -8 -6 55.15 5.6
8 -6 16 55 6.65
-16 6 -8 61.51 5.54
16 -6 -8 56.54 5.5
16 -8 6 61.76 5.09
6 -16 8 46.75 6.58
6 -8 -16 47.08 6.65
-8 -6 -16 50.46 6.75
-6 -16 -8 60.03 6.27
6 8 16 57.05 5.96
8 -16 -6 52.19 6.11
8 -16 -6 50.28 5.89
-6 -16 -8 57.5 5.88
6 16 -8 52.8 5.91
16 -6 -8 57.91 4.8
-8 6 16 49.39 5.87
16 8 -6 57.03 5.65
-8 16 -6 64.27 5.9
-8 8 16 167.52 15.01
-8 -16 -8 177.61 16.06
16 -8 8 198.3 14.56
-8 -8 -16 179.87 16.07
-16 -8 8 170.44 15.95
-8 -16 8 179.35 16.29
-16 -8 -8 154.38 14.43
8 -16 -8 174.38 14.79
8 -16 -8 190.73 15.48
8 -8 -16 172.01 16.24
8 -8 16 184.75 16.27
8 8 -16 185.93 16.2
8 8 16 205.38 15.26
-8 8 -16 158.99 15.93
16 8 -8 180.23 14.88
16 -8 -8 179.58 13.77
-8 -8 16 184.87 16.62
-8 16 -8 165.3 14.87
-16 -8 -8 180.14 15.38
16 -8 -8 191.2 14.77
16 0 -10 74.48 7.29
-16 0 -10 61.5 7.54
10 0 -16 79.34 8.51
10 16 0 73.65 7.12
0 -10 16 91.67 9.15
0 -16 10 77.55 8.73
0 16 -10 75.99 8.11
0 -16 -10 71.08 7.44
0 -10 -16 90.55 8.68
-10 -16 0 63.21 7.46
0 -16 -10 94.2 7.43
0 10 16 74.87 7.47
10 -16 0 78.03 7.72
-10 0 -16 79.62 8.7
-16 -10 0 75.03 7.57
10 0 16 62.12 7.34
16 0 10 75.73 6.85
-10 0 16 82.91 8.2
0 10 -16 81.39 8.49
-16 0 10 69.93 7.18
2 -10 16 26.91 6.23
2 10 -16 25.99 4.38
2 -16 -10 31.39 3.5
-2 -10 -16 31.83 4.64
-16 -10 2 30.34 4.28
2 -16 -10 26.58 3.87
10 2 16 25.02 3.66
-2 16 -10 31.94 4.01
16 -2 10 27.04 3.22
-2 -16 10 23.87 4.86
-2 10 16 25.41 3.61
10 -2 -16 21.35 4.6
16 2 -10 31.07 3.81
-10 -2 16 28.77 4.47
-16 2 10 23.84 3.3
10 16 -2 27.16 3.38
-10 2 -16 21.02 4.61
-16 -2 -10 28.67 4.22
-10 -16 -2 22.01 3.63
10 -16 2 25.48 4.13
-10 -16 2 33.01 4.37
2 -16 10 28.57 4.57
-10 16 -2 23.93 3.08
10 -2 16 28.61 4.13
-10 -2 -16 30.1 4.82
-16 2 -10 24.62 3.92
-2 -16 -10 24.04 3.29
-10 2 16 24.08 3.86
-16 -2 10 27.88 4.01
16 -2 -10 26.72 3.6
2 16 -10 24.76 3.66
-2 10 -16 18.91 4.34
10 2 -16 25.8 4.47
-2 -10 16 31.57 5.14
16 10 -2 22.15 3.08
-16 -10 -2 23.97 3.36
2 10 16 23.5 3.53
10 -16 -2 28.62 3.82
10 -16 -2 23.79 3.28
-2 -16 -10 30.77 3.91
-16 -10 -2 27.52 3.74
2 -10 -16 26.23 4.32
10 16 -4 5.09 1.56
-16 4 10 7.98 1.68
4 10 -16 7.6 2.58
-4 16 -10 9.25 2.52
-4 -10 -16 7.67 2.84
-10 -16 -4 6.98 2.06
-10 -16 -4 6 1.75
-10 4 -16 6.88 2.83
-4 -16 10 5.97 2.76
16 -4 10 8 1.83
-16 -4 -10 9.09 1.86
-10 -4 16 11.4 3.16
-4 10 16 6.05 2.04
-16 -4 -10 8.08 2.64
4 -10 16 10.86 3.28
16 -10 -4 7.13 1.18
4 -16 -10 6.24 2.09
16 4 -10 7.79 2.09
10 -16 4 4.27 2.11
16 -10 -4 6.58 1.01
-16 -10 4 5.61 2.29
10 -4 -16 8.2 2.96
10 4 16 5.88 2.1
4 -16 -10 6.83 1.77
-10 -16 4 7.98 2.47
-10 4 16 4.69 1.98
4 10 16 6.62 1.86
-16 -4 10 4.81 2.27
-16 -10 -4 5.58 1.86
-10 16 -4 10.46 1.72
16 -4 -10 13.94 2.37
-4 -10 16 9.32 3.22
-4 10 -16 4.35 2.21
-16 -10 -4 5.9 1.93
-16 4 -10 11.46 2.74
4 -10 -16 6.17 2.29
16 -10 4 5.58 1.19
16 10 -4 7.31 1.76
10 -16 -4 6.14 1.81
4 16 -10 6.48 2.04
-10 -4 -16 9.65 3.13
10 4 -16 6.56 2.44
-4 -16 -10 11.81 2.35
-4 -16 -10 7.59 2.11
10 -4 16 2.13 1.87
4 -16 10 8.92 2.98
10 -16 -4 9.15 2.15
-10 -16 -6 11.15 2.52
-10 -6 16 10.87 3.33
16 -6 10 14.44 2.35
10 6 16 13.92 2.94
6 -16 -10 9.89 2.22
16 -10 -6 12.63 2.18
-6 -10 -16 14.61 3.65
-6 16 -10 12.19 2.72
-16 10 -6 12.99 1.71
6 10 -16 14.46 3.21
-16 -10 6 13.94 3.56
6 -16 -10 7.83 2.43
-10 -16 -6 6.67 2.12
-10 6 -16 6.39 2.68
16 -10 -6 12.85 1.62
-16 6 10 12.74 1.91
16 6 -10 13.84 2.96
-6 -16 10 8.74 3.26
6 -10 16 7.37 2.9
-16 -6 -10 15.6 2.32
-6 10 16 11.03 2.54
10 -16 6 10.96 3.25
10 16 -6 11.91 2.57
10 -6 -16 9.52 3.09
-16 -6 -10 15.73 3.59
-10 -6 -16 15.81 3.85
-6 10 -16 11.77 3.26
16 -10 6 11.95 2.08
16 10 -6 14.13 2.26
-16 -6 10 16.99 3.6
-6 -16 -10 9.83 2.19
-6 -16 -10 10.77 2.61
-10 16 -6 14.33 2.31
-16 -10 -6 14.81 2.47
6 -10 -16 10.09 3.28
-16 6 -10 17.47 2.79
-10 6 16 12.6 2.69
6 10 16 15.57 3.06
10 -16 -6 7.39 2.18
10 -16 -6 11.51 2.49
6 -16 10 10.32 3.34
6 16 -10 11.73 2.81
16 -6 -10 12.04 2.74
-16 -10 -6 12.24 2.58
10 6 -16 10.19 3.03
-10 -16 6 10.27 2.92
10 -6 16 11.08 2.89
-6 -10 16 9.85 3.9
-8 16 -10 78.18 8.21
-10 -16 -8 77.71 8.27
16 -8 10 78.92 7.85
8 -16 -10 74.96 7.65
8 -16 -10 95.02 8.9
-16 10 -8 88.76 8.07
-16 -10 8 90.29 9.42
10 -8 -16 90.57 9.61
-8 10 16 89 8.26
-16 -8 -10 78.08 7.65
-16 -8 -10 69.53 8.4
16 8 -10 92.07 8.43
10 -16 8 93.17 9.51
8 10 -16 85.23 9.04
-8 -16 10 84.27 9.52
-10 -8 16 76.86 9.36
-10 8 -16 73.89 8.91
10 8 16 85.48 8.15
16 -10 -8 77.9 7.21
8 -10 16 88.62 9.39
-10 -16 -8 99.63 8.43
10 16 -8 93.87 8.3
16 -10 -8 96.82 8.45
-8 -10 -16 92.34 9.23
-10 16 -8 80.45 7.97
10 -16 -8 91.76 8.59
-16 -10 -8 104.49 8.34
16 -8 -10 82.49 7.19
8 -10 -16 92.62 9.53
-16 -10 -8 72.93 8.17
8 16 -10 84.46 8.34
16 -8 -10 77.82 8.23
10 8 -16 84.46 9.02
-8 10 -16 77.12 8.79
-16 -8 10 92.98 9.5
-16 8 -10 77.38 7.87
8 10 16 88.31 8.21
-8 -10 16 81.88 9.64
-10 -16 8 79.52 9.19
-10 -8 -16 82.25 9.09
10 -8 16 67.11 8.84
16 10 -8 96.45 8.23
10 -16 -8 89.1 7.97
-8 -16 -10 97.63 8.85
8 -16 10 79.37 9.29
16 -10 8 86.94 7.99
-10 8 16 94.08 8.38
-10 -16 10 54.83 7.32
10 -16 -10 58.72 6.57
10 -16 10 54.05 7.27
10 -16 -10 53.23 5.68
10 10 16 61.68 6.26
-10 -16 -10 56.18 5.89
10 -10 16 52.51 6.89
-10 -10 -16 50.51 6.72
-10 -10 16 62.47 7.71
16 10 -10 47.3 5.77
-10 -16 -10 70.36 6.74
-10 16 -10 52.29 6.12
10 16 -10 56.71 6.1
16 -10 -10 60.03 5.42
16 -10 -10 49.9 6.22
-16 -10 10 56.57 7.25
-10 10 16 58.95 5.99
10 10 -16 51.68 6.57
10 -10 -16 66.72 7.62
-16 -10 -10 57.27 5.77
-10 10 -16 51.79 6.74
-16 -10 -10 54.77 6.43
0 -16 -12 15.03 3.3
12 -16 0 12.88 2.97
16 -12 0 13.04 2.09
-16 0 -12 7.39 2.63
0 -16 12 9 3.17
0 12 16 15.44 2.71
16 -12 0 13.58 1.8
12 -16 0 13.88 2.28
16 0 12 12.95 2.28
16 0 -12 11.3 2.88
-16 0 12 13.34 2.9
-12 -16 0 15.35 3.25
0 -12 -16 10.64 3.07
0 -12 16 14.4 3.96
0 12 -16 11.25 3.1
-12 0 -16 16.58 4.06
0 16 -12 12.86 2.95
0 -16 -12 9.46 2.32
-16 -12 0 10.15 2.68
-12 0 16 15.11 3.32
12 0 -16 14.39 3.51
12 16 0 13.16 2.33
-2 16 -12 0.11 0.85
-2 -12 -16 0.94 1.04
12 -16 2 -0.58 1.03
-2 -16 12 -1.88 1.1
-2 12 16 -0.41 0.61
16 2 -12 0.94 0.86
2 -16 -12 0.82 1.37
-16 -2 -12 -0.38 1.29
16 -2 12 -0.01 0.7
2 -16 -12 1.89 0.96
12 -2 -16 0.76 1.68
12 16 -2 -0.41 0.59
12 2 16 1.43 1.22
16 -12 -2 0.15 0.97
-12 -2 16 1.49 1.6
-12 2 -16 -0.97 1.47
-16 2 12 -0.44 0.91
2 12 -16 0.05 1.27
2 -12 16 0.9 1.67
-12 -16 -2 -0.64 0.48
-16 -12 2 -1.93 0.72
-12 -16 -2 0.77 1.07
12 -16 -2 1.05 1.13
2 -12 -16 0.38 1.24
-16 2 -12 0.1 1.4
-12 -16 2 1.1 1.27
-2 -16 -12 -0.17 0.77
12 -2 16 0.9 1.17
12 2 -16 0.46 1.37
16 -2 -12 0.52 1.06
-16 -12 -2 0.22 0.86
-16 -12 -2 0.83 1.07
16 2 12 0.62 0.88
-2 -12 16 -0.8 1.46
-2 12 -16 0.93 1.4
-12 2 16 -0.98 1.15
-2 -16 -12 -0.34 0.63
-16 -2 12 -0.11 1.09
2 -16 12 1.36 1.51
2 16 -12 1.1 1.12
2 12 16 -1.73 0.68
16 12 -2 1.07 0.76
16 -12 2 0.05 0.55
16 -12 2 -1.43 0.74
-12 16 -2 0.13 0.52
12 -16 -2 1.23 0.97
-12 -16 -4 20.32 3.22
-4 -16 12 18.97 4.44
16 4 -12 24.4 3.6
-12 -16 -4 19.29 3.4
-16 -4 -12 26.96 4.35
-16 4 12 25.63 3.19
-12 -4 16 25.69 5.13
-12 4 -16 21.89 4.7
4 -12 16 16.12 4.26
-16 -12 4 23.86 4.08
12 4 16 15.79 3.05
4 12 -16 24.96 4.03
4 -16 -12 22.59 3.76
16 -4 12 24.21 3.15
12 16 -4 15.47 2.72
12 -16 4 21.41 4.24
-4 -12 -16 16.59 4.05
12 -4 -16 19.91 4.54
-4 16 -12 22.05 3.54
-4 12 16 21.79 3.16
4 -16 -12 25.05 3.17
12 4 -16 21.17 4.87
12 -16 -4 24.16 3.34
-12 -16 4 22.06 3.86
4 16 -12 18.73 3.35
12 -4 16 26.58 4.02
-16 4 -12 25.66 4.06
-12 4 16 18.76 3.28
4 -12 -16 20.57 4.42
-4 12 -16 18.15 4.04
-12 16 -4 25.7 2.98
-16 -12 -4 29.75 3.68
-16 -12 -4 20.3 3.23
-4 -12 16 17.32 4.44
-12 -4 -16 20.85 4.54
16 12 -4 17.13 2.84
4 -16 12 12.62 3.74
12 -16 -4 18.66 2.96
4 12 16 21.37 3.25
16 -4 -12 23.45 3.77
-16 -4 12 20.77 4.28
-4 -16 -12 15.33 2.79
-4 -16 -12 21.3 3.61
12 -6 -16 7.87 3.36
-16 -6 -12 7.22 1.8
-16 -6 -12 4.58 2.26
6 -16 -12 8.95 2
6 -16 -12 5.63 2.28
-6 12 16 3.42 1.68
-6 16 -12 9.65 2.65
-16 6 12 13.25 2.01
-12 -16 -6 8.84 2.36
16 6 -12 8.5 2.44
12 16 -6 3.81 1.72
6 -12 16 9.08 3.31
-16 -12 6 9.52 3.01
-6 -16 12 5.97 2.78
12 -16 6 3.19 2.13
12 6 16 6.13 1.86
16 -12 -6 6.53 1.49
16 -6 12 5.53 1.82
-12 -16 -6 9.96 2.45
-6 -12 -16 11.87 3.31
6 12 -16 11.35 3.01
16 -12 -6 7.27 1.8
-12 6 -16 4.57 2.34
-12 -6 16 7.26 2.92
-16 6 -12 6.26 2.07
12 -6 16 7.29 2.55
-12 -16 6 11.98 3.17
-16 -12 -6 8.55 2.21
-16 -12 -6 7.48 2.27
-6 12 -16 8.93 2.66
-12 16 -6 6.22 1.55
6 -16 12 8.95 3.3
6 16 -12 7.8 2.35
12 -16 -6 7.6 2.03
-6 -12 16 11.71 3.51
-16 -6 12 9.74 3.11
-12 -6 -16 4.07 2.21
16 -6 -12 13.5 3.06
6 12 16 7.45 2.21
-12 6 16 7.53 2.13
-6 -16 -12 6.25 1.93
-6 -16 -12 8.42 2.53
6 -12 -16 13.39 3.52
12 -16 -6 6.6 2.14
12 6 -16 6.73 2.53
16 12 -6 9.53 2.26
16 -12 6 4.02 2.8
-12 8 -16 5.5 2.44
12 16 -8 10.73 2.33
-8 16 -12 11.09 2.71
-12 -8 16 5.08 3
16 -8 12 9.48 2.4
-16 8 12 8.17 1.89
12 -8 -16 5.35 2.59
-16 -8 -12 8.29 2.13
-16 -8 -12 8.57 2.67
8 -12 16 9.8 3
-8 -12 -16 7.57 2.52
-12 -16 -8 14.46 3.08
12 8 16 13.08 2.78
-8 -16 12 1.91 2.58
8 12 -16 12.13 3.19
8 -16 -12 8.35 2.09
8 -16 -12 8.66 2.56
-16 -12 8 8.17 3.32
12 -16 8 6.12 2.81
16 8 -12 12.84 2.96
16 -12 -8 11.91 1.9
16 -12 -8 6.02 2.01
-8 12 16 10.34 2.45
-12 -16 -8 7.63 2.16
12 -8 16 13.27 3.23
-12 -8 -16 14.91 3.69
-8 -16 -12 14.18 2.37
-12 -16 8 7.68 2.76
-8 -12 16 6.58 2.88
16 12 -8 10.84 2.33
-16 -8 12 6.29 2.81
-12 8 16 12.63 2.76
-8 -16 -12 11.07 2.98
8 -12 -16 11.86 3.7
12 -16 -8 3.91 1.77
8 16 -12 9.59 2.49
-16 -12 -8 14.59 2.85
-12 16 -8 4.98 1.59
-16 -12 -8 8.03 2.5
12 -16 -8 12.51 2.46
8 -16 12 13.91 3.75
12 8 -16 12.42 3.18
16 -12 8 8.39 2.18
-10 -16 12 -1.3 1.07
-10 -12 -16 0.08 1.46
12 -16 10 0.55 1.85
12 16 -10 -0.18 0.7
16 -10 12 1.85 1.35
10 -16 -12 2.19 1.07
-16 -12 10 2.94 2.27
-10 -12 -16 1.26 1.04
10 12 -16 1.38 1.56
-12 -16 -10 -0.15 0.93
-12 -16 -10 1.75 1.15
-10 16 -12 -0.38 0.98
-16 -10 -12 0.43 1.05
16 -12 -10 0.82 0.74
-16 -10 -12 -0.25 1.18
-12 -10 16 3.24 2.32
-10 12 16 -0.11 0.68
10 -16 -12 2.59 1.88
10 -12 16 1.63 1.9
-12 10 -16 3.54 1.7
-16 12 -10 0.56 0.74
16 10 -12 0.2 1.04
16 -12 -10 0.64 1.48
12 -10 -16 2.96 2.31
-16 -10 12 1.14 2.07
16 -10 -12 0.28 0.8
-12 -10 -16 1.92 1.83
-16 -12 -10 0.68 0.88
-16 -12 -10 -1.16 1.21
-10 -16 -12 2.56 1.21
12 -10 16 4.38 2.46
12 -16 -10 -0.42 0.87
16 12 -10 -0.35 0.87
-12 -16 10 0.01 1.89
10 -16 12 -0.78 1.69
16 -12 10 -0.32 1.25
12 10 -16 0.32 1.15
12 -16 -10 2.65 1.68
-12 16 -10 0.3 0.9
16 -10 -12 1.31 1.77
-10 -16 -12 0.41 1.21
-10 -12 16 0.23 2.35
-10 12 -16 1.65 1.47
-12 10 16 0.5 0.99
10 -12 -16 -0.87 1.59
12 -16 -12 9.68 2.99
-12 -12 -16 7.52 2.08
-16 -12 12 6.66 3.11
-16 -12 -12 6.86 2.61
16 -12 12 11.62 3.07
16 12 -12 11.58 2.88
12 16 -12 12.43 2.9
16 -12 -12 7.89 2.8
-16 -12 -12 10.23 2.22
-12 -12 16 13.31 3.19
-12 12 -16 5.93 2.36
-12 -16 -12 11.66 2.66
-12 -16 -12 9.43 2.68
-12 -16 12 14.21 4.15
16 -12 -12 5.79 1.58
-12 16 -12 17.48 2.92
12 12 -16 7.23 2.31
-12 -12 -16 7.61 2.84
12 -12 16 11.14 3.35
12 -12 -16 12.99 3.79
-12 12 16 6.93 2.06
12 -16 12 13.01 4.09
12 -16 -12 8.21 2.16
16 0 14 28.23 3.9
16 -14 0 33.2 3.94
14 -16 0 28.11 4.21
0 14 -16 29.23 4.54
14 0 16 27.22 3.99
0 -16 -14 32.27 4.7
16 0 -14 31.73 4.6
0 -14 16 31.09 5.37
0 16 -14 29.26 4.41
14 0 -16 30.83 4.72
14 -16 0 28.33 3.63
14 16 0 40.62 4.03
-16 0 14 24.8 4.08
-14 -16 0 25.85 4.34
0 -14 -16 28.47 5.2
-16 -14 0 23.03 4.16
-14 0 -16 21.8 5.18
-14 0 16 35.41 4.67
0 -16 -14 37.24 4.06
-16 0 -14 27.35 4.94
16 -14 0 30.34 3.34
14 -16 2 9.92 2.05
14 16 -2 10.25 2.28
-2 -14 -16 7.09 2.61
-2 -16 14 10.64 3.41
-2 16 -14 6.92 2.18
14 -16 2 5.23 2.29
-16 -2 -14 5.08 2.63
-16 -14 2 8.49 2.75
14 2 16 3.97 1.73
16 -14 -2 5.73 1.74
16 -14 -2 8.15 1.87
2 14 -16 8.12 2.54
16 2 -14 8.06 2.42
2 -16 -14 6.28 1.82
2 -16 -14 10.47 2.58
-16 2 14 4.51 1.81
16 -2 14 3.67 1.67
-14 -2 16 9.54 2.8
-14 2 -16 7.16 2.91
-14 -16 -2 3.93 1.89
2 -14 16 8.91 3.09
14 -2 -16 8.51 2.85
-14 -16 -2 8.15 2.22
-2 14 -16 10.7 3
-2 -14 16 8.21 3.33
16 -14 2 6.57 1.46
-16 -14 -2 9.98 2.64
16 -14 2 4.1 1.82
14 -16 -2 8.61 1.98
-16 -2 14 10.3 2.74
-16 2 -14 9.58 3.26
-16 -14 -2 9.83 2.37
14 -16 -2 8.26 2.16
-14 -2 -16 8.12 3.08
14 -2 16 9.79 2.57
14 2 -16 9.24 2.87
2 -14 -16 7.36 2.52
-2 -16 -14 3.93 2.26
2 16 -14 7.88 2.64
16 2 14 9.64 2.26
-2 -16 -14 5.77 1.84
16 14 -2 10.14 2.16
-14 2 16 8.85 2.55
-14 -16 2 4.89 2.49
16 -2 -14 8.52 2.59
2 -16 14 4.94 2.9
4 14 -16 -0.16 0.98
16 4 -14 0.53 1.16
14 4 16 2.69 1.43
14 -16 4 1.35 1.69
-16 -14 4 4.29 2.11
14 16 -4 -1.46 0.74
4 -16 -14 -0.2 1.16
16 -4 14 0.02 0.99
14 -4 -16 1.63 1.72
4 -14 16 3.05 2.22
-14 -16 -4 2.49 1.29
-4 -16 14 -2.46 1.5
-14 -4 16 2.54 1.95
-14 4 -16 -2.48 1.31
-16 -4 -14 0.84 2.02
-4 16 -14 -0.99 0.65
4 -16 -14 0.54 0.74
16 -14 -4 0.99 1.08
-4 -14 -16 -0.34 1.16
-4 -14 -16 1.07 0.94
-14 -16 -4 2.22 1.21
-16 4 14 0.65 0.94
16 -14 -4 -1.06 0.78
14 4 -16 2.85 1.6
4 -16 14 -1.71 1.92
16 -4 -14 0.55 1.51
-16 -4 14 3.07 1.56
16 -14 4 0.92 1.21
16 14 -4 -0.14 0.65
-4 14 -16 0.97 1.21
-16 4 -14 1.89 1.53
4 -14 -16 1.29 1.26
-14 -16 4 0.93 1.33
-16 -14 -4 0.51 1.05
-14 16 -4 1.1 1.24
4 16 -14 0.66 1.21
16 4 14 0.86 1.01
-4 -14 16 -0.93 1.94
14 -4 16 1.5 1.46
-4 -16 -14 -0.14 1.19
-14 -4 -16 -1.78 1.24
-16 -14 -4 3.84 1.61
-14 4 16 0.93 1.27
-4 -16 -14 0.36 0.99
-6 16 -14 0.78 1.01
-14 -6 16 0.04 1.83
-16 6 14 0.06 0.95
-14 -16 -6 -0.53 0.87
-14 -16 -6 1.85 1.19
16 -14 -6 2.98 1.07
16 -14 -6 -0.84 1.12
-16 -6 -14 0.54 1.59
-16 -14 6 0.56 1.47
-6 -16 14 3.36 2.51
6 -14 16 1.51 1.78
14 6 16 -0.38 0.66
-14 6 -16 1.27 1.43
-6 -14 -16 0.65 0.87
-6 -14 -16 -0.56 1.18
6 14 -16 -0.07 1.11
16 6 -14 -1.16 0.97
14 -6 -16 1.89 1.96
6 -16 -14 1.8 1.67
6 -16 -14 0.64 0.73
14 16 -6 0.18 0.85
16 -6 14 -0.39 1.03
-6 14 -16 -1.23 0.97
14 6 -16 1.19 1.41
14 -16 -6 0.7 1.07
-16 6 -14 -2.56 1.31
-6 -16 -14 -1.1 0.81
14 -16 -6 0.94 1.28
6 16 -14 1.85 1.1
-6 -14 16 -3.35 2
14 -6 16 -0.39 0.95
6 -16 14 -1.1 1.59
-16 -6 14 -0.57 1.43
6 -14 -16 -0.54 1.39
-14 -16 6 -0.84 1.39
-16 -14 -6 -0.01 0.92
16 -14 6 -1.23 1.14
-6 -16 -14 -0.14 0.85
16 14 -6 0.1 0.83
-14 -6 -16 -2.14 1.42
-14 6 16 -1.26 1.1
-14 16 -6 0 0.7
-16 -14 -6 -0.06 0.97
-14 -8 16 27.97 5.51
-16 -8 -14 23.25 3.17
-16 -14 8 10.44 3.5
-14 8 -16 10.62 3.53
-8 16 -14 29.88 4.09
8 -16 -14 23.6 3.28
14 -16 8 22.98 4.73
8 -16 -14 15.84 4.06
16 -8 14 24.09 4.95
14 -8 -16 26.93 5.33
16 -14 -8 22.12 3.11
-16 -8 -14 11.9 3.48
8 -14 16 17.62 4.66
8 14 -16 23.17 4.55
16 -14 -8 23.43 3.79
14 16 -8 21.73 3.48
-8 -16 14 22.39 5.13
16 8 -14 20.32 3.59
-8 -14 -16 21.7 4.58
-14 -16 -8 23.79 3.74
-14 -16 -8 20.7 3.35
-8 -14 -16 23.26 3.17
-16 -14 -8 25.34 3.44
-8 14 -16 22.71 3.86
-16 -14 -8 23.76 3.7
-14 -8 -16 20.02 4.66
-8 -16 -14 20.6 3.1
16 -14 8 17.42 3.88
8 -16 14 19.44 4.78
8 16 -14 21.95 3.65
14 -16 -8 23.19 3.21
-8 -16 -14 20.25 4.34
14 8 -16 27.99 4.17
8 -14 -16 17.82 4.28
-14 8 16 18.18 3.04
16 -8 -14 18.9 4.25
-8 -14 16 22.28 5.26
-14 -16 8 23.41 5.03
14 -8 16 24.21 4.26
16 14 -8 23.44 3.47
-16 -8 14 26.42 5.4
14 -16 -8 23.13 3.99
16 10 -14 4.82 1.89
10 -16 -14 8.12 3.08
-14 10 -16 9.61 2.95
-14 -16 -10 11.65 2.84
-10 -14 -16 14.8 3.64
16 -10 14 10.04 2.61
-10 16 -14 6.56 2.09
10 14 -16 9.05 2.54
10 -14 16 9.24 3.46
-14 -10 16 11.28 3.77
-16 -14 10 8.83 3.33
14 -16 10 6.94 2.98
-10 -14 -16 9.63 2.33
-10 -16 14 12.71 3.71
10 -16 -14 7.34 1.97
-16 -10 -14 8.68 2.19
-14 -16 -10 5.51 2.48
-16 -10 -14 12.95 3.45
-10 -14 16 6.35 3.46
-10 -16 -14 9.73 2.86
16 -10 -14 11.91 3.49
-10 -16 -14 9.14 2.17
-16 -14 -10 6.09 1.91
-16 -10 14 11.42 3.97
-14 -10 -16 10.73 2.92
-14 -10 -16 9.33 2.35
16 14 -10 5.24 1.97
-14 16 -10 5.72 1.87
-16 10 -14 13.75 3.58
-14 10 16 3.79 2.04
-16 -14 -10 10.13 2.77
10 -14 -16 7.89 2.03
10 -14 -16 10.67 3.28
16 -14 10 9.71 3.01
-14 -16 10 10.2 3.32
14 -16 -10 8.67 2.15
14 -16 -10 3.34 2.33
10 -16 14 6.14 2.94
10 16 -14 6.89 2.29
14 -10 16 8.23 2.23
14 10 -16 7.74 2.55
-10 14 -16 10.8 2.9
-16 -14 12 -1.79 2.27
-12 -14 -16 -0.46 1.68
14 16 -12 0.64 1.14
14 -12 -16 -0.6 2.2
16 12 -14 1.52 1.51
16 -12 14 2.64 2.09
-16 -12 -14 2.85 1.26
-16 -12 -14 0.83 1.95
-14 -12 16 2.19 2.91
-14 12 -16 1.85 1.73
-14 -16 -12 2 1.81
-14 -16 -12 6.63 2.84
-12 -16 14 4.77 3.31
12 -16 -14 6.27 2.32
-12 -14 -16 2.72 1.48
14 -16 12 -0.07 2.18
12 14 -16 -0.47 1.25
12 -14 16 2.92 2.29
14 12 -16 3.07 1.86
14 -16 -12 2.1 1.23
14 -16 -12 1.53 2.1
-16 -14 -12 3.52 3.17
-12 -16 -14 2.68 1.74
-12 14 -16 1.8 1.74
12 -14 -16 3.14 2.53
12 16 -14 8.31 2.37
-16 -14 -12 4.02 1.55
-16 -12 14 1.06 2.53
-12 -14 16 3.55 2.95
-12 -16 -14 3.75 1.57
-14 -16 12 3.91 2.35
16 14 -12 1.25 1.17
-14 -12 -16 5.18 2.1
-14 -12 -16 0.41 0.99
-16 -14 14 2.51 2.76
-14 -14 -16 1.91 2.03
14 14 -16 0.54 1.34
-14 -16 14 -3.13 1.79
-14 -14 16 7 3.35
-16 -14 -14 1.94 1.33
16 14 -14 3.98 1.54
-14 -16 -14 1.11 1.53
-14 -14 -16 0.12 0.99
14 16 -14 -0.13 1.17
-14 -16 -14 3.45 2.21
-16 -16 0 93.84 9.21
16 0 -16 87.09 9.24
16 0 16 64.63 7.92
16 -16 0 92.94 8.84
16 -16 0 101.65 8.09
0 -16 16 90.06 10.6
0 16 -16 77.47 8.81
-16 0 -16 100.57 10.33
-16 0 16 78.95 8.72
0 -16 -16 85.68 8.14
0 -16 -16 90.64 9.38
-16 -16 -2 52.73 6.5
2 -16 -16 58.91 5.98
2 -16 -16 58.69 7.05
2 -16 16 60.44 7.87
2 16 -16 59.74 6.71
16 -16 -2 58.64 6.51
16 -16 -2 45.72 5.85
16 -16 2 47.16 5.37
16 -2 -16 64.59 7.45
16 -2 16 67.36 6.44
16 2 -16 57.3 6.99
16 2 16 58.43 6.11
16 16 -2 49.72 5.7
-16 2 -16 62.71 7.52
-16 2 16 60.43 6.66
-2 -16 -16 57.68 5.96
-2 -16 -16 50.58 7.44
-2 -16 16 55.19 7.77
-2 16 -16 62.55 6.95
-16 -16 2 54.7 6.94
-16 -2 -16 81.95 8.42
-16 -2 16 53 6.66
-16 -16 -2 51.33 6.02
-4 16 -16 14.84 3.51
4 -16 -16 13.56 2.85
-4 -16 16 16.24 4.21
4 -16 16 13.11 4.27
4 16 -16 20.65 3.51
16 -16 -4 14.01 3.59
16 -16 4 12.84 3.33
16 4 16 20.95 3.15
16 16 -4 15.9 2.61
-16 -4 -16 17.31 4.03
-16 -4 16 17.21 4.21
-16 4 -16 15.29 4.86
16 -4 16 14.89 3.33
16 4 -16 16.36 3.82
-16 -16 4 11.61 3.75
-4 -16 -16 10.38 3.08
-16 -16 -4 18.75 3.71
-16 -16 -4 17.45 2.97
-4 -16 -16 13.9 3.01
-16 4 16 11 2.7
4 -16 -16 16.35 3.87
16 -6 16 6.14 3.46
-16 -16 -6 10.65 2.76
-16 -16 -6 9.49 2.56
-16 -6 16 7.36 3.17
-6 16 -16 7.22 3.17
-6 -16 16 7.88 3.47
-16 6 16 8.56 2.85
-6 -16 -16 8.17 2.26
-6 -16 -16 10.52 3.01
-16 6 -16 4.98 2.66
16 6 -16 16.16 3.52
16 16 -6 6.85 2
6 -16 -16 9.68 2.19
6 -16 -16 9.66 3.36
6 -16 16 9.39 3.15
16 -6 -16 5.13 2.7
-16 -6 -16 5.24 2.63
-16 -16 6 11.81 3.62
8 -16 16 58.61 8.6
8 -16 -16 75.72 8.79
8 -16 -16 61.16 7.1
-8 16 -16 88.64 8.39
-16 -8 -16 83.07 7.42
-16 -8 -16 75.47 9.01
-16 -8 16 79.87 9.27
-8 -16 -16 79.54 7.51
-8 -16 -16 71.98 8.27
-8 -16 16 74.17 9.36
-16 -16 -8 80.85 7.95
-16 -16 -8 75.15 7.88
-16 -16 8 76.63 9.24
16 16 -8 74.34 7.4
16 -8 -16 61.38 8.64
16 -8 16 77.38 8.2
16 8 -16 70.06 8.01
-10 -16 16 41.24 7.27
16 -10 16 47.71 6.54
16 10 -16 48.59 6.09
16 16 -10 47.84 5.7
-16 -10 -16 53.12 7.19
-16 -10 16 38.48 7.24
-16 10 -16 48.69 6.88
-10 -16 -16 55.36 5.75
-10 -16 -16 48.78 6.44
-16 -16 -10 62.17 6.13
-16 -16 10 66.01 7.95
-16 -10 -16 54.33 5.79
10 16 -16 46.79 6.04
-10 16 -16 57.55 6.31
10 -16 -16 48.26 5.64
10 -16 16 49.02 7.52
-12 -16 -16 3.59 1.51
12 -16 -16 2.94 1.51
12 -16 -16 3.03 2.41
-16 -16 -12 0.58 1.43
12 -16 16 3.56 3.12
12 16 -16 1.49 1.36
16 12 -16 7.48 2.31
16 16 -12 3.78 1.72
-12 -16 16 -1.41 2.91
-16 -16 12 -3.45 2.26
-16 -12 -16 2.35 1.47
-16 -12 16 2.92 3.61
-12 -16 -16 6.79 2.62
16 14 -16 21.96 3.76
-16 -14 -16 23 4.82
-16 -14 16 11.63 4.71
-14 -16 -16 19.9 3.79
-14 -16 16 16.57 5.08
-16 -16 -14 17.41 3.61
-16 -16 14 21.75 5.8
-16 -14 -16 19.51 3.52
1 -1 17 177.39 14.69
1 1 -17 170.17 15.17
1 1 17 174.55 14.41
1 17 -1 145.9 13.35
1 17 1 167.35 13.52
-1 17 1 168.5 13.44
1 -17 -1 169.76 14.06
1 -17 1 164.29 14.23
1 -1 -17 158.08 15.06
-17 -1 -1 161.61 12.33
-1 -17 -1 175.86 14.12
-1 -17 1 162.04 14.14
-1 -1 -17 150.23 14.93
-1 -1 17 162.4 14.56
-1 1 -17 169.43 15.26
-1 1 17 146.66 14.22
-1 17 -1 158.04 13.46
1 -3 17 30.38 4.95
1 3 -17 44.78 6.06
-1 17 -3 40.71 4.37
3 -17 1 36.26 4.75
3 17 -1 37.36 4.24
-1 -3 -17 34.2 5.47
-17 -3 1 38.54 4.06
-17 -3 1 40.04 3.65
-1 3 17 46.6 5.28
-3 -1 17 39.12 5.31
-3 1 -17 39.96 5.81
-3 -17 -1 43.37 4.8
-17 -1 -3 36.71 3.46
-1 -17 3 42.82 5.05
-3 17 1 45.4 4.35
1 -17 -3 45.08 4.72
1 -17 -3 34.37 4.37
3 1 17 30.99 4.52
-17 -1 -3 37.95 3.68
3 -1 -17 42.02 5.8
1 -17 3 39.14 4.94
-1 -17 -3 46.19 4.82
-3 17 -1 39.79 4.23
3 -17 -1 44.92 4.81
3 17 1 37.83 4.21
-1 -3 17 34.92 5.23
-1 3 -17 40.78 5.56
-17 -1 3 37.53 3.46
1 -3 -17 35.72 5.57
1 3 17 35.53 4.82
-3 1 17 39.3 5.15
-3 -17 1 34.17 4.71
-17 -1 3 39.08 3.19
-17 -3 -1 32.63 3.61
3 1 -17 44.71 5.91
1 17 -3 34.12 4.11
-3 -1 -17 37.27 5.62
3 -1 17 31.11 4.86
-17 -3 -1 34.43 3.82
-3 3 -17 19.35 4.27
-3 17 -3 17.16 2.58
-3 -3 17 15.88 3.8
3 3 17 20.32 3.36
3 17 -3 14.37 2.49
-17 -3 -3 16.99 2.15
-17 -3 -3 14.29 2.22
-17 -3 3 16.39 2.57
-3 -17 -3 18.31 2.91
-3 3 17 15.57 3.36
3 -3 -17 16.5 3.93
3 -3 17 16.04 3.66
3 3 -17 15.38 3.9
3 -17 -3 15.45 2.76
3 -17 -3 19.18 2.81
-3 -17 3 15.31 3.38
-3 -3 -17 20.66 4.48
3 -17 3 12.32 3.08
1 5 -17 2.07 1.71
-5 17 1 1.48 0.93
-5 -17 -1 2.07 1.34
-5 1 -17 1.6 1.87
5 17 -1 2.04 0.97
-1 5 17 -0.19 0.98
17 1 -5 2.15 0.6
5 1 17 2.96 1.94
5 -1 -17 1.74 1.58
5 -17 1 3.66 1.66
1 -5 17 5.02 2.41
-17 -1 -5 1.61 0.65
-1 -5 -17 1.54 1.5
-17 -5 1 1.48 1.06
-1 -17 5 2.58 1.59
-1 17 -5 1.82 1.05
1 -17 -5 2.38 1.14
1 -17 -5 2.29 1.34
-17 -1 -5 2.06 1.07
-5 -1 17 2.32 1.56
-1 -5 17 1.56 1.73
5 17 1 3.45 1.24
5 -1 17 1.8 1.56
-5 -1 -17 1.95 1.78
-1 5 -17 -1.79 1.19
1 -17 5 3.52 1.8
1 17 -5 2.44 1.06
-17 1 -5 3 0.84
1 -5 -17 1.89 1.65
5 -17 -1 0.65 1.03
5 1 -17 3.67 2.08
-17 -5 -1 3.66 1.23
-5 1 17 0.71 1.45
-1 -17 -5 2.6 1.33
-5 -17 1 0.15 1.22
-5 17 -1 4.09 1.31
1 5 17 2.38 1.56
-1 -17 -5 2.17 1.23
-17 -1 5 2.47 1.02
3 -5 17 8.65 2.64
-3 5 17 1.11 1.35
5 -3 -17 5.21 2.49
3 5 -17 5.8 2.5
-3 -5 -17 4.42 2.44
5 3 17 4.24 1.7
-17 -5 3 2.14 1.28
-3 -17 5 1.68 1.37
-3 17 -5 1.82 1.14
3 -17 -5 4.27 1.51
3 -17 -5 2.79 1.2
5 17 -3 5.71 1.51
-17 -3 -5 3.2 0.98
17 3 -5 4.22 1.04
-5 -3 17 4.82 2.53
-5 3 -17 7.49 3
5 -17 3 2.84 1.54
-5 -17 -3 3.14 1.5
-3 -17 -5 2.39 1.34
5 -17 -3 3.11 1.41
5 -17 -3 5.14 1.63
3 -17 5 1.86 1.5
3 17 -5 2.61 1.12
-17 -3 5 2.68 1.32
3 -5 -17 6.41 2.52
-3 -5 17 2.86 1.85
-5 3 17 5.57 2.09
17 5 -3 3.89 0.99
-17 -5 -3 1.66 1.01
-5 -17 3 4.76 2.01
-5 17 -3 4.14 1.26
3 5 17 1.76 1.31
-3 -17 -5 2.83 1.22
5 3 -17 4.92 2.29
-17 -5 -3 2.92 1.21
5 -3 17 5.93 2.39
5 -17 -5 45.09 5.24
5 5 -17 33.24 6.46
-5 5 -17 55.69 6.7
-5 5 17 48.74 5.69
5 -5 -17 63.39 7.22
5 -5 17 41.66 5.94
-5 17 -5 53.8 5.38
-5 -5 17 44.9 6.12
5 -17 5 54.76 6.27
-5 -17 -5 52.17 5.51
-5 -17 -5 42.13 5.2
5 -17 -5 62.19 5.66
-5 -5 -17 35.57 5.77
5 5 17 42.08 5.38
5 17 -5 51.3 5.4
17 5 -5 55.27 4.79
-5 -17 5 56.49 6.43
-17 -5 -5 51.27 5.31
-17 -5 5 50.85 5.72
-17 -5 -5 53.34 4.92
-7 -17 -1 75.46 7.42
-17 -1 -7 72.21 6.12
-1 -17 7 79.74 8.27
7 -17 1 73.68 7.52
7 17 -1 81.67 6.93
17 1 -7 75.6 6.27
-1 -7 -17 79.8 8.32
1 -17 -7 77.1 7.32
-1 17 -7 63.48 6.91
1 -17 -7 60.17 6.76
-17 -7 1 73.17 7.16
-17 -7 1 68.14 6.53
-7 -1 17 71.96 7.75
-17 1 7 74.12 6.2
-1 7 17 65.73 7.11
7 -1 -17 67.98 8.19
1 7 -17 68.33 8.12
1 -7 17 66.46 8.02
7 1 17 76.59 7.57
-7 1 -17 68.67 8.23
1 -7 -17 88.88 8.68
7 17 1 65.72 6.63
-1 -17 -7 75.16 7.29
7 -1 17 73.81 7.56
1 17 -7 70.72 7.08
-1 -17 -7 76.41 7.12
-17 1 -7 64.13 5.88
-17 -1 7 70.82 6.65
-1 -7 17 79.91 8.36
17 -1 -7 68.28 6.01
-17 -7 -1 69.19 6.9
-7 -17 1 64.97 7.36
-1 7 -17 67.61 8.11
-7 17 -1 70.07 6.6
-7 -1 -17 81.2 8.59
7 -17 -1 60.3 6.98
-7 1 17 59.97 7.33
1 7 17 71.56 7.19
-17 -7 -1 76.5 6.7
7 1 -17 64.61 8.03
1 -17 7 76.61 8.19
-17 1 -7 76 6.87
-17 -3 -7 38.37 4.34
-17 3 7 41.86 3.62
-7 -3 17 36.18 5.26
-7 3 -17 33.4 5.28
17 3 -7 35.44 3.63
7 -3 -17 40.17 5.6
-3 17 -7 28 3.89
-3 -17 7 29.05 4.71
-7 -17 -3 29.87 4.11
3 -17 -7 39.59 4.24
3 -17 -7 38.37 4.39
-17 -7 3 28.55 4.25
7 -17 3 34.45 4.7
-7 -17 -3 26.75 4.11
7 3 17 33.67 4.4
-3 -7 -17 30.9 5.04
-17 -3 -7 28.75 3.32
-3 7 17 35.21 4.27
3 -7 17 31.95 5.09
3 7 -17 33.16 5.17
7 17 -3 32.7 3.84
-3 -17 -7 33.24 4.1
-7 -3 -17 32.63 5.12
-7 -17 3 31.56 4.49
7 -3 17 34.02 4.88
7 -17 -3 28.25 3.84
-3 -7 17 37.14 5.43
-3 7 -17 36.56 5.28
-3 -17 -7 38.83 4.51
-7 3 17 29.38 4.37
-7 17 -3 32.18 3.73
3 -17 7 39.68 5.25
7 -17 -3 29.97 4.08
7 3 -17 31.33 5.07
-17 -3 7 29.71 4.24
17 -3 -7 33.4 2.97
3 17 -7 39.46 4.33
3 -7 -17 29.95 5.01
-17 -7 -3 28.63 3.71
-17 -7 -3 29.02 3.74
17 7 -3 36.69 3.6
3 7 17 29.62 4.17
-17 3 -7 28.98 3.44
5 -17 -7 -1.52 0.55
7 5 17 -0.31 0.71
17 5 -7 -0.92 0.45
17 -5 7 0.44 0.47
-7 -17 -5 -1.63 0.6
-5 17 -7 0.19 0.73
-7 -5 17 1.91 1.85
-5 7 17 0.21 1.08
-17 -5 -7 0.27 0.61
-17 -7 5 -0.34 1.04
5 -7 17 1.17 1.49
7 -5 -17 3.12 1.94
-7 -17 -5 -0.58 0.91
5 7 -17 -0.36 1.14
5 -17 -7 -1.64 0.69
7 17 -5 0.71 0.81
-7 5 -17 0.2 1.32
-5 -17 7 0.95 1.31
-17 -5 -7 1.25 1.09
7 -17 5 1.45 1.41
-5 -7 -17 2.69 1.74
5 -17 7 1.77 1.77
17 -5 -7 0.75 0.41
5 17 -7 0.03 0.64
-17 -7 -5 1.19 0.86
-7 -5 -17 1.13 1.63
-7 -17 5 0.31 1.03
5 -7 -17 0.99 1.77
7 -17 -5 0.42 0.74
-5 -7 17 1.75 1.58
-5 7 -17 1.53 1.75
5 7 17 1.19 1.1
17 7 -5 0.77 0.65
7 -5 17 -0.99 1.22
-17 -7 -5 0.5 0.97
-7 5 17 0.26 1.05
-5 -17 -7 0.03 0.79
-5 -17 -7 -0.38 0.83
7 -17 -5 -0.81 0.68
-7 17 -5 -0.65 0.61
-17 -5 7 -0.58 1.07
17 -5 -7 0.34 0.22
7 5 -17 -0.29 1.38
-17 5 -7 0.87 0.58
-7 -17 7 94.58 9.42
17 -7 -7 85.69 6.8
-7 -17 -7 88.36 8.17
-17 -7 -7 88.87 7.82
-17 -7 -7 75.47 8.13
-17 -7 7 90.64 9
-17 7 -7 84.4 7.03
17 -7 -7 84.23 6.58
-7 -17 -7 78.01 8.18
7 -7 17 89.37 9.34
-7 -7 -17 86.39 9.36
-7 -7 17 76.94 9.18
-7 7 -17 87.13 9.29
7 7 -17 83.7 9.1
7 7 17 90.13 8.44
7 17 -7 83.54 8.05
7 -17 -7 89.81 8.36
-7 17 -7 74.71 7.85
17 -7 7 81.12 6.96
-7 7 17 88.07 8.39
7 -17 7 85.33 9.26
7 -7 -17 88.55 9.46
17 7 -7 90.46 7.81
7 -17 -7 94.76 8.11
-1 -17 9 108.77 10.8
1 -9 17 90.07 10.46
17 1 -9 99.89 8.97
-17 -1 -9 95.41 8.57
9 -1 -17 105.57 10.81
-1 -9 -17 120.35 10.93
-1 9 17 106.44 10.18
-9 1 -17 86.69 10.4
9 1 17 106.76 9.88
-9 -17 -1 120.66 10.06
-9 -1 17 107.77 10.31
-17 1 9 99.23 8.91
-17 -9 1 99.04 9.76
1 -17 -9 97.25 9.15
1 -17 -9 107.03 9.75
9 17 -1 104.03 9.26
-17 -1 -9 118.25 10.16
-1 17 -9 99.54 9.62
9 -17 1 102.68 9.98
1 9 -17 109.34 10.62
17 -1 -9 109.05 9.06
-9 17 -1 107.75 9.01
-17 -1 9 111.49 9.49
9 17 1 109.65 9.27
1 -9 -17 107.26 10.68
-17 -9 -1 91.59 9.44
-17 1 -9 93.35 9.49
-9 -1 -17 100.91 10.71
9 -1 17 101.25 9.91
9 1 -17 100.15 10.55
-9 1 17 95.52 9.96
-1 -17 -9 108.6 9.79
9 -17 -1 99.82 9.73
-1 -9 17 99.73 10.76
-9 -17 1 116.49 10.24
-17 -9 -1 94.15 9.02
1 -17 9 132.23 11.36
1 17 -9 94.81 9.48
9 -17 -1 93.61 9.13
-1 9 -17 114.17 10.83
-1 -17 -9 103.23 9.27
-3 -9 -17 57.57 7
-17 -9 3 61.71 6.61
9 -3 -17 60.51 7.29
-3 17 -9 57.92 6.21
17 -3 9 50.68 5.09
3 -9 17 56.55 7.15
3 9 -17 59.93 6.99
-3 -17 9 49.08 6.84
-9 -3 17 57.09 7.03
9 -17 3 59.15 6.7
-9 3 -17 75.18 7.93
9 17 -3 57.98 5.76
-9 -17 -3 47.51 5.8
17 3 -9 55.55 5.64
-3 9 17 47.22 5.89
-17 3 9 59.04 5.19
3 -17 -9 54.65 5.72
3 -17 -9 51.78 6.04
-17 -3 -9 68.19 5.58
9 3 17 60.7 6.29
-17 -3 -9 53.98 6.32
-9 -17 -3 57.31 6.25
3 -17 9 63.6 7.39
-9 17 -3 52.26 5.48
-3 -17 -9 42.51 5.72
9 -17 -3 62.24 6.18
17 -3 -9 53.68 5.44
-9 3 17 56.65 6.41
9 -17 -3 62.27 5.89
-17 -9 -3 64.09 6.09
3 17 -9 50.8 6.01
9 -3 17 48.4 6.4
9 3 -17 62.17 7.3
-3 -9 17 53.92 7.13
17 9 -3 59.93 5.55
-3 9 -17 58.07 7.07
-9 -17 3 63.25 6.84
-17 -3 9 58.15 6.32
-9 -3 -17 60.91 7.22
3 -9 -17 56.78 7.11
-17 -9 -3 58.58 5.92
-3 -17 -9 52.84 5.7
3 9 17 57.26 6.1
-9 -5 17 18.67 4.44
-5 -9 -17 22.54 4.7
9 -17 5 22.33 4.49
9 17 -5 18.19 2.91
-5 9 17 17.74 3.15
-5 17 -9 25.76 3.47
5 -17 -9 17.42 2.93
17 -5 9 18.02 2.58
17 5 -9 23.43 3.21
-17 -5 -9 24.28 2.91
-17 -5 -9 17.76 3.35
-9 -17 -5 23 3.37
-5 -17 9 24.6 4.99
-17 5 9 21.4 2.37
9 5 17 16.83 3.08
5 9 -17 18.15 4.01
-17 -9 5 18.86 3.93
9 -5 -17 22.1 4.61
-9 -17 -5 26.22 3.55
5 -9 17 16.01 4.07
-9 5 -17 25.51 5.05
5 -17 -9 20.19 3.25
9 -5 17 17.85 3.82
-5 -17 -9 18.5 2.91
-5 -17 -9 23.17 3.55
5 -9 -17 17.39 4.25
5 17 -9 20.61 3.15
-9 5 17 21.49 3.52
5 9 17 16.94 3.02
-17 -5 9 21.76 3.94
5 -17 9 25.38 4.5
-9 -5 -17 23.05 4.85
17 -9 5 23.97 1.91
17 -5 -9 18.02 2.72
9 -17 -5 14.74 3.19
9 -17 -5 22.8 3.25
9 5 -17 20.84 4.59
-9 -17 5 25.58 4.18
-9 17 -5 20.2 2.95
-5 -9 17 28.1 4.78
17 9 -5 24.06 2.9
-5 9 -17 25.95 4.4
-17 -9 -5 24.31 3.2
-17 -9 -5 25.15 3.26
-7 -17 9 116.39 12.01
-9 -17 -7 133.01 11.02
-9 -7 17 130.46 12.41
-9 7 -17 143.03 12.59
-17 -9 7 119.82 11.76
17 -9 -7 124.53 9.88
17 7 -9 119.06 10.64
-9 -17 -7 119.76 11.11
-17 -7 -9 129.82 11.45
9 -7 -17 100.48 11.82
-17 9 -7 122.75 9.66
7 9 -17 135.61 12.11
9 17 -7 118.42 10.75
-7 -9 -17 136.42 12.25
17 -7 9 124.25 10.25
-7 9 17 108.12 10.78
9 7 17 109 10.73
7 -9 17 127.41 12.13
9 -17 7 120.6 12.09
-17 -7 -9 129.42 10.47
17 -9 -7 119.51 9.48
-9 -7 -17 141.53 12.6
7 -9 -17 125.63 12.3
9 7 -17 129.43 12.1
-17 -9 -7 124.52 11.1
9 -7 17 114.61 11.61
7 -17 9 125.13 12.14
7 17 -9 116.75 10.9
-7 -9 17 121.84 12.37
9 -17 -7 111.67 10.77
-7 9 -17 108.81 11.77
-17 -9 -7 109.28 10.42
9 -17 -7 121.14 10.66
17 9 -7 115.74 10.5
-7 -17 -9 110.29 10.63
-17 -7 9 113.41 11.65
-7 -17 -9 121.03 11.19
-9 -17 7 123.28 12.03
-9 17 -7 121.18 10.64
7 9 17 132.38 10.97
9 -17 9 176.09 15.39
-17 -9 -9 179.46 13.6
17 -9 -9 160.92 13.49
17 -9 9 157.09 13.16
-9 -9 17 164.78 15.42
-9 9 -17 189.86 16.09
-9 9 17 166.24 13.89
9 17 -9 151.91 13.6
9 -9 -17 141.65 14.73
-9 -17 9 146.17 14.86
-9 -9 -17 133.37 14.3
9 -17 -9 147.02 13.38
9 -17 -9 149.07 13.9
-17 9 -9 141.31 12.94
-9 -17 -9 149.78 13.58
9 -9 17 150.1 14.73
-9 -17 -9 168.14 14.09
9 9 17 177.14 13.83
-17 -9 -9 169.22 14.29
-17 -9 9 142.46 14.72
-9 17 -9 169.43 13.77
9 9 -17 168.46 14.78
17 9 -9 165.44 13.6
17 -9 -9 158.67 12.48
11 -1 -17 32.07 7.01
-17 -1 -11 23.34 4.19
-17 1 11 23.5 3.42
1 -11 17 32.37 5.03
1 -17 -11 26.82 3.91
17 1 -11 22.74 3.45
11 1 17 21.8 3.58
11 17 -1 28.38 3.37
-1 -17 11 26.24 4.64
1 11 -17 22.61 4
11 -17 1 24.06 3.91
17 -1 11 25.63 3.03
-11 -1 17 26.96 6.14
-1 17 -11 24.42 3.71
1 -17 -11 24 3.28
-1 -11 -17 27.04 4.49
-17 -11 1 22.93 3.97
-11 -17 -1 27.41 3.97
-1 11 17 25.97 3.59
-11 1 -17 29.17 5.03
-17 1 -11 26.37 4.21
-11 1 17 29.5 4.45
-11 -17 1 24.62 3.99
11 -17 -1 21.61 3.68
11 17 1 20.45 3.05
-17 -1 11 24.13 3.73
1 -11 -17 28.07 4.52
11 -17 -1 27.67 3.47
1 17 -11 28.58 3.86
-17 -11 -1 22.33 3.6
-17 -11 -1 31.33 3.62
-11 -1 -17 21.39 4.69
11 1 -17 23.84 4.89
-1 11 -17 22.24 4.05
-1 -11 17 27.49 4.91
17 -1 -11 30.1 3.85
11 -1 17 27.67 4.04
1 -17 11 28.41 4.93
-1 -17 -11 25.88 3.31
1 11 17 20.31 3.37
-1 -17 -11 23.52 3.75
17 1 11 26.48 3.3
-11 3 -17 -1.44 1.14
17 -3 11 -0.68 0.64
11 -17 3 -0.18 1.34
3 -11 17 0.87 1.71
-17 -3 -11 -0.82 1.31
-17 3 11 -1.18 0.58
-11 -17 -3 0.99 1.1
-3 17 -11 -1.05 0.83
-11 -17 -3 0.31 0.67
-3 -11 -17 -1.17 1.38
-3 -17 11 -1.33 1.41
3 -17 -11 3.06 1.57
17 3 -11 0.49 0.77
11 -3 -17 -1.27 1.38
-17 -11 3 -1.94 1.01
3 11 -17 1.43 1.39
11 3 17 0.38 0.95
-17 -3 -11 -0.46 0.55
11 17 -3 -0.87 0.38
3 -17 -11 -0.66 0.64
-3 11 17 -0.19 0.61
-11 -3 17 -2.07 1.19
11 -17 -3 -0.52 0.7
11 -3 17 -0.04 1.54
-11 -3 -17 -0.49 1.43
-3 11 -17 -1.24 0.96
17 -3 -11 0.38 0.99
-17 -11 -3 -0.28 0.83
-17 -3 11 1.31 1.46
-17 3 -11 -0.06 1.1
11 -17 -3 -0.26 0.86
-17 -11 -3 0.13 0.9
11 3 -17 -0.02 1.17
-3 -17 -11 -0.52 0.56
-11 3 17 2.18 1.51
-11 -17 3 0.52 1.15
-11 17 -3 0.05 0.73
17 11 -3 -0.47 0.47
3 -17 11 0.83 1.77
-3 -11 17 -2.5 1.33
3 -11 -17 0.15 1.54
3 11 17 -0.04 1.03
3 17 -11 0.13 0.79
-17 -11 5 4.9 2.18
11 17 -5 4.28 1.51
-11 -17 -5 5.88 1.89
-11 5 -17 4.48 1.88
11 -17 5 6.25 2.44
-5 -11 -17 3.12 1.96
17 -11 -5 4.43 1.06
5 -11 17 4.44 2.18
-5 17 -11 4.26 1.67
5 -17 -11 3.54 1.45
17 -11 -5 3.42 0.86
5 11 -17 2.28 1.59
17 5 -11 5.77 1.85
-17 -5 -11 6.15 1.63
-17 -5 -11 2.14 1.65
5 -17 -11 4.35 1.98
-11 -5 17 4.5 2.46
-5 -17 11 4.31 2.69
17 -5 11 6.37 1.59
11 -5 -17 6.94 2.58
-5 11 17 6.56 1.94
-11 -17 -5 5.86 1.93
11 5 17 5.46 1.94
-11 17 -5 5.09 1.39
11 5 -17 4.12 2.17
17 -11 5 4.55 1.1
17 11 -5 2.41 1.16
-11 -5 -17 1.25 1.75
-5 -11 17 4.74 2.69
17 -5 -11 4.02 2.27
-17 -11 -5 3.44 1.73
11 -5 17 4.31 2.18
5 -11 -17 3.61 2.35
5 -17 11 6.43 2.83
5 17 -11 2.71 1.58
11 -17 -5 2.37 1.48
-17 -5 11 2.41 1.91
-17 5 -11 4.88 1.76
5 11 17 5.79 1.8
11 -17 -5 3.5 1.53
-17 -11 -5 2.07 1.61
-11 -17 5 8.02 2.6
-11 5 17 3.37 1.85
-5 -17 -11 6.14 1.7
-5 -17 -11 4.86 1.84
-5 11 -17 6.59 2.57
-17 -11 7 13.79 3.68
17 7 -11 18.09 3.04
7 11 -17 12.28 3.35
11 7 17 14.67 2.63
-11 -17 -7 17.53 2.94
17 -11 -7 17.38 2.12
17 -11 -7 17.15 2.75
-17 -7 -11 21.44 2.79
11 -17 7 16.86 4.03
-7 11 17 17.81 2.89
-11 -7 17 10.33 3.46
-11 7 -17 13.09 3.52
-7 -11 -17 23.63 3.92
-7 17 -11 24.7 3.44
7 -17 -11 13.69 2.49
-7 -17 11 19.42 4.58
11 17 -7 14.99 2.74
7 -11 17 11.76 3.75
-17 -7 -11 15.42 3.7
7 -17 -11 19.89 3.54
-11 -17 -7 18.25 3.16
11 -7 -17 16.96 4.23
7 -11 -17 21.5 4.69
17 -7 -11 18.97 3.19
-17 -7 11 21.38 4.42
11 -17 -7 17.91 2.8
11 -17 -7 11.41 2.9
-17 -11 -7 21.25 2.87
7 17 -11 20.62 3.35
-7 -11 17 10.84 3.94
-7 11 -17 15.05 3.68
-11 7 17 17.38 3.36
-17 7 -11 19.15 2.99
-11 -7 -17 15.06 3.98
-11 -17 7 12.26 3.48
17 -11 7 15.02 2.58
-11 17 -7 16.08 2.62
-17 -11 -7 11.28 3
-7 -17 -11 18.36 3.12
11 -7 17 13.84 3.5
11 7 -17 17.72 3.85
-7 -17 -11 17.43 2.84
17 11 -7 16.19 2.75
-11 -17 -9 39.14 4.64
9 -17 -11 35.46 4.41
17 -11 -9 36.89 4.85
9 11 -17 41.81 5.59
-17 -9 -11 33.3 5.27
11 9 17 29.69 4.44
-17 -9 -11 47.71 4.69
-11 -9 17 34.5 6.07
11 -17 9 29.73 5.57
11 17 -9 33.23 4.47
-11 9 -17 36.2 5.49
9 -11 17 43.54 5.82
17 9 -11 40.27 4.91
-9 -17 11 31.85 6.4
9 -17 -11 29.08 4.78
-9 -11 -17 27.35 5.17
17 -11 -9 41.4 4.01
11 -9 -17 36.39 5.97
-9 11 17 43.58 4.89
-9 17 -11 45.21 5.21
-11 -17 -9 42.55 5.16
-17 -11 9 41.25 6.19
17 -9 -11 44.11 5.33
-17 -11 -9 39.66 4.71
-9 -11 17 37.43 6.08
-9 11 -17 49.45 5.81
9 -17 11 36.56 6.05
-9 -17 -11 43.16 4.77
-9 -17 -11 33.29 4.86
-11 -17 9 36.53 6.02
11 -17 -9 44.08 5.47
9 -11 -17 40.67 6.02
17 -9 -11 40.57 4.02
9 11 17 45.39 5.04
-17 -9 11 34.71 5.96
-11 -9 -17 39.5 5.74
17 -11 9 35.93 4.61
17 11 -9 40.29 4.69
-11 9 17 41.87 4.93
11 9 -17 45.02 5.79
-11 17 -9 40.2 4.5
11 -17 -9 40.03 4.55
-17 -11 -9 48.3 5.61
11 -9 17 32.14 5.34
9 17 -11 41.39 4.96
-11 -17 11 6.71 2.74
11 11 -17 7.87 2.42
-11 -17 -11 6.66 2.3
-17 -11 -11 6.14 1.87
-11 -17 -11 6.47 1.91
11 -17 11 3.09 2.56
17 11 -11 4.9 1.64
-17 -11 -11 2.93 1.8
-17 -11 11 6.04 2.93
11 -17 -11 5.19 2.16
-11 11 17 7.59 2.05
11 -11 -17 2.91 2.02
11 -11 17 8.28 2.87
-11 -11 -17 4.82 2.25
11 17 -11 5.23 1.84
17 -11 -11 5.99 1.6
17 -11 -11 4.04 3.14
17 -11 11 4.45 1.9
-11 -11 17 0.89 2.42
-17 11 -11 2.89 1.49
-11 11 -17 4.06 1.74
-11 17 -11 4.69 1.73
11 -17 -11 5.29 1.89
17 -13 -1 7.17 1.42
17 -13 -1 7.48 1.35
1 -17 -13 9.52 2.9
-13 -1 17 7.74 2.57
-13 1 -17 6.49 3.01
13 -1 -17 9.21 3.03
-1 -13 -17 7.42 2.68
13 1 17 12.24 2.78
13 -17 1 7.03 1.83
1 -13 17 8.69 3.29
1 13 -17 6.5 2.56
-17 1 13 6.25 2.2
13 -17 1 8.17 2.48
-1 13 17 12.72 2.63
13 17 -1 8.62 2.07
-1 17 -13 5.03 2.16
17 -1 13 10.29 2.31
17 1 -13 7.99 2.52
-17 -1 -13 7.82 2.8
-17 -13 1 8.87 2.64
-13 -17 -1 8.37 2.34
1 -17 -13 7.6 1.97
-1 -17 13 7.41 2.94
17 -1 -13 9.66 2.64
13 1 -17 5.04 2.37
1 -17 13 7.38 3.03
1 17 -13 7.95 2.42
-17 -1 13 8.7 2.44
-17 1 -13 11 2.84
-17 -13 -1 6.14 1.92
-1 -13 17 9.42 3.7
-13 -1 -17 11.09 3.25
17 -13 1 10.38 1.44
-1 13 -17 6.42 2.38
-13 1 17 9.06 2.6
-1 -17 -13 12.79 2.62
-1 -17 -13 10.17 2.64
13 -17 -1 6.72 2.2
13 -17 -1 6.97 1.84
1 13 17 8.09 2.24
17 -13 1 8.52 1.61
17 1 13 5.68 1.78
-17 -13 -1 9.13 2.52
-13 -17 1 5.47 2.08
13 -1 17 6.78 2.28
1 -13 -17 12.98 3.31
3 -17 -13 -1.2 1.23
3 -13 17 1 1.76
-13 3 -17 1.18 1.78
17 3 -13 2.54 1.43
-3 -13 -17 -1.22 1.02
-3 -17 13 -0.59 1.17
13 -17 3 -0.63 1.31
3 -17 -13 0.63 0.88
13 3 17 -0.75 1.19
3 13 -17 1.05 1.59
17 -13 -3 0.9 0.76
-13 -3 17 2.98 2.03
-17 -13 3 1.08 1.46
17 -13 -3 1.13 0.81
-13 -17 -3 2.76 1.27
-13 -17 -3 2.14 1.14
13 17 -3 1.05 0.91
-3 13 17 0.65 1.07
17 -3 13 2.62 1.4
-17 -3 -13 -0.21 1.6
13 -3 -17 1.72 1.84
-3 17 -13 1.19 1.32
-3 -17 -13 1 0.81
-13 3 17 1.14 1.49
3 -17 13 0.2 1.29
-17 3 -13 -1.26 1.2
17 13 -3 2.99 1.3
-3 -17 -13 1.55 1.57
17 -13 3 0.95 0.73
-13 17 -3 0.35 0.66
-13 -3 -17 3.28 2.39
3 17 -13 -0.37 0.84
3 13 17 2.06 1.23
13 -17 -3 1.87 1.23
13 -17 -3 1 1.15
-13 -17 3 3.98 1.7
17 -13 3 -0.92 0.71
17 -3 -13 4.4 2.77
13 -3 17 3.39 1.81
-17 -13 -3 2.21 1.37
-17 -13 -3 0.96 1.07
-17 -3 13 0.59 1.35
17 3 13 0.4 0.87
-3 -13 17 -1.11 1.61
-3 13 -17 -1 1.02
3 -13 -17 1.41 1.69
13 3 -17 1.34 1.66
-5 -17 13 12.18 3.79
13 5 17 15.32 3.18
-5 17 -13 8.83 2.6
5 -13 17 11.56 3.66
5 13 -17 16.48 3.42
5 -17 -13 20.03 2.96
5 -17 -13 11.31 3.14
13 -17 5 16.43 4.07
13 17 -5 18.93 2.72
-5 13 17 14.36 3.03
-5 -13 -17 12.68 3.59
-13 -5 17 14.6 4.07
-13 5 -17 11.73 3.53
17 -13 -5 17.17 2.63
-17 -13 5 15.38 3.84
17 5 -13 15.52 3.36
-17 5 13 22.94 2.89
-17 -5 -13 8.55 2.11
13 -5 -17 16.93 4.17
-13 -17 -5 12.1 2.97
17 -13 -5 20.51 2.41
-17 -5 -13 19.1 4.3
-13 -17 -5 14.37 3.25
13 -5 17 17.79 3.59
-5 13 -17 11.97 3.24
13 -17 -5 13.95 2.82
-17 5 -13 12.62 3.26
-5 -17 -13 14.79 3.33
5 -17 13 11.64 3.91
-17 -13 -5 16.16 2.89
13 -17 -5 16.89 3.3
5 -13 -17 8.16 3.02
5 17 -13 16.82 2.85
-17 -13 -5 13.02 3.05
-13 -5 -17 14.89 4.06
13 5 -17 13.44 3.69
-5 -17 -13 15.97 2.57
-5 -13 17 13.48 4.03
17 -13 5 10.83 2.44
17 13 -5 14.06 2.46
-13 -17 5 15.23 3.88
-13 5 17 14.45 3.05
-17 -5 13 16.37 3.97
17 -5 -13 15.43 3.4
-7 -17 13 0.59 1.95
-13 7 -17 2.57 1.81
-17 -7 -13 10.05 3.13
7 -17 -13 1.66 1.68
17 -7 13 6.46 2.03
13 -17 7 0.99 2.1
-7 13 17 5.13 2
-17 7 13 8.55 2.7
-17 -13 7 1.37 2
13 7 17 2.17 1.29
-7 17 -13 5.96 2.02
-13 -17 -7 3.34 1.65
-13 -17 -7 3.03 1.73
17 7 -13 4.21 1.61
-13 -7 17 0.62 2.2
13 -7 -17 2.93 2.35
17 -13 -7 2.09 1.83
7 -17 -13 8.13 2.02
17 -13 -7 5.19 1.61
7 -13 17 1.53 1.98
7 13 -17 3.09 1.75
13 17 -7 3.93 1.47
-17 -7 -13 5.95 1.73
-7 -17 -13 3.24 1.43
7 -17 13 9.36 3.19
-17 -13 -7 4.02 1.64
17 13 -7 3.71 1.59
7 17 -13 3.76 1.53
-17 -13 -7 7.79 2.24
-7 -17 -13 6.52 2.29
-13 -7 -17 3.36 2.52
-13 7 17 6.92 2.15
17 -7 -13 4.98 2.11
-7 13 -17 3.24 1.93
-13 -17 7 4.01 2.19
17 -13 7 3.79 1.53
13 -7 17 4.18 2.05
13 7 -17 0.18 1.05
13 -17 -7 5.23 2.58
-17 -7 13 2.63 2.14
-7 -13 17 3.53 2.34
-9 -13 -17 13.74 2.8
-9 17 -13 17.61 3
-13 -17 -9 12.2 2.8
-9 13 17 19.76 2.9
-17 -13 9 10.05 3.81
9 -13 17 10.13 3.55
13 17 -9 12.87 2.82
-13 9 -17 5.82 2.44
-17 -9 -13 19.52 4.33
-17 -9 -13 17.8 2.35
13 -9 -17 9.7 3.61
17 -9 13 10.81 2.88
-13 -17 -9 13.5 3.34
9 -17 -13 14.65 3.91
-9 -17 13 15.42 4.65
-9 -13 -17 11.08 3.39
-13 -9 17 10.13 3.58
9 -17 -13 20.79 2.84
17 9 -13 14.23 3.13
9 13 -17 11.33 3.32
9 -13 -17 16.68 4.1
-17 -13 -9 12.22 2.68
13 -17 -9 13.11 3.51
-13 17 -9 15.14 2.72
-9 -13 17 13.23 4.27
17 13 -9 18.96 2.91
-13 -17 9 19.35 4.4
17 -9 -13 17.48 3.9
-17 -9 13 16.24 3.62
-13 -9 -17 12.75 3.47
9 -17 13 9.98 3.68
9 17 -13 12.56 2.95
-9 13 -17 10.93 3.05
13 -9 17 10.01 3.2
13 9 -17 9.79 3.09
-17 -13 -9 12.16 3.2
-9 -17 -13 17.47 3.69
13 -17 -9 12.38 2.69
-9 -17 -13 16.57 2.57
-13 9 17 11.26 2.61
11 13 -17 -2.26 1.14
-13 -11 17 -0.65 1.81
13 -17 11 0.52 2.05
-13 -17 -11 0.55 1.37
-17 -11 -13 0.58 1.71
-11 -17 13 -1.45 1.9
13 17 -11 -1.52 0.86
17 11 -13 -1.38 0.93
-17 -11 -13 -0.02 0.89
11 -13 17 -1.92 1.42
-13 -17 -11 -1.85 1.1
13 -11 -17 1.47 2.1
-17 -13 11 -4.39 1.85
-11 17 -13 2.21 1.3
-11 -13 -17 -0.04 0.74
-11 -13 -17 -0.69 1.22
11 -17 -13 -2.82 1.38
13 -17 -11 -2.08 1.74
-11 -17 -13 1.7 1.18
-11 -17 -13 -0.68 1.35
-11 13 -17 1.64 1.84
-13 17 -11 0.89 1.3
13 -17 -11 0.31 1.05
-11 -13 17 0.25 2.16
13 11 -17 -0.34 1.41
11 17 -13 0.13 1.14
-17 -13 -11 1.94 1.16
-17 -11 13 -3.84 1.5
11 -17 13 -1.53 1.47
-13 -11 -17 0.06 1.72
17 13 -11 1.71 1.37
-17 -13 -11 -0.29 1.34
-13 -17 11 3.49 2.09
13 13 -17 4.14 1.93
-13 -13 17 -0.02 2.73
13 17 -13 6.36 2.01
-13 -17 -13 6.1 2.99
-17 -13 13 4.84 3.38
13 -13 -17 3.08 2.86
13 -17 -13 4.15 2.67
-17 -13 -13 4.74 2.42
-13 -17 -13 1.8 1.56
-13 13 -17 9.18 2.75
-17 -13 -13 1.81 1.52
17 -1 15 34.27 4.83
-17 -1 -15 49.97 6.79
-15 -17 -1 37.97 4.99
1 -17 -15 39.56 4.83
-1 -15 -17 45.16 5.98
17 1 -15 48.2 5.79
15 1 17 49.73 5.39
1 -17 -15 47.62 5.8
-1 -17 15 55.27 7.29
1 15 -17 41.31 5.57
15 -1 -17 49 6.43
-1 17 -15 40.23 5.29
-15 -17 -1 43.05 5.61
-15 1 -17 44.1 6.42
-15 -1 17 44.85 5.81
15 -17 1 49.34 4.91
15 17 -1 43.94 5.26
-17 -15 1 51.45 6.08
15 1 -17 51.38 6.1
-17 -15 -1 39.83 5.52
-15 -1 -17 33.45 6.11
15 -17 -1 47.21 5.62
1 -15 -17 48.55 6.16
17 1 15 38.96 4.78
-15 -17 1 43.31 5.8
1 -15 -17 37.48 4.63
-1 15 -17 47.56 5.83
-17 1 -15 31.6 7.75
-17 -15 -1 43.55 5.1
1 17 -15 45.41 5.56
1 -17 15 34.11 6.37
-15 1 17 45.47 5.51
-1 -15 17 45.59 6.85
15 -1 17 43.78 5.16
-1 -17 -15 35.58 5.19
15 -17 -1 43.22 4.9
3 15 -17 11.72 3.15
3 -17 -15 11.15 2.44
-3 -17 15 8.83 3.27
15 3 17 9.28 2.48
-3 -15 -17 11.19 2.41
17 3 -15 13.38 3.12
-17 -3 -15 12.82 3.6
-3 17 -15 12.31 2.93
-15 -17 -3 12.79 3.21
15 -17 3 9.88 2.9
15 -3 -17 13.99 3.81
-15 -3 17 13.27 3.5
-15 3 -17 8.77 3.48
3 -17 -15 12.37 3.26
-15 -17 -3 9.09 2.55
-17 -15 3 6.2 2.68
3 -15 17 7.34 2.99
-3 -15 -17 16.97 3.85
15 17 -3 8.93 2.22
-3 -15 17 12.91 3.89
-17 -15 -3 11.16 2.69
15 -17 -3 12.87 3.06
17 -3 -15 8.38 2.93
-17 3 -15 15.45 3.69
15 3 -17 14.46 3.83
-17 -3 15 12.66 3.4
-3 -17 -15 12.36 3.16
-3 15 -17 9.94 2.91
17 3 15 9.21 2.4
15 -17 -3 11.94 2.75
-15 -17 3 8.94 3.17
3 17 -15 13.83 3.11
-15 -3 -17 10.93 3.9
15 -3 17 10.2 2.95
-15 3 17 9.74 2.77
17 15 -3 12.27 2.62
-17 -15 -3 15.27 2.66
3 -15 -17 12.77 3.52
3 -17 15 16.37 4.27
-3 -17 -15 10.43 2.48
15 -17 5 -1.59 1.72
15 17 -5 0.46 0.96
-15 -17 -5 1.96 1.33
-17 -5 -15 -1.22 1.95
17 -5 15 0.22 1.02
5 -15 17 -0.83 1.8
5 15 -17 -1.1 1.04
-5 -15 -17 -2.76 0.97
-15 -17 -5 1.58 1.76
-15 5 -17 3.81 1.67
-15 -5 17 1.7 1.9
-5 -15 -17 0.69 1.04
-5 -17 15 3.5 2.73
-17 -15 5 2.92 2.21
15 5 17 0.59 0.98
15 -5 -17 6 2.47
5 -17 -15 -2.05 1.06
5 -17 -15 1.06 1
17 5 -15 2.58 1.16
-17 -15 -5 1.43 1.2
5 -15 -17 1.39 1.68
5 -17 15 5.12 2.66
-5 -17 -15 0.32 0.92
17 15 -5 0.68 1.01
-5 15 -17 -1.56 1.03
-15 5 17 -2.01 1.24
-17 -5 15 -0.98 1.84
-17 5 -15 0.78 1.76
15 -17 -5 1.04 1.21
17 -5 -15 0.77 1.78
-5 -15 17 3.84 2.57
15 5 -17 1.76 1.67
-15 -5 -17 0.75 2.02
15 -17 -5 1.62 1.31
-17 -15 -5 -0.14 1.05
5 -15 -17 0.33 0.65
-5 -17 -15 -0.1 1.27
-15 -17 5 -1.27 1.95
15 -5 17 -2.65 1.1
-17 -7 -15 27.4 3.49
-7 -15 -17 23.24 3.27
-15 -17 -7 24.65 3.83
-15 -17 -7 21.88 3.7
7 -15 17 18.27 4.76
15 -7 -17 27.39 5.54
-7 17 -15 23.82 3.83
15 7 17 20.87 3.53
7 -17 -15 27.21 3.59
-7 -15 -17 20.37 4.47
-7 -17 15 20.26 5.39
-17 -7 -15 23.65 4.9
-17 -15 7 19.28 5.07
-15 -7 17 14.06 4.32
7 -17 -15 21.6 4.87
15 -17 7 17.58 4.1
17 -7 15 18.55 3.84
17 7 -15 20.45 4.38
15 17 -7 19.77 3.22
17 15 -7 24.3 3.23
7 -17 15 21.67 5.19
-7 -17 -15 23.07 3.5
-15 -7 -17 12.99 3.96
17 -7 -15 35.21 4.9
15 -7 17 19.08 3.97
15 7 -17 35.9 4.7
15 -17 -7 24.84 3.8
-17 -15 -7 28.94 3.93
-17 -15 -7 27.8 4.06
-15 -17 7 23.33 5.05
-17 -7 15 26.87 4.74
-7 -17 -15 28.57 4.49
-7 -15 17 21.39 5.02
-7 15 -17 23.93 4.15
7 -15 -17 23.55 3.37
-15 7 17 23.77 3.75
7 -15 -17 21.84 4.85
-15 -17 -9 43.5 5.62
9 -17 -15 44.32 5.37
15 17 -9 46.69 5.52
17 9 -15 51.16 6.1
-9 17 -15 40.89 5.62
-9 -17 15 48.13 7.32
-17 -9 -15 49.48 5.52
-9 -15 -17 47.86 5.36
-9 -15 -17 48.54 6.56
9 -17 -15 39.9 6.48
-15 -17 -9 63.19 6.12
15 -9 -17 60.55 7.6
-15 9 -17 45.84 6.57
-17 -9 -15 53.85 6.8
-17 -15 9 47.82 6.79
-15 -9 17 51.02 7.53
9 -15 17 35.88 6.59
-15 -9 -17 53.94 5.46
-17 -15 -9 54.15 5.94
-15 9 17 41.56 5.34
-9 15 -17 50.03 6.1
9 -15 -17 50.62 5.5
17 15 -9 52.13 5.69
9 -15 -17 50.19 7.02
-15 -9 -17 48.62 6.82
-9 -17 -15 51.45 5.53
-9 -17 -15 44.38 6.25
15 9 -17 48.79 6.35
-15 -17 9 49 7.29
-17 -15 -9 57.42 6.55
-17 -9 15 52.84 7.59
9 -17 15 53.41 7.4
15 -9 17 59.58 10.08
-9 -15 17 57.02 7.76
-15 -17 -11 4.22 1.67
-17 -15 11 10.43 3.54
-17 -11 -15 7.37 2.13
-11 -15 -17 4.72 1.8
-11 -15 -17 5.57 2.46
-15 -11 17 3.52 3.19
-17 -11 -15 7.96 3.08
-11 -17 15 5.52 2.89
11 -15 17 3.16 2.69
11 15 -17 6.63 2.41
15 17 -11 3.86 1.66
17 11 -15 8.98 2.49
-15 -11 -17 3.63 1.87
15 11 -17 5.06 2.09
11 -15 -17 4.51 1.8
11 -15 -17 4.31 2.84
-17 -15 -11 6.85 2.18
-17 -15 -11 5.79 2.55
-15 -17 11 6.56 2.53
-11 -15 17 4.61 2.63
-11 -17 -15 2.69 1.66
-11 -17 -15 6.17 2.56
-17 -11 15 3.56 2.95
11 -17 15 1.16 2.57
17 15 -11 12.38 2.59
-15 -17 -13 -1.27 0.98
-17 -13 -15 -1.57 1.27
13 -15 17 2.64 2.12
13 15 -17 1.5 1.42
15 17 -13 0.33 1.44
-13 -17 15 -1.9 2.2
-17 -15 13 -4.53 2.39
-13 -17 -15 0.49 1.37
-17 -15 -13 -3.76 1.3
13 -17 15 1.33 2.76
15 13 -17 0.14 1.26
-17 -13 15 -3.02 2.52
-13 -15 17 -2.67 2.74
13 -15 -17 -0.27 1.12
-15 -15 17 17.82 5.85
-17 -15 -15 23.86 3.72
-17 -15 15 16.25 5.43
-15 -17 15 25.07 7.44
-17 -1 17 63.09 7.75
-1 -17 17 69.45 9
-1 17 -17 70.27 7.77
1 -17 -17 83.55 7.39
1 -17 17 66.3 8.71
1 17 -17 71.81 7.86
17 -1 -17 70.7 8.23
17 -1 17 75.89 7.45
17 1 -17 74.16 8.17
-17 -17 1 70.29 8.09
-17 -1 -17 67.35 9.17
-17 -17 -1 66.77 7.68
-17 -17 -1 69.32 7.12
-17 1 17 63.95 7.56
-1 -17 -17 58.16 6.72
-17 1 -17 61.77 8.57
-3 17 -17 27.25 4.48
3 -17 -17 32.71 5.11
17 -3 17 27.89 4.24
-17 -17 -3 36.22 5.09
3 -17 -17 36.14 4.37
-3 -17 -17 25.17 3.79
-3 -17 17 24.06 5.36
-17 -17 3 37.85 5.34
-17 -3 17 28.46 5.59
17 3 -17 35.87 5.74
17 17 -3 32.34 4.02
3 -17 17 23.76 5.81
3 17 -17 31.55 4.61
17 -3 -17 35.48 5.64
-17 -17 -3 31.87 4.33
5 -17 17 3.57 3.06
-5 -17 17 -4.46 1.63
-17 -17 -5 3.09 1.87
-17 -17 -5 -0.1 1.31
-17 -17 5 -2.74 1.48
-17 -5 -17 1.09 1.69
-17 -5 17 0.68 2.31
-5 -17 -17 1.73 1.36
-5 -17 -17 6.08 2.39
17 5 17 1.39 1.39
17 17 -5 2.21 1.19
17 -5 -17 2.83 2.47
17 -5 17 -1.09 1.45
-17 -17 7 33.01 6.23
-17 -7 -17 46.7 4.9
-17 -17 -7 39.03 5.17
-17 -17 -7 37.81 5.48
-7 17 -17 40.3 5.49
7 -17 -17 37.51 4.75
7 -17 -17 41.94 6.05
7 -17 17 39.43 6.88
17 17 -7 39.87 4.71
-7 -17 -17 45.55 6.05
-7 -17 -17 34.65 4.64
-9 -17 -17 75.47 7.46
-9 -17 17 77.18 9.66
-9 17 -17 70.86 7.87
-17 -17 9 80.11 9.51
-17 -17 -9 77.18 7.99
9 -17 17 55.85 8.71
17 17 -9 66.45 7.26
9 -17 -17 75.54 7.49
9 -17 -17 72.12 9.6
11 -17 17 10.23 4.32
17 17 -11 18.57 3.18
-17 -17 -11 17.77 3.59
-17 -17 -11 13.69 4.99
-17 -17 11 7.69 3.11
-17 -11 -17 13.86 3.09
-11 -17 17 7.34 5.11
11 -17 -17 17.11 2.97
-17 -17 13 0.96 3.73
-17 -13 -17 3.14 1.87
-17 -17 -13 -3.4 1.9
-17 -13 17 7.41 3.97
0 0 -18 195.01 19.12
0 0 18 235.3 18.9
0 -18 0 221.16 18.42
0 18 0 227.43 17.78
0 18 -2 63.11 5.97
0 -18 2 64.98 6.88
-18 -2 0 62.04 5.05
-2 0 -18 56.73 7.41
-2 0 18 68.7 7.18
0 -18 -2 48.26 6.1
0 2 18 74.9 7.19
0 18 2 60.91 5.89
2 0 -18 58 7.41
-2 -18 0 63.68 6.67
-2 18 0 56.46 5.85
0 -2 -18 67.33 7.69
0 -2 18 59.65 6.92
0 2 -18 70.41 7.95
2 0 18 51.29 6.63
2 -18 0 58.72 6.53
2 18 0 57.39 5.9
2 -2 -18 38.99 5.75
2 -2 18 35.84 5.09
2 2 -18 40.95 5.52
-18 -2 -2 33.34 3.45
-18 -2 2 37.52 3.2
-2 -18 -2 30.17 4.34
-2 -18 2 39.34 4.91
-2 -2 -18 39.57 5.77
-2 -2 18 28.39 4.85
-2 2 -18 27.94 5.13
-2 2 18 39.75 4.87
-2 18 -2 43.28 4.28
2 -18 -2 29.35 4.22
2 2 18 35.76 4.79
2 18 -2 32.93 3.99
2 18 2 41.35 4.22
2 -18 2 36.03 4.78
0 18 -4 1.5 0.98
-4 18 0 0.87 0.74
0 -4 -18 0.68 1.55
0 -4 18 0.41 1.21
0 4 -18 1.51 1.73
0 4 18 1.11 1.46
4 0 -18 0.86 1.65
0 -18 -4 1.07 1.2
-18 0 -4 1.01 0.59
4 -18 0 -0.98 0.88
4 18 0 1.19 0.8
-4 -18 0 -0.76 0.99
-18 -4 0 -0.42 0.72
-18 -4 0 0.98 0.67
-4 0 -18 1.7 1.79
-4 0 18 -0.89 1.12
-18 0 -4 1.45 0.43
0 -18 -4 -0.51 0.57
0 -18 4 3.02 1.79
4 0 18 3.44 1.64
-2 4 18 0.76 1.44
4 18 -2 0.82 0.94
2 -18 -4 2.89 1.27
-18 -4 2 3.11 1.26
-18 -4 2 1.27 0.7
-2 -18 4 2.92 1.54
-18 -2 -4 2.36 1.01
-4 2 -18 2.56 1.91
-2 -4 -18 -0.51 1.32
-4 -18 -2 3.61 1.61
4 2 18 1.7 1.28
4 -18 2 1.38 1.3
-18 -2 -4 0.47 0.64
2 -18 -4 -0.29 0.71
2 4 -18 3.57 1.9
4 -2 -18 1.35 1.39
-2 18 -4 0.74 0.68
2 -4 18 2.77 1.44
-18 -2 4 1.2 0.89
-4 2 18 1.37 1.4
-4 -18 2 0.84 1.37
4 18 2 0.92 0.86
-4 -2 -18 -0.18 1.56
2 -18 4 3.53 1.7
2 18 -4 0.94 0.99
4 -18 -2 1.29 1
4 2 -18 0.77 1.6
2 4 18 -1.87 0.87
-2 -18 -4 0.65 0.95
4 -2 18 0.06 0.98
-2 4 -18 3.05 2.08
-18 -4 -2 0.18 0.74
-18 -4 -2 1.21 0.85
-2 -18 -4 2.55 1.32
-2 -4 18 1.15 1.64
2 -4 -18 2.26 1.68
-4 18 -2 1.81 0.95
4 -18 -4 34.25 4.42
4 -18 -4 42.6 4.81
18 4 -4 41.61 3.76
4 4 18 42.15 5.07
4 4 -18 27.86 5.35
-4 -18 -4 38.28 4.69
4 -4 -18 49.97 6.18
4 -4 18 29.73 4.97
-18 -4 -4 33.45 3.91
-18 -4 4 33.42 4.45
-4 -4 18 37.1 5.37
-4 4 -18 42.18 6
-4 4 18 40.57 5.16
-4 18 -4 48.85 4.69
4 -18 4 40.72 5.37
4 18 -4 47.76 4.75
-4 -4 -18 45.54 5.87
-4 -18 -4 34.95 4.41
-4 -18 4 44.07 5.54
0 6 -18 23.78 5.01
-18 0 -6 24.82 2.59
-18 0 -6 30.57 3.39
-6 -18 0 26.93 3.88
-6 18 0 28.68 3.39
0 -6 -18 30.04 5
0 18 -6 25.43 3.52
0 6 18 31.67 3.93
-18 -6 0 28.67 3.23
6 -18 0 24.44 3.79
0 -6 18 21.75 4.67
-18 -6 0 22.8 3.45
0 -18 -6 26.83 3.59
-6 0 -18 23.71 5.12
-6 0 18 22.57 4.05
6 0 18 32.07 4.41
18 0 -6 25.63 2.39
0 -18 -6 22.65 3.5
6 0 -18 28.62 4.87
6 18 0 27.5 3.36
0 -18 6 24.47 4.42
18 2 -6 7.6 1.26
-2 -6 -18 4.45 2.49
-2 18 -6 7.11 1.89
-6 -18 -2 10.15 2.36
2 -6 18 9.04 2.9
-6 -2 18 8.97 2.81
2 6 -18 7.85 2.59
6 -2 -18 5.55 2.53
6 -18 2 6.05 2.03
-2 6 18 7.49 2.26
2 -18 -6 6.33 1.74
6 18 -2 5.95 1.75
-18 -2 -6 4.45 1.15
-6 2 -18 7.83 2.94
-2 -18 6 6.19 2.35
6 2 18 6.43 2.31
2 -18 -6 6.04 1.9
-18 -6 2 5.98 1.86
2 18 -6 4.72 1.63
-2 -6 18 6.18 2.65
2 -18 6 8.31 2.89
-18 -6 -2 4.73 1.43
-18 -2 6 4.32 1.43
-18 2 -6 8.56 1.23
-2 6 -18 5.47 2.67
2 -6 -18 5.6 2.55
-6 2 18 9.77 2.54
2 6 18 3.82 1.68
-2 -18 -6 8.52 2.15
-6 -18 2 7.33 2.47
6 -18 -2 3.76 1.56
6 -2 18 7.36 2.46
6 -18 -2 8.54 2.17
-6 18 -2 9.02 1.99
-18 -6 -2 6.25 1.73
6 2 -18 4.46 2.5
-6 -2 -18 6.59 2.72
-2 -18 -6 7.48 1.99
-18 -4 -6 13.32 2.1
6 -18 4 15.66 3.71
-4 18 -6 17.73 2.62
6 18 -4 14.89 2.5
18 4 -6 15.64 2.08
4 -18 -6 16.95 2.84
-6 -4 18 26.88 4.32
-4 -6 -18 11.2 3.43
-4 6 18 14.5 2.99
4 6 -18 11.14 3.26
-6 -18 -4 11.89 2.64
-4 -18 6 13.08 3.46
-18 -6 4 10.58 2.75
-6 4 -18 8.73 3.4
4 -18 -6 16.85 2.64
4 -6 18 16.66 3.88
-6 -18 -4 13.98 3.04
6 4 18 10.45 2.64
6 -4 -18 22.71 4.7
-18 -4 -6 16.93 2.84
6 -18 -4 14.15 3.14
6 -18 -4 18.53 2.74
-6 -4 -18 17.16 4
-18 -6 -4 14.32 2.57
-6 4 18 17.39 3.59
-6 18 -4 12.68 2.34
4 -6 -18 17.97 4.1
-4 6 -18 11.25 3.25
-18 -4 6 21.29 3.3
4 18 -6 11.88 2.63
-6 -18 4 14.31 3.54
6 4 -18 14.83 3.87
18 6 -4 15.82 2.15
-18 -6 -4 14.41 2.29
6 -4 18 15.31 3.64
-4 -18 -6 19.09 2.84
4 6 18 13.02 2.84
4 -18 6 12.69 3.35
-4 -6 18 15.07 3.86
-4 -18 -6 10.9 2.54
6 -6 18 1.19 1.43
-18 -6 6 -1.98 1.22
6 18 -6 1.11 1.01
-18 -6 -6 -0.13 0.72
6 -18 6 -0.44 1.11
6 -18 -6 -0.71 0.73
6 6 -18 -2.07 1
6 6 18 1.49 1.52
18 6 -6 0.73 0.72
-6 -18 -6 0.6 0.86
-6 -18 -6 0.98 1.03
-6 18 -6 0.36 0.65
6 -18 -6 1.17 1.09
-6 6 18 -0.23 0.91
6 -6 -18 1.22 1.7
-6 -18 6 -0.35 1.51
-6 -6 -18 -1.88 1.21
-6 -6 18 2.64 1.84
-18 -6 -6 1.56 1
-6 6 -18 -1.75 1.09
-8 0 18 77.82 8.13
-8 0 -18 68.8 8.62
-18 0 -8 79.06 6.48
-18 0 8 66.81 6.67
-18 -8 0 78.05 7.05
8 -18 0 78.43 7.83
8 18 0 74.11 7.15
0 -18 -8 82.47 7.51
0 -18 -8 75.81 7.62
0 -18 8 70.43 8.39
0 18 -8 75.94 7.51
8 0 18 81.79 8.1
0 -8 -18 67.12 8.33
-18 -8 0 87.88 7.87
-8 -18 0 75.54 7.88
-8 18 0 68.45 6.8
8 0 -18 76.4 8.77
0 -8 18 85.71 8.94
0 8 -18 67.22 8.22
0 8 18 74.54 7.59
18 0 -8 73.22 6.55
-18 2 8 54.84 4.99
-2 18 -8 60.29 5.97
-8 -2 18 56.05 6.59
18 2 -8 51.5 5.05
-18 -2 -8 54.3 6.03
-8 2 -18 53.86 7.11
-2 -18 8 53.21 6.76
8 2 18 60.53 6.31
-18 -8 2 54.48 6.11
-8 -18 -2 41.62 5.57
2 8 -18 54.66 6.83
-2 8 18 55.16 5.94
8 -18 2 56 6.45
2 -8 18 65.63 7.39
8 -2 -18 44.36 6.57
2 -18 -8 58.44 6
8 18 -2 57.92 5.6
2 -18 -8 53.6 5.67
-2 -8 -18 54.94 6.94
-18 2 -8 55.06 5.49
-18 2 -8 47.14 4.55
8 -18 -2 46.64 5.41
-8 -2 -18 60.78 7.3
8 -2 18 42.62 5.86
2 8 18 41.81 5.55
-2 -18 -8 54.47 5.87
2 -18 8 41.97 6.48
-18 -2 8 46.66 5.49
18 -2 -8 54.9 4.71
-2 -18 -8 46.07 5.51
-8 2 18 69.39 6.68
-8 -18 2 54.57 6.35
-8 18 -2 51.54 5.35
-18 -8 -2 53.79 5.71
-2 -8 18 56.29 7.08
8 -18 -2 59.7 6.07
8 2 -18 43.93 6.54
2 -8 -18 72.25 7.57
2 18 -8 55.92 5.82
-18 -8 -2 47.05 5.31
-8 -4 18 0.89 1.77
-4 18 -8 3.04 1.5
4 -18 -8 4.84 1.7
-4 8 18 4.41 1.75
-8 -18 -4 3.73 1.53
18 4 -8 3.49 1.34
-18 -8 4 8.44 2.39
4 8 -18 1.25 1.75
4 -18 -8 5.56 1.82
-4 -18 8 5 2.28
8 -18 4 3.69 1.88
8 18 -4 6.93 1.83
-8 4 -18 2.29 1.78
-8 -18 -4 3.11 1.7
8 -4 -18 2.81 2.3
4 -8 18 9.44 2.9
-18 -4 -8 2.97 1.66
8 4 18 3.81 1.63
-18 -4 -8 3 1.12
-4 -8 -18 1.73 1.91
-8 -4 -18 4.07 2.31
8 -18 -4 3.9 1.75
-8 18 -4 4.04 1.39
8 -4 18 3.85 1.96
8 -18 -4 3.84 1.54
4 18 -8 3.91 1.65
-8 4 18 4.82 1.84
-18 -8 -4 4.34 1.62
-4 -18 -8 1.45 1.26
-18 -8 -4 6.24 1.82
4 -18 8 3.1 1.98
4 8 18 3.88 1.6
18 8 -4 2.28 0.94
8 4 -18 3.18 2.02
-4 -8 18 5.9 2.7
-4 -18 -8 2.83 1.31
-4 8 -18 3.67 2.31
4 -8 -18 5.83 2.55
-8 -18 4 4.63 1.95
-18 -4 8 4.77 2.04
-6 18 -8 47.8 4.88
-8 -6 18 42.93 6.08
-8 6 -18 44.27 6.2
-8 -18 -6 39.47 4.75
-6 -18 8 37.46 5.68
6 -18 -8 35.22 4.72
8 -18 6 41.04 5.83
-18 -6 -8 37.25 4.88
6 -8 18 37.94 5.62
18 -6 8 34.9 3.54
18 6 -8 40.37 4.39
8 18 -6 35.34 4.45
8 6 18 41.11 4.81
-8 -18 -6 38.05 4.75
8 -6 -18 32.84 5.62
-18 -6 -8 36.87 4.25
-18 -8 6 42.89 5.57
6 -18 -8 38.32 4.5
-6 8 18 45.47 5.02
6 8 -18 38.21 5.5
-8 -18 6 33.67 5.94
18 -6 -8 36.45 3.16
-18 -8 -6 40.83 4.5
6 -8 -18 39.25 5.92
-6 -18 -8 29.02 4.28
8 -18 -6 33.6 4.55
8 -6 18 36.57 5.31
18 -6 -8 41.52 3.38
-6 -18 -8 39.37 4.92
-18 -8 -6 45.62 4.98
8 -18 -6 34.16 4.54
-8 18 -6 39.43 4.62
-6 -8 18 36.58 5.71
6 8 18 42.23 4.9
-18 6 -8 40 3.82
18 8 -6 39.29 4.24
-8 6 18 51.27 5.24
-18 -6 8 34.49 5.18
-6 8 -18 49.52 6.27
8 6 -18 40.25 5.66
6 18 -8 38.9 4.6
6 -18 8 37.37 5.7
-8 -6 -18 46.41 6.11
-8 -8 18 128.26 12.64
8 -8 -18 121.89 12.55
8 -18 8 118 12.31
-18 -8 -8 132.68 11.57
-18 -8 8 115.92 12.1
-18 8 -8 119.81 9.96
-8 -18 -8 144.9 11.43
-8 -18 -8 131.96 11.54
18 -8 -8 121.61 9.81
8 8 18 117.12 11.13
-8 8 -18 130.52 12.57
-8 8 18 137.14 11.5
-8 18 -8 123.65 11.05
8 -18 -8 127.14 11.05
8 -18 -8 121.49 11.29
-18 -8 -8 120.43 10.79
18 8 -8 123.16 10.82
8 -8 18 132.24 12.44
18 -8 8 123.74 10.02
18 -8 -8 122.69 9.55
-8 -8 -18 125.43 12.48
8 8 -18 113.41 11.98
8 18 -8 125.07 11.12
-10 -18 0 53.41 6.19
0 -10 -18 45.62 6.44
0 10 -18 52.92 6.57
0 18 -10 51 5.86
10 0 -18 48.74 6.75
10 0 18 52.08 6.06
-10 0 18 57 6.51
0 -18 -10 50.51 5.49
0 -10 18 45.66 6.77
10 -18 0 50.03 6.06
10 18 0 58.33 5.56
18 0 -10 57.54 5.47
-18 -10 0 47.49 5.29
-10 0 -18 41.44 6.63
-18 0 10 55.5 5.61
-18 0 -10 50.29 6.16
0 -18 -10 50.93 5.88
0 -18 10 47.91 6.72
0 10 18 54.95 5.87
-18 -10 0 60.72 6.32
-2 -18 10 14.36 3.97
2 -10 18 17.61 4.15
-18 -10 2 17.21 3.7
2 -18 -10 13.42 2.73
2 -18 -10 13.59 2.98
-10 2 -18 14.76 4.05
18 2 -10 8.66 2.26
2 10 -18 14.06 3.56
-2 10 18 16.42 2.89
-18 -2 -10 17.98 2.36
10 -2 -18 17.52 4.15
-18 2 10 10.53 2.8
-2 18 -10 18.11 3.08
-2 -10 -18 13.75 3.62
10 18 -2 14.48 2.43
18 -2 10 13.49 2.17
-18 -2 -10 15.51 3.43
10 2 18 11.7 2.73
-10 -18 -2 16.59 2.95
-10 -2 18 22.78 3.74
10 -18 2 17.75 3.91
10 -18 -2 11.7 2.66
-10 -2 -18 18.87 4.44
2 18 -10 11.63 2.89
10 -18 -2 18.94 3.56
-2 -10 18 14.2 4.09
-2 10 -18 12.41 3.36
-18 -10 -2 14.12 3.03
-18 -10 -2 8.04 2.18
-10 18 -2 14.29 2.27
-18 2 -10 9.8 3.32
2 10 18 9.19 2.48
2 -10 -18 15.65 4.09
-10 2 18 9.97 3.02
2 -18 10 13.65 3.68
-2 -18 -10 10.96 2.45
-2 -18 -10 14.21 3.22
10 -2 18 12.62 3.15
10 2 -18 17.37 4.06
-18 -2 10 12.7 2.89
-10 -18 2 14.33 3.23
-18 -4 -10 0.01 0.55
-18 4 10 0.14 0.77
-4 18 -10 -0.72 0.72
10 -18 4 1.42 1.63
10 -4 -18 -0.23 1.43
4 10 -18 2.33 1.54
-10 -4 18 -1.16 1.57
-4 -10 -18 -0.89 1.21
10 4 18 0.97 0.88
-10 4 -18 2.93 1.84
-18 -4 -10 1.62 1.59
4 -18 -10 -0.3 0.65
4 -18 -10 -0.63 0.81
-4 -18 10 2.91 2.09
10 18 -4 -0.95 0.5
-18 -10 4 1.43 1.69
18 4 -10 0.59 0.84
-10 -18 -4 -0.54 0.92
-4 10 18 1.09 1.12
-10 -18 -4 -1 0.76
4 -10 18 -0.56 1.62
-4 10 -18 -0.3 1.32
4 10 18 1.48 1.12
10 -18 -4 -0.85 0.84
10 -18 -4 -0.52 0.66
-18 -4 10 -2.04 1.12
10 4 -18 0.21 1.37
10 -4 18 -1.05 1.18
18 10 -4 0.28 0.69
-10 -4 -18 -0.28 1.31
4 -18 10 -1.74 0.87
4 18 -10 -0.24 0.92
-4 -18 -10 0.25 1.1
-10 4 18 0.01 1.06
-10 18 -4 0.05 0.76
-18 -10 -4 0.47 0.81
-18 -10 -4 -1.25 0.71
-4 -10 18 -1.76 1.4
-18 4 -10 0.5 1.09
-4 -18 -10 -1.53 0.53
18 -4 -10 1.56 0.9
4 -10 -18 -1 1.36
-10 -18 4 -1.99 1.07
-6 18 -10 9.57 2.49
10 -6 -18 10.32 3.23
6 -18 -10 10.17 2.61
-6 -18 10 5.55 2.81
-18 -10 6 10.15 3.02
-6 10 18 3.64 1.78
10 6 18 11.1 2.81
-10 -18 -6 6.62 2.17
10 -18 6 9.92 3.22
10 18 -6 10.87 2.51
-6 -10 -18 17.48 4.08
18 -6 10 10.04 1.98
-10 -18 -6 12.59 2.82
6 -18 -10 9.66 2.31
-10 -6 18 8.89 3.18
-10 6 -18 8.71 3.11
6 -10 18 9.12 3.2
18 6 -10 10.45 2.44
-18 -6 -10 7.64 1.92
-18 -6 -10 7.89 2.73
6 18 -10 8.49 2.42
6 -18 10 4.6 2.69
-6 -10 18 14.56 3.92
-10 -6 -18 10.99 3.39
18 10 -6 9.55 2.14
-10 6 18 12.51 2.71
-6 10 -18 5.54 2.6
-18 6 -10 9.06 2.92
10 6 -18 11.05 3.13
-10 18 -6 11 2.3
-10 -18 6 2.69 2.04
-18 -6 10 10.12 2.97
-18 -10 -6 7.81 2.23
10 -18 -6 8.23 2.31
10 -18 -6 8.78 2.27
-18 -10 -6 9.64 2.81
-6 -18 -10 8.32 2.44
18 -6 -10 11.71 2.39
18 -10 6 10.76 1.17
6 -10 -18 11.71 3.71
-6 -18 -10 10.06 2.46
6 10 18 11.42 2.52
8 -18 -10 54.42 5.99
-10 -18 -8 51.73 6.24
18 -10 -8 50.26 5.26
18 -10 -8 58.4 4.94
18 8 -10 66.01 6.28
-18 -10 8 55.3 7.27
-18 -8 -10 66.58 7.12
8 -18 -10 57.14 6.63
8 10 -18 58.75 7.05
10 8 18 45.5 5.84
-8 10 18 61.58 6.3
-18 -8 -10 56.67 5.78
-8 -18 10 50.12 7.22
-10 -18 -8 63.34 6.35
-8 18 -10 52.32 5.97
8 -10 18 50.27 6.99
-10 -8 18 60.46 7.58
-10 8 -18 59.24 7.11
10 -8 -18 69.15 7.93
-8 -10 -18 46.68 6.76
10 18 -8 62.78 6.18
10 -18 8 58.04 7.44
-10 -18 8 51.79 7.17
-8 -18 -10 63.02 6.57
-8 -10 18 58.57 7.73
8 10 18 53.49 5.97
8 -18 10 58.9 7.57
8 -10 -18 55.38 7.51
10 -18 -8 54.29 5.99
-8 10 -18 66.4 7.4
10 8 -18 70.05 7.48
-8 -18 -10 55.19 6.09
18 -10 8 59.64 5.48
-10 18 -8 55.11 5.87
10 -8 18 45.06 6.6
-10 -8 -18 61.88 7.71
18 10 -8 60.81 6.05
18 -8 -10 55.24 5.92
10 -18 -8 65.33 6.7
-18 -8 10 50.93 7.06
-10 8 18 57.44 6.25
-18 -10 -8 53.19 5.84
-18 -10 -8 56.95 6.52
-10 10 -18 37.89 5.33
10 -10 -18 35.24 5.84
-10 -18 -10 32.21 4.17
-10 -18 -10 24.91 4.23
-10 -18 10 29.36 5.8
-10 -10 -18 30.59 5.14
10 -10 18 33.59 5.55
10 -18 -10 31.76 4.01
-18 -10 -10 37.26 4.44
-18 -10 -10 31.16 4.45
-10 -10 18 25.41 5.58
18 10 -10 35.22 4.29
-10 10 18 35.65 4.41
-18 -10 10 25.62 5.38
10 -18 10 36.48 5.74
10 18 -10 34.4 4.19
-10 18 -10 33.27 4.25
10 10 -18 25.7 4.44
10 10 18 24.34 4.07
10 -18 -10 31.94 4.71
0 -12 18 5.3 2.64
0 12 -18 7.83 2.73
12 -18 0 4.5 1.98
18 0 12 5.26 1.64
0 -18 12 7.64 2.74
0 18 -12 6.43 2.08
-18 -12 0 8.02 2.37
-18 0 12 7.93 2.37
12 -18 0 6.77 1.73
-18 -12 0 6.58 1.94
12 18 0 4.57 1.69
0 -18 -12 3.13 1.52
0 -18 -12 4.54 1.95
-12 0 -18 3.38 2.46
12 0 -18 7.49 2.95
12 0 18 7.05 2.36
-12 -18 0 6.9 2.43
0 -12 -18 7.29 2.6
-12 0 18 8.68 2.73
-12 -18 -2 -1.24 0.87
-2 12 18 1.03 1.09
12 -18 2 2 1.41
12 2 18 0.84 1.41
12 18 -2 1.94 1
12 -2 -18 -0.88 1.32
2 -12 18 -0.24 1.36
2 12 -18 1.82 1.61
2 -18 -12 -1.02 0.62
18 2 -12 1.75 1.36
-2 -18 12 2.17 1.65
-18 -12 2 1.23 1.19
-2 18 -12 1.62 1.1
-12 -2 18 -0.39 1.28
-12 2 -18 -0.21 1.57
2 -18 -12 0.05 1.07
-18 2 12 0.11 0.84
-12 -18 -2 -0.46 1.02
-2 -12 -18 -0.87 0.92
12 -18 -2 0.04 1.13
2 -12 -18 0.2 1.29
12 2 -18 -2.1 1.03
-12 2 18 1.17 1.37
12 -2 18 -0.96 1.1
18 -2 -12 3.03 1.25
12 -18 -2 1.31 1.05
2 12 18 0.79 1.01
2 -18 12 2.1 1.86
-18 2 -12 -0.33 1.32
-2 -12 18 0.43 1.47
-2 -18 -12 1.16 0.87
-2 -18 -12 0 1.16
-18 -12 -2 0.53 1.38
-12 -18 2 -0.96 1.01
18 12 -2 0.38 0.54
2 18 -12 0.69 1.1
-2 12 -18 2.35 1.25
-4 -18 12 34.22 5.42
12 -4 -18 31.7 5.45
-4 12 18 22.61 3.86
18 -4 12 29.19 3.78
18 4 -12 28.39 4.09
-12 -4 18 27.95 5.21
4 -18 -12 31.03 3.95
-18 -4 -12 26.85 3.56
-18 -12 4 41.17 5.35
-4 18 -12 34.32 4.47
4 -18 -12 28.23 4.65
12 -18 4 31.5 5.05
-12 -18 -4 35.24 4.42
12 4 18 28.08 4.18
4 12 -18 36.47 5.17
12 18 -4 32.86 3.93
-12 4 -18 41.41 5.57
-12 -18 -4 26.98 4.17
-18 -4 -12 29.61 4.91
-4 -12 -18 29.19 5.04
4 -12 18 19.68 4.94
-4 -12 18 29.78 5.86
12 -18 -4 36.35 4.49
4 -12 -18 34 5.26
-12 18 -4 38.01 3.98
-18 -4 12 34 4.87
-18 4 -12 47.49 9.23
12 -18 -4 30.16 4.09
-12 -4 -18 43.33 6.78
-12 -18 4 38.87 5.34
-4 12 -18 32.42 4.99
18 -4 -12 39.85 4.6
4 -18 12 26.51 5.67
4 18 -12 34.71 4.54
-18 -12 -4 43.19 4.61
-18 -12 -4 34.48 4.46
-4 -18 -12 36.88 4.15
-4 -18 -12 31.76 4.54
-12 4 18 29.4 4.49
4 12 18 22.02 3.77
12 -4 18 34.23 4.85
12 4 -18 31.03 4.87
18 12 -4 25.94 3.63
12 18 -6 4.01 1.7
6 -18 -12 3.68 1.49
18 -6 12 1.45 1.02
6 -18 -12 4.96 2.01
18 6 -12 5.44 1.77
12 -18 6 1.24 1.75
-6 -18 12 0.39 1.96
-12 -18 -6 3.5 1.7
6 12 -18 2.84 1.68
12 6 18 4.36 1.74
-12 -18 -6 1.2 1.15
-18 -12 6 2.91 1.95
-18 -6 -12 2.17 1.91
-12 -6 18 4.16 2.47
-12 6 -18 4.11 2.49
-6 -12 -18 4.51 2.69
-18 -6 -12 5.21 1.47
-6 12 18 1.35 1.47
12 -6 -18 1.67 2.34
6 -12 18 1.79 1.95
12 -18 -6 0.64 1.23
6 18 -12 3.13 1.49
-12 6 18 5.1 1.76
-6 -18 -12 2.29 1.43
-12 -6 -18 2.32 2.2
-18 -6 12 0.95 1.92
6 12 18 4.05 1.96
12 -6 18 0.99 1.61
12 6 -18 0.93 1.37
-18 -12 -6 2.36 1.57
-18 -12 -6 3.51 1.5
18 -6 -12 4.26 1.68
-6 12 -18 3.93 1.83
-6 -18 -12 5.77 2.18
6 -12 -18 2.1 1.95
12 -18 -6 3.06 1.5
18 12 -6 1.33 1.11
-12 18 -6 1.44 0.99
6 -18 12 1.24 2.24
-6 -12 18 1.43 4.52
-12 -18 6 3.9 2.09
-8 18 -12 8.98 2.37
12 -8 -18 5.3 3.12
-8 12 18 9.9 2.19
-18 -8 -12 8.11 1.93
-18 -8 -12 11.99 2.96
-8 -18 12 12.66 3.77
12 -18 8 6.95 2.63
8 -18 -12 5.6 2.38
-12 8 -18 7.53 2.72
8 -12 18 9.03 3.37
-12 -8 18 9.39 3.28
-12 -18 -8 9.02 2.61
-12 -18 -8 7.32 2.16
18 -8 12 8.72 2.22
8 -18 -12 8.47 2.2
12 18 -8 7.73 2.25
-8 -12 -18 8.32 2.84
18 8 -12 7.53 2.06
-18 -12 8 1.69 2.32
8 12 -18 9.35 2.83
12 8 18 6.57 1.98
-12 8 18 8.85 2.38
8 12 18 7.5 2.33
-12 -18 8 7.74 3.1
-12 18 -8 8.58 1.96
-18 -12 -8 9.57 2.89
-18 -12 -8 5.92 2.16
12 -8 18 4.06 2.23
-8 -18 -12 2.3 2.38
12 -18 -8 8.95 2.69
-12 -8 -18 11.93 3.65
18 12 -8 8.86 2.22
12 -18 -8 6.11 1.93
-18 -8 12 11.22 3.59
-8 -12 18 6.87 3.11
-8 -18 -12 4.97 1.91
8 -12 -18 6.82 2.95
8 -18 12 14.43 3.85
-8 12 -18 9.95 2.92
8 18 -12 6.39 2.04
12 -10 -18 -0.25 1.75
-10 -18 12 3.48 2.62
-10 18 -12 1.53 0.97
10 12 -18 0.7 1.51
18 10 -12 2.52 1.36
-12 -18 -10 0.35 1.15
10 -18 -12 3.45 2.17
-18 -10 -12 2.01 1.11
12 18 -10 1.18 1.17
-10 12 18 -0.3 0.97
-12 -18 -10 2.33 1.3
10 -18 -12 1.87 1.19
10 -12 18 0.93 1.98
-18 -10 -12 -2.23 1.1
-12 10 -18 2.82 1.76
12 -18 10 -0.45 2.26
-10 -12 -18 1.06 1.82
-12 -18 10 -0.29 1.95
12 -18 -10 0.04 1.95
-12 10 18 3.55 1.38
-18 -12 -10 -1.83 0.89
-10 -18 -12 -0.02 1.15
12 -10 18 2.33 1.9
12 10 -18 0.71 1.43
-10 -18 -12 -0.66 1.08
-18 -10 12 6.03 2.41
10 -12 -18 0.57 1.6
10 -18 12 1.91 2.7
18 12 -10 0.76 1.01
-18 -12 -10 3.51 1.99
-10 -12 18 0.46 2.15
-12 -10 -18 2.8 2.18
12 -18 -12 5.58 2.37
-18 -12 -12 4.42 2.08
-12 12 18 5.3 1.94
-12 -12 -18 6.54 1.99
-12 -12 -18 8.1 2.71
-12 12 -18 9.09 2.8
12 18 -12 4.64 1.79
18 12 -12 6.57 2
-18 -12 12 5.53 2.83
-12 -18 -12 5.16 1.95
-18 -12 -12 9.19 3.2
-12 -18 -12 1.88 1.56
12 -12 -18 4.26 2.49
12 -18 12 6.43 2.98
-12 -18 12 4.01 2.31
12 -12 18 4.07 2.73
12 12 -18 7.44 2.61
0 14 -18 15.74 4.43
0 -18 14 8.57 3.41
-14 -18 0 11.8 3.3
14 -18 0 11.74 2.92
14 -18 0 9.44 2.14
0 14 18 14.69 3.07
14 0 18 7.77 2.25
-18 -14 0 11.88 3.25
18 0 -14 7.81 2.47
18 0 14 9.7 2.56
0 -18 -14 14.5 3.61
0 -18 -14 13.63 2.3
0 18 -14 8.59 2.64
-14 0 18 7.43 2.83
0 -14 -18 6.34 2.54
0 -14 18 8.57 3.31
-18 0 -14 8.85 3.02
-14 0 -18 4.01 2.48
14 0 -18 10.03 3.59
-18 -14 0 12.74 2.83
14 -2 -18 -1.82 1.77
2 -18 -14 0.5 1.02
18 -2 14 -0.02 0.73
-18 2 14 -2.05 1.11
-18 -2 -14 2.54 2.55
14 -18 2 0.33 1.03
14 18 -2 -1 0.66
2 14 -18 1.65 1.23
14 2 18 -1.74 0.84
-14 2 -18 -2.63 1.54
18 2 -14 3 1.42
2 -18 -14 -0.56 1.25
2 -14 18 0.35 1.64
-14 -18 -2 1.16 1.25
14 -18 2 0.57 1.42
-2 -18 14 0.3 2.04
-2 18 -14 0.67 1.22
-14 -18 -2 2.4 1.13
-18 -14 2 1.49 1.82
-2 14 18 -0.51 1.02
-14 -2 18 -3.24 1.17
-14 2 18 -0.99 1.15
-14 -2 -18 0.46 1.46
14 -18 -2 0.74 1.28
18 14 -2 -0.33 0.69
-2 -18 -14 0.02 0.79
2 -18 14 -2.49 1.02
2 -14 -18 0.71 1.45
18 -2 -14 2.25 1.47
-14 -18 2 -2.44 1.2
-2 -14 18 -3.75 1.69
14 -18 -2 -1.7 0.83
-2 14 -18 2.27 1.67
-18 -14 -2 1.37 1.6
2 18 -14 1.78 1.24
14 -2 18 -1.17 1.13
14 2 -18 -2.25 1.17
18 2 14 -0.99 0.88
-14 -18 -4 10.59 2.83
-18 4 14 8.76 2.28
-14 -4 18 8.5 2.74
-14 4 -18 18.69 4.35
14 18 -4 7.36 2.01
-4 18 -14 11.53 2.73
-18 -14 4 9.18 3.2
4 -18 -14 11.27 2.51
-4 14 18 12.98 2.85
4 -18 -14 11.29 2.95
4 14 -18 4.25 2.16
14 4 18 10.81 2.83
14 -4 -18 8.48 2.91
-4 -14 -18 11.31 3.21
-4 -18 14 10.33 3.5
4 -14 18 11.21 3.92
14 -18 4 13.03 3.61
18 4 -14 16.15 4.89
-14 -18 -4 12.47 2.79
14 -18 -4 8.94 2.34
-14 4 18 11.55 3.18
14 -4 18 11.39 3.04
-14 -4 -18 12.16 3.72
4 18 -14 13.34 3.04
14 4 -18 11.11 3.24
18 14 -4 9.84 2.25
-4 -14 18 10.16 3.59
18 -4 -14 11.03 2.83
-14 -18 4 14.64 3.48
-4 -18 -14 17.19 2.58
4 -14 -18 10.66 3.29
-4 14 -18 12.35 3.09
-4 -18 -14 9.01 2.89
-18 -4 14 9.55 3.33
4 -18 14 8.63 3.44
-18 -14 -4 7.37 2.43
-18 -14 -4 10.87 2.49
-6 -18 14 -2.09 2.07
14 18 -6 0.97 0.78
-14 6 -18 3.12 2.02
18 -6 14 1.37 1.17
14 -6 -18 -1.07 1.84
-18 -6 -14 -0.04 0.84
14 -18 6 -1.82 1.78
6 -18 -14 -1.32 0.81
-18 -14 6 -0.05 1.59
-6 -14 -18 1.29 1.52
6 -14 18 -0.23 2.14
-6 18 -14 -0.22 1.01
-14 -6 18 1.51 2.16
-18 -6 -14 -1.37 1.27
-14 -18 -6 0.71 1.11
-14 -18 -6 0.71 1.32
-6 -14 -18 -0.85 0.48
6 -18 -14 0.76 1.42
14 6 18 -0.4 1.27
-18 -14 -6 0.1 1.1
14 6 -18 -1.09 1.38
14 -18 -6 2.15 1.55
18 14 -6 0.27 0.86
-18 -6 14 3.63 2.91
-18 -14 -6 0.29 1.31
6 -18 14 -2.35 2.33
-6 -18 -14 1.69 1.6
-6 14 -18 -0.51 1.27
6 -14 -18 2.7 1.93
-14 -6 -18 3.2 1.88
14 -6 18 4.16 1.88
-14 6 18 -2.1 0.86
14 -18 -6 -1.18 0.88
-6 -18 -14 0.32 0.74
-14 -18 6 0.15 1.33
-14 -8 18 9.78 3.45
14 18 -8 8.41 2.18
-8 -14 -18 14.42 3.79
14 8 18 9.09 2.61
-14 -18 -8 16.51 3.5
-8 -14 -18 13.96 2.29
8 -18 -14 14.52 3.52
14 -18 8 8.85 3.18
-18 -8 -14 9.98 2.42
8 -18 -14 8.13 2.32
-8 -18 14 5.82 3.24
-8 18 -14 9.78 2.64
-18 -14 8 8.2 3.43
-14 -18 -8 9.87 2.47
8 -14 18 6.08 3.01
8 -14 -18 11 3.51
-8 14 -18 10.54 3.09
14 -18 -8 9.8 2.65
-14 -8 -18 6.33 2.6
14 8 -18 10.02 3.27
8 -18 14 11.39 4.07
-14 8 18 10.12 2.6
14 -18 -8 8.09 2.83
-18 -14 -8 12.87 3.04
-18 -14 -8 14.3 3.16
-8 -18 -14 9.62 2.95
18 14 -8 10.85 2.57
8 18 -14 13.83 4.46
-8 -14 18 12.88 3.75
-10 -14 -18 2.24 1.87
-18 -10 -14 4.17 2.12
-10 -18 14 -2.6 1.58
-10 18 -14 1.99 1.56
10 -18 -14 1.09 1.21
-14 10 -18 6.17 1.99
-10 -14 -18 1.69 1.23
-18 -14 10 3.43 2.74
14 18 -10 -0.06 1.12
14 -18 10 -0.36 2.65
10 -14 18 1.18 2.27
10 14 -18 1.1 1.37
-14 -10 18 8.45 2.7
-18 -10 -14 0.88 1.22
10 -18 -14 0.43 1.68
14 -10 -18 3.13 2.62
-14 -18 10 5.68 3.15
-10 14 -18 3.02 2
-10 -14 18 5.86 3.23
-14 -10 -18 2.58 1.33
-14 -10 -18 4.74 2.76
14 -10 18 1.14 2.27
-10 -18 -14 1.29 1.78
-14 10 18 0.29 1.07
-10 -18 -14 2.87 1.38
10 -18 14 -2.12 2.16
14 10 -18 4.43 1.84
-18 -14 -10 3.53 1.68
18 14 -10 4.49 1.62
10 -14 -18 1.98 1.67
12 -18 -14 7.91 3.18
-12 -18 14 7.55 3.89
-12 -14 -18 6.15 2.18
14 18 -12 8.02 2.41
12 14 -18 6.76 2.43
14 -12 -18 4.24 2.84
12 -18 -14 9.41 2.53
-14 -18 -12 4.34 2.03
12 18 -14 7.9 2.2
18 14 -12 8.27 2.11
-12 -18 -14 6.14 2.92
-18 -12 14 0.92 3.07
-14 -12 -18 7.09 2.13
12 -18 14 7.27 3.68
-14 -12 -18 3.29 3.44
-14 -18 12 7.36 3.26
14 12 -18 6.67 2.88
-12 -14 18 1.26 4.77
12 -14 -18 7.62 2.29
12 -14 -18 7.5 3.41
14 -12 18 1.9 2.63
-12 -18 -14 11.59 2.52
-14 -18 -14 0.51 1.71
18 14 -14 -0.22 1.24
-14 -14 -18 2.09 1.74
-18 -14 14 -2.1 2.73
-14 -14 18 0.07 3.31
-14 -18 14 -0.5 2.9
0 -18 -16 51.04 5.4
0 -16 18 41.15 7.04
0 16 -18 57.59 6.53
18 0 -16 46.18 6.1
18 0 16 44.82 5.36
0 18 -16 45.57 5.86
-18 -16 0 49.39 5.72
0 -16 -18 44.82 5.24
-16 -18 0 49.34 5.62
-16 0 18 50.24 8.25
-16 -18 0 48.66 6.16
-18 -16 0 46.32 6.32
0 -18 16 42.68 7.15
2 -18 -16 27.16 5.38
-16 -18 -2 25.78 4.5
-2 -16 -18 34.79 6.91
-18 -2 -16 21.36 5.32
-2 -16 -18 24.98 3.54
2 -18 -16 26.81 3.66
2 16 -18 30.24 4.62
-16 -2 18 16.34 3.98
-16 -18 -2 21.23 3.76
-18 -16 2 26.27 5.29
16 -2 -18 22.82 4.92
18 -2 16 25.58 3.84
16 18 -2 22.57 3.44
18 2 -16 27.59 4.61
-2 -18 16 40.72 6.19
-2 18 -16 26.22 4.17
2 -16 18 34.34 6.53
16 2 18 26.58 3.82
-18 -16 -2 18.98 4.41
-18 -16 -2 28.35 3.98
16 2 -18 30.14 4.77
-2 -18 -16 28.96 3.65
-16 2 18 24.44 4.31
-16 -2 -18 18.19 4.89
2 -18 16 24.71 5.56
18 -2 -16 29.36 4.76
-2 -16 18 24.66 5.53
-2 16 -18 36.57 4.82
2 -16 -18 27.22 3.7
-18 -2 16 28.05 4.63
-18 2 -16 24.87 5.45
2 18 -16 28.84 4.24
-16 -18 2 26.62 4.63
16 18 -4 2.07 1.21
4 16 -18 4.45 1.89
-4 -18 16 3.05 2.63
-16 -4 18 -0.14 1.98
4 -16 18 0.63 2.55
-18 -16 4 -0.69 1.65
-4 -16 -18 3.86 1.26
-4 18 -16 2.6 1.32
4 -18 -16 -0.79 0.86
16 4 18 0.94 1.28
4 -18 -16 -1.36 1.49
-16 -18 -4 0.8 1.72
18 -4 16 0.36 1.18
16 -4 -18 3.44 2.57
-4 -16 -18 3.93 1.86
18 4 -16 4 1.93
-4 16 -18 1.16 1.43
4 -18 16 -2.14 1.97
-4 -18 -16 2.47 1.09
-16 4 18 -1.08 1.32
-16 -18 4 3.34 1.99
16 4 -18 -0.57 1.48
-4 -18 -16 1.08 1.58
-18 -16 -4 2.41 1.81
18 16 -4 1.84 1.14
-18 -4 16 -0.94 1.73
-18 -16 -4 2.32 1.54
-4 -16 18 -1 2.28
4 18 -16 4.23 1.58
4 -16 -18 2.03 1.38
-16 -4 -18 -1.29 2.41
4 -16 -18 -1.25 1.53
16 6 18 6.22 2.22
-6 -16 -18 3.81 2.18
16 18 -6 2.99 1.61
-16 -18 -6 6.95 2.46
-6 -16 -18 2.41 1.82
-18 -6 -16 5.45 3.35
16 -6 -18 3.66 2.73
6 16 -18 5.95 2.22
6 -18 -16 5.55 2.79
-18 -6 -16 8.52 1.82
18 6 -16 6.87 2.43
-18 -16 6 0.77 2.1
-16 -18 -6 5.25 2.21
-16 -6 18 3.06 2.86
6 -18 -16 5.31 1.69
-6 -18 16 1.94 2.78
-6 -18 -16 5.36 2.31
6 -16 -18 6.15 1.82
-16 6 18 1.04 2.6
-18 -16 -6 6.31 2.47
6 -18 16 2.45 3.15
6 -16 -18 7.11 3.2
16 6 -18 5.11 2.34
-18 -6 16 4 2.54
-16 -6 -18 7.44 3.33
-6 16 -18 8.18 2.27
-16 -18 6 6.09 2.97
-18 -16 -6 10.27 2.78
18 16 -6 3.98 1.59
-6 -18 -16 3.77 1.84
-6 -16 18 5.12 2.97
-16 -8 18 45.49 7.04
8 -18 -16 52.64 5.62
8 -18 -16 58.91 7.13
-8 -18 16 47.48 7.36
8 -16 18 37.03 6.93
16 18 -8 45.48 5.36
18 8 -16 50.75 6.25
-18 -8 -16 50.81 5.49
-8 -16 -18 38.24 5.2
-18 -16 8 43.51 7.14
-16 -18 -8 49.91 6.05
-8 -16 -18 49.35 6.68
-8 -18 -16 39.44 6.03
-16 -18 8 48.02 7.23
-8 -16 18 45.21 7.39
8 -16 -18 63.71 5.92
-18 -16 -8 48.28 5.86
-18 -8 16 40.6 7.39
-16 -8 -18 52.07 6.99
8 -16 -18 41.32 6.55
8 18 -16 51.19 6.72
16 8 -18 52.47 6.52
18 16 -8 54.86 5.58
8 -18 16 46.79 7.25
-8 -18 -16 49.35 6.47
-10 -18 16 19.1 5.58
16 18 -10 17.64 3.41
-18 -16 10 31.63 6.63
10 -18 -16 29.3 6.98
-10 -16 -18 21.91 3.68
-16 -10 18 23.23 5.49
10 -16 18 26.08 5.91
-16 -10 -18 18.86 5.18
10 -18 16 19.32 5.36
-10 -16 18 14.97 5.01
10 -16 -18 22.04 4.16
-18 -10 16 24.57 5.91
-18 -16 -10 27.84 4.26
-10 -18 -16 29.37 3.97
-16 -10 -18 28.41 3.59
-18 -16 12 2.94 2.99
-18 -12 -16 1.77 1.33
-16 -12 18 -3.21 2.37
18 12 -16 0.19 1.45
-16 -18 -12 1.11 1.72
12 -16 18 -1.54 2.61
16 18 -12 -1.31 0.99
-16 -18 12 0.96 3.11
-16 -12 -18 -0.26 1.4
-18 -12 16 0.09 3.4
12 -18 16 -2 2.1
-18 -16 -12 3.1 1.71
12 -16 -18 0.1 1.36
-18 -18 0 34.85 5.43
0 18 -18 36.91 5.31
0 -18 18 51.58 7.08
0 -18 -18 34.75 4.53
-18 -18 0 34.33 4.67
18 2 18 17.39 3.56
2 -18 18 24.53 5.51
2 -18 -18 24.93 4.45
-18 -18 -2 24.98 5.07
-18 -18 -2 23.52 3.65
-2 -18 -18 22.34 3.57
-2 18 -18 19.56 3.62
2 -18 -18 23.19 3.55
-2 -18 18 16.79 4.79
18 4 18 1.11 1.31
4 -18 -18 2.24 2
4 -18 -18 2.84 2.41
-18 -18 -4 2.18 1.85
-18 -18 -4 -1.92 1.97
-18 -18 4 3.45 1.98
18 4 -18 1.67 1.45
-4 -18 -18 -0.7 1.12
-4 -18 18 -4.55 2.2
4 -18 18 0.63 2.42
18 18 -4 0.88 0.96
-18 -6 18 5.84 1.93
-18 -18 6 6.11 3.34
6 -18 -18 4.57 2.43
6 -18 18 6.08 3.33
18 6 -18 3.39 3.2
6 -18 -18 4.55 2.15
-18 -18 -6 3.16 2.24
-18 -8 -18 31.09 4.31
-8 18 -18 40.09 5.28
-18 -18 -8 41.19 5.24
-18 -18 8 18.73 5.58
8 -18 18 26 6.65
18 18 -8 31.58 4.3
8 -18 -18 46.09 4.65
8 -18 -18 27.64 5.95
-18 -18 -10 16.57 3.7
10 -18 18 11.06 4.64
18 10 -18 9.06 2.89
10 -18 -18 19.69 3.24
10 -18 -18 15.09 6.78
-1 -1 -19 58.96 7.5
-1 -19 1 62.18 6.78
-1 -19 -1 57.59 6.41
1 -19 1 60.01 6.71
1 -1 -19 48.37 6.97
1 -1 19 59.98 6.87
1 1 -19 58.76 7.54
1 1 19 67.65 6.96
-1 1 19 72.46 7.07
-1 19 -1 59.63 5.89
-1 19 1 53.03 5.71
1 -19 -1 57.17 6.42
1 19 -1 46.8 6
1 19 1 62.01 6.02
-1 -1 19 66.25 7.15
-1 1 -19 59.18 7.48
-1 3 19 0.55 1.35
3 -1 -19 2.46 1.87
1 -19 -3 1.3 1.09
1 3 -19 6.27 2.62
-1 -19 3 1.71 1.36
-3 -1 19 1.69 1.72
-3 1 -19 1.52 1.78
-3 19 1 1.35 0.79
-1 -3 -19 1.12 1.61
1 -19 -3 1 1.08
3 -19 1 0.2 1.01
-1 19 -3 2.4 1.15
-3 -19 -1 1.23 1.16
3 1 19 1.6 1.43
3 19 -1 3.46 1.36
-19 -3 1 1.57 0.66
1 -3 19 3.29 1.78
-19 -3 -1 1.7 0.79
-19 -3 -1 1.03 0.81
-3 -19 1 1.63 1.36
1 -19 3 1.6 1.34
1 3 19 0.53 1.2
-1 -3 19 2.03 1.82
3 -19 -1 1.3 1.19
3 -1 19 4.25 2.01
3 1 -19 -0.42 1.71
3 19 1 2.28 1.17
-1 -19 -3 2.16 1.41
-3 19 -1 1.82 1.04
-1 -19 -3 0.78 1.08
-3 -1 -19 -1.88 1.31
-3 1 19 2.02 1.87
-1 3 -19 0.39 1.95
1 19 -3 0.78 0.99
1 -3 -19 3.53 2.3
-3 -19 -3 49.72 5.56
-19 -3 3 48.73 4.36
-3 -19 -3 51.84 5.79
-19 -3 -3 46.93 4.67
-19 -3 -3 42.14 4.75
-19 -3 3 51.37 5
3 3 19 57.69 6.11
3 -3 19 49.03 6.24
3 3 -19 50.17 6.65
-3 -19 3 50.43 6.18
-3 -3 -19 52.93 7.01
3 19 -3 52.75 5.3
-3 -3 19 51.23 6.4
3 -19 -3 52.49 5.53
3 -19 3 49.9 6.14
3 -3 -19 46.16 6.66
-3 3 19 52.48 6.07
-3 19 -3 53.16 5.25
3 -19 -3 42.51 5.4
-3 3 -19 49.47 6.74
-19 -5 1 -0.35 1.01
5 1 19 -1.54 0.95
5 -1 -19 -1.15 1.54
5 -19 1 0.74 1.07
-5 1 -19 0.89 1.62
-1 19 -5 -0.18 0.73
5 19 -1 0.05 0.67
1 5 -19 -0.84 1.29
-1 -5 -19 -0.08 1.36
1 -19 -5 1.11 0.99
1 -19 -5 1.28 1.11
-5 -19 -1 0.37 1.07
-1 -19 5 -1.97 1.11
1 -5 19 -0.39 1.42
-5 -1 19 1.07 1.47
-5 -1 -19 1.47 1.81
-1 5 -19 0.08 1.65
1 5 19 -0.88 1.07
5 -1 19 0.22 1.1
5 -19 -1 -0.3 0.91
-1 -19 -5 1.48 1.12
1 -5 -19 -2.75 1.13
1 19 -5 0.76 1.23
-1 -19 -5 -0.73 0.88
-5 19 -1 0.82 0.75
-1 -5 19 1.33 1.83
5 19 1 -0.51 0.59
-5 -19 1 1.32 1.41
-5 1 19 0.24 1.28
1 -19 5 1.56 1.72
-19 -5 -1 -1.61 0.74
5 1 -19 2.46 1.89
-3 -19 5 43.98 5.53
-3 -5 -19 47.79 6.13
-5 3 -19 39.57 5.89
3 -19 -5 36.99 4.44
3 5 -19 23.57 5.52
-3 5 19 27.2 4.46
-5 -19 -3 41.47 4.91
-19 -5 3 33.7 4.48
3 -5 19 33.82 5.28
-5 -19 -3 38.94 4.6
-3 19 -5 39.51 4.45
3 -19 -5 34.35 4.44
-19 -3 -5 33.27 3.71
5 3 19 35.81 4.8
-5 -3 19 39.27 5.45
5 19 -3 37.3 4.27
5 -19 3 34.14 5.03
19 3 -5 38.49 3.5
5 -3 -19 42.67 6.01
-19 -5 -3 40.01 4.19
-3 -19 -5 38.08 4.61
-5 -3 -19 42.35 5.9
-3 -19 -5 40.61 4.66
-3 -5 19 46.39 5.84
-3 5 -19 32.21 5.38
3 19 -5 33.22 4.23
-19 -5 -3 35.44 4.15
-5 3 19 32.2 4.62
5 3 -19 34.87 5.49
3 -5 -19 31.11 5.45
5 -3 19 40.59 5.27
-5 -19 3 26.03 4.64
-5 19 -3 39.24 4.22
-19 -3 5 38.4 4.32
5 -19 -3 36.43 4.39
3 -19 5 37.27 5.41
3 5 19 38.91 4.85
5 -19 -3 38.71 4.71
5 -19 5 50.01 5.9
5 5 -19 38.29 5.79
5 5 19 44.05 5.12
5 19 -5 41.19 4.56
19 5 -5 38 3.88
-5 -19 -5 35.69 4.66
-5 -19 -5 38.67 4.74
-5 -19 5 37.17 5.46
-5 -5 -19 35.43 5.55
-5 -5 19 44.13 5.77
-19 -5 -5 37.36 4.58
5 -5 -19 31.38 5.52
5 -5 19 33.78 5.3
-5 19 -5 52.16 4.9
5 -19 -5 39.71 4.76
-19 -5 -5 36.2 4.16
-5 5 19 37.48 4.96
-19 -5 5 37.9 4.83
-5 5 -19 44.94 6.09
5 -19 -5 32.81 4.51
-7 -1 19 24.1 3.96
-19 -7 1 14.19 2.48
7 19 -1 16.64 2.7
1 7 -19 15.66 4.26
1 -19 -7 17.28 3.09
-1 -19 7 16.07 3.71
-7 1 -19 20.53 4.65
19 1 -7 18.7 2.27
7 1 19 16.17 3.45
-1 7 19 17.58 3.18
1 -7 19 14.25 3.85
7 -1 -19 20.73 4.83
-19 -1 -7 18.79 2.76
1 -19 -7 18.76 3.05
-7 -19 -1 10.49 2.93
-19 -7 1 17.03 3.13
7 -19 1 12.35 3.23
-1 -7 -19 15.98 3.97
-1 19 -7 18.66 2.93
-7 1 19 19.19 4.02
1 -19 7 17.86 4.06
1 -7 -19 19.8 4.44
-1 -7 19 23.22 4.61
-19 -7 -1 20.76 3.19
7 19 1 19.9 2.77
-7 -1 -19 19.3 4.67
1 19 -7 17.45 3.17
1 7 19 15.32 3.21
7 -19 -1 16.38 3.45
-19 1 -7 16.51 2.43
19 -1 -7 16.42 1.67
-1 7 -19 17.03 4.34
-7 19 -1 20.59 2.75
7 -1 19 23.98 3.84
-7 -19 1 23.14 3.75
-1 -19 -7 23.06 5.16
-19 -7 -1 18.16 2.7
7 1 -19 20.73 4.51
-7 -19 -3 4.77 1.88
-7 -19 -3 4.23 1.62
7 -3 -19 0.52 1.93
7 3 19 5.57 2
3 -19 -7 6.02 1.95
3 -19 -7 1.09 1.11
-3 19 -7 6.74 1.93
-3 -7 -19 4.97 2.42
-19 -3 -7 3.8 1.13
-19 -3 -7 1.16 1.05
-3 -19 7 5.09 2.28
3 7 -19 5.44 2.54
-7 -3 19 5.79 2.37
-7 3 -19 4.39 2.65
19 3 -7 4.38 1.04
3 -7 19 5.91 2.39
-19 -7 3 3.71 1.94
-3 7 19 4.65 1.67
7 -19 3 3.69 2
7 19 -3 2.49 1.19
-7 -19 3 4.25 1.8
-7 19 -3 7.56 1.92
-19 3 -7 5.22 1.08
3 7 19 4.1 1.75
7 -19 -3 4.1 1.77
7 -19 -3 2.36 1.41
-3 -19 -7 3.53 1.75
7 -3 19 4.22 2.23
-3 -7 19 4.71 2.36
3 -7 -19 2.36 1.99
-19 -7 -3 1.85 1.2
-19 -7 -3 3.84 1.4
7 3 -19 -0.17 1.63
-7 -3 -19 4.9 2.7
3 -19 7 0.69 1.79
3 19 -7 4.94 1.65
-7 3 19 5.08 2.29
-3 -19 -7 6.16 1.85
-3 7 -19 4.72 2.36
-19 -3 7 1.44 1.39
7 -19 5 7.03 2.39
-19 -5 -7 0.74 1.14
19 5 -7 2.5 1.05
-7 -5 19 5.77 2.51
-7 5 -19 -1.37 1.34
5 -7 19 0.76 1.81
-19 -5 -7 4.4 1.27
-5 -7 -19 0.61 1.57
-5 -19 7 0.36 1.4
-5 19 -7 2.32 1.27
5 -19 -7 2.77 1.42
5 -19 -7 3.54 1.64
5 7 -19 3.21 1.97
-5 7 19 2.47 1.51
7 -5 -19 5.13 2.44
7 19 -5 2.14 1.14
-19 -7 5 1.79 1.59
7 5 19 2.14 1.59
-7 -19 -5 2.44 1.47
-7 -19 -5 4.9 1.79
-7 -5 -19 3.97 2.47
7 -5 19 -0.67 1.01
-7 19 -5 2.04 1.01
-5 -19 -7 1.62 1.46
-19 -7 -5 1.28 0.96
5 19 -7 2.96 1.14
5 -7 -19 4.06 2.24
-7 5 19 2.37 1.62
5 -19 7 1.44 1.74
-19 -7 -5 0.18 1.12
7 -19 -5 1.05 0.93
7 -19 -5 3.41 1.44
7 5 -19 0.21 1.12
-7 -19 5 1.18 1.03
19 7 -5 3.47 1.14
-5 7 -19 2.83 1.91
-5 -19 -7 3.37 1.49
5 7 19 2 1.3
-19 -5 7 2.53 1.67
-7 19 -7 15.56 2.69
7 -19 -7 19.28 3.2
-7 -7 -19 18 4.44
7 -7 -19 18.1 4.43
19 7 -7 21.88 2.74
7 7 19 15.19 3.19
-7 7 -19 27.91 4.7
-7 -19 -7 17.37 3
-7 -7 19 20.11 4.63
7 -7 19 17.16 4.09
7 7 -19 10.63 3.37
7 -19 7 13.84 3.78
7 19 -7 11.98 2.94
-7 -19 7 16.23 3.96
-19 -7 -7 18.37 2.74
-19 -7 -7 20.37 3.24
-19 -7 7 17.61 4.04
-7 -19 -7 19.5 3.11
7 -19 -7 18.95 2.99
-7 7 19 21.21 3.5
19 1 -9 26.44 2.96
-1 9 19 19.41 3.46
-19 -9 1 25.11 3.28
9 1 19 26.71 4
1 9 -19 22.2 4.7
-19 -9 1 30.52 4.16
9 19 -1 27.5 3.38
-9 1 -19 18.92 4.68
9 -1 -19 30.73 5.01
-1 -19 9 16.09 4.04
-9 -1 19 26.3 4.28
-1 19 -9 26.49 3.63
1 -19 -9 26.42 3.58
1 -19 -9 23.8 3.58
1 -9 19 30.42 5.16
-1 -9 -19 18.5 4.43
-19 -1 -9 13.18 3.19
9 -19 1 27.23 4.35
-9 -19 -1 22.35 3.74
9 -1 19 22.08 3.9
-9 19 -1 23.49 3.04
-1 -19 -9 28.51 3.87
-1 -9 19 16.54 4.25
-19 1 -9 24.08 2.68
1 -19 9 16.13 4.28
-9 -19 1 16.48 3.79
-19 -9 -1 23.25 3.32
9 19 1 24.24 3.17
1 9 19 20.76 3.52
-19 -1 9 24.42 3.31
-1 -19 -9 24.1 3.5
-1 9 -19 21.67 4.81
-9 1 19 26.19 4.06
9 1 -19 16.05 4.21
-19 -9 -1 22.27 3.72
9 -19 -1 19.58 3.65
19 -1 -9 22.83 2.72
1 19 -9 27.54 3.72
-9 -1 -19 23.44 5.06
1 -9 -19 20.85 4.55
9 -19 -1 21.81 3.28
-3 9 19 1.22 1.29
-3 -19 9 -0.54 1.39
-9 -19 -3 -1.21 0.65
-19 -9 3 -0.92 1.29
3 -19 -9 0.13 1.24
-9 3 -19 3.8 1.94
-9 -19 -3 0.5 1.13
9 -3 -19 1.55 1.69
9 3 19 1.57 1.19
-9 -3 19 -0.03 1.69
9 -19 3 0.85 1.52
9 19 -3 0.32 0.89
-3 19 -9 1.67 1.04
3 -9 19 4.04 2.39
3 9 -19 -0.67 1
3 -19 -9 1.57 1.19
-3 -9 -19 -0.16 1.08
-9 -3 -19 -0.57 0.86
-9 3 19 1.01 1.36
9 -3 19 2.2 1.52
19 -3 -9 -0.92 0.44
3 -9 -19 -2.52 1.35
-3 -19 -9 -0.15 0.88
3 9 19 1.02 1.1
9 -19 -3 -2.36 0.83
3 -19 9 2.81 1.86
3 19 -9 0.54 0.9
-19 -3 9 -0.68 1.25
-19 3 -9 0.26 0.85
-19 -9 -3 1.39 1.24
-19 -9 -3 -0.33 0.78
-9 -19 3 1.12 1.48
-9 19 -3 -0.19 0.6
9 -19 -3 0.59 1.06
-3 -9 19 -0.22 1.27
-3 9 -19 0.61 1.43
19 9 -3 0.24 0.54
9 3 -19 1.6 1.65
-3 -19 -9 0.79 0.99
5 -19 -9 2.43 1.3
19 5 -9 1.26 0.89
-9 -19 -5 1.18 0.99
-5 9 19 2.71 1.48
-9 -19 -5 -0.37 1.03
-5 -19 9 0.11 2.14
5 -9 19 3.7 2.02
-19 -9 5 1.45 1.77
9 19 -5 1.19 0.86
-9 -5 19 0.86 1.69
-9 5 -19 2.19 1.87
9 -19 5 1.18 1.77
-19 -5 -9 0.38 0.75
-19 -5 -9 0.47 1.09
-5 19 -9 0.85 0.88
5 -19 -9 0.92 0.94
9 -5 -19 -1.33 1.44
9 5 19 0.45 1.09
-5 -9 -19 1.33 1.82
5 9 -19 1.16 1.63
-9 -5 -19 -0.4 1.32
19 -5 -9 0.9 0.37
-9 -19 5 -0.04 1.28
-19 -9 -5 2.4 1.01
5 9 19 1.86 1.35
9 5 -19 0.89 1.57
9 -19 -5 2.45 1.27
-5 -19 -9 0.15 0.77
19 -5 -9 1.4 0.58
9 -5 19 2.72 1.63
5 -19 9 -0.13 1.61
9 -19 -5 0.27 1.14
-5 -9 19 1.23 2.17
19 9 -5 1.26 0.84
-19 -9 -5 2.25 1.25
-9 19 -5 0.89 0.8
5 19 -9 -0.22 0.89
5 -9 -19 -0.19 1.49
-5 -19 -9 2.17 1.33
-19 -9 7 19.05 4.36
-7 -9 -19 29.44 4.86
-9 -7 19 13.57 4.03
-7 19 -9 27.49 3.49
7 -19 -9 21.26 3.71
7 -19 -9 28.05 3.58
9 -7 -19 27.38 4.89
-9 -19 -7 21.32 3.67
9 19 -7 22.19 3.31
-19 -7 -9 27.68 3.43
7 -9 19 19.77 4.66
-19 -7 -9 21.67 3.89
-9 -19 -7 18.63 3.31
-7 9 19 23.03 3.61
9 -19 7 23.6 5.4
7 9 -19 29.63 4.51
19 -7 9 26.68 2.64
19 7 -9 25.53 3.35
-7 -19 9 19.41 4.48
9 7 19 19.28 3.88
9 7 -19 18.47 4.14
7 -9 -19 14.6 4.15
-9 7 19 22.8 3.63
9 -19 -7 16.64 3.5
-7 -19 -9 27.82 3.71
-7 -9 19 21.62 5.12
-9 19 -7 23.31 3.32
7 19 -9 23.63 3.4
9 -19 -7 21.31 3.5
9 -7 19 29.77 5.44
-9 -19 7 26.92 4.6
-7 -19 -9 19.74 3.53
-19 -9 -7 29.37 3.56
-19 -7 9 19.07 5.11
-19 -9 -7 23.38 3.76
19 9 -7 21.68 3.09
-9 -7 -19 19.62 4.54
7 -19 9 31.37 5.09
7 9 19 16.84 3.16
-7 9 -19 22.31 4.78
9 -19 -9 37.9 4.99
9 -9 -19 43.42 6.48
9 9 -19 32.94 5.22
-9 9 -19 29.75 5.05
-19 -9 -9 34.66 4.84
-19 -9 9 38.25 5.98
-9 -19 -9 32.85 4.41
-9 -19 -9 34.35 4.75
-9 -19 9 39.05 5.77
-9 -9 -19 30.39 5.55
-9 -9 19 23.78 5.5
19 9 -9 39.07 4.43
-9 9 19 33.39 4.64
-9 19 -9 32.95 4.29
9 -19 -9 36.53 4.35
9 19 -9 33.36 4.31
9 -19 9 34.41 5.9
-19 -9 -9 37.13 4.36
9 -9 19 31.64 5.3
9 9 19 39.49 4.67
-11 -19 -1 -1 0.96
11 19 -1 -0.67 0.51
11 -1 -19 -1.29 1.21
19 1 -11 0.53 0.77
-19 -11 1 0.07 1.15
-19 -11 1 -0.16 0.94
-19 -1 -11 2.3 0.89
-1 19 -11 0.13 0.9
-11 -1 19 -2.26 1.04
-19 -1 -11 -1.25 1.56
-1 -11 -19 4.88 2
1 -11 19 -0.21 1.67
-1 -19 11 -2.08 1.87
-11 1 -19 0.35 1.54
-1 11 19 -1.02 0.79
11 1 19 -1.46 1.01
11 -19 1 -0.44 1.35
1 11 -19 0.56 1.16
1 -19 -11 -0.85 0.65
1 -19 -11 -1.21 0.62
-1 -11 19 -0.46 1.78
19 -1 -11 0.63 0.88
-11 -19 1 0.76 1.46
11 -19 -1 -0.22 0.94
1 -19 11 -2.2 1.63
11 1 -19 2.86 1.9
1 -11 -19 2.26 1.97
-1 -19 -11 -0.14 0.73
-19 -11 -1 0.54 1.12
1 11 19 -1.93 0.81
11 -19 -1 -0.54 1.07
-19 -11 -1 -2.09 0.94
-11 1 19 -0.41 1.21
-1 -19 -11 0.04 0.89
1 19 -11 -0.66 0.85
3 11 -19 37.16 5.39
11 3 19 33.52 4.52
3 -19 -11 31.69 4.75
11 -19 3 49.3 6.03
11 19 -3 33.22 4.12
-3 11 19 29.06 4.24
19 3 -11 35.53 4.28
-11 3 -19 48.52 6.02
-19 -3 -11 29.62 3.85
-11 -3 19 42.76 6.72
3 -11 19 31.19 5.5
-11 -19 -3 39.08 5.03
-3 -11 -19 40.67 5.76
3 -19 -11 33.73 4.36
-3 -19 11 35.33 5.83
-19 -3 -11 56.36 7.01
-11 -19 -3 36.14 4.49
-19 -11 3 36.59 5.44
-3 19 -11 35.65 4.65
11 -3 -19 45.82 6.18
-19 -3 11 38.08 5.08
19 -3 -11 36.03 4.15
-11 3 19 24.11 4.45
3 11 19 30.25 4.41
-3 -19 -11 43.75 5.04
-3 11 -19 31.97 5.32
-11 -19 3 31.28 5.02
-11 19 -3 34.1 4.16
19 11 -3 34.19 4.03
3 19 -11 36.04 4.72
3 -19 11 34.48 5.69
11 -3 19 36.33 4.88
-19 -11 -3 37.28 4.52
11 -19 -3 31.95 4.75
-11 -3 -19 33.92 5.82
3 -11 -19 41.46 5.89
-19 -11 -3 38.22 4.78
-3 -11 19 44.97 6.28
11 -19 -3 45.45 4.94
-3 -19 -11 34.34 4.42
5 11 -19 22.09 4.01
-11 -19 -5 22.18 3.71
-5 19 -11 16.73 3.61
5 -11 19 23.13 4.94
5 -19 -11 26.24 3.89
-11 -5 19 30.58 5.68
-11 -19 -5 22.47 3.4
5 -19 -11 23.61 3.39
-5 -19 11 22.38 5.02
11 5 19 13 3.17
-19 -5 -11 13.4 3.9
-5 11 19 26.37 3.61
-5 -11 -19 23.76 4.97
-19 -11 5 29.16 4.54
11 -5 -19 23.79 5.08
11 -19 5 22.35 4.84
-11 5 -19 16.7 4.22
19 5 -11 20.11 3.24
19 -5 11 26.6 3.03
11 19 -5 23.83 3.12
5 -19 11 11.98 3.9
-5 -11 19 29.54 5.72
-11 19 -5 17.63 2.93
-19 -11 -5 26.06 3.48
5 -11 -19 17.86 4.38
19 -5 -11 19.59 3.27
11 -19 -5 21.48 3.53
5 11 19 17.06 3.49
-5 -19 -11 21.71 3.47
-11 5 19 23.42 3.59
-11 -5 -19 15 4.12
-11 -19 5 26 5.2
19 11 -5 28.56 3.29
-5 11 -19 20.34 4.67
-5 -19 -11 20.7 3.3
5 19 -11 24.87 3.47
11 5 -19 25.78 4.42
11 -19 -5 17.72 3.35
-19 -11 -5 20.4 3.39
11 -5 19 18.82 4.11
-11 -19 -7 -0.81 1.08
-7 -19 11 -0.51 1.4
-19 -11 7 1.54 2.08
-11 7 -19 0.35 1.09
-7 -11 -19 -0.68 1.33
7 -19 -11 -0.08 1.17
11 19 -7 0.33 0.79
-7 19 -11 2.21 1.21
7 -19 -11 0.4 0.77
11 7 19 0.88 1.23
-11 -19 -7 -0.67 1.12
11 -19 7 -0.87 1.68
7 11 -19 0.6 0.98
-11 -7 19 -1.64 1.31
19 7 -11 -0.91 0.89
7 -11 19 -1.93 1.11
-7 -19 -11 -1.51 0.7
11 7 -19 2.1 1.85
-19 -7 11 -1.23 1.67
-19 -11 -7 -2.36 0.91
-11 -19 7 1.4 1.38
19 11 -7 0.49 0.79
-11 19 -7 0.94 0.87
-7 -11 19 2.33 2.14
-7 11 -19 2.73 1.97
7 -11 -19 2.19 1.93
11 -19 -7 -0.15 0.93
-11 7 19 -0.34 1.03
-7 -19 -11 -0.8 0.73
-19 -11 -7 -1.7 0.73
7 11 19 1.02 1.32
11 -19 -7 -0.12 1.17
7 -19 11 1.82 1.65
11 -7 19 1.08 1.54
-11 9 -19 4.06 2.28
9 -11 19 0.15 2.24
-9 -11 -19 0.09 1.45
9 -19 -11 -0.95 0.88
-9 -19 11 0.14 1.4
-11 -19 -9 0.58 1.29
9 11 -19 0.45 1.36
-9 11 19 0.64 1.04
-11 -9 19 3.81 2.51
11 -9 -19 0.87 2.13
11 -19 9 -0.96 1.93
19 9 -11 -0.24 1.44
-19 -9 -11 -0.41 3.28
11 9 19 2.36 1.52
-9 19 -11 -1.77 0.93
-11 -19 -9 2.16 1.34
9 -19 -11 2.08 1.61
19 11 -9 4.05 1.55
-19 -9 11 2.07 2.1
-9 -11 19 0.25 2.43
11 9 -19 2.13 1.7
-11 -9 -19 1.65 1.87
-11 -19 9 1.93 1.46
-11 19 -9 3.1 1.27
-9 -19 -11 1.35 1.29
-9 -19 -11 3.34 1.66
-9 11 -19 1.68 1.72
9 -19 11 0.57 1.87
-11 9 19 0.85 1.37
11 -9 19 -0.73 1.48
-19 -11 -9 2.47 1.33
-19 -11 -9 0.16 1.43
11 -19 -9 0.82 1.56
9 11 19 1.82 1.47
9 -11 -19 -0.11 1.96
11 -19 -9 0.35 1.19
-11 -19 -11 5.03 2.06
-11 11 -19 3.62 1.77
-11 -19 -11 3.82 1.69
11 11 -19 4.4 2.22
-19 -11 11 -1.66 2.13
-11 -19 11 9.29 2.54
19 11 -11 3.76 1.72
-11 -11 19 1.57 2.96
-11 11 19 4.69 1.94
11 -19 11 10.31 3.62
11 -11 -19 5.4 3.21
11 -11 19 5.16 2.46
-11 -11 -19 0.84 1.88
11 19 -11 6.66 2.1
1 -19 -13 0.38 1.28
13 -1 -19 1.63 2.22
1 -19 -13 1.28 0.99
-13 -19 -1 -0.28 1.03
-19 -13 1 1.41 1.42
-13 -19 -1 0.37 1.5
13 -19 1 0.9 1.07
1 13 -19 3.23 1.41
-1 13 19 1.03 1.25
19 -1 13 2.82 1.37
19 1 -13 3.2 1.52
13 1 19 2.82 1.55
-13 -1 19 1.64 1.56
-13 1 -19 1.34 2.05
-19 1 13 1.41 1.29
13 -19 1 3.33 1.63
1 -13 19 5.09 2.91
-1 19 -13 2.19 1.44
-19 -13 1 1.99 1.34
13 19 -1 2.89 1.41
1 13 19 0.28 1.24
13 -19 -1 1.51 1.51
13 -19 -1 3.16 1.41
-1 13 -19 2.49 1.37
1 19 -13 3.85 1.65
13 1 -19 0.19 1.65
-19 -1 13 2.39 1.45
1 -13 -19 2.56 1.88
-13 -1 -19 6.52 2.2
-13 1 19 -1.63 1.05
19 -1 -13 1.51 1.22
-1 -19 -13 3.43 1.58
-19 -13 -1 1.3 0.97
-13 -19 1 3.96 1.92
-1 -13 19 1.51 1.89
1 -19 13 1.62 2.31
-19 -13 -1 3.67 1.66
-1 -19 -13 1.63 0.98
13 -1 19 0.89 1.59
-19 -3 -13 33.54 5.21
-19 -3 -13 43.9 6.5
-13 -3 19 52.6 6.09
3 13 -19 36.92 5.88
-13 -19 -3 46.88 5.75
-13 -19 -3 40.84 5.14
3 -19 -13 41.2 4.97
13 -19 3 40.25 6.1
19 3 -13 41.64 5.29
-19 -13 3 40.47 6.01
3 -13 19 33.4 6.05
13 -3 -19 49.7 6.86
-13 3 -19 46.32 6.76
13 3 19 39.3 5.29
-3 13 19 42.64 5.21
-3 -13 -19 25.63 6.91
3 -19 -13 45.26 5.89
-3 -19 13 43.07 6.57
-3 19 -13 53.44 5.76
13 19 -3 53.84 5.3
-19 -13 -3 41.29 5.36
-13 3 19 38.8 5.58
-3 13 -19 41 5.76
3 -19 13 58.28 7.48
-3 -19 -13 51.47 5.28
3 13 19 41.81 5.25
19 13 -3 51.87 5.06
3 19 -13 45.73 5.62
-19 -13 -3 45.68 5.78
-13 -19 3 42.39 6
-13 19 -3 50.77 4.9
3 -13 -19 51.35 6.63
-13 -3 -19 41.14 6.55
13 -3 19 48.14 5.79
-3 -13 19 48.95 7.09
13 3 -19 43.98 6.3
13 -19 -3 49.02 5.62
13 -19 -3 53.83 5.64
-13 5 -19 30.02 5.23
13 -19 5 28.76 5.25
-13 -19 -5 27.82 4.25
-5 19 -13 37.98 4.58
-5 -13 -19 22.52 5
-5 13 19 33.67 4.38
-19 -5 -13 39.99 4.22
-13 -5 19 28.47 5.69
13 5 19 31.98 4.37
-13 -19 -5 38.24 4.8
-19 -13 5 31.74 5.22
-5 -19 13 36.01 5.76
13 19 -5 31.1 4.01
19 5 -13 33.15 4.45
13 -5 -19 39.19 6.17
5 -13 19 22.05 5.44
-19 -5 -13 32.57 5.48
13 -19 -5 26.17 4.17
-13 19 -5 34.19 4.06
19 13 -5 36.95 4.22
5 -19 13 32.93 5.83
13 -19 -5 30.11 4.48
13 -5 19 31.55 5.02
13 5 -19 27.39 5.1
-19 -13 -5 36.99 4.69
-5 13 -19 24.08 4.44
-5 -13 19 32.88 5.58
-5 -19 -13 33.22 4.82
5 -13 -19 34.14 5.7
-13 -19 5 28.5 5.23
5 13 19 32.28 4.26
-19 -13 -5 42.11 4.99
-5 -19 -13 30.18 4.06
-13 5 19 29.94 4.29
-13 -5 -19 40.54 5.72
-7 -13 -19 3.39 1.79
13 19 -7 1.57 1.08
-19 -7 -13 -0.61 1.54
-19 -13 7 2.4 1.79
-13 -7 19 1.81 2.36
13 -7 -19 2.84 2.15
-19 -7 -13 -0.28 0.91
-7 -19 13 3.99 2.24
7 -19 -13 -0.25 1.23
-7 19 -13 0.29 1.06
-13 -19 -7 -0.92 1.25
-7 13 19 2.41 1.34
19 7 -13 1.15 1.5
13 -19 7 -2.75 1.48
-13 7 -19 2.03 1.53
-13 -19 -7 2.44 1.65
13 7 19 -0.08 1.15
13 -19 -7 -0.13 1.06
-7 -19 -13 0.6 1.24
-19 -7 13 0.79 1.99
-13 7 19 3.2 1.67
7 -19 13 2.68 2.49
-7 -19 -13 1.58 1.29
19 13 -7 -0.06 0.86
-13 -19 7 0.01 2.11
7 -13 -19 1.75 2.05
-7 -13 19 0.98 2.29
-7 13 -19 3.34 1.91
-13 -7 -19 1.22 1.91
13 -7 19 -0.29 1.62
-9 -13 -19 -2.1 1.18
-9 13 19 0.4 1.17
-19 -9 -13 -0.13 0.91
13 9 19 1.17 1.33
13 -19 9 3.87 2.66
13 19 -9 -0.58 0.89
9 -19 -13 1.1 1.08
9 -13 19 0.5 1.67
13 -9 -19 -0.37 2.12
-13 9 -19 0.87 1.93
-13 -19 -9 -0.16 1.03
9 13 -19 2.73 1.57
-9 -19 13 -2.54 1.99
-13 -9 19 6 2.44
9 -19 -13 -3.1 1.14
-13 -19 -9 0.99 1.26
13 9 -19 5.62 1.42
-13 -19 9 -1.39 2.12
13 -19 -9 2.34 1.51
-13 19 -9 1.57 1.13
-19 -13 -9 1.69 1.46
-9 -19 -13 -1.18 1.07
13 -19 -9 0.56 1.19
13 -9 19 -2.83 1.53
-13 -9 -19 1.16 2.22
-19 -9 13 -2.76 1.97
9 -13 -19 -0.97 1.82
-9 -13 19 -1 1.8
-9 -19 -13 0.24 1.04
9 -19 13 -0.4 1.92
-11 -13 -19 24.95 4.31
-13 -19 -11 21.15 4.97
11 -19 -13 17.14 4.53
13 -11 -19 13.17 4.34
-13 -19 -11 23.18 3.22
11 -13 19 14.54 4.26
-19 -13 11 14.29 4.36
-11 -13 -19 20.25 3.08
19 11 -13 18.91 3.91
13 19 -11 18.75 3.79
-11 13 19 15.19 3.48
-19 -11 -13 19.55 3.22
-13 -11 19 17.15 4.8
11 13 -19 16.93 3.88
-11 -19 13 10.27 4.03
11 -19 -13 15.06 3.27
-13 -11 -19 15.86 2.76
-11 -13 19 13.88 4.16
11 -19 13 2.74 4.91
11 19 -13 24.71 3.54
-13 -11 -19 13.54 3.63
-11 -19 -13 16.82 3.89
-13 -19 11 13.07 4.37
19 13 -11 16.4 3.37
-19 -13 -11 15.81 3.4
-11 -19 -13 16.72 3.51
-13 11 19 16.87 3.6
-19 -11 13 12.3 4.82
13 11 -19 12.83 3.47
-13 -13 19 25.81 5.94
-13 -19 13 9.98 4.92
-13 -13 -19 26.21 3.92
13 -13 19 28.32 5.69
-13 -19 -13 22.52 3.98
-19 -13 -13 22.24 4.23
-15 -19 -1 4.56 1.94
15 1 19 0.78 1.25
15 -1 -19 5.79 2.98
-15 -19 -1 8.66 3
-15 -1 19 5.27 2.39
-15 1 -19 3.96 2.63
-19 -15 1 3.12 2.5
-19 -1 -15 7.53 3.62
-19 -15 1 4.17 1.83
-1 -19 15 1.97 2.68
1 15 -19 5.06 2.08
1 -19 -15 3.35 1.49
-1 19 -15 4.4 1.75
1 -15 19 3.73 2.7
19 -1 15 2.36 1.34
-15 -19 1 6.08 2.18
19 1 15 2.34 1.4
-19 -15 -1 8.03 2.28
1 19 -15 3.94 1.7
15 -1 19 1 1.2
-1 -19 -15 2.92 1.39
-1 -19 -15 7.5 2.98
15 1 -19 7.56 2.76
1 -19 15 2.97 2.76
-1 15 -19 6.35 2.15
-15 -1 -19 -0.79 2.01
-1 -15 19 2.8 2.27
-19 -15 -1 0.9 1.82
-15 1 19 2.59 1.86
-3 -19 15 3.72 2.16
-15 -19 -3 8.68 2.13
-15 -3 19 4.55 2.59
19 3 -15 7.91 2.62
3 -15 19 -2.49 2.03
15 3 19 3.39 1.83
-3 19 -15 7.69 2.35
3 -19 -15 3.18 1.6
-15 -19 -3 5.52 2.62
3 15 -19 6.9 2.62
15 19 -3 4.94 1.84
-15 3 -19 4.2 2.46
3 -19 -15 5.29 2.05
-19 -15 3 3.25 1.81
3 19 -15 6.83 2.29
-19 -15 -3 5.3 2.67
19 15 -3 4.93 1.66
15 3 -19 4.48 2.27
-15 -19 3 7.86 2.69
-3 -15 19 0.74 2.58
-19 -15 -3 1.21 1.29
15 -3 19 3.73 2.01
-3 15 -19 4.37 2.05
3 -15 -19 3.3 2.37
-15 3 19 4.7 3.15
3 -19 15 0.15 2.23
-3 -19 -15 3.3 1.94
-15 -3 -19 5.91 2.6
-3 -19 -15 6.56 1.77
-5 19 -15 3.03 1.89
-5 -15 -19 2.37 1.95
5 -15 19 -2.41 2.29
-5 -19 15 4.36 3.04
15 -5 -19 0.56 2.33
-19 -15 5 0.91 2.41
-15 -19 -5 0.46 1.35
-5 -15 -19 1.46 1.22
5 -19 -15 3.34 2.05
19 5 -15 2.21 1.51
5 -19 -15 2.4 1.38
-19 -5 -15 3.95 1.86
-15 -19 -5 2.15 1.57
15 5 19 1.67 1.65
15 19 -5 1.52 1.29
-15 -5 19 9.48 2.6
-15 5 19 3.16 1.57
-5 -15 19 1.44 2.95
-15 -19 5 2.35 2.19
5 -15 -19 1.9 2.35
-19 -5 15 3.92 2.37
-19 -15 -5 -0.78 1.23
-5 15 -19 4 1.8
-15 -5 -19 2.61 2.18
15 5 -19 3.23 1.78
5 -19 15 -1.64 2.33
-19 -15 -5 0.15 1.31
-5 -19 -15 2.93 1.25
19 15 -5 1.75 1.11
7 -15 19 3.02 3.02
-7 -19 15 7.54 3.39
-15 -19 -7 -0.68 1.34
-7 -15 -19 -0.14 1.5
19 7 -15 0.52 1.22
-15 -7 19 -3.9 1.73
-19 -7 -15 0.67 1.34
15 19 -7 4.25 1.62
7 -19 -15 1.14 1.27
7 -19 -15 0.43 1.99
15 -7 -19 4.49 2.36
-15 7 -19 -1.43 2.03
-7 -15 -19 2.15 1.41
15 7 19 3.66 1.74
-15 -19 7 -1.26 1.88
7 -15 -19 0.1 2.19
15 -7 19 1.46 2.11
15 7 -19 3.73 2.1
7 -19 15 -2.44 2.38
-19 -15 -7 0.05 1.37
-15 -7 -19 3.13 2.15
19 15 -7 1.24 0.99
-7 -19 -15 1.94 1.94
-7 -19 -15 1.74 1.26
-7 -15 19 -2.26 2.17
-15 -9 19 6.24 3.43
-9 -15 -19 5.77 2.15
15 19 -9 5.96 1.96
19 9 -15 5.51 2.56
9 -15 19 8.55 3.53
-19 -9 -15 2.96 1.57
9 -19 -15 7.8 2.12
-15 -19 -9 6.53 2.5
-19 -15 9 9.79 2.95
-9 -19 15 9.22 3.96
-9 -15 19 6 3.94
9 -15 -19 4.22 3.14
15 9 -19 3.53 2.24
-9 -19 -15 5.41 2.3
9 -19 15 6.81 3.53
15 -9 19 9.72 3.4
-19 -9 15 10.72 4.09
9 -15 -19 8.24 1.83
-15 -19 9 14.59 3.79
-15 -11 19 0.44 2.98
11 -19 -15 3.85 1.53
-19 -15 11 0.83 3.21
-15 -19 -11 1.41 1.81
15 11 -19 -0.92 1.53
11 -15 -19 -0.82 1.85
-15 -19 11 4.84 2.87
11 -19 15 4.02 2.97
-19 -15 -11 1.22 1.74
-15 -11 -19 1.72 1.41
11 -15 -19 0.74 1.15
-15 -13 19 -0.9 3.82
-19 -15 -13 7.46 2.35
-1 19 -17 28.96 4.1
17 1 19 15.64 3.67
-1 -19 17 30.84 6.33
17 -1 -19 12.3 5.23
1 -19 -17 29.82 3.89
-17 -19 -1 25.78 5.15
-1 -17 -19 27.6 3.81
-19 -17 1 38.35 5.69
-1 -17 19 17.37 5.28
-17 -19 1 26.06 5.27
17 1 -19 30.72 5.41
1 -17 -19 28.85 3.74
1 -19 17 18.7 5.19
-1 -19 -17 31.55 3.84
-19 -17 -1 23.02 4.8
-1 17 -19 26.22 4.44
3 -19 -17 0.66 1.5
-3 -17 -19 0.11 1.13
3 -17 19 2.93 2.66
17 3 19 1.7 1.53
3 -19 -17 -2.77 1.39
-3 -19 17 -2.24 1.89
-3 19 -17 -1.47 0.97
17 19 -3 3.46 1.38
-17 -3 19 1.34 2.27
-17 -19 -3 1.59 1.86
3 -17 -19 0.94 1.45
-17 -19 3 0.55 2.15
3 -19 17 0.48 3.04
-3 -17 19 1.77 3.21
3 -17 -19 4.69 2.28
-3 17 -19 2.29 1.38
-3 -19 -17 0.36 1.26
17 3 -19 5.35 2.5
17 -3 19 1 2.15
17 5 19 0.38 1.3
5 -17 19 -6.17 3.06
5 -19 -17 -0.27 1.26
-17 -19 -5 3.16 2.1
17 19 -5 0.45 0.95
-5 -17 -19 -0.09 1.42
-17 -5 19 -0.95 1.92
-5 -19 -17 -0.07 1.17
5 -19 17 -5.56 2.47
5 -17 -19 1.63 1.41
5 -17 -19 4.46 2.02
-17 -19 5 -2.31 2.01
-5 -17 19 -6.85 2.84
-19 -17 7 12.93 3.76
-17 -7 19 7.66 3.8
7 -17 19 6.28 4
7 -19 -17 21.87 5.48
-17 -19 -7 13.7 3.41
17 19 -7 18.01 2.7
19 17 -7 8.64 2.03
7 -17 -19 7.96 2.56
7 -17 -19 11.68 3.7
7 -19 17 11.94 4.11
-17 -19 7 13.13 3.95
-17 -19 -9 27.27 5.05
17 19 -9 22.09 3.9
9 -17 19 12.15 4.43
9 -19 -17 30.65 5.12
-19 -17 9 32.41 6.93
9 -19 17 20 5.65
-19 -17 -9 30.07 4.27
9 -17 -19 20.74 3.72
-17 -9 -19 28.95 3.63
-17 -19 9 22.59 5.77
19 17 -9 23.62 3.55
-19 -19 3 7.26 2.31
-19 -19 -3 17.59 4.98
-19 -19 5 -2.36 2.61
-19 -19 -5 10.35 3.22
0 0 -20 64.83 7.82
0 -20 0 64.3 6.97
0 20 0 64.01 6.25
0 0 20 54.39 6.77
0 -20 -2 1.9 1.33
0 -20 2 -0.37 1.22
0 20 -2 0.75 0.78
-2 0 20 -0.48 0.98
-2 0 -20 0.47 1.59
2 0 -20 0.71 1.74
2 0 20 0.18 1.18
0 -2 20 0.06 1.4
-2 -20 0 -0.39 1
-2 20 0 0.31 0.75
0 -2 -20 0.27 1.92
2 20 0 -0.69 0.55
0 2 -20 0.16 1.39
0 2 20 -0.37 1.14
2 -20 0 1.66 1.27
-2 -20 2 8.53 2.67
2 2 20 14.66 3.35
2 20 -2 10.75 2.43
-2 -2 -20 10.58 3.37
2 2 -20 14.43 3.89
-2 -20 -2 14.37 3.02
-2 20 -2 14.35 2.36
2 -20 -2 12.74 2.84
2 -2 -20 14.38 4.15
2 -2 20 10.67 3.16
-2 -2 20 14.13 3.38
-2 2 -20 14.04 3.89
-2 2 20 11.03 3.25
2 -20 2 13.29 3.2
4 20 0 10.4 2.36
4 0 -20 13.14 3.64
0 -4 20 12.73 3.31
-4 -20 0 9.74 2.64
-4 20 0 9.45 2.31
0 20 -4 11.21 2.37
0 4 -20 3.21 2.2
0 4 20 16.05 3.37
4 -20 0 10.18 2.66
0 -4 -20 11.6 3.66
-20 -4 0 12.75 1.89
-4 0 20 8.2 2.79
0 -20 -4 9.52 2.62
0 -20 -4 9.9 2.38
0 -20 4 14.03 3.44
4 0 20 13.27 3.02
-2 -4 -20 39.71 6.41
-4 -20 -2 47.29 5.63
2 -4 20 48.87 6.31
-4 -2 20 46.75 6.25
-4 2 -20 55.5 7.12
-2 4 20 50.66 5.87
4 20 -2 46.04 5.04
4 -20 2 41.27 5.74
-2 -20 4 53.23 6.38
-2 20 -4 41.21 4.93
2 -20 -4 51.08 5.71
2 -20 -4 54.84 5.54
4 -2 -20 66.37 7.49
-20 -2 -4 42.8 4.54
-20 -4 2 48.86 4.47
4 2 20 57.76 6.16
2 4 -20 47.18 6.45
-4 -20 2 45.79 5.88
2 -4 -20 45.54 6.6
-4 2 20 38.05 5.45
2 -20 4 48.12 6.17
2 20 -4 52.21 5.26
-20 -2 4 50.42 4.03
-2 4 -20 44.25 6.65
-4 20 -2 42.07 4.95
-4 -2 -20 50.51 6.92
-2 -4 20 43.86 6.12
2 4 20 51.73 5.8
4 -20 -2 41.19 5.35
-2 -20 -4 48.62 5.62
-2 -20 -4 48.62 5.3
4 -2 20 45.21 6.15
4 -20 -2 51.91 5.53
4 4 20 116.57 10.18
4 4 -20 99.86 10.95
-20 -4 -4 102.11 9.03
-20 -4 4 99.18 9.39
-4 -20 4 93.02 10.29
-4 -4 -20 101.86 11.13
-4 -4 20 98.14 10.53
-4 4 -20 112.18 11.33
-4 4 20 96.43 9.93
-4 20 -4 110.69 9.42
4 -20 -4 103.03 9.8
4 -20 -4 119.47 9.94
4 -20 4 92.29 10.28
4 -4 -20 113.21 11.44
4 -4 20 85.94 10.11
-20 -4 4 116.19 8.75
-4 -20 -4 110.81 10.1
-4 -20 -4 97.6 9.46
4 20 -4 104.91 9.38
6 0 -20 3.25 2.19
0 -6 -20 2.29 2.28
0 -6 20 3.61 2.27
0 6 -20 5.72 2.58
6 0 20 2.09 1.65
6 -20 0 4.82 1.88
6 20 0 2.92 1.16
-6 0 20 4.24 2.12
0 -20 -6 3.92 1.78
0 -20 -6 2.96 1.47
0 -20 6 3.67 1.95
0 20 -6 3.17 1.53
0 6 20 4.27 1.73
-6 0 -20 3.69 2.28
-6 20 0 2.66 1.24
-6 -20 0 4.03 1.76
-20 -6 2 6.97 1.94
-2 -20 6 7.68 2.74
-2 20 -6 7.75 2.07
6 2 20 10.65 2.6
20 2 -6 8.25 1.2
-6 -20 -2 8.94 2.58
2 -6 20 3.59 2.42
6 -2 -20 9.95 3.42
-2 6 20 4.44 1.82
-2 -6 -20 9.47 3.19
6 -20 2 9.3 2.83
6 20 -2 8.01 2.02
-6 -2 20 8.03 2.7
2 -20 -6 9.21 2.44
2 -20 -6 5.17 2.01
-20 -6 2 6.98 3.22
-20 -2 -6 4.4 1.59
2 6 -20 8.14 3.05
-6 2 -20 2.12 2.13
6 -2 20 4 2.14
-6 2 20 9.93 2.75
-2 -20 -6 8.84 2.36
-2 -20 -6 8.34 2.18
-6 20 -2 7 1.85
6 -20 -2 6.84 2.25
6 -20 -2 6.29 2.27
2 -6 -20 5.69 2.74
2 6 20 10.18 2.71
-6 -2 -20 13.52 3.91
-6 -20 2 5.09 2.04
6 2 -20 11.31 3.41
2 -20 6 7.54 2.53
-2 -6 20 5.37 2.67
-2 6 -20 8.77 3
-20 -6 -2 10.75 3.25
2 20 -6 7.95 2.19
-20 -4 -6 51.5 5.14
-4 6 20 49.19 5.7
4 -20 -6 55.93 5.93
4 -6 20 42.24 6.16
4 6 -20 50.2 6.79
6 -4 -20 53.13 6.98
6 -20 4 43.65 6.45
-6 -20 -4 51.25 5.91
-6 -20 -4 46.18 5.48
-6 4 -20 56.22 7.2
6 4 20 44.74 5.68
-20 -4 -6 49.67 5.6
6 20 -4 46.6 5.24
20 4 -6 54.23 4.76
-4 -6 -20 44.38 6.7
-20 -6 4 39.89 5.66
-4 -20 6 52.26 6.55
-6 -4 20 53.78 6.75
4 -20 -6 55.09 5.79
-4 20 -6 61.83 5.8
4 -6 -20 45.07 6.73
-4 -20 -6 46.86 5.55
6 -4 20 52.77 6.3
6 4 -20 53.35 7
-4 6 -20 50.3 6.95
-20 -6 -4 66.15 6.47
-4 -20 -6 56.19 5.89
-20 -4 6 54.98 5.82
4 -20 6 49.5 6.47
4 20 -6 50.46 5.49
-6 4 20 41.64 5.73
4 6 20 42.1 5.54
6 -20 -4 45.54 7.1
-6 -4 -20 53.59 6.91
-6 -20 4 50.45 6.45
-6 20 -4 46.08 5.16
-20 -6 -4 51.21 5.55
-4 -6 20 51 6.84
-20 -6 -6 11.69 2.38
-20 -6 -6 7.63 2.36
-20 -6 6 10.16 3.1
-6 6 20 18.08 3.13
6 20 -6 15.19 2.44
-6 -20 -6 9.42 2.62
-6 -20 -6 9.67 2.48
-6 -20 6 7.09 2.7
6 6 -20 8.93 3.09
6 6 20 7.78 2.46
20 6 -6 11.01 1.86
6 -20 -6 10.15 2.5
6 -6 -20 5.09 3.12
6 -6 20 6.4 2.66
-6 6 -20 16.45 4.05
-6 20 -6 11.42 2.55
-6 -6 -20 11.04 3.61
-6 -6 20 13.02 3.51
6 -20 -6 12.04 2.82
20 0 -8 10.29 1.46
8 -20 0 6.15 2.3
8 20 0 12.14 2.13
0 -8 -20 12.65 3.87
0 -8 20 10.69 3.32
0 8 -20 15.25 3.86
0 8 20 13.89 3.22
-8 0 20 11.04 3.26
0 -20 -8 11.18 2.52
8 0 -20 7.73 2.91
0 -20 -8 11.62 2.59
0 -20 8 19.19 4.3
-8 0 -20 8.78 3.32
-8 -20 0 12 3.14
8 0 20 10.03 3.02
0 20 -8 12.18 2.63
-8 -2 20 -3.03 1.4
2 -8 20 -0.1 1.75
-2 20 -8 -0.4 0.83
-8 -20 -2 0.55 1.33
8 2 20 -0.05 1.01
8 -20 2 -0.6 1.5
-2 -20 8 1.47 1.67
-8 2 -20 1.18 1.57
-2 8 20 -0.56 0.95
2 -20 -8 0.15 0.83
8 -2 -20 -0.23 1.71
-20 -8 2 -0.15 1.03
2 -20 -8 -0.37 0.89
-20 -2 -8 1.13 1.5
2 8 -20 -1.55 1.09
20 2 -8 0.32 0.61
8 20 -2 -0.63 0.6
8 -20 -2 -1.02 1.02
2 20 -8 -0.4 0.47
8 2 -20 -0.46 1.44
-2 -20 -8 -0.25 0.58
-2 -20 -8 2.03 1.21
-2 8 -20 0.23 1.27
-8 20 -2 -1.02 0.55
2 -8 -20 -0.85 1.59
-8 -20 2 0.46 1.38
-8 -2 -20 -0.27 1.62
-8 2 20 0.38 1.34
8 -20 -2 0.07 0.71
-20 -2 8 -0.24 0.94
2 8 20 1.62 1.33
8 -2 20 1.96 1.61
-2 -8 20 3.71 2.38
-4 -8 -20 10.52 3.43
-4 -20 8 11.44 3.71
-20 -8 4 7.53 2.65
-8 -20 -4 14.57 2.53
-4 8 20 11.59 2.85
4 -20 -8 13.24 3
-8 4 -20 11.79 3.67
-8 -20 -4 9.63 2.7
8 -4 -20 14.86 4.07
4 -20 -8 12.08 2.63
8 -20 4 13.67 3.66
8 4 20 11.43 2.85
8 20 -4 15.43 2.48
20 4 -8 12.05 2.07
-4 20 -8 15.17 2.9
4 -8 20 11.18 3.59
-20 -4 -8 7.03 1.85
4 8 -20 15.51 3.81
-8 -4 20 15.42 3.86
-20 -4 8 11.85 2.69
-8 -4 -20 16.43 4.42
-20 -8 -4 12.28 2.77
-8 -20 4 6.88 2.76
-4 8 -20 11.52 3.43
-8 4 20 10.68 2.96
8 -20 -4 13.85 2.96
4 -20 8 7.67 3.01
4 20 -8 12.19 2.58
-4 -20 -8 12.31 2.76
4 8 20 12.57 2.91
4 -8 -20 10.95 3.41
-4 -20 -8 12.41 2.71
8 -20 -4 16.9 3.32
-8 20 -4 13.54 2.4
8 -4 20 9.03 3.02
-4 -8 20 14.69 3.95
8 4 -20 11.47 3.39
6 -8 20 0.6 1.57
-8 -6 20 1.92 1.98
-6 8 20 1 1.19
8 20 -6 1.82 1.05
-6 -8 -20 0.48 1.41
8 -20 6 0.79 1.68
-8 -20 -6 1.3 0.85
-20 -6 -8 1.23 0.76
-8 -20 -6 0.9 1.26
8 -6 -20 0.57 1.85
-8 6 -20 -2.78 1.4
6 -20 -8 0.8 1.16
8 6 20 0.69 1
6 -20 -8 0.7 1.09
-6 20 -8 0.58 0.97
-20 -8 6 1.41 1.73
20 6 -8 0.53 0.74
-6 -20 8 -0.19 1.74
-6 8 -20 3.35 1.96
8 6 -20 -1.45 1.05
8 -20 -6 0.09 1.35
-20 -6 8 1.09 1.65
-8 -6 -20 -0.33 1.56
6 8 20 0.12 1.05
6 20 -8 2.4 1.19
-8 -20 6 1.08 1.76
6 -20 8 1.84 1.81
6 -8 -20 -1.72 1.65
8 -6 20 -2.87 0.98
-6 -20 -8 2.84 1.31
-6 -20 -8 0.78 1.23
-8 6 20 -1.98 0.85
8 -20 -6 -0.46 0.92
-6 -8 20 2.32 2.21
-8 20 -6 0.44 0.86
20 8 -6 0.84 0.75
8 -20 -8 11.39 2.95
8 -20 8 10.59 3.98
-8 20 -8 11.21 2.63
8 8 -20 12.75 3.38
8 8 20 16.45 3.29
8 -20 -8 12.59 2.89
-20 -8 -8 5.63 2.44
-8 -20 -8 11.11 2.73
-8 -20 -8 13.64 3.11
-8 8 -20 12.64 3.62
20 8 -8 9.8 2.23
-8 -8 -20 14.93 3.91
8 -8 20 24.47 4.99
-8 8 20 15.6 3.18
-8 -8 20 18.9 4.42
-8 -20 8 9.07 3.13
0 -20 -10 1.06 1.08
0 -20 -10 2.85 1.33
-10 0 -20 1.32 1.78
0 10 20 1.22 1.39
-10 -20 0 -0.14 1.19
0 -10 -20 3.96 1.91
0 -10 20 0.72 1.42
10 0 20 2.37 1.64
0 10 -20 0.57 1.43
0 20 -10 1.88 1.2
10 20 0 1.78 0.84
10 -20 0 1.77 1.77
10 -20 0 -1.01 0.98
20 0 -10 -0.12 0.63
0 -20 10 -1.38 1.7
10 20 -2 14.31 2.41
-10 -20 -2 18.98 3.3
10 2 20 13.39 2.98
-2 -20 10 15.88 4.21
10 -20 2 13.46 3.58
-10 -2 20 12.44 3.59
-10 2 -20 10.29 3.73
-2 -10 -20 13.16 3.9
-10 -20 -2 12.19 2.99
10 -2 -20 10.32 3.59
2 -10 20 12.57 4
20 2 -10 13.36 2.19
2 10 -20 10.04 3.46
2 -20 -10 13.25 2.84
-2 10 20 14.87 3.07
2 -20 -10 10.9 2.78
-2 20 -10 12.46 2.81
-2 -20 -10 8.24 2.43
10 -20 -2 10.84 2.54
2 -20 10 15.46 4.23
-10 -2 -20 13.68 3.9
-20 -10 -2 15.06 4.16
-10 -20 2 16.35 3.75
-2 -20 -10 10.64 2.64
2 10 20 10.66 2.73
10 -20 -2 12.37 3.08
2 20 -10 16.34 3.27
-10 2 20 11.56 3.08
-2 -10 20 12.99 3.8
2 -10 -20 9.99 3.13
10 -2 20 11.86 3.39
10 2 -20 17.71 4.29
-10 20 -2 12.63 2.23
-2 10 -20 6.82 2.73
4 -20 -10 37.48 4.54
10 4 20 28.65 4.42
-4 -10 -20 44.63 5.96
10 -4 -20 32.46 5.74
-20 -4 -10 34.96 3.93
4 10 -20 25.91 5.39
-10 -20 -4 38.38 4.89
-10 -20 -4 28.62 4.18
4 -20 -10 35.28 4.82
4 -10 20 31.77 5.41
-4 -20 10 31.8 5.59
-4 20 -10 42.54 4.75
10 20 -4 37.48 4.29
20 4 -10 32.42 4.02
-10 4 -20 41.14 6.2
-10 -4 20 36.16 5.58
-4 10 20 25.91 4.22
10 -20 4 42.87 5.76
-10 -4 -20 31.5 5.77
4 -10 -20 30.47 5.22
-10 20 -4 34.54 4.07
10 -20 -4 34.82 4.74
4 10 20 36.28 4.51
-10 4 20 35.14 4.81
-4 -20 -10 24.5 3.93
4 20 -10 33.03 4.36
10 -20 -4 31.61 4.32
4 -20 10 33.73 5.76
-4 10 -20 23.59 5.33
-4 -20 -10 36.84 4.72
-10 -20 4 39.77 5.63
-20 -10 -4 34.45 4.71
10 4 -20 38.38 5.71
-20 -4 10 42.35 5.08
-4 -10 20 34.07 5.47
-10 6 -20 4.55 2.57
-6 10 20 5.59 1.94
-10 -20 -6 4.91 1.91
-20 -6 -10 -0.21 1.51
-6 20 -10 5.98 1.84
6 -20 -10 3.42 1.63
6 -20 -10 0.33 1.41
10 6 20 3.08 1.73
-6 -20 10 3.83 2.31
10 -6 -20 1.47 2.5
-10 -6 20 3.6 2.59
-10 -20 -6 2.34 1.56
6 -10 20 5.13 2.55
6 10 -20 7.46 2
-20 -10 6 7.79 2.79
10 -20 6 6.54 2.75
10 20 -6 6.23 1.68
20 6 -10 2.84 1.4
-6 -10 -20 2.42 2.39
-10 20 -6 4.47 1.46
6 -20 10 4.72 2.6
-20 -10 -6 5.74 1.71
-6 10 -20 6.85 2.82
10 6 -20 3.01 1.94
10 -20 -6 5.14 1.95
-10 -6 -20 4.73 2.5
10 -6 20 5.4 2.27
-6 -10 20 1.17 2.45
6 -10 -20 1.7 2.12
-20 -10 -6 3.59 1.68
-6 -20 -10 6.68 2.26
-10 6 20 4.1 1.99
6 10 20 4.88 1.91
6 20 -10 5.84 1.84
20 10 -6 2.17 1.25
-6 -20 -10 4.83 1.93
10 -20 -6 4.95 1.81
-10 -20 6 2.27 2.32
-8 -10 -20 1.31 1.89
10 -8 -20 -1.91 1.88
-8 -20 10 0.67 2.95
-20 -10 8 -1.92 1.74
-20 -8 -10 -0.75 1.22
8 10 -20 -2.21 0.9
8 -20 -10 0.34 0.9
-8 20 -10 0.31 1.04
-10 8 -20 4.73 2.08
20 8 -10 -1.87 0.7
-10 -20 -8 1.41 1.39
8 -20 -10 0.26 1.23
10 -20 8 0.39 1.57
10 8 20 -0.52 1.17
-8 10 20 -1.69 1.12
-10 -8 20 0.27 1.75
-10 -20 -8 -1.04 0.58
-8 -20 -10 -0.15 1.18
-8 -20 -10 0.08 0.97
10 -20 -8 0.36 1.2
-10 -20 8 -0.12 1.53
-10 20 -8 -0.26 0.86
-10 -8 -20 -2.85 1.41
8 -10 -20 -1.73 1.71
-8 -10 20 -1.61 1.72
-10 8 20 -1.58 0.91
10 -8 20 1.23 1.89
-20 -10 -8 -0.86 1.23
10 8 -20 1.67 1.56
-8 10 -20 -2.08 1.16
20 10 -8 -0.33 0.79
8 10 20 -0.15 1.09
8 -20 10 -0.32 1.82
-20 -10 -8 2.19 1.28
10 -20 -8 1.06 1.03
-20 -10 -10 0.03 1.16
-10 -20 -10 0.88 1.37
-10 20 -10 -1.64 0.72
-10 -10 20 0.02 2.07
-10 -10 -20 0.4 1.67
-20 -10 -10 1.14 1.74
-20 -10 10 -1.26 1.69
10 -10 20 -0.67 1.8
10 10 -20 0.55 1.46
10 10 20 -0.22 1.11
20 10 -10 1.22 1.1
10 -20 -10 2.7 1.22
-10 -20 -10 1.43 1.42
10 -20 -10 -0.49 1.42
10 -20 10 0.2 2.49
10 -10 -20 0.91 2.23
-10 -20 10 -1.51 2.23
-10 10 20 -0.43 1.01
-12 0 -20 10.83 3.53
12 0 -20 2.84 2.38
-20 -12 0 4.9 1.87
0 -20 12 4.97 2.33
0 20 -12 10.07 2.56
0 12 20 9.01 2.45
12 0 20 2.69 1.57
0 -20 -12 6.65 2.18
-12 0 20 2.69 2.27
0 12 -20 3.76 2.14
-12 -20 0 4.61 2.33
0 -12 20 6.98 3.06
0 -20 -12 7.69 2.53
2 -20 -12 43.53 5.03
-20 -2 -12 44.22 4.68
-20 -12 2 50.27 7.24
-2 12 20 46.2 5.21
-20 -12 2 44.34 5.15
20 2 -12 54.36 6.67
-12 -2 20 37.46 5.66
-12 2 -20 45.39 6.8
12 20 -2 45.97 4.91
12 2 20 34.13 4.97
-2 -20 12 33.56 6.11
2 -12 20 38.08 6.27
2 12 -20 40.32 5.65
12 -2 -20 37.9 6.2
-12 -20 -2 42.39 5.5
2 -20 -12 46.94 5.63
-12 -20 -2 36.8 4.91
-2 20 -12 54.29 5.65
-20 -12 -2 46.25 6.15
2 20 -12 40.37 5.11
12 2 -20 40.56 6.11
-12 -2 -20 48.86 6.68
-20 -12 -2 42.74 5.22
2 -12 -20 39.89 6.22
2 -20 12 48.28 6.64
12 -20 -2 26.08 6.77
-12 2 20 32.58 5.17
-12 -20 2 35.7 5.67
-2 12 -20 36.08 5.76
-2 -12 20 41.29 6.5
2 12 20 45.49 5.23
12 -2 20 44.39 5.57
12 -20 -2 33.26 5.18
-2 -20 -12 33.17 4.81
-4 -12 -20 105.2 10.5
-4 -20 12 80.39 10.09
-20 -12 4 96.48 10.09
4 -12 20 76 9.93
-12 -4 20 99.74 10.09
-4 12 20 90.15 8.86
4 -20 -12 86.19 9.32
12 -20 4 63.32 10.61
-4 20 -12 97.32 9.19
4 -20 -12 76.18 8.53
-12 -20 -4 92.87 9.3
-12 -20 -4 97.14 9.03
12 20 -4 90.41 8.6
12 4 20 103.45 9.36
12 -4 -20 100 10.67
-12 4 -20 107.36 10.68
20 4 -12 101.72 9.12
-4 12 -20 97.24 10.02
12 -20 -4 85.92 8.93
-12 -4 -20 95.03 10.64
-12 -20 4 92.02 9.84
-20 -12 -4 89.55 8.98
-12 4 20 88.77 9.38
-4 -20 -12 85.73 8.67
-4 -12 20 92.1 10.65
-20 -12 -4 93.27 9.24
12 -4 20 101.04 9.82
20 12 -4 88.85 8.43
4 12 20 96 8.94
4 20 -12 92.23 9.06
4 -12 -20 99.71 10.51
12 4 -20 86.06 9.91
-12 20 -4 90.95 8.58
12 -20 -4 100.84 9.54
4 -20 12 98.19 10.68
20 6 -12 28.17 3.95
6 -12 20 25.8 5.64
-20 -6 -12 22.93 4.89
-20 -12 6 19.85 4.9
-12 -6 20 31.37 5.32
-12 6 -20 31.69 5.35
-12 -20 -6 31.39 4.39
-6 12 20 18.32 3.4
6 -20 -12 30.17 3.96
-6 -12 -20 17.42 4.32
6 -20 -12 32.94 4.78
12 -20 6 31.13 5.32
-6 -20 12 22.16 4.89
-6 20 -12 29.65 3.91
12 -6 -20 20.86 5.47
-12 -20 -6 26.43 3.94
12 20 -6 29.7 3.71
-6 12 -20 33.15 4.96
-20 -12 -6 22.35 3.83
-12 6 20 22.66 3.86
6 -20 12 31.05 5.48
6 -12 -20 22.47 5.27
-6 -12 20 23.07 5.06
12 -20 -6 23 4.06
-20 -12 -6 27.57 3.94
12 6 -20 21.33 4.59
12 -6 20 24.86 4.44
-12 -20 6 24.79 5.22
20 12 -6 26.48 3.56
-6 -20 -12 18.6 4
6 12 20 28 4.03
-12 20 -6 21.9 3.42
-12 -6 -20 18 4.57
-6 -20 -12 30.72 4.1
8 -12 20 1.07 2.17
20 8 -12 4.39 1.62
-12 -20 -8 4.06 2.04
12 8 20 3.82 2.12
-8 -20 12 0.22 2.57
-12 -20 -8 3.16 1.92
-20 -8 -12 3.85 1.65
-8 -12 -20 4.02 2.4
-12 -8 20 5.95 2.78
8 -20 -12 4.94 2.22
12 20 -8 2.03 1.21
-8 12 20 2.6 1.7
-20 -12 8 1.41 2.64
12 -8 -20 4.07 2.54
8 12 -20 3.84 2.12
8 -20 -12 3.9 1.65
-20 -8 -12 1.65 2.34
-8 20 -12 2.45 1.68
8 -12 -20 0.59 2.26
12 -8 20 3.8 2.74
-20 -12 -8 1.42 1.61
-12 -20 8 2.31 2.46
-20 -8 12 0.08 2.67
12 8 -20 5.91 2.33
-8 -20 -12 8.42 2.61
20 12 -8 3.65 1.35
-12 8 20 4.37 2.14
-8 12 -20 2.24 1.73
-12 -8 -20 2.39 2.39
8 12 20 4.55 1.98
12 -20 -8 1.62 1.47
12 -20 -8 4.53 2.01
-8 -20 -12 4.61 1.72
8 -20 12 10.15 4.04
-10 12 20 12.62 3.23
-12 -20 -10 19.65 3.35
-12 -20 -10 12.71 3.31
12 10 20 16.79 3.42
12 -20 10 19.69 4.78
12 20 -10 20.43 3.21
-12 -10 20 20.23 5.01
-12 10 -20 16.28 4.73
20 10 -12 19.23 3.17
-10 -12 -20 19.28 4.49
10 -12 20 28.57 5.79
10 12 -20 10.84 3.28
-10 -20 12 12.75 4.55
12 10 -20 21.48 4.72
-10 -12 20 12.96 4.77
-10 12 -20 17.39 4.4
-12 10 20 17.65 3.5
-10 -20 -12 8.82 2.65
10 -20 12 16.23 4.44
12 -20 -10 20.03 4.16
20 12 -10 19.62 3.13
-10 -20 -12 13.35 3.36
-20 -12 -10 21.24 3.68
10 -12 -20 8.08 4.05
-12 -20 10 13.42 3.84
12 -10 20 17.36 4.12
12 -20 12 29.22 6.58
-12 12 20 38.17 5.15
12 12 -20 34.67 6.14
12 -12 20 46.21 6.86
-12 -12 20 40.1 7.3
-12 -20 12 41.53 7.02
-12 -20 -12 42.76 5.41
-14 0 -20 3.48 2.36
-14 -20 0 -0.66 1.46
0 -14 -20 0.59 1.34
0 14 20 -1.92 0.82
14 0 -20 -1.03 1.86
-14 0 20 -2.66 1.36
-20 -14 0 0.76 1.59
14 0 20 -0.6 1.19
0 -14 20 -4.05 1.77
0 14 -20 -1.8 0.76
0 20 -14 2.6 1.38
0 -20 14 2.57 2.36
0 -20 -14 1.06 0.87
-2 -20 14 12.14 3.43
2 -14 20 20.28 4.94
-20 -14 2 22.07 4.66
14 -2 -20 14.16 4.18
2 -20 -14 12.13 3.25
14 20 -2 18.92 2.97
-14 2 -20 11.64 3.92
-14 -20 -2 11.81 3.19
2 -20 -14 18.21 3.11
-2 20 -14 15.38 3.62
14 2 20 13.78 3.1
-2 -14 -20 25.41 5.15
-14 -20 -2 13.33 4.34
-14 -2 20 17.96 4.19
2 14 -20 15.7 3.89
-2 14 20 20.41 3.43
2 20 -14 23.26 3.61
-20 -14 -2 16.66 3.67
-14 -2 -20 18.79 4.65
-2 14 -20 15.9 3.81
-2 -14 20 19.7 4.43
2 -20 14 20.72 5.02
14 2 -20 21.52 4.95
14 -2 20 16.34 3.78
-14 2 20 19.48 4.04
-2 -20 -14 17.47 3.73
2 14 20 15.01 3.32
-2 -20 -14 16.81 5.23
-4 14 20 49.9 5.35
-14 -4 20 37.01 5.8
4 -20 -14 41.78 5.98
4 -14 20 39.06 6.57
14 20 -4 40.95 4.8
14 -4 -20 25.33 5.94
14 4 20 42.53 5.21
-14 4 -20 44.68 6.34
4 -20 -14 46.52 5.12
-20 -14 4 39.87 5.93
-4 -20 14 43.24 6.78
-14 -20 -4 48.12 7.28
-4 -14 -20 49.86 6.38
4 -14 -20 28.12 6.12
14 -4 20 26.77 4.9
-4 14 -20 39.9 5.85
-20 -14 -4 41.59 5.47
-4 -20 -14 33.34 4.71
4 -20 14 40.21 7
4 20 -14 44.45 5.44
-4 -14 20 38.11 6.8
-14 -4 -20 37.65 6.34
-14 4 20 44.99 6.29
20 14 -4 45.23 4.87
14 4 -20 38.03 5.69
-6 14 20 -0.6 1.39
6 -14 20 2.3 2.8
14 20 -6 5.26 1.57
-6 20 -14 3.98 1.99
-14 -6 20 5.89 3.19
6 -20 -14 5.24 2.21
6 -20 -14 3.4 1.65
14 -6 -20 1.27 2.73
-14 -20 -6 3.78 1.96
-20 -14 6 5.69 2.87
14 6 20 3.97 2.17
-6 -20 14 2.91 2.79
-14 -20 -6 5.97 2.09
-6 -14 -20 5.02 2.43
14 6 -20 7.86 2.64
14 -6 20 -0.27 1.96
6 -14 -20 5.88 2.87
-6 -20 -14 3.94 1.74
-6 -14 20 6.15 3.86
20 14 -6 3.25 1.29
-6 -20 -14 -0.25 1.72
-20 -14 -6 9.06 2.62
6 -20 14 5.43 3.55
-20 -14 -6 4.7 2.23
-14 6 20 6.56 2.27
8 -14 20 -5.98 2.2
-8 -14 -20 0.2 1.04
14 8 20 0.42 1.47
-14 -8 20 -4.68 1.63
-8 14 20 -1.31 1.1
14 -8 -20 -0.19 2.11
-8 -20 14 -0.54 2.57
-8 20 -14 0.27 1.19
8 -20 -14 1.35 1.05
8 -20 -14 -3.37 1.16
-14 -20 -8 -2.3 1.33
-14 -20 8 0.31 2.05
-14 8 20 0.39 1.57
-8 -20 -14 -2.59 0.99
8 -20 14 -0.63 2.69
14 8 -20 1.22 1.52
8 -14 -20 -2.26 1.76
20 14 -8 0.27 0.76
14 -8 20 0.56 1.73
-20 -14 -8 2.09 1.51
-8 14 -20 -1.51 1.47
-8 -14 20 -1.84 2.68
10 -20 -14 11.08 2.64
-20 -14 10 2 5.12
10 -14 20 6.45 2.8
-14 -10 20 8.75 3.85
14 10 -20 8.25 3.01
-10 14 -20 6.97 3
14 -10 20 3.69 2.57
-10 -14 20 3.26 3.68
-14 -20 10 6.29 3.98
12 -14 20 18.62 5.11
-14 -12 20 19.13 5.08
-20 -16 0 8.98 2.96
16 0 -20 6.62 2.85
16 0 20 2.64 1.73
0 -16 20 -0.11 2.68
0 -20 16 7.6 3.52
-16 -20 0 2.71 1.62
0 -16 -20 7.67 2.16
-16 0 20 8.79 2.94
-16 -20 0 6.54 2.95
0 20 -16 8.57 2.62
0 -20 -16 4.56 1.9
16 2 20 1.62 2.13
16 -2 -20 -1.45 1.97
-2 -20 16 -2.69 2.48
-2 -16 -20 -1.48 0.9
16 20 -2 -1.8 0.65
2 -20 -16 -0.03 1.51
-20 -16 2 -1.41 1.65
-16 -20 -2 0.87 1.86
2 -20 -16 -1.21 1.06
2 -16 20 1.99 2.71
-16 -20 -2 0.37 1.22
-2 20 -16 3.8 1.28
2 -20 16 -2.66 2.24
-16 2 20 0.36 1.33
2 -16 -20 0.11 1.06
-2 -20 -16 -0.21 1.27
-16 -20 2 -2.74 1.8
-20 -16 -2 1.91 1.76
2 -16 -20 1.32 1.74
16 -2 20 -2.99 1.35
-2 16 -20 1.47 1.51
16 2 -20 -0.41 1.48
4 -16 20 2.72 3.15
-4 -16 -20 6.34 2.21
4 -20 -16 3.49 2.35
-20 -16 4 0.95 3.01
-4 -20 16 3.66 3.23
16 4 20 4.57 1.84
4 -20 -16 6.44 2.2
16 20 -4 5.25 1.89
-16 -4 20 8.31 2.31
16 -4 20 5.18 2.32
-20 -16 -4 3.8 2.74
4 -16 -20 0.92 1.17
16 4 -20 4.5 3.17
-4 -16 20 0.86 3.15
4 -20 16 2.35 3.47
4 -16 -20 2.83 2.62
-4 -20 -16 5.18 2.01
16 20 -6 -0.21 0.74
6 -20 -16 -1.09 1.12
6 -20 -16 -0.69 1.33
6 -16 20 0.66 2.65
16 6 20 0.35 1.38
-16 -20 -6 2.46 1.67
-16 -6 20 -0.13 2.33
6 -16 -20 -3.7 1.48
16 6 -20 0.18 1.53
16 -6 20 -0.92 1.67
-20 -16 -6 -2.63 1.54
6 -20 16 -0.51 2.75
6 -16 -20 -1.39 1.22
-16 -8 20 3.91 3.21
-16 -20 -8 5.88 2.71
8 -16 20 3.75 3.32
8 -20 -16 6.75 3.56
8 -20 -16 3.06 1.82
-16 -20 8 7.45 3.9
-8 16 -20 0.98 1.92
8 -20 16 6.55 3.94
-20 -16 -8 12.16 2.97
8 -16 -20 10.54 2.69
16 8 -20 -0.4 1.74
-16 -10 20 -1.25 3.24
10 -20 -16 -0.23 1.53
10 -16 -20 2.41 1.69
-16 -10 -20 -0.27 1.49
10 -20 16 1.09 3.18
-18 -20 0 1.75 2.79
-20 -18 0 3.1 3.47
-18 -20 -2 -0.21 2.29
-18 -20 2 1 2.61
-18 -20 -4 11.18 3.32
-18 -20 4 5.59 3.72
-18 -20 -6 -0.52 2.47
-18 -20 6 -1.28 3.1
-1 -21 -1 1.84 1.88
-1 -21 1 1.14 1.78
-1 -1 -21 5.68 2.99
-1 -1 21 1.65 1.99
-1 1 -21 1.52 2
-1 1 21 2.3 1.73
-1 21 -1 1.95 1.13
-1 21 1 2.5 1.15
1 -21 -1 6.84 1.98
1 -21 1 1.77 1.35
1 -1 -21 5.7 2.92
1 -1 21 1.31 1.65
1 1 -21 0.65 1.79
1 1 21 4.38 2.03
1 21 -1 2.65 1.42
1 21 1 3.74 1.3
-3 -21 -1 21.91 3.49
3 21 -1 22.6 3.06
-1 21 -3 21.24 3.05
-1 -3 -21 12.97 4.06
-1 -21 3 15.08 3.77
1 -21 -3 19.14 3.08
-1 3 21 20.98 3.64
-3 1 -21 22.78 5.22
1 -3 21 22.03 4.43
1 3 -21 18.92 4.35
3 1 21 16.12 3.64
3 -1 -21 11.61 4.31
3 -21 1 22.64 3.77
-3 -1 21 14.41 3.52
1 -21 -3 21.43 3.26
-3 21 -1 17.01 2.82
-1 3 -21 14.8 4.19
-3 -21 1 15.56 3.58
1 21 -3 15.59 2.79
3 -21 -1 23.81 3.73
3 -1 21 14.43 3.53
3 1 -21 18.92 4.47
1 3 21 22.4 3.54
3 21 1 21.74 2.86
-1 -21 -3 17.19 3.45
-1 -3 21 18.58 4.07
-3 1 21 22.53 3.81
-3 -1 -21 22.26 5.24
1 -21 3 19.05 3.94
1 -3 -21 13.7 4.1
-1 -21 -3 21.72 3.58
-3 -3 -21 68 8.16
-3 -21 -3 62.99 6.52
-3 -21 3 58.55 7.13
-3 -21 -3 55.47 6.72
3 -3 21 56.33 6.95
3 3 -21 60.4 7.81
3 3 21 69.65 7.12
3 21 -3 58.85 6.19
3 -3 -21 61.02 7.88
3 -21 -3 59.6 6.39
3 -21 3 58.89 7.14
-3 21 -3 70.4 6.49
-3 -3 21 61.55 7.45
-3 3 -21 61.27 7.87
-3 3 21 59.63 6.88
3 -21 -3 60.55 6.69
-1 21 -5 12.24 2.61
1 -21 -5 9.42 2.26
-1 5 21 11.18 2.85
1 -21 -5 10.45 2.88
-5 -21 -1 12.03 3.07
-5 -1 21 12.16 3.2
-5 1 -21 8.92 3.52
-1 -5 -21 15.35 4.32
1 -5 21 8.82 2.98
1 5 -21 12.94 3.62
5 -21 1 10.63 3.11
-1 -21 5 18.58 3.99
-21 -5 1 7 2.22
5 21 -1 15.24 2.96
5 -1 -21 10.18 3.46
5 1 21 11.03 3.04
-5 1 21 16.31 3.46
-1 -21 -5 12.15 2.84
-1 -21 -5 11.27 2.82
-21 -5 -1 15.83 2.65
1 -5 -21 13.98 3.86
1 5 21 8.54 2.62
-1 5 -21 13.12 3.89
1 -21 5 19.79 4.19
1 21 -5 10.93 2.34
-5 -21 1 11.7 3.02
5 -1 21 11.8 3.21
5 1 -21 10.33 3.44
-1 -5 21 14.08 3.68
-5 -1 -21 9.09 3.35
5 21 1 9.85 2.31
-5 21 -1 15.09 2.23
5 -21 -1 11.76 3.06
-21 -5 3 70.02 7.65
-5 -3 21 71.11 8.21
-5 3 -21 78.38 9.06
-3 5 21 71.2 7.68
-3 -5 -21 74.24 8.86
3 -5 21 84.97 10
-3 -21 5 72.53 8.27
5 -21 3 63.16 7.93
5 -3 -21 72.4 8.89
-5 -21 -3 72.02 7.65
-5 -21 -3 79.78 7.54
3 5 -21 72.68 8.67
5 21 -3 75.01 7.19
-3 21 -5 80.8 7.22
3 -21 -5 90.86 8.12
3 -21 -5 80.63 7.55
3 -5 -21 72.29 8.76
-5 -3 -21 76.85 9
-3 5 -21 71.31 8.68
5 3 -21 68.96 8.52
-5 21 -3 72.85 7.04
3 21 -5 71.37 7.08
5 -21 -3 58.63 6.97
3 5 21 88.83 7.89
3 -21 5 76.14 8.52
-5 3 21 62.56 7.63
-3 -21 -5 64.78 7.33
-3 -21 -5 72.24 7.36
5 -3 21 58.14 7.74
-3 -5 21 70.7 8.39
5 -21 -3 78.04 7.81
-5 -21 3 66.88 7.91
5 5 -21 99.98 10.32
-5 -21 -5 101.65 9.03
-5 -21 5 86.34 9.66
-5 -21 -5 100.75 9.37
-5 -5 21 80.21 9.7
-5 5 -21 97.44 10.47
-5 5 21 84.06 9.08
-5 21 -5 75.6 8.73
5 -5 21 107.14 10.13
5 -21 -5 92.53 9.02
5 -21 -5 89.16 8.84
5 -21 5 89.13 9.79
-5 -5 -21 91.41 11.62
5 5 21 84.72 8.88
5 21 -5 104.59 8.79
5 -5 -21 91.7 10.37
7 -21 1 0.22 1.42
-1 -21 7 2.77 2.3
-1 21 -7 1.71 1.22
7 -1 -21 4.2 2.22
1 -21 -7 1.2 1.31
1 -7 21 2.78 2.13
1 7 -21 2.26 2.02
-7 -21 -1 -0.49 1.26
-7 1 -21 2.69 1.9
1 -21 -7 1.8 1.57
-7 -1 21 0.19 1.47
7 21 -1 0.87 0.82
-1 -7 -21 -1.92 1.21
7 1 21 4.49 1.97
-1 7 21 4.67 1.73
-7 -21 1 4.3 1.85
1 7 21 1.06 1.14
-7 -1 -21 2.13 1.95
7 -1 21 1.48 1.62
7 -21 -1 2.53 1.86
7 21 1 0.71 0.68
-1 -21 -7 -1.11 1.02
-1 -21 -7 0.53 1.35
-1 -7 21 2.76 2.14
-1 7 -21 0.5 2.09
7 -21 -1 1.82 1.39
1 -7 -21 0.54 0.73
1 -21 7 3.69 1.91
7 1 -21 1.08 1.99
1 21 -7 1.48 1.11
-7 1 21 5.04 2.06
-7 21 -1 3.83 1.33
7 -21 3 14.57 3.93
-3 -7 -21 17.85 4.67
-7 -3 21 11.37 3.62
-3 -21 7 10.36 3.28
-3 7 21 11.59 2.76
3 -21 -7 10.37 2.57
3 -7 21 16.76 3.93
3 7 -21 11.35 3.49
7 -3 -21 13.6 3.82
-7 -21 -3 11.38 2.86
3 -21 -7 9.9 2.82
-7 3 -21 13.02 3.96
7 21 -3 13.46 2.22
21 3 -7 11.89 1.77
7 3 21 10.7 2.82
-7 -21 -3 9.73 2.44
-3 21 -7 18.34 2.72
-7 3 21 13.98 3.36
-3 -21 -7 12.99 2.9
-7 -21 3 10.26 2.95
-3 -7 21 10.84 3.41
7 -21 -3 15.56 3.46
7 -21 -3 8.18 2.45
3 -21 7 12.98 3.59
3 21 -7 13.18 2.76
3 -7 -21 14.62 3.96
-3 7 -21 12.64 3.9
7 -3 21 17.23 3.9
-7 21 -3 15.41 2.41
-7 -3 -21 16.77 4.23
-3 -21 -7 10.04 2.65
3 7 21 13.25 3.12
7 3 -21 12.87 3.91
7 -21 5 19.78 4.38
5 -7 21 18.25 4.33
7 21 -5 17.84 2.82
-7 -21 -5 18.76 3.79
7 -5 -21 13.96 4.17
7 5 21 13.83 3.25
-5 7 21 17.07 3.45
-7 -5 21 19.24 4.41
-7 5 -21 23.52 5.28
21 5 -7 19.71 2.47
5 7 -21 23.67 5.53
-5 -21 7 15.65 4.11
-7 -21 -5 22.1 3.34
-5 -7 -21 17.82 4.82
-5 7 -21 21.19 4.75
7 -5 21 16.29 3.88
7 -21 -5 19.96 3.38
7 -21 -5 10.83 2.98
-5 -7 21 14.54 3.79
5 21 -7 21.97 3.11
-7 5 21 14.63 3.41
-5 -21 -7 18.72 3.27
-7 -5 -21 21.02 4.73
5 -7 -21 14.38 4.14
-7 -21 5 19.66 4.48
5 -21 7 12.41 3.73
5 7 21 27.45 3.66
-21 -7 -5 13.34 3.04
-5 -21 -7 20.08 3.04
7 5 -21 21.18 4.82
-7 21 -5 20.69 2.89
7 21 -7 1 0.94
7 7 -21 2.6 1.56
7 7 21 0.6 1.26
7 -7 -21 1.71 1.72
-7 -21 -7 0.93 1.2
-7 -21 7 0.65 1.72
-7 -7 -21 2.22 1.98
-7 -7 21 1.89 1.68
-7 7 -21 2.57 1.83
-21 -7 -7 2.82 1.21
-21 -7 7 -1.67 1.45
-7 -21 -7 1.77 1.14
-7 7 21 -0.49 1.21
7 -21 7 3.14 2.2
-7 21 -7 1.64 1.07
7 -21 -7 2.49 1.49
7 -7 21 2.29 1.81
7 -21 -7 2.14 1.46
21 7 -7 2.13 0.98
-1 21 -9 0.43 0.97
1 -21 -9 -0.06 0.55
9 1 21 -1.18 1.09
1 -21 -9 0.65 1.07
1 9 -21 1.43 1.54
-9 -1 21 0.28 1.59
-1 9 21 -0.66 0.89
-9 -21 -1 -2.02 0.99
9 -21 1 1.25 1.37
9 21 -1 -0.59 0.57
-9 1 -21 -1.17 1.48
1 -9 21 1.51 1.69
-1 -21 9 -0.95 1.7
9 -1 -21 0.6 1.78
-1 -9 -21 1.16 1.57
-21 -9 -1 -2.72 1.24
-9 -1 -21 0.54 1.75
1 9 21 -1.12 1.09
9 -21 -1 2.61 1.44
1 -21 9 -2.54 1.35
1 21 -9 -1.3 0.69
-1 9 -21 2.34 1.73
-1 -21 -9 0.78 0.89
9 -21 -1 1.09 1.02
1 -9 -21 0.36 1.48
9 -1 21 -1.18 1.24
-1 -9 21 -3.41 1.32
-1 -21 -9 0.89 0.9
9 1 -21 2.26 1.91
-9 -21 1 -1.96 1.16
-9 1 21 -1.04 1.37
3 -9 21 8.44 3.44
9 -21 3 16.05 4
-9 -21 -3 17.71 3.68
-3 21 -9 21.15 3.09
-9 -21 -3 20.13 3.19
9 -3 -21 17.14 5.13
-3 9 21 18.8 3.36
-3 -9 -21 21.59 4.75
-9 -3 21 12.75 3.59
3 -21 -9 16.57 3.36
3 -21 -9 19.83 3.38
9 21 -3 16.36 2.76
3 9 -21 20.18 3.58
9 3 21 14.95 3.22
-3 -21 9 20.95 4.35
-9 3 -21 17.48 4.61
-9 21 -3 14.87 2.67
9 -3 21 13.25 3.59
9 -21 -3 15.57 3.46
-9 -21 3 14.59 3.61
9 -21 -3 16.18 2.92
3 21 -9 19.66 3.05
3 -21 9 19.3 4.51
-3 9 -21 27.62 4.45
3 -9 -21 14.78 4.13
3 9 21 17.63 3.71
-3 -21 -9 16.85 2.96
9 3 -21 18.58 4.39
-3 -9 21 13.85 4.19
-9 -3 -21 17.32 4.42
5 -9 21 17.77 4.33
-5 -9 -21 11.54 3.59
-5 9 21 12.66 3.13
-5 21 -9 16.71 2.75
5 -21 -9 15.4 3.23
9 -5 -21 15.97 4.35
-9 -5 21 13.81 4
9 -21 5 13.22 3.45
9 5 21 14.82 3.16
5 -21 -9 21.61 3.43
-5 -21 9 12.93 3.83
9 21 -5 13.19 2.46
-9 -21 -5 19.19 3.35
5 9 -21 9.85 3.78
-9 -21 -5 18.93 3.07
5 21 -9 15.77 3.26
9 -5 21 21.14 4.36
-9 -21 5 14.67 3.71
5 -9 -21 20.78 4.77
9 5 -21 13.15 3.91
9 -21 -5 14.42 3.52
9 -21 -5 18.77 3.09
-5 -9 21 13.2 4.51
-5 9 -21 10.31 3.42
-9 -5 -21 18.06 4.5
5 9 21 13.48 3.12
-9 5 21 16.34 3.72
21 9 -5 16.84 2.54
-9 21 -5 15.33 2.75
-5 -21 -9 13.49 2.91
5 -21 9 9.99 4.47
9 -7 -21 -2.29 1.76
-9 -21 -7 0.86 1.33
7 -21 -9 0.73 1.32
-9 7 -21 -0.9 1.28
-7 -9 -21 -0.53 1.55
7 -9 21 2.56 1.82
-7 21 -9 -0.1 0.61
-9 -7 21 0.24 1.8
9 -21 7 1.31 1.99
-9 -21 -7 0.26 0.83
9 7 21 -1.03 1.07
9 7 -21 -0.57 1.28
-9 7 21 0.27 1.24
-9 21 -7 0.15 0.89
21 9 -7 2.33 1
7 -9 -21 -0.28 1.9
7 9 21 2.26 1.34
9 -21 -7 -0.73 1.05
7 -21 9 0.47 1.77
-9 -21 7 1.36 1.44
-7 9 -21 -1.43 1.2
-7 -21 -9 1.68 1.2
-7 -21 -9 0.28 1.15
9 -7 21 -0.19 1.67
-7 -9 21 0.46 2.43
-9 -7 -21 4.81 2.25
9 -21 -9 -1.22 1.22
-9 9 21 0.68 1.54
-9 21 -9 0.51 0.89
-9 9 -21 1.16 1.88
-9 -9 -21 2.36 1.82
-9 -21 -9 1.68 1.23
9 -9 -21 -1.33 1.7
9 -9 21 -2.84 1.62
9 9 -21 1.8 1.46
9 9 21 0.2 1.29
-9 -21 -9 0.38 1.2
9 -21 -9 1.4 1.22
9 21 -9 -0.47 1.03
-9 -9 21 0.56 2.35
9 -21 9 -0.15 2.43
-1 -21 11 6.78 3.12
-11 1 -21 10.1 2.95
11 -21 1 4.33 1.82
-11 -21 -1 4.47 2.13
-1 21 -11 8.53 2.31
11 -1 -21 4.28 3.03
1 -21 -11 5.26 2.01
-1 11 21 6.25 2.07
1 -11 21 4.19 2.75
1 -21 -11 7.73 2.32
-11 -1 21 4.8 2.58
11 -21 1 8.14 3.11
11 1 21 8.48 2.78
11 21 -1 7.7 2.35
1 11 -21 10.64 3.06
1 11 21 3.54 1.93
1 21 -11 9.43 2.61
-1 -11 21 6.02 3.11
-1 11 -21 5.03 2.52
1 -21 11 9.57 3.38
-11 -21 1 5.77 2.46
-11 -1 -21 7.57 2.88
-1 -21 -11 12.96 2.73
11 1 -21 3.59 2.77
11 -1 21 7.62 2.41
11 -21 -1 4.77 2.25
11 -21 -1 6.45 2.08
11 -21 3 52.19 8.61
11 -3 -21 66.65 8.29
-3 -11 -21 64 7.76
-3 21 -11 53.52 6.12
-3 -21 11 60.7 7.74
-3 11 21 62.36 6.45
-11 -21 -3 64.05 6.49
3 -21 -11 51.43 6.08
3 -21 -11 60.37 6.99
-11 -21 -3 68.17 7.1
11 3 21 51.53 6.43
-11 3 -21 57.14 7.8
-11 -3 21 56.45 7.03
3 -11 21 55.72 7.63
-21 -11 -3 58.07 7.62
-11 3 21 60.76 6.94
11 -3 21 49.5 6.66
11 3 -21 60.91 7.78
3 21 -11 56.51 6.28
11 -21 -3 45.06 7.58
-3 11 -21 60.58 7.58
3 -21 11 57.97 7.93
-3 -21 -11 47.38 6.04
-11 -21 3 45.6 6.78
11 -21 -3 56.35 6.98
-3 -11 21 62.26 8.03
3 11 21 73.89 6.68
-11 -3 -21 51.63 10.61
3 -11 -21 71.8 8.6
-5 -11 -21 55.61 7.34
-11 -21 -5 50.1 6.11
11 5 21 42.54 5.83
-11 5 -21 58.41 10
5 11 -21 51.59 7.36
-11 -5 21 44.26 6.61
-5 11 21 53.59 5.97
5 -21 -11 52.15 5.84
5 -11 21 40.23 6.66
11 -5 -21 54.52 7.57
-11 -21 -5 50.82 5.83
5 -21 -11 53.24 6.37
-5 -21 11 53.02 7.45
-5 21 -11 54.75 5.9
-11 5 21 58.28 6.3
-11 -21 5 50.53 6.78
-5 -21 -11 46.75 5.95
-11 -5 -21 61.98 7.9
-5 11 -21 46.94 6.79
21 11 -5 44.33 5.29
5 -21 11 53.44 7.52
11 -5 21 54.35 6.55
11 5 -21 53.57 6.94
5 21 -11 53.88 5.87
-5 -11 21 55.87 7.66
-5 -21 -11 59.49 5.91
5 11 21 51.33 5.95
5 -11 -21 39.61 6.71
-21 -11 -5 43.78 6.32
11 -21 7 6.2 3.42
-11 -21 -7 8.83 2.36
-11 -7 21 11.46 3.65
-7 -21 11 -0.69 2.45
11 -7 -21 6.34 3.24
-21 -11 7 3.16 2.82
7 -21 -11 4.68 1.91
11 7 21 6.71 2.32
-7 11 21 7.7 2.23
7 -11 21 0.22 2.33
11 21 -7 6.31 1.96
-11 -21 -7 4.64 2.23
-7 -11 -21 7.11 2.98
7 -21 -11 8.19 2.63
-7 -21 -11 4.97 2.23
11 -7 21 4.95 2.44
11 -21 -7 4.12 2.12
-11 -21 7 7.74 2.94
7 -21 11 2.17 2.68
7 11 21 8.11 2.2
7 -11 -21 6.75 2.98
-21 -11 -7 8.37 2.34
-11 7 21 1.57 1.85
11 -21 -7 3.66 2.45
-7 -21 -11 8.73 2.58
-7 -11 21 7.23 3.2
-11 -21 -9 3.9 1.77
9 -21 -11 2.39 1.61
-11 9 -21 2.36 2.24
-9 -11 -21 -1.24 2.21
-11 -21 -9 3.53 2.14
11 -21 9 4.26 2.88
-9 21 -11 4.01 2.02
11 9 21 1.89 1.71
11 -9 -21 3.11 2.51
9 11 -21 2.1 1.87
-9 -21 11 0.6 2.47
9 -21 -11 2.33 2.29
9 -11 21 2.89 2.8
-9 11 21 3.36 1.65
9 -21 11 6.63 2.65
11 -9 21 6.06 2.61
11 9 -21 2.9 2.38
9 21 -11 4.26 2.43
-11 9 21 3.38 2.08
-9 -21 -11 3.42 1.88
-9 -11 21 4.38 3.07
11 -21 -9 6.2 2.14
-11 -9 -21 9.75 3.44
-11 -21 9 3.93 2.9
9 11 21 3.04 1.78
11 -21 -9 2.45 1.89
-9 -21 -11 4.29 1.86
9 -11 -21 2.52 2.74
-11 21 -9 2.46 1.69
-11 -11 21 24.53 6.97
-11 -21 11 16.45 5.21
-11 -21 -11 18.09 3.84
11 -21 11 12.53 4.83
11 11 -21 15.62 4.01
-11 11 21 14.73 3.45
11 -21 -11 23.04 3.82
11 11 21 14.31 3.29
11 -11 21 9.12 3.89
1 -13 21 15.16 4.45
13 -1 -21 11.33 4.1
13 1 21 21.62 3.62
-13 1 -21 17.02 4.53
-13 -21 -1 13.3 2.96
1 13 -21 16.89 4.05
-13 -21 -1 18.79 4.21
-1 13 21 14.62 3.1
-21 -13 1 13.79 3.8
-21 -13 1 13.23 2.89
-1 21 -13 10.13 3.03
13 -21 1 11.7 3.85
1 -21 -13 16.17 3.88
-1 -21 13 20.27 4.7
-1 -13 -21 18.85 4.47
-13 -1 21 14.74 3.77
1 -21 -13 19.49 3.34
13 21 -1 9.64 2.39
-1 -13 21 16.78 4.55
-13 -21 1 26.01 4.18
1 13 21 17.24 3.53
-1 -21 -13 15.95 3.26
13 -21 -1 12.8 3.79
13 -1 21 15.33 3.59
-1 13 -21 17.33 4.15
-21 -13 -1 13.68 3.37
13 -21 -1 14.36 3.78
1 21 -13 19.78 3.3
1 -21 13 12.45 3.77
-13 1 21 11.99 3.64
-21 -13 -1 24.15 4.93
13 1 -21 15.1 3.92
-3 -21 13 80.89 9.14
-3 21 -13 69.79 7.4
3 -21 -13 73.96 8.09
13 -21 3 60.92 8.25
13 21 -3 69.44 7.05
-13 -21 -3 66.28 7.56
-13 -21 -3 67.6 7.28
3 -21 -13 75.49 7.39
-13 3 -21 60.45 8.63
-3 13 21 51.48 6.77
3 13 -21 81.02 10.07
13 -3 -21 60.37 8.63
3 -13 21 61.03 8.4
-13 -3 21 65.24 8.11
13 3 21 82.73 7.82
13 -21 -3 66.86 8.54
13 -3 21 79.58 8.08
3 -21 13 63.14 8.96
3 21 -13 62.19 7.2
-13 -21 3 73.75 8.38
13 3 -21 77.27 8.59
-3 -21 -13 83.5 7.52
3 13 21 53.4 6.9
-3 13 -21 73.34 8.31
-13 3 21 75.03 7.9
-3 -21 -13 81.24 9.15
3 -13 -21 65.94 8.68
-3 -13 21 76.68 8.91
-5 -13 -21 51.98 7.26
-5 -21 13 55.12 7.74
-13 -5 21 74.57 7.74
13 -5 -21 45.9 8.06
-13 -21 -5 47.04 6.01
5 -21 -13 46.3 5.83
13 5 21 43.04 5.9
-13 5 -21 69.86 8.33
-5 13 21 42.57 5.75
-13 -21 -5 69.06 6.94
5 -13 21 54.89 7.73
5 -21 -13 61.97 7.03
13 21 -5 46.09 5.57
-5 -21 -13 58.21 6.22
-5 13 -21 52.33 6.87
5 -21 13 59.16 8.04
13 -5 21 50.66 6.72
21 13 -5 57.08 5.81
5 -13 -21 51.87 7.45
-13 -21 5 62.77 7.51
5 13 21 43.35 5.83
-13 5 21 54.82 6.35
13 5 -21 55.59 7.41
5 21 -13 55.13 6.11
7 -21 -13 6.61 2.17
-13 -7 21 5.6 3.28
-13 -21 -7 6.34 2.35
-7 -21 13 3.24 3.31
-13 -21 -7 6.49 2.64
13 7 21 5.26 2.15
7 -13 21 2.72 2.46
-7 13 21 6.69 2.35
7 -21 -13 9.09 2.73
13 21 -7 4.93 1.72
-13 7 21 1.5 2
13 -7 21 4.1 2.47
7 -21 13 3.33 2.99
-7 -13 21 2.42 3.37
7 -13 -21 7.32 3.28
-13 -21 7 8.15 3.21
13 7 -21 5.15 2.48
7 13 21 10.01 3.27
-13 -7 -21 5.61 2.81
-7 -21 -13 9.85 2.68
13 9 21 6.78 2.29
-13 -21 -9 14.1 3.37
9 -13 21 5.24 3.36
-9 13 21 4.89 2.23
-9 -13 21 5.93 3.51
13 9 -21 4.23 2.82
-13 9 21 4.45 2.52
9 -21 13 14.83 4.25
-13 -21 9 10.82 3.4
9 -13 -21 4.71 2.93
11 -13 21 31.78 6.38
-13 -11 21 35.5 7.12
-11 13 21 34.11 4.62
11 -13 -21 41.87 7.27
13 -11 21 34.16 6.56
11 -21 13 32.78 7.33
-21 -15 1 3.38 2.28
-1 -21 15 0.47 2.38
1 -15 21 -1.44 2.49
1 -21 -15 -1.76 0.98
-21 -15 1 1.73 2.5
-15 -21 -1 2.89 1.73
-15 -1 21 -2.64 1.31
1 -21 -15 -1.53 1.42
15 -1 -21 -1.62 2.53
-1 -15 21 -1.02 2.65
-15 -21 1 2.03 1.9
-21 -15 -1 -2.28 1.93
-21 -15 -1 2.99 2.69
-15 1 21 1.02 2.08
-1 -21 -15 -0.74 1.12
15 -1 21 2.35 1.78
1 -21 15 -3.59 2.54
3 -21 -15 12.07 3.81
15 3 21 15.06 3.61
-15 -21 -3 17.46 3.88
3 -21 -15 19.09 3.24
15 21 -3 20.07 2.78
3 -15 21 10.69 3.8
-3 -21 -15 12.71 3.3
-3 -15 21 18.29 6.22
-21 -15 -3 8.88 4.37
-15 3 21 14.11 3.49
15 -3 21 10.48 2.97
3 -21 15 10.12 4.79
5 -21 -15 10.01 3.29
-15 -5 21 11.5 3.88
15 5 21 10.99 2.68
15 21 -5 12.87 2.98
-15 -21 -5 9.28 2.92
5 -21 -15 17.02 3.48
5 -15 21 7.63 3.57
5 -21 15 14.96 5.08
-15 -21 5 11.59 3.59
-15 -5 -21 5.74 3.54
-15 5 21 10.03 2.5
15 -5 21 12.13 3.46
15 7 21 -0.91 1.39
7 -21 -15 2.38 1.56
-15 -21 -7 -0.63 1.81
7 -15 21 -4.7 2.48
-7 21 -15 -0.08 1.29
15 7 -21 -0.38 1.86
7 -21 15 0.82 2.73
-15 -21 7 -3.59 2.57
15 -7 21 4.23 2.45
9 -21 -15 -0.01 1.43
9 -15 21 3.1 3.57
-15 -9 21 -4.75 2.09
9 -21 15 -6.81 2.93
17 1 21 1.85 2
-17 -21 -1 2.32 2.55
-17 -21 1 3.53 2.35
17 3 21 1.92 1.55
-17 -21 -3 -3.21 1.89
-17 -21 3 -3.02 2.24
17 5 21 2.97 1.87
0 -22 0 47.43 6.08
0 0 -22 43.78 6.8
0 0 22 49.94 6.06
0 22 0 46.57 5.11
-2 -22 0 -0.15 1.6
-2 22 0 1.44 1.1
0 -2 -22 0.62 2.05
0 -2 22 -0.28 1.45
0 2 -22 1.56 1.83
0 2 22 1.67 1.52
2 -22 0 -0.82 1.3
2 22 0 1 0.92
2 0 -22 0.98 1.39
2 0 22 1.81 1.59
0 22 -2 -0.53 0.64
-2 0 -22 4.5 2.64
-2 0 22 1.29 1.52
0 -22 -2 -0.32 1.17
0 -22 -2 0.23 0.9
0 -22 2 3.32 1.94
2 2 22 9.03 2.69
2 -22 -2 7.51 2.27
2 -22 2 10.92 3.05
2 -2 -22 10.72 3.23
-2 -2 -22 3.87 2.66
-2 2 22 9.03 2.68
-2 22 -2 10.57 2.43
2 -22 -2 8.74 2.6
2 -2 22 4.23 2.57
2 2 -22 4.58 2.56
-2 -22 2 11.37 3.17
-2 2 -22 10.06 3.49
2 22 -2 8.33 2.29
-2 -2 22 7.25 2.89
-4 0 -22 0.44 2.28
0 -4 -22 -0.05 1.92
0 -4 22 6.15 2.66
0 -22 -4 6.55 2.25
0 4 -22 2.24 2.08
0 4 22 2.52 1.86
4 -22 0 6.31 2.5
4 22 0 1.82 1.18
4 0 -22 5.96 2.84
4 0 22 3.56 2.07
-4 0 22 7.43 2.97
-4 -22 0 7.59 2.58
-4 22 0 5.44 1.68
0 -22 -4 7.36 2.07
0 -22 4 4.08 2.41
0 22 -4 4.09 1.54
-2 22 -4 31.78 3.99
4 2 22 31 4.7
4 22 -2 31.74 3.97
2 -22 -4 22.73 3.91
-4 -2 22 29.54 4.94
-4 2 -22 34.84 5.76
4 -2 -22 38.3 5.87
4 -22 2 21.02 4.59
2 -4 22 35.63 5.17
2 4 -22 38.79 5.6
-2 4 22 28.93 4.61
-2 -4 -22 37.16 5.79
-4 -22 -2 30.74 4.47
-2 -22 4 35.99 5.42
2 -22 -4 31.69 4.45
4 2 -22 27.5 5.92
-4 2 22 37.58 5.05
-4 -22 2 28.73 4.56
-4 22 -2 33.21 4.01
2 22 -4 36.23 4.13
4 -22 -2 32.59 4.27
4 -2 22 31.06 4.96
2 -22 4 31.34 5.05
2 -4 -22 32.09 5.6
-2 -4 22 28.34 5.04
-2 4 -22 33.25 5.56
2 4 22 28.88 4.38
4 -22 -2 32.28 4.68
-4 -2 -22 30.34 5.94
4 -4 22 70.15 8.21
4 -4 -22 93.31 9.68
4 -22 4 73.21 8.67
-4 22 -4 73.43 7.41
4 -22 -4 82.81 8.19
4 -22 -4 72.54 7.6
4 4 -22 75.3 9.29
4 4 22 74.46 7.94
4 22 -4 78.44 7.46
-4 4 -22 70.8 8.98
-4 4 22 76.24 8.13
-4 -4 -22 77.84 9.31
-4 -22 -4 84.77 8.16
-4 -22 -4 77.52 7.68
-4 -22 4 74.58 8.65
-4 -4 22 72.28 9.23
6 0 -22 0.89 1.31
0 -22 -6 -0.68 1.01
0 22 -6 0.14 1.07
-6 -22 0 6.22 2.39
0 -6 -22 -0.22 1.92
0 -6 22 1.7 1.6
6 22 0 3.41 1.34
-6 0 -22 1.01 1.75
0 6 22 0.74 1.08
-6 0 22 4.06 2.1
0 -22 -6 1.38 1.06
0 -22 6 2.82 2.06
6 0 22 2.75 1.89
0 6 -22 2.77 1.97
6 -22 0 -0.31 1.3
6 -2 -22 3.96 2.88
6 -22 2 8.67 2.49
6 22 -2 4.35 1.81
-6 2 -22 10.07 3.73
2 -6 22 4.16 2.37
-2 22 -6 8.84 2.15
2 -22 -6 9.37 2.62
-6 -22 -2 11.39 2.88
2 6 -22 7.73 2.94
6 2 22 5.65 2.12
-2 -22 6 5.28 2.55
-2 -6 -22 4.43 2.85
-6 -2 22 8.2 2.79
-6 -22 -2 10.61 2.61
-2 6 22 4.96 2.31
2 -22 -6 4.89 1.98
2 -22 6 10.78 3.36
2 22 -6 8.46 2.25
6 -22 -2 6.87 2.44
6 -22 -2 4.79 1.84
-6 2 22 7.33 2.69
-2 -22 -6 3.39 1.93
2 -6 -22 10.46 3.66
6 -2 22 2.36 1.95
6 2 -22 5.39 2.73
-2 -22 -6 7.33 2.21
-6 22 -2 7.98 2.05
2 6 22 5.94 2.1
-2 -6 22 2.43 2.37
-6 -2 -22 8.03 3.45
-2 6 -22 9.09 3.09
-6 -22 2 12.22 2.97
6 4 22 41.7 5.25
-4 22 -6 38.61 4.71
-4 6 22 40.53 5.26
4 -22 -6 38.22 5.13
4 -6 22 41.03 6.01
-6 -4 22 42.03 5.98
-6 4 -22 47.33 6.66
-4 -6 -22 44.26 6.49
6 -22 4 33.12 5.58
6 22 -4 37.95 4.68
-6 -22 -4 34.87 4.81
-4 -22 6 36 5.75
6 -4 -22 44.71 6.68
4 -22 -6 42.78 5.4
-6 -22 -4 42.21 5.34
6 4 -22 44.47 6.42
-6 22 -4 44.37 4.85
4 6 22 39.64 5.19
6 -22 -4 43.19 5.38
6 -22 -4 51.7 5.45
-4 -22 -6 46.83 5.42
-4 -22 -6 45.97 5.25
-4 -6 22 36.98 5.92
-4 6 -22 42.23 6.36
6 -4 22 43.04 5.99
4 -6 -22 33.45 6.08
4 -22 6 52.18 6.64
4 22 -6 45.02 4.89
-6 -4 -22 37.06 6.22
-6 4 22 39.26 5.39
-6 -22 -6 17.2 3.18
-6 -22 -6 21.08 4.18
6 6 22 21.14 3.62
-6 6 22 15.62 3.62
-6 22 -6 21.98 3.06
6 -22 -6 14 3.29
6 -22 -6 22.83 3.66
6 -22 6 16.59 4.47
6 -6 -22 26.46 5.56
6 -6 22 15.38 4.12
-6 -6 -22 15.54 4.2
-6 -6 22 16.68 4.32
-6 6 -22 21.45 5.06
-6 -22 6 15.66 4.17
-8 0 22 11.77 3.35
8 0 -22 10.01 3.64
8 0 22 16.86 3.65
-8 0 -22 14.53 4.39
0 22 -8 16.08 2.86
0 -22 -8 16.64 2.75
0 -22 8 10.35 3.27
0 -8 22 17.11 4.08
0 8 -22 18.64 4.35
8 -22 0 14.7 3.65
8 -22 0 9.76 2.61
-8 -22 0 13.03 3.53
0 -22 -8 12.77 2.79
-8 -2 22 0.92 1.66
-2 22 -8 -0.25 0.95
2 -22 -8 2.58 1.48
2 -22 -8 -0.3 0.83
-2 8 22 1.49 1.41
8 2 22 0.91 1.35
-8 2 -22 -1.24 1.74
-8 -22 -2 0.9 1.37
-8 -22 -2 -0.18 0.74
8 -2 -22 2.07 2
8 -22 2 0.75 1.51
2 -8 22 0.37 1.95
-8 22 -2 0.52 0.74
8 -22 -2 0.94 1.59
8 -22 -2 1.03 1.06
-8 2 22 0.41 1.48
-2 8 -22 3.69 2.03
-2 -22 -8 -1.83 1.02
-8 -22 2 0.74 1.83
2 8 22 -0.65 1.11
2 22 -8 1.87 1.17
-2 -8 22 1.88 2.2
-8 -2 -22 0.13 1.63
8 -2 22 0.29 1.61
8 2 -22 -0.5 1.73
8 -4 -22 8.58 3.43
-4 22 -8 3.67 1.57
-4 8 22 6.55 2.22
-8 -22 -4 4.67 2.09
-8 -4 22 2.19 2.2
4 -22 -8 10.32 2.52
-8 4 -22 4.88 2.82
4 -8 22 6.88 2.76
8 4 22 8.46 2.44
-4 -8 -22 11.81 3.57
4 -22 -8 11.29 2.82
-8 -22 -4 6.89 2.15
8 -22 4 11 3.23
-4 -22 8 6.08 2.67
4 -22 8 1.62 2.29
-8 -22 4 6.39 2.77
8 -22 -4 7.22 2.2
4 -8 -22 10.28 3.57
-4 -8 22 12.54 3.95
-8 -4 -22 8.24 3.05
8 -22 -4 6.22 2.17
-8 22 -4 6.13 1.76
8 4 -22 12.99 3.3
-4 -22 -8 8.77 2.43
4 8 22 5.25 2.25
4 22 -8 5.57 2.06
-4 8 -22 4.6 2.88
8 -4 22 5.05 2.46
-8 4 22 8 2.48
6 -22 -8 0.74 1.27
8 6 22 -0.91 1.06
-8 -6 22 -1.39 1.92
-8 -22 -6 0.1 1.24
-8 -22 -6 0.05 1.03
-6 -22 8 -0.32 1.34
-6 22 -8 2.15 1.14
6 -22 -8 1.61 1.56
6 -8 22 0.12 1.69
-6 8 22 0.88 1.34
-8 6 -22 -0.68 1.85
8 -22 6 0.92 1.74
8 -6 -22 1.89 2.05
-8 -22 6 -3.04 1.33
-8 6 22 2.15 1.58
-6 8 -22 0.36 1.73
8 -22 -6 -0.87 1
8 -22 -6 0.52 1.16
-6 -22 -8 -1.3 0.98
-6 -22 -8 -0.39 0.74
-6 -8 22 -1.95 2
-8 -6 -22 1.17 1.57
8 -6 22 -2.31 1.45
6 8 22 -1.67 1.29
6 22 -8 -0.83 0.85
-8 22 -6 -1.09 0.75
6 -22 8 0.02 1.46
8 8 22 4.96 2.26
8 -8 22 18.29 4.8
8 8 -22 12.64 3.56
-8 -8 22 7.66 3.49
-8 8 -22 17.08 4.31
-8 -22 8 13.51 3.68
-8 -8 -22 7.51 3.29
8 -22 8 9.5 3.25
8 -8 -22 7.76 3.66
-8 8 22 9.47 2.5
-8 -22 -8 7.95 2.38
8 -22 -8 6.6 2.45
8 -22 -8 12.87 3.06
8 22 -8 5.63 1.91
-8 22 -8 13.15 2.3
-8 -22 -8 7.86 2.58
-10 0 22 2.79 1.57
0 -10 22 -0.65 1.42
0 22 -10 2.49 1.49
-10 -22 0 0.56 1.71
10 -22 0 2.88 1.33
0 10 22 1.61 1.85
0 10 -22 5.5 2.46
0 -22 -10 3.37 1.81
10 0 -22 4.64 2.55
10 0 22 3.27 2
0 -22 10 5.98 2.96
-10 2 -22 4.44 3.23
2 -22 -10 3.82 1.85
-10 -22 -2 4.76 2.12
-10 -22 -2 4.13 1.7
-10 -2 22 4.74 3.71
-2 -10 -22 -0.74 1.6
2 -10 22 -2.43 1.6
10 -2 -22 0.03 2.29
2 -22 -10 1.81 1.51
-2 10 22 4.33 1.93
-2 22 -10 2.49 1.59
2 10 -22 0.98 1.4
10 2 22 3.46 1.83
10 -2 22 2.6 2.57
-10 2 22 7.75 2.54
-2 10 -22 2.45 2.34
2 -22 10 -1.03 1.98
2 22 -10 2.87 1.5
-10 -2 -22 6.45 3.13
-2 -10 22 3.12 2.61
10 2 -22 4.48 2.67
10 -22 -2 3.33 1.39
-2 -22 -10 5.2 1.98
-2 -22 -10 1.45 1.3
2 10 22 3.31 1.81
-10 -22 2 1.87 1.77
4 -10 22 14.91 4.12
-10 4 -22 16.79 4.23
-10 -4 22 20.62 6.57
-10 -22 -4 21.58 3.87
-10 -22 -4 20.04 3.34
4 10 -22 17.16 4.32
-4 -22 10 30.38 5.12
-4 -10 -22 17.18 4.51
10 -22 4 17.01 4.1
10 22 -4 18.77 4.73
-4 10 22 25.56 4.04
10 -4 -22 18.5 5.07
10 4 22 14.91 3.55
4 -22 -10 13.08 3.49
-10 -22 4 20.98 4.81
10 4 -22 18.58 4.67
-10 4 22 19.84 4.05
4 -22 10 20.46 4.85
4 22 -10 18.41 3.2
4 -10 -22 13.35 4.17
10 -4 22 24.65 4.86
4 10 22 25.53 3.53
10 -22 -4 12.3 4.01
10 -22 -4 24.08 3.79
-4 -10 22 32.61 5.98
-4 10 -22 16.93 4.46
-10 22 -4 18.85 3
-10 -4 -22 17.75 4.64
-4 -22 -10 23.35 3.4
10 -6 -22 -2.02 1.98
-10 -22 -6 2.37 1.75
-10 -22 -6 1.46 1.5
-6 -22 10 5 2.75
6 -22 -10 2.75 1.92
-10 6 -22 4.79 3.01
10 -22 6 4.54 2.48
6 -10 22 4.86 2.78
6 -22 -10 5.05 1.73
10 6 22 1.19 1.62
6 -22 10 2.14 2.7
-6 10 -22 0.71 2.07
-10 6 22 7.27 2.5
-6 -22 -10 5.57 2.08
6 -10 -22 -0.88 2.07
10 -22 -6 2.19 2.32
10 -6 22 0.56 1.96
-10 -6 -22 1.42 2.37
10 6 -22 6.12 2.48
-10 -22 6 0.42 1.93
6 10 22 2.64 1.87
-6 -22 -10 6.03 2.3
-6 -10 22 3.78 2.39
8 -22 -10 2.19 1.62
-10 -8 22 2.45 2.7
-10 -22 -8 -0.5 0.99
8 -22 -10 2.44 1.58
-8 -10 -22 1.01 1.96
8 -10 22 -2.61 1.57
-8 22 -10 2.97 1.37
-8 10 22 1.45 1.73
10 8 22 1.63 1.62
10 -8 -22 -1.15 1.72
-8 -22 10 -1.04 2.48
-10 -22 -8 0.78 1.56
10 -22 -8 1.87 1.62
-10 8 22 1.11 1.42
-8 -22 -10 -0.73 1.48
-10 -22 8 -0.68 1.93
8 -10 -22 -1.27 2.37
-8 -10 22 -2.43 2.02
-10 -8 -22 1.68 2.11
8 10 22 -1.24 1.2
8 -22 10 0.25 1.97
10 -8 22 -0.91 1.9
-8 10 -22 3.34 2.1
10 8 -22 -1.17 1.5
10 -22 -8 -2.4 0.99
-10 -22 10 -5.51 1.88
10 -10 -22 -0.98 1.97
10 10 22 -2.86 1.54
10 -22 -10 -2.62 1.4
-10 -10 22 0.63 2.64
10 -10 22 3.84 1.84
-12 -22 0 1.43 1.61
12 -22 0 0.14 1.11
12 0 -22 0.56 2.05
0 -22 12 -1.11 2.05
-12 0 22 1.7 1.67
0 22 -12 -2.35 0.81
0 12 22 0.21 1.33
12 0 22 1.01 1.56
0 -22 -12 0.95 1.19
0 12 -22 -0.85 1.52
2 -22 -12 29.88 3.91
-12 -22 -2 26.15 4.46
2 12 -22 10.87 3.29
12 2 22 24.05 3.85
12 22 -2 16.9 2.98
-12 -22 -2 19.4 3.28
-2 12 22 18.72 3.7
-12 -2 22 28.69 4.56
-2 -22 12 18.42 5.59
2 -12 22 7.27 3.3
12 -2 -22 17.25 4.34
2 -22 -12 16.78 4.01
12 -22 2 14.18 3.42
-2 22 -12 26.94 3.71
2 -22 12 14.37 4.61
-2 12 -22 16.77 4.45
2 22 -12 15.61 3.5
-12 -2 -22 15.08 6.97
-2 -22 -12 22.41 3.55
-12 -22 2 28.14 4.39
12 2 -22 26.73 5.71
12 -2 22 20.24 4.37
2 12 22 21.74 3.74
-2 -12 22 16.82 4.76
-12 2 22 14.07 3.47
4 -22 -12 43.88 6.19
4 -12 22 57.68 7.64
-12 -22 -4 37.66 5.95
-12 -22 -4 42.87 5.59
-12 -4 22 46.65 6.9
12 -4 -22 33.9 6.65
-12 4 -22 69.23 8.26
12 22 -4 54.82 5.77
-4 22 -12 60.73 6.15
-4 12 22 51.73 5.94
4 -22 -12 50.67 5.82
12 4 22 51.72 6.21
12 4 -22 50.22 6.99
4 22 -12 54.11 6.06
-12 4 22 44.55 6.14
-4 -22 -12 50.02 5.81
-12 -4 -22 83.45 12.55
-4 12 -22 54.04 6.78
-12 -22 4 48.5 7.01
12 -22 -4 50.49 6.18
-4 -12 22 44.2 7.4
12 -4 22 53.04 6.67
4 -12 -22 54.57 7.54
4 12 22 54.95 5.94
-12 -22 -6 16.53 3.44
6 -12 22 9.69 3.51
12 22 -6 11.79 2.91
6 -22 -12 14.61 3.21
-12 -22 -6 20.22 3.28
12 -22 6 19.52 4.74
-6 12 22 6.28 2.5
6 -22 -12 12.03 3.32
-6 -22 12 14.83 4.96
-6 22 -12 15.96 2.81
-12 6 -22 24.91 5.39
12 6 22 10.46 3
12 6 -22 18.55 4.55
12 -6 22 12.49 3.17
-12 6 22 13.02 3.48
6 -12 -22 11.63 3.64
6 -22 12 14.74 4.69
-6 -12 22 16.18 4.5
6 12 22 10.24 2.84
-12 -22 6 15 4.23
-6 -22 -12 16.6 3.63
8 -22 -12 -0.5 1.11
-12 -8 22 -0.27 2.67
8 -12 22 -2.56 2.27
-8 22 -12 -0.19 1.25
12 8 22 -2.04 1.28
-12 -22 -8 -1.26 1.57
12 8 -22 3.52 2.19
8 -22 12 1.77 2.74
8 -12 -22 -3.87 1.54
12 -8 22 2.18 2.11
-12 -22 8 -2.81 2.36
10 -22 -12 8.9 2.87
12 -10 -22 3.69 3.04
10 -12 22 7.68 3.39
-12 -10 22 7.76 3.53
-10 12 22 7.56 2.38
10 -22 12 4.6 3.93
0 -22 14 4.84 3.58
0 -22 -14 3.8 2.05
0 14 22 1.17 1.7
14 0 22 2.23 1.88
-14 -22 0 3.19 2.19
14 -2 -22 28.19 7.06
-14 -2 22 16.96 4.61
2 -22 -14 21.53 4.33
14 2 22 20.98 3.59
2 -14 22 20.41 5.25
-2 14 22 25.24 4.09
-14 -2 -22 18.11 4.78
-2 -22 -14 23.72 4.16
-14 -22 2 17.24 4.69
14 -2 22 20.21 4.33
2 -22 14 6.42 4.44
14 4 22 40.77 5.11
4 -14 22 40.23 7.07
-14 -22 -4 52.68 6.18
4 -22 -14 37.53 5.36
-4 14 22 34.23 5.12
-14 -4 22 35.06 5.92
-14 4 22 39.34 5.69
-14 -22 4 21.21 5.54
14 -4 22 58.34 7.35
14 4 -22 42.58 6.41
4 -22 14 42.38 8.05
6 -14 22 7.61 4.02
14 6 22 7.92 2.63
-6 14 22 20.42 4.12
6 -22 -14 8.5 2.94
6 -22 -14 13.9 3.1
-14 -6 22 9.83 3.8
-14 -6 -22 18.26 5.2
14 -6 22 4.31 2.66
6 -22 14 19.3 5.7
-8 14 22 1.27 1.9
8 -14 22 -2.87 2.57
-14 -8 22 -6.75 2.53
14 8 22 1.55 1.94
14 -8 22 -3.77 2.2
8 -22 14 -2.51 3.47
16 0 22 -0.21 1.91
16 2 22 2 1.74
16 -2 22 2.39 1.55
16 4 22 4.48 2.57
-1 -23 -1 26.17 4.51
-1 -23 1 38.84 5.14
-1 -1 -23 20.95 4.85
-1 -1 23 25.89 4.64
-1 1 -23 31.43 6.25
-1 1 23 29 4.68
-1 23 -1 32.66 3.88
1 -23 -1 33.73 4.75
1 -23 1 23.29 4.39
1 -1 -23 29.57 6.08
1 -1 23 27.47 4.55
1 1 -23 31.68 5.06
1 1 23 27.46 4.57
1 23 -1 29.36 3.68
-3 -23 -1 3.23 1.84
1 3 -23 3.52 3.14
-1 -23 3 1.03 1.21
-1 -3 -23 -2.35 1.7
1 -23 -3 -0.25 1.15
3 1 23 0.61 1.26
-1 3 23 0.68 1.42
-3 1 -23 -3.59 1.49
3 -1 -23 -0.5 1.61
-1 23 -3 -1.25 0.69
3 -23 1 0.95 1.49
-3 -23 1 -0.1 1.32
-1 -23 -3 0.41 1.34
-1 -23 -3 -0.76 0.73
-3 23 -1 1.12 0.77
3 -23 -1 -1.11 1.17
-1 -3 23 -1.91 1.19
1 -23 3 0.22 1.45
1 23 -3 0.41 0.82
1 3 23 1.42 1.6
3 1 -23 1.43 1.68
-1 3 -23 -0.96 1.52
-3 1 23 -0.03 1.36
-3 -1 -23 -1.29 1.45
-3 -23 3 9.07 3.07
-3 -3 23 10.05 3.21
-3 3 -23 8.15 3.47
3 -23 3 8.74 2.86
3 -3 -23 10.51 4.11
3 -3 23 15.65 3.86
-3 -3 -23 18.07 4.73
3 23 -3 13.96 2.48
-3 3 23 13.84 3.36
-3 23 -3 14.99 2.52
3 -23 -3 12.08 3.02
3 -23 -3 11.76 2.81
-3 -23 -3 13.2 3.29
3 3 23 11.02 3.04
-5 -1 23 -1.04 1.29
1 -23 -5 0.66 1.23
1 -23 -5 -0.16 1.05
5 -1 -23 -2.63 1.45
5 23 -1 -0.48 0.86
5 -23 1 2.03 1.84
-1 -23 5 0.65 1.59
-1 5 23 -0.09 1.22
1 5 -23 -0.59 1.55
5 1 23 -0.5 1.54
-1 23 -5 -1.16 0.43
-5 -23 -1 2.62 1.25
1 -5 23 -1.34 1.61
-5 1 -23 -2.68 1.65
5 1 -23 -2.28 1.27
5 -1 23 0.64 1.56
1 -23 5 -0.46 1.31
-5 1 23 0.19 1.08
-1 5 -23 2.02 2.09
-5 -23 1 0.09 1.03
-1 -5 23 1.89 1.9
1 5 23 1.98 1.48
5 -23 -1 -0.02 1.55
1 23 -5 -1.37 0.55
-5 -1 -23 -3.21 1.36
-5 23 -1 0.11 0.81
-1 -23 -5 1.07 1.33
5 -23 -1 -0.73 0.86
3 -23 -5 15.57 3.54
3 -5 23 12.61 3.7
-3 5 23 23.61 4.27
-5 -23 -3 19.21 3.46
5 23 -3 22.02 3.15
5 -3 -23 17.11 4.7
5 -23 3 24.53 4.77
5 3 23 15.88 3.79
-3 -23 5 17.48 4.29
-3 23 -5 19.38 3
3 -23 -5 18.59 3.75
-5 -3 23 17.55 4.09
-5 3 -23 26.98 5.72
-3 -5 -23 21.54 5.03
5 -23 -3 18.67 3.69
-5 3 23 25.61 3.93
-3 5 -23 18.69 4.59
-3 -23 -5 21.37 3.67
-5 -3 -23 19.59 4.85
3 5 23 22 3.65
5 -23 -3 22.83 4.34
-5 -23 3 11.52 3.28
-5 23 -3 20.45 2.84
-3 -5 23 14.54 4.12
3 23 -5 18.1 2.85
5 -3 23 19.03 4.15
3 -23 5 14.94 4.18
-5 -23 5 30.51 5.08
-5 -5 23 23.48 5.06
-5 5 -23 41.29 6.08
-5 5 23 27.55 4.59
-5 -5 -23 35.75 6
-5 -23 -5 40.55 4.81
-5 23 -5 32.03 3.99
5 -23 -5 34.03 4.61
5 -23 -5 30.15 4.42
5 -5 -23 34.86 6.09
5 -5 23 28.48 4.94
5 5 23 25.88 4.25
5 23 -5 25.4 3.76
-5 -23 -5 33.16 4.92
-7 -23 -1 19.08 3.91
1 -23 -7 10.49 2.77
1 -23 -7 18.49 3.76
-1 7 23 12.54 3.01
1 -7 23 16.27 4.1
1 7 -23 12.72 3.77
-1 23 -7 16.79 2.82
7 -1 -23 15.5 4.42
-7 1 -23 11.9 4.1
-1 -23 7 17.04 4.3
-7 -1 23 14.46 3.91
7 -23 1 15.29 3.76
7 1 23 14.03 3.36
-7 1 23 18.09 3.89
1 7 23 11.84 2.86
-1 -7 23 17.88 4.27
-7 -23 1 15.05 3.39
-1 7 -23 14.04 3.79
7 -1 23 13.83 3.6
1 -23 7 11.87 3.66
1 23 -7 14.18 2.93
7 -23 -1 22.76 3.16
-1 -23 -7 18.81 3.26
7 1 -23 14.39 4.04
-7 -1 -23 20.76 5.29
7 -23 -1 13.57 3.56
-3 7 23 -2.13 0.97
3 -7 23 -2.4 1.41
-3 23 -7 0.13 0.84
-3 -7 -23 -3.03 1.43
-7 -23 -3 0.43 1.47
-7 -23 -3 -1.48 0.68
7 -3 -23 -0.06 1.73
3 -23 -7 -2.15 0.92
-7 3 -23 1.37 1.95
7 -23 3 2.89 2
7 23 -3 -0.04 0.84
-7 -3 23 -2.51 1.42
7 3 23 1.69 1.45
-3 -23 7 -2.16 1.47
3 7 23 1.59 1.03
-3 7 -23 -0.79 1.65
-7 -3 -23 0.32 1.65
-3 -23 -7 0.51 0.97
-3 -23 -7 -2.24 0.92
-7 3 23 -2.23 0.9
3 23 -7 0.22 0.9
7 3 -23 -1.22 1.61
-7 23 -3 -1.01 0.85
-7 -23 3 -0.97 1.68
7 -23 -3 -0.23 1.1
3 -23 7 0.49 1.93
7 -3 23 0.41 1.02
-3 -7 23 -1.37 1.47
7 -23 -3 -0.65 1.36
5 -23 -7 5.09 1.92
-5 -7 -23 8.11 3.09
-7 5 -23 5.83 2.83
7 -23 5 2.06 2.23
-5 7 23 5.61 2.16
7 -5 -23 5.9 3.25
5 -7 23 5.46 2.6
7 5 23 4.65 2.14
-5 23 -7 4.8 1.7
-7 -23 -5 4.88 1.88
5 -23 -7 7.05 2.12
-5 -23 7 3.53 2.1
-7 -23 -5 6.58 1.88
-7 -5 23 4.59 2.59
-7 -23 5 3.12 2.39
-7 5 23 5.9 2.2
-5 -7 23 5.31 2.82
5 -7 -23 6.16 2.79
-7 23 -5 3.7 1.68
5 -23 7 1.16 2.34
7 -5 23 2.67 2.49
7 -23 -5 4.78 1.93
-5 -23 -7 3.89 1.62
5 7 23 5.27 1.84
-7 -5 -23 2.89 2.49
-5 7 -23 7.09 2.66
5 23 -7 4.76 1.72
7 -23 -5 0.99 1.47
-7 -7 23 4.81 2.97
-7 7 -23 5.85 2.92
-7 -23 -7 1.01 1.76
-7 -23 -7 7.23 2.51
-7 -23 7 1.32 2.25
7 -23 -7 6.72 2.27
-7 23 -7 7.32 2
-7 -7 -23 7.75 3.44
7 7 23 4.13 2.03
7 -7 23 -0.37 2.52
7 -23 -7 7.49 2.53
7 -23 7 11.16 3.32
7 -7 -23 2.13 3.94
-1 -23 9 13.77 4.29
1 -9 23 19.54 4.47
9 -1 -23 20.72 5.81
9 -23 1 18.46 4.35
1 -23 -9 21.18 3.7
1 9 -23 27.98 4.87
9 1 23 21.62 4.31
-1 23 -9 17.32 3.58
-1 9 23 24.65 3.98
1 -23 -9 29.73 4.19
1 23 -9 21.93 3.52
-1 9 -23 19.14 4.53
-1 -23 -9 25.04 3.49
1 -23 9 16.49 4.94
9 -23 -1 19.29 3.56
1 9 23 26.04 4.06
9 -1 23 24.39 4.36
9 -23 -1 23.89 4.73
-9 -1 -23 24.73 5.72
-9 1 23 18.29 3.99
-1 -9 23 19.35 4.68
9 1 -23 21.92 5.37
-9 -23 1 31.14 6.2
-9 -23 -3 -0.97 0.89
3 -9 23 -2.65 1.92
9 3 23 1.13 1.52
-3 -9 -23 1.77 1.76
9 -3 -23 0.16 1.54
9 -23 3 -0.91 1.6
3 -23 -9 0.04 1.37
3 -23 -9 2.67 1.53
-3 9 23 1.88 1.56
-3 23 -9 3.12 1.61
-3 -23 9 0.81 2
3 23 -9 1.3 1
-9 -23 3 0.94 1.85
3 -23 9 -2.11 1.86
3 9 23 1.86 1.73
-9 -3 -23 -2.05 1.82
-9 23 -3 1.57 1.24
-3 -9 23 -0.06 2.08
-3 9 -23 -0.74 1.68
-3 -23 -9 -0.46 1.6
-9 3 23 0.52 1.73
9 3 -23 -1 1.76
9 -3 23 -0.33 1.82
9 -23 -3 -0.88 1.4
9 -23 -3 -0.33 1.07
9 -23 5 0.37 2.02
5 -23 -9 1.29 1.35
-5 -9 -23 -3.82 1.46
-5 23 -9 -0.08 1.02
5 -9 23 -1.36 1.84
-9 5 -23 -1.36 1.7
-9 -5 23 2.84 2.15
-5 9 23 -0.48 1.39
-9 -23 -5 -0.52 1.09
-5 -23 9 -1.32 1.94
9 -5 -23 -0.95 2.01
5 -23 -9 -2.46 0.91
9 5 23 -0.08 1.47
9 5 -23 -0.81 1.61
-5 -23 -9 0.54 1.2
-5 9 -23 0.82 1.76
-9 -5 -23 -2.82 1.45
-9 5 23 0.62 1.04
-5 -9 23 -0.02 2.32
9 -5 23 -3.72 1.46
5 23 -9 -0.58 0.86
5 -23 9 2.08 2.5
-9 -23 5 -0.2 1.91
5 9 23 -0.02 1.35
9 -23 -5 -1.04 1.34
7 -9 23 12.16 3.79
-7 9 23 11.02 3.04
-9 -7 23 12.79 4.23
-7 -23 9 16.81 4.5
-9 7 -23 16.21 4.87
7 -23 -9 8.31 2.81
9 7 23 9.25 2.83
7 -23 -9 16.54 3.45
9 -23 7 2.72 2.53
9 -7 -23 7.98 3.81
-9 -7 -23 13.15 3.98
-9 -23 7 9.21 3.5
-7 -9 23 12.66 3.77
-7 -23 -9 11.11 2.92
7 -23 9 15.01 4.47
9 -23 -7 12.07 3.05
7 -9 -23 6.03 3.43
9 7 -23 17.08 4.25
7 9 23 15.65 3.21
-9 7 23 11.96 3.21
9 -7 23 11.41 3.44
9 9 23 22.53 4.08
-9 9 23 24.55 5.69
9 -9 -23 15.62 4.87
9 -9 23 23 4.87
9 -23 -9 23.57 4.11
9 -23 9 31.02 9.3
-9 -9 23 21.88 5.64
11 -1 -23 1.89 2.8
-11 -23 -1 6.74 2.1
11 -23 1 -0.8 2.01
1 -11 23 -1.63 2.29
-11 1 -23 4.94 2.49
-1 -23 11 -2.82 2.7
-11 -1 23 3.82 2.68
-1 23 -11 3.09 1.83
11 -23 1 3.62 1.89
11 1 23 1.82 1.55
1 -23 -11 0.13 1.22
1 -23 -11 1.74 1.76
-11 -23 -1 2.03 1.73
-1 11 23 2.7 1.88
11 1 -23 6.07 2.98
1 11 23 4.86 2.24
-1 -11 23 0.13 2.43
-11 1 23 -0.98 1.62
-1 -23 -11 1.87 1.71
-1 11 -23 3.01 2.71
-11 -23 1 2.93 2.14
1 23 -11 4.67 1.92
11 -23 -1 3.08 2.11
11 -23 -1 4.34 2.07
1 -23 11 -0.49 2.68
11 -1 23 -0.73 1.39
-11 -1 -23 0.72 2.52
3 -23 -11 6.66 3.8
11 -23 3 4.78 2.56
3 -11 23 4.03 2.87
11 -3 -23 0.05 1.9
-3 -23 11 8.15 3.76
-11 -3 23 5.08 2.48
-11 -23 -3 5.52 2.1
11 3 23 4.99 2.35
-3 11 23 5.32 2.3
-11 -23 -3 7.76 2.92
-11 3 -23 6.28 3
-3 11 -23 3.05 2.74
-11 -23 3 1.28 1.78
-3 -11 23 4.52 3.03
11 -3 23 7.36 2.93
3 -11 -23 4.01 3.18
11 -23 -3 4.08 2.17
3 11 23 6.59 2.38
-11 3 23 2.54 2.23
3 -23 11 -1.87 2.28
11 3 -23 0.75 2.81
5 -23 -11 2.58 2.12
-5 -23 11 4.52 3.14
11 -23 5 9.87 3.72
11 5 23 11.31 3.43
-11 -5 23 6.07 3.09
5 -11 23 7.45 3.5
5 -23 -11 7.84 2.22
-5 11 23 5.8 2.56
-11 -23 -5 0.21 1.87
11 -5 -23 13.37 3.22
5 -23 11 -0.01 2.55
11 -23 -5 5.59 2.45
-11 -23 5 6.62 3.29
11 5 -23 4.95 2.17
5 -11 -23 0.6 2.41
-5 -23 -11 8.25 2.9
11 -5 23 7.29 2.9
-5 -11 23 3.32 3.33
5 11 23 0.53 2.68
11 -23 -5 6.15 2.29
-5 11 -23 8.96 3.17
-11 5 23 10.81 2.71
7 -23 -11 1.75 1.7
-7 11 23 2.11 1.22
7 -11 23 0.47 2.74
-11 -7 23 -0.49 2.12
-7 23 -11 2.13 1.54
11 -7 -23 -0.99 2.26
11 -23 7 -0.32 2.43
7 -23 11 3.65 2.99
11 -23 -7 -0.21 1.67
11 -7 23 3.24 1.82
-11 7 23 -0.53 1.52
9 -23 -11 1.19 2.43
9 -23 -11 6.27 2.65
9 -11 23 2.08 2.88
-9 11 23 1.73 1.94
11 -9 23 6.38 3.17
9 -23 11 7.23 4.06
9 -11 -23 5.38 5.01
-13 -23 -1 2.78 2.47
13 1 23 5.9 1.75
-13 -1 23 2.38 2.03
-13 1 -23 -1.59 2.33
1 -23 -13 1.03 1.76
-13 1 23 -1.22 1.96
1 -23 13 -5.08 2.43
13 -1 23 0.64 1.57
13 1 -23 -0.95 2.06
-13 -23 1 6.62 3.58
-13 -3 23 21.95 5.05
3 -23 -13 22.28 4.06
13 3 23 26.92 4.12
13 -3 23 23.83 4.33
13 3 -23 33.91 5.53
3 -23 13 15.54 5.42
-13 -5 23 28.36 5.81
13 -5 -23 18.82 5.38
5 -23 -13 24.61 4.13
13 5 23 23.03 4.51
-13 5 23 25.59 4.23
13 -5 23 32.85 4.94
5 -23 13 13.33 5.08
-13 -7 23 -2.73 2.71
7 -23 -13 3.33 1.72
13 -7 -23 -1.35 2.38
7 -23 13 4.17 4.1
13 -7 23 1.01 2.52
15 -1 -23 1.88 2.43
15 1 23 -0.23 1.71
15 -1 23 0.71 1.83
-15 -3 23 -4.45 2.37
15 -3 23 0.17 1.85
0 -24 0 90.89 9.27
0 0 -24 77.96 9.9
0 0 24 84.44 9.2
0 24 0 89.23 8.23
-2 -24 0 27.79 4.74
0 -2 24 34.13 5.18
0 2 -24 29.44 5.36
0 2 24 24.19 4.47
2 -24 0 25.18 4.62
2 24 0 28.04 3.69
2 0 24 26.14 4.66
-2 0 -24 24.32 5.74
-2 0 24 30.04 4.56
0 -24 -2 35.36 4.72
0 -24 2 28.18 4.96
0 24 -2 33.57 4.07
2 -24 2 14.32 3.64
2 -24 -2 18 3.88
2 -24 -2 14.1 3.17
-2 -2 -24 9.51 3.84
-2 -2 24 15.29 4.01
-2 2 24 6.12 3.13
-2 24 -2 9.76 2.39
-2 -24 -2 12.98 3.18
-2 -24 2 15.55 3.8
-2 2 -24 19.87 4.78
2 24 -2 14.46 3.08
2 -2 24 5.28 2.61
-4 0 -24 0.03 2.23
0 -24 -4 3.16 1.66
0 -24 4 5.92 2.5
0 24 -4 3.33 1.37
-4 0 24 -0.93 1.38
0 -4 -24 0.06 2.03
0 4 24 1.92 1.59
-4 -24 0 0.38 0.97
0 -4 24 2.55 1.78
0 4 -24 -0.01 1.34
4 24 0 1.87 1.15
4 -24 0 1.98 1.95
4 0 24 0.97 1.91
4 -24 2 3.38 2.19
4 2 24 -0.84 0.9
-4 -24 -2 -0.99 0.97
-2 -4 -24 2 2.31
-2 4 24 -1.13 1.7
-4 -2 24 0.28 1.72
-4 2 -24 2.31 2.27
-2 -24 4 -1.96 0.98
-2 24 -4 -0.3 0.66
2 -24 -4 0.83 1.46
-4 -24 -2 0.7 1.24
4 24 -2 -0.29 0.7
2 -4 24 -1.46 0.92
2 -24 -4 -1.22 0.8
-2 -24 -4 0.94 1.24
-2 -4 24 -0.3 1.62
-4 2 24 -1.62 1.42
2 -4 -24 1.22 2.01
-4 -24 2 -2.11 0.83
-4 24 -2 0.97 0.75
4 -24 -2 -0.89 1.39
4 -2 24 0.4 1.37
-2 -24 -4 1.71 1.26
2 -24 4 2.89 1.99
4 -24 -2 -0.18 1.06
4 2 -24 0.53 1.68
-4 -2 -24 0.92 2.46
2 4 24 0.9 1.34
-4 4 -24 17.84 4.44
-4 -4 -24 11.57 4.02
-4 -24 -4 13.84 2.89
-4 -24 4 16.04 3.8
4 -24 4 14.06 3.61
4 -4 -24 15.91 5.94
4 -4 24 7.64 3.2
4 4 24 8 2.82
4 24 -4 16.37 2.66
4 -24 -4 11.76 3.38
4 -24 -4 13.16 2.96
-4 24 -4 11.76 2.74
-4 -4 24 19.17 4.3
-4 4 24 13.95 3.75
-4 -24 -4 15.17 3.44
6 0 -24 28.49 5.85
0 -24 -6 19.85 3.34
-6 -24 0 16.54 3.75
0 24 -6 17.91 3.03
0 -6 24 21.59 4.77
0 6 -24 11.96 4.24
0 6 24 18.54 3.35
0 -24 -6 23.8 3.64
6 -24 0 20.5 4.55
6 -24 0 15.93 3.58
0 -6 -24 17.93 6.63
-6 0 -24 16.96 4.58
-6 0 24 16.21 4.07
0 -24 6 22.7 3.98
2 -6 24 5.32 2.8
6 -24 2 8.68 3.26
-2 24 -6 5.04 1.81
-2 -24 6 5.8 2.75
-6 -24 -2 5.96 1.92
-6 -24 -2 3.24 2.08
-2 -6 -24 7.71 3.08
2 -24 -6 7.05 2.54
-2 6 24 6.49 2.16
-6 2 -24 5.14 3.06
-6 -2 24 8.45 2.74
2 -24 -6 1.98 1.94
6 24 -2 5.52 1.98
6 2 24 10.09 2.48
6 -2 -24 5.16 2.83
6 -2 24 9.21 2.41
-6 2 24 3.61 1.9
6 -24 -2 0.58 1.42
-2 -24 -6 3.73 2.07
6 -24 -2 4.01 2.24
-2 -6 24 3.86 2.95
-6 -24 2 10.4 3.23
2 -24 6 7.07 2.78
2 24 -6 7.21 2.02
-6 -2 -24 8.48 3.75
6 2 -24 0.04 2.17
2 6 24 4.91 2.33
-6 -4 24 4.08 2.65
4 -6 24 2.08 2.46
4 -24 -6 4.96 2.12
-6 -24 -4 3.72 1.71
6 -24 4 1.86 1.93
-6 4 -24 1.17 1.85
4 -24 -6 6.12 2.18
-4 6 24 3.53 2.07
6 4 24 5.58 1.78
-4 -24 6 9.62 2.28
6 -4 -24 3.05 2.97
6 24 -4 2.68 1.34
-4 -6 -24 7.57 3.42
6 -24 -4 6.02 1.98
6 -24 -4 4.34 2.07
-6 -4 -24 3.96 2.74
-4 -24 -6 5.57 2.4
4 6 24 2.99 1.39
-6 -24 4 7.31 2.51
-4 -24 -6 3.25 1.79
4 -24 6 3.45 2.48
4 24 -6 4.1 1.42
-6 4 24 3.49 1.84
6 -4 24 0.57 1.94
-4 6 -24 -0.78 1.95
-6 -24 -6 -1.4 1.41
6 -24 -6 2.25 1.49
6 -6 -24 -1.24 1.81
-6 6 -24 -0.98 2.13
-6 6 24 2.26 1.37
-6 -6 -24 -0.35 2.04
6 -24 -6 -2.45 0.92
-6 -24 6 -1.02 1.78
-6 -6 24 0.11 1.42
6 -6 24 1.59 2.21
6 6 24 -1.35 1.23
6 -24 6 0.13 2.18
0 -24 -8 45.27 5.97
8 -24 0 51.22 6.64
0 -24 8 55.13 7.29
0 8 -24 67.09 7.71
0 8 24 43.06 5.6
8 0 -24 48.46 7.16
8 -24 0 46.24 5.67
-8 0 24 57.12 6.68
0 24 -8 57.18 5.83
-8 -24 0 52.72 6.72
0 -8 24 45.45 6.54
-8 0 -24 35.84 6.93
8 0 24 38.18 5.95
8 2 24 35.31 4.89
2 -24 -8 22.36 4.57
8 -24 2 26.86 4.7
-2 24 -8 29.12 3.93
-2 -24 8 25.94 5.71
-8 -24 -2 27.18 4.21
8 -2 -24 23.91 5.96
-2 8 24 28.42 4.48
2 -8 24 23.07 5.15
-8 2 -24 23.54 5.96
-8 -2 24 33.57 5.19
-8 2 24 21.12 5.72
-2 -24 -8 33.84 4.34
8 -2 24 24.91 4.58
8 2 -24 21.93 5.81
-8 -24 2 20.55 4.62
8 -24 -2 29.01 4.83
8 -24 -2 25.97 4.1
-2 8 -24 33.96 5.37
2 24 -8 28.36 3.86
-2 -8 24 33.82 5.41
2 8 24 28.65 4.43
-8 -2 -24 31.3 6.35
2 -24 8 31.08 6.29
8 4 24 3.85 2.06
-4 8 24 1.38 1.25
4 -24 -8 3.17 1.62
4 -24 -8 3.64 2.21
-8 -24 -4 4.26 2.28
8 -4 -24 5.96 3.26
-8 -4 24 1.33 2
4 -8 24 3.66 2.76
-4 -24 8 5.15 2.7
-4 24 -8 3.97 1.63
8 -24 4 5.46 2.98
4 -8 -24 0.51 2.11
-8 -4 -24 5.88 2.47
-4 -24 -8 2.12 1.84
8 -24 -4 6.78 2.49
4 8 24 -0.81 1.64
-4 -8 24 -0.56 2.6
-4 8 -24 0.69 1.89
4 -24 8 1.3 2.82
8 4 -24 4.95 2.57
-8 4 24 1.39 1.77
-8 -24 4 2.35 2.51
8 -4 24 3.59 2.38
-8 -6 24 12.66 4.51
6 -8 24 8.36 3.29
8 -6 -24 18.65 5.08
8 6 24 11.51 3.23
8 -24 6 12.55 3.88
6 -24 -8 11.68 3.3
6 -24 -8 19.33 3.84
-6 8 24 13.61 3.39
8 -24 -6 17.56 3.71
-6 8 -24 13.62 5.21
6 -24 8 16.21 5
6 8 24 15.02 3.56
-6 -8 24 10.45 4.06
-8 6 24 7.07 2.79
6 -8 -24 16.97 4.62
-8 -24 6 13.97 5.87
8 -24 -8 39.1 6.57
8 -8 24 45.92 6.77
8 -24 8 52.48 7.4
8 -24 -8 45.68 6.09
-8 8 24 54.54 6.1
10 0 -24 44.05 7.01
10 0 24 41.23 5.89
0 -24 -10 46.76 5.73
10 -24 0 45.39 6.39
-10 -24 0 49.73 6.48
0 10 24 48.94 5.84
-10 0 24 34.55 5.8
0 -24 10 38.93 6.96
10 2 24 3.44 3.39
2 -24 -10 14.03 3.68
-2 10 24 7.1 2.64
2 -10 24 10.88 3.74
-2 -24 10 17.26 4.78
10 -24 2 14.69 4.12
-10 -24 -2 4.1 3.27
2 -24 -10 16.72 3.87
-10 -2 24 14.05 4.12
10 -2 -24 9.91 4.46
10 -2 24 13.08 3.37
2 -24 10 11.34 4.51
10 2 -24 9.38 3.5
-2 -24 -10 16.84 3.6
-10 -24 2 7.26 3.67
10 -24 -2 17.16 3.9
10 -24 4 -1.59 2.11
-4 10 24 -0.08 1.64
4 -10 24 0.3 2.22
4 -24 -10 0.89 1.73
10 4 24 1.89 1.7
10 -4 -24 2.09 2.06
4 -24 10 -3.27 2.5
10 -4 24 -1.75 2.13
-6 10 24 6.27 2.8
-10 -6 24 8.76 3.8
10 -24 6 9.31 3.77
6 -24 -10 10.26 3.18
-6 24 -10 8.12 2.41
10 -24 -6 9.31 3.14
6 -24 10 12.37 4.12
-10 6 24 5.12 2.3
10 -6 24 0.09 2.36
10 -24 8 34.77 6.17
8 -24 -10 41.45 5.18
-8 10 24 34.74 5.06
-10 8 24 25.12 4.9
10 -24 -8 28.04 6.16
8 -24 10 38.62 10.98
10 -8 24 22.32 5.53
-12 0 -24 4.2 3.35
-12 0 24 -0.58 2.03
12 0 24 5.13 2.37
-12 -2 24 -1.05 1.76
-12 2 -24 -5.22 1.88
12 2 24 1.44 2.04
12 -2 24 -1.28 1.68
12 2 -24 2.66 1.65
-12 2 24 -2.22 1.95
-12 -4 24 16.07 4.64
-12 4 -24 12.57 5.39
4 -24 -12 13.43 3.76
-12 4 24 16.72 3.83
12 -4 24 8.43 3.4
6 -24 -12 -0.94 1.79
-12 6 24 -2.44 1.74
12 -6 24 1.93 2.49
-1 -25 -1 64.72 7.6
-1 -25 1 70.93 7.9
-1 -1 -25 62.51 8.42
-1 -1 25 72.28 7.85
-1 1 -25 52.76 8.06
-1 25 -1 67.72 6.57
1 -25 -1 62.19 7.66
1 -25 -1 54.58 6.63
1 -25 1 60.97 7.74
1 -1 25 60.32 7.2
1 25 -1 54.53 6.17
-3 -25 -1 10.46 2.92
-3 1 -25 2.52 2.66
3 1 25 7.65 2.87
-1 -25 3 6.64 2.78
-1 25 -3 7.57 2.09
-1 3 25 7.71 2.54
1 -25 -3 11.38 2.76
1 -3 25 1.2 2.4
3 -1 -25 4.94 3.48
3 -25 1 5.97 3.76
3 25 -1 7.37 1.93
-3 -1 25 8.3 2.7
1 -25 -3 5.53 2.46
-3 -25 1 8.78 2.62
1 -25 3 6.04 2.66
1 25 -3 7.74 2.37
1 3 25 2.83 1.87
-3 25 -1 7.18 1.98
-3 1 25 6.58 3.16
-1 -25 -3 7.05 2.89
-1 -3 25 6.44 3
-1 3 -25 9.74 3.38
3 -1 25 8.08 2.8
1 -3 -25 11.24 4.33
-3 -1 -25 11.15 3.9
-3 3 25 -3.25 1.25
-3 -25 -3 -3.55 1.56
3 25 -3 1.37 0.76
-3 25 -3 0.24 0.75
3 -25 -3 -1.35 1.52
3 -25 -3 1.07 2.01
3 3 25 0.51 1.62
-3 3 -25 0.35 1.67
-3 -25 3 -0.72 2.1
5 -25 1 4.36 2.74
1 -25 -5 12.55 3
-5 -25 -1 10.24 3.18
-1 5 25 9.27 2.96
-1 -25 5 11.95 3.94
-1 25 -5 11.36 2.53
1 -25 -5 8.38 2.79
-5 1 -25 9.76 3.69
5 1 25 16.07 3.64
-5 -1 25 11.84 3.35
1 -5 25 7.16 2.87
1 5 25 8.62 2.82
5 -25 -1 13.53 3.51
-1 -25 -5 9.84 2.63
1 -25 5 5.68 3.03
-5 1 25 5.57 2.72
-1 -5 25 7.37 3.32
-5 -1 -25 6.38 3.12
5 -25 -1 9.83 2.67
-5 -25 1 3.77 2.74
5 -1 25 7.76 3
1 25 -5 12.25 2.68
-3 5 25 -2.22 1.39
-5 -25 -3 -4.27 1.44
3 -25 -5 -0.5 0.81
5 -25 3 1.02 2.31
5 -3 -25 -3.28 1.52
3 -5 25 0.3 2.3
-3 -25 5 -2.5 1.26
-5 -3 25 -4.91 1.87
-5 3 -25 1.72 1.99
5 3 25 -1.48 1.26
3 -25 -5 -1.61 1.3
3 5 25 0.33 1.66
-5 -25 3 -2.3 2.02
-3 -5 25 0.76 2.31
5 -25 -3 -1.77 1.1
-5 3 25 -0.99 1.34
5 -3 25 -0.9 1.59
-5 25 -3 -1.01 0.75
-3 -25 -5 -0.05 1.89
5 -25 -3 1.29 2.1
-5 -5 25 2.38 2.74
-5 -25 -5 3.92 2.74
5 -25 -5 -0.6 1.45
-5 -25 5 -2.21 1.98
-5 5 25 1.67 1.81
-5 25 -5 4.11 1.55
5 -5 25 0.04 2.16
5 5 25 -1.85 1.92
5 -25 -5 2.59 1.54
5 -25 5 1.52 2.25
-7 -1 25 39.15 5.97
7 1 25 28.64 5.12
-1 7 25 31.72 4.96
7 -1 -25 36.67 6.32
7 -25 1 49.04 6.28
1 -25 -7 31.84 5.15
7 -25 -1 36.78 5.61
-7 -25 1 36.96 7.69
-7 1 25 35.82 5.53
-1 -7 25 33.84 7.39
-1 -25 -7 45.6 5.74
7 -25 3 5.05 2.52
3 -7 25 3.62 2.73
-7 -3 25 5.15 3.08
3 -25 -7 1.02 1.97
3 -25 -7 10.46 2.94
7 3 25 2.92 2
-3 7 25 2.69 2.34
3 -25 7 -0.15 2.78
7 -3 25 2.7 2.58
7 -25 -3 3.35 2.47
-7 3 25 11.01 3.11
7 -25 5 5.17 2.96
5 -25 -7 6.23 2.14
-5 7 25 1.22 1.94
5 -25 -7 6.21 2.19
-7 25 -5 3.51 1.79
7 -5 25 -0.24 2.44
5 -25 7 4.05 3.03
7 -25 -5 6.5 2.22
7 -25 -5 -0.92 1.36
-7 5 25 1.96 1.93
7 -25 -7 33.78 4.81
7 -25 -7 25.5 7.37
7 -25 7 28.56 6.31
-9 -1 25 57.82 7.44
9 1 25 63.07 7.17
9 -25 1 64.73 7.86
9 -25 -1 56.24 7.6
9 -1 25 31.69 8.35
-9 1 25 66.83 7.84
3 -25 -9 22.23 4.46
-9 -3 25 12.08 4.52
9 -25 3 11.9 4.12
3 -25 9 19.25 5.28
9 -25 -3 24.81 4.89
9 -25 -3 20.61 4.34
9 -3 25 19.75 4.58
-9 3 25 14.79 3.81
9 -25 5 20.54 4.95
5 -25 -9 21.74 4.38
9 -25 -5 16.89 3.77
5 -25 9 14.14 4.81
9 -25 -5 11.81 3.55
-9 5 25 11.88 3.29
7 -25 -9 39.88 6.01
9 -25 7 45.59 8.2
9 -25 -7 39.26 5.91
7 -25 9 37.4 7.74
-11 1 25 8.75 3.14
-11 3 25 -1.94 2.06
0 -26 0 83.87 9.38
-2 -26 0 13.87 3.79
2 -26 0 28.09 4.85
0 -26 -2 16.83 4.21
0 -26 2 16.21 4.23
2 -26 2 3.21 2.47
-2 -26 2 3.73 2.63
2 -26 -2 3.2 2.21
2 -26 -2 0.78 1.43
-2 -26 -2 0.49 2.34
0 -26 4 5.8 2.97
4 -26 0 0.25 2.35
4 -26 0 4.07 2.14
0 -26 -4 6.24 2.78
4 -26 2 -5.18 2.15
2 -26 -4 -0.34 2.01
4 -26 -2 -3.93 1.58
4 -26 -2 2.88 1.43
2 -26 4 0.49 2.6
4 -26 -4 2.49 2.92
4 -26 -4 3.81 2.48
4 -26 4 5.52 3.01
6 -26 0 24.01 5.28
6 -26 2 6.47 2.81
6 -26 -2 6.31 2.44
4 -26 -6 -4.18 1.83
6 -26 4 0.4 2.39
4 -26 6 -2.68 2.57
6 -26 -4 2.13 1.91
6 -26 6 -0.89 3.21
6 -26 -6 0.66 2.07
8 -26 0 47.89 7.04
8 -26 2 13.8 4.39
8 -26 -2 17.85 4.3
8 -26 4 7.7 3.8
8 -26 -4 10.82 3.37
5 -27 1 2.08 3.53
5 -27 -1 2.68 4.52
