#------------------------------------------------------------------------------
#$Date: 2019-11-26 01:41:52 +0200 (Tue, 26 Nov 2019) $
#$Revision: 242304 $
#$URL: file:///home/coder/svn-repositories/cod/cif/4/13/23/4132307.cif $
#------------------------------------------------------------------------------
#
# This file is available in the Crystallography Open Database (COD),
# http://www.crystallography.net/
#
# All data on this site have been placed in the public domain by the
# contributors.
#
data_4132307
loop_
_publ_author_name
'Huxley, Michael T.'
'Burgun, Alexandre'
'Ghodrati, Hanieh'
'Coghlan, Campbell J.'
'Lemieux, Anthony'
'Champness, Neil R.'
'Huang, David M.'
'Doonan, Christian J.'
'Sumby, Christopher J.'
_publ_section_title
;
 Protecting-Group-Free Site-Selective Reactions in a Metal-Organic
 Framework Reaction Vessel.
;
_journal_issue                   20
_journal_name_full               'Journal of the American Chemical Society'
_journal_page_first              6416
_journal_page_last               6425
_journal_paper_doi               10.1021/jacs.8b02896
_journal_volume                  140
_journal_year                    2018
_chemical_formula_sum            'C27 H30 Mn N7 O7'
_chemical_formula_weight         619.52
_space_group_crystal_system      triclinic
_space_group_IT_number           2
_space_group_name_Hall           '-P 1'
_space_group_name_H-M_alt        'P -1'
_atom_sites_solution_hydrogens   geom
_audit_creation_method           SHELXL-2014/6
_cell_angle_alpha                76.778(7)
_cell_angle_beta                 74.207(7)
_cell_angle_gamma                84.676(6)
_cell_formula_units_Z            2
_cell_length_a                   9.2015(7)
_cell_length_b                   10.7157(8)
_cell_length_c                   15.6589(12)
_cell_measurement_reflns_used    2901
_cell_measurement_temperature    150(2)
_cell_measurement_theta_max      29.0930
_cell_measurement_theta_min      3.8430
_cell_volume                     1445.5(2)
_computing_cell_refinement       'CrysAlisPro 1.171.38.43d (Rigaku OD, 2015)'
_computing_data_collection       'CrysAlisPro 1.171.38.43d (Rigaku OD, 2015)'
_computing_data_reduction        'CrysAlisPro 1.171.38.43d (Rigaku OD, 2015)'
_computing_molecular_graphics    'X-Seed (Barbour, 1999)'
_computing_structure_refinement  'SHELXL-2014/6 (Sheldrick, 2014)'
_computing_structure_solution    'SHELXS-2014 (Sheldrick, 2014)'
_diffrn_ambient_temperature      150(2)
_diffrn_detector                 'CCD plate'
_diffrn_detector_area_resol_mean 16.1695
_diffrn_detector_type            Eos
_diffrn_measured_fraction_theta_full 0.993
_diffrn_measured_fraction_theta_max 0.993
_diffrn_measurement_details
;
List of Runs (angles in degrees, time in seconds):

  # Type    Start    End  Width  t~exp~   \w     \q     \k     \f   Frames
--------------------------------------------------------------------------
  1  \w    -54.00  45.00   1.00   50.00    --   18.87 -37.00 -90.00   99
  2  \w     -7.00  91.00   1.00   50.00    --   18.87  37.00  90.00   98
  3  \w     32.00  95.00   1.00   50.00    --   18.87-178.00 -30.00   63
  4  \w    -25.00  22.00   1.00   50.00    --  -19.50 -99.00  60.00   47
  5  \w    -88.00   2.00   1.00   50.00    --  -19.50 -57.00 120.00   90
  6  \w    -25.00  22.00   1.00   50.00    --  -19.50 -99.00-120.00   47
  7  \w    -25.00  55.00   1.00   50.00    --   18.87 -99.00 120.00   80
  8  \w    -50.00 -25.00   1.00   50.00    --   18.87 -57.00 150.00   25
;
_diffrn_measurement_device       'four-circle diffractometer'
_diffrn_measurement_device_type  'Xcalibur, Eos'
_diffrn_measurement_method       '\w scans'
_diffrn_radiation_monochromator  graphite
_diffrn_radiation_probe          x-ray
_diffrn_radiation_type           'Mo K\a'
_diffrn_radiation_wavelength     0.71073
_diffrn_reflns_av_R_equivalents  0.0599
_diffrn_reflns_av_unetI/netI     0.0676
_diffrn_reflns_Laue_measured_fraction_full 0.993
_diffrn_reflns_Laue_measured_fraction_max 0.993
_diffrn_reflns_limit_h_max       11
_diffrn_reflns_limit_h_min       -11
_diffrn_reflns_limit_k_max       13
_diffrn_reflns_limit_k_min       -13
_diffrn_reflns_limit_l_max       20
_diffrn_reflns_limit_l_min       -20
_diffrn_reflns_number            24604
_diffrn_reflns_point_group_measured_fraction_full 0.993
_diffrn_reflns_point_group_measured_fraction_max 0.993
_diffrn_reflns_theta_full        27.000
_diffrn_reflns_theta_max         27.000
_diffrn_reflns_theta_min         3.290
_diffrn_source                   'fine-focus sealed X-ray tube'
_diffrn_source_type              'Enhance (Mo) X-ray Source'
_exptl_absorpt_coefficient_mu    0.514
_exptl_absorpt_correction_T_max  1.00000
_exptl_absorpt_correction_T_min  0.95412
_exptl_absorpt_correction_type   multi-scan
_exptl_absorpt_process_details
;
CrysAlisPro 1.171.38.43d (Rigaku Oxford Diffraction, 2015)
Empirical absorption correction using spherical harmonics,
 implemented in SCALE3 ABSPACK scaling algorithm.
;
_exptl_crystal_colour            'pale yellow'
_exptl_crystal_density_diffrn    1.423
_exptl_crystal_description       rod
_exptl_crystal_F_000             644
_exptl_crystal_size_max          0.490
_exptl_crystal_size_mid          0.100
_exptl_crystal_size_min          0.050
_refine_diff_density_max         0.360
_refine_diff_density_min         -0.417
_refine_diff_density_rms         0.060
_refine_ls_extinction_method     none
_refine_ls_goodness_of_fit_ref   1.022
_refine_ls_hydrogen_treatment    constr
_refine_ls_matrix_type           full
_refine_ls_number_parameters     386
_refine_ls_number_reflns         6289
_refine_ls_number_restraints     0
_refine_ls_restrained_S_all      1.022
_refine_ls_R_factor_all          0.0722
_refine_ls_R_factor_gt           0.0455
_refine_ls_shift/su_max          0.000
_refine_ls_shift/su_mean         0.000
_refine_ls_structure_factor_coef Fsqd
_refine_ls_weighting_details
'w=1/[\s^2^(Fo^2^)+(0.0336P)^2^+0.4151P] where P=(Fo^2^+2Fc^2^)/3'
_refine_ls_weighting_scheme      calc
_refine_ls_wR_factor_gt          0.0880
_refine_ls_wR_factor_ref         0.0971
_reflns_Friedel_coverage         0.000
_reflns_number_gt                4675
_reflns_number_total             6289
_reflns_threshold_expression     'I > 2\s(I)'
_cod_data_source_file            ja8b02896_si_001.cif
_cod_data_source_block           '[MnL(CO)3(DMT)]'
_cod_database_code               4132307
_shelx_space_group_comment
;
The symmetry employed for this shelxl refinement is uniquely defined
by the following loop, which should always be used as a source of
symmetry information in preference to the above space-group names.
They are only intended as comments.
;
_shelx_estimated_absorpt_t_min   0.787
_shelx_estimated_absorpt_t_max   0.975
_shelxl_version_number           2014/6
_shelx_res_file
;
REM TRMX  1.000  0.000  0.000  0.000  1.000  0.000  0.000  0.000  1.000 aP  1
REM SPGR P-1
REM  MnMolsp_DMAD in P-1              New: P-1
REM R1 =  0.0687 for    4979 Fo > 4sig(Fo)  and  0.1024 for all    6997 data
REM    379 parameters refined using      0 restraints
REM Highest difference peak  0.924,  deepest hole -0.308,  1-sigma level  0.113
REM  MnMolsp_DMAD in P-1              New: P-1
REM R1 =  0.0455 for    4675 Fo > 4sig(Fo)  and  0.0722 for all    6289 data
REM    386 parameters refined using      0 restraints
REM Highest difference peak  0.360,  deepest hole -0.417,  1-sigma level  0.060
REM  MnMolsp_DMAD in P-1              New: P-1
REM R1 =  0.0455 for    4675 Fo > 4sig(Fo)  and  0.0722 for all    6289 data
REM    386 parameters refined using      0 restraints
REM Highest difference peak  0.360,  deepest hole -0.417,  1-sigma level  0.060
REM  MnMolsp_DMAD in P-1              New: P-1
REM R1 =  0.0455 for    4675 Fo > 4sig(Fo)  and  0.0722 for all    6289 data
REM    386 parameters refined using      0 restraints
REM Highest difference peak  0.360,  deepest hole -0.417,  1-sigma level  0.060
TITL MnMolsp_DMAD in P-1              New: P-1
CELL 0.71073 9.2015 10.7157 15.6589 76.778 74.207 84.676
ZERR 2.0000 0.0007 0.0008 0.0012 0.007 0.007 0.006
LATT 1
SFAC C H MN N O
UNIT 54 60 2 14 14
MERG 2
OMIT -2 54
FMAP 2
GRID
PLAN 20
TEMP -123
SIZE 0.49 0.1 0.05
BOND $H
CONF
L.S. 20
ACTA 54
WGHT    0.033600    0.415100
FVAR       2.67304
MN1   3    0.903663    0.417818    0.345141    11.00000    0.01093    0.02361 =
         0.02106   -0.01119   -0.00050   -0.00125
O1    5    1.504573    0.275893    0.171681    11.00000    0.00930    0.03622 =
         0.02942   -0.01732   -0.00294    0.00134
O9    5    1.460627    0.221299    0.051081    11.00000    0.01753    0.05516 =
         0.02642   -0.02099   -0.00095    0.00244
O12   5    1.044085    0.141605    0.042290    11.00000    0.04554    0.03011 =
         0.03481   -0.01121   -0.02404    0.00002
O13   5    0.718552    0.532843    0.494941    11.00000    0.02535    0.03670 =
         0.03039   -0.01977    0.00445   -0.00133
O15   5    1.215260    0.026211    0.107970    11.00000    0.03471    0.02979 =
         0.04378   -0.02409   -0.01772    0.01261
O27   5    1.037154    0.288753    0.494918    11.00000    0.02717    0.07019 =
         0.02882   -0.01652   -0.01249    0.00648
O50   5    1.106000    0.631721    0.313824    11.00000    0.03488    0.05945 =
         0.06355   -0.03805    0.01176   -0.02844
N4    4    1.047629    0.331612    0.249927    11.00000    0.00989    0.02058 =
         0.01979   -0.00742   -0.00336   -0.00060
N5    4    0.803399    0.504586    0.242245    11.00000    0.00943    0.01655 =
         0.02385   -0.00423    0.00183    0.00033
N6    4    0.756764    0.273622    0.367919    11.00000    0.01162    0.02164 =
         0.01743   -0.00753   -0.00303    0.00054
N17   4    1.197977    0.336356    0.231384    11.00000    0.01036    0.02006 =
         0.02004   -0.00658   -0.00373    0.00096
N21   4    1.002831    0.261650    0.201718    11.00000    0.01361    0.02140 =
         0.01939   -0.00743   -0.00405   -0.00001
N22   4    0.609466    0.301368    0.362984    11.00000    0.01204    0.01733 =
         0.01734   -0.00275   -0.00286   -0.00023
N26   4    0.649939    0.502001    0.255211    11.00000    0.01166    0.01622 =
         0.02105   -0.00493    0.00023    0.00073
C16   1    0.783940    0.490232    0.433321    11.00000    0.01414    0.02220 =
         0.02723   -0.00483   -0.00236   -0.00613
C31   1    0.557206    0.433796    0.340185    11.00000    0.01248    0.01753 =
         0.02136   -0.00435   -0.00078    0.00101
AFIX  23
H31A  2    0.451542    0.435880    0.335998    11.00000   -1.20000
H31B  2    0.558651    0.477464    0.389231    11.00000   -1.20000
AFIX   0
C32   1    1.030775    0.548104    0.322799    11.00000    0.01715    0.04144 =
         0.02900   -0.02329    0.00535   -0.00375
C33   1    0.630028    0.092824    0.399062    11.00000    0.02385    0.01730 =
         0.02159   -0.00356   -0.00489   -0.00265
AFIX  43
H33   2    0.609093    0.004147    0.414035    11.00000   -1.20000
AFIX   0
C34   1    1.414832    0.250778    0.123527    11.00000    0.01677    0.01961 =
         0.02307   -0.00640   -0.00345    0.00247
C38   1    0.366332    0.191980    0.391557    11.00000    0.01925    0.02980 =
         0.02863   -0.00116   -0.00720   -0.00855
AFIX 137
H38A  2    0.309885    0.213336    0.449446    11.00000   -1.50000
H38B  2    0.339311    0.106635    0.389383    11.00000   -1.50000
H38C  2    0.341163    0.255541    0.341354    11.00000   -1.50000
AFIX   0
C39   1    0.989162    0.335140    0.434123    11.00000    0.01217    0.04114 =
         0.02683   -0.01815   -0.00041    0.00000
C41   1    1.123793    0.127274    0.092843    11.00000    0.01607    0.02114 =
         0.01797   -0.00389   -0.00039   -0.00359
C43   1    0.767833    0.145671    0.389122    11.00000    0.02009    0.02009 =
         0.01714   -0.00227   -0.00192    0.00207
C44   1    0.530850    0.192630    0.383209    11.00000    0.01952    0.02186 =
         0.01360   -0.00312   -0.00148   -0.00512
C46   1    1.130305    0.217697    0.150377    11.00000    0.01420    0.01691 =
         0.01596   -0.00445   -0.00316    0.00120
C47   1    1.252648    0.264455    0.168340    11.00000    0.01398    0.01655 =
         0.01810   -0.00518   -0.00445    0.00137
C57   1    0.735802    0.610681    0.117447    11.00000    0.02255    0.01997 =
         0.02345    0.00103   -0.00185   -0.00173
AFIX  43
H57   2    0.742960    0.659698    0.057744    11.00000   -1.20000
AFIX   0
C58   1    0.445561    0.588209    0.177336    11.00000    0.02046    0.02464 =
         0.03294   -0.00127   -0.00759   -0.00059
AFIX 137
H58A  2    0.395577    0.505784    0.196897    11.00000   -1.50000
H58B  2    0.441184    0.627351    0.115033    11.00000   -1.50000
H58C  2    0.394139    0.645328    0.217796    11.00000   -1.50000
AFIX   0
C59   1    0.606067    0.567212    0.180797    11.00000    0.01983    0.01412 =
         0.02571   -0.00306   -0.00561    0.00018
C60   1    0.910111    0.072455    0.401302    11.00000    0.02529    0.02724 =
         0.03879    0.00016   -0.01005    0.00610
AFIX 137
H60A  2    0.997370    0.116785    0.357709    11.00000   -1.50000
H60B  2    0.907960   -0.014071    0.390937    11.00000   -1.50000
H60C  2    0.918107    0.066739    0.463231    11.00000   -1.50000
AFIX   0
C62   1    1.019272    0.590883    0.111430    11.00000    0.01903    0.03228 =
         0.03356    0.00253    0.00241   -0.00382
AFIX 137
H62A  2    1.067764    0.615552    0.153344    11.00000   -1.50000
H62B  2    1.029678    0.659364    0.056817    11.00000   -1.50000
H62C  2    1.067788    0.511572    0.094472    11.00000   -1.50000
AFIX   0
C65   1    0.855112    0.569732    0.156756    11.00000    0.01886    0.01562 =
         0.02474   -0.00104    0.00181   -0.00119
C67   1    1.665376    0.266469    0.130031    11.00000    0.00872    0.04001 =
         0.04426   -0.02197   -0.00375    0.00121
AFIX 137
H67A  2    1.690935    0.182398    0.114123    11.00000   -1.50000
H67B  2    1.721574    0.276572    0.172827    11.00000   -1.50000
H67C  2    1.692314    0.334067    0.074991    11.00000   -1.50000
AFIX   0
C76   1    1.229257   -0.066999    0.052181    11.00000    0.05841    0.03757 =
         0.05257   -0.03326   -0.01483    0.01126
AFIX 137
H76A  2    1.128442   -0.088278    0.051297    11.00000   -1.50000
H76B  2    1.281667   -0.144776    0.077281    11.00000   -1.50000
H76C  2    1.287147   -0.031107   -0.009839    11.00000   -1.50000
AFIX   0
C54   1    0.531757    0.915168    0.225086    11.00000    0.06074    0.03177 =
         0.02787    0.00246   -0.00254   -0.00764
AFIX  43
H54   2    0.546275    0.969019    0.166303    11.00000   -1.20000
AFIX   0
C66   1    0.486883    0.758324    0.394211    11.00000    0.06630    0.02938 =
         0.02635   -0.00615   -0.00732   -0.01261
AFIX  43
H66   2    0.471891    0.703302    0.452602    11.00000   -1.20000
AFIX   0
C70   1    0.657201    0.865061    0.256640    11.00000    0.04871    0.02072 =
         0.03593   -0.00910   -0.00119   -0.00257
C72   1    0.386672    0.888141    0.277537    11.00000    0.05256    0.04002 =
         0.04812   -0.01127   -0.01460   -0.00138
AFIX  43
H72   2    0.302454    0.923734    0.255031    11.00000   -1.20000
AFIX   0
C73   1    0.631507    0.785839    0.342280    11.00000    0.05758    0.02126 =
         0.03481   -0.00736   -0.01080   -0.00340
AFIX  43
H73   2    0.714946    0.749986    0.365494    11.00000   -1.20000
AFIX   0
C75   1    0.815057    0.898410    0.201301    11.00000    0.05446    0.04593 =
         0.05497   -0.00701    0.00479   -0.00445
AFIX 137
H75A  2    0.834066    0.986537    0.202171    11.00000   -1.50000
H75B  2    0.826466    0.891083    0.138547    11.00000   -1.50000
H75C  2    0.887591    0.839359    0.227092    11.00000   -1.50000
AFIX   0
C79   1    0.364368    0.809105    0.362921    11.00000    0.05162    0.04469 =
         0.03498   -0.01724    0.00532   -0.01712
AFIX  43
H79   2    0.264916    0.790242    0.399511    11.00000   -1.20000
AFIX   0
HKLF 4

REM  MnMolsp_DMAD in P-1              New: P-1
REM R1 =  0.0455 for    4675 Fo > 4sig(Fo)  and  0.0722 for all    6289 data
REM    386 parameters refined using      0 restraints

END

WGHT      0.0336      0.4150

REM Highest difference peak  0.360,  deepest hole -0.417,  1-sigma level  0.060
Q1    1   0.8948  0.4168  0.4124  11.00000  0.05    0.36
Q2    1   0.9357  0.5150  0.3438  11.00000  0.05    0.35
Q3    1   0.5810  0.3583  0.3449  11.00000  0.05    0.34
Q4    1   0.9224  0.4020  0.2827  11.00000  0.05    0.33
Q5    1   0.9779  0.1240  0.4119  11.00000  0.05    0.32
Q6    1   1.0057  0.5057  0.2888  11.00000  0.05    0.32
Q7    1   0.9442  0.3180  0.3743  11.00000  0.05    0.31
Q8    1   1.3389 -0.0792  0.0270  11.00000  0.05    0.28
Q9    1   1.1406  0.1834  0.1196  11.00000  0.05    0.28
Q10   1   0.5586  0.1433  0.4134  11.00000  0.05    0.27
Q11   1   0.8067  0.4935  0.3698  11.00000  0.05    0.27
Q12   1   1.2013  0.2428  0.1433  11.00000  0.05    0.27
Q13   1   0.8873 -0.0089  0.4334  11.00000  0.05    0.27
Q14   1   0.7072  0.5592  0.5437  11.00000  0.05    0.26
Q15   1   0.8338  0.5106  0.1808  11.00000  0.05    0.26
Q16   1   0.9822  0.3534  0.2963  11.00000  0.05    0.26
Q17   1   0.7773  0.2994  0.4288  11.00000  0.05    0.25
Q18   1   1.0192  0.4344  0.3121  11.00000  0.05    0.25
Q19   1   0.6801  0.1163  0.4259  11.00000  0.05    0.25
Q20   1   1.7209  0.3319  0.1272  11.00000  0.05    0.25
;
_shelx_res_checksum              83630
_shelx_hkl_file
;
   0   0  -3 761.588 118.837  10
   0   0  -3 580.865 111.067  11
   0   0   3 828.473 121.143  11
   0   0  -3 810.341 106.535   3
   0   0   3 821.660 108.863   1
   0   0  -3 592.189 99.3818   1
   0   0   3 768.002 100.358   3
   0   0  -4 71652.1 1091.17  11
   0   0  -4 78827.4 1171.74  10
   0   0   4 73558.1 974.811   3
   0   0  -4 78027.2 994.937   3
   0   0   4 76864.2 1128.41  11
   0   0  -4 76389.1 1077.10   1
   0   0   4 71951.6 1045.66   1
   0   0  -5 5742.77 304.824   3
   0   0   5 5753.76 366.285  11
   0   0   5 5845.90 332.633   1
   0   0  -5 5634.82 338.079   1
   0   0  -5 5412.52 350.602  11
   0   0  -5 5697.67 359.429  10
   0   0   5 5268.02 300.511   3
   0   0   6 5099.71 355.861   1
   0   0  -6 5227.91 320.320   3
   0   0   6 4783.13 318.451   3
   0   0  -6 4853.83 358.645  11
   0   0  -7 28952.8 940.930  11
   0   0   7 29852.6 897.262   1
   0   0  -7 31261.0 837.330   3
   0   0   7 28786.3 816.705   3
   0   0  -7 27727.6 630.255   4
   0   0  -8 11695.0 647.682  11
   0   0  -8 11769.4 443.405   4
   0   0   8 12023.0 570.276   3
   0   0   8 12032.4 612.179   1
   0   0   9 297.120 133.859   3
   0   0   9 129.177 119.821   1
   0   0  -9 412.257 180.523  11
   0   0  -9 233.079 140.686   6
   0   0  -9 337.314 100.442   4
   0   0 -10 6894.52 376.472   4
   0   0  10 7119.01 493.583   3
   0   0 -10 6630.99 532.973   6
   0   0 -10 6494.91 546.896  11
   0   0  10 6921.98 520.879   1
   0   0  11 559.287 171.378   3
   0   0 -11 517.817 186.420   6
   0   0 -11 580.104 122.693   4
   0   0  11 652.728 210.152   1
   0   0 -11 292.025 164.645  11
   0   0  12 3049.20 360.124   3
   0   0 -12 3329.32 285.161   4
   0   0  12 3133.14 407.841   1
   0   0 -12 2751.27 402.608   6
   0   0 -12 3047.59 427.609  11
   0   0  13 6096.53 575.092   1
   0   0 -13 5698.11 583.510   6
   0   0  13 5579.07 503.142   3
   0   0 -13 7080.97 674.787  11
   0   0 -14 570.510 232.166  11
   0   0  14 601.549 196.460   3
   0   0  14 377.555 198.457   1
   0   0 -14 573.267 221.417   6
   0   0 -15 160.723 158.038   6
   0   0  15-76.7720 139.038   3
   0   0  15 340.360 225.028   1
   0   0 -15 195.266 212.552  11
   0   0 -16-48.7631 213.158  11
   0   0 -16-16.0933 166.955   6
   0   0  16 215.731 196.286   1
   0   0  16 125.569 152.159   3
   0   0  17-65.4151 152.514   1
   0   0 -17 231.271 214.900   6
   0   0 -17 252.070 234.350  11
   0   0 -18 1128.30 375.305  11
   0   0 -18 1555.55 401.688   6
   0   0  18 1306.38 381.740   1
   0   0 -19 1104.56 344.350   6
   0   0  19 975.133 346.039   1
   0   0  20 1508.98 457.075   1
   0  -1  19 356.918 227.605   1
   0  -1  18 109.014 179.034   1
   0   1 -18 538.328 337.331  11
   0   1 -18-186.819 228.828   6
   0   1 -17 1317.25 390.793  11
   0  -1  17 1303.62 333.983   1
   0  -1  17 652.655 224.896   3
   0   1 -17 1748.07 431.053   6
   0   1 -16 252.439 269.976  11
   0  -1  16 696.281 243.692   3
   0  -1  16 843.491 314.164   1
   0   1 -16 245.633 179.814   6
   0   1 -15 180.642 220.015   6
   0  -1  15 295.776 188.746   1
   0   1 -15 654.308 302.295  11
   0  -1  15 145.243 164.240   3
   0   1 -14 339.680 220.338  11
   0  -1  14 573.238 219.059   1
   0   1 -14 404.600 206.427   6
   0  -1  14 284.376 165.029   3
   0  -1  13 2385.82 356.549   3
   0   1 -13 2094.55 382.066   6
   0   1 -13 2357.78 404.362  11
   0   1 -13 2523.91 295.132   4
   0  -1  13 2277.12 369.117   1
   0   1 -12 7172.47 655.987  11
   0  -1  12 7562.45 596.528   3
   0   1 -12 7265.18 646.662   6
   0   1 -12 7557.82 485.762   4
   0  -1  12 7668.82 619.096   1
   0   1 -11 969.878 241.861   6
   0  -1  11 1489.84 268.153   3
   0  -1  11 1620.99 288.795   1
   0   1 -11 1553.11 311.725  11
   0   1 -11 1652.01 231.857   4
   0   1 -10 6168.97 410.962   4
   0   1 -10 5885.02 530.800   6
   0  -1  10 6585.54 511.151   1
   0   1 -10 6068.90 548.449  11
   0  -1  10 6513.41 496.731   3
   0  -1   9 312.064 127.142   1
   0   1  -9 501.759 125.762   4
   0   1  -9 618.124 210.790   6
   0   1  -9 460.067 172.648  11
   0  -1   9 453.365 157.306   3
   0   1  -8 27.0302 75.2849   4
   0   1  -8 118.315 145.015  11
   0  -1   8 153.803 109.068   3
   0  -1   8 121.779 94.1243   1
   0  -1   7 2495.98 277.251   3
   0   1  -7 2260.85 284.522  11
   0  -1   7 2118.44 245.724   1
   0  -1   6 4488.20 315.577   1
   0   1  -6 4297.41 349.618  11
   0   1  -6 4486.65 317.488   1
   0  -1   6 4273.75 323.277   3
   0  -1   5 1280.82 158.836   1
   0   1  -5 1161.87 172.937   3
   0   1  -5 1177.27 156.063   1
   0   1  -5 1300.73 184.816  10
   0  -1   5 1262.05 176.050   3
   0   1  -5 1019.79 172.161  11
   0   1  -4 2984.48 233.670  10
   0  -1   4 2828.44 246.600  10
   0   1  -4 2640.56 234.764  11
   0   1  -4 3113.60 228.506   3
   0  -1   4 3211.06 249.343   3
   0  -1   4 2753.44 206.073   1
   0   1  -4 3743.02 250.594   8
   0   1  -4 3116.43 215.392   1
   0  -1   3 45453.6 771.617  10
   0  -1   3 42922.7 760.617   3
   0   1  -3 41198.4 770.817  11
   0  -1   3 42158.6 655.267   1
   0   1  -3 45212.6 780.344   7
   0   1  -3 45159.9 786.748   3
   0   1  -3 44955.1 677.027   1
   0   1  -3 45750.0 780.792  10
   0  -1   2 20110.9 434.851  10
   0   1  -2 20109.7 432.375   8
   0  -1   2 20086.0 457.610   7
   0   1  -2 20636.8 470.568   3
   0  -1   2 19384.2 361.323   1
   0   1  -2 20221.8 364.579   1
   0  -1   2 18739.5 450.258   3
   0   1  -2 19916.3 429.963  10
   0   1  -2 20316.0 461.405   7
   0  -1  -3 29051.2 577.227  11
   0   1   3 27814.5 568.892   5
   0   1   3 29941.2 590.115  11
   0  -1  -3 30015.0 601.009   5
   0   1   3 28588.7 597.068   1
   0  -1  -3 29947.1 626.004   1
   0  -1  -4 3828.97 265.267  10
   0  -1  -4 4151.26 285.304   1
   0   1   4 3413.90 249.630   1
   0   1   4 3959.86 259.694  11
   0   1   4 3456.69 196.721   3
   0  -1  -4 3672.13 242.077   5
   0  -1  -4 3481.53 242.763  11
   0  -1  -5 29526.1 791.039  10
   0  -1  -5 25989.7 694.268   5
   0  -1  -5 29788.9 789.761   1
   0  -1  -5 26105.0 727.234  11
   0   1   5 28100.1 746.853  11
   0   1   5 27091.8 741.328   1
   0   1   5 25950.4 598.119   3
   0   1   6 101536. 1559.71   1
   0  -1  -6 107523. 1516.81   5
   0  -1  -6 98552.8 754.288   4
   0   1   6 97399.3 1275.44   3
   0  -1  -6 101304. 1568.19  11
   0   1   7 3233.24 261.762   3
   0  -1  -7 3457.18 164.024   4
   0   1   7 3610.47 328.804   1
   0  -1  -7 3401.97 334.634  11
   0  -1  -8-108.113 131.093  11
   0  -1  -8 85.3494 37.3951   4
   0   1   8 28.2486 103.847   1
   0   1   9 27779.4 865.984   3
   0  -1  -9 26588.3 943.681   6
   0  -1  -9 27114.1 538.859   4
   0  -1  -9 27117.8 1030.66  11
   0   1   9 26075.2 989.430   1
   0  -1 -10 14049.3 414.712   4
   0  -1 -10 13351.9 718.021   6
   0  -1 -10 13392.2 768.657  11
   0   1  10 13038.0 737.025   1
   0   1  10 13848.2 651.858   3
   0   1  11 308.699 150.329   1
   0   1  11 230.263 110.664   3
   0  -1 -11 205.823 132.370   6
   0  -1 -11 48.0029 133.004  11
   0  -1 -11 195.763 69.7409   4
   0  -1 -12 10499.2 395.336   4
   0   1  12 9944.88 702.287   1
   0   1  12 10290.4 630.740   3
   0  -1 -12 10270.1 759.766  11
   0  -1 -12 10390.9 713.149   6
   0  -1 -13 5553.18 588.277  11
   0  -1 -13 4584.11 499.247   6
   0   1  13 4999.06 462.888   3
   0   1  13 4932.47 537.013   1
   0   1  14 467.519 228.569   3
   0  -1 -14 631.421 238.225   6
   0   1  14 501.631 201.682   1
   0  -1 -14 43.3869 169.001  11
   0  -1 -15 141.113 181.936  11
   0   1  15 356.598 173.355   3
   0   1  15 276.324 200.532   1
   0  -1 -15 13.6236 170.154   6
   0  -1 -16-107.006 157.879   6
   0   1  16-106.314 127.671   3
   0   1  16 316.807 224.543   1
   0  -1 -16 232.575 248.061  11
   0   1  17 214.418 217.849   1
   0  -1 -17 265.535 229.659   6
   0  -1 -17 191.398 187.960  11
   0   1  18 124.993 187.332   1
   0  -1 -18-69.8365 224.784   6
   0  -1 -18-263.383 230.349  11
   0  -1 -19 752.081 261.317   6
   0   1  19 1322.74 379.582   1
   0  -1 -20-4.03811 180.986   6
   0   2 -18 403.571 283.085   6
   0  -2  17 280.119 217.955   1
   0   2 -17 428.303 269.175  11
   0  -2  17 300.376 212.801   3
   0   2 -17 271.263 239.933   6
   0  -2  16-217.780 209.306   1
   0   2 -16 175.923 203.574  11
   0   2 -16 137.229 261.388   6
   0  -2  16 235.859 197.535   3
   0   2 -15 1868.18 413.514  11
   0  -2  15 2090.83 385.769   1
   0  -2  15 2063.45 391.512   3
   0   2 -15 2025.32 420.730   6
   0   2 -14 408.218 243.827   6
   0  -2  14 544.958 222.769   1
   0  -2  14 195.229 169.249   3
   0   2 -14 434.285 211.145  11
   0  -2  13-41.2780 125.040   3
   0   2 -13 79.6769 149.922   6
   0  -2  13 81.6468 135.215   1
   0   2 -13 88.2379 124.819   4
   0   2 -13 279.458 202.160  11
   0  -2  12-0.13031 113.981   1
   0  -2  12-19.6938 110.732   3
   0   2 -12 34.3831 109.583   4
   0   2 -12 397.005 208.049  11
   0   2 -12-73.0736 137.288   6
   0   2 -11 10015.4 749.424   6
   0   2 -11 10198.3 611.443   4
   0  -2  11 10347.6 691.644   3
   0   2 -11 10324.3 761.652  11
   0  -2  11 10605.2 677.169   1
   0  -2  10 592.354 176.943   3
   0   2 -10 817.748 231.927  11
   0   2 -10 708.838 222.450   6
   0   2 -10 761.391 160.691   4
   0  -2  10 631.484 193.796   1
   0  -2   9-60.9797 94.1692   1
   0   2  -9 54.6377 146.945  11
   0   2  -9-86.6123 158.069   6
   0   2  -9-94.1344 107.834   4
   0  -2   9-14.3687 112.081   3
   0  -2   8 10716.7 575.414   1
   0   2  -8 10193.2 636.331  11
   0  -2   8 10593.1 607.688   3
   0   2  -8 9739.10 539.010   4
   0   2  -7 244.548 141.607  11
   0  -2   7 248.151 134.930   3
   0  -2   7 305.275 109.128   1
   0  -2   6 7561.15 468.891   3
   0   2  -6 7531.21 414.829   1
   0   2  -6 8118.84 494.605  11
   0  -2   6 7541.48 414.954   1
   0   2  -5 9624.46 404.519   1
   0  -2   5 8933.26 471.930   3
   0   2  -5 8830.35 474.148  11
   0   2  -5 7893.36 451.917   8
   0  -2   5 8712.08 392.028   1
   0   2  -4 4086.53 293.639  11
   0  -2   4 3997.29 304.586   3
   0   2  -4 4704.74 300.323  10
   0   2  -4 5045.04 331.208   7
   0   2  -4 4839.05 328.518   9
   0   2  -4 4980.63 332.924   3
   0  -2   4 4367.23 248.759   1
   0   2  -4 4420.95 290.504   8
   0   2  -4 4691.05 253.691   1
   0  -2   4 3870.33 300.749  10
   0   2  -3 58160.5 747.247   1
   0   2  -3 59545.0 1043.25   7
   0   2  -3 59154.3 1056.21   3
   0  -2   3 54767.6 900.941  10
   0   2  -3 58350.3 881.031   8
   0  -2   3 55199.9 740.201   1
   0  -2   3 54307.6 1008.05   3
   0  -2   3 53824.2 986.986   7
   0   2  -3 61034.3 1053.14   9
   0  -2   3 61101.0 919.777   8
   0   2  -3 58608.8 905.870  10
   0   2  -2 16568.5 510.291   9
   0   2  -2 15942.7 402.303  10
   0  -2   2 15279.3 405.410   8
   0  -2   2 15759.4 409.101  10
   0  -2   2 15085.6 492.277   3
   0   2  -2 16278.3 510.463   7
   0   2  -2 15248.0 321.469   2
   0   2  -2 16956.6 424.298   8
   0  -2   2 15365.2 496.876   7
   0   2  -2 16313.6 518.568   3
   0  -2   2 15180.9 485.293   9
   0   2  -2 15701.6 326.753   1
   0  -2   1 11669.1 392.500   9
   0   2  -1 12422.2 332.913   8
   0  -2   1 12108.8 273.876  10
   0  -2   1 12716.9 284.282   2
   0  -2   1 12260.3 402.248   7
   0   2  -1 12423.9 410.416   7
   0   2  -1 11816.3 358.636   5
   0   2  -1 11727.3 273.781  10
   0   2  -1 11466.2 268.856   2
   0   2  -1 12480.1 422.251   3
   0  -2   1 12113.4 320.644   8
   0   2  -1 12367.2 401.765   9
   0   2   0 4681.13 188.403   2
   0  -2   0 4479.40 238.491   7
   0  -2   0 4741.41 235.083   9
   0  -2   0 5152.60 196.119   2
   0   2   0 4635.38 225.046   5
   0   2   0 5051.14 247.664   9
   0  -2   0 4603.86 203.515   8
   0   2   0 4757.91 205.560   8
   0   2   0 4938.89 252.008   7
   0  -2   0 4946.13 239.124   5
   0   2   1 6494.35 255.847   2
   0   2   1 6611.99 280.355   7
   0  -2  -1 6430.58 253.912   2
   0   2   1 6397.57 269.600   5
   0  -2  -1 6512.67 262.645   9
   0  -2  -1 6084.79 200.867  11
   0  -2  -1 6443.62 281.224   7
   0  -2  -1 6710.69 282.789   5
   0   2   1 6178.91 205.718  11
   0  -2  -2 44835.9 603.786  11
   0  -2  -2 42702.8 728.410   7
   0   2   2 45285.1 755.097   2
   0   2   2 46480.4 617.538  11
   0  -2  -2 48136.3 787.056   2
   0   2   2 42642.6 707.638   1
   0  -2  -2 47620.1 786.896   5
   0   2   2 43135.9 747.587   5
   0   2   3 38166.8 771.294   5
   0  -2  -3 42413.4 803.115   5
   0   2   3 38762.8 672.002  11
   0  -2  -3 39796.5 787.473   1
   0   2   3 36833.2 748.762   1
   0  -2  -3 38138.3 656.492  11
   0  -2  -3 41644.4 814.847   2
   0  -2  -4 20695.0 635.428   2
   0  -2  -4 20811.9 634.832   1
   0   2   4 18406.5 588.505   1
   0   2   4 19423.3 583.983   5
   0  -2  -4 21128.1 616.194   5
   0  -2  -4 19267.5 539.012  11
   0   2   4 20115.4 559.284  11
   0  -2  -5 9263.49 444.133  10
   0   2   5 9064.62 449.159   1
   0  -2  -5 10034.2 481.513   2
   0  -2  -5 10190.8 494.742   1
   0   2   5 9741.40 433.589  11
   0   2   5 8586.54 424.967   5
   0  -2  -5 9192.17 425.310  11
   0  -2  -5 9356.73 451.835   5
   0   2   6 1047.23 182.088   1
   0   2   6 968.067 173.365   5
   0  -2  -6 888.367 168.732  11
   0   2   7 1204.01 166.695   3
   0  -2  -7 1346.35 183.379   6
   0  -2  -7 1173.14 188.835  11
   0   2   7 1697.35 248.780   1
   0  -2  -8 26263.4 926.448  11
   0   2   8 26325.9 953.967   1
   0   2   8 26291.9 748.209   3
   0  -2  -8 27604.7 829.902   6
   0  -2  -9 42416.3 1258.05  11
   0  -2  -9 42407.5 1116.73   6
   0   2   9 40749.6 1256.99   1
   0   2   9 42142.1 1018.89   3
   0   2  10 192.804 99.8447   3
   0  -2 -10 488.799 148.877   6
   0  -2 -10 198.266 115.953  11
   0   2  10 551.766 193.815   1
   0   2  11 15972.5 881.696   1
   0  -2 -11 16814.7 889.587  11
   0  -2 -11 16452.7 802.366   6
   0   2  11 15768.8 710.238   3
   0  -2 -12 21557.7 1065.93  11
   0   2  12 21583.4 1072.63   1
   0   2  12 22777.2 904.851   3
   0  -2 -12 22735.4 988.340   6
   0  -2 -13 6825.76 600.438   6
   0   2  13 6431.11 505.903   3
   0   2  13 6394.29 618.806   1
   0  -2 -13 6892.57 642.959  11
   0  -2 -14 1780.16 356.884  11
   0   2  14 2354.04 409.459   1
   0  -2 -14 2006.82 343.931   6
   0   2  14 2518.67 344.164   3
   0   2  15 7035.74 574.415   3
   0   2  15 6391.69 693.583   1
   0  -2 -15 6571.96 627.952   6
   0  -2 -15 6032.59 648.274  11
   0   2  16 1726.69 386.710   1
   0  -2 -16 1602.44 371.246  11
   0  -2 -16 1986.08 362.502   6
   0  -2 -17 229.618 170.595   6
   0  -2 -17 784.632 305.720  11
   0   2  17 443.210 183.928   1
   0  -2 -18 1837.57 434.494  11
   0  -2 -18 1403.06 354.599   6
   0   2  18 1078.55 372.152   1
   0  -2 -19 529.732 254.674   6
   0   2  19 476.520 228.687   1
   0  -2 -20 185.178 255.202   6
   0   3 -17 101.087 191.484   6
   0   3 -17 338.805 262.341  11
   0  -3  16 913.765 290.718   1
   0   3 -16 475.298 238.951   6
   0   3 -16 552.867 266.223  11
   0   3 -15 1257.35 365.375  11
   0  -3  15 1321.20 337.553   3
   0  -3  15 1250.17 332.573   1
   0   3 -15 1103.84 326.209   6
   0  -3  14 186.715 153.072   1
   0   3 -14 94.9704 161.890   6
   0  -3  14 145.139 188.180   3
   0   3 -14 81.4870 224.440  11
   0   3 -13 755.992 214.985   4
   0  -3  13 466.545 194.639   1
   0   3 -13 588.255 246.539   6
   0   3 -13 366.582 181.048  11
   0  -3  13 444.031 224.925   3
   0   3 -12 536.132 233.123  11
   0  -3  12 452.206 179.714   1
   0   3 -12 393.163 158.666   4
   0  -3  12 406.173 206.129   3
   0   3 -12 528.374 247.065   6
   0   3 -11 1831.30 358.706   6
   0  -3  11 1772.97 287.783   1
   0   3 -11 1717.59 327.870  11
   0  -3  11 1825.82 337.664   3
   0   3 -11 1673.08 292.961   4
   0  -3  10 2824.63 323.824   1
   0   3 -10 2871.93 354.400   4
   0  -3  10 2696.30 385.864   3
   0   3 -10 2330.67 371.503   6
   0   3 -10 2625.80 385.538  11
   0  -3   9 3790.59 417.073   3
   0   3  -9 3518.70 417.729  11
   0  -3   9 3656.64 359.749   1
   0   3  -9 3742.59 455.730   6
   0   3  -9 3129.90 356.694   4
   0   3  -8 9201.49 624.061  11
   0   3  -8 9269.69 651.465   6
   0  -3   8 9620.12 622.218   3
   0  -3   8 9684.21 525.409   1
   0  -3   7 527.586 136.112   1
   0  -3   7 437.675 158.928   3
   0   3  -7 555.199 187.552  11
   0  -3   6 5047.69 336.038   1
   0  -3   6 5070.26 423.403   3
   0   3  -6 5496.87 337.219   1
   0   3  -6 4885.22 392.741  11
   0   3  -5 2831.82 273.255  11
   0   3  -5 3365.01 237.478   1
   0  -3   5 2975.52 306.076   3
   0  -3   5 2477.69 287.949  10
   0  -3   5 3273.47 238.204   1
   0  -3   4 13695.6 613.335   7
   0  -3   4 12761.9 545.025  10
   0   3  -4 16438.5 562.150   8
   0  -3   4 13330.2 440.296   1
   0  -3   4 14515.7 635.357   3
   0   3  -4 15279.1 447.542   1
   0   3  -4 15696.5 553.418  10
   0   3  -4 15032.8 423.253   2
   0  -3   3 115.991 108.129   7
   0  -3   3 32.6997 54.6848   1
   0   3  -3-4.99465 41.2285   1
   0   3  -3 26.1467 49.8416   2
   0  -3   3 28.4726 105.269   9
   0  -3   3 33.6685 78.8478   8
   0   3  -3 97.5150 86.5550  10
   0  -3   3 10.9504 70.8448  10
   0   3  -3 201.270 88.8235   8
   0   3  -2 125185. 1453.49   5
   0  -3   2 128191. 1339.41   8
   0   3  -2 131171. 1099.30   2
   0  -3   2 131958. 1220.22  10
   0   3  -2 136647. 1700.73   3
   0  -3   2 129284. 1649.16   7
   0  -3   2 130222. 1112.74   2
   0   3  -2 137779. 1703.72   7
   0   3  -2 131488. 1008.35   1
   0   3  -2 132987. 1211.22  10
   0  -3   2 126754. 1597.55   9
   0   3  -2 133602. 1360.19   8
   0   3  -2 138836. 1672.98   9
   0  -3   1 15953.7 537.507   9
   0   3  -1 16265.2 394.134   2
   0  -3   1 17175.5 354.756  10
   0  -3   1 15389.7 443.424   8
   0   3  -1 17093.6 363.449  10
   0   3  -1 17188.2 580.594   3
   0   3  -1 17630.5 479.729   8
   0  -3   1 15780.4 565.552   7
   0  -3   1 17620.5 532.964   5
   0   3  -1 18071.0 601.816   7
   0  -3   1 16575.9 399.860   2
   0   3  -1 17568.1 575.768   9
   0   3  -1 16016.6 511.406   5
   0  -3   0 10050.5 342.203   2
   0  -3   0 9462.44 421.368   7
   0  -3   0 9933.38 223.423  10
   0  -3   0 9829.12 359.125   8
   0   3   0 10578.1 423.526   9
   0  -3   0 10321.2 423.874   5
   0   3   0 10153.2 330.028   2
   0   3   0 10526.5 440.182   7
   0  -3   0 9584.57 402.026   9
   0   3   0 9495.72 395.197   5
   0   3   0 10391.4 362.591   8
   0  -3  -1 58100.0 954.201   9
   0  -3  -1 62229.1 1013.47   5
   0   3   1 61017.2 738.148  11
   0  -3  -1 59306.9 888.012   8
   0   3   1 57620.8 982.519   5
   0  -3  -1 58142.3 1006.25   7
   0  -3  -1 60703.4 892.665   2
   0   3   1 62599.0 1045.54   7
   0   3   1 57864.7 625.887   6
   0   3   1 59333.2 891.109   2
   0   3   2 133282. 1373.60   1
   0  -3  -2 143579. 1515.84   2
   0  -3  -2 135930. 1543.95   7
   0   3   2 142300. 1590.21   7
   0   3   2 133707. 1469.95   2
   0   3   2 132931. 1546.48   5
   0  -3  -2 137331. 1160.33  11
   0  -3  -2 140675. 1592.48   5
   0   3   2 139254. 1175.67  11
   0  -3  -3 38045.6 877.474   5
   0  -3  -3 35873.9 669.354  11
   0   3   3 33686.4 820.674   5
   0  -3  -3 40246.9 872.055   2
   0   3   3 36423.2 677.132  11
   0  -3  -3 34375.2 796.088   7
   0   3   3 33660.8 768.592   1
   0   3   3 36141.9 829.695   2
   0   3   4 24440.7 710.832   1
   0   3   4 25787.6 468.838   4
   0  -3  -4 24812.2 631.941  11
   0  -3  -4 26026.9 753.202   5
   0   3   4 25377.2 635.016  11
   0   3   4 26044.6 755.831   5
   0  -3  -4 28089.6 794.048   2
   0  -3  -5 225.269 110.061  11
   0   3   5 44.4941 76.1702  11
   0  -3  -5 201.520 54.7938   6
   0   3   5 191.002 47.8688   4
   0   3   5 207.588 120.388   5
   0   3   5 386.815 132.217   1
   0  -3  -6 452.743 122.184  11
   0   3   6 507.954 157.382   1
   0  -3  -6 446.287 87.7186   6
   0   3   6 355.109 127.746   5
   0   3   7 6046.76 442.348   5
   0   3   7 6230.90 451.031   1
   0  -3  -7 6968.83 433.364  11
   0  -3  -7 7397.02 353.998   6
   0   3   8 7340.64 520.475   1
   0  -3  -8 7706.95 401.731   6
   0   3   8 8165.34 535.673   5
   0  -3  -8 7449.31 486.539  11
   0   3   9 3168.81 276.850   3
   0  -3  -9 3369.34 293.733   6
   0  -3  -9 3319.59 358.017  11
   0   3   9 3235.43 379.420   1
   0  -3 -10 930.572 184.913   6
   0   3  10 816.835 158.703   3
   0  -3 -10 1100.44 225.579  11
   0   3  10 1027.09 244.570   1
   0  -3 -11 4963.40 484.785  11
   0   3  11 5045.26 395.040   3
   0  -3 -11 4691.95 400.389   6
   0   3  11 4731.44 496.611   1
   0   3  12 2826.53 317.336   3
   0  -3 -12 2847.52 335.782   6
   0  -3 -12 3158.48 426.932  11
   0   3  12 3070.65 428.271   1
   0  -3 -13 1023.99 259.804  11
   0   3  13 1258.96 236.550   3
   0  -3 -13 1345.43 264.866   6
   0   3  13 1240.46 294.771   1
   0   3  14 3735.60 517.591   1
   0   3  14 3642.75 393.287   3
   0  -3 -14 3044.63 448.123  11
   0  -3 -14 4032.99 455.693   6
   0  -3 -15 8624.29 690.619   6
   0   3  15 9097.69 638.387   3
   0  -3 -15 9047.43 787.123  11
   0   3  15 8265.54 775.370   1
   0   3  16 254.956 187.861   1
   0  -3 -16 127.794 166.192   6
   0  -3 -16 351.380 213.726  11
   0  -3 -17 7445.40 700.894   6
   0  -3 -17 7224.50 765.145  11
   0   3  17 6615.56 752.696   1
   0  -3 -18 2909.18 518.536  11
   0  -3 -18 3098.48 483.632   6
   0   3  18 3924.88 611.552   1
   0  -3 -19 1765.78 429.363  11
   0   3  19 1997.16 475.535   1
   0   4 -16 288.740 241.534   6
   0   4 -16-24.7008 186.927  11
   0   4 -15 1820.68 410.069   6
   0   4 -15 1670.36 446.867  11
   0   4 -14 1751.28 342.140   4
   0   4 -14 1593.42 414.714   6
   0   4 -14 1896.67 422.796  11
   0  -4  14 1411.63 307.362   1
   0   4 -13 1628.63 368.437   6
   0   4 -13 1532.62 324.991   4
   0   4 -13 1341.20 338.013  11
   0  -4  13 1030.63 260.997   1
   0   4 -12-93.6703 147.706   4
   0   4 -12 98.9363 151.176  11
   0  -4  12-12.9620 101.330   1
   0  -4  11 631.508 188.741   1
   0   4 -11 510.134 208.103  11
   0   4 -11 484.135 220.915   6
   0  -4  11 123.609 144.793   3
   0   4 -11 165.315 101.973   4
   0  -4  10 1037.36 207.377   1
   0  -4  10 1027.28 260.089   3
   0   4 -10 947.865 276.021   6
   0   4 -10 835.642 223.385  11
   0   4 -10 688.168 198.885   4
   0   4  -9 3452.34 425.671  11
   0  -4   9 3438.12 434.147   3
   0   4  -9 2798.60 400.818   6
   0   4  -9 2708.62 368.393   4
   0  -4   9 3201.50 327.292   1
   0   4  -8 3166.04 393.633  11
   0  -4   8 2663.13 361.653   3
   0   4  -8 3131.17 414.830   6
   0  -4   8 2669.95 292.200   1
   0   4  -8 2718.65 353.656   4
   0   4  -7 868.492 222.538   6
   0   4  -7 890.810 153.921   1
   0  -4   7 944.729 159.140   1
   0   4  -7 999.202 163.704   2
   0   4  -7 1005.17 200.646  11
   0   4  -6 357.119 100.841   1
   0   4  -6 36.8134 137.177   6
   0   4  -6 367.617 104.631   2
   0   4  -6 242.819 86.9126  11
   0  -4   6 159.584 81.0887   1
   0   4  -5 316.854 80.5482   2
   0  -4   5 318.434 132.450   7
   0  -4   5 148.784 114.464   8
   0   4  -5 666.286 194.815  11
   0  -4   5 210.887 105.947   1
   0   4  -5 315.146 79.6397   1
   0  -4   5 411.422 132.359  10
   0   4  -4 15621.4 446.990   1
   0   4  -4 14644.3 591.587   5
   0  -4   4 15280.1 577.092  10
   0  -4   4 14980.4 683.355   7
   0   4  -4 14804.7 447.068   2
   0  -4   4 15011.8 585.492   8
   0   4  -4 15760.3 563.489  10
   0  -4   3 17468.4 584.155   8
   0   4  -3 17470.6 430.737   1
   0  -4   3 17687.6 541.559  10
   0  -4   3 16623.7 710.919   7
   0   4  -3 17832.1 589.968   8
   0  -4   3 16506.4 683.174   9
   0   4  -3 17498.1 629.961   5
   0   4  -3 17609.6 461.971   2
   0   4  -3 17398.9 532.680  10
   0  -4   2 13372.7 618.024   7
   0  -4   2 13282.7 484.567   8
   0   4  -2 13726.7 418.016  10
   0   4  -2 12856.3 530.770   5
   0   4  -2 12484.7 395.643   2
   0   4  -2 13207.1 361.985   1
   0  -4   2 13609.7 408.416   2
   0  -4   2 13754.4 414.575  10
   0  -4   2 12304.3 576.185   9
   0   4  -2 13885.5 501.242   8
   0   4  -1 2022.92 141.447  10
   0  -4   1 1788.07 186.428   8
   0  -4   1 1942.43 238.335   9
   0   4  -1 1632.76 205.507   5
   0  -4   1 1970.73 256.625   7
   0  -4   1 2040.37 221.009   5
   0   4  -1 1842.77 182.638   8
   0  -4   1 1954.52 135.285  10
   0  -4   1 1766.00 165.383   2
   0   4  -1 1802.88 162.718   2
   0  -4   0 947.434 166.427   5
   0   4   0 913.937 134.796   2
   0   4   0 1069.03 146.518   8
   0  -4   0 968.998 170.846   9
   0   4   0 995.803 166.086   5
   0  -4   0 972.236 173.891   7
   0   4   0 751.201 123.517   6
   0  -4   0 969.909 137.106   2
   0  -4   0 1055.48 88.4096  10
   0   4   0 1112.76 189.580   9
   0  -4   0 1034.95 142.297   8
   0   4   1 7090.49 288.710  11
   0  -4  -1 6997.68 395.322   9
   0  -4  -1 7632.35 415.392   5
   0  -4  -1 5719.59 211.267  10
   0  -4  -1 7500.19 362.548   2
   0   4   1 7642.10 404.470   9
   0   4   1 6988.73 400.607   5
   0  -4  -1 7230.94 417.609   7
   0   4   1 7165.38 274.097   6
   0  -4  -1 7326.74 359.232   8
   0   4   1 7602.63 367.999   2
   0   4   2 1923.42 111.441   6
   0  -4  -2 2105.72 212.583   2
   0  -4  -2 1940.57 243.477   7
   0   4   2 2059.09 213.475   2
   0   4   2 1957.67 159.969  11
   0  -4  -2 2078.15 210.584   8
   0  -4  -2 1759.48 217.602   9
   0   4   2 2043.48 189.783   1
   0   4   2 1992.89 232.494   5
   0  -4  -3 13854.0 444.213  11
   0   4   3 12949.4 510.088   1
   0   4   3 13912.9 452.997  11
   0  -4  -3 13793.5 571.942   7
   0  -4  -3 14056.6 568.256   2
   0   4   3 13790.9 563.642   2
   0   4   3 12595.1 574.047   5
   0   4   4 17180.7 661.287   2
   0  -4  -4 16872.0 533.883  11
   0   4   4 17747.4 542.585  11
   0   4   4 16614.0 671.816   5
   0  -4  -4 16575.4 632.255   7
   0   4   4 15980.0 614.956   1
   0   4   5 1255.16 207.491   5
   0   4   5 1367.43 177.080  11
   0   4   5 1471.00 138.462   4
   0   4   5 1312.04 209.256   1
   0  -4  -5 1344.51 182.978  11
   0  -4  -6 13350.7 543.970  11
   0   4   6 13134.1 655.350   5
   0   4   6 13883.0 654.192   1
   0  -4  -6 14344.4 330.001   6
   0   4   6 14380.9 374.031   4
   0  -4  -7 5559.91 392.209  11
   0  -4  -7 6397.78 274.893   6
   0   4   7 5219.90 439.814   5
   0   4   7 5524.71 443.749   1
   0   4   7 5405.80 184.783   4
   0  -4  -8 168.360 51.0938   6
   0   4   8 368.838 154.037   5
   0  -4  -8 238.443 112.519  11
   0   4   8 154.143 131.410   1
   0  -4  -9 832.280 178.471  11
   0   4   9 812.812 196.302   1
   0   4   9 960.821 228.703   5
   0  -4  -9 921.515 145.837   6
   0   4  10 1449.33 283.053   1
   0   4  10 1624.06 223.061   3
   0  -4 -10 1711.47 214.192   6
   0  -4 -10 1431.67 279.135  11
   0   4  11 1871.09 322.080   1
   0  -4 -11 2078.81 259.709   6
   0   4  11 1602.25 234.166   3
   0  -4 -11 1774.92 296.902  11
   0  -4 -12 121.786 104.154   6
   0   4  12 132.599 126.249   3
   0   4  12 310.044 201.692   1
   0  -4 -12-42.4707 153.991  11
   0   4  13 1282.62 303.143   1
   0   4  13 1124.09 227.764   3
   0  -4 -13 1416.52 305.459  11
   0  -4 -13 1345.67 237.013   6
   0   4  14 1286.96 324.891   1
   0  -4 -14 1888.93 350.788  11
   0  -4 -14 1515.88 254.665   6
   0   4  14 1710.36 268.175   3
   0  -4 -15 146.467 121.213   6
   0   4  15 322.524 225.409   1
   0  -4 -15 366.823 216.440  11
   0  -4 -16 6317.17 588.735   6
   0   4  16 5284.44 661.158   1
   0  -4 -16 5646.15 683.600  11
   0  -4 -17 4175.56 587.812  11
   0  -4 -17 4374.95 532.832   6
   0   4  17 3630.93 573.524   1
   0  -4 -18 541.331 291.691  11
   0   4  18 145.462 208.035   1
   0   4  19 406.591 289.742   1
   0  -4 -19 79.3117 250.912  11
   0   5 -16 811.118 326.914  11
   0   5 -15 2360.86 474.253  11
   0   5 -15 1832.84 462.200   6
   0   5 -14 1234.37 323.314   4
   0   5 -14 1047.23 353.248   6
   0   5 -14 1705.68 400.701  11
   0   5 -13 1808.72 397.661   6
   0   5 -13 1772.64 378.138  11
   0   5 -13 1872.23 371.820   4
   0   5 -12 815.952 257.336  11
   0   5 -12 998.857 304.303   6
   0   5 -12 1038.26 265.403   4
   0   5 -11-61.0111 129.054  11
   0   5 -11-74.5604 158.269   6
   0  -5  11 4.25311 109.079   1
   0   5 -11 147.688 145.932   4
   0   5 -10 255.588 154.061  11
   0  -5  10 106.761 104.604   1
   0   5 -10-148.489 201.073   6
   0   5 -10 265.794 166.272   4
   0   5  -9 3343.17 424.003  11
   0   5  -9 3086.84 422.895   4
   0   5  -9 2995.53 442.657   6
   0   5  -9 3451.95 307.349   2
   0  -5   9 2521.28 315.011   1
   0   5  -8 2433.89 352.658  11
   0   5  -8 2650.06 250.096   2
   0  -5   8 1828.99 247.317   1
   0   5  -8 2501.06 371.107   4
   0   5  -8 1951.34 341.229   6
   0  -5   7 43.0491 73.9798   1
   0   5  -7 97.5801 60.2089   2
   0   5  -7 65.0166 115.302   6
   0   5  -7-84.3009 93.3816   1
   0   5  -7 67.3200 95.3129  11
   0   5  -6 6190.03 339.070   2
   0   5  -6 6331.39 453.792   5
   0   5  -6 6210.19 502.611  11
   0  -5   6 6008.22 520.364   7
   0   5  -6 5911.58 326.028   1
   0   5  -6 6631.28 552.788   6
   0  -5   6 6476.28 473.038   8
   0   5  -5 19155.0 763.645   5
   0  -5   5 18072.1 756.041   8
   0   5  -5 18514.6 544.627   2
   0  -5   5 17604.6 859.979   7
   0   5  -5 19633.7 546.916   1
   0   5  -5 18072.1 866.520   6
   0   5  -4 19876.2 543.642   2
   0   5  -4 18455.0 738.099   5
   0  -5   4 18196.4 819.889   9
   0  -5   4 18502.2 649.502  10
   0   5  -4 19651.4 659.352  10
   0   5  -4 19744.3 505.702   1
   0  -5   4 16909.0 813.113   7
   0  -5   4 21082.2 737.459   8
   0   5  -4 17393.2 790.721   6
   0   5  -3 10570.3 551.896   5
   0  -5   3 10994.8 444.543  10
   0   5  -3 11709.9 454.534  10
   0  -5   3 11387.8 512.345   8
   0  -5   3 10475.1 594.832   9
   0   5  -3 10421.8 573.967   6
   0   5  -3 11560.3 365.886   1
   0   5  -3 11843.5 415.045   2
   0  -5   3 10278.5 613.113   7
   0   5  -2 76.0940 110.303   5
   0   5  -2 42.3086 84.4769   8
   0  -5   2 72.9772 57.0714  10
   0   5  -2 1.30263 49.5975  10
   0   5  -2-2.59630 54.7805   2
   0   5  -2 89.9312 52.2763   1
   0  -5   2 15.7501 52.8448   2
   0   5  -2 3.81055 93.0167   6
   0  -5   2 208.819 128.762   9
   0  -5   2 68.8221 100.480   7
   0  -5   2 199.800 109.790   8
   0   5  -1 6996.78 439.850   5
   0   5  -1 7121.37 408.192   6
   0   5  -1 7473.41 358.087   2
   0   5  -1 7938.73 280.319  10
   0   5  -1 8026.06 422.690   8
   0  -5   1 7667.36 358.549   2
   0  -5   1 7219.24 499.745   7
   0  -5   1 7085.75 395.564   8
   0  -5   1 7881.61 274.916  10
   0  -5   1 7222.31 470.673   9
   0  -5   0 660.753 174.683   9
   0   5   0 889.045 159.407   8
   0  -5   0 372.319 137.174   7
   0   5   0 600.506 161.013   5
   0  -5   0 638.231 74.1765  10
   0  -5   0 725.434 144.944   8
   0   5   0 612.628 123.427   2
   0   5   0 630.860 124.898   6
   0  -5   0 825.186 132.203   2
   0  -5  -1 1386.26 184.844   2
   0  -5  -1 1310.13 218.600   7
   0   5   1 964.567 111.090  11
   0  -5  -1 1197.35 202.196   9
   0  -5  -1 1320.25 193.219   8
   0   5   1 1467.78 194.779   2
   0   5   1 1130.19 190.073   5
   0   5   1 1417.02 148.972   6
   0  -5  -1 1120.11 96.0087  10
   0   5   2 359.969 134.214   2
   0   5   2 292.251 100.646   1
   0  -5  -2 305.403 105.806   8
   0  -5  -2 328.990 124.829   2
   0  -5  -2 297.637 135.774   7
   0   5   2 590.377 128.789  11
   0  -5  -2 319.336 144.318   9
   0   5   2 346.670 71.5292   6
   0   5   2 299.109 124.644   5
   0  -5  -3 9763.52 545.440   7
   0   5   3 9657.96 469.948   1
   0   5   3 9856.15 541.103   5
   0   5   3 9933.53 403.942  11
   0  -5  -3 9285.53 514.794   9
   0   5   3 9974.31 513.990   2
   0  -5  -3 9862.31 503.391   8
   0  -5  -3 8640.24 373.218  11
   0  -5  -4 62380.3 1062.49  11
   0   5   4 62059.7 1061.14  11
   0   5   4 57963.7 1218.94   1
   0   5   4 56302.3 1356.29   5
   0  -5  -4 58206.2 1330.14   7
   0   5   4 59058.3 1320.17   2
   0  -5  -5 6059.71 451.746   7
   0   5   5 6950.61 353.377   4
   0   5   5 7055.81 490.111   5
   0  -5  -5 6775.14 383.690  11
   0   5   5 6864.20 382.614  11
   0   5   5 6300.47 442.075   1
   0  -5  -6 29873.9 979.572   7
   0   5   6 30137.0 1047.08   5
   0  -5  -6 31041.3 865.635  11
   0   5   6 31115.8 713.351   4
   0   5   6 28469.4 976.676   1
   0   5   7 2187.09 280.811   1
   0   5   7 2470.36 328.700   5
   0   5   7 2694.71 188.392   4
   0  -5  -7 2424.05 278.446  11
   0  -5  -7 2286.07 115.801   6
   0  -5  -8 134.540 131.234  11
   0  -5  -8 123.951 43.8884   6
   0   5   8 160.640 138.090   1
   0   5   8 108.677 139.278   5
   0   5   8 64.5367 33.8955   4
   0   5   9 2618.89 355.993   1
   0  -5  -9 3300.74 219.882   6
   0  -5  -9 2573.36 315.498  11
   0   5   9 2724.19 367.865   5
   0  -5 -10 1964.99 298.271  11
   0   5  10 2322.70 364.020   5
   0   5  10 2499.22 361.971   1
   0  -5 -10 2737.98 226.908   6
   0  -5 -11 1230.52 174.044   6
   0  -5 -11 972.678 221.113  11
   0   5  11 1019.08 235.346   1
   0  -5 -12 3539.45 321.019   6
   0  -5 -12 3308.87 408.977  11
   0   5  12 3525.64 344.989   3
   0   5  12 3641.66 478.197   1
   0   5  13 166.194 109.267   3
   0  -5 -13 97.2918 106.645   6
   0   5  13 177.835 156.760   1
   0  -5 -13-17.5636 206.871  11
   0   5  14 1861.85 397.503   1
   0  -5 -14 2088.55 381.856  11
   0  -5 -14 2616.46 318.060   6
   0   5  15 281.596 243.550   1
   0  -5 -15 70.3877 145.228  11
   0  -5 -16 2089.91 389.700  11
   0   5  16 2400.05 484.969   1
   0   5  17 1173.19 350.868   1
   0  -5 -17 1557.93 355.188  11
   0   5  18 346.921 269.799   1
   0  -5 -18-137.666 235.172  11
   0  -5 -19-411.904 365.063  11
   0   6 -15 1196.69 394.983  11
   0   6 -14 41.3062 189.653   4
   0   6 -14 452.786 292.076   6
   0   6 -14 285.913 201.674  11
   0   6 -13 2243.85 434.849   4
   0   6 -13 2384.17 501.137   6
   0   6 -13 2307.79 453.124  11
   0   6 -12 1294.22 359.500  11
   0   6 -12 1218.09 334.387   6
   0   6 -12 931.908 269.732   4
   0   6 -11 41.7215 173.980   6
   0   6 -11-33.5330 101.852   5
   0   6 -11 107.996 153.000  11
   0   6 -11 35.0769 139.432   4
   0   6 -10 86.5749 154.078   6
   0   6 -10 70.0743 162.747  11
   0   6 -10 273.652 190.108   4
   0   6 -10-233.444 161.771   5
   0   6  -9 471.287 203.818   4
   0   6  -9 531.546 207.296   6
   0  -6   9 159.170 111.866   1
   0   6  -9 245.038 139.922  11
   0   6  -9 270.864 110.404   5
   0   6  -8 3662.65 480.618   6
   0   6  -8 3562.88 391.392   5
   0   6  -8 2893.43 416.703   4
   0   6  -8 3259.88 412.274  11
   0   6  -7 542.114 166.380   5
   0   6  -7 723.213 243.014   6
   0   6  -7 611.297 118.693   2
   0   6  -7 600.352 201.854   4
   0   6  -7 780.082 249.502  11
   0   6  -6 27262.7 699.708   2
   0  -6   6 23511.4 1099.49   7
   0  -6   6 22703.8 973.929   8
   0   6  -6 23802.3 1095.99   6
   0   6  -6 23858.9 993.666  11
   0   6  -6 25824.2 986.987   5
   0   6  -5 1225.06 222.610   5
   0   6  -5 1649.23 295.878   6
   0  -6   5 1559.28 296.331   7
   0   6  -5 1310.84 145.686   1
   0   6  -5 1361.66 164.857   2
   0  -6   5 1534.28 241.061   8
   0   6  -4 12653.6 662.906   5
   0   6  -4 12770.8 471.210   2
   0   6  -4 13312.8 551.382  10
   0   6  -4 12880.2 409.089   1
   0  -6   4 11265.5 709.148   9
   0   6  -4 11455.7 688.622   6
   0  -6   4 13189.2 614.886   8
   0  -6   4 12284.4 745.398   7
   0   6  -3 3485.00 349.389   5
   0  -6   3 3473.80 387.106   9
   0  -6   3 3142.31 303.315   8
   0  -6   3 3000.38 368.041   7
   0   6  -3 3338.36 351.686   6
   0  -6   3 3253.98 260.857  10
   0   6  -3 3141.14 203.436   1
   0   6  -3 3391.85 245.248   2
   0   6  -3 3459.77 254.949  10
   0   6  -2 5774.03 285.482  10
   0   6  -2 4081.66 253.008   1
   0   6  -2 4939.56 396.156   6
   0  -6   2 5207.83 319.507   2
   0  -6   2 5359.28 279.417  10
   0  -6   2 4769.97 355.435   8
   0  -6   2 4771.40 450.994   7
   0   6  -2 5282.95 423.326   5
   0  -6   2 5019.38 444.320   9
   0   6  -2 5353.44 322.216   2
   0  -6   1 3246.89 184.518  10
   0  -6   1 3142.96 367.146   7
   0   6  -1 3200.83 299.166   6
   0   6  -1 2938.22 254.688   2
   0   6  -1 2943.86 317.468   5
   0  -6   1 2907.71 283.488   8
   0  -6   1 3173.07 362.221   9
   0  -6   1 3122.31 261.940   2
   0  -6   0 15279.6 625.250   8
   0  -6   0 14704.6 746.535   7
   0  -6   0 15072.3 723.491   9
   0  -6   0 15759.7 597.748   2
   0   6   0 14315.9 691.287   5
   0  -6   0 15279.9 340.779  10
   0   6   0 15435.5 581.559   6
   0   6   0 15829.0 598.020   2
   0   6   1 567.314 137.515   2
   0  -6  -1 311.100 129.882   9
   0  -6  -1 443.479 175.960   7
   0  -6  -1 451.253 60.6205  10
   0  -6  -1 534.824 149.954   8
   0   6   1 574.889 119.471   6
   0   6   1 418.744 144.373   5
   0   6   1 229.989 86.5207  11
   0  -6  -2 91.3876 125.340   7
   0   6   2-32.8620 67.7836   1
   0  -6  -2 1.01561 36.0893  10
   0   6   2 101.472 113.367   5
   0   6   2-41.5719 51.8252   6
   0   6   2 159.985 99.7642  11
   0  -6  -2-31.5542 89.6783   8
   0   6   2-27.6124 89.2215   2
   0  -6  -2-175.941 151.774   9
   0  -6  -3 1840.06 273.740   7
   0   6   3 2324.14 239.241   1
   0   6   3 2181.18 265.937   2
   0   6   3 2235.85 302.318   5
   0   6   3 2039.22 125.629   6
   0   6   3 2161.02 212.653  11
   0  -6  -3 2209.70 275.756   8
   0  -6  -3 2437.69 297.993   9
   0  -6  -4 38302.3 889.958  11
   0  -6  -4 36584.7 1067.20   8
   0  -6  -4 36213.3 1091.06   9
   0   6   4 35863.1 1096.11   2
   0   6   4 35182.8 1140.65   5
   0   6   4 38153.5 880.371  11
   0   6   4 36145.8 1024.13   1
   0  -6  -4 35092.7 1134.47   7
   0   6   5 7267.81 545.148   5
   0  -6  -5 7969.43 422.672  11
   0  -6  -5 6815.48 515.874   7
   0   6   5 6314.14 459.060   1
   0   6   5 7288.04 422.321   4
   0   6   5 7304.14 414.922  11
   0   6   6 17318.4 863.243   5
   0   6   6 17430.5 782.050   1
   0   6   6 18395.9 636.384   4
   0  -6  -6 16528.8 809.589   7
   0  -6  -6 18439.6 681.296  11
   0   6   7 6274.49 535.275   5
   0  -6  -7 7131.31 454.083  11
   0   6   7 6941.09 373.766   4
   0   6   7 6073.88 494.003   1
   0  -6  -7 6557.98 515.725   7
   0  -6  -8 618.793 195.664   7
   0  -6  -8 533.940 172.450  11
   0   6   8 802.419 215.270   1
   0   6   8 565.654 99.4115   4
   0   6   8 533.985 191.886   5
   0   6   9-19.8625 120.091   1
   0   6   9 23.4665 32.0541   4
   0   6   9 98.9486 114.504   5
   0  -6  -9-130.846 107.772   7
   0  -6  -9 139.233 128.373  11
   0  -6 -10 275.911 150.282  11
   0   6  10 572.543 189.616   1
   0   6  10 392.284 211.618   5
   0  -6 -10 465.662 84.5904   6
   0  -6 -11-136.494 163.322  11
   0  -6 -11 244.030 73.2520   6
   0   6  11 168.100 161.362   1
   0   6  11 173.139 189.408   5
   0  -6 -12 289.059 79.1990   6
   0   6  12 248.128 174.674   1
   0  -6 -12-163.527 248.556  11
   0   6  12 374.136 227.827   5
   0   6  13 2640.25 437.507   1
   0  -6 -13 1866.75 272.646  11
   0   6  13 2743.75 330.899   3
   0   6  14 164.492 162.228   1
   0  -6 -14 30.9256 183.461  11
   0  -6 -15 1779.67 363.234  11
   0   6  15 2418.18 449.327   1
   0  -6 -16 1525.04 318.957  11
   0   6  16 2285.90 473.308   1
   0  -6 -17 1274.02 311.196  11
   0   6  17 1676.79 403.096   1
   0   6  18 547.462 290.971   1
   0  -6 -18-358.082 326.908  11
   0  -6 -19-122.889 248.397  11
   0   7 -14 518.691 282.910  11
   0   7 -14 363.185 220.860   4
   0   7 -13 2040.46 437.399  11
   0   7 -13 1818.32 411.455   4
   0   7 -13 1969.41 476.009   6
   0   7 -12 499.560 282.778  11
   0   7 -12 147.681 197.881   6
   0   7 -12 407.958 235.300   4
   0   7 -11 5029.93 621.762  11
   0   7 -11 5396.26 695.124   6
   0   7 -11 4411.01 593.119   4
   0   7 -10 2.86840 112.970  11
   0   7 -10-288.612 227.608   6
   0   7  -9-91.5671 180.603   6
   0   7  -9-127.654 96.3462   5
   0   7  -9-182.140 141.460  11
   0   7  -9-86.6138 147.822   4
   0   7  -8 142.082 150.814   4
   0   7  -8 44.9636 140.950   5
   0   7  -8 234.035 162.044  11
   0   7  -8 187.747 194.848   6
   0   7  -7 8556.68 732.372   6
   0   7  -7 8415.06 731.885   4
   0  -7   7 9470.07 770.902   7
   0   7  -7 8741.97 668.996  11
   0   7  -7 9589.69 661.498   5
   0   7  -6 9589.22 651.908   5
   0   7  -6 9044.15 645.388  11
   0   7  -6 8053.47 692.049   4
   0  -7   6 8849.41 595.110   8
   0   7  -6 9789.05 736.437   6
   0  -7   6 8839.67 727.237   7
   0   7  -5 402.818 168.089  11
   0   7  -5 786.664 202.021   5
   0  -7   5 786.494 181.561   8
   0   7  -5 667.648 131.764   2
   0  -7   5 1000.84 281.391   7
   0   7  -5 628.296 202.161   6
   0  -7   4 9394.64 679.977   9
   0   7  -4 9859.28 639.519   5
   0   7  -4 9172.13 651.320   6
   0  -7   4 10356.5 582.641   8
   0   7  -4 9947.21 444.735   2
   0  -7   4 8544.19 679.434   7
   0   7  -3-7.90012 58.2504   2
   0   7  -3 254.634 142.341   5
   0  -7   3-47.4569 102.828   8
   0   7  -3 46.4369 57.2592  10
   0  -7   3 162.991 145.132   9
   0  -7   3-60.8591 128.765   7
   0   7  -3 19.9789 49.0111   1
   0   7  -3 5.41904 109.794   6
   0  -7   3-11.4917 51.1239   2
   0   7  -2 231.046 97.7433   2
   0   7  -2 151.294 128.726   5
   0  -7   2 165.586 135.707   9
   0  -7   2 119.460 84.6600   8
   0   7  -2 175.760 115.734   6
   0  -7   2 137.879 82.9118   2
   0   7  -2 55.5354 49.1083  10
   0   7  -2 92.2546 62.4698   1
   0  -7   2 312.966 181.138   7
   0  -7   1 211.531 60.0280  10
   0  -7   1 61.6874 126.276   7
   0   7  -1 256.434 100.591   5
   0  -7   1 280.136 120.080   8
   0  -7   1 170.244 158.389   9
   0   7  -1 230.712 91.3243   2
   0   7  -1 298.172 121.496   6
   0   7   0 4393.66 361.177   2
   0   7   0 4310.67 421.089   5
   0  -7   0 4386.83 429.774   9
   0  -7   0 4552.82 385.253   8
   0  -7   0 4620.85 469.591   7
   0   7   0 4934.66 366.466   6
   0  -7   0 4721.42 189.254  10
   0  -7  -1 230.388 138.713   8
   0  -7  -1 71.5032 117.483   7
   0   7   1 3.36561 75.1843   6
   0   7   1 107.107 63.5017   1
   0   7   1-4.16717 110.702   5
   0  -7  -1 33.4400 114.441   9
   0   7   1-32.5967 77.4985  11
   0   7   1 55.4913 86.7540   2
   0  -7  -1 69.6993 28.8651  10
   0  -7  -2 243.410 126.436   7
   0  -7  -2 295.843 125.288   8
   0  -7  -2 259.175 162.224   9
   0  -7  -2 338.673 57.7140  10
   0   7   2 335.513 88.5611   6
   0   7   2 320.634 130.249   2
   0   7   2 349.212 114.426  11
   0   7   2 325.161 111.300   1
   0   7   2 278.375 159.589   5
   0  -7  -3 395.819 83.6388  10
   0  -7  -3 410.931 172.743   7
   0   7   3 337.096 105.819   1
   0   7   3 702.181 95.1576   6
   0   7   3 885.637 197.135   2
   0   7   3 512.601 163.884   5
   0   7   3 580.994 124.881  11
   0  -7  -3 664.386 180.881   8
   0  -7  -3 377.646 137.976   9
   0   7   4 6690.60 507.329   2
   0  -7  -4 6518.63 480.138   8
   0  -7  -4 6525.45 512.286   9
   0   7   4 6428.04 456.616   1
   0   7   4 6957.80 481.202   4
   0   7   4 6936.99 396.963  11
   0   7   4 6579.15 549.790   5
   0  -7  -4 6678.57 539.005   7
   0  -7  -5 8324.80 584.414   9
   0   7   5 8004.09 596.885   5
   0  -7  -5 9001.71 471.611  11
   0  -7  -5 8615.71 573.174   8
   0   7   5 8893.17 552.338   1
   0   7   5 8552.47 519.544   4
   0  -7  -5 8518.95 614.236   7
   0   7   6 30385.0 934.091   4
   0   7   6 28202.9 1045.91   1
   0  -7  -6 30948.3 905.540  11
   0   7   6 28768.4 1164.72   5
   0  -7  -6 29452.1 1140.92   7
   0  -7  -7 229.796 139.047   7
   0   7   7 409.219 120.352   4
   0   7   7 376.175 187.440   5
   0  -7  -7 447.400 150.002  11
   0   7   7 451.285 152.208   1
   0   7   8 156.298 70.2835   4
   0  -7  -8 287.143 184.522   7
   0   7   8 207.752 164.076   1
   0  -7  -8 441.825 158.288  11
   0   7   8-165.115 179.399   5
   0   7   9 962.117 243.859   1
   0  -7  -9 1509.21 316.831  11
   0   7   9 1239.69 154.430   4
   0   7   9 1152.91 297.238   5
   0  -7  -9 872.982 215.088   7
   0   7  10 866.301 117.936   4
   0  -7 -10 954.464 243.856   7
   0  -7 -10 989.011 243.488  11
   0   7  10 725.931 254.541   5
   0   7  10 709.930 219.246   1
   0  -7 -11 2059.55 339.359  11
   0   7  11 1782.75 338.787   1
   0  -7 -11 1250.27 302.481   7
   0   7  11 1390.39 318.923   5
   0  -7 -12 1521.87 323.258   7
   0   7  12 1536.10 365.080   5
   0  -7 -12 1556.76 308.011  11
   0   7  12 1377.97 303.898   1
   0   7  13 4758.84 592.533   5
   0  -7 -13 4745.92 544.565  11
   0   7  13 5081.04 617.063   1
   0   7  14 419.802 222.218   1
   0  -7 -14 332.612 229.240  11
   0  -7 -15 984.654 304.302  11
   0   7  15 878.405 314.187   1
   0   7  16 1487.39 407.656   1
   0  -7 -16 1587.58 373.244  11
   0   7  17 408.270 323.360   1
   0  -7 -17 37.9709 176.174  11
   0  -7 -18-91.7145 235.331  11
   0  -7 -19 1026.70 349.841  11
   0   8 -14 1047.97 358.684   4
   0   8 -14 1788.72 457.134  11
   0   8 -13 400.208 298.326  11
   0   8 -13 124.120 206.969   4
   0   8 -12 235.810 243.949   6
   0   8 -12 799.951 325.915  11
   0   8 -12 302.854 222.984   4
   0   8 -11 161.227 160.087   4
   0   8 -11 125.071 130.008  11
   0   8 -11 228.377 242.238   6
   0   8 -10 217.207 195.308   6
   0   8 -10 118.791 172.230   4
   0   8 -10 123.259 166.526  11
   0   8  -9 159.151 148.392  11
   0   8  -9 473.661 241.171   4
   0   8  -9 774.870 285.458   6
   0   8  -8 2005.18 369.771  11
   0   8  -8 1656.59 370.486   6
   0   8  -8 1646.96 351.940   4
   0   8  -8 1826.35 320.101   5
   0   8  -7 5933.39 632.496   6
   0   8  -7 6196.22 569.447   5
   0   8  -7 5532.75 556.473  11
   0   8  -7 5607.01 639.869   4
   0  -8   7 4833.29 602.251   7
   0  -8   7 5541.21 521.201   8
   0   8  -6 451.752 164.412  11
   0  -8   6 264.783 198.438   7
   0   8  -6 772.365 280.830   4
   0  -8   6 227.659 127.572   8
   0   8  -6 227.627 163.516   5
   0   8  -6 610.954 212.187   6
   0  -8   5 6662.27 518.944   8
   0   8  -5 5904.03 620.080   4
   0   8  -5 6034.68 574.600   6
   0   8  -5 6782.26 576.442   5
   0  -8   5 6806.19 653.906   7
   0   8  -5 6650.99 552.353  11
   0   8  -4 8191.06 643.699   6
   0  -8   4 7674.88 682.331   7
   0  -8   4 9276.73 586.955   8
   0   8  -4 8841.14 638.698   5
   0  -8   4 7757.90 670.053   9
   0   8  -4 7372.32 673.186   4
   0   8  -3 2264.80 334.702   5
   0  -8   3 1827.45 288.107   8
   0  -8   3 1847.80 334.763   7
   0  -8   3 2160.72 363.668   9
   0   8  -3 1644.19 329.054   4
   0   8  -3 2173.69 236.201   2
   0   8  -3 2029.23 315.778   6
   0  -8   2 3063.18 445.217   7
   0  -8   2 3576.81 356.723   8
   0   8  -2 3375.28 395.488   5
   0  -8   2 2967.43 408.075   9
   0   8  -2 3102.11 370.871   6
   0   8  -2 3322.90 289.617   2
   0   8  -1 14085.4 636.449   2
   0  -8   1 12941.7 827.323   7
   0  -8   1 13922.8 693.423   8
   0  -8   1 11783.0 760.364   9
   0   8  -1 12900.5 677.718   6
   0   8  -1 12118.2 743.435   5
   0  -8   0 200.844 159.341   7
   0  -8   0 13.2297 121.676   9
   0  -8   0-15.9084 98.3624   8
   0   8   0 95.3238 100.179   6
   0   8   0 132.411 79.6142   1
   0   8   0 77.9467 105.130   2
   0   8   0 36.1235 124.713   5
   0   8   1 100.080 79.0097   1
   0  -8  -1 16.9211 94.5776   8
   0   8   1-85.3530 120.312   5
   0   8   1 235.389 147.136   2
   0  -8  -1 205.163 162.357   7
   0  -8  -1 3.97888 134.254   9
   0   8   1 178.982 100.915   6
   0   8   2 2249.63 301.489   2
   0   8   2 2059.90 315.304   4
   0   8   2 1795.48 318.107   5
   0  -8  -2 2252.45 336.252   9
   0   8   2 2239.12 214.759   6
   0  -8  -2 2416.45 364.032   7
   0   8   2 2276.17 257.608   1
   0  -8  -2 2999.11 343.128   8
   0  -8  -3 5185.08 487.602   9
   0   8   3 5559.17 489.838   4
   0   8   3 5494.91 275.992   6
   0   8   3 5162.59 402.897   1
   0   8   3 4800.07 488.694   5
   0  -8  -3 5675.98 479.846   8
   0  -8  -3 4809.92 496.275   7
   0  -8  -3 5046.92 219.826  10
   0  -8  -3 4839.81 215.839  10
   0   8   3 5449.95 461.425   2
   0  -8  -4 204.907 119.311   8
   0  -8  -4 296.957 75.3200  10
   0   8   4 106.587 102.974   2
   0   8   4 67.2371 93.3141   4
   0   8   4 338.954 126.896   1
   0  -8  -4 73.1669 131.999   9
   0  -8  -4 211.372 166.772   7
   0   8   4-29.2067 121.328   5
   0   8   5 5031.65 521.794   5
   0  -8  -5 4765.81 462.732   8
   0   8   5 4992.91 447.007   4
   0   8   5 4486.15 413.569   1
   0  -8  -5 4350.79 456.920   9
   0  -8  -5 4352.44 484.148   7
   0  -8  -5 4972.67 305.024  10
   0  -8  -6 15037.0 583.472  10
   0  -8  -6 13922.6 795.461   8
   0   8   6 13466.1 699.294   4
   0  -8  -6 13580.6 802.221   9
   0  -8  -6 13428.1 837.701   7
   0   8   6 12985.1 840.444   5
   0   8   6 13619.0 752.323   1
   0   8   7-9.58938 104.164   1
   0  -8  -7-33.4537 136.081  11
   0   8   7 213.625 168.919   5
   0   8   7-5.42828 83.7824   4
   0  -8  -7 218.858 192.365   9
   0  -8  -7 271.240 185.196   7
   0  -8  -8 6980.55 621.526   7
   0   8   8 8489.04 505.017   4
   0  -8  -8 7925.74 525.787  11
   0   8   8 7239.12 599.006   1
   0   8   8 6793.16 639.910   5
   0   8   9 1155.94 186.648   4
   0   8   9 1071.94 276.183   5
   0  -8  -9 1580.49 321.692   7
   0   8   9 1085.52 231.544   1
   0   8  10 2250.37 379.345   1
   0  -8 -10 2330.81 381.339   7
   0  -8 -10 2967.21 398.614  11
   0   8  10 1850.47 369.182   5
   0  -8 -11 18.2863 131.301   7
   0   8  11 57.6595 133.318   1
   0   8  11 326.555 258.930   5
   0  -8 -12 5313.38 576.145  11
   0   8  12 4979.37 583.317   1
   0  -8 -12 4749.88 566.844   7
   0   8  12 4620.27 598.791   5
   0  -8 -13 139.236 148.037   7
   0  -8 -13 516.321 259.736  11
   0   8  13 271.057 200.406   1
   0   8  13-222.304 216.831   5
   0  -8 -14 278.623 192.298   7
   0   8  14-11.4354 139.745   1
   0  -8 -14 145.846 213.577  11
   0   8  15 1295.53 363.795   1
   0  -8 -15 2051.92 444.018  11
   0  -8 -15 1335.18 350.625   7
   0  -8 -16 1597.14 369.005   7
   0   8  16 1558.45 429.789   1
   0  -8 -16 1955.52 418.882  11
   0  -8 -17 153.821 230.613   7
   0   8  17-20.8826 186.047   1
   0  -8 -18 1751.02 440.418  11
   0  -8 -19 763.121 341.494  11
   0   9 -12-113.092 235.088   4
   0   9 -11 66.9678 169.389   4
   0   9 -11 212.093 139.202  11
   0   9 -11-44.5760 200.366   6
   0   9 -10 202.509 170.289   4
   0   9 -10-261.068 222.411  11
   0   9 -10-132.376 235.420   6
   0   9  -9 406.769 230.003   4
   0   9  -9 614.931 248.126  11
   0   9  -9 339.377 221.690   6
   0   9  -8-93.5676 150.277   4
   0   9  -8-143.685 159.565  11
   0   9  -8 176.731 215.741   6
   0  -9   7 227.327 221.549   7
   0   9  -7 165.406 144.844   5
   0  -9   7 52.6105 144.389   8
   0   9  -7-62.4111 156.784   6
   0   9  -7-54.7058 151.973  11
   0   9  -7 89.1877 160.095   4
   0   9  -6 298.578 188.025   5
   0  -9   6 261.706 165.036   8
   0   9  -6-31.8358 173.799   4
   0   9  -6 216.750 220.162   6
   0  -9   6 235.296 238.360   7
   0   9  -6 142.515 117.481  11
   0   9  -5 927.738 302.822   4
   0  -9   5 449.078 156.698   8
   0   9  -5 553.269 190.461  11
   0  -9   5 48.0645 157.954   7
   0   9  -5 722.476 232.842   5
   0   9  -5 505.159 208.256   6
   0   9  -4 1045.66 255.277   5
   0  -9   4 1554.32 293.472   8
   0  -9   4 646.655 226.161   9
   0   9  -4 782.382 262.965   4
   0   9  -4 1071.15 245.568   6
   0  -9   4 776.447 259.521   7
   0  -9   3 177.313 198.702   9
   0   9  -3 108.264 161.354   4
   0   9  -3 281.743 170.222   5
   0  -9   3 397.623 161.639   8
   0   9  -3 367.662 185.093   6
   0  -9   3 304.734 233.748   7
   0  -9   2 12415.8 860.929   9
   0   9  -2 12300.4 886.641   4
   0  -9   2 12031.8 893.248   7
   0  -9   2 13385.4 735.773   8
   0   9  -2 12109.6 789.742   5
   0   9  -2 13625.9 782.939   6
   0   9  -1 381.979 226.076   4
   0  -9   1 376.790 162.264   8
   0   9  -1 700.659 197.657   6
   0   9  -1 459.068 148.083   2
   0  -9   1 718.107 257.308   7
   0   9  -1 363.185 168.997   5
   0  -9   1 342.907 193.686   9
   0   9   0-44.5768 114.743   2
   0  -9   0 25.8539 135.589   7
   0   9   0 75.9733 113.777   6
   0  -9   0 182.936 134.722   9
   0   9   0-51.0205 142.667   5
   0  -9   0 110.535 101.376   8
   0   9   0 83.4011 142.178   4
   0   9   1 121.832 147.157   4
   0   9   1 87.3073 127.531   2
   0  -9  -1 106.134 150.519   7
   0  -9  -1 28.7926 143.993   9
   0   9   1 284.739 108.384   1
   0  -9  -1 222.040 154.979   8
   0   9   1 73.9490 126.804   5
   0   9   1 152.565 81.6941   6
   0  -9  -2 23333.1 1106.26   9
   0   9   2 24738.4 995.459   2
   0   9   2 24481.2 846.401   1
   0   9   2 25184.6 751.413   6
   0   9   2 23930.4 1116.56   4
   0   9   2 22769.0 1105.86   5
   0  -9  -2 21635.0 1127.49   7
   0  -9  -2 23497.0 1001.82   8
   0  -9  -3 115.759 141.596   8
   0   9   3 50.6119 150.714   5
   0   9   3 158.571 165.719   2
   0   9   3 221.460 119.867   1
   0  -9  -3 345.239 191.557   9
   0   9   3 36.9019 118.627   4
   0  -9  -3 149.103 131.477   7
   0   9   4 3763.76 425.102   4
   0  -9  -4 2905.60 423.866   7
   0  -9  -4 3207.62 421.761   9
   0   9   4 2919.72 407.739   5
   0   9   4 2891.47 335.119   1
   0  -9  -4 3934.78 428.327   8
   0  -9  -5 2660.75 418.841   7
   0  -9  -5 3618.34 460.540   9
   0   9   5 2841.68 407.516   5
   0   9   5 3148.98 388.260   4
   0   9   5 3030.68 357.925   1
   0  -9  -5 3344.51 412.798   8
   0  -9  -6 614.932 213.572   9
   0   9   6 625.422 231.595   5
   0  -9  -6 464.134 210.649   7
   0   9   6 939.632 217.135   4
   0  -9  -6 622.938 239.120   8
   0   9   6 1043.05 223.779   1
   0  -9  -7-40.0523 125.891   8
   0   9   7 251.788 135.065   1
   0  -9  -7 140.588 156.936   7
   0  -9  -7 4.55184 179.152   9
   0   9   7 224.787 132.605   4
   0   9   7-61.2959 148.017   5
   0  -9  -8 3017.96 449.435   7
   0   9   8 3045.27 403.405   1
   0  -9  -8 2947.24 314.104  11
   0   9   8 2851.79 445.402   5
   0  -9  -8 3355.50 445.415   9
   0  -9  -8 3990.70 486.693   8
   0   9   8 3334.15 352.008   4
   0  -9  -9 3248.43 465.073   7
   0   9   9 2742.29 299.407   4
   0   9   9 2967.38 429.379   1
   0  -9  -9 2832.81 338.114  11
   0   9   9 2499.92 441.916   5
   0  -9 -10 448.693 249.223   7
   0  -9 -10 550.091 213.357  11
   0   9  10 189.247 160.360   1
   0   9  10 77.9060 160.081   5
   0  -9 -11 4506.87 496.889  11
   0   9  11 3178.84 506.384   5
   0   9  11 3567.49 505.394   1
   0  -9 -11 3302.25 476.346   7
   0  -9 -12 852.820 280.925  11
   0   9  12 173.814 218.007   5
   0  -9 -12 285.715 156.639   7
   0   9  12 403.518 238.795   1
   0   9  13 818.369 313.778   5
   0   9  13 756.035 273.600   1
   0  -9 -13 1520.27 367.302  11
   0  -9 -13 613.431 243.789   7
   0  -9 -14 398.633 218.431   7
   0   9  14 898.885 323.189   1
   0   9  14 681.228 291.235   5
   0  -9 -15 2866.03 489.487   7
   0  -9 -15 3552.65 528.770  11
   0   9  15 2844.55 526.895   1
   0   9  16 153.720 244.272   1
   0  -9 -16 206.325 196.873   7
   0  -9 -17 998.104 284.795   7
   0  10 -10 221.487 203.184   6
   0  10  -9 1525.17 423.780   4
   0  10  -9 1101.33 311.339   6
   0  10  -8 967.166 321.633   6
   0  10  -8 768.921 336.521   4
   0  10  -7-69.5830 171.321   4
   0  10  -7 59.0778 155.802   6
   0 -10   7 391.007 213.356   7
   0  10  -6-282.523 216.760   4
   0  10  -6-196.826 130.128   5
   0  10  -6 110.029 159.197   6
   0  10  -5-8.88527 125.319   5
   0 -10   5-43.0119 161.576   7
   0  10  -5 34.1902 199.706   4
   0  10  -5-101.261 155.122   6
   0 -10   4 1753.08 296.711   8
   0 -10   4 1800.14 401.747   7
   0  10  -4 1114.50 306.978   4
   0 -10   4 1847.54 380.155   9
   0  10  -4 1306.41 300.058   6
   0  10  -4 1723.50 335.236   5
   0  10  -3 579.559 185.857   6
   0  10  -3 279.296 175.767   5
   0 -10   3 497.352 221.993   7
   0  10  -3 810.093 280.905   4
   0 -10   3 682.377 191.847   8
   0 -10   3 1053.58 313.301   9
   0  10  -2 1340.18 285.573   6
   0 -10   2 1428.50 351.419   7
   0 -10   2 705.932 230.176   9
   0 -10   2 1118.67 251.906   8
   0  10  -2 1154.63 302.868   4
   0  10  -2 639.986 230.688   5
   0 -10   1 200.935 119.010   8
   0  10  -1 225.367 121.119   6
   0  10  -1 204.110 179.370   5
   0 -10   1-125.232 189.940   9
   0 -10   1 346.528 236.319   7
   0  10  -1 234.432 169.509   4
   0 -10   0 566.444 226.185   9
   0 -10   0 306.079 228.269   7
   0  10   0 854.956 246.571   5
   0  10   0 758.199 226.431   4
   0 -10   0 1082.35 254.156   8
   0 -10  -1 2520.07 434.153   7
   0  10   1 2854.30 425.500   4
   0  10   1 3044.86 360.624   2
   0 -10  -1 2102.57 350.827   9
   0 -10  -1 2935.86 378.249   8
   0  10   1 2707.06 405.719   5
   0 -10  -2 146.344 127.547   8
   0  10   2-133.387 127.328   4
   0 -10  -2-179.006 168.298   9
   0 -10  -2-78.4242 160.872   7
   0  10   2-16.0888 108.987   2
   0  10   2 42.4474 124.946   5
   0  10   3 98.4708 141.187   5
   0 -10  -3 248.019 158.075   9
   0  10   3 376.917 143.799   1
   0  10   3 93.8829 138.820   4
   0 -10  -3 528.066 207.943   8
   0 -10  -3-114.618 181.004   7
   0 -10  -4 11497.2 766.020   8
   0  10   4 11732.8 802.349   4
   0  10   4 11957.8 681.266   1
   0  10   4 11074.8 837.593   5
   0 -10  -4 11066.9 852.231   7
   0 -10  -4 11299.1 834.568   9
   0 -10  -5-19.1291 122.738   8
   0  10   5 27.0583 93.2507   1
   0  10   5-43.8743 137.850   4
   0 -10  -5 169.645 176.171   9
   0  10   5-109.888 195.477   5
   0 -10  -5 183.282 138.757   7
   0  10   6 68.9694 98.7113   1
   0  10   6-2.24483 107.796   4
   0  10   6 27.6071 145.828   5
   0 -10  -6-72.0985 153.623   7
   0 -10  -6-61.3866 160.206   9
   0 -10  -6 478.712 223.707   8
   0 -10  -7 1185.75 295.897   9
   0  10   7 912.822 290.804   5
   0  10   7 1020.86 245.485   4
   0 -10  -7 886.707 275.777   7
   0  10   7 789.475 216.322   1
   0 -10  -7 1279.44 295.804   8
   0  10   8 12574.3 748.273   4
   0 -10  -8 11669.1 858.481   9
   0 -10  -8 13386.1 903.119   8
   0 -10  -8 10533.9 859.964   7
   0  10   8 11336.3 924.314   5
   0  10   8 10425.0 771.661   1
   0  10   9 620.707 221.674   1
   0 -10  -9 875.364 281.982   7
   0 -10  -9 644.369 265.452   9
   0 -10  -9 698.126 250.141   8
   0  10   9 801.616 288.242   5
   0 -10 -10 5309.80 621.554   9
   0  10  10 6254.66 639.638   1
   0 -10 -10 6369.41 674.242   8
   0  10  10 5556.97 673.374   5
   0 -10 -10 6359.54 684.797   7
   0  10  11 4954.43 636.751   5
   0  10  11 6163.31 675.888   1
   0 -10 -11 6051.03 683.898   7
   0  10  12-100.835 207.311   1
   0 -10 -12 188.646 174.865   7
   0  10  12 102.161 175.880   5
   0  10  13 505.057 273.131   1
   0 -10 -13 384.607 252.507   7
   0  10  13 60.3070 211.508   5
   0  10  14 1887.24 436.804   5
   0  10  14 2649.14 508.965   1
   0 -10 -14 2617.81 448.311   7
   0  10  15 865.950 330.354   5
   0  10  15 895.305 340.552   1
   0 -10 -15 830.337 351.559   7
   0 -10 -16 350.804 321.455   7
   0 -10 -17 2003.39 455.981   7
   0  11  -9 1564.12 438.808   6
   0  11  -8 123.198 176.029   6
   0 -11   7 403.538 270.201   7
   0  11  -7 70.3262 184.795   4
   0  11  -7 136.507 220.053   6
   0  11  -6 93.1874 142.126   6
   0 -11   6 116.411 171.529   7
   0  11  -6 392.072 285.211   4
   0 -11   5 474.559 249.069   7
   0  11  -5 963.455 347.466   4
   0  11  -5 417.327 226.268   6
   0 -11   4 401.404 232.808   7
   0 -11   4 499.661 223.583   9
   0  11  -4 119.871 130.624   5
   0  11  -4 350.352 249.052   4
   0  11  -3-31.7891 134.517   5
   0 -11   3 418.019 248.508   9
   0 -11   3 377.716 247.970   7
   0  11  -3-209.803 251.581   4
   0 -11   2 1094.71 262.931   8
   0 -11   2 1467.86 366.318   7
   0  11  -2 1360.18 332.842   5
   0 -11   2 1645.77 377.614   9
   0  11  -2 1342.39 373.911   4
   0  11  -1 1340.51 306.893   4
   0 -11   1 1529.01 296.528   8
   0  11  -1 1730.35 365.584   5
   0 -11   1 1440.49 397.814   9
   0 -11   1 1348.38 351.581   7
   0 -11   0 1563.07 351.955   9
   0  11   0 1987.31 362.129   5
   0 -11   0 1674.14 385.687   7
   0 -11   0 2031.73 350.103   8
   0  11   0 2231.78 437.436   4
   0  11   1 384.413 225.462   4
   0 -11  -1 370.845 236.040   7
   0 -11  -1 108.150 185.936   9
   0 -11  -1 271.524 120.239   8
   0  11   1 400.792 191.947   5
   0  11   2 184.156 184.634   4
   0 -11  -2 327.208 214.070   9
   0 -11  -2 148.417 187.512   7
   0  11   2 193.015 161.318   5
   0 -11  -2 259.207 163.459   8
   0 -11  -3 3021.14 506.131   7
   0 -11  -3 3656.73 456.461   8
   0  11   3 3471.98 497.386   4
   0 -11  -3 3754.37 521.676   9
   0  11   3 3087.32 463.798   5
   0 -11  -4 161.964 176.866   9
   0  11   4 77.1097 158.269   4
   0 -11  -4 319.618 230.594   8
   0 -11  -4 303.355 219.872   7
   0  11   4 150.479 208.584   5
   0 -11  -5 292.782 226.393   7
   0 -11  -5 15.9558 134.334   8
   0  11   5 52.5082 157.706   4
   0 -11  -5 70.0563 181.303   9
   0  11   5-345.630 232.368   5
   0 -11  -6 326.969 214.735   7
   0 -11  -6 631.419 227.287   9
   0  11   6 670.988 288.668   5
   0 -11  -6 424.636 213.390   8
   0  11   6 391.271 201.650   4
   0 -11  -7 422.290 226.135   8
   0 -11  -7 263.565 236.148   7
   0  11   7 215.213 130.761   1
   0  11   7 263.705 155.432   5
   0 -11  -7 271.226 194.785   9
   0  11   7 609.578 211.048   4
   0  11   8 2779.38 400.419   4
   0 -11  -8 3028.21 471.303   9
   0 -11  -8 2925.03 497.618   7
   0 -11  -8 3208.82 478.680   8
   0  11   8 3149.30 441.547   1
   0  11   8 3025.72 520.742   5
   0 -11  -9-19.7567 154.057   8
   0  11   9 2.53433 180.109   5
   0  11   9 411.261 229.884   1
   0 -11  -9 451.910 225.633   9
   0 -11  -9-44.3199 196.002   7
   0 -11 -10 11298.6 954.854   7
   0 -11 -10 10709.9 893.206   9
   0 -11 -10 11704.2 915.890   8
   0  11  10 10621.0 966.109   5
   0  11  10 11795.5 893.355   1
   0  11  11 1615.64 394.923   5
   0  11  11 1653.36 382.172   1
   0 -11 -11 1366.89 351.638   9
   0 -11 -11 1374.53 372.815   8
   0 -11 -11 943.975 277.736   7
   0  11  12 109.756 178.977   5
   0 -11 -12 563.443 272.035   9
   0  11  12 378.774 234.193   1
   0 -11 -12 12.8247 174.640   7
   0 -11 -12-126.837 218.897   8
   0 -11 -13 2012.83 422.745   7
   0  11  13 2476.85 513.631   5
   0  11  13 2016.79 423.268   1
   0  11  14 1767.64 454.868   1
   0 -11 -14 966.601 337.478   7
   0 -11 -15-44.4789 200.185   7
   0  11  15 554.331 283.618   1
   0 -11 -16 934.894 312.712   7
   0  12  -4 48.0023 188.403   4
   0 -12   4 271.630 212.428   7
   0 -12   4-83.5321 199.271   9
   0  12  -3 130.385 167.482   5
   0 -12   3-69.5310 186.706   7
   0  12  -3-238.615 264.945   4
   0 -12   3-169.030 220.519   9
   0  12  -2 1311.29 360.572   4
   0 -12   2 587.061 252.810   9
   0  12  -2 1754.63 385.290   5
   0 -12   2 1179.86 361.118   7
   0  12  -1 254.969 212.438   4
   0 -12   1-143.852 220.720   7
   0 -12   1 153.484 251.446   9
   0  12  -1 127.766 185.522   5
   0 -12   0 2554.13 463.644   9
   0 -12   0 2381.03 477.769   7
   0  12   0 3239.69 532.990   4
   0  12   0 3350.82 527.127   5
   0 -12  -1 1128.71 362.470   7
   0 -12  -1 1024.90 329.203   9
   0 -12  -1 1142.22 281.042   8
   0  12   1 1492.45 366.710   5
   0  12   1 1157.39 352.474   4
   0 -12  -2 1378.38 337.179   9
   0 -12  -2 1683.52 434.133   7
   0  12   2 1543.80 368.208   4
   0  12   2 1322.65 341.283   5
   0 -12  -2 1816.42 329.987   8
   0 -12  -3-6.65979 184.486   9
   0  12   3-113.718 169.285   5
   0  12   3 118.584 187.652   4
   0 -12  -3 102.649 185.966   7
   0 -12  -3-167.217 147.654   8
   0  12   4-15.7257 157.482   5
   0 -12  -4-89.3349 194.591   7
   0 -12  -4 220.412 181.259   8
   0  12   4-123.376 173.656   4
   0 -12  -4 47.4694 189.001   9
   0 -12  -5 2453.89 447.817   9
   0  12   5 2805.99 452.758   4
   0 -12  -5 1926.87 373.940   8
   0 -12  -5 1863.76 396.629   7
   0  12   5 1925.75 408.264   5
   0  12   6 161.215 196.054   4
   0  12   6-128.152 159.247   5
   0 -12  -6-2.13530 166.082   9
   0 -12  -6 127.440 169.585   8
   0 -12  -6 75.7185 174.070   7
   0  12   7 210.628 204.429   5
   0 -12  -7-5.12687 171.667   7
   0 -12  -7-338.826 203.315   8
   0 -12  -7 303.400 239.399   9
   0  12   7 119.432 142.822   4
   0 -12  -8 675.579 260.718   7
   0 -12  -8 1140.89 334.126   8
   0 -12  -8 667.834 259.365   9
   0  12   8 750.711 308.629   5
   0 -12  -9 936.550 297.085   8
   0 -12  -9 879.614 313.467   9
   0 -12  -9 424.819 283.968   7
   0  12   9 921.928 334.351   5
   0 -12 -10 1782.92 397.196   8
   0  12  10 1986.52 449.578   5
   0 -12 -10 2365.09 481.227   7
   0 -12 -10 2703.37 501.408   9
   0  12  10 2012.29 389.737   1
   0  12  11 235.910 171.551   1
   0 -12 -11 452.030 252.876   9
   0 -12 -11 203.788 170.562   8
   0 -12 -11-290.443 189.152   7
   0  12  11 262.571 244.203   5
   0 -12 -12 115.960 207.038   9
   0 -12 -12 207.851 219.510   7
   0  12  12 300.134 223.173   1
   0 -12 -12 285.247 215.166   8
   0 -12 -13 1624.81 421.431   8
   0 -12 -13 1454.40 380.406   7
   0  12  13 1816.82 415.378   1
   0 -12 -13 1274.95 368.289   9
   0  12  14 230.656 207.920   1
   0 -12 -14 190.202 233.513   7
   0 -13   3-74.5200 224.653   9
   0 -13   2 1004.11 357.874   9
   0  13  -2 637.397 284.869   5
   0  13  -1 772.841 333.476   4
   0 -13   1 471.976 249.154   9
   0  13  -1 852.458 302.768   5
   0  13   0 3753.14 578.617   5
   0 -13   0 3350.73 564.579   9
   0 -13   0 3826.90 633.139   7
   0  13   0 2802.70 545.338   4
   0 -13  -1-25.9064 182.494   9
   0  13   1-39.8707 231.715   4
   0  13   1 99.8542 236.211   5
   0 -13  -2 3025.01 571.951   7
   0 -13  -2 2592.05 504.970   9
   0  13   2 3017.26 560.566   5
   0  13   2 2800.88 513.093   4
   0 -13  -3 21.7982 258.206   7
   0  13   3-68.5897 198.608   5
   0 -13  -3 547.023 276.459   9
   0  13   3 109.553 193.219   4
   0 -13  -4 609.859 302.317   7
   0  13   4 690.146 333.283   5
   0  13   4 540.187 262.546   4
   0 -13  -4-54.5897 209.855   9
   0  13   5 398.573 249.494   4
   0 -13  -5-252.609 182.543   8
   0  13   5 183.927 231.097   5
   0 -13  -5-8.66931 230.355   9
   0 -13  -5-76.8330 198.464   7
   0 -13  -6-46.8867 187.309   7
   0  13   6 151.569 165.096   4
   0 -13  -6 341.858 232.295   8
   0 -13  -6-72.4998 183.186   9
   0  13   6 0.50882 208.760   5
   0  13   7 343.585 255.841   5
   0 -13  -7 267.676 227.629   7
   0 -13  -7 679.053 251.738   9
   0 -13  -7 334.366 274.633   8
   0 -13  -8-108.530 271.643   9
   0 -13  -8 104.221 190.077   7
   0  13   8 483.255 312.928   5
   0 -13  -8 294.674 239.175   8
   0  13   9 887.318 340.124   5
   0 -13  -9 728.478 314.426   7
   0 -13  -9 1974.87 427.912   8
   0 -13  -9 977.128 327.058   9
   0 -13 -10 276.691 284.809   8
   0 -13 -10-207.919 212.278   9
   0 -13 -10 253.467 240.993   7
   0 -13 -11 662.882 290.321   9
   0 -13 -11 480.952 271.967   8
   0  14   0 1685.73 438.865   5
   0  14   1 233.087 230.919   5
   0 -14  -2 1068.41 357.620   9
   0  14   2 641.171 278.673   5
   0  14   2 921.336 284.413   4
   0  14   3 1073.07 378.272   4
   0 -14  -3 717.225 353.229   9
   0  14   3 1295.65 378.101   5
   0 -14  -4 57.0670 194.239   9
   0  14   4 254.795 252.373   4
   0 -14  -5-274.522 220.978   9
   0  14   5 32.8789 184.120   4
   0 -14  -6 431.968 228.501   9
   0 -14  -7 755.862 391.446   9
   0 -14  -9 744.439 306.501   8
   0 -14 -10 1160.33 367.849   8
   1 -14  -8 17.2138 258.553   8
   1 -14  -7 561.184 288.974   8
   1 -14  -6 350.919 208.571   8
   1 -14  -6 896.055 307.201   9
   1 -14  -5-348.904 267.894   9
   1 -14  -5-144.705 169.156   8
  -1  14   5 38.8118 170.446   4
   1 -14  -4 599.612 339.383   9
  -1  14   4 488.408 266.410   4
   1 -14  -3 401.720 239.915   9
  -1  14   3 323.055 261.395   4
   1 -14  -2 363.615 248.687   9
  -1  14   2 464.692 289.543   4
   1 -14  -1 44.3593 205.779   9
   1 -14   0 113.041 197.425   9
   1 -13 -11 547.268 270.885   7
   1 -13 -11 301.034 215.298   9
   1 -13 -10 1620.02 410.395   8
   1 -13 -10 1855.98 413.199   9
   1 -13 -10 966.342 336.714   7
   1 -13  -9 25.5514 197.320   7
   1 -13  -9 759.202 329.882   9
   1 -13  -9 427.517 278.333   8
   1 -13  -8 90.2266 190.299   8
   1 -13  -8 147.777 211.633   7
  -1  13   7 998.823 392.923   5
   1 -13  -7 674.974 343.462   7
   1 -13  -7 206.397 181.428   8
   1 -13  -7 1007.05 324.314   9
   1 -13  -6 148.616 201.414   8
   1 -13  -6 186.252 177.937   7
  -1  13   6 585.923 305.631   5
   1 -13  -6 704.752 285.998   9
  -1  13   6 555.893 243.753   4
   1 -13  -5 1.06647 160.562   8
   1 -13  -5 428.920 273.955   7
   1 -13  -5 256.453 237.561   9
  -1  13   5 36.5497 179.087   4
  -1  13   5 219.689 247.980   5
  -1  13   4 355.153 299.500   5
   1 -13  -4 432.380 245.253   8
  -1  13   4 565.283 284.336   4
   1 -13  -4 137.956 165.446   9
   1 -13  -4 525.924 275.843   7
   1 -13  -3-217.387 223.161   9
  -1  13   3 361.308 254.725   4
  -1  13   3 358.208 249.722   5
   1 -13  -3-61.6880 214.819   7
   1 -13  -3 27.1804 167.942   8
   1 -13  -2 421.730 274.121   9
  -1  13   2 297.381 273.795   5
   1 -13  -2 295.757 221.724   8
   1 -13  -2 94.1692 193.638   7
  -1  13   2 127.421 163.066   4
   1 -13  -1-132.822 185.528   9
  -1  13   1 360.352 226.456   5
  -1  13   1 154.200 182.749   4
   1 -13  -1 267.697 203.941   7
   1 -13   0 713.964 310.684   7
  -1  13   0 416.866 234.784   5
   1 -13   0 745.315 326.040   9
  -1  13   0 347.177 160.683   4
  -1  13  -1 275.560 226.545   5
   1 -13   1 605.449 261.065   9
  -1  13  -1 128.684 228.427   4
  -1  13  -2 254.224 224.707   5
   1 -13   2-114.212 198.710   9
  -1  13  -3 1.97739 166.669   5
   1 -13   3 85.9531 228.101   9
   1 -12 -14 727.572 340.915   9
  -1  12  13 175.610 223.270   1
   1 -12 -13-423.107 304.061   7
   1 -12 -13 283.430 223.032   9
   1 -12 -12 185.052 230.061   9
   1 -12 -12 350.329 251.993   8
   1 -12 -12 604.595 313.035   7
  -1  12  12 240.976 220.637   1
   1 -12 -11 1892.97 421.705   7
   1 -12 -11 2041.48 454.123   9
   1 -12 -11 1924.24 447.338   8
   1 -12 -10 1912.43 433.101   8
  -1  12  10 1757.13 455.586   5
   1 -12 -10 1501.40 395.142   7
   1 -12 -10 1747.05 433.006   9
   1 -12  -9 621.066 285.529   9
   1 -12  -9-224.463 227.065   8
  -1  12   9 604.156 306.070   5
   1 -12  -9 478.088 320.841   7
   1 -12  -8 188.290 205.250   8
  -1  12   8 153.140 215.197   5
   1 -12  -8 32.5732 172.972   7
   1 -12  -8-182.220 175.614   9
   1 -12  -7 936.811 314.928   7
   1 -12  -7 910.177 317.575   8
  -1  12   7 800.768 266.439   5
   1 -12  -7 1009.09 312.235   9
  -1  12   7 1062.20 303.561   4
  -1  12   6-59.8181 142.516   4
   1 -12  -6 235.992 201.246   9
   1 -12  -6 73.9596 196.447   7
   1 -12  -6 115.800 156.459   8
  -1  12   6 52.2313 172.517   5
   1 -12  -5 679.118 237.087   8
   1 -12  -5 232.704 222.169   9
  -1  12   5 871.234 264.502   4
   1 -12  -5 634.581 263.302   7
  -1  12   5 483.123 248.339   5
   1 -12  -4 1322.84 370.209   7
   1 -12  -4 1109.51 303.405   9
  -1  12   4 1130.67 334.986   5
  -1  12   4 1112.61 312.366   4
   1 -12  -4 1533.57 365.695   8
   1 -12  -3 884.820 299.452   9
   1 -12  -3 75.0346 179.197   7
  -1  12   3 239.219 186.834   5
   1 -12  -3 710.689 296.462   8
  -1  12   3 554.124 245.835   4
  -1  12   2 25.3666 190.217   4
   1 -12  -2-1.65838 176.314   7
  -1  12   2-143.633 195.730   5
   1 -12  -2-88.5865 149.183   8
   1 -12  -2 215.508 179.572   9
  -1  12   1 378.372 226.565   4
   1 -12  -1 269.593 180.740   8
   1 -12  -1 562.499 262.935   9
  -1  12   1 406.745 269.553   5
   1 -12  -1 406.633 231.224   7
  -1  12   0 1027.26 341.422   5
   1 -12   0 998.593 355.776   7
   1 -12   0 685.003 287.924   9
  -1  12   0 598.676 256.551   4
   1 -12   0 596.515 216.361   8
  -1  12  -1 230.370 236.188   4
   1 -12   1 123.314 210.944   9
   1 -12   1 260.362 165.581   8
   1 -12   1 232.417 267.129   7
  -1  12  -1 143.004 183.302   5
  -1  12  -2 480.585 277.711   5
  -1  12  -2-59.6949 190.154   4
   1 -12   2-38.0026 169.808   9
   1 -12   2 154.375 208.138   7
   1 -12   3 31.5335 199.210   7
  -1  12  -3 310.064 183.767   5
   1 -12   3 369.231 281.314   9
  -1  12  -3 74.6810 199.243   4
  -1  12  -4 449.778 298.054   4
   1 -12   4 75.7477 245.491   7
  -1  12  -4 317.767 248.617   5
  -1  12  -5 716.782 339.368   5
   1 -11 -14 1254.68 364.018   7
  -1  11  14 489.321 255.005   1
   1 -11 -13 60.4477 237.550   7
  -1  11  13-24.4674 182.574   5
  -1  11  13 143.223 237.811   1
   1 -11 -13 130.502 260.060   8
  -1  11  12 558.490 290.250   1
   1 -11 -12 938.022 379.368   8
   1 -11 -12 711.805 297.243   9
  -1  11  12 576.074 286.023   5
   1 -11 -12 391.255 234.787   7
  -1  11  11 4815.90 682.661   5
   1 -11 -11 3738.38 580.950   8
  -1  11  11 4448.63 588.780   1
   1 -11 -11 3769.59 550.896   7
   1 -11 -11 3712.99 543.992   9
  -1  11  10 1038.50 356.649   5
   1 -11 -10 1142.48 322.388   7
  -1  11  10 1246.74 318.543   1
   1 -11 -10 1798.10 385.574   9
   1 -11 -10 1408.71 379.458   8
   1 -11  -9 77.3612 192.313   7
  -1  11   9 325.224 283.357   5
   1 -11  -9 98.6735 188.823   9
   1 -11  -9 321.728 236.226   8
  -1  11   9 102.573 126.939   1
   1 -11  -8 613.306 233.747   7
  -1  11   8 848.459 265.877   1
   1 -11  -8 835.110 277.873   9
   1 -11  -8 723.609 264.671   8
  -1  11   8 749.050 260.858   5
  -1  11   7 270.212 238.492   5
  -1  11   7-167.521 143.174   4
   1 -11  -7 293.922 233.059   9
   1 -11  -7 15.8951 167.554   7
   1 -11  -7-102.398 159.566   8
   1 -11  -6 2356.95 427.042   7
   1 -11  -6 2124.84 384.761   9
   1 -11  -6 2068.48 414.590   8
  -1  11   6 1643.43 411.653   5
  -1  11   6 2331.86 380.912   4
  -1  11   5 1911.30 405.448   5
  -1  11   5 920.429 261.066   4
   1 -11  -5 1062.73 305.825   9
   1 -11  -5 1055.64 306.884   8
   1 -11  -5 1057.14 331.162   7
   1 -11  -4 169.398 167.998   7
  -1  11   4 20.9288 129.865   4
   1 -11  -4 231.997 158.909   9
   1 -11  -4 352.855 214.920   8
  -1  11   4 486.264 237.762   5
  -1  11   3 138.715 185.324   5
   1 -11  -3 95.8747 174.436   9
   1 -11  -3-96.0540 153.748   8
  -1  11   3 75.9646 159.882   4
  -1  11   2 1836.85 379.361   4
   1 -11  -2 2509.18 422.338   8
  -1  11   2 1905.65 398.465   5
   1 -11  -2 2740.00 456.750   7
   1 -11  -2 2346.23 403.045   9
   1 -11  -1 2847.88 442.575   9
  -1  11   1 2464.96 435.576   4
   1 -11  -1 2598.13 464.891   7
  -1  11   1 2228.84 431.581   5
   1 -11  -1 3331.39 453.012   8
  -1  11   0 350.113 203.061   4
  -1  11   0 625.021 264.205   5
   1 -11   0 627.695 239.595   8
   1 -11   0 269.441 225.849   7
   1 -11   0 291.502 176.389   9
  -1  11  -1 1941.46 427.531   4
   1 -11   1 1734.53 411.256   7
  -1  11  -1 2202.47 414.056   5
   1 -11   1 1426.51 344.941   9
   1 -11   1 2259.51 384.069   8
   1 -11   2 4004.33 555.865   9
  -1  11  -2 3830.76 566.043   4
  -1  11  -2 4151.32 556.504   5
   1 -11   2 4281.98 535.079   8
   1 -11   2 3912.36 588.796   7
   1 -11   3-27.4656 162.421   7
  -1  11  -3 272.544 212.344   5
   1 -11   3 209.155 175.603   9
  -1  11  -3 348.596 237.166   4
   1 -11   3 173.878 168.868   8
  -1  11  -4 202.988 146.154   5
   1 -11   4 150.635 226.133   7
  -1  11  -4-52.8763 200.758   4
   1 -11   4 387.656 234.432   9
   1 -11   4 89.0129 175.026   8
   1 -11   5 204.652 230.023   7
  -1  11  -5 524.652 247.876   5
  -1  11  -5 594.329 310.089   4
  -1  11  -6 2065.24 424.260   6
  -1  11  -6 1103.74 291.800   5
   1 -11   6 1146.83 360.499   7
  -1  11  -6 1835.31 442.815   4
  -1  11  -7 159.440 222.152   6
   1 -11   7 10.8980 235.970   7
  -1  11  -7-21.3139 206.721   4
  -1  11  -8 425.311 232.201   6
  -1  11  -9 680.566 329.427   6
  -1  10  15-87.7673 239.068   1
  -1  10  15 23.0513 205.374   5
  -1  10  14 165.783 240.852   5
  -1  10  14 283.091 235.913   1
   1 -10 -14 60.3915 214.303   7
  -1  10  13 864.495 303.831   1
   1 -10 -13 310.623 170.542   7
  -1  10  13 834.025 288.858   5
   1 -10 -12 2557.23 483.278   8
  -1  10  12 2181.68 467.981   5
   1 -10 -12 1889.19 408.321   7
  -1  10  12 2119.28 439.557   1
  -1  10  11 3035.33 531.002   5
   1 -10 -11 3309.16 505.501   8
  -1  10  11 3272.03 488.167   1
   1 -10 -11 3716.03 552.977   7
  -1  10  10 746.834 264.380   1
   1 -10 -10 610.511 260.026   8
  -1  10  10 1343.71 382.013   5
   1 -10 -10 1075.45 325.075   7
   1 -10 -10 1291.18 328.811   9
   1 -10  -9 377.435 233.739   8
   1 -10  -9 55.7552 150.055   7
  -1  10   9 147.370 179.812   5
   1 -10  -9 183.654 188.397   9
  -1  10   9 58.9086 170.045   1
  -1  10   8 2516.60 403.368   1
   1 -10  -8 2802.00 428.186   9
  -1  10   8 3082.24 375.940   4
  -1  10   8 1626.23 376.256   5
   1 -10  -8 2474.07 429.647   7
   1 -10  -8 2454.51 425.645   8
  -1  10   7 97.4597 118.735   1
  -1  10   7 21.2393 106.648   4
  -1  10   7-177.981 190.447   5
   1 -10  -7 149.113 149.160   7
   1 -10  -7 220.006 189.418   9
   1 -10  -7 185.161 177.593   8
  -1  10   6 854.574 246.147   1
   1 -10  -6 833.634 279.813   7
   1 -10  -6 617.493 219.081   8
  -1  10   6 607.845 183.366   4
   1 -10  -6 863.097 267.420   9
  -1  10   6 1043.50 319.824   5
  -1  10   5 152.621 131.760   4
  -1  10   5-303.899 240.636   5
   1 -10  -5-243.908 171.403   9
   1 -10  -5 120.881 134.283   8
  -1  10   5 133.622 123.956   1
   1 -10  -5 314.861 138.176   7
  -1  10   4 2363.37 413.861   5
   1 -10  -4 1975.62 372.737   9
   1 -10  -4 2346.22 398.677   7
   1 -10  -4 2608.27 396.984   8
   1 -10  -3 651.461 240.315   8
   1 -10  -3 539.405 225.187   7
  -1  10   3 795.693 273.162   5
   1 -10  -3 1064.03 277.989   9
   1 -10  -2 939.992 249.804   9
  -1  10   2 762.839 236.597   5
   1 -10  -2 784.753 237.983   8
   1 -10  -2 1147.05 280.488   7
   1 -10  -1 3296.13 432.034   8
   1 -10  -1 2919.89 465.059   7
  -1  10   1 3056.60 454.470   5
   1 -10  -1 2784.74 438.553   9
   1 -10   0-29.6154 188.670   7
   1 -10   0 284.424 186.483   9
  -1  10   0-147.509 181.846   5
   1 -10   0-86.4502 126.669   8
  -1  10  -1 10611.3 832.992   5
   1 -10   1 10103.3 872.949   7
   1 -10   1 10629.8 742.840   8
   1 -10   1 10553.8 817.432   9
   1 -10   2 201.887 210.897   9
  -1  10  -2 422.795 176.571   6
  -1  10  -2 85.4296 171.780   5
   1 -10   2 290.328 225.023   7
   1 -10   2 288.138 155.445   8
   1 -10   3 618.826 228.780   8
   1 -10   3 375.049 204.924   9
  -1  10  -3 535.147 202.643   6
   1 -10   3 159.410 216.748   7
  -1  10  -3 512.055 208.152   5
  -1  10  -4-68.2560 148.931   5
   1 -10   4-3.71201 120.248   8
   1 -10   4-43.9871 174.929   9
  -1  10  -4-45.0730 114.596   6
   1 -10   4-56.4832 181.736   7
   1 -10   5 1107.03 258.278   8
   1 -10   5 1214.36 349.785   7
  -1  10  -5 912.351 298.649   5
  -1  10  -5 1103.43 292.053   6
   1 -10   6 125.928 158.527   8
   1 -10   6-160.458 250.955   7
  -1  10  -6 69.0411 180.779   5
  -1  10  -6 145.070 189.634   6
  -1  10  -6-161.604 228.988   4
   1 -10   7 319.389 236.077   8
  -1  10  -7 173.367 175.631   4
  -1  10  -7 271.067 177.396   5
   1 -10   7 414.280 252.130   7
  -1  10  -7 614.444 279.787   6
  -1  10  -8 213.585 193.212   4
  -1  10  -8 292.675 172.024   5
  -1  10  -9 2132.98 487.855   6
  -1  10  -9 1261.09 373.504   4
  -1  10 -10 345.371 279.674   6
  -1   9  16 427.716 303.076   1
  -1   9  15 206.711 200.897   1
   1  -9 -15 289.349 202.962   7
  -1   9  15-8.40393 192.427   5
  -1   9  14-41.9060 184.831   5
  -1   9  14-168.719 185.363   1
   1  -9 -14 141.515 157.807   7
  -1   9  13 1065.51 366.110   5
   1  -9 -13 673.909 275.163   7
  -1   9  13 681.763 290.020   1
  -1   9  12 3800.71 587.715   5
   1  -9 -12 3410.28 508.549   7
  -1   9  12 4299.18 584.013   1
  -1   9  11 233.671 168.808   1
  -1   9  11 360.356 197.974   5
   1  -9 -11 692.265 280.025   7
  -1   9  10 43.1205 168.494   5
  -1   9  10 4.30001 146.535   1
   1  -9 -10-10.9051 155.112   7
  -1   9   9 5074.15 556.684   1
   1  -9  -9 5646.85 592.197   7
  -1   9   9 4448.65 572.197   5
   1  -9  -9 5503.41 585.530   8
   1  -9  -9 6304.63 466.734  11
   1  -9  -8-21.4158 114.227  11
  -1   9   8 171.678 97.7577   4
   1  -9  -8 633.814 248.925   7
  -1   9   8 226.651 170.378   1
   1  -9  -8 239.771 182.093   8
  -1   9   8 54.5912 135.035   5
   1  -9  -8 346.047 171.547   9
  -1   9   7 989.787 211.482   4
  -1   9   7 1234.26 264.787   1
   1  -9  -7 1063.91 288.397   9
  -1   9   7 1171.20 308.861   5
   1  -9  -7 1044.51 298.312   7
   1  -9  -7 967.304 279.927   8
  -1   9   6 245.882 164.155   1
   1  -9  -6 271.150 165.607   7
   1  -9  -6 170.773 148.985   8
   1  -9  -6 148.002 192.691   9
  -1   9   6 322.693 192.741   5
   1  -9  -5 3242.19 454.273   7
   1  -9  -5 3062.59 417.594   8
  -1   9   5 2825.57 356.143   1
   1  -9  -5 2506.74 371.702   9
  -1   9   5 2688.35 432.940   5
   1  -9  -4 130.150 168.929   7
   1  -9  -4 86.0578 176.544   8
  -1   9   4 114.168 134.722   1
   1  -9  -4 64.5536 147.835   9
  -1   9   4-106.192 147.681   5
   1  -9  -3 506.002 208.017   7
  -1   9   3 640.747 159.869   1
  -1   9   3 786.850 230.764   5
   1  -9  -3 673.420 207.089   9
   1  -9  -3 509.540 216.601   8
  -1   9   2 2704.64 268.275   1
   1  -9  -2 2355.57 345.426   9
   1  -9  -2 2490.89 360.576   8
  -1   9   2 3073.92 433.367   5
   1  -9  -2 2717.75 414.348   7
   1  -9  -1 3260.36 438.056   9
  -1   9   1 2924.08 423.991   5
   1  -9  -1 3073.99 441.104   7
  -1   9   1 3304.65 304.532   6
   1  -9  -1 2877.22 387.018   8
   1  -9   0 3439.64 431.573   9
  -1   9   0 3911.05 369.054   6
   1  -9   0 3881.56 502.244   7
  -1   9   0 3762.04 474.687   5
   1  -9   0 3646.65 424.719   8
  -1   9  -1 1430.78 290.232   5
  -1   9  -1 1605.92 261.227   6
   1  -9   1 2009.57 337.922   8
   1  -9   1 1575.76 319.564   9
   1  -9   1 1644.56 351.372   7
  -1   9  -2 34.3062 106.412   6
  -1   9  -2 150.496 162.218   5
   1  -9   2-100.167 135.351   8
   1  -9   2-149.265 140.833   9
   1  -9   2 164.238 174.339   7
   1  -9   3 985.779 305.845   7
  -1   9  -3 702.963 192.485   6
  -1   9  -3 735.521 233.226   5
   1  -9   3 803.418 264.703   9
   1  -9   3 825.955 231.405   8
   1  -9   4 551.808 227.894   7
  -1   9  -4 602.317 241.770   5
   1  -9   4 595.288 221.658   9
   1  -9   4 942.483 229.531   8
  -1   9  -4 900.026 236.317   6
   1  -9   5 375.021 176.360   7
  -1   9  -5 315.798 203.600   5
  -1   9  -5 51.7065 128.669   6
   1  -9   5 224.390 189.369   8
   1  -9   6 530.169 213.407   8
  -1   9  -6 749.918 246.501   5
   1  -9   6 509.571 261.036   7
  -1   9  -6 627.460 251.806   6
   1  -9   7 190.813 176.767   7
  -1   9  -7-90.7646 136.305   6
  -1   9  -7 131.271 193.429   5
   1  -9   7 304.291 172.634   8
  -1   9  -8 2764.76 509.945   4
  -1   9  -8 2938.28 443.264   5
  -1   9  -8 2871.07 485.624   6
   1  -9   8 2860.06 418.975   8
  -1   9  -9-46.2616 200.891   6
  -1   9  -9 135.961 150.912   5
  -1   9  -9 332.483 229.739   4
  -1   9 -10 2135.90 466.469   4
  -1   9 -10 2602.13 487.720   6
  -1   9 -11 1691.09 405.663   4
  -1   9 -11 1498.75 381.223   6
  -1   9 -12-33.9604 141.874   4
   1  -8 -17 609.852 271.712  11
   1  -8 -16 214.058 221.499  11
  -1   8  16 148.350 216.463   1
   1  -8 -15 201.505 173.772   7
  -1   8  15 54.4599 186.770   1
   1  -8 -15 68.4380 172.618  11
  -1   8  14 43.4460 195.521   5
   1  -8 -14 106.306 209.440  11
   1  -8 -14-1.82543 153.459   7
  -1   8  14 186.771 243.794   1
   1  -8 -13 1507.60 326.126   7
   1  -8 -13 1395.19 306.212  11
  -1   8  13 1746.87 375.952   5
  -1   8  13 1118.98 317.009   1
   1  -8 -12 1426.40 298.990  11
  -1   8  12 938.718 296.636   5
   1  -8 -12 1378.90 303.207   7
  -1   8  12 1402.71 333.810   1
  -1   8  11 294.902 132.149   1
   1  -8 -11 791.368 274.178  11
  -1   8  11 449.780 206.984   5
   1  -8 -11 212.233 141.988   7
  -1   8  10 3639.36 474.732   1
   1  -8 -10 3859.97 456.373   7
  -1   8  10 2794.08 462.104   5
   1  -8  -9 1681.02 325.248   7
  -1   8   9 1563.26 311.019   1
  -1   8   9 1990.58 381.819   5
   1  -8  -9 2314.16 309.668  11
  -1   8   9 1817.04 225.245   4
   1  -8  -8 1615.45 321.609   7
  -1   8   8 1554.55 278.389   1
  -1   8   8 1699.55 232.355   4
  -1   8   8 1773.71 370.505   5
   1  -8  -7 1422.12 275.141   9
  -1   8   7 1369.02 304.547   5
   1  -8  -7 1458.97 299.808   8
  -1   8   7 1396.37 284.127   1
   1  -8  -7 1419.96 298.670   7
   1  -8  -7 1361.89 192.814  11
  -1   8   7 1413.63 221.475   4
   1  -8  -6 9956.46 707.885   8
   1  -8  -6 9517.37 706.016   7
   1  -8  -6 9895.36 483.863  11
  -1   8   6 8244.50 689.436   5
   1  -8  -6 9401.86 655.299   9
  -1   8   6 9840.95 650.536   1
   1  -8  -5 1186.29 261.316   8
  -1   8   5 993.699 221.313   1
  -1   8   5 1236.13 307.897   5
   1  -8  -5 741.104 210.980   7
   1  -8  -5 1253.37 260.945   9
   1  -8  -4 865.309 236.915   7
   1  -8  -4 931.525 232.778   8
   1  -8  -4 815.304 83.8367  10
  -1   8   4 970.275 190.360   1
  -1   8   4 1078.59 268.299   5
   1  -8  -4 824.168 209.360   9
   1  -8  -3 567.206 222.916   8
   1  -8  -3 952.105 223.296   9
  -1   8   3 1110.47 204.898   1
   1  -8  -3 1211.41 276.916   7
  -1   8   3 1008.15 260.368   5
  -1   8   2 4472.63 482.891   5
   1  -8  -2 3739.81 440.036   7
   1  -8  -2 4835.93 464.920   9
  -1   8   2 4784.96 342.383   1
   1  -8  -2 4683.23 459.516   8
   1  -8  -1 1880.49 328.268   7
   1  -8  -1 1389.10 269.718   9
   1  -8  -1 1729.03 293.637   8
  -1   8   1 1778.63 197.624   1
  -1   8   1 1917.98 238.447   6
  -1   8   1 1563.84 299.706   5
  -1   8   0 3374.17 424.610   5
  -1   8   0 3090.28 312.096   6
  -1   8   0 3239.70 228.796   1
   1  -8   0 2797.63 356.497   8
   1  -8   0 2923.18 388.409   7
   1  -8   0 3048.43 381.916   9
  -1   8  -1 3573.09 347.827   6
   1  -8   1 3127.58 390.808   9
   1  -8   1 3578.10 392.823   8
   1  -8   1 3137.84 418.524   7
  -1   8  -1 2775.62 385.646   5
  -1   8  -1 3227.27 184.949   1
  -1   8  -2 54.2066 126.980   5
   1  -8   2 56.0300 137.642   8
  -1   8  -2 96.5258 111.632   6
   1  -8   2 40.9476 154.521   7
   1  -8   2 59.3852 118.521   9
   1  -8   3 551.420 201.228   7
  -1   8  -3 1055.55 189.762  11
   1  -8   3 741.112 200.878   8
  -1   8  -3 798.940 213.185   6
   1  -8   3 755.644 241.475   9
  -1   8  -3 696.548 198.609   5
   1  -8   4 847.076 246.433   7
   1  -8   4 1012.37 262.693   9
   1  -8   4 747.202 217.224   8
  -1   8  -4 818.888 171.964  11
  -1   8  -4 1134.05 258.459   6
  -1   8  -4 1014.68 252.190   5
   1  -8   5 1872.30 379.336   7
  -1   8  -5 2238.73 352.674   5
  -1   8  -5 2138.11 287.839  11
  -1   8  -5 1964.00 336.360   6
   1  -8   5 2150.42 330.903   8
  -1   8  -6-203.606 187.322   6
   1  -8   6-85.2511 179.015   7
  -1   8  -6 247.718 166.207   5
  -1   8  -6-45.7420 110.782  11
   1  -8   6-108.634 127.399   8
  -1   8  -7 443.974 177.644  11
  -1   8  -7 103.707 134.973   6
   1  -8   7 284.479 207.354   7
  -1   8  -7 565.066 220.617   5
   1  -8   7 313.767 163.818   8
   1  -8   8 2296.43 369.072   8
  -1   8  -8 1840.09 326.753  11
  -1   8  -8 2271.38 392.786   5
  -1   8  -8 1672.71 362.085   6
  -1   8  -9 198.381 172.532   5
  -1   8  -9-87.0566 212.806   4
  -1   8  -9 250.984 164.012  11
  -1   8  -9-1.27300 201.784   6
  -1   8 -10 2186.31 391.432  11
  -1   8 -10 2054.60 412.735   6
  -1   8 -10 2268.45 441.451   4
  -1   8 -10 2779.48 425.900   5
  -1   8 -11 195.573 144.084   4
  -1   8 -11-169.176 263.182  11
  -1   8 -12 716.399 306.824   4
  -1   8 -12 64.3449 199.106  11
  -1   8 -12 639.255 308.761   6
  -1   8 -13-144.857 257.182  11
  -1   8 -13 288.565 205.691   4
  -1   8 -14 1056.32 346.255   4
  -1   8 -14 1182.88 348.996  11
   1  -7 -19 823.091 296.532  11
   1  -7 -18-286.748 264.722  11
  -1   7  17 222.504 256.020   1
   1  -7 -17-472.288 319.341  11
   1  -7 -16 228.040 181.950  11
  -1   7  16 419.050 256.272   1
   1  -7 -15 984.522 285.110   7
   1  -7 -15 128.328 210.347  11
  -1   7  15 1143.70 331.904   1
   1  -7 -14 704.057 275.052   7
   1  -7 -14 295.602 169.780  11
  -1   7  14 246.041 147.867   1
   1  -7 -13 86.1689 134.113  11
  -1   7  13 27.1526 167.872   5
   1  -7 -13 496.887 230.797   7
  -1   7  13 313.717 208.748   1
  -1   7  12 662.103 245.983   5
  -1   7  12 582.212 238.863   1
   1  -7 -12 322.650 159.782  11
   1  -7 -12 469.392 185.281   7
   1  -7 -11 122.394 130.255   7
  -1   7  11 477.401 195.743   1
  -1   7  11 294.594 180.347   5
   1  -7 -11 8.83017 121.006  11
   1  -7 -10 321.712 181.135   7
  -1   7  10 365.313 192.711   1
   1  -7 -10 478.052 195.716  11
  -1   7  10 68.3577 150.669   5
   1  -7  -9 692.639 201.049  11
  -1   7   9 782.226 276.911   5
  -1   7   9 219.033 143.608   1
   1  -7  -9 667.742 202.983   7
  -1   7   9 610.134 112.935   4
  -1   7   8 1862.65 325.172   5
  -1   7   8 1994.07 210.252   4
  -1   7   8 1973.41 333.081   1
   1  -7  -8 2346.13 300.621  11
   1  -7  -8 1856.22 307.103   7
   1  -7  -7 14792.2 632.171  11
   1  -7  -7 14407.1 804.942   7
  -1   7   7 13662.7 777.074   1
  -1   7   7 14955.6 884.951   5
   1  -7  -6 474.719 195.521   8
   1  -7  -6 653.301 143.090  11
   1  -7  -6 486.043 168.228   7
  -1   7   6 692.185 226.976   5
   1  -7  -6 710.808 140.600  10
  -1   7   6 793.906 145.131  11
  -1   7   6 578.659 167.886   1
   1  -7  -5 13.0713 118.294   7
  -1   7   5 243.983 187.882   5
  -1   7   5 167.560 116.635   1
   1  -7  -5-63.9481 146.163   8
   1  -7  -5 142.015 63.8069  10
  -1   7   5 115.669 69.5585  11
   1  -7  -5-150.794 118.950  11
   1  -7  -5 61.7623 141.266   9
  -1   7   4 146.610 65.2402  11
   1  -7  -4 320.936 153.998   9
   1  -7  -4-214.828 146.868   7
   1  -7  -4 425.374 189.026   8
  -1   7   4 290.574 161.799   5
   1  -7  -4 172.463 53.6945  10
  -1   7   4 99.5728 85.1772   1
   1  -7  -3 2850.14 336.694   9
  -1   7   3 3129.74 387.869   5
   1  -7  -3 2805.89 126.763  10
  -1   7   3 2950.29 290.406   1
   1  -7  -3 3768.88 387.035   8
   1  -7  -3 3358.42 389.972   7
  -1   7   3 3778.81 230.375  11
  -1   7   2 159.703 54.9837  11
   1  -7  -2 106.223 139.171   7
   1  -7  -2-140.130 151.454   8
   1  -7  -2 130.434 107.187   9
  -1   7   2 191.451 92.7435   1
  -1   7   2 16.7002 125.770   5
  -1   7   1 3726.01 417.120   5
   1  -7  -1 3713.36 373.322   8
  -1   7   1 4051.38 238.361  11
  -1   7   1 3861.59 290.227   6
  -1   7   1 3654.07 265.456   1
   1  -7  -1 3332.28 389.015   7
   1  -7  -1 3714.66 384.759   9
  -1   7   0 7594.79 444.683   6
  -1   7   0 7674.27 570.827   5
   1  -7   0 7689.35 517.066   8
  -1   7   0 7493.54 327.978   1
   1  -7   0 7394.51 582.174   7
   1  -7   0 7686.02 539.061   9
  -1   7   0 8435.52 374.881  11
   1  -7   1 667.653 128.950   2
  -1   7  -1 741.780 89.4117   1
   1  -7   1 396.320 140.910   8
   1  -7   1 589.727 220.319   7
   1  -7   1 616.993 201.011   9
  -1   7  -1 800.434 219.603   5
  -1   7  -1 602.947 155.904   6
   1  -7   2 1016.87 260.323   7
  -1   7  -2 1034.13 202.533   6
   1  -7   2 1079.37 235.678   9
  -1   7  -2 1232.09 251.932   5
   1  -7   2 913.314 210.678   8
   1  -7   2 1251.57 151.145   2
  -1   7  -3 6915.69 431.236  11
  -1   7  -3 7575.25 550.320   6
   1  -7   3 6588.15 536.404   9
   1  -7   3 7646.45 550.955   8
   1  -7   3 6944.57 610.554   7
  -1   7  -3 7439.54 336.868   2
  -1   7  -3 7212.21 573.454   5
   1  -7   3 7123.45 326.722   2
  -1   7  -4-21.4938 115.143   5
  -1   7  -4 11.3311 38.4309   2
   1  -7   4-59.4055 134.730   7
  -1   7  -4 2.40256 85.3990  11
   1  -7   4-78.5526 111.987   9
   1  -7   4-32.5637 115.633   8
  -1   7  -4-45.8913 98.1637   6
  -1   7  -5 3139.30 395.455   6
  -1   7  -5 3263.40 401.501   5
  -1   7  -5 2814.37 324.852  11
   1  -7   5 2783.88 407.417   7
   1  -7   5 3352.89 370.876   8
   1  -7   6-111.505 157.296   7
  -1   7  -6 117.986 112.709   5
   1  -7   6-49.1597 131.462   8
  -1   7  -6 15.1926 122.279   6
  -1   7  -6-58.1171 93.9573  11
   1  -7   7 3745.04 454.381   8
  -1   7  -7 3437.70 453.371   6
  -1   7  -7 3515.13 430.847   5
  -1   7  -7 3058.17 378.895  11
   1  -7   8 1197.79 316.531   8
  -1   7  -8 1747.17 313.627  11
  -1   7  -8 1537.81 300.802   6
  -1   7  -8 1723.75 343.801   5
  -1   7  -9 1859.32 382.964   6
  -1   7  -9 1679.70 319.909  11
  -1   7  -9 1784.40 325.292   5
  -1   7 -10 104.449 148.013   5
  -1   7 -10-195.658 200.452  11
  -1   7 -11 1254.77 270.494   5
  -1   7 -11 877.725 318.632   6
  -1   7 -11 639.472 191.365  11
  -1   7 -11 1515.01 357.417   4
  -1   7 -12 82.2730 160.711   6
  -1   7 -12 140.107 238.326   4
  -1   7 -12-34.9468 188.295  11
  -1   7 -13 1407.24 420.028   6
  -1   7 -13 1427.19 347.264  11
  -1   7 -13 598.416 306.447   4
  -1   7 -14 29.8106 229.562   6
  -1   7 -14 37.0576 154.922   4
  -1   7 -14-260.614 237.009  11
  -1   7 -15 234.178 225.772   4
  -1   7 -15 252.420 244.156  11
   1  -6 -19-871.180 397.493  11
   1  -6 -18-162.868 350.513  11
  -1   6  17 133.643 193.078   1
   1  -6 -17-569.974 338.626  11
   1  -6 -16 54.8054 231.948  11
  -1   6  16 671.383 294.149   1
  -1   6  15 111.924 220.936   1
   1  -6 -15-228.803 227.160  11
   1  -6 -14 3872.45 488.609  11
  -1   6  14 3345.44 523.618   1
   1  -6 -13 70.1231 199.415  11
  -1   6  13 240.556 213.245   1
  -1   6  12 796.931 279.357   1
   1  -6 -12 657.999 176.851  11
  -1   6  12 759.223 258.080   5
  -1   6  11 153.755 134.625   1
   1  -6 -11 131.620 66.9903   6
  -1   6  11 226.475 176.799   5
   1  -6 -10 764.061 112.884   6
  -1   6  10 403.578 179.222   5
  -1   6  10 503.099 193.755   1
   1  -6 -10 696.228 217.660   7
   1  -6 -10-125.901 208.247  11
  -1   6   9 15.0506 107.581   1
  -1   6   9 23.5147 42.9340   4
   1  -6  -9-114.828 124.272  11
  -1   6   9-91.0286 119.988   5
   1  -6  -9 62.0485 46.0324   6
   1  -6  -9-52.5329 125.957   7
   1  -6  -8 2317.31 313.566   7
   1  -6  -8 2084.45 258.763  11
  -1   6   8 2581.97 199.860   4
  -1   6   8 2188.80 341.970   5
   1  -6  -8 2408.19 129.738   6
  -1   6   8 2096.01 317.589   1
  -1   6   7 6387.19 518.128   1
   1  -6  -7 6774.94 424.499  11
   1  -6  -7 6004.48 491.677   7
  -1   6   7 6950.67 569.863   5
  -1   6   6 1616.57 283.154   5
   1  -6  -6 2003.99 224.767  11
  -1   6   6 1829.59 215.129  11
  -1   6   6 1383.56 237.755   1
   1  -6  -6 1717.92 267.647   7
   1  -6  -5 776.027 131.017  11
   1  -6  -5 695.665 203.220   8
  -1   6   5 857.636 198.312   5
   1  -6  -5 829.695 197.210   7
  -1   6   5 505.049 150.610   1
   1  -6  -5 655.844 137.635  10
  -1   6   5 757.281 132.501  11
  -1   6   4 841.326 217.213   5
  -1   6   4 696.247 162.311   1
   1  -6  -4 819.137 112.145  10
   1  -6  -4 728.428 179.755   9
   1  -6  -4 690.911 172.638   7
   1  -6  -4 759.620 105.507  11
   1  -6  -4 720.803 183.089   8
  -1   6   4 597.012 100.727  11
   1  -6  -3-147.010 138.379   9
  -1   6   3-26.2128 47.0965  11
   1  -6  -3 39.2745 132.638   7
   1  -6  -3 70.8875 111.321   8
  -1   6   3-10.2086 66.5162   1
   1  -6  -3-23.4879 31.1161  10
  -1   6   3-82.7149 118.330   5
   1  -6  -2 263.893 114.567   9
   1  -6  -2 305.637 136.672   8
   1  -6  -2 159.658 130.851   7
  -1   6   2 296.839 67.6139  11
  -1   6   2 151.648 71.8993   1
  -1   6   2 249.110 144.531   5
  -1   6   1 6873.30 282.861  11
  -1   6   1 6390.47 491.263   5
  -1   6   1 5967.47 316.458   1
  -1   6   1 6651.19 346.275   6
   1  -6  -1 6648.43 462.337   9
   1  -6  -1 6647.82 472.801   8
   1  -6  -1 6214.29 486.708   7
   1  -6  -1 6791.31 399.663   2
  -1   6   0 586.452 132.813   6
   1  -6   0 393.363 149.086   9
  -1   6   0 453.880 162.512   5
  -1   6   0 665.150 105.045  11
   1  -6   0 431.854 152.825   7
  -1   6   0 464.337 84.4875   1
   1  -6   0 528.526 148.808   8
   1  -6   0 522.038 116.081   2
   1  -6   1 120.563 63.8508   2
   1  -6   1 344.203 147.108   8
  -1   6  -1 153.957 96.8122   6
  -1   6  -1 112.363 67.2437   2
  -1   6  -1 247.149 124.186   5
  -1   6  -1 91.8936 33.9158   1
   1  -6   1 148.197 130.464   9
   1  -6   1 74.1122 109.838   7
   1  -6   2 622.900 100.647   2
   1  -6   2 680.556 195.043   9
  -1   6  -2 404.068 134.945   6
   1  -6   2 729.505 209.712   7
  -1   6  -2 505.154 98.6825   2
  -1   6  -2 465.673 59.3670  10
  -1   6  -2 353.941 143.541   5
   1  -6   2 484.939 161.544   8
   1  -6   3 2069.61 278.374   8
  -1   6  -3 2413.84 241.621  11
  -1   6  -3 2392.89 297.939   6
   1  -6   3 2346.50 319.224   9
  -1   6  -3 2277.08 309.492   5
  -1   6  -3 2451.04 175.894   2
  -1   6  -3 2611.69 178.435  10
   1  -6   3 2589.88 352.733   7
   1  -6   3 2460.68 171.856   2
  -1   6  -4 4672.93 282.020  10
   1  -6   4 3809.60 424.295   7
   1  -6   4 4273.61 422.680   9
  -1   6  -4 4076.79 341.666  11
  -1   6  -4 4021.33 200.108   2
  -1   6  -4 4231.67 417.593   6
  -1   6  -4 4182.72 414.668   5
   1  -6   4 4431.59 392.902   8
   1  -6   5 538.802 187.444   7
   1  -6   5 808.082 209.652   8
  -1   6  -5 740.963 161.436  11
  -1   6  -5 687.219 137.331  10
  -1   6  -5 943.696 223.626   6
  -1   6  -5 527.288 65.8981   2
  -1   6  -5 709.739 214.796   5
  -1   6  -6 8612.12 651.001   6
  -1   6  -6 8455.47 559.684  11
  -1   6  -6 7500.15 221.599   2
   1  -6   6 9334.13 627.862   8
  -1   6  -6 8526.41 610.951   5
   1  -6   6 8824.83 691.004   7
  -1   6  -7 2623.95 360.075   5
  -1   6  -7 2584.09 376.888   6
   1  -6   7 1848.86 364.788   8
  -1   6  -7 2387.93 322.601  11
  -1   6  -8 1334.38 242.159  11
  -1   6  -8 1427.83 328.319   6
  -1   6  -8 1554.55 278.210   5
   1  -6   8 1705.21 314.036   8
  -1   6  -9 51.3900 175.120   6
  -1   6  -9 25.6684 123.204   5
  -1   6  -9-187.178 181.146  11
  -1   6 -10-237.093 176.912   6
  -1   6 -10 9.02257 150.306  11
  -1   6 -11 1557.85 362.765   6
  -1   6 -11 1550.78 355.685  11
  -1   6 -11 1590.01 357.484   4
  -1   6 -12 1282.81 332.851  11
  -1   6 -12 1139.49 305.558   4
  -1   6 -12 1148.77 347.417   6
  -1   6 -13 314.020 239.988  11
  -1   6 -13 447.028 242.299   6
  -1   6 -13 869.082 284.801   4
  -1   6 -14-260.165 197.295   6
  -1   6 -14-10.5037 208.898   4
  -1   6 -14-82.9329 198.446  11
  -1   6 -15-216.376 282.340   6
  -1   6 -15 207.144 183.284   4
  -1   6 -15 247.366 219.263  11
  -1   6 -16 515.323 291.438  11
   1  -5 -19 69.3330 251.158  11
   1  -5 -18 1521.73 397.037  11
  -1   5  18 1332.75 394.160   1
   1  -5 -17 3211.85 535.681  11
  -1   5  17 3650.79 601.987   1
   1  -5 -16 2096.42 419.474  11
  -1   5  16 1801.68 421.006   1
  -1   5  15 4550.31 626.979   1
   1  -5 -15 4417.60 562.783  11
   1  -5 -14 2820.80 425.988  11
  -1   5  14 2340.10 439.609   1
   1  -5 -14 2993.97 353.677   6
   1  -5 -13 69.7375 86.8901   6
  -1   5  13 186.344 182.516   1
   1  -5 -13 182.503 156.860  11
   1  -5 -12 297.759 127.878   6
  -1   5  12-150.587 177.792   1
   1  -5 -12-74.9127 144.795  11
  -1   5  11 593.967 205.379   5
  -1   5  11 827.699 248.620   1
   1  -5 -11 786.281 150.277   6
   1  -5 -11 905.574 229.823  11
  -1   5  11 822.026 154.415   3
   1  -5 -10-43.8045 101.993  11
  -1   5  10 312.380 185.019   5
   1  -5 -10-0.37968 55.6881   6
  -1   5  10 63.5128 122.005   1
  -1   5   9 1760.09 297.157   1
  -1   5   9 1095.30 238.722   5
   1  -5  -9 1987.93 193.092   6
   1  -5  -9 1633.08 253.079  11
   1  -5  -8 8001.68 499.267  11
   1  -5  -8 7058.43 513.961   7
  -1   5   8 7767.61 587.241   1
  -1   5   8 7849.58 591.800   5
  -1   5   8 8165.73 286.858   4
  -1   5   7 1108.56 248.602   5
   1  -5  -7 923.507 158.651  11
  -1   5   7 902.732 214.227   1
   1  -5  -7 855.973 188.333   7
   1  -5  -6 4500.35 377.917   7
  -1   5   6 5290.43 344.760  11
   1  -5  -6 4854.62 325.934  11
  -1   5   6 4917.71 411.604   1
  -1   5   6 4430.23 426.480   5
   1  -5  -5 2113.80 258.288   7
  -1   5   5 2279.55 320.679   5
   1  -5  -5 1625.08 200.604  10
  -1   5   5 2135.43 199.003  11
  -1   5   5 1829.30 256.852   1
   1  -5  -5 2161.60 209.078  11
   1  -5  -4 7342.02 341.576  10
  -1   5   4 8196.42 340.046  11
   1  -5  -4 7743.84 484.404   7
  -1   5   4 6924.58 507.039   5
   1  -5  -4 8017.02 336.084  11
  -1   5   4 6859.29 430.248   1
  -1   5   3 219.863 123.541   5
  -1   5   3 118.685 85.1193   1
   1  -5  -3 240.560 146.318   7
   1  -5  -3 101.565 50.9304  10
   1  -5  -3 224.496 139.245   9
   1  -5  -3 93.4762 30.3693   6
   1  -5  -3 266.760 124.139   8
   1  -5  -3 171.376 60.4899  11
  -1   5   3 111.232 50.6118  11
   1  -5  -2-77.3078 102.204   2
  -1   5   2 110.724 70.2092   1
  -1   5   2 88.3936 45.3138  11
   1  -5  -2 76.4237 103.829   7
  -1   5   2 211.640 115.159   5
   1  -5  -2 143.781 101.815   8
   1  -5  -2 64.0305 25.2540  10
   1  -5  -2-24.7790 102.936   9
  -1   5   1 1928.62 174.777   1
  -1   5   1 2065.83 136.004  11
   1  -5  -1 1959.79 245.084   8
   1  -5  -1 1885.41 253.748   7
   1  -5  -1 2351.48 218.235   2
   1  -5  -1 1879.80 234.314   9
  -1   5   1 2263.08 191.988   6
  -1   5   1 2070.55 276.698   5
  -1   5   0 77.0753 109.455   5
   1  -5   0 14.4109 110.272   7
  -1   5   0 27.5043 41.1523   1
   1  -5   0 28.6521 107.480   9
  -1   5   0 24.7779 68.7541   6
   1  -5   0 95.2092 100.637   8
   1  -5   0 26.2768 53.8854   2
   1  -5   1 1584.80 214.352   8
   1  -5   1 1542.64 229.714   9
  -1   5  -1 1422.47 148.842   2
  -1   5  -1 1697.58 246.225   5
  -1   5  -1 1410.80 100.128   1
   1  -5   1 1862.83 162.450   2
  -1   5  -1 1269.26 173.712   6
   1  -5   1 1641.54 253.922   7
  -1   5  -2 8970.24 319.892   2
   1  -5   2 8735.74 505.537   9
  -1   5  -2 9236.25 266.093  10
   1  -5   2 8966.08 490.032   8
   1  -5   2 8449.95 556.292   7
  -1   5  -2 9153.65 502.731   6
   1  -5   2 9440.50 322.272   2
  -1   5  -2 8949.56 533.561   5
   1  -5   3 3599.42 185.106   2
  -1   5  -3 3641.48 183.223   2
   1  -5   3 3943.88 394.527   7
   1  -5   3 3847.46 338.406   8
  -1   5  -3 3769.61 352.670   5
  -1   5  -3 4039.99 361.315   6
  -1   5  -3 4235.80 228.229  10
   1  -5   3 3760.01 352.530   9
  -1   5  -3 3948.42 288.346  11
   1  -5   4 658.033 190.279   7
  -1   5  -4 778.374 178.976   5
  -1   5  -4 791.646 77.6687   2
  -1   5  -4 886.970 196.989   6
  -1   5  -4 793.910 122.185  10
   1  -5   4 661.332 162.991   8
  -1   5  -4 879.167 156.547  11
  -1   5  -5 20388.5 664.490  10
   1  -5   5 19813.5 915.577   7
  -1   5  -5 18243.2 338.586   2
  -1   5  -5 19291.8 751.248  11
   1  -5   5 21081.7 821.168   8
  -1   5  -5 19486.4 889.573   6
  -1   5  -5 19932.6 833.902   5
   1  -5   6 7379.78 592.791   7
   1  -5   6 7955.01 614.557   3
  -1   5  -6 7957.66 602.365   6
  -1   5  -6 8141.93 242.270   2
   1  -5   6 7999.59 566.560   8
  -1   5  -6 8468.12 538.283  11
  -1   5  -7 8041.94 560.242  11
  -1   5  -7 8376.10 646.589   6
   1  -5   7 7642.79 620.682   8
   1  -5   7 8253.87 646.918   3
  -1   5  -7 8625.02 287.161   2
   1  -5   8 1157.85 164.213   1
   1  -5   8 1850.24 346.387   3
  -1   5  -8 2135.15 367.943   6
  -1   5  -8 1848.57 156.983   2
  -1   5  -8 1145.87 210.618  11
   1  -5   9 259.835 90.4372   1
  -1   5  -9 443.168 183.068  11
   1  -5   9 111.669 143.144   3
  -1   5  -9 250.874 162.772   6
  -1   5 -10 623.236 225.462  11
   1  -5  10 180.399 93.8810   1
   1  -5  10 335.052 187.726   3
  -1   5 -10 213.293 167.048   6
  -1   5 -11 454.627 219.663  11
  -1   5 -11-23.9082 163.626   6
   1  -5  11 9.60903 145.894   3
  -1   5 -12 1525.41 345.659  11
   1  -5  12 849.301 260.623   3
  -1   5 -12 1119.68 304.064   6
  -1   5 -12 871.754 241.582   4
  -1   5 -13 17.1552 138.415   4
  -1   5 -13 23.9912 174.138  11
  -1   5 -13 222.914 211.582   6
  -1   5 -14 80.0435 179.353  11
  -1   5 -14-80.6677 178.042   4
  -1   5 -14 206.807 250.273   6
  -1   5 -15 1062.57 382.329   6
  -1   5 -15 1438.40 372.099  11
  -1   5 -16 440.136 293.416  11
   1  -4 -19 844.511 331.254  11
   1  -4 -18 2310.92 466.591  11
  -1   4  18 2860.05 535.111   1
  -1   4  17 2531.68 518.634   1
   1  -4 -17 2083.21 439.029  11
  -1   4  16 973.326 329.249   1
   1  -4 -16 446.707 232.413  11
   1  -4 -16 578.713 206.657   6
  -1   4  15 2299.00 447.488   1
   1  -4 -15 2062.71 411.575  11
   1  -4 -15 2081.13 338.816   6
   1  -4 -14 698.149 233.620  11
   1  -4 -14 1398.91 275.287   6
  -1   4  14 1009.46 276.900   1
   1  -4 -13 123.375 109.498   6
  -1   4  13-107.489 201.433   1
   1  -4 -13-67.3079 128.052  11
  -1   4  12 5712.70 604.454   1
  -1   4  12 5817.99 407.316   3
   1  -4 -12 6497.23 571.337  11
   1  -4 -12 6604.95 490.969   6
  -1   4  11-21.1353 70.6814   3
   1  -4 -11 97.3257 144.748  11
   1  -4 -11 99.8121 104.404   6
  -1   4  11-189.603 151.249   1
  -1   4  10 83.4277 113.135   1
  -1   4  10 65.3695 85.7966   3
   1  -4 -10 25.1202 116.550  11
  -1   4  10 99.0624 141.812   5
   1  -4  -9 8564.73 554.312  11
  -1   4   9 8418.40 622.426   1
  -1   4   9 8377.36 404.949   3
  -1   4   9 8479.70 613.711   5
  -1   4   8 249.366 106.527   1
  -1   4   8 283.334 114.437   5
   1  -4  -8 249.181 129.043  11
  -1   4   7 3041.03 333.768   5
   1  -4  -7 3140.58 306.343  11
  -1   4   7 2943.10 336.814   1
  -1   4   6 1035.44 201.008   5
  -1   4   6 816.412 181.053   1
   1  -4  -6 1190.83 178.601  11
   1  -4  -5 42078.4 872.973  11
   1  -4  -5 37051.5 979.594   7
   1  -4  -5 40669.1 924.630  10
  -1   4   5 38537.0 1047.92   1
  -1   4   5 40655.9 1114.39   5
  -1   4   5 42882.5 886.527  11
   1  -4  -4 5967.79 295.914  11
  -1   4   4 5558.33 413.950   5
  -1   4   4 5780.17 291.437  11
   1  -4  -4 5861.62 310.822  10
   1  -4  -4 5560.53 373.945   7
  -1   4   4 5682.92 383.705   1
  -1   4   3 246.776 133.659   5
  -1   4   3 394.918 72.0343  11
   1  -4  -3 454.640 93.0774  11
   1  -4  -3 313.243 151.273   7
   1  -4  -3 299.670 50.9447   6
   1  -4  -3 384.491 100.380   1
   1  -4  -3 430.575 147.417   8
  -1   4   3 337.452 122.546   1
   1  -4  -3 359.052 73.7678  10
  -1   4   2 4246.75 314.973   7
   1  -4  -2 3727.37 173.442  11
   1  -4  -2 4088.70 189.388   6
  -1   4   2 3536.08 314.998   5
   1  -4  -2 4148.14 297.582   2
  -1   4   2 4081.56 258.768   1
   1  -4  -2 3856.76 170.027  10
   1  -4  -2 3660.20 300.964   7
   1  -4  -2 3676.43 277.506   9
  -1   4   2 3800.94 167.297  11
   1  -4  -2 4177.25 323.517   8
  -1   4   1 1271.85 133.590   6
  -1   4   1 1353.72 186.069   3
   1  -4  -1 1225.47 189.558   7
   1  -4  -1 1271.16 195.864   8
   1  -4  -1 1295.65 160.294   2
   1  -4  -1 1598.81 138.867   6
   1  -4  -1 1152.86 169.084   9
  -1   4   1 1295.78 89.2461  11
  -1   4   1 1197.60 194.062   5
  -1   4   1 1329.50 140.418   1
  -1   4   0 28579.8 795.403   8
  -1   4   0 28977.1 784.704   3
  -1   4   0 25894.7 640.671   6
   1  -4   0 27103.2 737.090   9
  -1   4   0 27037.8 820.272   5
   1  -4   0 28418.9 652.300   6
  -1   4   0 26546.6 481.909   1
  -1   4   0 28739.7 756.152   9
   1  -4   0 26245.0 805.248   7
   1  -4   0 28156.8 784.557   8
   1  -4   0 28087.7 618.560   2
  -1   4  -1 1598.62 204.142   8
   1  -4   1 1429.70 225.413   7
  -1   4  -1 1541.38 185.327   6
  -1   4  -1 1239.93 200.550   5
   1  -4   1 1649.41 207.762   8
   1  -4   1 1442.97 126.962   2
   1  -4   1 1415.08 195.267   9
  -1   4  -1 1753.03 206.152   9
  -1   4  -1 1263.84 82.9207   1
   1  -4   2 13181.2 617.906   7
  -1   4  -2 12855.5 583.853   5
  -1   4  -2 12234.7 312.882   2
   1  -4   2 13246.9 557.540   9
   1  -4   2 13313.0 323.401   2
  -1   4  -2 13221.4 552.208   6
  -1   4  -2 13365.1 323.276  10
   1  -4   2 13013.3 541.542   8
  -1   4  -2 12034.4 412.939  11
   1  -4   3 11272.9 596.970   7
  -1   4  -3 11342.5 456.243  11
  -1   4  -3 11899.6 579.468   5
   1  -4   3 11911.5 601.321   3
   1  -4   3 11647.9 559.036   9
  -1   4  -3 11601.7 560.255   6
  -1   4  -3 9945.52 242.514   2
   1  -4   3 11253.8 535.034   8
  -1   4  -3 12397.2 391.338  10
   1  -4   4 3904.48 370.617   7
  -1   4  -4 4118.90 307.827  11
   1  -4   4 3700.41 315.161   8
  -1   4  -4 4454.20 386.246   6
  -1   4  -4 4362.06 275.519  10
   1  -4   4 3674.35 351.605   3
   1  -4   5 31632.9 968.942   8
   1  -4   5 31128.4 1051.64   3
  -1   4  -5 32078.1 434.140   2
  -1   4  -5 31989.2 925.132  11
  -1   4  -5 32160.7 541.565   1
  -1   4  -5 30872.1 1044.78   6
   1  -4   5 32087.1 1081.69   7
  -1   4  -5 35228.4 867.934  10
  -1   4  -6 1120.49 117.252   1
  -1   4  -6 1172.47 204.706  11
  -1   4  -6 1178.76 109.481   2
   1  -4   6 984.902 233.458   3
   1  -4   6 1144.39 132.446   1
  -1   4  -6 1309.85 247.920   6
   1  -4   6 1102.77 224.022   8
  -1   4  -7 8016.14 604.243   6
  -1   4  -7 8287.95 545.779  11
   1  -4   7 7894.92 594.694   3
   1  -4   7 5763.11 572.147   8
  -1   4  -7 8581.78 317.888   2
  -1   4  -7 9317.61 404.561   1
   1  -4   7 8604.05 385.126   1
  -1   4  -8 141.085 100.613   1
   1  -4   8 23.1327 140.266   3
  -1   4  -8 13.6886 45.8249   2
  -1   4  -8 203.304 153.506   6
  -1   4  -8 161.969 157.030  11
   1  -4   8 3.57495 62.8159   1
  -1   4  -9 2235.81 366.422   6
  -1   4  -9 2557.20 360.553  11
   1  -4   9 2355.56 256.436   1
   1  -4   9 1946.34 334.056   3
  -1   4 -10 2230.37 374.171  11
  -1   4 -10 1632.28 331.864   6
   1  -4  10 2182.82 260.387   1
   1  -4  10 1795.49 323.559   3
  -1   4 -11 857.663 223.240   6
  -1   4 -11 1018.93 269.546  11
   1  -4  11 1046.47 286.414   3
   1  -4  11 1231.57 221.973   1
   1  -4  12 843.391 244.136   3
   1  -4  12 1141.54 236.832   1
  -1   4 -12 1196.77 325.587   6
  -1   4 -12 1123.82 282.166  11
  -1   4 -13 193.167 165.610  11
  -1   4 -13-37.9323 184.835   6
   1  -4  13-42.9475 168.961   3
   1  -4  13 156.233 135.579   1
  -1   4 -13-167.963 157.456   4
  -1   4 -14 3196.59 524.347  11
   1  -4  14 3626.24 519.194   3
  -1   4 -14 3263.62 452.510   4
  -1   4 -14 3247.75 528.772   6
  -1   4 -15 558.175 253.369  11
  -1   4 -15 333.604 203.544   6
   1  -4  15 516.769 263.740   3
   1  -4  16 16.3570 170.019   3
  -1   4 -16-241.582 244.509   6
  -1   4 -16 73.7572 187.032  11
  -1   4 -17 163.193 192.728  11
  -1   3  18 2866.52 530.816   1
   1  -3 -18 2185.05 465.914  11
   1  -3 -18 2665.19 460.491   6
  -1   3  17-107.475 208.441   1
   1  -3 -17 148.626 237.975  11
   1  -3 -17 152.506 201.643   6
   1  -3 -16 9024.54 832.547  11
   1  -3 -16 8445.76 723.127   6
  -1   3  16 9219.60 874.936   1
  -1   3  15 2563.94 468.619   1
   1  -3 -15 3102.47 490.109  11
   1  -3 -15 3048.96 422.653   6
   1  -3 -14 338.377 171.571  11
   1  -3 -14 207.781 118.245   6
  -1   3  14 259.361 166.948   1
   1  -3 -13 2184.76 363.637  11
   1  -3 -13 2785.79 369.493   6
  -1   3  13 2907.33 430.481   1
  -1   3  13 2941.19 304.146   3
  -1   3  12 8111.34 484.201   3
  -1   3  12 7524.74 690.391   1
   1  -3 -12 8631.62 595.961   6
   1  -3 -12 8032.66 649.601  11
  -1   3  11 1228.31 272.229   1
   1  -3 -11 1821.86 311.423  11
  -1   3  11 1419.68 200.455   3
  -1   3  10 10995.0 500.100   3
  -1   3  10 9572.58 688.951   1
   1  -3 -10 10368.9 667.882  11
  -1   3   9 3410.00 265.030   3
  -1   3   9 3236.32 392.063   1
  -1   3   9 2996.77 337.819   5
   1  -3  -9 3334.55 355.679  11
  -1   3   8 8359.72 531.670   5
  -1   3   8 8155.59 366.856   3
  -1   3   8 8497.91 577.709   1
   1  -3  -8 8233.22 520.006  11
  -1   3   7 4897.29 262.104   3
  -1   3   7 4995.13 423.430   1
   1  -3  -7 5546.71 398.948  11
  -1   3   7 4849.65 394.131   5
  -1   3   6 29404.4 914.385   5
  -1   3   6 28081.1 933.339   1
   1  -3  -6 30920.0 850.102  11
  -1   3   5 7811.00 387.265  11
   1  -3  -5 7323.81 377.367  11
   1  -3  -5 7673.19 419.439  10
  -1   3   5 7101.32 445.892   1
  -1   3   5 6938.79 434.072   5
   1  -3  -4 295.065 127.283   1
   1  -3  -4 81.5692 64.0230  11
  -1   3   4 104.145 103.645   1
  -1   3   4 190.927 71.7319  11
   1  -3  -4 143.775 84.6950  10
   1  -3  -4 61.4385 73.3535   7
  -1   3   4 139.972 111.321   5
   1  -3  -3 59622.7 1136.89   5
  -1   3   3 55227.9 1029.48   1
   1  -3  -3 58724.0 879.823  10
   1  -3  -3 58264.7 777.834  11
   1  -3  -3 57145.0 993.506   7
   1  -3  -3 62091.3 1083.44   1
  -1   3   3 59281.1 780.056  11
  -1   3   3 55179.3 1110.32   5
  -1   3   2 1314.99 160.345   7
  -1   3   2 1271.51 186.711   5
   1  -3  -2 1388.02 101.395  11
  -1   3   2 1355.89 100.031  11
   1  -3  -2 1255.23 174.127   5
   1  -3  -2 1307.64 161.143   7
   1  -3  -2 1341.83 113.875  10
   1  -3  -2 1109.36 176.731   8
   1  -3  -2 1895.28 193.878   2
  -1   3   2 1477.01 156.052   1
   1  -3  -2 1416.95 150.830   1
  -1   3   1 1646.63 206.139   5
   1  -3  -1 1603.75 166.237   2
   1  -3  -1 1485.16 174.663   7
  -1   3   1 1789.17 145.006   1
   1  -3  -1 1765.82 200.009   5
   1  -3  -1 1701.66 194.087   8
   1  -3  -1 1659.16 156.904   9
   1  -3  -1 1637.98 147.967   1
  -1   3   1 1748.27 165.685   3
   1  -3  -1 1726.26 126.827   6
  -1   3   1 1708.10 181.625   7
  -1   3   0 3504.16 219.892   6
   1  -3   0 3731.41 267.630   7
   1  -3   0 4184.14 226.561   6
  -1   3   0 4081.90 169.592   1
   1  -3   0 3853.40 279.494   8
   1  -3   0 3788.71 236.074   9
  -1   3   0 4153.11 247.001   9
  -1   3   0 4044.71 281.161   7
  -1   3   0 3671.54 281.208   5
  -1   3   0 4128.63 254.803   3
  -1   3   0 3870.72 273.111   8
   1  -3   0 4255.14 304.121   5
   1  -3   0 4237.98 222.780   2
  -1   3  -1 2919.88 240.453   3
   1  -3   1 2865.13 149.861   2
   1  -3   1 2626.23 232.996   8
  -1   3  -1 2667.10 214.045   6
  -1   3  -1 2515.25 138.240  11
  -1   3  -1 2698.78 239.261   8
   1  -3   1 2608.73 245.864   7
  -1   3  -1 2750.39 241.829   7
   1  -3   1 2821.97 213.759   6
  -1   3  -1 2654.38 249.027   5
   1  -3   1 2512.28 206.892   9
  -1   3  -1 2933.91 230.774   9
  -1   3  -2 427.850 138.802   5
  -1   3  -2 474.977 127.552   7
   1  -3   2 269.280 103.088   9
  -1   3  -2 225.070 104.021   6
  -1   3  -2 397.490 104.971   3
   1  -3   2 428.276 115.228   8
  -1   3  -2 229.543 100.255   9
   1  -3   2 218.401 97.7328   7
  -1   3  -2 230.766 64.3064  11
   1  -3   2 219.613 93.1933   6
  -1   3  -2 267.392 58.7384  10
   1  -3   2 275.594 117.206   3
  -1   3  -2 211.409 102.032   8
  -1   3  -3 680.311 119.956  11
   1  -3   3 805.031 162.675   3
  -1   3  -3 721.167 108.092  10
   1  -3   3 862.430 152.717   8
  -1   3  -3 713.737 146.405   8
   1  -3   3 625.428 161.706   7
  -1   3  -3 343.937 111.524   6
  -1   3  -3 808.927 154.752   9
  -1   3  -4 16704.4 586.024  11
   1  -3   4 16964.0 694.343   7
  -1   3  -4 18999.4 570.258  10
   1  -3   4 17816.5 352.697   1
   1  -3   4 17145.9 691.740   3
   1  -3   4 18817.9 647.008   8
  -1   3  -4 16723.3 681.807   6
   1  -3   5 12208.4 364.056   1
  -1   3  -5 10926.3 281.539   2
   1  -3   5 11234.9 590.399   3
  -1   3  -5 11166.5 599.980   6
  -1   3  -5 11454.5 527.875  11
   1  -3   5 12685.6 576.251   8
  -1   3  -5 11710.2 362.853   1
  -1   3  -5 12649.4 520.127  10
   1  -3   6 102.560 121.796   8
   1  -3   6 79.4957 108.865   3
   1  -3   6 114.381 57.8490   1
  -1   3  -6 242.024 124.497   6
  -1   3  -6 101.514 84.5914  11
  -1   3  -6 373.592 107.245   1
  -1   3  -7 2096.93 294.391  11
  -1   3  -7 2331.78 225.097   1
  -1   3  -7 2003.97 303.584   6
   1  -3   7 1660.72 272.154   3
   1  -3   7 2303.74 213.695   1
  -1   3  -8 5278.52 500.147   6
   1  -3   8 6194.28 382.181   1
   1  -3   8 6125.16 508.734   3
  -1   3  -8 6277.03 506.342  11
   1  -3   9 23.4430 135.794   3
  -1   3  -9 182.316 94.6540   2
   1  -3   9 242.643 104.210   1
  -1   3  -9 396.946 171.780   6
  -1   3  -9 174.719 140.346  11
   1  -3  10 120.485 168.392   3
  -1   3 -10 263.367 195.687   6
   1  -3  10-34.3054 75.4687   1
  -1   3 -10 75.2056 130.680  11
   1  -3  11 273.566 136.407   1
   1  -3  11 86.6189 139.838   3
  -1   3 -11-86.2263 138.123  11
  -1   3 -11 68.7100 142.706   6
   1  -3  12 722.317 250.242   3
  -1   3 -12 621.467 241.673  11
   1  -3  12 768.025 177.329   1
  -1   3 -12 1092.18 311.451   6
  -1   3 -13 380.624 226.029  11
   1  -3  13 365.264 137.648   1
   1  -3  13 659.617 257.363   3
  -1   3 -13 460.307 208.567   6
  -1   3 -13 424.896 165.590   4
  -1   3 -14 427.384 165.327   4
  -1   3 -14 592.720 277.228  11
   1  -3  14 294.422 182.687   3
   1  -3  14 684.757 214.579   1
  -1   3 -14 310.411 181.767   6
   1  -3  15 8.12332 179.420   3
   1  -3  15 323.174 198.817   1
  -1   3 -15 282.611 221.855  11
  -1   3 -15 203.315 154.010   6
  -1   3 -16 606.940 256.503  11
   1  -3  16 1023.20 302.489   3
  -1   3 -16 1069.96 333.509   6
  -1   3 -17 1812.57 452.975  11
   1  -3  17 1190.80 353.889   3
  -1   3 -17 1272.48 390.609   6
   1  -3  18 230.074 201.558   3
   1  -2 -19 295.863 257.780   6
   1  -2 -18 788.277 319.720   6
  -1   2  18 513.811 272.234   1
   1  -2 -18 480.653 247.404  11
  -1   2  17 1801.78 413.929   1
   1  -2 -17 1347.76 343.836   6
   1  -2 -17 1262.18 365.165  11
   1  -2 -16 632.832 260.522  11
  -1   2  16 435.317 209.699   1
   1  -2 -16 907.431 303.160   6
  -1   2  15-21.5461 156.687   1
   1  -2 -15 366.892 236.310  11
   1  -2 -15 137.022 149.363   6
  -1   2  14 658.512 242.095   1
   1  -2 -14 827.404 292.666  11
   1  -2 -14 887.592 249.698   6
  -1   2  13 4496.85 407.282   3
   1  -2 -13 4456.40 483.510   6
   1  -2 -13 4407.83 526.488  11
  -1   2  13 4524.20 555.080   1
  -1   2  12 2159.03 266.404   3
   1  -2 -12 1960.29 331.478  11
  -1   2  12 1504.37 325.719   1
  -1   2  11 3044.46 295.489   3
  -1   2  11 2912.11 407.341   1
   1  -2 -11 3097.58 397.693  11
  -1   2  10 8897.51 654.557   1
  -1   2  10 9861.48 492.213   3
   1  -2 -10 9280.47 642.935  11
  -1   2   9 5508.08 342.507   3
  -1   2   9 5173.19 476.007   1
   1  -2  -9 5660.67 470.163  11
  -1   2   8 6868.31 512.866   1
  -1   2   8 7319.03 364.171   3
   1  -2  -8 7356.27 496.157  11
  -1   2   7 4068.92 336.389   5
  -1   2   7 4045.91 380.576   1
  -1   2   7 4170.56 250.093   3
   1  -2  -7 4269.28 357.354  11
  -1   2   6 18722.8 462.737   3
   1  -2  -6 18388.2 671.268  11
  -1   2   6 17446.3 715.336   1
  -1   2   6 18075.6 309.813   4
  -1   2   6 17849.1 660.451   5
  -1   2   5 7740.40 410.293   5
   1  -2  -5 7491.01 387.498  11
   1  -2  -5 6695.48 398.746  10
  -1   2   5 7628.53 446.901   1
  -1   2   5 7886.33 397.195  11
  -1   2   5 7363.12 406.497  10
  -1   2   5 7216.71 250.900   3
   1  -2  -5 7648.16 406.715   5
   1  -2  -4 66315.5 1110.27  10
  -1   2   4 63688.2 1106.15   5
  -1   2   4 62960.6 1086.32  10
   1  -2  -4 68425.6 1193.46   1
   1  -2  -4 67717.8 1149.20   5
   1  -2  -4 63102.2 997.388  11
  -1   2   4 66109.5 1176.96   1
  -1   2   4 65040.2 1015.83  11
  -1   2   3 80698.2 1057.34  10
   1  -2  -3 85105.0 1207.70   1
  -1   2   3 79509.4 1173.21   1
   1  -2  -3 82614.1 1074.43  10
   1  -2  -3 82145.0 1191.35   5
   1  -2  -3 81856.1 963.886  11
  -1   2   3 83626.7 973.288  11
  -1   2   3 82632.4 1174.98   5
   1  -2  -2 4972.96 243.626   7
  -1   2   2 5496.45 237.020  10
  -1   2   2 5416.13 274.809   1
  -1   2   2 5262.34 199.178  11
  -1   2   2 5335.32 298.563   5
   1  -2  -2 5536.83 203.301  11
   1  -2  -2 5752.53 278.311   1
   1  -2  -2 5471.32 238.496  10
   1  -2  -2 5430.63 295.366   5
  -1   2   1 21209.3 450.267   1
   1  -2  -1 21909.0 494.006   7
   1  -2  -1 21428.5 368.682  10
   1  -2  -1 23076.4 587.596   5
  -1   2   1 21538.8 417.538   3
  -1   2   1 21917.2 353.348  10
  -1   2   1 22120.6 492.985   7
  -1   2   1 19910.3 541.902   5
   1  -2  -1 20545.4 534.595   8
   1  -2  -1 22447.5 463.031   1
   1  -2   0 26221.8 569.764   7
   1  -2   0 27162.3 531.822   3
   1  -2   0 28826.5 647.562   5
  -1   2   0 29129.3 543.434   3
  -1   2   0 27655.5 486.216   9
  -1   2   0 27026.4 406.032   1
  -1   2   0 29887.1 630.407   8
  -1   2   0 26786.0 622.037   5
   1  -2   0 28337.0 406.660   1
   1  -2   0 27597.0 484.576   9
  -1   2   0 28387.8 587.012   7
   1  -2   0 27681.1 611.702   8
  -1   2   0 27034.0 505.684   6
   1  -2   0 28362.8 515.879   6
   1  -2   1 13050.8 432.782   8
   1  -2   1 13802.0 445.456   7
  -1   2  -1 14979.2 461.855   7
  -1   2  -1 14929.7 445.772   8
   1  -2   1 14165.0 427.246   3
  -1   2  -1 15178.9 444.312   3
   1  -2   1 14693.2 423.316   6
  -1   2  -1 13627.7 457.374   5
  -1   2  -1 13299.5 413.701   6
  -1   2  -1 13908.5 265.901  11
   1  -2   1 13441.2 369.338   9
  -1   2  -1 14517.9 386.363   9
  -1   2  -2 801.114 140.246   3
   1  -2   2 549.523 108.750   6
  -1   2  -2 733.867 133.665   7
  -1   2  -2 650.656 111.778   9
   1  -2   2 539.853 104.639   8
  -1   2  -2 720.900 100.606  11
   1  -2   2 852.307 148.075   3
   1  -2   2 845.827 141.275   7
  -1   2  -2 457.707 89.7638   6
  -1   2  -2 662.551 131.772   8
   1  -2   3 28429.6 383.757   1
   1  -2   3 27528.9 740.930   7
  -1   2  -3 30675.0 775.512   3
   1  -2   3 29859.6 764.218   6
  -1   2  -3 27270.7 726.349   6
  -1   2  -3 27663.8 620.772  11
  -1   2  -3 30159.0 697.774   9
  -1   2  -3 30540.3 727.580   8
  -1   2  -3 30117.4 769.247   7
   1  -2   3 27383.1 719.716   3
   1  -2   3 27906.2 684.378   8
   1  -2   4 71028.6 1139.99  11
  -1   2  -4 73391.1 1102.86  10
  -1   2  -4 74180.4 1280.95   7
  -1   2  -4 76830.4 1323.62   3
  -1   2  -4 64630.9 1230.50   6
  -1   2  -4 66615.2 1097.84  11
  -1   2  -4 79290.9 1240.47   8
   1  -2   4 70668.6 788.504   1
   1  -2   4 66585.0 1221.02   3
   1  -2   4 71667.3 1209.66   8
  -1   2  -5 1017.24 170.560  10
   1  -2   5 972.781 122.292   1
   1  -2   5 939.004 190.743   3
   1  -2   5 1176.47 193.583   8
  -1   2  -5 827.525 155.415  11
  -1   2  -5 549.775 125.804   6
  -1   2  -5 1050.43 141.922   1
  -1   2  -6 800.394 170.411   6
   1  -2   6 1098.25 137.238   1
  -1   2  -6 1085.18 198.401  11
   1  -2   6 896.596 196.334   3
  -1   2  -6 1087.29 156.574   1
   1  -2   7 2155.17 215.693   1
   1  -2   7 2446.72 308.154   3
  -1   2  -7 1966.16 280.195   6
  -1   2  -7 2490.37 303.671  11
  -1   2  -7 2446.57 244.071   1
  -1   2  -7 2133.84 201.010   2
   1  -2   8 1156.93 185.963   1
  -1   2  -8 1056.81 228.539   6
  -1   2  -8 1115.20 177.045   2
   1  -2   8 843.887 214.214   3
  -1   2  -8 1488.29 249.005  11
  -1   2  -9 5940.08 534.904   6
   1  -2   9 7477.84 464.905   1
  -1   2  -9 5891.78 503.279  11
   1  -2   9 6093.70 500.413   3
  -1   2 -10 2617.51 366.664  11
  -1   2 -10 2334.72 348.882   6
   1  -2  10 2720.97 356.711   3
   1  -2  10 2847.65 328.204   1
  -1   2 -11 507.282 213.609  11
   1  -2  11 534.020 193.227   3
  -1   2 -11 375.494 172.475   6
   1  -2  11 289.382 134.651   1
   1  -2  12 1391.45 286.591   3
  -1   2 -12 1486.63 310.623  11
  -1   2 -12 1663.71 335.918   6
   1  -2  12 1409.28 265.480   1
  -1   2 -13 123.254 148.689   6
   1  -2  13-28.3004 103.485   1
   1  -2  13 141.312 131.247   3
  -1   2 -13 186.922 159.681   4
  -1   2 -13-169.553 208.166  11
  -1   2 -14 912.488 295.113   6
   1  -2  14 406.064 209.356   3
  -1   2 -14 785.013 274.971  11
  -1   2 -14 602.851 185.753   4
   1  -2  14 703.011 239.679   1
   1  -2  15 377.432 233.208   3
  -1   2 -15 241.159 164.508   6
  -1   2 -15 795.427 329.732  11
   1  -2  15 232.415 167.738   1
   1  -2  16 1253.94 320.018   3
   1  -2  16 1127.05 282.619   1
  -1   2 -16 1306.12 361.477  11
  -1   2 -16 1192.07 338.936   6
  -1   2 -17 48.6023 204.502   6
  -1   2 -17-25.8096 201.574  11
   1  -2  17 347.863 222.285   1
   1  -2  17 188.185 149.875   3
  -1   2 -18-90.8446 234.162   6
  -1   2 -18 554.017 273.006  11
   1  -2  18 416.051 248.159   3
   1  -2  19 611.452 345.700   3
  -1   1  19 1390.34 402.974   1
   1  -1 -19 681.651 297.909   6
   1  -1 -18-159.092 206.298   6
  -1   1  18-81.2810 184.127   1
   1  -1 -18 451.783 267.524  11
   1  -1 -17 90.0573 230.104  11
  -1   1  17 49.6811 157.061   1
   1  -1 -17 598.587 300.436   6
   1  -1 -16 448.333 247.198  11
  -1   1  16 304.067 220.087   1
   1  -1 -16 10.5801 152.862   6
  -1   1  15 2126.84 417.603   1
   1  -1 -15 2170.92 396.968   6
   1  -1 -15 1436.00 324.069  11
   1  -1 -14 1913.00 363.880   6
  -1   1  14 2122.93 313.259   3
  -1   1  14 1623.34 329.349   1
   1  -1 -14 1784.46 366.416  11
   1  -1 -13-161.608 193.419  11
  -1   1  13 99.5355 119.091   3
   1  -1 -13 86.3790 128.416   6
  -1   1  13 150.494 157.751   1
  -1   1  12 497.093 164.875   3
   1  -1 -12 501.734 216.958  11
  -1   1  12 345.321 186.125   1
   1  -1 -11 1062.00 257.286  11
  -1   1  11 621.074 194.029   1
  -1   1  11 735.643 176.941   3
  -1   1  10 1573.60 221.906   3
   1  -1 -10 1480.14 282.728  11
  -1   1  10 1337.47 255.872   1
  -1   1   9 377.005 106.472   3
  -1   1   9 614.318 182.128   1
   1  -1  -9 408.190 164.018  11
  -1   1   8 670.164 135.398   3
  -1   1   8 443.361 153.735   1
   1  -1  -8 730.443 188.489  11
   1  -1  -7 3277.68 330.551  11
  -1   1   7 3088.56 329.442  10
  -1   1   7 3258.28 244.238   3
  -1   1   7 3217.68 327.619   1
  -1   1   6 10142.3 532.144   1
  -1   1   6 9861.93 530.369  10
  -1   1   6 9534.06 364.721   3
   1  -1  -6 9362.24 498.514  11
   1  -1  -6 10319.9 465.298   5
  -1   1   5 2642.01 173.973   3
   1  -1  -5 2863.98 235.625   5
  -1   1   5 2858.64 263.110  10
  -1   1   5 3109.16 158.379   4
  -1   1   5 2599.01 221.321   5
  -1   1   5 3237.55 287.918   1
   1  -1  -5 2793.38 260.255  11
   1  -1  -4 70135.8 1022.57   5
  -1   1   4 68929.6 703.730   3
  -1   1   4 65109.4 1125.27  10
  -1   1   4 65295.2 1147.17   1
   1  -1  -4 69946.4 1163.76  10
   1  -1  -4 66143.3 1067.16  11
  -1   1   4 70783.9 708.189   4
  -1   1   4 66161.1 990.371   5
   1  -1  -4 70988.5 1189.91   1
   1  -1  -3 16633.4 452.611   5
   1  -1  -3 16668.0 520.797   1
  -1   1   3 15294.3 439.077   5
  -1   1   3 14776.6 492.423   1
   1  -1  -3 15949.6 500.575  10
  -1   1   3 15023.6 482.950  10
   1  -1  -3 14720.6 441.369  11
   1  -1  -2 26532.6 545.026  10
   1  -1  -2 25533.2 515.679   5
  -1   1   2 25907.8 514.021   5
  -1   1   2 24979.0 559.862   1
   1  -1  -2 25534.2 473.254  11
  -1   1   2 24487.1 520.352  10
   1  -1  -2 26493.7 577.711   1
   1  -1  -1 82195.3 636.445   7
  -1   1   1 79760.3 848.928   1
  -1   1   1 80086.4 847.159   5
   1  -1  -1 83660.0 863.803   1
   1  -1  -1 81954.8 895.645   8
  -1   1   1 81652.0 644.992   7
   1  -1  -1 78096.9 854.065   5
  -1   1  -1 39780.3 607.873   6
   1  -1   2 3652.09 220.179   6
  -1   1  -2 3546.78 182.260  11
   1  -1   2 3373.88 211.152   3
   1  -1   2 3640.18 213.809   8
  -1   1  -2 3182.75 199.195   6
   1  -1   2 3732.50 181.610  11
  -1   1  -2 3547.04 215.989   3
  -1   1  -2 3463.18 214.346   7
  -1   1  -2 3568.92 219.587   8
  -1   1  -3 210236. 1720.62   8
   1  -1   3 208951. 1617.48  11
  -1   1  -3 216192. 1799.25   3
   1  -1   3 201870. 1749.61   3
  -1   1  -3 204237. 1001.74   2
   1  -1   3 206142. 1727.18   8
   1  -1   3 212900. 1819.02   6
  -1   1  -3 202963. 1597.28  11
  -1   1  -3 198275. 1767.22   6
   1  -1   3 211053. 1262.01   1
   1  -1   4-41.3452 58.7660   1
   1  -1   4-20.0920 73.6903   6
  -1   1  -4 103.076 102.804   6
   1  -1   4 137.102 123.877   3
   1  -1   4 120.898 111.438   8
  -1   1  -4-222.548 135.877  11
  -1   1  -4-123.665 111.906   3
  -1   1  -4-12.2128 42.0451   2
   1  -1   4 90.5025 74.9419  11
  -1   1  -4 88.2119 75.8341   8
   1  -1   5 11474.4 406.133   1
  -1   1  -5 11480.7 369.229   2
  -1   1  -5 12315.9 517.895   3
  -1   1  -5 10575.5 504.570   6
  -1   1  -5 9726.80 518.335   8
   1  -1   5 12149.8 505.190  11
  -1   1  -5 10389.2 471.872  11
   1  -1   5 10999.2 489.211   3
   1  -1   6 997.168 154.416   1
  -1   1  -6 1071.13 176.982  11
  -1   1  -6 971.280 153.707   1
  -1   1  -6 1028.47 142.567   2
  -1   1  -6 930.100 174.367   6
   1  -1   6 1195.85 193.725   3
  -1   1  -7 2606.01 312.270   6
  -1   1  -7 2181.18 262.177   1
   1  -1   7 3019.42 307.146   3
  -1   1  -7 2389.14 279.105  11
  -1   1  -7 2956.05 243.129   2
   1  -1   7 2716.79 251.909   1
   1  -1   8 1882.12 229.936   1
  -1   1  -8 1595.76 261.199   6
   1  -1   8 1860.23 261.249   3
  -1   1  -8 1659.11 221.377   2
  -1   1  -8 1720.16 252.033  11
  -1   1  -9 9933.15 642.144  11
  -1   1  -9 9900.70 641.023   6
   1  -1   9 10805.4 578.237   1
   1  -1   9 10312.5 616.055   3
   1  -1  10 2757.26 353.168   3
   1  -1  10 3123.67 332.789   1
  -1   1 -10 2877.58 387.685   6
  -1   1 -10 3161.31 390.073  11
  -1   1 -11-5.63935 114.012   6
   1  -1  11 76.5623 103.993   1
  -1   1 -11 78.7432 153.703  11
   1  -1  11-25.2020 121.445   3
  -1   1 -12 156.230 139.533  11
  -1   1 -12 447.125 207.154   6
   1  -1  12 180.394 146.532   3
   1  -1  12 499.072 176.430   1
   1  -1  13 1007.49 255.431   3
  -1   1 -13 719.559 238.118   6
   1  -1  13 689.923 221.864   1
  -1   1 -13 682.543 160.501   4
  -1   1 -13 690.101 267.473  11
  -1   1 -14 1686.71 349.997  11
  -1   1 -14 1330.39 346.434   6
   1  -1  14 1282.42 287.506   1
   1  -1  14 1203.56 289.683   3
  -1   1 -15-22.9627 155.081  11
   1  -1  15 89.7498 163.724   1
   1  -1  15 114.667 170.279   3
  -1   1 -15 68.6773 169.226   6
  -1   1 -16 1195.06 326.555   6
   1  -1  16 2236.40 393.159   3
  -1   1 -16 2296.64 471.327  11
   1  -1  16 1859.18 391.602   1
  -1   1 -17 217.532 203.938  11
   1  -1  17 171.312 143.872   3
   1  -1  17 30.2717 165.918   1
  -1   1 -17 122.264 166.699   6
  -1   1 -18-257.059 233.062   6
   1  -1  18-173.257 147.939   3
   1  -1  18-25.1080 168.263   1
  -1   1 -18-122.540 212.214  11
  -1   1 -19 54.7048 198.189   6
   1  -1  19 222.798 216.035   1
  -1   0  19 92.2962 195.654   1
   1   0 -19-129.514 190.805   6
   1   0 -18 878.789 299.262   6
  -1   0  18 826.218 343.391   1
   1   0 -18 1075.46 359.266  11
   1   0 -17 1347.54 381.493   6
  -1   0  17 708.822 240.846   1
   1   0 -17 666.361 255.769  11
  -1   0  16 991.920 336.659   1
   1   0 -16 970.436 311.278   6
   1   0 -16 687.580 261.087  11
   1   0 -15 354.667 238.199   6
  -1   0  15 328.016 172.875   3
   1   0 -15 180.461 177.008  11
  -1   0  15 300.631 232.708   1
   1   0 -14 4866.08 583.357  11
  -1   0  14 5065.99 504.968   3
  -1   0  14 4833.19 556.108   1
   1   0 -14 4925.32 583.477   6
  -1   0  13 1835.98 302.352   3
  -1   0  13 1140.15 270.310   1
   1   0 -13 1860.43 356.072  11
   1   0 -13 1518.92 321.654   6
   1   0 -12 225.077 188.391  11
  -1   0  12-173.298 163.438   1
  -1   0  12 219.338 138.818   3
   1   0 -12 63.6103 89.2564   4
   1   0 -11-83.4007 138.523  11
   1   0 -11 53.7155 71.1199   4
  -1   0  11 241.388 161.091   1
  -1   0  11 15.8331 87.4100   3
   1   0 -10 501.531 193.548  11
  -1   0  10 314.514 159.104   1
  -1   0  10 482.374 162.079   3
   1   0 -10 574.161 117.063   4
   1   0  -9 2208.73 216.047   4
  -1   0   9 2330.12 265.592   3
   1   0  -9 2066.45 288.718  11
  -1   0   9 2138.21 297.629   1
   1   0  -8 75.7583 115.071  11
  -1   0   8 152.380 111.063   1
  -1   0   8 29.6653 75.0765   3
  -1   0   8 369.326 179.523  10
   1   0  -8 196.823 80.8773   4
   1   0  -7 188.463 89.5242   3
   1   0  -7 36.4256 116.243  11
  -1   0   7 161.615 93.6102   3
  -1   0   7 52.7144 93.9008   1
   1   0  -7 216.394 89.5963   5
  -1   0   7-41.9387 131.967  10
   1   0  -7 85.4382 67.8856   4
  -1   0   6 285.926 113.936   1
   1   0  -6 219.377 79.9454   3
   1   0  -6 201.554 88.3539   5
  -1   0   6 38.8367 112.691  10
   1   0  -6 291.095 85.0502   4
   1   0  -6 262.323 125.555  11
  -1   0   6 139.368 89.2270   3
   1   0  -5 1345.68 184.885  11
  -1   0   5 1515.72 160.146   3
   1   0  -5 1744.43 168.416   3
  -1   0   5 1388.05 197.871   1
   1   0  -5 1683.15 157.599   4
   1   0  -5 1370.42 155.946   5
  -1   0   5 988.884 212.571  10
   1   0  -4 16337.5 427.340   3
  -1   0   4 15177.8 547.372   1
   1   0  -4 15981.3 434.524   5
  -1   0   4 16427.5 424.982   4
  -1   0   4 16320.8 568.531  10
   1   0  -4 17023.5 580.500  10
  -1   0   4 15631.1 415.587   3
   1   0  -4 14459.5 410.337   4
   1   0  -4 15944.5 564.359   1
   1   0  -4 15571.9 551.690  11
  -1   0   3 199.592 61.9944   3
   1   0  -3 335.874 76.9610   3
   1   0  -3 195.601 57.1056   5
   1   0  -3 221.057 96.4804  10
  -1   0   3 170.109 105.617  10
  -1   0   3 189.527 92.1857   1
   1   0  -3 357.185 79.1098   4
   1   0  -3 248.670 99.9980   1
  -1   0   3 153.553 53.4439   4
   1   0  -2 62829.7 581.002   3
  -1   0   2 60081.7 844.794  10
  -1   0   2 61103.5 593.029   5
  -1   0   2 61675.8 874.953   1
   1   0  -2 62093.8 598.980   5
   1   0  -2 65169.6 888.864   1
  -1   0   2 63502.0 719.085   4
   1   0  -2 63132.6 871.832  10
  -1   0  -3 1133.88 129.082  11
   1   0   3 1362.55 119.154   2
   1   0   3 1253.77 136.381   6
  -1   0  -3 1185.77 109.244   2
  -1   0  -3 1339.24 160.057   8
   1   0   3 1032.45 130.696  11
   1   0   3 1100.07 123.650   3
  -1   0  -3 1242.20 136.079   6
   1   0   4 76.5332 68.1810   1
  -1   0  -4 164.188 102.405   6
  -1   0  -4 130.335 63.2449   2
   1   0   4-23.8349 72.4676   2
   1   0   4 167.699 93.8969  11
  -1   0  -4 71.7460 88.9337   8
   1   0   4 207.265 98.0284   3
  -1   0  -4-14.8768 92.2448  11
   1   0   4 31.7483 61.0326   6
  -1   0  -4 251.387 109.797   3
  -1   0  -5 50341.3 962.389   3
   1   0   5 48194.6 900.281   1
  -1   0  -5 52366.2 869.083   2
   1   0   5 46281.6 931.133   3
  -1   0  -5 47307.6 974.938   6
  -1   0  -5 45916.3 962.875  11
   1   0   5 52188.9 1023.97  11
   1   0   5 49855.8 996.331   6
  -1   0  -6 12292.5 560.441  11
  -1   0  -6 12295.2 546.024   6
  -1   0  -6 11796.8 489.512   2
   1   0   6 12562.3 525.097   3
  -1   0  -6 12813.7 528.292   3
   1   0   6 11804.4 499.378   1
  -1   0  -7 5328.78 404.790  11
  -1   0  -7 6082.38 370.833   2
   1   0   7 5331.87 367.011   1
  -1   0  -7 5495.76 399.235   6
   1   0   7 5336.72 378.617   3
  -1   0  -8 6640.15 481.347  11
  -1   0  -8 6122.08 456.402   6
   1   0   8 6816.67 441.051   1
   1   0   8 6231.21 434.294   3
  -1   0  -9 34776.8 1133.27   6
  -1   0  -9 33258.2 1135.10  11
   1   0   9 34561.5 1056.04   1
   1   0   9 32860.3 1042.93   3
  -1   0 -10 557.351 166.639   6
   1   0  10 528.809 146.137   1
  -1   0 -10 125.049 115.590  11
   1   0  10 694.548 197.174   3
  -1   0 -11 5848.07 544.583  11
   1   0  11 6484.22 517.276   3
  -1   0 -11 6005.42 537.385   6
   1   0  11 5827.07 493.402   1
  -1   0 -12 6415.99 583.662   6
  -1   0 -12 6457.67 604.207  11
   1   0  12 6471.10 547.041   3
   1   0  12 6683.10 557.062   1
   1   0  13 1985.80 327.005   3
  -1   0 -13 1978.01 368.723  11
  -1   0 -13 1651.52 220.990   4
   1   0  13 1840.53 326.071   1
  -1   0 -13 1905.06 354.173   6
   1   0  14-239.378 172.466   1
  -1   0 -14-10.0553 141.071  11
   1   0  14 350.381 175.799   3
  -1   0 -14 116.367 166.170   6
  -1   0 -15 22.3985 171.424  11
   1   0  15 410.952 206.570   3
  -1   0 -15 36.5096 166.594   6
   1   0  15 25.4839 123.077   1
   1   0  16 521.956 227.293   1
  -1   0 -16 532.807 228.477   6
  -1   0 -16 247.223 210.191  11
   1   0  16 321.063 230.529   3
   1   0  17 108.273 180.582   3
  -1   0 -17-48.2605 154.828   6
   1   0  17-65.9230 160.919   1
  -1   0 -17-67.9638 218.587  11
   1   0  18 43.1734 152.132   3
   1   0  18 220.167 191.156   1
  -1   0 -18 414.880 261.204   6
  -1   0 -18-123.642 241.776  11
  -1   0 -19-61.7760 186.390   6
   1   0  19 613.781 297.737   1
   1   0  20 472.237 284.471   1
  -1   0 -20 624.117 343.702   6
  -1  -1  19 475.275 279.412   1
   1   1 -18 242.436 204.497   6
  -1  -1  18 438.737 234.376   1
  -1  -1  17 361.479 250.157   1
   1   1 -17 75.3167 185.994   6
   1   1 -17 578.740 296.593  11
   1   1 -16 18.2504 218.156   6
  -1  -1  16 294.372 237.639   1
   1   1 -16-20.0233 178.547  11
   1   1 -15 2133.50 437.672  11
  -1  -1  15 1797.85 384.164   1
   1   1 -15 2066.41 419.190   6
  -1  -1  15 2425.62 390.071   3
   1   1 -14 809.887 300.301   6
  -1  -1  14 681.853 204.489   3
   1   1 -14 1505.52 379.402  11
  -1  -1  14 957.353 291.603   1
  -1  -1  13 179.326 118.436   3
   1   1 -13 78.3792 154.448  11
   1   1 -13 68.8697 162.895   6
  -1  -1  13 179.128 172.910   1
  -1  -1  12 878.266 254.904   1
  -1  -1  12 1044.51 227.272   3
   1   1 -12 1190.71 305.983  11
   1   1 -12 1059.78 194.221   4
   1   1 -11 1449.01 323.520  11
   1   1 -11 1298.76 196.851   4
  -1  -1  11 1150.22 270.821   1
  -1  -1  11 1541.75 259.362   3
   1   1 -10 2294.78 266.432   4
   1   1 -10 2551.44 367.340  11
  -1  -1  10 2577.90 315.488   3
  -1  -1  10 2955.21 372.034   1
  -1  -1   9 239.578 102.702   3
  -1  -1   9 81.5263 110.741   1
   1   1  -9-14.0595 130.017  11
   1   1  -9 160.765 100.689   4
  -1  -1   8 8560.01 687.271  10
   1   1  -8 11343.6 674.042  11
  -1  -1   8 11901.4 584.565   3
  -1  -1   8 11649.1 649.739   1
   1   1  -8 11836.0 536.470   4
   1   1  -7-205.648 126.994  11
  -1  -1   7 43.3886 89.8704   1
  -1  -1   7 25.5352 132.533  10
   1   1  -7 152.820 95.6733   4
  -1  -1   7 24.9936 83.1416   3
   1   1  -6 176.338 91.6586   3
  -1  -1   6-84.3022 93.5919   3
  -1  -1   6 226.827 135.964  10
   1   1  -6-3.14826 74.8109   7
   1   1  -6-10.8815 109.411  11
   1   1  -6 81.1514 74.8565   4
  -1  -1   6 27.9621 86.4119   1
   1   1  -5 12258.9 483.077   3
  -1  -1   5 11465.9 550.366  10
   1   1  -5 11507.5 453.178   4
   1   1  -5 11723.1 532.346   1
   1   1  -5 11423.5 553.751  11
  -1  -1   5 11696.9 472.994   3
   1   1  -5 12488.2 485.605   7
  -1  -1   5 11434.2 515.053   1
  -1  -1   4 979.108 140.349   3
   1   1  -4 1220.88 152.919   3
   1   1  -4 1236.60 180.331  10
   1   1  -4 969.680 135.440   7
   1   1  -4 875.443 129.599   4
  -1  -1   4 1012.99 158.323   1
  -1  -1   4 1115.38 181.140  10
   1   1  -4 967.963 162.806   1
   1   1  -3 5809.67 324.880  10
  -1  -1   3 5265.74 314.680  10
  -1  -1   3 5593.76 284.675   4
   1   1  -3 5187.78 256.406   7
   1   1  -3 5666.68 279.974   3
   1   1  -3 5280.31 273.403   4
  -1  -1   3 4962.83 301.655   1
   1   1  -3 5320.95 297.787   1
  -1  -1   2 6971.06 295.242   4
   1   1  -2 6536.42 250.487   7
  -1  -1   2 6676.15 305.090   1
   1   1  -2 6123.37 290.075   1
   1   1  -2 6371.26 294.546   9
  -1  -1   2 5354.58 289.056  10
   1   1  -2 6599.36 311.082  10
   1   1  -2 6758.36 287.387   4
  -1  -1   2 6242.91 241.386   7
   1   1  -1 32073.5 476.652   7
   1   1  -1 32268.2 593.907  10
   1   1  -1 31457.4 578.839   4
  -1  -1   1 31592.0 469.016   7
   1   1  -1 33835.6 601.132   1
  -1  -1   1 30882.5 550.748   9
  -1  -1   1 30081.1 616.607   1
   1   1  -1 32169.9 572.702   9
  -1  -1   1 32143.2 586.893   4
  -1  -1   1 32265.0 585.179  10
   1   1   3 3240.01 207.522   2
   1   1   3 3223.53 211.516  11
   1   1   3 3012.13 178.619   6
  -1  -1  -3 3205.02 187.880   6
  -1  -1  -3 3143.74 219.159  11
  -1  -1  -3 3422.23 206.592   2
   1   1   4 17199.6 473.912   6
  -1  -1  -4 16745.1 462.326   6
   1   1   4 17856.2 510.624   2
  -1  -1  -4 16428.1 514.111  11
  -1  -1  -4 18113.6 516.676   2
   1   1   4 17642.8 538.059  11
   1   1   5 207.944 85.9818   6
   1   1   5 124.146 98.8121   2
  -1  -1  -5 47.5356 79.6679   2
   1   1   5 119.848 97.1871  11
   1   1   5 204.733 109.905   1
  -1  -1  -5 40.7307 73.7958   6
  -1  -1  -5 10.3689 85.1338  11
  -1  -1  -6 78.2070 115.106  11
  -1  -1  -6-23.7901 88.0476   6
   1   1   6 65.1907 110.174   1
  -1  -1  -6-59.4438 76.3733   2
   1   1   6 107.226 96.2202   3
   1   1   7-40.9144 89.0798   3
  -1  -1  -7-174.151 135.922  11
   1   1   7 21.2597 99.4114   1
  -1  -1  -7 35.0963 108.355   6
   1   1   8 8510.12 509.938   1
   1   1   8 8091.75 466.250   3
  -1  -1  -8 7930.77 520.172  11
  -1  -1  -8 8628.95 497.559   6
   1   1   9 24558.2 916.874   1
  -1  -1  -9 25431.8 917.974   6
   1   1   9 23415.4 839.698   3
  -1  -1  -9 23703.0 937.309  11
   1   1  10 526.804 176.899   1
   1   1  10 543.378 167.295   3
  -1  -1 -10 585.654 159.531   6
  -1  -1 -10 567.113 188.550  11
   1   1  11 18067.3 831.027   3
   1   1  11 17893.1 882.279   1
  -1  -1 -11 18044.3 884.124   6
  -1  -1 -11 17937.4 928.959  11
  -1  -1 -12 20987.9 993.767   6
   1   1  12 20415.3 984.228   1
   1   1  12 20080.3 916.000   3
  -1  -1 -12 21128.4 595.834   4
  -1  -1 -12 19775.6 1024.60  11
  -1  -1 -13 221.703 171.054  11
   1   1  13 114.774 150.044   3
  -1  -1 -13 389.217 189.964   6
   1   1  13 288.601 163.429   1
   1   1  14 1019.35 275.391   1
   1   1  14 1318.28 285.108   3
  -1  -1 -14 1161.14 291.471  11
  -1  -1 -14 1220.41 275.717   6
   1   1  15 2762.26 381.790   3
  -1  -1 -15 2939.28 450.405   6
   1   1  15 2517.46 403.007   1
  -1  -1 -15 2527.40 425.201  11
  -1  -1 -16 2002.13 406.696  11
   1   1  16 1889.63 368.944   3
  -1  -1 -16 1535.53 345.393   6
   1   1  16 1752.55 387.669   1
  -1  -1 -17 64.9815 175.924   6
   1   1  17 230.163 199.277   3
   1   1  17 252.884 184.748   1
  -1  -1 -17-60.7932 208.534  11
  -1  -1 -18 614.495 307.268  11
  -1  -1 -18 1311.61 334.219   6
   1   1  18 830.129 287.690   1
  -1  -1 -19 1603.92 410.322   6
   1   1  19 2054.42 440.436   1
  -1  -1 -19 945.068 325.760  11
  -1  -1 -20 75.4471 179.460   6
   1   1  20 323.613 274.611   1
  -1  -2  18-180.925 221.202   1
   1   2 -17 1072.15 371.965   6
  -1  -2  17 387.116 229.712   1
   1   2 -17 1063.77 352.233  11
   1   2 -16-16.2527 220.456   6
   1   2 -16 163.955 234.111  11
  -1  -2  16 219.420 169.715   1
  -1  -2  15 184.430 216.828   1
   1   2 -15-91.9104 202.678   6
   1   2 -15 78.2470 168.868  11
   1   2 -14-11.9829 204.877   6
  -1  -2  14 261.934 175.330   1
   1   2 -14-89.8758 156.278  11
   1   2 -13 252.498 240.801   6
   1   2 -13-22.8744 100.745   4
   1   2 -13 122.404 154.443  11
  -1  -2  13-24.5821 149.812   1
  -1  -2  12 1486.00 304.311   3
   1   2 -12 1363.05 242.765   4
   1   2 -12 1188.57 311.244  11
  -1  -2  12 871.631 255.271   1
  -1  -2  11 2603.94 353.506   3
   1   2 -11 3079.14 345.672   4
  -1  -2  11 3528.90 410.839   1
   1   2 -11 2887.80 411.287  11
   1   2 -10 118.636 173.605  11
  -1  -2  10 166.235 131.798   1
  -1  -2  10 297.284 151.700   3
   1   2 -10-10.0429 100.756   4
  -1  -2   9 6588.57 510.625   1
  -1  -2   9 5962.01 481.439   3
   1   2  -9 6269.55 460.331   4
   1   2  -9 5888.46 535.434  11
  -1  -2   8 3535.36 355.653   3
  -1  -2   8 3195.86 420.249  10
   1   2  -8 3338.11 326.437   4
  -1  -2   8 3489.62 354.292   1
   1   2  -8 3250.36 390.241  11
  -1  -2   7-25.6915 80.8606   1
  -1  -2   7 163.660 122.251   3
  -1  -2   7 89.2137 142.293  10
   1   2  -7 232.524 158.551  11
   1   2  -7 66.7212 85.4654   4
   1   2  -6 7676.53 505.986  11
  -1  -2   6 7767.44 460.121   1
  -1  -2   6 7318.44 460.974   3
  -1  -2   6 7510.19 486.295  10
   1   2  -6 7922.80 457.985   4
  -1  -2   5 501.626 154.019  10
   1   2  -5 220.764 107.797   1
   1   2  -5 70.6973 90.7652   8
   1   2  -5 268.539 114.745   4
  -1  -2   5 338.530 115.452   1
   1   2  -4 268.461 104.014   8
   1   2  -4 470.289 108.797   7
   1   2  -4 701.004 148.736   3
   1   2  -4 552.962 132.423   4
   1   2  -4 490.485 114.921   1
  -1  -2   4 502.499 122.475   1
   1   2  -4 707.729 142.140  10
  -1  -2   4 633.164 160.480  10
  -1  -2   4 492.910 129.554   7
  -1  -2   3 11214.7 440.127   7
   1   2  -3 12281.0 481.574   3
   1   2  -3 12393.8 487.028  10
   1   2  -3 12639.2 467.148   7
   1   2  -3 11761.7 482.871   4
   1   2  -3 12976.1 525.370   9
   1   2  -3 12286.2 453.463   1
  -1  -2   3 12034.0 475.707  10
   1   2  -3 9337.53 388.312   8
  -1  -2   3 11175.8 439.128   1
   1   2  -2 27438.0 616.978   2
  -1  -2   2 27373.7 698.187   9
   1   2  -2 29425.6 462.927   8
   1   2  -2 30325.6 680.611  10
   1   2  -2 29072.8 650.646   7
  -1  -2   2 27923.1 644.316   7
   1   2  -2 27437.2 698.149   4
   1   2  -2 28318.2 453.802   5
   1   2  -2 29694.0 637.861   1
   1   2  -2 29838.2 730.218   9
  -1  -2   2 28300.8 655.429  10
  -1  -2   2 23476.6 676.328   1
  -1  -2   1 10060.9 352.423  10
  -1  -2   1 10095.9 263.385   5
  -1  -2   1 10506.5 364.298   2
   1   2  -1 10122.2 211.743   8
   1   2  -1 10736.4 366.638  10
   1   2  -1 8272.61 362.465   1
  -1  -2   1 10062.6 219.651   8
   1   2  -1 10264.4 367.728   7
  -1  -2   1 10311.4 402.567   9
  -1  -2   1 9640.21 359.436   7
   1   2  -1 10468.6 402.387   9
   1   2  -1 9372.17 347.986   2
   1   2  -1 9603.59 387.122   4
  -1  -2   1 10490.6 405.373   4
   1   2  -1 9722.39 252.589   5
  -1  -2   0 10330.4 363.039   7
   1   2   0 10242.1 278.725   5
  -1  -2   0 10777.8 387.134   9
   1   2   0 10614.0 344.845  10
   1   2   0 10848.9 355.965   2
   1   2   0 10263.8 381.382   4
  -1  -2   0 10879.7 343.350  10
   1   2   0 10688.3 371.836   7
  -1  -2   0 10148.8 358.568   2
   1   2   0 10827.0 389.685   9
  -1  -2   0 10565.9 283.640   5
  -1  -2   0 10820.4 391.684   4
  -1  -2  -1 11789.2 336.138   5
   1   2   1 11293.5 370.253   4
   1   2   1 11718.2 389.714   7
   1   2   1 11426.4 385.585   9
  -1  -2  -1 11887.4 385.665   2
   1   2   1 10894.8 322.094   5
  -1  -2  -1 11955.4 382.076   4
  -1  -2  -1 10405.2 364.790   7
  -1  -2  -1 11489.2 382.947   9
   1   2   1 11133.5 369.618  11
   1   2   1 10980.6 368.435   2
   1   2   2 3.63303 59.6255   4
  -1  -2  -2 107.174 98.6465  11
   1   2   2 101.725 85.5196   2
   1   2   2-1.93643 67.8383  11
   1   2   2 63.3821 75.2910   5
  -1  -2  -2-103.390 76.7455   5
  -1  -2  -2 2.56151 59.7373   4
   1   2   3 142.714 92.7709  11
  -1  -2  -3 64.3719 93.8846  11
   1   2   3 178.789 67.7206   6
   1   2   3-7.67897 75.1063   2
  -1  -2  -3-7.41460 50.0511   4
   1   2   3-9.16153 55.5968   4
  -1  -2  -3 115.176 77.7803   2
   1   2   3-171.129 100.155   5
  -1  -2  -3-32.7552 81.6219   5
   1   2   4 159298. 1640.45  11
  -1  -2  -4 156919. 1226.85   6
  -1  -2  -4 162444. 1710.00   5
   1   2   4 160689. 1238.63   6
  -1  -2  -4 153354. 1622.34  11
  -1  -2  -4 155291. 1103.60   4
   1   2   4 147058. 1673.49   2
  -1  -2  -4 161142. 1704.88   2
   1   2   5 6424.49 290.210   6
  -1  -2  -5 6490.20 290.095   6
   1   2   5 6999.29 377.216  11
  -1  -2  -5 6183.93 361.561  11
  -1  -2  -5 7463.48 402.425   2
   1   2   5 6402.13 385.344   1
  -1  -2  -5 6311.95 210.795   4
  -1  -2  -5 6452.21 382.005   5
   1   2   5 6983.99 392.660   2
  -1  -2  -6 518.115 155.387  11
  -1  -2  -6 303.025 90.0957   6
   1   2   6 295.517 128.815   1
   1   2   6 543.920 140.070   2
  -1  -2  -7 3497.25 271.163   6
   1   2   7 3866.15 347.128   1
  -1  -2  -7 3682.85 339.644  11
  -1  -2  -8 1142.58 229.730  11
   1   2   8 1063.98 186.930   3
  -1  -2  -8 1174.98 193.115   6
   1   2   8 1167.49 206.637   1
  -1  -2  -9 730.578 157.285   6
   1   2   9 695.054 167.496   1
  -1  -2  -9 816.776 204.646  11
   1   2   9 803.824 161.955   3
   1   2  10-127.591 101.731   3
   1   2  10 115.149 125.392   1
  -1  -2 -10-160.248 147.798  11
  -1  -2 -10 30.0788 106.502   6
  -1  -2 -11 15041.0 334.826   4
  -1  -2 -11 16133.2 783.897   6
   1   2  11 15413.3 742.127   3
  -1  -2 -11 15678.7 849.134  11
   1   2  11 15097.8 824.978   1
   1   2  12 843.986 220.746   3
   1   2  12 579.065 212.388   1
  -1  -2 -12 357.590 191.982  11
  -1  -2 -12 243.829 133.675   6
  -1  -2 -12 475.696 63.1125   4
   1   2  13 5162.89 478.162   3
  -1  -2 -13 5336.04 509.088   6
   1   2  13 5411.63 548.769   1
  -1  -2 -13 4493.48 506.959  11
   1   2  14 5043.85 501.362   3
  -1  -2 -14 5054.36 525.595   6
  -1  -2 -14 4564.02 541.655  11
   1   2  14 4662.86 542.234   1
   1   2  15 836.207 284.518   1
  -1  -2 -15 591.799 211.914   6
   1   2  15 248.965 171.737   3
  -1  -2 -15 753.043 278.300  11
   1   2  16-147.868 151.551   3
  -1  -2 -16 48.7603 156.125   6
   1   2  16-39.9192 138.269   1
   1   2  17 1014.72 290.878   3
  -1  -2 -17 588.559 279.923  11
  -1  -2 -17 525.828 217.341   6
   1   2  17 1026.00 295.640   1
  -1  -2 -18 5312.52 686.149  11
  -1  -2 -18 5842.54 669.496   6
   1   2  18 6664.50 758.403   1
  -1  -2 -19 215.952 290.484  11
   1   2  19 178.902 230.116   1
  -1  -2 -19 242.806 316.651   6
  -1  -2 -20 2557.80 481.517   6
   1   2  20 3375.87 600.110   1
  -1  -3  16 1236.65 347.908   1
   1   3 -16 1688.29 453.815  11
   1   3 -16 1937.44 441.892   6
   1   3 -15 499.771 249.234  11
   1   3 -15 330.016 250.680   6
  -1  -3  15 565.390 229.198   1
   1   3 -14 458.632 224.849   6
   1   3 -14 265.038 208.549  11
  -1  -3  14-64.4057 123.823   1
   1   3 -13 150.625 153.390   4
   1   3 -13 82.3468 195.049  11
   1   3 -13 25.7826 173.791   6
  -1  -3  13 111.694 131.512   1
   1   3 -12 3869.49 511.068  11
   1   3 -12 4139.57 554.696   6
  -1  -3  12 4373.73 496.945   1
   1   3 -12 4348.09 458.758   4
  -1  -3  11 6540.99 584.349   1
   1   3 -11 6380.83 541.733   4
   1   3 -11 6320.42 628.847  11
   1   3 -10 458.956 198.256  11
  -1  -3  10 92.5446 117.654   1
   1   3 -10 332.553 165.843   4
   1   3  -9 1538.72 297.688  11
  -1  -3   9 1934.74 291.215   1
   1   3  -9 1425.39 256.065   4
   1   3  -8 874.818 224.017  11
   1   3  -8 1116.76 232.456   4
  -1  -3   8 821.231 255.321  10
  -1  -3   8 1014.57 202.110   1
   1   3  -7 522.503 160.736   4
   1   3  -7 429.965 165.784  11
  -1  -3   7 634.595 230.029  10
  -1  -3   7 532.015 149.797   1
  -1  -3   6 932.147 180.478   1
  -1  -3   6 1147.87 203.422  10
   1   3  -6 891.459 183.924   4
   1   3  -5 3711.54 338.692   4
  -1  -3   5 3220.23 296.138   1
   1   3  -5 3432.12 291.731   1
   1   3  -5 3942.17 278.278   8
  -1  -3   5 3428.10 332.568  10
  -1  -3   5 3372.03 327.332   7
  -1  -3   4 69.2220 100.631   7
  -1  -3   4-85.5477 98.6830  10
   1   3  -4 16.6936 64.6520   8
   1   3  -4-15.5137 75.3107   4
   1   3  -4 37.9141 61.4875   1
  -1  -3   4 25.0152 79.0636   1
   1   3  -4-17.3215 71.1049   2
   1   3  -3 5021.19 306.077   2
   1   3  -3 5399.07 273.303   5
  -1  -3   3 5051.32 358.319   7
  -1  -3   3 5393.35 332.091  10
   1   3  -3 5537.72 313.506   1
   1   3  -3 5007.36 365.606   4
   1   3  -3 5691.28 264.573   8
   1   3  -3 5630.97 344.119  10
  -1  -3   3 4923.46 369.424   9
  -1  -3   2 275.889 105.459  10
   1   3  -2 125.001 53.3023   1
   1   3  -2 248.190 73.7562   8
   1   3  -2 254.086 99.1898   2
   1   3  -2 223.729 92.8144   7
   1   3  -2 112.524 45.1581   5
  -1  -3   2 303.379 122.877   7
   1   3  -2 129.374 63.2889  10
  -1  -3   2-35.8021 124.712   9
  -1  -3   2 269.573 84.1253   8
   1   3  -2 343.468 105.635   4
   1   3  -1 747.573 124.317   5
  -1  -3   1 585.052 80.4213   8
  -1  -3   1 542.413 131.044   7
   1   3  -1 952.550 161.762   7
   1   3  -1 597.618 151.669   9
  -1  -3   1 645.785 120.625   2
   1   3  -1 695.689 109.342  10
   1   3  -1 408.094 115.398   4
   1   3  -1 496.304 109.132   1
  -1  -3   1 377.367 99.6344  10
  -1  -3   1 379.956 135.506   9
  -1  -3   1 655.388 109.688   5
   1   3  -1 525.304 107.052   2
   1   3  -1 413.335 60.6942   8
  -1  -3   0 27073.9 714.100   7
  -1  -3   0 29509.1 618.758   5
   1   3   0 27660.3 592.835   5
  -1  -3   0 27926.8 737.189   9
  -1  -3   0 29282.6 600.671  10
   1   3   0 30814.7 620.298  10
   1   3   0 28584.3 662.167   2
  -1  -3   0 29680.4 469.704   8
   1   3   0 31904.1 770.442   9
   1   3   0 31764.8 766.670   7
   1   3   0 27933.1 737.268   4
  -1  -3   0 29558.8 665.028   2
   1   3   1 151513. 1652.29   9
  -1  -3  -1 144416. 1623.82   7
  -1  -3  -1 151295. 1592.66   4
  -1  -3  -1 146660. 1304.51  10
   1   3   1 143941. 1524.00   2
  -1  -3  -1 142401. 1607.02   9
   1   3   1 145407. 1575.63   4
   1   3   1 144529. 1416.36   5
   1   3   1 153686. 1659.73   7
  -1  -3  -1 147595. 1137.58   8
  -1  -3  -1 151726. 1456.69   5
  -1  -3  -1 153373. 1552.03   2
   1   3   2 4857.89 299.466   2
  -1  -3  -2 5376.53 303.054   5
  -1  -3  -2 4520.52 272.668  11
  -1  -3  -2 4333.94 300.763   7
   1   3   2 4722.65 279.230   5
  -1  -3  -2 4894.66 297.862   2
   1   3   2 5369.72 294.772  11
  -1  -3  -2 4750.03 302.997   9
  -1  -3  -2 5442.19 290.340   4
   1   3   2 4887.45 278.749   4
   1   3   3 58598.0 1072.57   2
  -1  -3  -3 56448.9 961.069  11
  -1  -3  -3 61353.2 1076.08   2
   1   3   3 59271.8 990.245  11
   1   3   3 59109.9 899.718   4
   1   3   3 57760.8 1028.64   5
  -1  -3  -3 59197.1 892.589   4
  -1  -3  -3 63185.4 1075.27   5
   1   3   4 860.639 164.564   2
  -1  -3  -4 875.768 106.257   4
   1   3   4 651.692 153.209   5
  -1  -3  -4 1042.47 163.038  11
   1   3   4 877.375 83.0549   6
  -1  -3  -4 1006.56 163.113   5
  -1  -3  -4 986.166 170.871   2
   1   3   4 903.649 141.201  11
   1   3   4 848.378 117.878   4
  -1  -3  -5 4206.36 313.172  11
   1   3   5 4752.54 353.212   2
   1   3   5 4720.26 325.680  11
   1   3   5 4648.54 211.240   6
  -1  -3  -5 4850.05 219.218   4
   1   3   5 4030.18 327.618   5
   1   3   6 1617.21 229.067   5
  -1  -3  -6 1779.19 154.927   6
  -1  -3  -6 1618.31 221.193  11
   1   3   6 1531.23 239.595   2
   1   3   6 1295.43 209.310   1
  -1  -3  -6 1714.21 119.390   4
   1   3   7 87.9737 127.306   1
  -1  -3  -7-121.562 73.0708   6
  -1  -3  -7 12.2650 24.5274   4
  -1  -3  -8 572.851 122.222   6
  -1  -3  -8 68.5351 121.286  11
   1   3   8 378.891 142.985   1
  -1  -3  -9 7096.23 516.879  11
   1   3   9 7700.43 552.257   1
  -1  -3  -9 7471.28 431.156   6
   1   3  10 2029.55 265.427   3
   1   3  10 2173.59 313.918   1
  -1  -3 -10 1990.49 294.393  11
  -1  -3 -10 2454.24 267.782   6
   1   3  11 2611.46 310.370   3
  -1  -3 -11 2328.61 285.372   6
   1   3  11 2410.88 350.505   1
  -1  -3 -11 2397.93 336.355  11
  -1  -3 -12 29.6459 131.467  11
   1   3  12 223.259 167.951   1
   1   3  12 216.894 124.069   3
  -1  -3 -12 16.6528 89.8524   6
   1   3  13 2983.74 360.161   3
  -1  -3 -13 3716.81 402.468   6
  -1  -3 -13 3487.86 455.848  11
   1   3  13 4445.97 517.714   1
  -1  -3 -14 372.922 197.235  11
   1   3  14 261.444 180.168   1
   1   3  14 601.597 205.182   3
  -1  -3 -14 511.853 197.270   6
   1   3  15 3493.71 429.161   3
  -1  -3 -15 3490.35 453.310   6
   1   3  15 3095.94 464.315   1
  -1  -3 -15 3507.66 501.309  11
   1   3  16 1267.95 289.408   3
  -1  -3 -16 1013.65 263.613   6
   1   3  16 1089.17 320.934   1
  -1  -3 -16 1201.86 328.842  11
  -1  -3 -17 740.850 238.319   6
   1   3  17 690.118 284.834   1
  -1  -3 -17 839.854 290.951  11
  -1  -3 -18 307.587 255.873  11
   1   3  18 9.09952 233.197   1
  -1  -3 -18 418.584 233.312   6
   1   3  19 2305.92 494.433   1
  -1  -3 -19 2197.12 455.233   6
  -1  -3 -19 2341.60 479.457  11
   1   4 -16 1542.02 427.053   6
   1   4 -16 1357.65 375.968  11
   1   4 -15 466.594 326.281   6
   1   4 -15 469.804 215.798  11
   1   4 -14-196.931 223.573  11
   1   4 -14-161.524 223.733   6
  -1  -4  14-57.3098 124.399   1
   1   4 -13 1686.13 382.510  11
   1   4 -13 1444.48 355.082   6
  -1  -4  13 1200.93 310.379   1
   1   4 -13 1746.26 340.054   4
   1   4 -12 3646.00 457.466   4
   1   4 -12 3383.95 527.411   6
  -1  -4  12 3400.38 441.973   1
   1   4 -12 3673.99 524.873  11
   1   4 -11 1638.15 350.763  11
  -1  -4  11 2039.38 318.269   1
   1   4 -11 1689.21 371.149   6
   1   4 -11 1838.84 323.481   4
   1   4 -10 4117.99 506.940  11
   1   4 -10 4569.25 486.366   4
  -1  -4  10 4457.06 443.858   1
   1   4  -9 8975.02 652.287   4
   1   4  -9 8804.03 695.242  11
  -1  -4   9 9471.53 603.204   1
   1   4  -8 993.892 223.324   4
  -1  -4   8 1105.82 220.105   1
  -1  -4   8 1241.26 267.909  10
   1   4  -8 1033.19 246.321  11
   1   4  -7 52.9949 112.572  11
  -1  -4   7 159.513 102.670   1
  -1  -4   7 42.1964 107.243  10
   1   4  -7 37.6359 97.2867   4
   1   4  -7 22.3852 69.0720   2
  -1  -4   6 1541.31 305.731  10
   1   4  -6 2191.82 241.978   2
  -1  -4   6 1632.33 244.641   1
   1   4  -6 1999.70 282.326   4
  -1  -4   5 2138.74 300.447  10
   1   4  -5 2568.83 250.682   1
  -1  -4   5 1531.11 257.830   1
  -1  -4   5 2392.43 296.962   7
   1   4  -5 2285.59 234.212   2
   1   4  -5 2689.86 242.111   8
   1   4  -5 2318.52 297.715   4
   1   4  -5 2723.02 247.078   5
   1   4  -4 1258.63 170.698   5
  -1  -4   4 939.017 181.325  10
   1   4  -4 1026.96 168.506   2
   1   4  -4 1036.70 215.610   4
   1   4  -4 835.580 153.724   1
  -1  -4   4 865.887 176.300   1
   1   4  -4 974.793 138.818   8
  -1  -4   4 1055.29 209.919   7
   1   4  -3 3450.10 251.004   5
  -1  -4   3 4144.41 305.040  10
  -1  -4   3 3543.30 344.681   9
   1   4  -3 4063.03 296.507  10
   1   4  -3 4338.93 261.522   8
   1   4  -3 3940.85 288.101   2
  -1  -4   3 3951.73 354.319   7
   1   4  -3 4437.50 286.733   1
  -1  -4   3 3908.14 264.381   8
   1   4  -3 4012.01 370.338   4
  -1  -4   2 8220.53 472.067   7
  -1  -4   2 8152.85 390.750  10
  -1  -4   2 8775.02 404.933   2
   1   4  -2 8022.60 386.327   2
   1   4  -2 7276.88 366.459   1
   1   4  -2 8498.92 400.099  10
   1   4  -2 7808.93 321.978   8
   1   4  -2 7504.00 364.981   5
  -1  -4   2 7597.21 476.326   9
   1   4  -2 7767.05 487.050   4
  -1  -4   2 8351.29 330.317   8
   1   4  -1 1212.87 154.003   5
   1   4  -1 1090.72 114.410   8
  -1  -4   1 1154.04 155.628  10
  -1  -4   1 1197.56 167.706   2
  -1  -4   1 1360.90 132.710   8
   1   4  -1 1388.82 204.352   4
  -1  -4   1 1093.43 204.938   9
  -1  -4   1 1153.04 165.035   5
  -1  -4   1 1023.88 191.539   7
   1   4  -1 880.329 115.106  10
   1   4  -1 681.178 160.211   1
   1   4  -1 1262.85 161.711   2
   1   4   0 14538.1 514.760   5
  -1  -4   0 14612.5 604.346   7
   1   4   0 16604.1 488.122  10
  -1  -4   0 16199.4 546.195   5
  -1  -4   0 15710.7 630.347   9
   1   4   0 15135.6 532.372   2
  -1  -4   0 16501.2 553.804   2
   1   4   0 14568.9 601.957   4
  -1  -4   0 16137.6 475.838  10
  -1  -4   0 15649.0 421.398   8
  -1  -4  -1 300.098 88.5520   8
  -1  -4  -1 310.726 101.191  10
  -1  -4  -1 227.374 91.7983   5
  -1  -4  -1 328.307 132.935   7
  -1  -4  -1 215.709 95.6323   2
   1   4   1 298.087 129.724   4
  -1  -4  -1 170.312 104.973   9
   1   4   1 372.218 112.135   2
   1   4   1 63.4690 83.0912   5
   1   4   2 1687.58 201.459   5
  -1  -4  -2 1360.08 194.702   9
   1   4   2 1807.16 197.937  11
   1   4   2 1666.55 197.356   4
  -1  -4  -2 1863.30 200.220   5
   1   4   2 1560.73 200.810   2
  -1  -4  -2 1899.34 210.364   2
  -1  -4  -2 1620.94 224.893   7
   1   4   3 31355.7 859.546   2
  -1  -4  -3 30302.9 856.229   9
  -1  -4  -3 29445.2 855.824   7
  -1  -4  -3 31426.8 782.521  11
   1   4   3 31948.0 777.274   4
   1   4   3 31591.8 773.834  11
   1   4   3 30957.4 844.275   5
  -1  -4  -3 35225.7 896.727   2
   1   4   4 26715.1 841.705   2
   1   4   4 24837.3 380.929   6
  -1  -4  -4 25853.8 734.300  11
   1   4   4 26494.6 667.288   4
   1   4   4 26127.4 822.255   5
  -1  -4  -4 26047.0 822.096   7
   1   4   4 28006.1 760.964  11
  -1  -4  -5 686.678 158.173  11
   1   4   5 510.647 176.336   2
   1   4   5 492.414 154.904   5
   1   4   5 622.537 115.253   4
   1   4   5 527.858 123.727  11
   1   4   5 549.326 63.6810   6
   1   4   6 1185.01 130.263   4
   1   4   6 950.015 207.902   5
   1   4   6 965.528 201.301   1
   1   4   6 1065.03 231.770   2
  -1  -4  -6 1318.88 224.538  11
  -1  -4  -7 18525.6 481.732   6
   1   4   7 17088.5 760.100   5
  -1  -4  -7 17651.3 727.119  11
   1   4   7 17320.6 770.280   1
   1   4   7 18289.8 792.578   2
   1   4   8 1181.36 240.508   1
   1   4   8 640.463 169.002   5
  -1  -4  -8 1120.45 145.994   6
  -1  -4  -8 707.087 142.698  11
  -1  -4  -9 2665.40 309.236  11
   1   4   9 2725.62 340.090   1
  -1  -4  -9 2662.95 233.778   6
  -1  -4 -10 1724.86 287.608  11
  -1  -4 -10 2355.67 243.747   6
   1   4  10 2045.77 321.888   1
  -1  -4 -11 5453.42 496.081  11
  -1  -4 -11 6000.54 416.193   6
   1   4  11 5825.98 550.971   1
   1   4  12 858.574 192.854   3
  -1  -4 -12 1367.89 225.059   6
   1   4  12 868.752 245.166   1
  -1  -4 -12 1183.49 244.714  11
  -1  -4 -13 677.224 184.350  11
   1   4  13 1009.82 261.023   1
  -1  -4 -13 930.498 184.225   6
   1   4  13 769.583 196.420   3
  -1  -4 -14 333.470 198.047  11
  -1  -4 -14 491.072 147.070   6
   1   4  14 173.909 133.400   1
   1   4  14 423.928 156.307   3
  -1  -4 -15 1453.21 266.647   6
   1   4  15 1206.19 263.301   3
  -1  -4 -15 1352.23 331.214  11
   1   4  15 1471.83 355.464   1
   1   4  16-148.991 189.050   3
  -1  -4 -16-23.9946 140.726   6
   1   4  16 192.839 183.624   1
  -1  -4 -16 11.6195 174.711  11
   1   4  17 211.186 180.863   1
  -1  -4 -17 340.946 229.535  11
  -1  -4 -17 88.6687 134.936   6
   1   4  18 406.543 228.172   1
  -1  -4 -18-190.026 231.769  11
  -1  -4 -19-164.208 238.769  11
   1   4  19-187.783 180.609   1
   1   5 -15-100.837 266.660   6
   1   5 -15-255.126 254.606  11
   1   5 -14 1028.25 299.970   6
   1   5 -14 1134.32 318.598   4
   1   5 -14 722.590 254.063  11
   1   5 -13 971.354 318.479  11
   1   5 -13 1218.10 309.383   4
   1   5 -13 1803.24 452.178   6
  -1  -5  12 155.575 180.138   1
   1   5 -12 228.233 227.566   6
   1   5 -12 196.094 196.358  11
   1   5 -12 89.6609 133.194   4
  -1  -5  11 1134.66 256.645   1
   1   5 -11 1726.54 352.564  11
   1   5 -11 1593.87 379.564   6
   1   5 -11 1393.73 317.773   4
   1   5 -10 6879.98 628.056   4
   1   5 -10 8072.78 541.924   2
  -1  -5  10 6361.05 530.976   1
   1   5 -10 7207.41 680.982  11
   1   5 -10 8339.98 772.109   6
  -1  -5   9 2281.61 341.301   1
   1   5  -9 2686.89 418.331  11
   1   5  -9 2997.64 423.542   4
   1   5  -9 3017.43 332.824   2
   1   5  -8 818.399 160.092   2
  -1  -5   8 461.423 175.573   1
   1   5  -8 549.217 190.454  11
  -1  -5   8 724.447 204.274  10
   1   5  -8 941.513 200.377   5
   1   5  -8 584.164 202.205   4
   1   5  -7 3141.33 383.051   4
   1   5  -7 3174.57 311.332   2
  -1  -5   7 3396.55 371.525  10
   1   5  -7 3320.46 323.965   5
   1   5  -7 2880.38 383.612  11
  -1  -5   7 2143.17 303.549   1
   1   5  -6 3146.63 298.399   5
  -1  -5   6 2347.93 341.950   7
  -1  -5   6 1704.99 306.055  10
  -1  -5   6 1403.47 245.211   1
   1   5  -6 2174.85 320.162   4
   1   5  -6 2918.89 283.283   2
  -1  -5   5 777.465 205.924   7
  -1  -5   5 515.521 162.675  10
   1   5  -5 1014.43 178.954   2
   1   5  -5 885.224 159.439   5
   1   5  -5 825.437 221.354   4
  -1  -5   4 13260.9 597.432  10
  -1  -5   4 12676.7 710.509   9
   1   5  -4 13123.6 540.838   1
   1   5  -4 13413.7 525.891   8
   1   5  -4 11972.0 538.266   5
   1   5  -4 11983.8 527.577   2
   1   5  -4 10982.5 674.405   4
  -1  -5   4 12028.0 685.158   7
  -1  -5   4 12260.2 542.348   8
   1   5  -3 8504.36 431.431   2
   1   5  -3 8480.71 397.815   8
  -1  -5   3 7697.85 537.319   9
   1   5  -3 6980.48 527.567   4
   1   5  -3 7974.56 437.536   5
  -1  -5   3 8787.37 568.077   7
  -1  -5   3 8794.59 453.787  10
  -1  -5   3 7513.22 386.231   8
   1   5  -3 8392.36 410.149   1
  -1  -5   2 26050.9 957.293   9
  -1  -5   2 26666.7 952.339   7
   1   5  -2 29204.6 707.397   8
   1   5  -2 28125.7 769.478   1
   1   5  -2 28405.9 804.046   5
  -1  -5   2 29676.6 759.933  10
  -1  -5   2 29818.3 796.492   2
   1   5  -2 28544.9 786.844   2
  -1  -5   2 28481.6 687.396   8
   1   5  -2 30067.2 781.373  10
   1   5  -2 24846.5 941.986   4
  -1  -5   1 685.417 195.622   9
   1   5  -1 745.118 182.428   4
  -1  -5   1 933.928 133.584  10
  -1  -5   1 966.763 168.514   5
   1   5  -1 750.314 110.228  10
  -1  -5   1 876.900 124.499   8
   1   5  -1 482.476 158.725   1
   1   5  -1 777.838 146.233   5
  -1  -5   1 1103.46 208.541   7
   1   5  -1 937.894 165.213   2
  -1  -5   1 814.225 152.304   2
   1   5  -1 970.610 145.641   8
  -1  -5   0 469.385 139.736   7
   1   5   0 635.308 182.313   4
   1   5   0 542.189 143.008   5
  -1  -5   0 409.571 89.4741   8
  -1  -5   0 726.423 205.611   9
  -1  -5   0 604.209 137.864   2
  -1  -5   0 545.110 103.087  10
   1   5   0 567.165 118.022   2
  -1  -5  -1 1370.07 160.676   8
  -1  -5  -1 1432.90 227.898   7
  -1  -5  -1 1227.75 149.331  10
  -1  -5  -1 1082.24 210.552   9
   1   5   1 1418.12 208.352   5
   1   5   1 1114.69 202.124   4
   1   5   1 1364.81 183.080   2
  -1  -5  -1 1558.78 205.116   2
   1   5   2 153.908 131.757   2
   1   5   2-31.8828 95.1528   4
   1   5   2-24.4611 104.389   5
  -1  -5  -2-50.4066 123.128   7
  -1  -5  -2-95.6998 86.5598   8
  -1  -5  -2 37.2412 122.365   9
  -1  -5  -2 7.41277 58.4389  10
   1   5   2 54.3294 83.8558  11
   1   5   3 15390.9 656.533   2
  -1  -5  -3 15081.8 688.780   7
   1   5   3 15260.9 660.462   5
  -1  -5  -3 14854.6 660.050   9
   1   5   3 14976.5 611.175   4
   1   5   3 15558.7 582.894  11
  -1  -5  -4 2748.10 238.017  11
   1   5   4 4439.12 375.329   2
   1   5   4 4123.59 356.259   5
   1   5   4 4773.04 346.464  11
   1   5   4 4380.86 322.237   4
  -1  -5  -4 4015.89 373.665   7
   1   5   5 433.775 150.880   5
   1   5   5 455.198 108.728   4
  -1  -5  -5 647.147 180.313   7
   1   5   5 600.174 176.381   2
  -1  -5  -5 1181.94 222.562  11
   1   5   6 1509.66 257.563   5
   1   5   6 1819.63 286.691   2
   1   5   6 1868.98 193.078   4
  -1  -5  -6 2045.12 256.563  11
   1   5   6 1579.39 244.602   1
   1   5   7 2355.80 200.519   4
   1   5   7 2021.54 294.086   2
  -1  -5  -7 2628.95 298.946  11
   1   5   7 2299.13 317.455   5
   1   5   7 2269.28 308.219   1
   1   5   8 673.711 178.873   1
  -1  -5  -8 816.238 195.878  11
   1   5   8 821.686 209.913   5
   1   5   9 14529.3 822.071   5
   1   5   9 15581.3 838.755   1
  -1  -5  -9 16154.2 781.138  11
  -1  -5 -10 4611.74 437.684  11
   1   5  10 5696.86 532.697   1
  -1  -5 -10 5633.11 334.246   6
   1   5  11 803.541 237.735   1
  -1  -5 -11 924.235 224.799  11
  -1  -5 -11 760.224 145.525   6
   1   5  12 1169.51 303.495   1
  -1  -5 -12 720.497 196.431  11
  -1  -5 -12 1062.19 177.595   6
  -1  -5 -13 8.47374 218.774  11
   1   5  13 593.233 175.156   3
  -1  -5 -13 846.803 178.387   6
   1   5  13 545.824 213.089   1
  -1  -5 -14 166.826 111.181   6
  -1  -5 -14 165.250 222.223  11
   1   5  14 291.819 177.590   1
   1   5  14 175.351 141.093   3
   1   5  15 555.247 196.643   3
  -1  -5 -15-122.631 272.351  11
   1   5  15 439.174 190.447   1
  -1  -5 -15 761.926 189.380   6
   1   5  16 5466.49 675.979   1
  -1  -5 -16 5164.51 627.852  11
  -1  -5 -17-514.600 332.229  11
   1   5  17 46.6668 189.629   1
  -1  -5 -18-470.406 289.936  11
   1   5  18 126.418 228.191   1
   1   5  19-10.4205 189.067   1
  -1  -5 -19-85.1600 193.589  11
   1   6 -14 1191.83 395.050   6
   1   6 -14 1060.83 305.202   4
   1   6 -14 1019.87 307.597  11
   1   6 -13 331.013 259.873  11
   1   6 -13 205.992 159.178   6
   1   6 -13 281.233 170.250   4
   1   6 -12 827.724 312.590   6
   1   6 -12 750.723 280.773  11
   1   6 -12 1174.83 309.815   4
   1   6 -11 1189.63 312.975   4
   1   6 -11 1593.53 379.199   6
   1   6 -11 1512.50 376.314  11
   1   6 -10 1296.98 330.715   6
  -1  -6  10 1188.23 264.836   1
   1   6 -10 1473.86 313.223   4
   1   6 -10 1995.49 391.587  11
   1   6  -9 439.290 155.173   5
   1   6  -9 466.196 189.051  11
   1   6  -9 343.244 205.323   4
   1   6  -9 496.793 199.294   6
  -1  -6   9 5.36153 119.586   1
   1   6  -8 6113.22 597.488  11
   1   6  -8 6781.60 633.289   4
   1   6  -8 7592.68 516.263   5
   1   6  -8 7016.93 479.580   2
   1   6  -7 1745.10 235.274   2
   1   6  -7 2626.00 307.212   5
  -1  -6   7 2727.83 400.182   7
   1   6  -7 1663.34 298.546  11
  -1  -6   7 2398.20 337.642  10
   1   6  -7 1889.01 336.811   4
  -1  -6   6 550.430 205.441   7
   1   6  -6 219.767 94.2881   2
  -1  -6   6 419.690 167.453  10
   1   6  -6 17.4421 115.358   5
   1   6  -6 135.322 148.829   4
  -1  -6   5 14937.5 843.690   7
   1   6  -5 14880.4 629.019   2
   1   6  -5 15424.6 676.850   5
  -1  -6   5 15917.2 726.960  10
   1   6  -5 13517.6 833.722   4
  -1  -6   4 12287.0 742.548   7
   1   6  -4 13122.3 624.758   5
  -1  -6   4 11559.3 616.149  10
   1   6  -4 13901.4 556.200   1
   1   6  -4 13058.2 569.206   2
   1   6  -4 11573.2 737.501   4
  -1  -6   4 13710.7 578.405   8
  -1  -6   4 11751.1 735.418   9
   1   6  -3 4146.25 446.932   4
  -1  -6   3 4861.00 343.003  10
  -1  -6   3 4457.19 443.755   9
   1   6  -3 4126.38 360.658   5
  -1  -6   3 4736.03 323.807   8
   1   6  -3 4294.68 307.787   1
   1   6  -3 4158.87 328.741   2
  -1  -6   3 4464.07 447.775   7
   1   6  -2 1158.69 173.344   2
  -1  -6   2 1187.91 247.148   7
  -1  -6   2 1143.84 245.971   9
  -1  -6   2 1290.14 172.852   8
   1   6  -2 1127.66 154.413  10
   1   6  -2 1460.00 221.265   5
  -1  -6   2 1173.60 167.825  10
   1   6  -2 961.197 223.422   4
   1   6  -2 1528.21 197.463   8
   1   6  -2 1590.24 196.036   1
   1   6  -1 11449.3 472.381  10
  -1  -6   1 11121.9 666.501   7
   1   6  -1 11918.6 500.564   8
   1   6  -1 10260.9 649.539   4
  -1  -6   1 12194.4 486.219   8
   1   6  -1 11050.7 563.734   5
  -1  -6   1 10635.8 645.121   9
   1   6  -1 11763.6 541.409   2
  -1  -6   1 11839.0 462.876  10
   1   6  -1 9233.31 520.921   1
  -1  -6   0-0.71012 139.784   9
  -1  -6   0 97.2647 72.7582   8
  -1  -6   0-57.9828 113.362   7
   1   6   0-11.2402 94.8557   5
  -1  -6   0 52.8631 59.2127  10
   1   6   0 92.7862 89.9189   2
  -1  -6  -1 10.5564 120.426   7
  -1  -6  -1-17.1401 51.4701  10
  -1  -6  -1-156.323 109.555   8
   1   6   1 110.849 91.8304   2
   1   6   1 42.0120 90.6030   5
  -1  -6  -1 42.6620 142.085   9
   1   6   1 194.014 145.792   4
   1   6   2 4273.79 379.683   4
   1   6   2 3924.99 365.042   5
  -1  -6  -2 3958.35 387.285   9
  -1  -6  -2 4142.77 272.379  10
  -1  -6  -2 4152.24 402.422   7
  -1  -6  -2 4466.23 318.960   8
   1   6   2 4567.09 368.481   2
   1   6   3 15622.7 719.042   5
  -1  -6  -3 15074.4 749.129   7
  -1  -6  -3 14075.0 716.652   9
  -1  -6  -3 16368.1 633.453   8
   1   6   3 15474.1 709.396   2
   1   6   3 14872.7 684.048   4
  -1  -6  -4 28446.8 999.842   9
   1   6   4 28334.8 1003.42   2
   1   6   4 28031.8 1002.84   5
  -1  -6  -4 29183.4 1051.19   7
   1   6   4 30609.4 934.301   4
   1   6   5 40073.2 1223.85   2
  -1  -6  -5 39788.0 1039.01  11
  -1  -6  -5 36672.2 1183.93   7
   1   6   5 38443.0 1013.98   4
   1   6   5 37812.1 1189.43   5
  -1  -6  -6 4780.93 439.348   7
  -1  -6  -6 4432.09 374.317  11
   1   6   6 4416.34 415.530   1
   1   6   6 3793.94 401.178   5
   1   6   6 3837.31 406.719   2
   1   6   6 4492.14 331.995   4
  -1  -6  -7 1977.84 270.819  11
   1   6   7 1711.06 205.456   4
  -1  -6  -7 1682.05 273.492   7
   1   6   7 1573.96 287.585   5
   1   6   7 1486.73 258.763   2
   1   6   7 1582.74 267.750   1
   1   6   8 994.709 224.157   1
   1   6   8 1045.89 148.534   4
  -1  -6  -8 1439.31 251.773  11
   1   6   8 1038.23 259.174   2
   1   6   8 745.716 214.946   5
   1   6   9 8588.99 641.278   1
  -1  -6  -9 8738.06 599.206  11
   1   6   9 8302.15 645.461   5
   1   6  10 129.654 176.764   1
  -1  -6 -10 61.7197 115.497  11
   1   6  10 113.602 139.720   5
  -1  -6 -11 665.251 256.654  11
   1   6  11 185.004 145.525   1
   1   6  12-74.4055 134.931   1
  -1  -6 -12 495.966 226.881  11
  -1  -6 -13 773.545 272.466  11
   1   6  13 830.948 233.007   1
  -1  -6 -14 1306.02 286.771  11
   1   6  14 1013.56 297.859   1
   1   6  14 998.440 244.261   3
   1   6  15 7991.04 624.096   3
  -1  -6 -15 8683.00 770.205  11
   1   6  15 8142.02 800.975   1
  -1  -6 -16 2556.45 455.980  11
   1   6  16 2562.83 485.853   1
  -1  -6 -17 33.7524 218.735  11
   1   6  17 318.516 165.424   1
  -1  -6 -18 1753.95 385.899  11
   1   6  18 3133.77 558.214   1
  -1  -6 -19-37.4050 205.678  11
   1   7 -14 21.4255 201.113  11
   1   7 -14 80.1226 173.049   4
   1   7 -13-57.6639 160.378   4
   1   7 -13-12.5141 188.756   6
   1   7 -13-214.384 174.202  11
   1   7 -12 186.792 182.816   4
   1   7 -12 163.683 224.229  11
   1   7 -12 308.484 247.800   6
   1   7 -11 168.102 146.171   4
   1   7 -11 17.6449 147.352   6
   1   7 -11 121.462 245.597  11
   1   7 -10 183.788 183.370  11
   1   7 -10 146.149 142.010   4
   1   7 -10 178.022 210.386   6
   1   7  -9 165.790 163.617   6
   1   7  -9-75.3546 142.218   4
   1   7  -9 344.107 185.454  11
   1   7  -8 178.547 134.945  11
   1   7  -8 425.172 125.028   5
   1   7  -8 488.381 232.494   4
   1   7  -8 401.951 136.743   6
  -1  -7   7 4748.08 557.713   7
   1   7  -7 4851.67 525.227  11
   1   7  -7 4361.40 404.720   5
   1   7  -7 3743.79 511.333   4
   1   7  -7 4736.34 568.984   6
  -1  -7   6 3546.71 473.137   7
   1   7  -6 3028.91 446.910   4
   1   7  -6 3557.38 319.684   2
   1   7  -6 3218.56 350.456   5
  -1  -7   6 3311.64 382.759  10
  -1  -7   5 6892.94 500.941  10
  -1  -7   5 6240.46 599.910   7
   1   7  -5 6590.59 499.383   5
   1   7  -5 5454.68 573.265   4
   1   7  -5 6766.27 440.032   2
  -1  -7   5 4722.72 443.994   8
  -1  -7   4 4296.13 474.247   7
  -1  -7   4 4523.14 514.574   9
   1   7  -4 4487.88 370.428   2
  -1  -7   4 4930.33 381.274   8
  -1  -7   4 4457.01 372.638  10
   1   7  -4 5314.29 435.713   5
   1   7  -4 3971.43 471.917   4
  -1  -7   3 836.592 225.081   7
   1   7  -3 960.335 172.511   2
  -1  -7   3 1014.70 165.672   8
  -1  -7   3 755.974 249.231   9
  -1  -7   3 811.499 152.229  10
   1   7  -3 768.379 177.474   5
   1   7  -3 746.842 230.939   4
   1   7  -3 745.055 138.577   1
   1   7  -2 13776.4 628.475   2
  -1  -7   2 14395.2 562.869  10
  -1  -7   2 12600.1 768.256   9
   1   7  -2 12850.6 798.976   4
  -1  -7   2 13049.9 789.381   7
   1   7  -2 13280.5 575.631   1
   1   7  -2 13543.9 552.972  10
   1   7  -2 13527.6 682.228   5
  -1  -7   2 14175.4 594.965   8
   1   7  -1 1505.24 212.570   1
  -1  -7   1 3229.70 394.815   7
   1   7  -1 3148.21 338.430   5
   1   7  -1 2810.76 289.721   2
   1   7  -1 3391.46 410.849   4
  -1  -7   1 2367.83 350.723   9
  -1  -7   1 2898.05 264.575   8
  -1  -7   1 2921.40 238.838  10
  -1  -7   0 595.992 134.157   8
   1   7   0 814.128 192.436   5
  -1  -7   0 647.151 187.939   7
   1   7   0 591.655 145.309   2
  -1  -7   0 718.107 205.612   9
   1   7   0 606.994 196.192   4
  -1  -7   0 692.103 118.438  10
  -1  -7  -1 9554.03 652.074   9
  -1  -7  -1 9344.07 644.851   7
  -1  -7  -1 9851.18 502.223   8
   1   7   1 10519.5 574.277   2
   1   7   1 9510.44 632.357   4
   1   7   1 9221.28 589.487   5
  -1  -7  -1 10532.4 415.966  10
  -1  -7  -2 3915.00 418.636   9
   1   7   2 3288.42 364.599   4
   1   7   2 3861.01 371.272   2
  -1  -7  -2 3458.46 395.694   7
   1   7   2 3419.72 370.197   5
  -1  -7  -2 4201.68 267.503  10
  -1  -7  -2 3995.67 333.412   8
  -1  -7  -3 5574.16 330.513  10
   1   7   3 6048.24 295.280   6
   1   7   3 6324.42 482.134   4
  -1  -7  -3 6348.04 426.480   8
   1   7   3 6480.94 492.600   2
   1   7   3 5601.15 471.524   5
  -1  -7  -3 5853.82 487.237   9
  -1  -7  -3 5682.28 505.991   7
  -1  -7  -4 287.366 118.058   8
   1   7   4 208.591 143.282   2
   1   7   4 231.550 153.970   5
  -1  -7  -4 22.9711 124.601   9
   1   7   4 155.044 43.8376   6
   1   7   4 233.029 132.088   4
  -1  -7  -4 327.174 149.294   7
  -1  -7  -5 12188.6 717.338   9
   1   7   5 13610.5 715.860   1
  -1  -7  -5 12588.5 759.302   7
   1   7   5 13304.1 748.404   2
   1   7   5 12367.7 642.888   4
   1   7   5 13121.3 752.958   5
  -1  -7  -6 12333.8 754.732   7
   1   7   6 13176.0 639.531   4
   1   7   6 12552.3 713.481   1
  -1  -7  -6 11472.8 720.801   9
   1   7   6 12648.3 773.455   5
   1   7   6 12771.4 762.964   2
  -1  -7  -6 12748.3 630.643  11
  -1  -7  -7 261.977 107.385  11
   1   7   7 482.319 162.155   1
  -1  -7  -7 370.588 183.523   7
   1   7   7 342.133 198.554   2
   1   7   7 183.064 145.064   5
   1   7   7 437.790 129.310   4
   1   7   8 1648.98 280.537   1
   1   7   8 1636.41 307.543   2
  -1  -7  -8 1675.42 306.695   7
   1   7   8 1970.48 229.588   4
   1   7   8 1732.04 308.457   5
  -1  -7  -8 1900.66 289.669  11
   1   7   9 2971.32 399.167   5
  -1  -7  -9 3621.29 433.898  11
  -1  -7  -9 2889.69 395.828   7
   1   7   9 3567.53 283.640   4
   1   7   9 3032.26 409.613   1
   1   7  10 3378.92 457.995   5
  -1  -7 -10 3068.12 442.222   7
  -1  -7 -10 4207.22 477.766  11
   1   7  10 3526.66 449.789   1
   1   7  11 547.146 238.130   1
   1   7  11 165.075 141.983   5
   1   7  12 521.768 198.210   1
  -1  -7 -12 1445.84 307.906  11
   1   7  13 3228.36 488.268   1
  -1  -7 -13 3441.48 467.063  11
  -1  -7 -14 153.832 146.890  11
   1   7  14 2.48033 167.338   1
  -1  -7 -15 3095.21 474.008  11
   1   7  15 3126.22 516.684   1
   1   7  16 441.184 269.672   1
  -1  -7 -16-54.9130 186.709  11
  -1  -7 -17 1217.13 401.565  11
   1   7  17 1617.96 408.112   1
   1   7  18 250.820 262.521   1
  -1  -7 -18 254.503 273.183  11
  -1  -7 -19 285.642 240.013  11
   1   8 -13 689.893 366.463  11
   1   8 -13 186.872 166.249   4
   1   8 -12 203.636 225.523   4
   1   8 -12 78.1621 173.667  11
   1   8 -12 5.01380 202.570   6
   1   8 -11-203.161 222.482   6
   1   8 -11 311.017 199.108  11
   1   8 -11-81.4608 171.540   4
   1   8 -10 180.583 135.732   6
   1   8 -10 105.629 169.245  11
   1   8 -10 119.520 174.521   4
   1   8  -9-183.228 223.377  11
   1   8  -9 155.923 199.746   6
   1   8  -9 13.6679 160.024   4
   1   8  -8 71.1880 182.874   4
   1   8  -8 421.802 222.026  11
   1   8  -8 693.424 282.872   6
  -1  -8   7 67.0601 191.570   7
   1   8  -7 222.741 163.931   6
   1   8  -7 7.23573 153.332   4
   1   8  -7 524.589 241.670  11
  -1  -8   6 4038.77 546.720   7
   1   8  -6 3692.15 508.581   6
   1   8  -6 4410.15 440.609   5
   1   8  -6 3363.22 499.065   4
  -1  -8   5 1242.50 300.989   7
   1   8  -5 1191.94 252.839   5
   1   8  -5 1302.13 317.819   4
  -1  -8   5 1049.17 202.037   8
  -1  -8   5 1119.79 241.143  10
   1   8  -5 1102.96 284.600   6
   1   8  -4 2070.92 392.629   4
   1   8  -4 2035.41 246.950   2
   1   8  -4 1957.28 294.734   5
   1   8  -4 1831.79 326.373   6
  -1  -8   4 1693.68 340.916   7
  -1  -8   4 2377.31 419.667   9
  -1  -8   4 1934.62 257.947  10
  -1  -8   4 1985.29 262.362   8
  -1  -8   3 2712.42 406.335   7
   1   8  -3 3131.10 366.881   5
  -1  -8   3 2836.28 420.671   9
   1   8  -3 2997.15 435.114   4
   1   8  -3 3055.52 318.708   2
  -1  -8   3 3523.47 317.621  10
  -1  -8   3 3268.73 320.047   8
   1   8  -3 2968.69 380.762   6
   1   8  -2 1492.36 258.996   6
  -1  -8   2 1843.66 213.231  10
  -1  -8   2 1360.96 291.534   9
  -1  -8   2 1635.04 229.080   8
   1   8  -2 1661.90 248.124   2
   1   8  -2 1744.32 286.464   5
  -1  -8   2 1796.87 335.159   7
   1   8  -2 1237.78 286.812   4
   1   8  -1 375.376 174.497   6
  -1  -8   1 96.8112 81.0772   8
  -1  -8   1 122.855 151.847   7
   1   8  -1 280.532 166.493   5
   1   8  -1 323.706 125.249   2
  -1  -8   1 227.606 135.865   9
   1   8  -1 278.756 201.646   4
  -1  -8   1 222.273 88.2830  10
  -1  -8   0 1376.16 202.440   8
   1   8   0 1776.25 247.776   6
  -1  -8   0 1545.80 319.153   7
   1   8   0 1721.10 279.286   5
   1   8   0 1560.58 247.858   2
  -1  -8   0 1247.26 271.220   9
  -1  -8   0 1642.72 171.838  10
   1   8   0 1314.25 272.312   4
  -1  -8  -1 1409.02 298.242   7
  -1  -8  -1 1611.26 166.072  10
   1   8   1 1527.98 251.087   2
   1   8   1 1358.55 200.634   6
   1   8   1 1891.16 303.621   5
  -1  -8  -1 1377.06 300.018   9
   1   8   1 1767.88 316.405   4
  -1  -8  -1 1634.18 233.016   8
   1   8   2 157.217 63.4160   6
   1   8   2 211.067 123.537   2
  -1  -8  -2 488.773 156.851   8
   1   8   2 254.231 161.506   5
  -1  -8  -2 483.670 99.5619  10
  -1  -8  -2 208.581 148.619   9
  -1  -8  -2 372.591 200.895   7
   1   8   2 188.156 137.829   4
  -1  -8  -3 196.775 116.364   8
  -1  -8  -3 80.7157 119.568   7
   1   8   3 171.444 133.436   2
   1   8   3 123.517 62.3446   6
   1   8   3 232.506 174.957   5
   1   8   3 146.305 147.568   4
  -1  -8  -3-17.1740 131.068   9
  -1  -8  -3 192.855 78.6601  10
   1   8   4 7293.08 286.791   6
   1   8   4 7113.25 561.966   2
  -1  -8  -4 7315.74 501.120   8
  -1  -8  -4 6928.79 600.284   7
  -1  -8  -4 6530.37 382.234  10
   1   8   4 7456.87 564.472   4
  -1  -8  -4 6494.82 567.438   9
   1   8   4 6536.08 564.770   5
  -1  -8  -5 17589.2 957.798   7
   1   8   5 17674.7 909.873   2
  -1  -8  -5 17199.7 917.002   9
   1   8   5 16711.3 815.987   4
   1   8   5 17423.7 844.017   1
  -1  -8  -5 18212.5 828.542   8
   1   8   5 17417.0 914.142   5
  -1  -8  -6 319.648 183.171   9
  -1  -8  -6 247.166 191.680   7
   1   8   6 369.655 179.130   2
   1   8   6 301.567 132.908   5
   1   8   6 363.316 140.157   1
   1   8   6 286.512 150.805   4
   1   8   7 38222.9 1424.36   2
  -1  -8  -7 37106.2 1401.43   7
   1   8   7 38445.2 1149.51   4
  -1  -8  -7 38501.3 1187.11  11
   1   8   7 37110.5 1318.66   1
  -1  -8  -7 37656.3 1372.58   9
   1   8   7 36982.7 1420.15   5
   1   8   8 2666.28 390.296   1
   1   8   8 2947.37 319.879   4
   1   8   8 2756.71 405.586   5
  -1  -8  -8 2033.28 355.350   7
   1   8   8 2765.43 404.606   2
  -1  -8  -8 2570.80 313.761  11
  -1  -8  -9 664.915 234.346   7
   1   8   9 877.182 267.921   5
   1   8   9 381.751 127.276   4
   1   8   9 731.518 241.680   1
  -1  -8  -9 1050.87 307.152  11
  -1  -8 -10 504.929 219.689  11
   1   8  10 237.605 178.641   1
   1   8  10-7.88976 163.248   5
  -1  -8 -10 113.698 171.486   7
   1   8  10-8.33008 64.4982   4
  -1  -8 -11 29.4815 156.462   7
   1   8  11 437.375 210.967   1
   1   8  11 222.284 204.043   5
  -1  -8 -12 3636.98 484.848  11
   1   8  12 2420.65 411.244   1
  -1  -8 -12 1929.31 378.316   7
   1   8  12 2444.63 456.202   5
  -1  -8 -13 692.574 331.938  11
  -1  -8 -13 95.6643 161.923   7
   1   8  13 210.660 202.130   1
   1   8  14 7811.34 787.757   1
  -1  -8 -14 6638.37 689.595  11
  -1  -8 -14 6371.47 687.090   7
   1   8  15 2417.73 489.483   1
  -1  -8 -15 3846.51 547.810  11
  -1  -8 -16 524.342 259.759  11
   1   8  16-365.290 257.799   1
   1   8  17 1527.71 394.454   1
  -1  -8 -17 2199.15 463.655  11
  -1  -8 -18 2363.92 515.101  11
  -1  -8 -19 1338.22 500.615  11
   1   9 -12 537.174 275.854  11
   1   9 -11 994.222 357.829   6
   1   9 -11 1030.24 289.126  11
   1   9 -11 828.234 304.473   4
   1   9 -10-206.444 245.699   4
   1   9 -10 199.001 215.581   6
   1   9 -10-169.416 185.727  11
   1   9  -9 158.662 185.502   4
   1   9  -9 265.702 201.459  11
   1   9  -9 364.312 246.804   6
   1   9  -8 546.044 248.953  11
   1   9  -8 303.042 189.957   6
   1   9  -8 541.829 248.467   4
  -1  -9   7 546.467 271.001   7
   1   9  -7 633.218 226.972   6
   1   9  -7 855.758 334.462   4
   1   9  -7 1018.23 266.486  11
  -1  -9   6 190.323 186.943   7
   1   9  -6 243.415 181.928   4
   1   9  -6 146.824 174.461   6
  -1  -9   5 4839.86 602.746   7
   1   9  -5 5147.09 579.406   6
   1   9  -5 4978.44 499.375   5
   1   9  -5 4529.38 592.840   4
   1   9  -4-85.4544 131.453   6
   1   9  -4 5.01872 121.728   5
  -1  -9   4 55.5903 174.562   9
  -1  -9   4-21.3244 156.138   7
  -1  -9   4 74.3880 97.0848   8
   1   9  -4 267.591 215.024   4
  -1  -9   3 550.711 155.034   8
  -1  -9   3 394.994 191.915   9
  -1  -9   3 254.049 165.903   7
   1   9  -3 204.534 144.032   4
   1   9  -3 317.924 177.429   6
   1   9  -3 523.442 199.440   5
   1   9  -2 84.8140 102.589   2
  -1  -9   2 101.088 115.205   8
   1   9  -2-105.954 139.161   5
  -1  -9   2-175.275 192.556   7
  -1  -9   2-132.878 204.036   9
   1   9  -2 63.7651 166.707   4
   1   9  -2 139.817 131.722   6
  -1  -9   1 608.958 166.034   8
   1   9  -1 391.083 170.419   5
   1   9  -1 520.394 170.019   2
   1   9  -1 328.050 187.442   4
   1   9  -1 519.904 176.887   6
  -1  -9   1 456.856 233.706   9
  -1  -9   1 707.944 245.226   7
  -1  -9   0 2465.59 396.144   9
  -1  -9   0 2677.20 413.891   7
   1   9   0 2693.07 318.386   6
   1   9   0 2542.28 403.466   4
   1   9   0 2450.05 352.005   5
  -1  -9   0 2918.20 226.138  10
  -1  -9   0 2679.10 306.323   8
   1   9   0 3220.30 350.623   2
   1   9   1 108.191 97.7070   2
  -1  -9  -1 398.073 206.018   7
  -1  -9  -1 327.439 216.969   9
  -1  -9  -1 221.488 67.9688  10
   1   9   1 335.703 184.743   5
   1   9   1 326.510 126.862   6
  -1  -9  -1 185.683 106.860   8
   1   9   1 89.1641 144.666   4
  -1  -9  -2 2045.66 368.497   7
   1   9   2 2028.64 336.039   5
   1   9   2 2118.20 316.360   2
   1   9   2 2351.81 255.427   6
  -1  -9  -2 2534.89 322.917   8
  -1  -9  -2 1854.40 309.965   9
   1   9   2 2072.02 337.404   4
  -1  -9  -2 2255.43 192.480  10
  -1  -9  -3 3921.45 484.093   7
   1   9   3 4320.95 458.276   2
   1   9   3 4132.01 469.037   4
  -1  -9  -3 4657.19 524.569   9
   1   9   3 3936.88 464.131   5
  -1  -9  -3 4562.94 280.223  10
  -1  -9  -3 4345.66 405.196   8
  -1  -9  -4 1333.26 161.113  10
  -1  -9  -4 1459.72 317.875   7
   1   9   4 1461.86 279.550   2
   1   9   4 1006.29 234.289   4
  -1  -9  -4 1123.02 287.804   9
  -1  -9  -4 1321.62 245.879   8
   1   9   4 1443.97 306.845   5
   1   9   4 1385.68 248.244   1
   1   9   5 2900.48 403.806   5
  -1  -9  -5 2959.28 431.249   7
  -1  -9  -5 2562.53 248.306  10
   1   9   5 3166.12 408.655   2
  -1  -9  -5 3105.77 378.570   8
  -1  -9  -5 2590.74 381.106   9
   1   9   5 2701.42 353.125   1
   1   9   5 2914.94 371.356   4
   1   9   6 223.048 120.395   4
  -1  -9  -6 32.6434 144.474   7
   1   9   6 179.531 166.146   1
   1   9   6 455.349 222.568   5
  -1  -9  -6 313.804 149.416   8
   1   9   6 320.507 186.905   2
  -1  -9  -6 10.0834 145.553   9
  -1  -9  -7 30751.4 1370.57   7
   1   9   7 31112.8 1344.55   2
  -1  -9  -7 30021.3 1306.95   9
  -1  -9  -7 32553.0 1241.34   8
   1   9   7 28922.3 1324.11   5
   1   9   7 30547.9 1244.93   1
   1   9   7 32537.7 1156.65   4
  -1  -9  -8 3537.53 485.852   7
   1   9   8 4273.55 476.390   1
   1   9   8 4000.18 399.880   4
  -1  -9  -8 4098.30 399.540  11
  -1  -9  -8 3909.23 504.561   9
   1   9   8 3537.51 482.309   5
  -1  -9  -9-177.408 184.558   7
   1   9   9 266.184 195.401   5
   1   9   9 50.8685 174.733   1
  -1  -9  -9 391.565 221.452   9
   1   9   9 408.842 135.134   4
  -1  -9  -9-218.732 210.995  11
   1   9  10 293.870 190.568   1
  -1  -9 -10 11.2001 139.145  11
   1   9  10 279.538 207.305   5
  -1  -9 -10 331.042 230.232   7
  -1  -9 -11 2613.14 440.596   7
   1   9  11 2105.55 391.705   1
  -1  -9 -11 3580.93 463.735  11
   1   9  11 2146.84 415.070   5
   1   9  12 545.529 250.018   1
  -1  -9 -12 253.709 168.908   7
   1   9  12 301.119 228.650   5
  -1  -9 -12 907.714 292.655  11
  -1  -9 -13 5966.65 676.067   7
  -1  -9 -13 6916.58 652.928  11
   1   9  13 6355.92 703.204   1
   1   9  13 5630.93 670.776   5
   1   9  14 3294.03 549.601   1
  -1  -9 -14 3110.73 491.886   7
  -1  -9 -14 5013.08 627.097  11
  -1  -9 -15 982.541 311.925   7
   1   9  15 753.954 313.502   1
  -1  -9 -16 318.824 176.065   7
   1   9  16 301.250 236.717   1
  -1  -9 -17 3062.35 555.932   7
   1   9  17 2190.49 473.282   1
  -1  -9 -18 1022.26 363.711   7
  -1  -9 -18 2971.03 604.819  11
  -1  -9 -19 1704.35 474.881  11
   1  10 -10 956.289 364.937   6
   1  10  -9 834.888 316.516   6
   1  10  -9 378.502 234.550   4
   1  10  -8 519.175 260.524   6
   1  10  -8 484.849 278.766   4
   1  10  -7 93.1080 151.479   6
   1  10  -7-144.468 146.268  11
  -1 -10   7 402.329 278.216   7
   1  10  -7-316.211 248.893   4
   1  10  -6 1432.51 347.266   6
  -1 -10   6 1112.47 333.567   7
   1  10  -6 1299.08 294.536  11
   1  10  -6 834.863 300.028   4
  -1 -10   5 2795.76 511.469   7
   1  10  -5 4217.87 541.882   6
   1  10  -5 3345.20 541.651   4
  -1 -10   4-56.9901 170.404   7
   1  10  -4 54.9422 146.454   5
   1  10  -4 53.2315 164.012   6
  -1 -10   4-168.397 199.977   9
   1  10  -4 143.710 166.888   4
   1  10  -3 392.731 195.541   6
   1  10  -3 371.216 207.998   5
  -1 -10   3 381.513 254.840   7
  -1 -10   3 212.099 260.691   9
   1  10  -3 333.450 263.875   4
  -1 -10   2-113.357 196.279   7
   1  10  -2 361.973 199.287   5
   1  10  -2 552.522 266.263   4
   1  10  -2 151.316 139.054   6
  -1 -10   2 316.283 150.967   8
  -1 -10   2-173.704 197.098   9
  -1 -10   1 39.0086 162.702   7
   1  10  -1 61.1523 173.412   4
   1  10  -1-41.0735 101.779   6
  -1 -10   1-80.6828 163.236   9
   1  10  -1 47.1486 149.436   5
  -1 -10   1 97.6172 90.5995   8
  -1 -10   0 1271.13 341.447   9
   1  10   0 1472.61 251.035   2
  -1 -10   0 1466.92 349.259   7
   1  10   0 1659.67 312.492   5
   1  10   0 1603.93 264.154   6
   1  10   0 1829.86 375.721   4
  -1 -10   0 1637.45 268.607   8
  -1 -10  -1 1842.36 346.392   7
  -1 -10  -1 1934.88 382.091   9
   1  10   1 1658.67 325.083   5
   1  10   1 2153.17 342.634   2
   1  10   1 2180.14 396.094   4
  -1 -10  -1 2101.19 298.904   8
  -1 -10  -2 924.930 228.850   8
   1  10   2 763.413 183.054   1
   1  10   2 836.080 256.394   4
  -1 -10  -2 794.524 280.888   7
   1  10   2 908.429 242.445   2
  -1 -10  -2 809.053 273.250   9
   1  10   2 762.902 227.886   5
  -1 -10  -3 184.797 192.187   7
  -1 -10  -3 272.942 155.608   8
   1  10   3 221.033 175.330   2
   1  10   3 377.173 220.114   5
   1  10   3 15.2767 124.504   4
  -1 -10  -3 91.2615 152.743   9
   1  10   3 295.101 132.288   1
  -1 -10  -4 210.379 159.350   8
  -1 -10  -4 248.865 182.149   7
   1  10   4 421.726 231.899   5
   1  10   4 146.110 152.225   2
   1  10   4 55.7569 116.018   1
   1  10   4 160.297 132.860   4
  -1 -10  -4 204.549 174.220   9
  -1 -10  -5 139.828 145.699   8
   1  10   5 273.988 175.704   1
   1  10   5 312.480 199.454   2
   1  10   5-93.6449 159.447   5
  -1 -10  -5-41.7674 198.167   7
  -1 -10  -5 184.041 186.424   9
   1  10   5 6.20761 119.764   4
  -1 -10  -6 3703.37 514.023   7
   1  10   6 3898.23 484.708   2
   1  10   6 3409.24 440.463   4
  -1 -10  -6 3738.52 437.834   8
  -1 -10  -6 3346.97 468.219   9
   1  10   6 3099.12 451.077   5
   1  10   6 3857.27 450.910   1
  -1 -10  -7 977.435 242.131   8
  -1 -10  -7 1295.32 321.438   7
   1  10   7 949.996 241.472   1
   1  10   7 1128.48 307.583   2
   1  10   7 969.019 315.658   5
  -1 -10  -7 1251.79 294.837   9
   1  10   7 1062.02 254.521   4
  -1 -10  -8 59.8696 131.634   8
  -1 -10  -8 409.087 253.212   7
   1  10   8-15.9571 121.933   1
  -1 -10  -8 66.8448 165.280   9
   1  10   8 363.914 217.492   5
   1  10   8-21.0532 94.8548   4
   1  10   9 582.171 186.990   4
  -1 -10  -9 315.781 186.525   8
  -1 -10  -9 504.127 224.439   7
  -1 -10  -9 712.735 241.154   9
   1  10   9 674.354 247.718   5
   1  10   9 525.053 218.546   1
  -1 -10 -10 463.553 260.475   9
  -1 -10 -10 851.170 281.147   7
  -1 -10 -10-3.25117 196.642  11
   1  10  10 352.697 213.915   5
   1  10  10 101.101 142.365   1
  -1 -10 -11 603.627 256.910   7
  -1 -10 -11 393.335 170.171  11
   1  10  11 642.351 219.897   1
   1  10  11 477.865 243.541   5
   1  10  12 690.159 273.251   1
  -1 -10 -12 697.233 227.475   7
  -1 -10 -12 329.968 167.310  11
   1  10  12 660.898 317.873   5
   1  10  13 4545.26 604.211   1
   1  10  13 4137.23 630.778   5
  -1 -10 -13 4522.48 610.684   7
  -1 -10 -13 4749.59 548.637  11
  -1 -10 -14 659.417 296.926   7
   1  10  14 621.208 296.923   5
  -1 -10 -14 1475.63 353.590  11
   1  10  14 1264.85 330.338   1
  -1 -10 -15 47.7190 216.186   7
   1  10  15 59.3537 161.920   1
  -1 -10 -16 1399.45 369.653   7
   1  10  16 2110.60 487.422   1
  -1 -10 -17 1651.86 415.386   7
   1  11  -8 638.167 285.548   6
  -1 -11   7 387.703 292.245   7
   1  11  -7 662.823 306.311   4
   1  11  -7 590.865 258.264   6
  -1 -11   6 1525.95 437.444   7
   1  11  -6 989.334 289.188   6
   1  11  -6 1110.27 372.163   4
   1  11  -5 55.1467 215.885   4
   1  11  -5 167.656 184.690   6
  -1 -11   4 4434.83 645.571   9
  -1 -11   4 4020.66 599.998   7
   1  11  -4 4254.87 540.655   6
   1  11  -4 4472.19 658.651   4
  -1 -11   3 1327.72 384.841   7
  -1 -11   3 1183.15 375.572   9
   1  11  -3 1864.31 348.664   5
   1  11  -3 1906.81 454.929   4
   1  11  -2 29.6856 129.703   5
  -1 -11   2 497.949 262.849   7
  -1 -11   2 89.3916 194.847   9
   1  11  -2 212.652 186.557   4
  -1 -11   1 23.8602 181.274   7
  -1 -11   1-63.6575 166.104   9
   1  11  -1 254.894 200.876   4
   1  11  -1 208.686 146.603   5
  -1 -11   0 3813.98 548.282   7
   1  11   0 3607.25 488.887   5
   1  11   0 3767.60 557.405   4
  -1 -11   0 3739.42 546.468   9
  -1 -11  -1-13.6667 168.743   7
   1  11   1-24.3845 160.949   5
  -1 -11  -1-34.6219 173.066   9
  -1 -11  -1 47.8273 115.098   8
   1  11   1 99.3899 164.178   4
   1  11   2 208.903 203.979   5
   1  11   2 447.375 217.045   2
  -1 -11  -2-6.64165 171.741   9
  -1 -11  -2 551.870 214.121   8
   1  11   2 141.249 169.673   4
  -1 -11  -2-70.7094 172.990   7
   1  11   3 98.5065 158.929   5
  -1 -11  -3 178.199 131.566   8
  -1 -11  -3 196.822 203.108   7
  -1 -11  -3 350.773 212.249   9
   1  11   3 368.527 193.039   2
   1  11   3 103.037 149.224   4
  -1 -11  -4 762.416 283.280   7
   1  11   4 498.858 197.102   5
  -1 -11  -4 699.250 284.650   9
   1  11   4 932.525 289.330   4
   1  11   4 1032.58 272.357   2
  -1 -11  -4 947.005 238.854   8
   1  11   5 966.910 311.677   5
  -1 -11  -5 736.140 284.625   7
  -1 -11  -5 686.789 281.288   9
   1  11   5 867.097 248.729   2
  -1 -11  -5 700.052 263.629   8
   1  11   5 860.262 257.485   4
   1  11   5 606.967 194.717   1
  -1 -11  -6 1061.16 268.339   8
  -1 -11  -6 830.417 275.555   7
   1  11   6 1209.18 279.693   4
  -1 -11  -6 1124.86 343.774   9
   1  11   6 604.110 245.598   5
   1  11   6 1330.69 324.744   2
   1  11   6 868.435 207.459   1
   1  11   7 1255.45 282.201   1
  -1 -11  -7 1352.21 367.276   7
  -1 -11  -7 1219.04 292.679   8
   1  11   7 1385.56 371.331   5
  -1 -11  -7 1222.22 335.897   9
   1  11   7 677.558 219.265   4
  -1 -11  -8 542.528 221.567   8
   1  11   8 754.432 252.469   1
  -1 -11  -8 643.046 290.146   7
  -1 -11  -8 701.026 283.701   9
   1  11   8 343.822 196.829   5
   1  11   8 817.211 248.682   4
  -1 -11  -9 2060.22 400.525   8
   1  11   9 2034.60 379.865   1
  -1 -11  -9 1591.01 369.399   7
   1  11   9 1442.44 387.252   5
  -1 -11  -9 1660.07 346.530   9
  -1 -11 -10 378.252 203.617   8
   1  11  10 538.568 253.216   1
  -1 -11 -10 79.4017 175.600   7
   1  11  10-125.635 189.846   5
  -1 -11 -10 427.422 243.884   9
  -1 -11 -11 962.197 302.110   8
   1  11  11 913.588 296.857   1
  -1 -11 -11 1346.90 344.683   9
  -1 -11 -11 797.518 317.285   7
   1  11  11 726.584 276.302   5
   1  11  12 1417.22 364.741   1
  -1 -11 -12 1136.50 360.165   9
  -1 -11 -12 912.690 308.517   7
   1  11  12 1234.41 352.366   5
  -1 -11 -13 1034.93 347.291   7
  -1 -11 -13 765.220 305.734   9
   1  11  13 1084.72 372.202   5
   1  11  13 1226.64 368.122   1
  -1 -11 -14 37.0851 222.454   7
   1  11  14-482.643 287.008   5
   1  11  14-47.2749 191.441   1
   1  11  15 517.706 322.706   1
  -1 -11 -15-56.5510 197.749   7
  -1 -11 -16 1674.66 419.944   7
  -1 -12   4-63.0132 215.820   7
  -1 -12   4-384.960 316.063   9
   1  12  -4 312.871 278.732   4
  -1 -12   3 1009.80 345.943   9
  -1 -12   3 321.531 242.587   7
   1  12  -3 450.941 285.345   4
  -1 -12   2 378.699 252.652   9
  -1 -12   2 291.951 220.253   7
   1  12  -2 189.042 211.974   4
  -1 -12   1 3230.47 536.719   9
  -1 -12   1 3531.88 581.692   7
   1  12  -1 3786.99 579.976   4
   1  12  -1 3637.85 518.284   5
  -1 -12   0 698.044 304.644   9
  -1 -12   0 958.398 317.418   7
   1  12   0 1078.94 338.124   5
   1  12   0 782.798 282.187   4
  -1 -12  -1 453.565 191.442   9
   1  12   1 220.190 242.320   5
  -1 -12  -1-193.141 228.993   7
   1  12   1-79.3125 150.873   4
  -1 -12  -2 1986.00 427.530   7
  -1 -12  -2 1295.14 343.921   9
   1  12   2 2321.20 457.231   4
   1  12   2 2136.80 403.315   5
  -1 -12  -3 4829.26 639.280   7
  -1 -12  -3 4590.69 618.415   9
   1  12   3 4717.23 605.707   5
   1  12   3 5312.36 650.055   4
  -1 -12  -4 221.336 275.286   7
   1  12   4-75.0633 165.806   5
  -1 -12  -4-76.9733 191.506   9
   1  12   4-277.374 221.694   2
  -1 -12  -4-138.529 156.714   8
   1  12   4 109.635 189.690   4
   1  12   5 1044.35 318.083   4
  -1 -12  -5 1101.97 290.438   8
  -1 -12  -5 1117.80 367.385   9
  -1 -12  -5 960.064 337.694   7
   1  12   5 758.306 242.072   5
  -1 -12  -6 565.195 219.890   8
  -1 -12  -6 545.248 290.251   7
  -1 -12  -6 447.658 212.592   9
   1  12   6 343.887 199.730   4
   1  12   6-272.060 228.575   5
  -1 -12  -7 1363.54 317.226   8
  -1 -12  -7 903.870 323.183   7
   1  12   7 1076.34 286.302   4
   1  12   7 1079.51 341.337   5
  -1 -12  -7 755.591 303.326   9
   1  12   8 2507.10 472.505   5
  -1 -12  -8 2174.29 387.448   8
  -1 -12  -8 1947.58 426.319   7
  -1 -12  -8 1895.87 391.520   9
   1  12   8 1848.03 344.791   4
  -1 -12  -9 1380.58 337.412   8
  -1 -12  -9 1409.62 398.408   7
  -1 -12  -9 1249.94 353.528   9
   1  12   9 1255.22 310.125   1
   1  12   9 1273.22 393.688   5
  -1 -12 -10 1770.62 393.390   8
   1  12  10 1646.31 359.854   1
  -1 -12 -10 1926.94 434.974   7
   1  12  10 1635.87 409.749   5
  -1 -12 -10 2002.59 437.417   9
  -1 -12 -11-111.686 221.195   8
  -1 -12 -11 120.422 183.719   7
   1  12  11 226.638 168.447   1
   1  12  11 882.151 341.965   5
  -1 -12 -11 663.038 288.658   9
  -1 -12 -12 199.898 217.063   7
   1  12  12 551.262 264.011   5
  -1 -12 -12-15.9957 203.018   9
  -1 -12 -12-46.1685 247.387   8
   1  12  12-24.4071 174.216   1
  -1 -12 -13 50.7138 218.242   8
   1  12  13 156.592 228.540   1
  -1 -12 -13 241.942 238.151   7
  -1 -12 -13 41.5672 218.464   9
  -1 -12 -14 1052.97 352.547   8
   1  12  14 643.094 304.753   1
   1  13  -1 745.566 331.155   4
  -1 -13   1 1232.68 375.108   9
  -1 -13   0 96.2482 257.807   9
  -1 -13   0 875.668 360.848   7
   1  13   0 191.401 243.904   5
   1  13   0 157.193 185.717   4
   1  13   1 261.611 231.674   4
  -1 -13  -1 730.450 323.977   7
  -1 -13  -1 803.946 325.737   9
   1  13   1 364.339 246.891   5
  -1 -13  -2 1581.11 440.491   7
  -1 -13  -2 1070.74 335.889   9
   1  13   2 1752.60 413.105   5
   1  13   2 1414.48 403.072   4
   1  13   3 310.749 159.215   4
  -1 -13  -3 333.026 229.447   7
  -1 -13  -3-118.819 212.337   9
   1  13   3 358.014 248.773   5
  -1 -13  -4 80.9629 239.891   7
   1  13   4 387.204 255.219   4
  -1 -13  -4 584.383 310.774   9
   1  13   4 356.787 233.522   5
  -1 -13  -5 392.651 257.269   7
  -1 -13  -5 316.484 232.377   9
   1  13   5 272.121 244.013   5
   1  13   5 881.944 315.141   4
  -1 -13  -6 442.116 224.062   7
  -1 -13  -6 271.477 249.631   9
   1  13   6-23.5550 168.821   5
   1  13   6-39.8539 146.565   4
  -1 -13  -7 21.3150 192.361   9
  -1 -13  -7-55.5607 198.936   7
   1  13   7 127.177 221.234   5
   1  13   7-71.8577 146.613   4
  -1 -13  -8 82.1707 223.402   7
  -1 -13  -8-33.8520 188.530   9
  -1 -13  -8-6.40576 165.402   8
   1  13   8 370.277 262.668   5
   1  13   9 3152.49 567.763   5
  -1 -13  -9 3909.70 623.107   9
  -1 -13  -9 3783.97 541.662   8
  -1 -13  -9 3948.12 634.887   7
  -1 -13 -10 125.475 231.985   8
  -1 -13 -10 307.435 279.662   7
  -1 -13 -10 140.184 219.060   9
  -1 -13 -11 4055.95 614.348   8
  -1 -13 -11 4045.91 630.644   9
  -1 -13 -12 196.527 249.310   8
   1  13  13 1015.78 367.949   1
   1  14   2 916.416 339.560   5
   1  14   3 199.519 204.040   5
   1  14   3 221.284 225.438   4
   1  14   4 180.886 208.064   4
   1  14   4 169.983 255.139   5
   1  14   5 247.332 183.180   5
   1  14   5 220.916 263.839   4
   1  14   6 205.491 234.425   5
   1  14   6-196.744 215.845   4
   2 -14  -5 118.861 234.908   8
  -2  14   4 552.223 279.794   4
   2 -14  -4 656.422 306.802   8
  -2  14   3 398.944 275.691   4
   2 -14  -3 187.684 213.191   8
   2 -13 -10-4.40501 183.436   7
   2 -13  -9-115.026 191.293   7
   2 -13  -8-68.5048 194.153   7
   2 -13  -8 1048.02 388.888   8
   2 -13  -7 2216.96 488.063   7
   2 -13  -7 2553.70 497.373   8
   2 -13  -6 551.146 301.162   7
   2 -13  -6-11.8274 175.002   8
   2 -13  -5 309.664 199.378   8
   2 -13  -5 514.528 319.500   7
  -2  13   5 248.016 287.490   5
  -2  13   5 450.308 237.549   4
  -2  13   4 2697.63 489.720   4
   2 -13  -4 2175.16 491.776   7
   2 -13  -4 2503.01 481.442   8
  -2  13   4 2661.70 517.710   5
   2 -13  -3-34.8276 192.296   7
  -2  13   3 49.0355 211.264   5
  -2  13   3-419.912 246.993   4
   2 -13  -3-96.2976 174.926   8
  -2  13   2 816.128 351.080   5
   2 -13  -2 1268.00 351.260   7
   2 -13  -2 969.151 322.463   8
  -2  13   2 1169.10 375.303   4
   2 -13  -1 826.773 308.913   7
   2 -13  -1 557.731 259.610   8
  -2  13   1 896.460 360.058   5
  -2  13   1 424.111 255.962   4
  -2  13   0 66.0631 181.103   5
   2 -13   0 80.2603 168.405   8
  -2  13   0 148.280 214.238   4
   2 -13   1 264.135 201.935   8
  -2  13  -1 611.851 295.649   5
  -2  13  -1-80.1227 224.282   4
  -2  13  -2-213.884 250.208   5
  -2  13  -3 305.064 267.747   5
   2 -12 -11 835.087 331.234   7
   2 -12 -10 395.070 259.398   7
   2 -12 -10 13.0499 261.065   8
   2 -12  -9 164.543 207.665   8
   2 -12  -9 410.277 275.038   7
  -2  12   9 631.302 293.820   5
   2 -12  -8 3667.42 582.953   7
   2 -12  -8 3961.64 591.917   8
  -2  12   8 3857.02 606.626   5
   2 -12  -7 516.606 222.337   7
  -2  12   7 1314.73 412.956   5
   2 -12  -7 1402.15 357.913   9
   2 -12  -7 1403.26 385.109   8
  -2  12   6 343.549 185.490   4
   2 -12  -6 32.4748 183.026   8
   2 -12  -6-33.2883 172.936   9
  -2  12   6 114.224 174.428   5
   2 -12  -6 491.281 270.827   7
   2 -12  -5 2962.79 458.096   9
  -2  12   5 3116.13 472.502   4
   2 -12  -5 3058.82 540.350   7
  -2  12   5 3381.61 566.422   5
   2 -12  -5 3143.20 520.348   8
   2 -12  -4 776.111 295.609   7
   2 -12  -4 371.491 217.430   8
  -2  12   4 519.609 314.743   5
   2 -12  -4 410.684 200.537   9
   2 -12  -3 798.812 256.136   8
   2 -12  -3 541.248 248.661   7
   2 -12  -3 85.3841 146.569   9
  -2  12   3 325.447 225.825   5
   2 -12  -2 1300.35 371.716   7
   2 -12  -2 1068.23 313.061   8
   2 -12  -2 1595.25 353.128   9
  -2  12   2 950.113 333.226   5
  -2  12   1 2038.65 422.782   5
   2 -12  -1 1984.02 433.264   7
   2 -12  -1 1581.62 354.708   8
   2 -12  -1 1932.61 416.737   9
   2 -12   0 903.948 301.845   8
   2 -12   0 1285.52 388.192   7
   2 -12   0 1234.06 410.062   9
  -2  12   0 1144.40 346.519   5
   2 -12   1 179.630 226.880   8
   2 -12   1 147.053 201.671   7
   2 -12   1 580.795 264.087   9
  -2  12  -1 54.2340 207.300   5
   2 -12   2 1430.76 415.025   7
   2 -12   2 1514.72 372.713   8
  -2  12  -2 1533.61 395.583   5
   2 -12   2 1187.63 334.469   9
   2 -12   3 253.249 178.283   9
   2 -12   3 588.123 286.646   7
  -2  12  -3 416.686 206.098   5
   2 -12   3 631.641 265.471   8
   2 -12   4 173.515 172.467   8
   2 -12   4 515.833 278.248   7
  -2  12  -4 208.169 236.014   5
  -2  12  -5 2583.57 483.937   5
  -2  12  -6 91.9542 202.587   5
  -2  12  -7 181.772 192.846   5
  -2  11  14 2223.49 469.612   1
  -2  11  13 126.074 195.897   1
   2 -11 -12 752.486 365.881   8
  -2  11  12 798.026 297.977   1
  -2  11  12 941.325 357.497   5
   2 -11 -12 1103.24 359.588   9
   2 -11 -11 618.829 255.317   9
   2 -11 -11 696.259 289.741   7
   2 -11 -11 322.780 254.595   8
  -2  11  11 659.687 306.898   5
  -2  11  11 157.934 190.727   1
   2 -11 -10 2738.61 495.039   8
  -2  11  10 2546.22 457.480   1
   2 -11 -10 3183.82 499.669   7
   2 -11 -10 2799.83 448.927   9
  -2  11  10 2852.57 538.190   5
  -2  11   9 68.1195 194.664   5
  -2  11   9 282.390 224.461   1
   2 -11  -9 203.309 199.679   8
   2 -11  -9 258.057 231.177   7
   2 -11  -9 52.1785 157.075   9
   2 -11  -8 959.397 236.784   9
   2 -11  -8 1035.46 307.329   7
  -2  11   8 1421.81 394.278   5
   2 -11  -8 1530.33 364.628   8
   2 -11  -7 1402.33 376.630   7
   2 -11  -7 1520.85 344.767   9
  -2  11   7 1096.66 338.764   5
   2 -11  -7 1249.59 337.469   8
  -2  11   7 1502.19 308.338   4
   2 -11  -6-116.160 176.662   8
   2 -11  -6 270.000 235.878   7
  -2  11   6 74.4675 217.947   5
   2 -11  -6-101.281 193.406   9
   2 -11  -5 958.461 317.732   7
  -2  11   5 505.301 232.250   5
   2 -11  -5 561.076 252.087   9
   2 -11  -5 394.530 237.397   8
   2 -11  -4 286.054 233.659   7
  -2  11   4 212.382 184.838   5
   2 -11  -4-305.516 198.648   9
   2 -11  -4 231.948 203.829   8
   2 -11  -3 817.750 282.898   9
   2 -11  -3 775.550 298.146   7
   2 -11  -3 378.117 197.450   8
  -2  11   3 25.1625 191.841   5
   2 -11  -2 3151.40 510.241   7
  -2  11   2 3149.89 519.786   5
   2 -11  -2 3342.40 492.290   8
   2 -11  -2 2750.79 412.345   9
   2 -11  -1 340.811 214.148   7
   2 -11  -1 367.630 253.950   9
   2 -11  -1 149.141 165.342   8
  -2  11   1 354.098 223.590   5
   2 -11   0 296.004 196.926   7
   2 -11   0 380.273 216.322   8
   2 -11   0 594.367 203.535   9
  -2  11   0 831.043 321.152   5
   2 -11   1 648.791 293.011   7
   2 -11   1 622.293 259.453   9
  -2  11  -1 938.163 339.279   5
   2 -11   1 780.251 300.169   8
   2 -11   2 304.114 176.684   8
   2 -11   2 416.190 263.831   9
   2 -11   2-153.204 193.762   7
  -2  11  -2 306.971 235.244   5
   2 -11   3 308.571 227.508   7
   2 -11   3 552.084 231.410   9
   2 -11   3-146.229 178.779   8
  -2  11  -3-124.302 154.434   5
   2 -11   4 872.067 360.580   7
   2 -11   4 815.038 282.805   8
  -2  11  -4 915.480 335.127   5
  -2  11  -5 518.036 256.492   5
   2 -11   5 465.135 215.429   7
   2 -11   5 569.842 267.449   8
   2 -11   6 272.518 236.355   7
   2 -11   6 240.009 193.305   8
  -2  11  -6 139.884 213.251   5
  -2  11  -7 727.042 266.417   5
  -2  11  -7 2009.39 419.748   6
  -2  11  -8 720.377 291.654   5
  -2  11  -8 1068.37 307.814   6
  -2  11  -9 520.227 268.014   6
  -2  10  14-259.193 225.537   1
  -2  10  14 47.1682 177.476   5
   2 -10 -13 3532.89 575.474   8
  -2  10  13 3981.02 626.745   5
  -2  10  13 3698.80 586.643   1
  -2  10  12 939.367 313.613   1
   2 -10 -12 1386.64 380.425   8
  -2  10  12 354.884 232.056   5
   2 -10 -12 778.031 258.297   7
   2 -10 -11 2436.21 483.982   8
   2 -10 -11 2643.84 454.422   7
  -2  10  11 2569.29 451.795   1
  -2  10  11 2122.50 471.224   5
   2 -10 -10 466.142 179.661   9
   2 -10 -10 232.005 187.029   7
   2 -10 -10 373.594 187.180   8
  -2  10  10 414.998 279.059   5
  -2  10  10 390.080 187.520   1
   2 -10  -9 5420.33 583.363   9
  -2  10   9 5242.97 589.654   1
  -2  10   9 5400.56 681.153   5
   2 -10  -9 5727.74 661.883   8
   2 -10  -9 6153.51 650.395   7
  -2  10   8 1831.35 358.664   1
   2 -10  -8 1818.93 356.043   7
   2 -10  -8 2433.94 419.473   8
   2 -10  -8 2054.29 361.468   9
  -2  10   8 2166.42 437.407   5
  -2  10   7 781.577 302.002   5
  -2  10   7 470.293 183.656   1
   2 -10  -7 556.262 227.668   7
   2 -10  -7 534.077 209.247   9
   2 -10  -7 244.701 201.836   8
  -2  10   6 1587.57 298.139   1
   2 -10  -6 1971.89 384.970   8
   2 -10  -6 1372.25 301.641   7
  -2  10   6 1655.83 373.127   5
   2 -10  -6 1509.30 305.657   9
   2 -10  -5-126.337 162.615   8
   2 -10  -5-0.53472 173.938   7
   2 -10  -5 79.9753 146.004   9
  -2  10   5 83.5268 176.787   5
   2 -10  -4 1076.56 316.983   8
   2 -10  -4 413.453 219.884   7
   2 -10  -4 822.047 226.687   9
  -2  10   4 600.832 259.672   5
   2 -10  -3 636.381 230.318   8
   2 -10  -3 844.611 259.098   7
   2 -10  -3 703.579 255.381   9
  -2  10   3 1060.17 302.828   5
   2 -10  -2 4026.66 535.517   7
  -2  10   2 4130.99 540.210   5
   2 -10  -2 4473.36 521.594   8
   2 -10  -2 4399.16 510.388   9
   2 -10  -1-281.180 197.622   9
  -2  10   1-112.413 155.915   5
   2 -10  -1 3.01859 150.187   7
   2 -10  -1 50.2181 129.443   8
   2 -10   0 16.7016 156.378   7
   2 -10   0 70.2879 149.964   9
  -2  10   0 32.3952 139.710   5
   2 -10   0 278.148 166.597   8
   2 -10   1 1719.37 346.099   7
   2 -10   1 1470.50 325.503   8
   2 -10   1 1852.09 368.429   9
  -2  10  -1 1823.50 372.089   5
   2 -10   2 478.830 232.025   7
   2 -10   2 764.509 257.725   8
  -2  10  -2 810.594 285.956   5
   2 -10   2 775.049 266.622   9
  -2  10  -3 2691.32 394.725   6
   2 -10   3 2768.04 465.348   7
   2 -10   3 2886.61 436.077   8
   2 -10   3 2464.11 404.594   9
  -2  10  -3 2794.61 445.837   5
  -2  10  -4 1048.02 309.191   5
   2 -10   4 646.938 270.048   7
  -2  10  -4 420.668 186.688   6
   2 -10   4 715.470 265.699   8
  -2  10  -5-303.751 240.614   5
   2 -10   5-81.0675 182.466   7
  -2  10  -5-67.1037 142.284   6
   2 -10   5 67.8916 160.008   8
   2 -10   6 105.270 204.667   7
  -2  10  -6-118.563 171.745   6
   2 -10   6 234.105 180.723   8
  -2  10  -6-111.677 168.589   5
   2 -10   7 2142.20 408.221   8
  -2  10  -7 1913.58 394.041   5
  -2  10  -7 2199.74 449.219   6
  -2  10  -8 367.592 202.647   5
  -2  10  -8 200.809 227.323   6
   2 -10   8 294.966 241.153   8
  -2  10  -9 230.137 200.201   6
  -2  10  -9 403.592 213.576   5
   2 -10   9 312.720 190.605   8
  -2  10 -10 1021.38 350.826   6
  -2   9  15 617.863 307.674   1
  -2   9  15 496.924 315.482   5
  -2   9  14-43.6304 234.215   1
  -2   9  14 379.729 240.845   5
  -2   9  13-177.591 177.464   5
  -2   9  13 330.946 232.142   1
  -2   9  12 397.918 259.847   1
  -2   9  12 273.256 182.152   5
   2  -9 -12 374.358 194.032   7
   2  -9 -11 522.731 271.983   8
   2  -9 -11 413.681 194.230   7
  -2   9  11 481.021 246.854   1
  -2   9  11 456.644 263.995   5
  -2   9  10 3360.23 478.969   1
  -2   9  10 3465.55 539.328   5
   2  -9 -10 3773.92 494.894   7
   2  -9 -10 3959.87 555.352   8
   2  -9  -9 3110.94 496.143   8
  -2   9   9 2897.63 442.157   1
   2  -9  -9 2917.80 429.149   7
  -2   9   9 3071.45 511.761   5
   2  -9  -8 911.599 247.819   8
   2  -9  -8 1219.90 314.712   7
  -2   9   8 872.079 248.626   1
  -2   9   8 393.385 186.698   5
   2  -9  -8 966.845 260.003   9
   2  -9  -7 2247.98 354.918   9
   2  -9  -7 2226.34 377.205   7
  -2   9   7 1961.76 350.268   1
   2  -9  -7 2182.46 403.424   8
  -2   9   7 2090.05 406.900   5
   2  -9  -6 33.8767 159.273   8
   2  -9  -6 5.66733 121.144   7
  -2   9   6 70.8068 124.381   1
   2  -9  -6 172.670 171.662   9
  -2   9   6-17.2420 189.477   5
  -2   9   5 2805.87 352.828   1
   2  -9  -5 2973.55 427.125   7
   2  -9  -5 3449.43 470.487   8
  -2   9   5 3294.64 468.259   5
   2  -9  -5 2404.15 358.994   9
   2  -9  -4 1289.01 298.261   8
  -2   9   4 1351.89 235.040   1
   2  -9  -4 1416.67 297.304   7
  -2   9   4 1658.13 373.903   5
   2  -9  -4 1608.00 300.189   9
  -2   9   3 12326.1 890.677   5
  -2   9   3 13010.1 649.413   1
   2  -9  -3 12617.6 839.056   8
   2  -9  -3 13125.0 863.163   7
   2  -9  -3 13740.9 819.700   9
   2  -9  -2 2850.51 423.953   7
  -2   9   2 3327.58 464.352   5
   2  -9  -2 3022.07 419.281   8
   2  -9  -2 3027.48 383.020   9
  -2   9   1 726.879 252.213   5
   2  -9  -1 898.091 238.634   8
   2  -9  -1 656.407 173.407   9
   2  -9  -1 439.116 180.867   7
   2  -9   0 3603.46 456.253   8
  -2   9   0 3688.95 491.606   5
   2  -9   0 3489.86 469.982   7
   2  -9   0 3401.96 418.601   9
   2  -9   1 1984.44 365.574   7
   2  -9   1 2269.72 343.574   9
  -2   9  -1 2269.34 384.890   5
   2  -9   1 2188.09 357.876   8
  -2   9  -1 2274.78 313.122   6
   2  -9   2 1926.86 335.862   9
   2  -9   2 2163.63 390.306   7
  -2   9  -2 2893.84 374.159   6
  -2   9  -2 2697.93 420.694   5
   2  -9   2 2534.23 406.836   8
   2  -9   3 845.117 294.786   8
   2  -9   3 275.620 198.812   7
   2  -9   3 1319.10 310.689   9
  -2   9  -3 677.556 194.621   6
  -2   9  -3 1017.84 274.555   5
  -2   9  -4 1157.88 267.041   6
  -2   9  -4 976.671 280.851   5
   2  -9   4 793.172 272.821   7
   2  -9   4 1132.96 271.119   8
  -2   9  -5 755.188 229.206   6
  -2   9  -5 951.185 282.533   5
   2  -9   5 1300.53 350.088   7
   2  -9   5 788.946 239.763   8
   2  -9   6 287.454 252.350   7
  -2   9  -6 787.927 237.679   6
  -2   9  -6 356.874 200.610   5
   2  -9   6 457.125 202.338   8
  -2   9  -7 20.1772 139.041   5
   2  -9   7-135.221 172.697   8
  -2   9  -7 149.403 167.757   6
  -2   9  -8 262.395 235.319   6
  -2   9  -8-166.642 181.659   5
   2  -9   8 483.876 248.006   8
   2  -9   9 768.595 290.362   8
  -2   9  -9 995.393 302.851   5
  -2   9  -9 1551.28 379.380   6
  -2   9 -10 743.943 259.819   5
  -2   9 -10 710.625 304.941   6
  -2   9 -11-177.363 255.923   6
  -2   9 -11 726.118 302.524   5
  -2   8  16 562.088 252.001   1
  -2   8  15 451.503 245.875   1
  -2   8  15 706.134 326.554   5
  -2   8  14 72.6498 189.003   1
  -2   8  14-125.201 153.998   5
  -2   8  13 649.908 273.128   5
   2  -8 -13 878.285 223.429   7
  -2   8  13 974.265 303.335   1
   2  -8 -12 2463.75 388.057   7
  -2   8  12 1943.60 399.178   1
   2  -8 -12 2261.39 333.700  11
  -2   8  12 1862.41 409.266   5
  -2   8  11 1208.49 338.376   1
   2  -8 -11 1077.22 253.603   7
   2  -8 -11 1044.24 245.485  11
  -2   8  11 1249.31 326.631   5
  -2   8  10 843.118 289.089   1
   2  -8 -10 880.115 259.178   7
   2  -8 -10 1901.51 306.893  11
  -2   8  10 1152.65 322.026   5
  -2   8   9 1311.05 288.473   1
   2  -8  -9 1392.45 277.737   7
  -2   8   9 1473.38 358.247   5
   2  -8  -9 1352.00 309.991   8
   2  -8  -8 761.269 259.098   8
  -2   8   8 1026.88 263.194   1
  -2   8   8 1000.41 279.074   5
   2  -8  -8 1048.92 250.945   7
   2  -8  -8 1998.51 254.353  11
   2  -8  -7 78.3024 176.014   8
   2  -8  -7 289.324 166.416   7
  -2   8   7 139.627 131.438   1
   2  -8  -7 284.202 133.001  11
   2  -8  -7 67.8336 121.478   9
  -2   8   7-104.710 183.553   5
   2  -8  -6 640.776 204.219   7
  -2   8   6 517.174 181.538   1
  -2   8   6 670.761 226.562   5
   2  -8  -6 688.870 194.566   9
   2  -8  -6 215.477 78.1833  11
   2  -8  -6 1163.02 276.387   8
   2  -8  -5 442.289 203.149   8
   2  -8  -5 509.733 192.611   7
  -2   8   5 675.997 191.212   1
  -2   8   5 391.637 188.234   5
   2  -8  -5 413.565 195.450   9
   2  -8  -4 4351.09 469.680   7
   2  -8  -4 3905.96 403.295   9
  -2   8   4 3560.95 459.743   5
   2  -8  -4 4168.03 481.912   8
  -2   8   4 3291.73 363.907   1
   2  -8  -3 91.0776 135.681   8
   2  -8  -3 122.825 119.915   7
  -2   8   3 169.449 100.565   1
  -2   8   3-111.474 172.099   5
   2  -8  -3-93.8185 110.847   9
   2  -8  -2 4136.55 457.446   8
   2  -8  -2 3645.69 461.073   7
   2  -8  -2 3923.01 410.573   9
  -2   8   2 4138.87 334.301   1
  -2   8   2 3898.94 475.952   5
  -2   8   1 5962.37 344.266   1
   2  -8  -1 5849.04 566.290   7
   2  -8  -1 5984.31 534.576   8
   2  -8  -1 6150.68 506.232   9
  -2   8   1 5700.39 562.310   5
  -2   8   0 6406.82 303.298   1
  -2   8   0 5674.67 561.951   5
   2  -8   0 6283.92 523.247   9
   2  -8   0 5508.54 548.580   7
   2  -8   0 6246.60 540.041   8
  -2   8  -1 1445.28 298.252   5
  -2   8  -1 1340.19 233.991   6
   2  -8   1 1500.60 278.422   9
   2  -8   1 1396.14 296.142   8
   2  -8   1 1119.43 257.421   7
   2  -8   2 5401.35 501.779   9
  -2   8  -2 5431.07 473.428   6
  -2   8  -2 4717.27 525.564   5
   2  -8   2 4502.39 518.805   7
   2  -8   2 4469.22 477.750   8
   2  -8   3 6862.71 639.087   7
   2  -8   3 6230.85 565.799   8
   2  -8   3 5973.43 531.346   9
  -2   8  -3 6294.15 534.036   6
  -2   8  -3 5691.15 575.994   5
   2  -8   4 342.416 210.431   7
  -2   8  -4 397.905 196.281   5
  -2   8  -4 97.4589 134.931   6
   2  -8   4 402.925 190.984   8
   2  -8   5-20.9395 147.646   7
  -2   8  -5 79.2219 146.302   5
   2  -8   5-20.7489 115.668   8
  -2   8  -5-7.98438 119.183   6
  -2   8  -6 5.77088 118.398   6
   2  -8   6 1.31864 172.425   7
  -2   8  -6 244.789 186.853   5
   2  -8   6-71.6799 140.166   8
  -2   8  -7 1795.70 361.440   5
  -2   8  -7 2194.62 391.248   6
   2  -8   7 1657.99 348.868   8
  -2   8  -8 2507.08 438.856   6
  -2   8  -8 2544.90 415.297   5
   2  -8   8 1562.66 369.102   8
   2  -8   9 990.603 269.498   8
  -2   8  -9 1124.54 299.158   6
  -2   8  -9 1079.78 295.602   5
  -2   8 -10 2493.55 453.675   6
  -2   8 -10 2468.77 414.101   5
  -2   8 -11-216.924 282.341   6
  -2   8 -11-1.18687 150.791   5
  -2   8 -12 1046.71 299.747   5
  -2   8 -12 1196.06 365.499   6
  -2   8 -13 576.628 262.113   4
  -2   8 -13 112.017 193.595   6
  -2   8 -14-339.135 236.276   4
   2  -7 -18-627.571 437.456  11
   2  -7 -17 878.801 224.509  11
  -2   7  16 43.5469 201.100   1
   2  -7 -16-584.630 341.547  11
  -2   7  15 2006.66 449.159   1
   2  -7 -15 1296.80 246.060  11
   2  -7 -14-421.496 301.491  11
  -2   7  14 17.8088 150.459   1
  -2   7  14-107.814 177.245   5
   2  -7 -13 5322.09 569.795   7
  -2   7  13 4699.90 636.220   1
  -2   7  13 4255.75 578.225   5
   2  -7 -13 4995.65 518.942  11
   2  -7 -12 1760.91 283.806  11
  -2   7  12 2412.86 445.609   1
   2  -7 -12 2497.38 370.466   7
  -2   7  12 2350.92 436.181   5
   2  -7 -11 4656.78 496.463   7
  -2   7  11 4004.86 543.803   1
  -2   7  11 3800.81 526.306   5
   2  -7 -11 3451.65 395.605  11
  -2   7  10 2336.52 404.372   1
   2  -7 -10 3486.31 371.457  11
   2  -7 -10 2870.17 387.474   7
  -2   7  10 2514.85 420.447   5
   2  -7  -9 346.300 131.868  11
  -2   7   9 400.402 164.600   1
   2  -7  -9 235.221 146.085   7
  -2   7   9 390.009 219.004   5
   2  -7  -8 134.502 124.887  11
   2  -7  -8-40.7184 134.615   7
  -2   7   8-191.646 210.826   5
  -2   7   8 165.674 126.106   1
   2  -7  -7 7887.51 448.788  11
  -2   7   7 6493.73 622.182   5
  -2   7   7 6791.74 571.387   1
   2  -7  -7 7083.52 566.862   7
   2  -7  -7 7254.35 616.947   8
   2  -7  -6 2700.44 406.162   8
   2  -7  -6 3225.42 372.896   7
   2  -7  -6 3116.69 145.800   6
  -2   7   6 3122.89 369.775   1
   2  -7  -6 3522.31 264.488  11
  -2   7   6 3440.54 432.769   5
   2  -7  -5 734.334 208.533   7
  -2   7   5 709.928 175.140   1
   2  -7  -5 763.618 130.759  10
  -2   7   5 560.476 217.650   5
   2  -7  -5 687.773 212.933   8
   2  -7  -5 591.541 160.234   9
   2  -7  -5 768.355 83.0712   6
   2  -7  -5 626.048 94.5279  11
   2  -7  -4 333.213 188.195   8
   2  -7  -4 17.8905 131.702   7
  -2   7   4 378.615 141.164   1
   2  -7  -4 149.076 49.2114   6
   2  -7  -4 228.779 69.7512  10
  -2   7   4 164.561 182.118   5
   2  -7  -4 266.409 133.335   9
  -2   7   3 3216.48 405.495   5
   2  -7  -3 2506.65 341.210   7
  -2   7   3 2884.69 310.462   1
   2  -7  -3 3045.98 332.365   9
   2  -7  -3 3411.28 406.480   8
   2  -7  -3 2155.60 123.873  10
   2  -7  -2 1824.71 298.594   8
  -2   7   2 1609.29 293.616   5
  -2   7   2 1552.67 198.772   1
   2  -7  -2 1736.83 301.281   7
   2  -7  -2 1667.62 254.133   9
   2  -7  -1 1262.85 219.893   9
  -2   7   1 1024.79 150.025   1
  -2   7   1 1131.13 236.724   5
   2  -7  -1 1100.42 234.202   8
   2  -7  -1 1479.29 280.715   7
  -2   7   0 7393.60 589.872   5
   2  -7   0 6802.90 563.794   7
  -2   7   0 6668.66 305.298   1
   2  -7   0 6780.53 402.341   2
   2  -7   0 6392.56 524.452   8
   2  -7   0 6520.31 478.312   9
  -2   7  -1 984.905 242.447   5
  -2   7  -1 925.305 101.603  11
  -2   7  -1 961.058 186.006   6
  -2   7  -1 857.468 106.124  11
  -2   7  -1 649.520 71.2557   1
   2  -7   1 1052.16 263.254   7
   2  -7   1 941.959 149.503   2
   2  -7   1 978.414 206.624   9
   2  -7   1 901.791 198.545   8
   2  -7   2 10870.5 726.622   7
   2  -7   2 10697.4 402.497   2
  -2   7  -2 11090.7 638.098   6
  -2   7  -2 10286.7 391.922  11
  -2   7  -2 10296.0 713.890   5
   2  -7   2 10512.9 635.516   9
   2  -7   2 11173.6 679.609   8
   2  -7   3-119.597 160.320   7
  -2   7  -3 80.1872 73.0956  11
   2  -7   3 136.102 40.6520   2
  -2   7  -3-31.5631 121.699   6
  -2   7  -3 22.4139 123.636   5
   2  -7   3 249.936 169.507   9
   2  -7   3 178.786 148.756   8
  -2   7  -4 82.5495 85.5028  11
  -2   7  -4 261.595 168.994   6
  -2   7  -4 101.576 132.007   5
   2  -7   4 100.264 157.212   7
   2  -7   4 183.906 144.018   8
  -2   7  -5 4875.80 387.840  11
  -2   7  -5 4708.31 502.135   5
  -2   7  -5 5409.44 530.988   6
   2  -7   5 4492.52 475.966   8
   2  -7   5 5417.98 569.115   7
   2  -7   6 2854.80 442.979   7
  -2   7  -6 3256.89 444.413   5
  -2   7  -6 3338.69 455.891   6
   2  -7   6 3041.10 409.856   8
  -2   7  -6 3200.61 344.721  11
  -2   7  -7 1426.80 319.360   6
  -2   7  -7 1127.22 230.913  11
  -2   7  -7 1188.61 280.039   5
   2  -7   7 1398.73 302.276   8
  -2   7  -8-203.596 163.814   5
  -2   7  -8 286.263 174.224  11
   2  -7   8 562.026 258.632   8
  -2   7  -8 95.5105 118.904   6
  -2   7  -9 8837.70 676.143  11
  -2   7  -9 8586.57 773.919   6
   2  -7   9 7700.86 743.247   8
  -2   7  -9 9479.45 758.251   5
  -2   7 -10 4707.27 610.825   6
  -2   7 -10 5271.75 567.259  11
  -2   7 -10 4708.77 554.284   5
  -2   7 -11 1561.54 329.949   5
  -2   7 -11 1666.29 280.307  11
  -2   7 -11 2410.44 473.498   6
  -2   7 -12-353.251 233.914  11
  -2   7 -12 375.302 217.691   5
  -2   7 -12 365.673 277.239   6
  -2   7 -13 1271.68 393.041   6
  -2   7 -13 1014.22 312.529  11
  -2   7 -13 1383.15 351.156   5
  -2   7 -14 406.104 279.852   6
  -2   7 -14 331.202 225.253  11
  -2   7 -14 352.978 251.928   4
  -2   7 -15 619.156 294.253  11
  -2   7 -15 673.940 307.645   4
   2  -6 -18-165.304 206.460  11
   2  -6 -17 1586.63 372.950  11
  -2   6  16 569.597 291.153   1
   2  -6 -16 572.563 259.456  11
  -2   6  15 878.365 353.049   1
   2  -6 -15 989.396 257.239  11
  -2   6  14 982.607 334.192   1
   2  -6 -14 1103.83 298.348  11
  -2   6  13 2929.34 495.708   1
   2  -6 -13 3158.23 426.655  11
   2  -6 -13 3380.46 433.022   7
  -2   6  13 2933.21 457.807   5
  -2   6  12 1098.15 321.409   1
  -2   6  12 1264.63 320.391   5
   2  -6 -12 1625.53 314.730   7
   2  -6 -12 1638.84 314.713  11
  -2   6  11 844.744 278.749   1
   2  -6 -11 551.935 175.275   7
   2  -6 -11 892.542 229.303  11
  -2   6  11 650.819 199.164   5
   2  -6 -10 271.393 134.740  11
  -2   6  10 339.281 182.676   5
   2  -6 -10 34.2429 136.567   7
  -2   6  10 340.439 196.384   1
  -2   6   9 43.9996 138.615   5
  -2   6   9 36.3533 143.614   1
   2  -6  -9 81.4773 127.348  11
   2  -6  -9 317.237 143.147   7
   2  -6  -8 4292.20 420.787   7
  -2   6   8 3378.95 417.594   1
   2  -6  -8 3977.85 333.755  11
  -2   6   8 4038.66 460.698   5
  -2   6   7 6209.02 551.093   5
   2  -6  -7 6052.20 477.484   7
  -2   6   7 6287.32 528.662   1
   2  -6  -7 6821.93 415.169  11
   2  -6  -6 203.777 110.673  11
   2  -6  -6 139.681 121.234   7
  -2   6   6 215.302 140.568   1
   2  -6  -6 57.8054 117.113   8
  -2   6   6 190.570 151.639   5
   2  -6  -5 648.369 126.153  10
   2  -6  -5 640.086 180.590   7
   2  -6  -5 684.521 180.320   8
  -2   6   5 608.432 206.255   5
   2  -6  -5 692.078 120.206  11
  -2   6   5 467.240 144.076   1
   2  -6  -5 686.542 89.2091   6
   2  -6  -4 3924.67 375.384   7
   2  -6  -4 4675.10 241.610   6
   2  -6  -4 4985.27 234.424  11
  -2   6   4 4375.31 443.171   5
  -2   6   4 4190.10 356.073   1
   2  -6  -4 4230.84 357.535   9
   2  -6  -4 4748.16 282.020  10
   2  -6  -4 4572.69 438.431   8
   2  -6  -3 5628.19 282.986   6
  -2   6   3 5165.17 475.391   5
   2  -6  -3 4477.09 406.352   7
   2  -6  -3 5019.05 460.045   8
  -2   6   3 5218.66 380.922   1
   2  -6  -3 5199.90 391.275   9
   2  -6  -3 5201.06 245.731  10
   2  -6  -2 1478.72 257.211   8
  -2   6   2 1230.44 230.561   5
  -2   6   2 1538.42 196.143   1
   2  -6  -2 1404.97 236.872   7
   2  -6  -2 1810.59 177.839   6
   2  -6  -2 1346.23 207.245   9
   2  -6  -1 11920.9 661.904   7
   2  -6  -1 13384.0 523.572   6
   2  -6  -1 12194.7 670.390   8
  -2   6   1 11696.0 698.198   5
  -2   6   1 12083.5 471.467   1
   2  -6  -1 11886.3 586.764   9
   2  -6   0 18825.1 852.193   7
   2  -6   0 20520.7 649.087   2
  -2   6   0 19808.8 515.127   1
  -2   6   0 19182.6 883.924   5
   2  -6   0 18983.8 739.365   9
   2  -6   0 18829.0 829.934   8
   2  -6   1 4479.71 380.427   9
   2  -6   1 4578.52 443.247   7
  -2   6  -1 4172.79 188.827  11
  -2   6  -1 4591.69 369.748   6
  -2   6  -1 3856.77 413.826   5
   2  -6   1 4157.90 396.110   8
   2  -6   1 4767.14 285.612   2
  -2   6  -1 4057.95 174.396   1
   2  -6   2 885.373 109.430   2
  -2   6  -2 742.927 104.293  11
  -2   6  -2 701.319 197.083   5
   2  -6   2 672.750 211.852   7
   2  -6   2 756.832 185.960   9
  -2   6  -2 878.368 177.811   6
   2  -6   2 888.520 206.534   8
   2  -6   3 72.4629 106.413   9
   2  -6   3 26.0769 18.9196   2
  -2   6  -3-97.6454 109.364   6
  -2   6  -3 99.9170 79.3157  11
   2  -6   3-108.082 127.623   8
  -2   6  -3 148.667 101.875   5
  -2   6  -3 38.0195 32.5888  10
   2  -6   3 0.24234 136.225   7
  -2   6  -4 160.308 106.693  11
  -2   6  -4 100.915 140.237   5
  -2   6  -4 111.365 116.646   6
   2  -6   4 222.942 146.373   7
  -2   6  -4 164.623 55.7897  10
   2  -6   4 45.1795 126.165   8
   2  -6   5 364.983 141.821   7
  -2   6  -5 511.593 112.751  10
  -2   6  -5 944.501 251.496   6
  -2   6  -5 525.502 194.209   5
  -2   6  -5 423.735 113.383  11
   2  -6   5 564.709 188.504   8
  -2   6  -6 245.427 177.211   6
  -2   6  -6-111.755 118.570   5
  -2   6  -6 30.9933 113.290  11
   2  -6   6-54.6160 112.618   8
   2  -6   7 576.076 218.394   3
   2  -6   7 459.872 204.162   8
  -2   6  -7 799.566 233.628   5
  -2   6  -7 487.178 157.465   6
  -2   6  -7 604.885 194.315  11
  -2   6  -8 1044.69 228.810   6
   2  -6   8 1764.16 348.918   3
  -2   6  -8 2125.15 329.082  11
  -2   6  -8 1369.30 274.652   5
   2  -6   8 1548.47 302.921   8
   2  -6   9 4321.02 552.075   3
  -2   6  -9 4434.31 471.678  11
  -2   6  -9 4585.48 557.474   6
   2  -6   9 3261.34 503.870   8
  -2   6 -10 292.060 109.604  11
  -2   6 -10 421.950 213.842   6
   2  -6  10 709.036 253.348   3
  -2   6 -11 2483.68 388.576  11
   2  -6  11 2851.34 484.477   3
  -2   6 -11 2255.67 422.709   6
   2  -6  12 1805.61 398.585   3
  -2   6 -12 1395.87 354.965   6
  -2   6 -12 1867.15 361.124  11
   2  -6  13 308.780 238.584   3
  -2   6 -13 207.174 229.842  11
  -2   6 -13-346.208 268.297   6
  -2   6 -14 1054.84 395.142   6
  -2   6 -14 1226.02 353.179  11
  -2   6 -15 983.401 317.090   6
  -2   6 -15 1638.52 409.238  11
  -2   6 -15 1620.08 400.138   4
  -2   6 -16 995.611 360.192  11
   2  -5 -18 1361.88 396.004  11
   2  -5 -17-80.9749 210.914  11
  -2   5  17-57.8391 224.309   1
   2  -5 -16 653.004 266.251  11
  -2   5  16 1038.41 355.505   1
   2  -5 -15 1390.91 328.914  11
  -2   5  15 979.096 324.531   1
  -2   5  14 2337.82 454.780   1
   2  -5 -14 2074.58 367.248  11
  -2   5  13 540.667 258.087   1
   2  -5 -13 1264.87 300.756  11
   2  -5 -12 197.444 158.289  11
  -2   5  12-177.645 178.463   5
  -2   5  12 235.867 222.727   1
  -2   5  11 950.455 282.587   1
   2  -5 -11 1295.81 266.708  11
  -2   5  11 1283.96 301.261   5
   2  -5 -10 35.6273 113.216  11
  -2   5  10 12.6026 135.168   1
  -2   5  10 50.3431 149.724   5
   2  -5  -9 8726.71 570.176   7
  -2   5   9 8780.58 662.836   5
  -2   5   9 8476.55 680.889   1
  -2   5   9 8183.12 337.397   3
   2  -5  -9 8595.98 556.320  11
  -2   5   8 4150.35 444.405   5
   2  -5  -8 3918.96 368.164   7
   2  -5  -8 4578.05 386.636  11
  -2   5   8 4183.47 441.212   1
   2  -5  -7 210.934 102.417  11
  -2   5   7 10.8036 118.249   1
   2  -5  -7-32.8892 97.1325   7
  -2   5   7 65.0467 113.786   5
  -2   5   6 12014.5 680.071   1
  -2   5   6 11995.8 698.208   5
   2  -5  -6 11925.7 611.233   7
   2  -5  -6 12759.4 522.678  11
  -2   5   5 3909.41 370.402   1
   2  -5  -5 4568.35 373.720   7
   2  -5  -5 4356.00 446.068   8
   2  -5  -5 4478.94 336.438  10
   2  -5  -5 4386.21 274.589  11
  -2   5   5 4557.71 429.700   5
  -2   5   4 3823.18 395.990   5
   2  -5  -4 4184.93 290.809  10
  -2   5   4 3940.95 274.112   3
   2  -5  -4 4092.76 351.403   7
  -2   5   4 3774.22 343.394   1
   2  -5  -4 4199.96 231.930  11
   2  -5  -4 4270.28 408.052   8
  -2   5   3-74.8088 71.1683   3
   2  -5  -3-42.5778 91.1095   7
  -2   5   3-34.6244 137.711   5
   2  -5  -3 275.837 68.3899  11
   2  -5  -3-120.602 109.272   9
   2  -5  -3 152.003 132.937   8
   2  -5  -3 72.8863 57.0936   6
  -2   5   3 75.2028 93.6976   1
   2  -5  -3-18.7541 60.1681  10
  -2   5   2 2302.73 292.855   5
   2  -5  -2 3283.94 318.754   7
   2  -5  -2 3093.58 176.752  10
   2  -5  -2 3430.48 228.098   6
  -2   5   2 3305.34 274.183   3
   2  -5  -2 3429.62 345.171   8
  -2   5   2 3433.86 266.395   1
   2  -5  -2 3029.04 270.232   9
   2  -5  -2 3328.28 273.823   1
   2  -5  -1 6084.22 428.899   7
  -2   5   1 6220.08 480.258   5
   2  -5  -1 7175.88 363.758   6
   2  -5  -1 7201.67 408.605   2
   2  -5  -1 7017.74 474.314   8
   2  -5  -1 6667.10 398.969   9
  -2   5   1 6912.47 338.722   1
   2  -5  -1 7289.49 346.176   1
   2  -5   0-32.6895 128.956   8
   2  -5   0 18.9797 99.0458   7
  -2   5   0 99.0177 114.128   5
   2  -5   0 64.5046 69.9076   6
   2  -5   0 87.7195 76.4110   9
  -2   5   0 114.326 95.9801   9
  -2   5   0 87.5348 45.6131   1
   2  -5   0 121.703 82.3276   2
  -2   5  -1 2315.91 135.250   1
  -2   5  -1 2178.75 317.714   5
   2  -5   1 2618.17 196.906   2
   2  -5   1 2696.77 305.339   7
  -2   5  -1 2559.85 273.233   6
   2  -5   1 2507.67 259.745   9
  -2   5  -1 2144.14 119.282  11
   2  -5   1 2430.22 281.339   8
   2  -5   2 8277.79 555.258   7
   2  -5   2 9144.49 300.421   2
  -2   5  -2 7770.82 212.488  10
  -2   5  -2 9587.23 527.268   6
  -2   5  -2 8528.71 310.732  11
   2  -5   2 8912.06 541.526   8
  -2   5  -2 8918.08 579.583   5
   2  -5   2 8163.25 461.260   9
  -2   5  -3 371.557 92.5467  11
   2  -5   3 352.507 159.738   7
   2  -5   3 90.2123 121.392   3
  -2   5  -3 280.714 118.977   6
  -2   5  -3 236.012 57.3226  10
  -2   5  -3 126.976 135.655   5
   2  -5   3 106.518 84.2951   9
   2  -5   3 168.613 93.4024   8
   2  -5   4 496.638 177.566   7
   2  -5   4 639.960 175.078   3
  -2   5  -4 863.494 150.733  11
  -2   5  -4 725.105 202.309   6
  -2   5  -4 739.112 120.172  10
  -2   5  -4 583.492 195.284   5
   2  -5   4 877.526 198.999   8
   2  -5   5 324.522 155.016   3
  -2   5  -5 808.058 215.326   6
  -2   5  -5 287.562 114.928  11
   2  -5   5 474.434 180.995   7
  -2   5  -5 447.719 111.593  10
  -2   5  -5 559.403 171.873   5
   2  -5   5 662.616 187.048   8
   2  -5   6 6117.41 536.538   3
  -2   5  -6 6871.55 466.373  11
  -2   5  -6 6178.46 522.774   6
   2  -5   6 6197.14 491.863   8
  -2   5  -7 1376.31 282.078   6
  -2   5  -7 2080.21 299.230  11
   2  -5   7 1896.74 322.348   3
   2  -5   7 1333.67 265.392   8
  -2   5  -8 3231.07 429.413   6
  -2   5  -8 3326.00 377.546  11
   2  -5   8 2300.74 372.951   8
   2  -5   8 3396.88 445.273   3
   2  -5   9 285.658 198.635   3
   2  -5   9 84.3230 49.0309   1
  -2   5  -9-89.1882 193.390  11
  -2   5  -9 437.324 213.164   6
  -2   5 -10 298.833 196.543   6
   2  -5  10 404.616 201.509   3
  -2   5 -10 471.578 119.838  11
   2  -5  11 655.879 224.847   3
  -2   5 -11 774.378 241.052   6
  -2   5 -11 433.771 150.791  11
  -2   5 -12-59.7533 133.038  11
   2  -5  12 56.6869 177.812   3
  -2   5 -12-89.7235 176.987   6
   2  -5  13 1201.39 333.475   3
  -2   5 -13 1080.83 319.544   6
  -2   5 -13 657.930 223.890  11
  -2   5 -14 1309.54 350.254  11
  -2   5 -14 1264.08 325.780   6
   2  -5  14 1205.95 368.706   3
   2  -5  15 1098.77 337.227   3
  -2   5 -15 1101.69 345.296   6
  -2   5 -15 1167.59 307.949   4
  -2   5 -15 880.927 298.550  11
  -2   5 -16 24.6145 251.378   6
   2  -5  16 708.539 313.723   3
  -2   5 -16 321.498 227.325  11
  -2   5 -17 883.868 335.120  11
   2  -4 -18 1488.76 395.900  11
   2  -4 -17-29.1840 180.601  11
  -2   4  17-130.206 199.260   1
   2  -4 -16 623.537 333.754  11
  -2   4  16 644.011 273.631   1
   2  -4 -15 12372.8 937.775  11
   2  -4 -15 12678.8 834.436   6
  -2   4  15 11975.7 1018.87   1
  -2   4  14 1750.56 381.976   1
   2  -4 -14 1405.25 331.557  11
  -2   4  13 3486.94 518.432   1
   2  -4 -13 4286.06 492.501  11
  -2   4  12 838.706 290.740   1
   2  -4 -12 988.877 246.355  11
  -2   4  11 973.742 273.326   1
  -2   4  11 1007.59 250.704   5
   2  -4 -11 1173.10 243.564  11
  -2   4  10 236.706 168.159   5
  -2   4  10 87.5788 147.550   1
  -2   4  10 90.0791 59.7967   3
   2  -4 -10 114.111 122.367  11
  -2   4   9 9009.32 337.990   3
  -2   4   9 8162.57 626.420   1
   2  -4  -9 9286.85 593.278  11
  -2   4   9 8134.06 588.728   5
  -2   4   9 8651.03 260.476   4
  -2   4   8 3578.48 196.919   3
  -2   4   8 3570.35 391.465   5
  -2   4   8 2979.26 376.750   1
   2  -4  -8 3701.09 353.700  11
  -2   4   7 7366.99 528.526   5
   2  -4  -7 7394.77 448.130   7
  -2   4   7 7688.99 561.130   1
   2  -4  -7 7646.95 462.629  11
   2  -4  -6 4882.34 360.960   7
   2  -4  -6 5317.85 351.792  11
  -2   4   6 4690.18 416.424   1
  -2   4   6 4604.81 410.521   5
   2  -4  -5 10098.4 491.512   7
  -2   4   5 10239.3 498.391  10
   2  -4  -5 10184.7 430.315  11
  -2   4   5 10556.4 588.936   5
  -2   4   5 9711.70 562.923   1
   2  -4  -4 354.869 167.897   8
   2  -4  -4 376.564 84.7529  11
  -2   4   4 529.932 87.6829   3
  -2   4   4 555.386 132.094  10
  -2   4   4 433.910 127.046   1
  -2   4   4 662.731 173.410   5
   2  -4  -4 556.173 135.151   7
   2  -4  -4 441.074 110.288  10
  -2   4   3 3068.90 200.467   3
   2  -4  -3 3156.92 274.818   7
  -2   4   3 3085.92 276.082   7
   2  -4  -3 3042.07 315.741   8
  -2   4   3 2783.94 304.140   5
   2  -4  -3 3202.79 232.976  10
  -2   4   3 2994.75 223.710  10
  -2   4   3 2793.24 268.813   1
   2  -4  -3 3040.95 172.873  11
   2  -4  -2 10272.9 424.264   9
   2  -4  -2 11586.8 478.868   1
   2  -4  -2 12037.4 427.478   6
  -2   4   2 10437.4 555.268   5
  -2   4   2 11391.9 360.818  10
  -2   4   2 11912.5 521.493   7
  -2   4   2 11163.4 416.901   3
   2  -4  -2 10337.1 489.012   7
  -2   4   2 10632.3 464.565   1
   2  -4  -2 10402.9 557.445   8
   2  -4  -2 11276.0 373.652  10
   2  -4  -1 45.0699 121.289   8
   2  -4  -1 66.0079 101.686   7
  -2   4   1 113.675 73.8662   3
  -2   4   1 139.897 92.7408   7
  -2   4   1 126.984 51.2789  10
   2  -4  -1 22.4650 54.6799   6
   2  -4  -1 70.0440 52.6472   1
  -2   4   1 125.558 62.0361   1
   2  -4  -1 80.5595 48.7762  10
   2  -4  -1 43.7192 66.0776   9
  -2   4   1 131.590 116.972   5
   2  -4   0 6576.27 339.724   9
   2  -4   0 6906.08 408.452   7
   2  -4   0 6915.62 358.978   6
  -2   4   0 7171.42 354.588   9
   2  -4   0 6945.88 444.695   8
  -2   4   0 6475.09 448.918   5
  -2   4   0 7129.11 297.017   1
  -2   4   0 6334.32 181.271  10
   2  -4   0 7520.90 351.349   2
   2  -4   0 7137.27 286.243   1
  -2   4   0 7273.52 394.844   3
  -2   4  -1 9643.41 468.627   6
   2  -4   1 9272.70 503.973   7
  -2   4  -1 9546.46 541.475   5
  -2   4  -1 8955.24 219.257  10
   2  -4   1 10299.0 360.387   2
   2  -4   1 9517.88 483.157   3
  -2   4  -1 8908.53 209.455  11
   2  -4   1 9376.36 419.787   9
  -2   4  -1 10458.8 444.906   9
   2  -4   1 10983.4 484.705   6
   2  -4   1 9773.71 507.517   8
   2  -4   1 9935.20 269.303   1
  -2   4  -1 9694.86 278.151   1
   2  -4   2 311.362 124.013   7
   2  -4   2 391.480 137.732   3
   2  -4   2 364.635 131.464   8
  -2   4  -2 499.456 81.2619  11
  -2   4  -2 451.286 128.830   6
  -2   4  -2 393.443 143.796   5
  -2   4  -2 487.534 117.487   9
   2  -4   2 398.982 128.884   9
   2  -4   2 437.934 67.0755   2
   2  -4   3 2287.49 278.589   3
  -2   4  -3 2597.51 301.013   5
  -2   4  -3 2119.70 258.963   6
  -2   4  -3 2436.03 194.665  11
   2  -4   3 2374.91 265.806   8
   2  -4   3 2126.73 272.812   7
   2  -4   4 5931.55 463.343   7
  -2   4  -4 6239.10 458.332   6
  -2   4  -4 6257.30 325.943  10
   2  -4   4 6059.08 448.996   3
   2  -4   4 6034.36 442.765   8
  -2   4  -4 6467.09 357.309  11
   2  -4   5 13114.2 693.504   3
  -2   4  -5 13853.0 704.284   6
  -2   4  -5 14232.2 549.494  10
   2  -4   5 14083.9 693.287   8
  -2   4  -5 14118.8 590.109  11
   2  -4   6 30.7769 129.873   3
  -2   4  -6-194.040 191.939   6
   2  -4   6 35.5550 28.3452   1
   2  -4   6-35.6679 113.974   8
   2  -4   7 8397.86 610.577   3
  -2   4  -7 8956.40 554.073  11
  -2   4  -7 8635.21 622.679   6
   2  -4   7 8895.42 329.146   1
   2  -4   7 8688.16 606.230   8
   2  -4   8 3683.90 431.184   3
  -2   4  -8 3724.61 447.161   6
   2  -4   8 4421.89 271.131   1
   2  -4   8 3222.85 452.530   8
  -2   4  -8 3735.39 380.455  11
   2  -4   9 2230.67 350.920   3
  -2   4  -9 2104.34 316.352  11
  -2   4  -9 2753.18 407.287   6
  -2   4  -9 1725.87 126.442   2
   2  -4   9 2668.77 233.877   1
  -2   4 -10 494.565 170.086  11
  -2   4 -10 946.452 252.692   6
   2  -4  10 591.219 220.292   3
   2  -4  10 590.295 135.533   1
   2  -4  11 684.604 224.429   3
  -2   4 -11 1020.51 282.791   6
  -2   4 -11 774.758 246.798  11
   2  -4  11 977.531 189.573   1
  -2   4 -12 686.070 281.510   6
   2  -4  12 172.382 179.007   3
  -2   4 -12 287.300 200.903  11
   2  -4  12 605.237 160.304   1
  -2   4 -13-174.521 205.606  11
  -2   4 -13 18.2856 146.039   6
   2  -4  13 221.006 182.086   3
   2  -4  14 140.554 168.954   3
  -2   4 -14 85.9879 159.954  11
  -2   4 -14 2.99064 164.801   6
   2  -4  15-180.413 178.707   3
  -2   4 -15-60.5221 156.605  11
  -2   4 -15-276.929 244.758   6
  -2   4 -16-27.3269 206.540   6
   2  -4  16 391.042 219.377   3
  -2   4 -16 85.6927 166.929  11
   2  -4  17 682.881 309.479   3
  -2   4 -17 928.242 332.317  11
  -2   4 -17 1467.41 429.689   6
   2  -3 -18-432.483 239.553  11
   2  -3 -17 540.858 210.330   6
  -2   3  17-110.749 239.572   1
   2  -3 -17 259.797 214.894  11
  -2   3  16 162.035 173.158   1
   2  -3 -16-108.042 175.924  11
   2  -3 -16 6.70290 158.464   6
   2  -3 -15 2327.46 437.401  11
   2  -3 -15 2441.70 399.855   6
  -2   3  15 1957.65 427.006   1
   2  -3 -14 385.703 209.872  11
  -2   3  14 263.299 190.047   1
   2  -3 -13-0.85465 169.369  11
  -2   3  13 364.110 210.683   1
  -2   3  12-37.7629 160.799   1
   2  -3 -12 159.763 139.174  11
  -2   3  11 2409.70 214.887   3
   2  -3 -11 2490.37 357.756  11
  -2   3  11 1925.53 349.271   1
  -2   3  10 3617.06 402.727   5
  -2   3  10 3887.56 459.996   1
  -2   3  10 4164.24 263.969   3
   2  -3 -10 4020.85 421.765  11
   2  -3  -9 11002.2 657.139  11
  -2   3   9 10466.0 631.018   5
  -2   3   9 9531.45 690.059   1
  -2   3   9 10459.1 297.332   4
  -2   3   9 10819.6 382.968   3
  -2   3   8 111.931 41.4027   4
  -2   3   8-76.2980 125.421   1
  -2   3   8 35.6308 37.6441   3
  -2   3   8 132.086 90.1688   5
   2  -3  -8 53.3231 96.2471  11
  -2   3   7 5345.04 210.251   3
  -2   3   7 5098.71 454.966   1
   2  -3  -7 5686.70 411.203  11
  -2   3   7 4953.64 423.169  10
  -2   3   7 5986.59 451.839   5
  -2   3   6 8279.78 218.932   3
  -2   3   6 8073.52 500.135   5
  -2   3   6 8841.79 564.206   1
   2  -3  -6 9777.25 491.053  11
  -2   3   6 8966.76 529.892  10
  -2   3   5 2475.89 293.023   1
   2  -3  -5 2665.19 226.345   7
  -2   3   5 2664.03 270.521  10
  -2   3   5 2812.85 291.094   5
   2  -3  -5 2647.68 235.892  11
  -2   3   4 5461.86 172.418   3
  -2   3   4 5795.75 394.669   5
   2  -3  -4 5812.68 315.111   7
   2  -3  -4 6163.13 314.453  11
  -2   3   4 5647.00 388.861   1
   2  -3  -4 5923.77 361.534  10
  -2   3   4 5474.89 350.933  10
  -2   3   3 38345.2 528.658   3
   2  -3  -3 36277.2 786.999   7
  -2   3   3 37251.6 973.812   5
  -2   3   3 37668.3 926.829   1
  -2   3   3 37579.6 806.138  10
   2  -3  -3 40842.8 951.343   1
   2  -3  -3 39014.0 670.396  11
   2  -3  -3 39195.5 1018.32   8
   2  -3  -3 39205.7 824.759  10
   2  -3  -2 4726.12 290.211   7
  -2   3   2 5580.46 305.531   7
  -2   3   2 4901.31 257.858  10
  -2   3   2 5015.37 346.726   5
   2  -3  -2 5045.50 191.701  11
  -2   3   2 5098.98 313.923   1
   2  -3  -2 4821.67 354.297   8
   2  -3  -2 5157.95 311.215   1
  -2   3   2 5266.63 230.133   3
   2  -3  -2 5318.05 275.001  10
   2  -3  -1 571.941 155.966   8
   2  -3  -1 691.836 110.923   1
   2  -3  -1 652.100 129.176   7
  -2   3   1 795.164 136.436   7
  -2   3   1 734.584 108.518   3
   2  -3  -1 678.553 100.166  10
  -2   3   1 614.641 158.787   5
  -2   3   1 733.833 99.3551  10
  -2   3   1 790.715 126.362   1
   2  -3  -1 678.463 97.0374   9
  -2   3   0 1913.62 231.707   5
   2  -3   0 2073.13 207.895   7
  -2   3   0 2534.82 230.397   7
  -2   3   0 2342.14 201.483   3
   2  -3   0 2086.06 233.908   8
   2  -3   0 2264.41 200.233   6
  -2   3   0 2327.20 136.908  10
   2  -3   0 2160.11 169.741   9
   2  -3   0 2464.52 168.075   1
   2  -3   0 2157.75 191.407   3
  -2   3   0 2367.21 176.191   1
   2  -3   1 6546.19 378.274   7
   2  -3   1 6671.52 358.824   3
  -2   3  -1 7415.65 397.573   7
  -2   3  -1 7392.76 376.403   3
  -2   3  -1 6868.06 234.914  10
  -2   3  -1 6006.85 164.136  11
   2  -3   1 6640.84 295.706   9
  -2   3  -1 6828.59 423.440   5
  -2   3  -1 7426.93 316.908   9
   2  -3   1 6756.35 237.097   1
   2  -3   1 7422.79 379.300   6
   2  -3   1 6791.45 395.428   8
  -2   3  -1 7407.46 258.227   1
  -2   3  -2 1117.96 194.837   5
  -2   3  -2 1279.49 194.813   7
   2  -3   2 1372.29 179.469   6
   2  -3   2 1119.02 175.894   3
  -2   3  -2 1426.77 179.210   3
   2  -3   2 1213.98 145.567   9
   2  -3   2 1488.84 213.576   7
   2  -3   2 1470.34 115.577  11
   2  -3   2 1190.00 80.0310   1
  -2   3  -2 1361.94 157.280   9
  -2   3  -2 1219.65 113.067  11
  -2   3  -2 900.851 138.524   6
   2  -3   2 1348.57 201.792   8
   2  -3   3 10606.4 531.825   7
  -2   3  -3 10177.5 503.894   6
   2  -3   3 11132.4 383.838  11
   2  -3   3 10334.1 506.849   3
  -2   3  -3 11164.0 460.711   9
   2  -3   3 10917.9 519.086   8
  -2   3  -3 10695.8 383.207  11
   2  -3   4 29344.2 910.196   3
  -2   3  -4 29557.3 732.576  11
  -2   3  -4 32629.0 842.070   9
   2  -3   4 28266.4 374.511   1
  -2   3  -4 28085.3 896.717   6
   2  -3   4 28319.5 875.484   8
   2  -3   4 30118.0 732.847  11
  -2   3  -5 123.768 112.479  11
   2  -3   5 58.9927 68.3190  11
  -2   3  -5-66.5726 122.392   6
   2  -3   5-71.2913 117.637   3
   2  -3   5 17.9272 28.9151   1
   2  -3   5 30.8148 98.8506   8
   2  -3   6 8433.13 550.634   3
  -2   3  -6 8437.26 559.535   6
   2  -3   6 9118.00 328.250   1
  -2   3  -6 8470.88 480.568  11
   2  -3   6 9031.39 543.160   8
  -2   3  -7 8276.79 513.880  11
  -2   3  -7 8167.33 583.247   6
   2  -3   7 8050.48 566.721   3
   2  -3   7 9039.68 375.376   1
  -2   3  -7 7293.83 238.142   2
   2  -3   7 8531.81 598.135   8
   2  -3   8-154.194 137.440   3
  -2   3  -8 153.139 139.839   6
  -2   3  -8-155.690 139.871  11
  -2   3  -8-43.2937 42.6593   2
   2  -3   8 108.503 72.8719   1
   2  -3   9 260.087 137.497   3
   2  -3   9 124.050 73.3532   1
  -2   3  -9 158.950 129.651   6
  -2   3  -9 78.1930 133.032  11
  -2   3  -9 83.9081 51.5593   2
   2  -3  10 2081.00 249.838   1
   2  -3  10 1818.91 331.420   3
  -2   3 -10 1937.53 323.964  11
  -2   3 -10 2099.56 356.696   6
   2  -3  11 1734.26 332.274   3
  -2   3 -11 1503.52 304.688  11
  -2   3 -11 1397.03 291.796   6
   2  -3  11 1629.62 241.284   1
   2  -3  12 872.429 283.605   3
  -2   3 -12 1069.86 293.727   6
  -2   3 -12 988.017 262.084  11
   2  -3  12 1070.22 206.361   1
   2  -3  13 1652.42 339.240   3
   2  -3  13 1496.42 261.160   1
  -2   3 -13 1623.20 339.464  11
  -2   3 -13 1293.00 319.814   6
   2  -3  14 1218.87 303.742   3
  -2   3 -14 1211.92 326.102  11
   2  -3  14 1546.47 285.582   1
  -2   3 -14 1418.60 356.609   6
  -2   3 -15 297.857 231.139  11
  -2   3 -15-14.6139 202.313   6
   2  -3  15 444.142 226.946   3
   2  -3  16 1506.82 372.207   3
  -2   3 -16 1949.97 422.384  11
  -2   3 -16 1547.60 383.697   6
   2  -3  17 1810.64 403.268   3
  -2   3 -17 1802.52 433.372   6
  -2   3 -17 1286.33 358.252  11
   2  -3  18 72.2640 198.136   3
  -2   3 -18-142.441 185.013  11
   2  -2 -19-242.007 225.307   6
  -2   2  18 224.223 262.287   1
   2  -2 -18-368.827 295.691  11
   2  -2 -18 355.913 224.414   6
  -2   2  17 401.468 277.803   1
   2  -2 -17 774.544 299.922  11
   2  -2 -17 848.708 325.166   6
   2  -2 -16 2646.05 457.504   6
   2  -2 -16 2912.83 517.540  11
  -2   2  16 3154.99 519.597   1
   2  -2 -15 185.847 208.538  11
  -2   2  15-26.5861 192.556   1
   2  -2 -14 133.019 183.879  11
  -2   2  14 24.9624 151.645   1
   2  -2 -13-79.0163 194.005  11
  -2   2  13 49.4384 147.508   1
   2  -2 -12 128.072 134.984  11
  -2   2  12 372.535 200.965   1
   2  -2 -11 6002.10 560.216  11
  -2   2  11 6045.30 377.546   3
  -2   2  11 5334.69 573.282   1
   2  -2 -10 1478.75 258.613  11
  -2   2  10 1505.43 303.801   1
  -2   2  10 1249.97 164.231   3
  -2   2   9 5376.56 298.265   3
  -2   2   9 5208.90 493.531  10
  -2   2   9 5006.14 494.538   1
   2  -2  -9 5308.63 467.478  11
  -2   2   8 2681.63 344.405  10
  -2   2   8 3167.64 207.484   3
   2  -2  -8 2886.07 319.959  11
  -2   2   8 3000.85 367.827   1
  -2   2   8 2701.57 292.324   5
  -2   2   8 3415.77 208.052   4
  -2   2   7 7812.60 279.052   3
  -2   2   7 7729.72 543.558  10
  -2   2   7 7760.50 467.976   5
   2  -2  -7 7896.86 497.283  11
  -2   2   7 7138.29 535.535   1
  -2   2   7 7965.04 317.610   4
  -2   2   6 6583.71 211.717   3
  -2   2   6 6757.96 478.080   1
  -2   2   6 6270.63 401.652   5
  -2   2   6 7034.30 461.716  10
   2  -2  -6 6982.82 433.898  11
  -2   2   6 7268.18 307.880   4
  -2   2   5 628.275 171.001  10
  -2   2   5 638.533 142.702   5
   2  -2  -5 618.352 133.334  11
  -2   2   5 735.857 162.220   1
  -2   2   4 41882.6 939.855   5
  -2   2   4 41504.7 970.976  10
  -2   2   4 42495.8 1047.24   1
   2  -2  -4 44791.7 1003.66  10
   2  -2  -4 43942.0 971.544   5
   2  -2  -4 42151.5 871.342  11
   2  -2  -3 49244.4 965.795  10
   2  -2  -3 47329.6 697.934   7
  -2   2   3 45130.8 917.882  10
  -2   2   3 42834.6 914.972   5
   2  -2  -3 49309.6 985.766   5
   2  -2  -3 47468.7 805.798  11
  -2   2   3 47115.2 1033.45   1
   2  -2  -3 49289.3 1038.55   1
  -2   2   2 18966.3 531.354  10
   2  -2  -2 19491.2 442.712   7
  -2   2   2 18921.9 445.708   7
   2  -2  -2 20811.3 611.329   1
  -2   2   2 19628.9 597.623   5
   2  -2  -2 19860.7 633.265   8
   2  -2  -2 19577.6 561.419  10
  -2   2   2 19050.7 598.117   1
   2  -2  -2 20424.1 624.918   5
   2  -2  -1 9712.61 335.026   7
  -2   2   1 10552.0 344.283   7
  -2   2   1 10452.3 281.615   3
   2  -2  -1 10477.1 372.128  10
  -2   2   1 10622.9 406.621   1
   2  -2  -1 11312.7 406.340   1
   2  -2  -1 11156.2 284.979   3
  -2   2   1 11513.3 468.104   8
   2  -2  -1 12110.2 472.527   5
  -2   2   1 10031.2 431.110   5
   2  -2  -1 9964.78 427.107   8
  -2   2   1 9532.24 350.744  10
   2  -2   0 1011.86 162.179   8
  -2   2   0 1056.99 161.881   8
   2  -2   0 1090.28 85.8693   9
   2  -2   0 1114.56 131.984   1
   2  -2   0 971.147 118.838   3
   2  -2   0 999.158 119.870  10
  -2   2   0 940.638 119.732   1
   2  -2   0 970.647 77.2634  11
  -2   2   0 888.015 112.436  10
   2  -2   0 939.177 130.721   7
  -2   2   0 1281.23 177.131   5
  -2   2   0 1058.97 124.917   7
  -2   2   0 1058.06 121.038   3
   2  -2   1 1340.67 178.673   8
  -2   2  -1 1291.44 151.891   3
   2  -2   1 1401.19 159.826   7
  -2   2  -1 1163.99 148.078   7
  -2   2  -1 1247.18 96.2186  11
   2  -2   1 1395.66 173.168   6
  -2   2  -1 1254.43 125.261  10
  -2   2  -1 1225.77 169.707   5
   2  -2   1 1453.42 122.566   1
   2  -2   1 1254.12 102.512   9
  -2   2  -1 1306.00 111.517   9
  -2   2  -1 1124.47 130.265   1
   2  -2   1 1279.83 155.250   3
   2  -2   1 1355.07 94.7700  11
  -2   2  -1 1432.87 187.689   8
  -2   2  -2 4740.31 299.173   7
  -2   2  -2 5267.46 310.077   3
   2  -2   2 4687.66 306.672   6
   2  -2   2 4722.70 212.787  11
  -2   2  -2 4385.97 192.611  11
   2  -2   2 4723.45 292.644   3
   2  -2   2 3633.29 214.931   1
   2  -2   2 4768.27 301.142   7
  -2   2  -2 5104.02 236.084   9
  -2   2  -2 5770.03 334.620   8
   2  -2   2 4551.43 309.894   8
  -2   2  -2 4820.95 315.978   6
   2  -2   2 4557.27 172.744   2
  -2   2  -3 40994.0 915.342   7
  -2   2  -3 38228.0 741.161   9
   2  -2   3 37016.9 882.961   8
   2  -2   3 38141.2 705.577  11
  -2   2  -3 36816.6 903.992   6
   2  -2   3 40670.8 943.584   6
  -2   2  -3 35762.8 673.434  11
  -2   2  -3 40883.4 915.536   8
  -2   2  -3 39702.2 908.615   3
   2  -2   3 37786.6 880.928   3
   2  -2   4 24497.3 776.860   3
  -2   2  -4 24425.5 640.922  11
  -2   2  -4 25491.1 803.648   6
   2  -2   4 26617.0 666.205  11
   2  -2   4 24952.4 759.791   8
   2  -2   5 5736.20 357.991  11
  -2   2  -5 5181.84 393.659   6
  -2   2  -5 4965.56 173.484   2
  -2   2  -5 4644.24 312.503  11
   2  -2   5 5224.16 251.326   1
   2  -2   5 5135.00 388.341   3
   2  -2   5 5428.99 390.211   8
   2  -2   6 31995.5 1005.88   3
  -2   2  -6 33115.1 1044.02   6
  -2   2  -6 32931.1 543.615   2
   2  -2   6 31187.0 1023.44   8
   2  -2   6 33802.1 704.639   1
  -2   2  -6 33028.5 921.465  11
   2  -2   7 2174.20 200.775   1
  -2   2  -7 1714.91 257.817   6
   2  -2   7 2023.86 272.679   3
  -2   2  -7 1916.68 245.851  11
  -2   2  -7 2276.98 168.941   2
   2  -2   7 2221.94 303.166   8
   2  -2   8 1748.52 283.760   3
  -2   2  -8 1560.30 252.025  11
   2  -2   8 1673.52 195.964   1
  -2   2  -8 1470.39 251.849   6
  -2   2  -8 1693.55 168.430   2
   2  -2   9 11339.2 543.215   1
   2  -2   9 10089.7 654.599   3
  -2   2  -9 10248.8 686.124   6
  -2   2  -9 10624.1 663.738  11
  -2   2  -9 11061.9 467.695   2
   2  -2  10 1038.74 243.445   3
  -2   2 -10 926.445 247.059   6
  -2   2 -10 1297.88 243.603  11
   2  -2  10 1167.26 200.891   1
  -2   2 -10 903.363 154.770   2
   2  -2  11 548.794 195.619   3
   2  -2  11 489.296 154.731   1
  -2   2 -11 477.352 201.382  11
  -2   2 -11 557.443 232.557   6
   2  -2  12 118.429 102.583   1
   2  -2  12 42.1204 135.313   3
  -2   2 -12 270.176 149.093   6
  -2   2 -12-47.4937 149.555  11
   2  -2  13 1722.11 324.953   3
  -2   2 -13 1542.94 370.379   6
  -2   2 -13 1212.61 309.424  11
   2  -2  13 1530.27 273.755   1
   2  -2  14 1065.44 230.278   1
   2  -2  14 990.642 277.657   3
  -2   2 -14 867.471 278.113   6
  -2   2 -14 925.348 284.863  11
   2  -2  15 1310.25 268.878   1
   2  -2  15 1204.16 322.667   3
  -2   2 -15 894.054 277.345   6
  -2   2 -15 1335.95 346.964  11
   2  -2  16 5586.22 656.784   3
  -2   2 -16 4567.88 620.400   6
   2  -2  16 5609.54 584.240   1
  -2   2 -16 4742.04 626.231  11
   2  -2  17 84.7052 159.851   3
  -2   2 -17 738.901 323.547   6
  -2   2 -17 454.522 254.609  11
  -2   2 -18 116.885 195.811   6
   2  -2  18-307.837 225.561   3
  -2   2 -18-128.158 182.922  11
   2  -2  19 974.182 368.083   3
   2  -1 -19 559.845 307.307   6
  -2   1  18 24.7860 181.217   1
   2  -1 -18-41.4603 174.638   6
  -2   1  17 4284.35 628.586   1
   2  -1 -17 4375.40 639.226  11
   2  -1 -17 3695.33 554.519   6
   2  -1 -16-232.058 219.103  11
   2  -1 -16 10.7947 184.460   6
  -2   1  16-153.892 195.157   1
   2  -1 -15 252.900 225.024  11
  -2   1  15 106.362 223.757   1
  -2   1  14 3334.33 524.292   1
   2  -1 -14 3339.14 502.107  11
  -2   1  13 4773.26 576.949   1
   2  -1 -13 4715.72 556.210  11
  -2   1  12 489.670 161.516   3
  -2   1  12 340.760 203.238   1
   2  -1 -12 385.039 196.930  11
   2  -1 -11 3269.30 430.993  11
  -2   1  11 3056.11 296.812   3
  -2   1  11 3014.12 421.150   1
   2  -1 -10 1019.88 233.888  11
  -2   1  10 1016.68 173.842   3
  -2   1  10 1176.06 269.422   1
  -2   1  10 864.087 234.994  10
  -2   1   9 3172.26 267.086   3
  -2   1   9 3237.54 406.002   1
   2  -1  -9 2832.65 348.007  11
  -2   1   9 2648.39 401.112  10
   2  -1  -8 1277.28 238.354  11
  -2   1   8 908.589 129.673   3
  -2   1   8 588.949 235.310  10
  -2   1   8 919.338 223.822   1
  -2   1   8 1102.78 137.323   4
  -2   1   7 139.949 53.1359   3
  -2   1   7 144.740 129.298   1
   2  -1  -7 250.797 73.0751   3
  -2   1   7 235.253 149.755  10
  -2   1   7 157.735 67.1713   4
   2  -1  -7 231.850 96.9454  11
   2  -1  -6 9067.21 312.317   3
   2  -1  -6 8422.15 497.149  11
   2  -1  -6 8549.25 426.461   5
  -2   1   6 8103.45 416.696   5
  -2   1   6 7479.22 525.356  10
  -2   1   6 7968.06 526.297   1
  -2   1   6 8994.52 365.108   4
  -2   1   5 3534.81 337.655   1
   2  -1  -5 3204.08 287.820  11
   2  -1  -5 3403.32 164.645   3
  -2   1   5 3468.36 260.194   5
   2  -1  -5 3592.07 266.117   5
  -2   1   5 3010.79 302.975  10
  -2   1   5 3585.50 233.906   4
   2  -1  -4 17570.1 535.019   5
   2  -1  -4 16854.0 284.658   3
  -2   1   4 17424.3 670.202   1
  -2   1   4 18012.7 533.261   5
  -2   1   4 17928.0 643.611  10
  -2   1   3 13380.8 548.257   1
  -2   1   3 13597.4 442.622   5
   2  -1  -3 14499.5 559.542   1
   2  -1  -3 14347.8 543.249  10
   2  -1  -3 14400.3 458.257   5
  -2   1   3 13272.4 521.517  10
  -2   1   2 65.1070 93.3156   1
   2  -1  -2 137.325 85.1063   1
   2  -1  -2 138.945 79.4007   5
   2  -1  -2 147.140 87.3583  10
  -2   1   2 73.5285 83.3870  10
  -2   1   2 77.2725 69.2047   5
   2  -1  -1 18.2696 34.0168   7
   2  -1  -1-63.6437 67.3461   1
  -2   1   1 91.7417 40.3847   7
   2  -1  -1 15.8969 34.2900   3
   2  -1  -1-0.11675 72.4510  10
  -2   1   1 168.788 85.2753   5
   2  -1  -1 43.4496 60.0308   5
   2  -1  -1 62.2011 78.6888   8
  -2   1   1 18.1837 76.9422  10
  -2   1   1 110.146 84.3943   1
  -2   1   0 1713.14 160.857  10
  -2   1   0 2016.14 125.310   7
   2  -1   0 1740.09 123.544   3
  -2   1   0 1757.17 178.769   1
  -2   1   0 1601.49 158.534   5
   2  -1   0 1928.44 172.893   1
   2  -1   0 1564.39 156.427  10
  -2   1   0 2075.73 190.500   8
   2  -1   0 1746.37 170.388   8
   2  -1   1 2983.98 173.080  11
  -2   1  -1 3292.54 189.976   7
   2  -1   1 3204.93 194.993   3
   2  -1   1 2872.09 210.558   1
  -2   1  -1 3157.20 206.315  10
   2  -1   1 3474.62 225.760   8
  -2   1  -1 3265.55 232.143   8
  -2   1  -1 2971.54 197.703   3
  -2   1  -1 2973.08 163.408  11
   2  -1   2 4044.60 249.189   3
  -2   1  -2 4532.37 264.989   3
   2  -1   2 4839.30 299.223   6
   2  -1   2 4589.99 276.188   8
  -2   1  -2 4473.34 229.072  11
   2  -1   2 4464.41 220.382  11
   2  -1   2 3985.25 192.642   2
  -2   1  -2 4688.85 279.378   8
  -2   1  -3 59727.5 1024.12   8
   2  -1   3 53572.7 966.588   3
  -2   1  -3 59272.9 1006.31   3
  -2   1  -3 57034.7 665.757   2
   2  -1   3 58966.5 1062.56   6
  -2   1  -3 53752.7 862.269  11
  -2   1  -3 56739.7 1045.87   6
   2  -1   3 57637.4 870.113  11
   2  -1   3 55542.6 643.413   2
   2  -1   3 54882.7 983.063   8
   2  -1   4 20183.1 649.356   3
   2  -1   4 21516.7 429.773   2
   2  -1   4 23999.3 725.557   6
  -2   1  -4 20621.6 679.775   6
   2  -1   4 22899.6 623.207  11
  -2   1  -4 22772.0 686.829   3
  -2   1  -4 22074.2 431.533   2
  -2   1  -4 21352.6 612.150  11
   2  -1   4 20786.0 664.564   8
  -2   1  -4 23126.2 692.885   8
  -2   1  -5 35373.1 601.871   2
   2  -1   5 31945.6 884.198   3
  -2   1  -5 33349.6 916.889   6
   2  -1   5 36595.6 873.011  11
   2  -1   5 34414.4 606.572   2
  -2   1  -5 32822.3 829.274  11
   2  -1   5 30551.9 929.003   8
   2  -1   6 4962.85 390.383   3
  -2   1  -6 5644.88 409.474   6
  -2   1  -6 5336.97 378.426  11
   2  -1   6 5296.68 312.824   1
  -2   1  -6 5928.39 277.461   2
   2  -1   7 3847.61 369.080   3
  -2   1  -7 3878.61 365.492   6
   2  -1   7 4414.94 307.866   1
  -2   1  -7 4414.69 269.145   2
  -2   1  -7 4430.15 368.567  11
   2  -1   8 17492.7 655.559   1
   2  -1   8 16506.6 761.860   3
  -2   1  -8 15852.3 771.193   6
  -2   1  -8 16431.3 741.979  11
  -2   1  -8 17248.5 583.818   2
   2  -1   9 8709.60 582.934   3
  -2   1  -9 8367.14 595.272   6
  -2   1  -9 9253.66 609.196  11
  -2   1  -9 8992.30 458.494   2
   2  -1   9 9015.36 510.989   1
   2  -1  10 308.541 176.697   3
  -2   1 -10 90.9528 128.052   6
   2  -1  10 115.768 118.626   1
  -2   1 -10 373.537 170.313  11
   2  -1  11 4.76271 119.544   3
   2  -1  11 219.113 168.085   1
  -2   1 -11 18.5596 129.097  11
  -2   1 -11 229.475 184.276   6
   2  -1  12 1093.11 269.553   3
  -2   1 -12 829.206 241.165  11
   2  -1  12 1261.64 252.704   1
  -2   1 -12 1119.92 290.722   6
   2  -1  13 1552.93 307.058   3
   2  -1  13 1898.83 309.865   1
  -2   1 -13 1890.93 358.975  11
  -2   1 -13 2422.04 413.668   6
   2  -1  14 54.3820 159.671   3
   2  -1  14 184.095 138.458   1
  -2   1 -14 82.1857 145.428   6
  -2   1 -14 39.7470 173.696  11
   2  -1  15 9292.06 776.754   3
   2  -1  15 8968.80 720.947   1
  -2   1 -15 9012.14 818.985   6
  -2   1 -15 9276.68 820.135  11
   2  -1  16 617.885 212.870   1
  -2   1 -16 423.801 222.385   6
   2  -1  16 599.068 231.820   3
  -2   1 -16 507.166 224.770  11
  -2   1 -17 42.7759 173.673  11
   2  -1  17 199.979 162.709   3
  -2   1 -17 256.312 225.044   6
   2  -1  17 83.9514 175.541   1
   2  -1  18 1526.97 359.710   3
  -2   1 -18 1724.84 419.252   6
  -2   1 -18 3104.04 552.225  11
   2  -1  18 1809.25 397.104   1
   2  -1  19 569.114 263.252   3
  -2   1 -19 596.107 261.183   6
   2  -1  20-491.366 282.680   3
  -2   0  18 816.612 368.872   1
   2   0 -18 412.429 240.839   6
   2   0 -17 624.641 277.980   6
   2   0 -17 882.267 364.700  11
  -2   0  17 681.265 342.275   1
   2   0 -16 329.453 240.228  11
   2   0 -16 474.632 205.726   6
  -2   0  16 97.4334 150.237   1
  -2   0  15 132.094 183.023   1
   2   0 -15-160.300 217.819  11
   2   0 -14 565.773 269.509  11
  -2   0  14 696.547 241.841   1
   2   0 -13-19.9805 137.050  11
  -2   0  13-141.532 147.409   1
   2   0 -12 682.907 222.642  11
  -2   0  12 783.401 247.154   1
   2   0 -11 291.422 198.578  11
  -2   0  11 469.412 219.127   1
   2   0 -10 370.636 191.756  11
  -2   0  10 72.4044 164.246  10
   2   0  -9 49.3940 112.503  11
  -2   0   9 183.374 200.358  10
  -2   0   9 24.5270 112.660   1
   2   0  -8 2948.39 262.680   3
   2   0  -8 2494.33 322.214  11
  -2   0   8 1463.56 337.094  10
  -2   0   8 2203.08 310.922   1
  -2   0   7 6200.77 492.325  10
   2   0  -7 5665.23 462.480  11
   2   0  -7 5945.46 347.611   3
  -2   0   7 6426.78 360.776   4
  -2   0   7 5271.45 462.072   1
   2   0  -7 6548.18 369.549   5
  -2   0   6 466.373 158.136  10
   2   0  -6 229.487 71.3954   3
   2   0  -6 258.784 130.714  11
   2   0  -6 465.281 114.780   5
  -2   0   6 325.008 127.454   1
  -2   0   6 328.183 98.2514   4
  -2   0   5 10516.8 561.829   1
  -2   0   5 11919.8 455.451   4
   2   0  -5 10679.5 396.627   5
  -2   0   5 8843.86 557.223  10
   2   0  -5 11137.3 390.132   3
   2   0  -4 263.636 69.9063   3
  -2   0   4 410.315 150.415   1
  -2   0   4 264.525 72.5294   5
  -2   0   4 244.214 117.139  10
  -2   0   4 357.109 97.0865   4
   2   0  -4 200.668 61.1691   5
   2   0  -3 882.684 97.2582   5
  -2   0   3 1124.45 141.324   4
   2   0  -3 995.393 85.4405   7
   2   0  -3 1085.95 104.962   3
   2   0  -3 876.368 173.970  10
  -2   0   3 924.834 169.170   1
  -2   0   3 1200.02 192.623  10
  -2   0   3 970.726 100.574   5
   2   0  -3 1250.26 193.322   1
   2   0  -2 11766.9 469.342  10
   2   0  -2 11120.8 465.428   1
  -2   0   2 10844.0 465.873   1
   2   0  -2 11390.7 300.976   5
  -2   0   2 11419.1 293.066   5
  -2   0   2 10538.9 444.537  10
   2   0  -1 109.730 70.9691   8
  -2   0   1 22.5839 91.1208   1
   2   0  -1 23.0463 69.9106   1
   2   0  -1 61.6628 53.4504   9
   2   0  -1 31.5380 75.4936  10
  -2   0   1 58.2181 49.2195   5
  -2   0   1 31.7912 85.9516  10
   2   0   0 15474.2 476.553  10
  -2   0   0 14687.0 265.024   9
   2   0   0 15313.3 273.990   9
  -2   0   0 15361.8 472.256  10
   2   0   0 16741.7 517.485   1
  -2   0   0 15158.6 383.122   8
  -2   0   0 16404.3 523.716   1
   2   0   0 15069.9 382.013   8
   2   0   1 3839.65 234.002  11
   2   0   1 4392.68 234.451   2
  -2   0  -1 4338.51 256.027  10
   2   0   1 4637.65 224.520   8
  -2   0  -1 4488.93 227.001   8
  -2   0  -2 22940.3 537.540   8
   2   0   2 24322.1 549.610  11
  -2   0  -2 23203.0 535.956  11
   2   0   2 23582.7 509.270   2
  -2   0  -2 23784.7 515.088   2
   2   0   2 23872.8 535.234   8
   2   0   3 14379.9 499.726   6
  -2   0  -3 13196.9 442.295  11
  -2   0  -3 14048.6 395.396   2
   2   0   3 13305.9 396.815   2
  -2   0  -3 14562.9 474.132   8
   2   0   3 14100.0 457.484  11
   2   0   3 13126.7 458.443   8
   2   0   4 2997.10 255.053   3
  -2   0  -4 3192.19 281.906   6
   2   0   4 3126.40 241.085  11
   2   0   4 3345.32 270.893   6
  -2   0  -4 2917.28 204.832   2
  -2   0  -4 3093.53 250.999  11
   2   0   4 3086.10 196.851   2
   2   0   4 3364.77 267.620   8
  -2   0  -4 3042.66 253.551   8
   2   0   5 1418.15 185.788  11
   2   0   5 1393.53 197.511   6
  -2   0  -5 1120.09 190.981   6
  -2   0  -5 1133.28 174.737  11
   2   0   5 1069.14 183.703   3
   2   0   5 1307.77 149.275   2
  -2   0  -5 551.546 209.154   8
  -2   0  -5 1500.50 155.830   2
  -2   0  -6 22195.8 763.524   6
  -2   0  -6 23446.0 763.217  11
  -2   0  -6 24239.6 644.309   2
   2   0   6 21494.7 636.187   2
   2   0   6 22108.7 746.961   3
   2   0   7 179.195 124.845   3
  -2   0  -7-153.445 131.827   6
  -2   0  -7 111.790 107.822  11
  -2   0  -7-47.0602 65.1150   2
   2   0   7 177.277 113.792   1
  -2   0  -8 11827.2 630.701  11
  -2   0  -8 11812.4 629.180   6
  -2   0  -8 12607.2 541.309   2
   2   0   8 11263.0 606.907   3
   2   0   8 12242.7 578.389   1
  -2   0  -9 188.174 136.607   6
   2   0   9 134.003 125.245   3
  -2   0  -9 16.3176 110.436  11
   2   0   9-0.43055 80.3605   1
   2   0  10 258.812 118.912   1
  -2   0 -10 196.426 150.293  11
  -2   0 -10 248.865 111.653   6
   2   0  10 398.783 148.541   3
   2   0  11 2255.20 312.495   1
  -2   0 -11 1768.64 292.211  11
  -2   0 -11 2009.21 315.590   6
   2   0  11 1480.11 269.702   3
   2   0  12 2070.39 321.354   1
   2   0  12 1658.14 315.659   3
  -2   0 -12 1968.34 332.143  11
  -2   0 -12 1617.18 294.654   6
   2   0  13 5148.09 532.746   3
  -2   0 -13 4212.31 501.216   6
  -2   0 -13 4491.70 523.048  11
   2   0  13 4677.42 487.525   1
   2   0  14 2277.60 364.390   1
   2   0  14 2346.85 383.955   3
  -2   0 -14 1859.30 362.616  11
  -2   0 -14 2153.36 381.807   6
   2   0  15 3841.27 513.166   3
  -2   0 -15 3020.85 481.538  11
   2   0  15 3905.70 494.003   1
  -2   0 -15 3452.15 508.825   6
  -2   0 -16 573.775 268.397   6
   2   0  16 541.343 231.618   3
  -2   0 -16 318.068 237.380  11
   2   0  16 423.704 241.524   1
   2   0  17 736.634 252.222   1
   2   0  17 875.350 287.359   3
  -2   0 -17 639.811 261.696  11
  -2   0 -17 332.981 200.139   6
  -2   0 -18 1862.56 428.030  11
  -2   0 -18 2028.34 433.383   6
   2   0  18 2530.38 477.791   3
   2   0  18 2157.25 405.848   1
   2   0  19 515.507 273.674   1
   2   0  19-101.816 179.100   3
  -2   0 -19 276.442 224.833   6
  -2   0 -19 39.8337 188.016  11
   2   0  20 9.95049 167.953   1
  -2   0 -20-311.315 263.022   6
  -2  -1  18 840.885 297.739   1
   2   1 -17 542.164 306.758   6
   2   1 -17 509.182 274.756  11
  -2  -1  17-192.958 218.889   1
   2   1 -16-129.995 184.088   6
  -2  -1  16 223.563 248.989   1
   2   1 -16-247.552 225.507  11
  -2  -1  15 1230.91 356.287   1
   2   1 -15 1779.25 386.440  11
   2   1 -14 2057.96 423.710  11
  -2  -1  14 1703.02 375.642   1
   2   1 -13 215.563 219.600  11
  -2  -1  13 57.5664 172.346   1
  -2  -1  12 2148.97 386.117   1
   2   1 -12 2297.31 404.343  11
   2   1 -12 2806.62 324.523   4
   2   1 -11 10970.7 810.195  11
  -2  -1  11 12459.8 816.885   1
   2   1 -11 12580.4 646.746   4
   2   1 -10 389.411 140.883   4
   2   1 -10 138.290 134.048  11
  -2  -1  10 300.918 223.382  10
  -2  -1  10 296.537 147.453   1
   2   1  -9 2504.38 372.009  11
   2   1  -9 2276.09 261.684   4
  -2  -1   9 1953.52 297.129   1
  -2  -1   9 1296.54 332.781  10
   2   1  -8 3043.54 385.750  11
  -2  -1   8 2405.44 354.057  10
   2   1  -8 3111.06 262.822   5
  -2  -1   8 2798.12 367.846   1
   2   1  -8 2721.49 279.484   4
   2   1  -7 5409.57 474.235  11
   2   1  -7 5978.61 396.261   4
   2   1  -7 6380.40 341.362   5
  -2  -1   7 5594.49 484.579  10
  -2  -1   7 5895.29 483.344   1
   2   1  -6 747.063 123.124   7
   2   1  -6 794.143 146.148   3
   2   1  -6 718.861 112.675   5
  -2  -1   6 712.086 192.926  10
  -2  -1   6 687.835 180.390   1
   2   1  -6 717.975 144.147   4
   2   1  -5 57.1123 85.9335   4
  -2  -1   5-0.60999 70.7913   4
   2   1  -5 74.5821 63.3116   7
  -2  -1   5-39.2484 119.484  10
   2   1  -5 81.6298 67.0081   3
   2   1  -5 112.688 66.3855   5
  -2  -1   5 107.358 123.558   1
   2   1  -4 19568.2 632.881   4
   2   1  -4 20090.0 399.858   5
  -2  -1   4 19014.9 707.279  10
  -2  -1   4 19470.4 710.752   1
  -2  -1   4 21557.3 661.224   4
   2   1  -4 21093.6 588.168   3
   2   1  -4 20402.2 532.149   7
  -2  -1   3 16712.1 621.581  10
   2   1  -3 17599.3 435.325   7
   2   1  -3 16190.9 287.824   5
  -2  -1   3 16584.6 621.948   1
   2   1  -3 17821.2 638.948   1
  -2  -1   3 17801.8 579.596   4
   2   1  -3 18046.5 587.887   9
   2   1  -3 15665.5 550.751   4
   2   1  -2 7518.28 251.917   7
  -2  -1   2 7047.06 238.781   7
   2   1  -2 7000.35 395.736  10
  -2  -1   2 6492.11 418.949   1
   2   1  -2 7393.31 404.740   1
   2   1  -2 7809.39 374.516   4
  -2  -1   2 7759.92 375.260   4
   2   1  -2 7634.65 350.890   9
  -2  -1   2 6976.85 381.324  10
  -2  -1   1 945.208 137.932   4
   2   1  -1 856.114 83.7274   8
  -2  -1   1 524.432 148.731   1
   2   1  -1 1048.46 95.2743   7
  -2  -1   1 896.239 87.2353   7
   2   1  -1 846.339 159.150   1
   2   1  -1 929.707 144.176  10
  -2  -1   1 653.405 132.700  10
  -2  -1   1 715.716 112.555   9
   2   1  -1 934.381 128.796   9
  -2  -1   0 11735.9 427.272   4
  -2  -1   0 11496.2 291.413   7
   2   1   0 14005.9 504.158   1
  -2  -1   0 11116.3 427.869  10
  -2  -1   0 11686.1 253.824   8
   2   1   0 11711.8 442.960  10
  -2  -1   0 11359.2 343.278   9
   2   1   0 11679.7 355.471   9
   2   1   0 11378.7 248.611   8
   2   1   0 10820.6 408.879   2
  -2  -1  -1 23847.2 602.827  10
   2   1   1 21509.4 561.114   2
   2   1   1 22983.7 585.016  11
  -2  -1  -1 23208.0 583.149   2
  -2  -1  -1 22276.1 462.744   9
   2   1   1 22823.2 392.946   8
  -2  -1  -1 23480.0 398.372   8
   2   1   2 23.7731 90.6664   2
   2   1   2 180.338 89.4794  11
  -2  -1  -2 37.7919 75.0433   2
  -2  -1  -2-14.5453 89.5085  11
   2   1   2 58.2776 61.1258   8
  -2  -1  -2 61.4492 63.7854   8
  -2  -1  -3 3367.18 244.455  11
   2   1   3 3383.27 234.342   2
   2   1   3 2981.93 235.493  11
  -2  -1  -3 3634.97 231.207   8
  -2  -1  -3 3382.78 234.130   2
   2   1   4 1311.25 165.774  11
  -2  -1  -4 1262.92 157.641   2
  -2  -1  -4 670.530 169.078   8
  -2  -1  -4 1102.20 160.320  11
   2   1   4 1179.87 156.329   6
   2   1   4 1378.80 161.426   2
  -2  -1  -5 37.4770 90.7185  11
   2   1   5 92.3429 86.9223  11
  -2  -1  -5 77.9150 73.2534   2
   2   1   5 18.1481 84.7065   6
   2   1   5 17.7628 75.9704   2
  -2  -1  -5 29.6754 110.337   8
  -2  -1  -5 108.778 109.160   6
  -2  -1  -6 12227.5 500.202   2
   2   1   6 11861.5 513.536   6
  -2  -1  -6 11155.1 498.578   6
   2   1   6 10774.7 502.882   2
  -2  -1  -6 11500.2 544.602  11
   2   1   7 9867.23 522.478   3
  -2  -1  -7 10450.5 529.937   6
   2   1   7 11899.2 522.379   2
  -2  -1  -7 10413.0 555.678  11
   2   1   7 10249.1 553.080   1
   2   1   8 2187.50 268.329   1
  -2  -1  -8 1927.89 252.001   6
  -2  -1  -8 1591.93 240.700  11
   2   1   8 1858.97 255.046   3
   2   1   9 1691.03 254.115   3
  -2  -1  -9 2000.89 263.276   6
  -2  -1  -9 2098.73 295.522  11
   2   1   9 1799.17 257.301   1
  -2  -1 -10 2685.06 325.393   6
  -2  -1 -10 2779.46 357.527  11
   2   1  10 2568.87 322.633   3
   2   1  10 2979.17 342.403   1
  -2  -1 -11 1039.11 230.727   6
   2   1  11 1103.84 222.803   1
  -2  -1 -11 1396.55 284.801  11
   2   1  11 871.690 221.475   3
   2   1  12 3210.24 388.317   1
  -2  -1 -12 3232.63 406.894   6
   2   1  12 3014.71 369.342   3
  -2  -1 -12 3003.59 409.189  11
   2   1  13 102.246 151.381   3
  -2  -1 -13-65.6804 143.834  11
  -2  -1 -13-221.004 155.747   6
   2   1  13 250.884 174.833   1
   2   1  14 3744.62 475.654   1
   2   1  14 4279.74 488.456   3
  -2  -1 -14 4421.55 518.958   6
  -2  -1 -14 3765.67 513.974  11
  -2  -1 -15 507.850 180.279  11
   2   1  15 931.355 251.036   3
  -2  -1 -15 350.580 186.985   6
   2   1  15 575.383 247.067   1
   2   1  16 368.814 201.980   3
   2   1  16 879.306 325.671   1
  -2  -1 -16 333.691 185.304   6
  -2  -1 -16 572.469 231.857  11
  -2  -1 -17 1200.00 326.480   6
   2   1  17 1500.37 348.462   3
   2   1  17 1466.44 339.677   1
  -2  -1 -17 1591.72 386.767  11
   2   1  18 170.499 212.464   1
   2   1  18 427.443 232.521   3
  -2  -1 -18-7.95585 210.757  11
  -2  -1 -18 122.416 186.038   6
   2   1  19-355.602 259.338   1
  -2  -1 -19-211.067 209.308  11
   2   1  19 194.098 184.058   3
  -2  -1 -19 273.242 287.747   6
   2   1  20 318.753 264.699   1
  -2  -1 -20 440.388 229.521   6
  -2  -2  18 681.467 302.001   1
   2   2 -17 283.044 245.334   6
  -2  -2  17 400.149 236.139   1
  -2  -2  16 209.394 188.791   1
   2   2 -16 469.646 264.269   6
   2   2 -16 75.4621 224.022  11
   2   2 -15 4190.82 620.747   6
   2   2 -15 3715.45 577.363  11
  -2  -2  15 3692.89 547.825   1
   2   2 -14 590.809 296.523  11
  -2  -2  14 59.3951 137.488   1
   2   2 -13 3191.45 511.552  11
  -2  -2  13 3412.17 493.638   1
   2   2 -12 637.207 235.487  11
   2   2 -12 970.112 228.905   4
  -2  -2  12 895.641 272.308   1
  -2  -2  11 4341.49 525.088  10
  -2  -2  11 4908.07 525.866   1
   2   2 -11 3857.50 504.664  11
   2   2 -11 4297.76 423.536   4
   2   2 -10 1952.05 291.563   4
   2   2 -10 1304.10 297.558  11
  -2  -2  10 1939.39 353.384  10
  -2  -2  10 1403.18 280.337   1
  -2  -2   9 2991.63 389.731   1
  -2  -2   9 2683.93 368.321  10
   2   2  -9 2862.66 396.901  11
   2   2  -9 2756.36 325.284   4
   2   2  -8 6997.16 383.773   5
   2   2  -8 6281.39 556.024  11
  -2  -2   8 6277.03 553.877  10
  -2  -2   8 6598.60 527.461   1
   2   2  -8 6378.04 470.769   4
   2   2  -7 892.293 181.058   4
   2   2  -7 778.075 119.574   5
  -2  -2   7 868.043 196.561  10
  -2  -2   7 1015.05 215.894   1
   2   2  -6 29.6480 103.731   4
  -2  -2   6-21.2832 123.503  10
  -2  -2   6 262.910 143.997   1
   2   2  -6-48.2023 58.5926   5
   2   2  -5 27719.2 773.658   7
  -2  -2   5 26019.4 887.216   1
   2   2  -5 24830.0 499.600   5
   2   2  -5 25935.1 843.607   4
  -2  -2   5 25305.6 894.416  10
   2   2  -4 298.065 129.115   4
  -2  -2   4 63.4693 75.7141   7
  -2  -2   4 164.584 123.039   1
   2   2  -4 60.1265 72.8798   7
   2   2  -4 87.6918 99.7448   3
  -2  -2   4 124.059 122.631  10
   2   2  -3 1043.37 162.409   4
  -2  -2   3 1168.39 150.047   7
  -2  -2   3 1222.55 205.132   1
   2   2  -3 1060.94 143.135   7
   2   2  -3 1093.81 167.483   1
  -2  -2   3 836.764 173.356  10
   2   2  -2 1253.58 188.134   4
  -2  -2   2 562.872 154.109   1
   2   2  -2 1119.69 177.404   1
  -2  -2   2 1021.74 139.061   7
   2   2  -2 1017.25 131.024   7
   2   2  -2 1408.03 187.073   9
   2   2  -2 690.614 152.335   2
   2   2  -2 1135.70 175.221  10
  -2  -2   2 1057.49 173.141  10
  -2  -2   2 872.098 160.592   9
  -2  -2   2 1123.22 163.707   4
  -2  -2   1 5870.06 283.648   7
   2   2  -1 6253.01 296.557   7
  -2  -2   1 5994.28 340.011   9
   2   2  -1 6535.84 361.694  10
  -2  -2   1 6202.80 355.686   4
  -2  -2   1 6072.23 351.433  10
   2   2  -1 5957.90 360.714   4
   2   2  -1 6306.50 383.263   1
   2   2  -1 6550.58 345.788   9
   2   2  -1 5863.87 336.114   2
  -2  -2   0 61615.4 901.295   7
  -2  -2   0 67167.1 1084.30   2
   2   2   0 63446.7 911.804   7
   2   2   0 59238.7 1019.87   2
  -2  -2   0 61655.5 994.140   9
   2   2   0 68832.6 1101.11  10
   2   2   0 65945.3 1030.19   9
  -2  -2   0 63693.7 1054.83  10
  -2  -2   0 64953.1 621.393   5
  -2  -2   0 65951.8 1105.88   4
   2   2   0 61842.3 1082.66   4
  -2  -2  -1 4784.59 303.152   2
  -2  -2  -1 4784.96 150.027   8
  -2  -2  -1 4641.40 213.830   5
   2   2   1 4087.52 286.883   4
  -2  -2  -1 4809.64 293.815   4
  -2  -2  -1 4719.49 256.680   7
   2   2   1 4586.40 282.334   2
   2   2   1 4656.73 270.530   9
  -2  -2  -1 4359.30 266.488   9
  -2  -2  -1 4208.80 289.460  10
  -2  -2  -2 41470.8 879.926  11
   2   2   2 44595.9 886.595  11
  -2  -2  -2 44830.3 739.042   5
  -2  -2  -2 44327.6 857.556   4
  -2  -2  -2 46045.2 895.737   2
   2   2   2 42712.2 863.026   2
  -2  -2  -3 326.123 94.5017   4
  -2  -2  -3 389.008 124.313   2
  -2  -2  -3 218.036 97.3708   5
   2   2   3 242.683 99.8987   2
  -2  -2  -3 228.105 121.771  11
   2   2   3 409.640 131.733  11
  -2  -2  -4 7163.11 375.974   5
  -2  -2  -4 7311.64 391.541   2
   2   2   4 7190.38 394.290  11
   2   2   4 6936.92 376.593   2
   2   2   4 7310.61 340.417   6
  -2  -2  -4 6486.58 369.774  11
   2   2   5 2454.98 216.671   6
  -2  -2  -5 2327.91 251.720  11
  -2  -2  -5 2726.16 259.102   2
   2   2   5 2344.65 237.949   2
   2   2   6 3933.82 324.220   2
   2   2   6 3999.23 283.097   6
  -2  -2  -6 3682.85 279.375   6
  -2  -2  -6 3794.45 329.044  11
   2   2   7 2296.66 241.119   6
  -2  -2  -7 2110.68 235.597   6
  -2  -2  -7 1867.66 252.837  11
   2   2   7 2430.51 277.325   2
  -2  -2  -8 2651.91 277.385   6
   2   2   8 2823.44 297.102   2
   2   2   8 2658.10 310.406   1
   2   2   9 4106.80 369.132   3
  -2  -2  -9 4314.53 370.068   6
  -2  -2  -9 3791.45 376.704  11
   2   2   9 4251.86 408.455   1
  -2  -2 -10-10.6598 124.465  11
  -2  -2 -10 5.24743 94.7488   6
   2   2  10 56.1728 126.517   3
   2   2  10 1.12088 101.225   1
  -2  -2 -11 4815.62 435.473   6
   2   2  11 4756.78 483.120   1
   2   2  11 4375.31 429.747   3
  -2  -2 -11 4872.56 488.010  11
   2   2  12 878.056 244.434   1
  -2  -2 -12 900.018 213.964   6
  -2  -2 -12 750.266 231.956  11
   2   2  12 782.559 211.416   3
  -2  -2 -13 7364.43 593.289   6
   2   2  13 7340.35 594.936   3
  -2  -2 -13 7372.22 656.456  11
   2   2  13 7281.36 622.973   1
   2   2  14 389.413 200.704   1
  -2  -2 -14 528.990 232.809  11
   2   2  14 376.698 208.303   3
  -2  -2 -14 192.077 138.919   6
   2   2  15 5502.52 567.828   3
  -2  -2 -15 5263.56 552.995   6
  -2  -2 -15 5340.90 605.927  11
   2   2  15 5191.65 590.159   1
  -2  -2 -16 60.0666 155.615   6
   2   2  16 133.373 173.649   1
   2   2  16-152.251 145.958   3
  -2  -2 -16 180.064 205.886  11
   2   2  17 149.296 179.171   3
  -2  -2 -17-174.368 168.418   6
   2   2  17 39.4955 177.126   1
  -2  -2 -17-151.413 221.374  11
   2   2  18 195.211 221.637   1
   2   2  18 150.965 180.620   3
  -2  -2 -18 77.5196 156.593   6
  -2  -2 -18 293.045 259.498  11
   2   2  19-208.599 238.731   1
  -2  -2 -19-71.8744 169.155  11
  -2  -2 -19 405.893 241.047   6
   2   2  19 179.253 216.474   3
   2   2  20 2894.24 540.214   1
  -2  -2 -20 2531.72 482.507   6
  -2  -2 -21 420.253 276.531   6
   2   3 -16-86.3679 197.479  11
   2   3 -16-160.528 167.890   6
  -2  -3  16 127.228 194.010   1
   2   3 -15 235.577 180.119   6
   2   3 -15 11.9570 222.834  11
  -2  -3  15 535.544 273.748   1
  -2  -3  14 612.957 273.574   1
   2   3 -14 646.759 298.841  11
   2   3 -13 2376.89 450.840  11
  -2  -3  13 2574.80 434.683   1
  -2  -3  12 2993.88 439.487   1
   2   3 -12 3418.44 519.225  11
   2   3 -12 3619.80 427.064   4
   2   3 -11-43.4927 110.416   4
  -2  -3  11 124.104 115.164   1
   2   3 -11 65.7559 170.085  11
  -2  -3  11 22.5418 166.097  10
  -2  -3  10 1698.04 328.462  10
   2   3 -10 1136.28 281.561  11
   2   3 -10 1442.90 271.737   4
  -2  -3  10 1645.69 285.652   1
  -2  -3   9 4805.92 504.848  10
   2   3  -9 4935.93 532.046  11
  -2  -3   9 4588.96 464.484   1
   2   3  -9 5332.06 478.417   4
  -2  -3   8 123.338 128.997   1
   2   3  -8 172.108 118.792  11
  -2  -3   8 236.346 147.806  10
   2   3  -8 135.658 124.612   4
  -2  -3   7 2311.77 314.403   1
  -2  -3   7 2456.37 334.143  10
   2   3  -7 1928.38 284.489   4
  -2  -3   6 11056.1 642.534  10
   2   3  -6 10311.8 609.470   4
  -2  -3   6 9576.81 612.218   1
  -2  -3   5 2692.51 279.995   7
  -2  -3   5 2645.51 304.230   1
  -2  -3   5 2923.45 328.047  10
   2   3  -5 2927.34 243.268   8
   2   3  -5 2815.81 309.205   4
  -2  -3   4 2997.91 282.107   7
   2   3  -4 3029.73 173.025   5
  -2  -3   4 3249.15 317.417   1
   2   3  -4 3379.02 301.391   2
   2   3  -4 3085.17 216.498   8
   2   3  -4 2725.51 269.975   4
  -2  -3   4 2615.80 305.553  10
  -2  -3   3 410.857 179.964   1
  -2  -3   3 914.524 160.150   7
   2   3  -3 1218.43 185.929   7
   2   3  -3 969.655 94.4040   5
  -2  -3   3 1052.17 186.594  10
  -2  -3   3 842.663 172.640   9
   2   3  -3 877.956 156.578   2
   2   3  -3 1168.00 112.315   8
   2   3  -3 879.215 166.831   4
  -2  -3   2 31460.0 806.994   7
   2   3  -2 33408.4 837.351   7
   2   3  -2 31817.8 844.509   2
   2   3  -2 31192.0 482.417   5
   2   3  -2 36535.4 910.177   1
  -2  -3   2 33029.9 869.307  10
  -2  -3   2 30614.6 888.433   9
   2   3  -2 33166.8 447.637   8
   2   3  -2 31274.3 914.354   4
   2   3  -1 28529.5 479.008   5
  -2  -3   1 27584.1 723.200   7
   2   3  -1 30267.6 771.971   7
  -2  -3   1 27232.7 806.868   9
   2   3  -1 30126.9 840.369   1
  -2  -3   1 31632.4 819.658   2
  -2  -3   1 28543.3 766.075  10
   2   3  -1 28083.7 766.338   2
  -2  -3   1 28788.8 490.956   5
   2   3  -1 27697.8 831.335   4
   2   3  -1 31210.7 811.504  10
  -2  -3   0 18448.6 590.349   7
   2   3   0 20930.4 625.895   7
  -2  -3   0 19796.3 445.274   5
  -2  -3   0 18898.6 643.247   9
  -2  -3   0 20324.2 683.205   4
   2   3   0 21154.3 649.080  10
   2   3   0 17759.5 616.648   2
   2   3   0 19470.9 673.621   4
  -2  -3   0 20856.3 651.555   2
   2   3   0 21321.8 678.731   9
  -2  -3   0 19712.0 625.114  10
   2   3   0 19685.0 441.655   5
  -2  -3  -1 85344.9 1347.49   4
  -2  -3  -1 80276.8 1239.68   7
   2   3   1 78551.5 1281.36   2
  -2  -3  -1 80127.1 1244.47  10
   2   3   1 85989.4 1319.68   9
   2   3   1 81541.1 994.969   5
  -2  -3  -1 85604.5 1029.99   5
  -2  -3  -1 78477.3 1285.97   9
   2   3   1 79390.3 1329.75   4
  -2  -3  -1 83711.6 1326.34   2
   2   3   2 11597.9 499.551  11
  -2  -3  -2 11113.3 481.568   7
   2   3   2 10390.7 401.178   5
   2   3   2 11126.2 500.382   2
  -2  -3  -2 11691.6 503.373   2
   2   3   2 10504.3 472.427   4
  -2  -3  -2 10770.2 480.224   9
  -2  -3  -2 11597.8 479.997   4
  -2  -3  -2 12422.7 437.270   5
   2   3   3 6122.85 373.206  11
  -2  -3  -3 6119.12 387.599  11
  -2  -3  -3 7086.75 356.608   5
   2   3   3 5987.49 372.851   2
  -2  -3  -3 7391.12 403.710   2
   2   3   3 6053.22 352.411   4
  -2  -3  -3 6661.85 351.454   4
   2   3   3 6074.36 339.085   5
  -2  -3  -4 352.552 90.3594   4
   2   3   4 349.179 118.277  11
  -2  -3  -4 521.472 118.625   5
  -2  -3  -4 552.816 154.019  11
   2   3   4 314.381 131.972   2
  -2  -3  -5 2037.41 257.071  11
   2   3   5 2209.10 194.445   6
  -2  -3  -5 2363.17 206.894   4
   2   3   5 2236.36 260.534   2
   2   3   6 3995.56 262.214   6
   2   3   6 3903.38 366.293   2
  -2  -3  -6 3667.64 327.895  11
  -2  -3  -6 3997.50 250.880   4
  -2  -3  -7 280.074 77.4423   4
  -2  -3  -7 123.852 133.191  11
   2   3   7 176.960 155.385   2
   2   3   7 291.112 94.3737   6
   2   3   8 4462.16 400.964   2
   2   3   8 4890.62 335.411   6
  -2  -3  -8 4384.02 400.620  11
  -2  -3  -8 4626.77 253.247   4
  -2  -3  -8 4528.44 340.476   6
   2   3   8 4446.16 412.323   1
  -2  -3  -9 1542.13 143.731   4
  -2  -3  -9 1609.24 219.507   6
   2   3   9 1385.36 258.844   1
   2   3   9 1538.97 245.272   2
  -2  -3  -9 1576.87 271.624  11
  -2  -3 -10 3897.46 348.870   6
  -2  -3 -10 3990.11 430.220  11
  -2  -3 -10 4174.77 224.153   4
   2   3  10 3708.52 419.353   1
   2   3  11 1700.52 277.924   3
  -2  -3 -11 1502.81 241.198   6
  -2  -3 -11 981.987 224.783  11
   2   3  11 1761.80 314.477   1
  -2  -3 -11 1486.73 132.490   4
   2   3  12 9671.20 641.024   3
  -2  -3 -12 10403.0 641.617   6
  -2  -3 -12 9582.51 703.464  11
   2   3  12 8862.43 683.523   1
   2   3  13 556.557 212.676   1
   2   3  13 352.977 188.602   3
  -2  -3 -13-64.6622 202.200  11
  -2  -3 -13 364.236 164.789   6
  -2  -3 -14 1984.33 345.445  11
  -2  -3 -14 2450.03 355.712   6
   2   3  14 2798.32 390.835   3
   2   3  14 2592.70 410.274   1
  -2  -3 -15 252.708 206.191  11
  -2  -3 -15 492.469 185.201   6
   2   3  15 592.269 201.692   3
   2   3  15 568.681 237.962   1
  -2  -3 -16 603.700 191.116  11
  -2  -3 -16 1447.00 303.810   6
   2   3  16 1200.48 334.319   1
   2   3  16 1092.25 297.257   3
  -2  -3 -17-399.975 251.862  11
   2   3  17 161.805 178.087   3
  -2  -3 -17 333.259 184.248   6
   2   3  17-128.846 186.860   1
   2   3  18 2235.07 398.062   3
   2   3  18 2360.87 458.392   1
  -2  -3 -18 1992.73 391.581   6
  -2  -3 -18 1566.97 406.717  11
  -2  -3 -19 332.941 243.129   6
  -2  -3 -19 581.724 270.082  11
   2   3  19 982.764 316.177   1
   2   3  20 1390.74 406.387   1
   2   4 -15 409.349 242.478   6
  -2  -4  15 505.574 292.340   1
   2   4 -15 405.851 229.475  11
   2   4 -14 988.801 335.333   6
   2   4 -14 991.119 342.950  11
  -2  -4  14 624.997 255.098   1
  -2  -4  13 2015.02 416.861   1
   2   4 -13 3361.27 530.559  11
   2   4 -13 3158.91 454.011   4
   2   4 -12 76.5227 128.586   4
  -2  -4  12 213.048 183.933   1
   2   4 -12 348.473 227.186  11
   2   4 -11 1230.77 289.275   4
  -2  -4  11 1654.92 338.850   1
   2   4 -11 1890.83 389.592  11
  -2  -4  10 1510.10 280.426   1
  -2  -4  10 731.501 278.303  10
   2   4 -10 829.856 257.934  11
   2   4 -10 1116.26 272.100   4
   2   4  -9 4717.95 540.955  11
  -2  -4   9 3713.48 515.939  10
   2   4  -9 5229.48 526.922   4
  -2  -4   9 4410.01 461.216   1
  -2  -4   8 183.004 147.549   1
  -2  -4   8 101.716 148.797  10
   2   4  -8 138.496 146.796   4
   2   4  -7 8645.60 559.665   2
  -2  -4   7 7175.36 649.219  10
  -2  -4   7 7989.38 603.617   1
   2   4  -7 8167.42 601.442   4
   2   4  -6 2643.52 315.812   2
  -2  -4   6 2610.01 381.263  10
  -2  -4   6 1501.40 332.237   1
   2   4  -6 3348.27 240.464   5
  -2  -4   6 2474.53 321.516   7
   2   4  -6 2414.89 317.390   4
  -2  -4   5 26.3138 89.5445   1
  -2  -4   5 29.8807 93.4269   7
   2   4  -5 27.6875 75.7626   2
   2   4  -5-0.33286 51.3690   5
  -2  -4   5 41.6651 120.298  10
   2   4  -5 63.2269 68.7665   8
   2   4  -5-14.8440 94.1288   4
   2   4  -4 2127.10 180.039   8
  -2  -4   4 1863.28 252.784   7
   2   4  -4 2297.38 183.729   5
  -2  -4   4 1961.13 281.645   9
   2   4  -4 2146.41 261.566   2
  -2  -4   4 1536.14 258.755  10
   2   4  -4 1868.51 280.854   4
  -2  -4   4 1140.88 245.375   1
  -2  -4   3 12188.3 598.588   7
   2   4  -3 12538.2 577.134   2
  -2  -4   3 12319.0 589.007  10
   2   4  -3 11745.4 644.756   4
   2   4  -3 12700.3 400.388   5
  -2  -4   3 11443.5 633.420   9
   2   4  -3 12886.8 371.665   8
   2   4  -2 346.238 53.8448   5
  -2  -4   2 724.566 159.812   7
   2   4  -2 892.059 171.593   2
  -2  -4   2 729.636 156.696  10
   2   4  -2 700.310 82.1317   8
  -2  -4   2 773.496 207.078   9
   2   4  -2 708.828 180.401   4
  -2  -4   1 7095.48 432.160   7
   2   4  -1 9413.55 504.221   1
   2   4  -1 6711.58 206.793   8
  -2  -4   1 8168.45 341.809   5
   2   4  -1 8068.32 334.054   5
  -2  -4   1 7832.83 432.588  10
   2   4  -1 7484.85 425.613   2
   2   4  -1 8718.75 451.212  10
  -2  -4   1 7009.72 470.627   9
  -2  -4   1 6650.83 221.702   8
   2   4  -1 7030.44 475.368   4
  -2  -4   0 34027.2 846.972  10
  -2  -4   0 31142.2 893.778   7
   2   4   0 32146.1 690.891   5
  -2  -4   0 34581.4 720.037   5
  -2  -4   0 33930.0 957.889   9
   2   4   0 34534.9 877.198  10
  -2  -4   0 32467.1 429.031   8
   2   4   0 30987.7 943.866   4
   2   4   0 31149.8 872.710   2
  -2  -4  -1 8944.91 481.630   7
   2   4   1 9097.96 479.564   2
   2   4   1 9338.49 502.031   4
  -2  -4  -1 9780.60 278.311   8
  -2  -4  -1 9658.11 439.959  10
  -2  -4  -1 10059.1 414.560   5
  -2  -4  -1 8849.23 494.320   9
   2   4   1 9211.51 399.996   5
   2   4   2 1655.39 225.801   4
  -2  -4  -2 1579.87 213.139   7
  -2  -4  -2 1427.92 179.183  10
   2   4   2 1555.78 216.536   2
  -2  -4  -2 1578.80 187.138   5
   2   4   2 1707.00 193.123   5
  -2  -4  -2 1152.81 207.725   9
  -2  -4  -3 4953.97 372.974   7
  -2  -4  -3 5729.08 354.750   5
   2   4   3 4797.84 327.373   5
  -2  -4  -3 4983.84 383.455   9
   2   4   3 5518.14 383.640   2
  -2  -4  -3 5477.63 354.264   4
   2   4   3 5191.36 356.895   4
   2   4   4 10471.9 505.641   5
  -2  -4  -4 11005.9 530.500  11
  -2  -4  -4 11300.0 484.912   4
   2   4   4 10422.9 480.620   4
   2   4   4 10519.2 549.140   2
   2   4   5 14496.7 634.987   5
  -2  -4  -5 15317.2 655.134  11
   2   4   5 15257.7 675.580   2
  -2  -4  -5 16495.0 569.964   4
   2   4   5 14983.6 550.643   4
   2   4   6-41.2841 52.3076   6
   2   4   6 154.256 137.161   2
   2   4   6-83.7428 109.914   5
  -2  -4  -6 9.43710 58.9226   4
   2   4   7 1617.72 170.587   6
   2   4   7 1407.43 269.396   2
  -2  -4  -7 1509.31 237.083  11
  -2  -4  -7 1614.83 168.431   4
   2   4   8 8984.23 418.136   6
   2   4   8 8634.69 591.938   2
  -2  -4  -8 8929.32 582.637  11
  -2  -4  -8 8985.23 368.180   4
   2   4   8 8626.47 596.933   1
   2   4   9 5795.60 487.396   2
  -2  -4  -9 5811.14 484.866  11
  -2  -4  -9 6106.12 283.913   4
   2   4   9 5039.73 479.880   1
  -2  -4 -10 15141.2 814.428  11
  -2  -4 -10 16673.0 427.641   4
  -2  -4 -10 16246.7 657.725   6
   2   4  10 14521.9 827.593   1
   2   4  10 15808.2 847.684   2
  -2  -4 -11 211.953 135.542   6
  -2  -4 -11-114.714 185.602  11
   2   4  11-68.6754 137.725   1
  -2  -4 -11 4.90988 26.6194   4
   2   4  12 9488.23 636.786   3
  -2  -4 -12 9540.35 719.245  11
  -2  -4 -12 11168.4 624.384   6
   2   4  12 9458.99 711.975   1
   2   4  13 6175.78 606.262   1
  -2  -4 -13 6230.12 598.116  11
   2   4  13 6175.27 539.548   3
  -2  -4 -13 6704.75 514.169   6
   2   4  14 209.851 186.256   1
  -2  -4 -14-130.868 202.760  11
   2   4  14 179.073 146.852   3
  -2  -4 -14 47.0978 102.389   6
   2   4  15 313.485 178.092   3
  -2  -4 -15-67.2305 211.385  11
  -2  -4 -15 261.772 153.573   6
   2   4  15 25.9757 174.619   1
  -2  -4 -16 34.6789 122.655   6
   2   4  16 22.1541 147.376   3
  -2  -4 -17 2042.69 410.764  11
  -2  -4 -17 2564.09 408.830   6
   2   4  17 2627.18 467.011   1
   2   4  17 2132.69 383.836   3
  -2  -4 -18-284.060 288.212  11
  -2  -4 -18 480.989 232.789   6
   2   4  18 333.400 249.669   1
   2   4  18-66.3406 171.407   3
   2   4  19 968.312 329.850   1
  -2  -4 -19 1040.96 340.203  11
   2   5 -14 246.633 238.890   6
   2   5 -14 76.7860 181.934  11
   2   5 -13 2114.06 397.630   4
  -2  -5  13 921.876 351.974   1
   2   5 -13 2138.62 452.525   6
   2   5 -13 1894.27 430.665  11
   2   5 -12 71.1347 131.508   4
   2   5 -12 35.9041 159.867  11
  -2  -5  12-66.3903 142.818   1
  -2  -5  11 1616.65 333.786   1
   2   5 -11 1580.77 372.230  11
   2   5 -11 2076.25 390.756   4
  -2  -5  10 347.372 184.213   1
   2   5 -10 315.396 213.451  11
   2   5 -10 555.091 205.748   2
  -2  -5  10 759.588 291.980  10
   2   5 -10 704.750 253.719   4
  -2  -5   9 23.7640 172.511   1
   2   5  -9 285.292 139.456   2
  -2  -5   9 53.0336 161.580  10
   2   5  -9 384.979 218.101  11
   2   5  -9 398.666 208.801   4
  -2  -5   8 15.2817 105.267   1
   2   5  -8 239.730 148.705   2
   2   5  -8 471.223 147.720   5
   2   5  -8 218.715 103.464   4
  -2  -5   8 245.893 161.326  10
  -2  -5   7 1709.99 321.228   1
   2   5  -7 1953.49 280.276   2
   2   5  -7 2179.58 224.474   5
  -2  -5   7 1932.98 332.863  10
   2   5  -7 1615.40 277.504   4
  -2  -5   6 264.530 162.860   7
   2   5  -6 305.633 124.703   2
   2   5  -6 375.916 128.705   5
  -2  -5   6 497.434 172.478  10
   2   5  -6 357.529 159.986   4
  -2  -5   6 284.487 171.418   1
  -2  -5   5 1544.18 266.054   7
   2   5  -5 1777.60 241.200   2
  -2  -5   5 1460.83 270.334  10
   2   5  -5 1908.62 206.811   5
   2   5  -5 1825.99 195.311   8
   2   5  -5 1859.63 313.904   4
  -2  -5   4 3550.71 375.262   7
   2   5  -4 3764.29 246.924   8
   2   5  -4 3319.70 254.373   5
  -2  -5   4 3907.58 374.285  10
   2   5  -4 3456.46 330.185   2
  -2  -5   4 3534.04 406.209   9
   2   5  -4 3006.94 372.032   4
   2   5  -3 977.522 119.566   8
  -2  -5   3 1102.68 217.850   7
   2   5  -3 1083.14 196.950   2
  -2  -5   3 919.573 230.305   9
   2   5  -3 1076.76 222.700   4
  -2  -5   3 848.130 173.637  10
   2   5  -3 850.459 118.241   5
   2   5  -2 2173.72 203.554   5
  -2  -5   2 1948.62 279.097   7
   2   5  -2 2016.24 250.822   2
  -2  -5   2 2463.22 326.271   9
   2   5  -2 2256.54 161.024   8
  -2  -5   2 2022.51 168.990   8
  -2  -5   2 2231.28 252.413  10
   2   5  -2 2099.22 295.819   4
  -2  -5   1 10119.9 449.395   5
  -2  -5   1 8328.72 530.130   7
  -2  -5   1 9256.57 585.897   9
   2   5  -1 9071.96 502.677   2
  -2  -5   1 8890.82 476.639  10
  -2  -5   1 9631.27 301.139   8
   2   5  -1 9185.11 583.807   4
   2   5  -1 9410.03 426.575   5
  -2  -5   0 18192.0 749.925   7
  -2  -5   0 19004.9 631.461   5
   2   5   0 18200.1 716.789   2
   2   5   0 18053.0 603.354   5
  -2  -5   0 18316.9 790.723   9
   2   5   0 18205.2 788.922   4
  -2  -5   0 18547.5 422.504   8
  -2  -5   0 17863.6 647.062  10
  -2  -5  -1 2157.81 226.444   5
  -2  -5  -1 1552.93 230.705   7
  -2  -5  -1 2007.16 156.033   8
  -2  -5  -1 1795.38 217.698  10
  -2  -5  -1 1677.24 245.854   9
   2   5   1 1893.76 210.881   5
   2   5   1 1704.40 227.744   2
   2   5   1 1610.78 236.277   4
  -2  -5  -2 6141.64 297.150   8
  -2  -5  -2 5974.64 442.590   7
   2   5   2 6024.93 381.591   5
   2   5   2 5665.96 412.698   2
   2   5   2 6045.54 440.907   4
  -2  -5  -2 6702.64 391.394  10
  -2  -5  -2 5743.20 443.581   9
  -2  -5  -3 32257.0 1003.58   9
   2   5   3 33415.5 937.395   5
   2   5   3 32689.6 987.373   2
   2   5   3 33088.2 970.608   4
  -2  -5  -3 31608.3 1000.13   7
   2   5   4 618.298 153.942   4
  -2  -5  -4 421.316 152.977   7
  -2  -5  -4 451.237 160.500   9
   2   5   4 419.846 137.963   5
   2   5   4 382.205 152.141   2
   2   5   5-47.5469 81.9719   4
  -2  -5  -5 13.7603 102.484   7
  -2  -5  -5-169.852 139.767  11
   2   5   5 7.30789 100.685   5
   2   5   5 92.2175 126.142   2
   2   5   6 2828.38 187.967   6
  -2  -5  -6 3130.18 344.308  11
  -2  -5  -6 2638.93 245.311   4
   2   5   6 2726.99 322.430   5
   2   5   6 2342.45 311.845   2
   2   5   6 2530.25 258.821   4
   2   5   7 31413.1 648.608   6
   2   5   7 27602.2 1016.11   5
  -2  -5  -7 29047.1 992.909  11
   2   5   7 27601.0 1063.36   2
  -2  -5  -7 31837.5 800.359   4
  -2  -5  -8 933.119 214.929  11
   2   5   8 791.410 218.584   1
   2   5   8 862.577 123.453   6
   2   5   8 995.688 250.480   2
  -2  -5  -8 1131.12 143.313   4
  -2  -5  -9 8632.75 600.428  11
   2   5   9 9764.21 669.553   2
   2   5   9 9674.71 673.489   1
  -2  -5 -10 8293.21 618.190  11
   2   5  10 8148.40 658.294   2
   2   5  10 7884.69 626.344   1
   2   5  11 984.308 240.167   1
  -2  -5 -11 1260.61 256.081  11
  -2  -5 -12 4143.00 477.051  11
  -2  -5 -12 4429.69 370.980   6
   2   5  12 3842.92 480.935   1
   2   5  13 1206.43 297.363   1
  -2  -5 -13 787.239 248.363  11
  -2  -5 -13 1970.26 287.960   6
   2   5  14-170.273 171.771   1
  -2  -5 -14-202.077 207.846  11
  -2  -5 -14 258.347 169.539   6
   2   5  14 70.4564 124.360   3
   2   5  15 18.1753 169.398   1
   2   5  15-138.800 123.316   3
  -2  -5 -15 5.17507 118.450   6
  -2  -5 -15 34.2146 157.845  11
   2   5  16 793.697 245.316   3
  -2  -5 -16 828.193 223.187   6
  -2  -5 -16 1277.31 339.298  11
   2   5  16 1043.14 318.216   1
  -2  -5 -17 251.551 187.240  11
   2   5  17 1256.04 342.397   1
   2   5  17 1334.57 296.462   3
   2   5  18 475.612 241.797   1
  -2  -5 -18 107.712 221.185  11
   2   5  19 2466.69 489.279   1
  -2  -5 -19 2395.49 479.524  11
   2   6 -14 162.702 204.795  11
   2   6 -13 282.197 220.922   4
   2   6 -13 187.332 238.898   6
   2   6 -13 215.198 232.910  11
   2   6 -12 192.593 201.952   4
   2   6 -12-110.625 174.219   6
   2   6 -12 518.060 312.468  11
   2   6 -11 706.201 263.181  11
   2   6 -11 813.014 298.861   4
  -2  -6  10 2.95928 142.559   1
   2   6 -10 234.062 219.726  11
  -2  -6  10-175.436 193.868  10
   2   6 -10 203.620 186.439   4
   2   6  -9-52.0147 159.868   4
  -2  -6   9 433.720 205.878  10
   2   6  -9 32.5356 92.0208   2
   2   6  -9 206.690 179.007  11
  -2  -6   9 225.024 188.033   1
   2   6  -8 1156.77 238.570   2
  -2  -6   8 1438.85 294.761  10
   2   6  -8 774.012 208.601   4
   2   6  -7 351.508 124.803   5
  -2  -6   7 232.772 162.230   7
   2   6  -7 408.585 159.387   2
  -2  -6   7 330.893 210.971  10
   2   6  -7 151.984 114.559   4
  -2  -6   6 156.263 141.913  10
  -2  -6   6 126.281 129.880   7
   2   6  -6 184.863 118.840   2
   2   6  -6 200.312 101.319   5
   2   6  -6 227.673 188.293   4
  -2  -6   5 3223.22 394.968   7
   2   6  -5 3449.41 295.916   5
  -2  -6   5 3121.03 384.524  10
   2   6  -5 3333.64 351.970   2
   2   6  -5 3274.53 415.788   4
   2   6  -4 2093.33 336.328   4
  -2  -6   4 2260.10 326.529   7
   2   6  -4 2131.16 222.272   5
   2   6  -4 2483.14 302.932   2
  -2  -6   4 1948.14 295.751  10
  -2  -6   4 2943.76 404.729   9
   2   6  -4 2382.81 212.407   8
  -2  -6   3 3330.44 386.062   7
  -2  -6   3 4040.41 362.760  10
  -2  -6   3 3560.36 422.553   9
   2   6  -3 3850.98 353.329   2
   2   6  -3 3289.58 415.785   4
   2   6  -3 4307.31 327.124   5
   2   6  -3 3999.10 261.178   8
  -2  -6   2 512.502 140.704  10
   2   6  -2 370.357 62.8217   8
   2   6  -2 566.120 152.549   2
  -2  -6   2 355.670 127.905   7
   2   6  -2 535.511 125.038   5
  -2  -6   2 1014.74 246.931   9
  -2  -6   2 634.510 112.405   8
   2   6  -2 461.659 182.055   4
   2   6  -1 7083.67 425.769   5
  -2  -6   1 7285.95 538.803   7
   2   6  -1 7688.61 503.318   2
  -2  -6   1 6976.84 544.472   9
  -2  -6   1 7845.41 324.625   8
   2   6  -1 6918.41 540.653   4
  -2  -6   1 7466.18 444.444  10
   2   6   0 1304.76 205.416   2
   2   6   0 1291.49 198.727   5
  -2  -6   0 1155.81 224.492   7
  -2  -6   0 1350.77 259.488   9
  -2  -6   0 1144.04 179.555  10
   2   6   0 1274.26 247.515   4
  -2  -6   0 1208.64 127.830   8
  -2  -6  -1 3655.69 388.603   7
   2   6   1 3768.00 324.646   5
  -2  -6  -1 3812.47 318.287  10
   2   6   1 3576.94 348.988   2
  -2  -6  -1 3872.60 247.572   8
  -2  -6  -1 4154.42 419.947   9
   2   6   1 3874.96 392.545   4
  -2  -6  -2 18968.9 855.343   7
   2   6   2 20074.5 762.524   5
  -2  -6  -2 19416.8 689.416  10
   2   6   2 18310.1 776.558   2
  -2  -6  -2 19243.6 869.686   9
   2   6   2 18849.1 824.110   4
  -2  -6  -2 19827.3 588.046   8
   2   6   3 1597.01 227.383   5
  -2  -6  -3 1552.09 208.671  10
  -2  -6  -3 1612.34 269.038   7
  -2  -6  -3 1826.41 198.186   8
  -2  -6  -3 1824.82 272.465   9
   2   6   3 1507.37 240.183   2
   2   6   3 1756.20 252.730   4
  -2  -6  -4 7841.77 553.630   7
  -2  -6  -4 7577.52 535.808   9
   2   6   4 8119.79 515.214   4
   2   6   4 8292.98 550.242   2
   2   6   4 8470.45 534.564   5
   2   6   5 288.271 122.425   4
  -2  -6  -5 395.565 179.743   7
  -2  -6  -5 257.723 109.522  11
   2   6   5 518.598 182.145   2
  -2  -6  -5 247.666 129.641   9
   2   6   5 409.400 156.436   5
   2   6   6 1750.73 275.993   5
   2   6   6 1335.99 217.137   4
  -2  -6  -6 1334.02 254.052   7
   2   6   6 1619.76 133.722   6
  -2  -6  -6 1525.09 242.892  11
   2   6   6 1616.36 264.192   2
   2   6   7 915.025 177.019   4
  -2  -6  -7 916.096 225.758   7
   2   6   7 1111.73 111.159   6
  -2  -6  -7 1049.71 238.244  11
   2   6   7 1017.65 226.114   5
   2   6   7 1227.71 282.248   2
   2   6   8 232.917 165.056   1
   2   6   8-24.3567 36.0490   6
  -2  -6  -8 121.118 173.229  11
   2   6   8-86.1046 107.095   5
   2   6   8-244.346 171.497   2
  -2  -6  -9 12675.5 740.289  11
   2   6   9 10652.5 736.318   5
   2   6   9 11570.7 770.272   2
   2   6   9 11475.6 757.394   1
   2   6  10 534.099 195.742   1
   2   6  10 864.990 235.217   2
  -2  -6 -10 595.177 234.967  11
   2   6  11 2627.60 384.926   1
  -2  -6 -11 4398.36 561.878  11
  -2  -6 -12 4613.40 522.308  11
   2   6  12 3986.43 503.150   1
  -2  -6 -13 1416.14 295.179  11
   2   6  13 964.530 248.558   1
   2   6  14 1147.83 319.486   1
  -2  -6 -14 1326.35 314.953  11
   2   6  15 381.675 244.488   1
   2   6  15 405.395 191.117   3
  -2  -6 -15-3.04320 180.943  11
   2   6  16-74.3036 122.235   3
  -2  -6 -16-200.309 247.690  11
   2   6  16 242.515 191.480   1
  -2  -6 -17 132.509 238.069  11
   2   6  17-39.5609 188.965   1
  -2  -6 -18 350.768 255.724  11
   2   6  18 1064.98 340.064   1
  -2  -6 -19 105.541 199.489  11
   2   6  19 273.667 241.633   1
   2   7 -13 306.131 286.278   4
   2   7 -13 193.801 228.741  11
   2   7 -12 1.08873 184.110   6
   2   7 -12 390.830 264.679  11
   2   7 -12 537.197 278.279   4
   2   7 -11 964.172 338.871  11
   2   7 -11 698.808 288.063   6
   2   7 -11 1222.78 370.743   4
   2   7 -10 236.820 204.200  11
   2   7 -10-5.48614 139.420   4
   2   7  -9 412.757 211.496  11
  -2  -7   9 474.790 191.755  10
   2   7  -9 154.200 141.780   4
  -2  -7   8 199.558 171.801  10
   2   7  -8 47.7466 131.541  11
   2   7  -8-12.0944 152.191   4
  -2  -7   7 780.561 257.421   7
   2   7  -7 709.558 178.158   2
  -2  -7   7 353.303 203.588  10
   2   7  -7 1038.43 321.676   4
  -2  -7   6 750.976 201.743  10
  -2  -7   6 650.094 226.896   7
   2   7  -6 688.685 194.012   2
   2   7  -6 215.661 150.242   4
   2   7  -5 2747.08 333.240   2
  -2  -7   5 2364.77 375.638   7
   2   7  -5 2490.42 274.451   5
  -2  -7   5 2927.53 350.891  10
   2   7  -5 2841.03 430.010   4
   2   7  -4 59.6214 95.5346   2
  -2  -7   4-46.0169 123.418   7
   2   7  -4 35.5366 139.725   4
   2   7  -4 288.022 146.763   5
  -2  -7   4 9.48849 116.144  10
  -2  -7   4 17.7736 157.745   9
   2   7  -3 254.702 115.220   2
  -2  -7   3 253.553 160.380   7
  -2  -7   3 473.180 160.146  10
   2   7  -3 372.777 126.083   5
  -2  -7   3 130.988 160.417   9
  -2  -7   3 298.261 97.1222   8
   2   7  -3 283.625 165.875   4
   2   7  -2 435.518 149.507   2
   2   7  -2 537.219 144.967   5
  -2  -7   2 572.499 181.160   7
  -2  -7   2 411.095 211.459   9
  -2  -7   2 559.612 164.784  10
  -2  -7   2 497.196 106.331   8
   2   7  -2 255.338 171.408   4
   2   7  -1 972.529 203.395   2
  -2  -7   1 1182.93 255.960   7
   2   7  -1 1045.65 187.036   5
  -2  -7   1 1157.65 267.529   9
  -2  -7   1 1405.47 164.094   8
  -2  -7   1 1203.57 196.123  10
   2   7  -1 749.678 219.995   4
   2   7   0 188.396 122.639   2
  -2  -7   0 56.0203 107.980   7
   2   7   0 228.073 115.310   5
  -2  -7   0 344.009 115.184  10
  -2  -7   0 393.061 169.631   9
   2   7   0 256.293 169.502   4
  -2  -7   0 197.183 76.8774   8
   2   7   1 4370.61 384.677   5
  -2  -7  -1 4658.04 466.097   7
  -2  -7  -1 5102.59 316.251   8
   2   7   1 4339.24 447.154   4
  -2  -7  -1 4705.50 476.808   9
  -2  -7  -1 4913.54 353.602  10
   2   7   1 4732.67 411.006   2
  -2  -7  -2 35.3573 59.7449   8
  -2  -7  -2 121.780 133.678   7
  -2  -7  -2 17.6533 67.1206  10
   2   7   2 36.2450 127.809   4
   2   7   2 177.626 121.448   5
  -2  -7  -2 105.333 175.591   9
   2   7   2 43.1174 98.3315   2
  -2  -7  -3 7962.64 593.487   9
  -2  -7  -3 7749.37 588.019   7
  -2  -7  -3 8034.07 461.653  10
   2   7   3 8402.57 572.976   2
   2   7   3 8246.13 549.376   5
   2   7   3 7423.31 548.978   4
  -2  -7  -3 8385.23 450.310   8
  -2  -7  -4 11866.0 750.083   7
   2   7   4 11083.0 658.095   5
   2   7   4 11934.5 711.043   2
  -2  -7  -4 12060.9 734.798   9
  -2  -7  -4 11324.6 559.596  10
  -2  -7  -4 12416.7 576.060   8
   2   7   4 12088.5 684.286   4
  -2  -7  -5 8155.91 618.362   7
  -2  -7  -5 7033.43 562.650   9
   2   7   5 7407.05 572.996   2
   2   7   5 7772.76 531.718   4
   2   7   5 8129.65 583.929   5
   2   7   6 188.092 133.220   4
  -2  -7  -6 138.811 135.515   7
   2   7   6 263.220 63.3285   6
   2   7   6 351.860 170.950   2
   2   7   6 241.594 137.715   5
  -2  -7  -6 307.897 174.345   9
  -2  -7  -6-431.266 221.311  11
  -2  -7  -7 4621.31 489.759   7
   2   7   7 4328.07 169.269   6
  -2  -7  -7 3787.38 377.839  11
   2   7   7 4658.53 463.710   5
   2   7   7 4389.27 382.756   4
   2   7   7 4210.09 468.638   2
  -2  -7  -8 16411.2 926.612   7
  -2  -7  -8 18283.3 874.391  11
   2   7   8 17989.8 962.237   2
   2   7   8 17755.2 930.227   5
   2   7   8 16741.2 933.519   1
   2   7   8 17847.1 728.495   4
   2   7   9 456.666 183.332   1
  -2  -7  -9 298.841 186.585   7
   2   7   9 292.971 163.268   2
   2   7   9 81.3614 148.666   5
  -2  -7 -10 8297.40 632.645  11
   2   7  10 6088.86 608.713   5
   2   7  10 6411.50 631.873   2
   2   7  10 5415.58 559.981   1
  -2  -7 -11 7115.18 646.484  11
   2   7  11 3869.15 488.472   1
  -2  -7 -12 3615.74 466.975  11
   2   7  12 2862.04 442.531   1
  -2  -7 -13 2615.29 450.832  11
   2   7  13 732.738 258.906   1
   2   7  14 2459.65 427.404   1
  -2  -7 -14 2393.24 445.071  11
   2   7  15 2094.74 413.970   1
  -2  -7 -15 2148.91 420.827  11
   2   7  16 378.572 260.137   3
   2   7  16 126.209 160.887   1
  -2  -7 -17 3658.49 565.494  11
   2   7  17 3338.94 559.172   1
   2   7  18 1452.59 420.970   1
  -2  -7 -18 1745.76 449.994  11
  -2  -7 -19 1062.01 385.699  11
   2   8 -13 442.533 299.125   4
   2   8 -12 359.997 275.910  11
   2   8 -12 50.9336 178.078   4
   2   8 -11 907.890 341.212   6
   2   8 -11 625.881 281.783  11
   2   8 -11 789.104 259.553   4
   2   8 -10 333.257 205.365   6
   2   8 -10-98.9539 246.316  11
   2   8 -10 55.0602 192.599   4
   2   8  -9-85.7617 212.166  11
   2   8  -9 136.619 159.164   6
   2   8  -9 425.481 281.126   4
  -2  -8   8 162.462 184.773  10
   2   8  -8 544.718 208.321  11
   2   8  -8 594.642 277.256   4
  -2  -8   7-228.984 178.546   7
  -2  -8   7 69.9300 134.773  10
   2   8  -7 170.606 201.367   4
  -2  -8   6 161.497 114.695  10
   2   8  -6 0.59201 127.917   4
   2   8  -5 111.259 100.787   2
  -2  -8   5-64.2487 140.925   7
  -2  -8   5 77.0985 132.383  10
   2   8  -5 16.0613 181.566   4
   2   8  -4 804.699 187.330   2
  -2  -8   4 1079.90 217.032  10
  -2  -8   4 799.838 249.512   7
   2   8  -4 1057.78 209.564   5
  -2  -8   4 722.347 238.182   9
   2   8  -4 702.421 248.474   4
  -2  -8   3 5.74935 134.351   7
   2   8  -3 304.899 167.161   4
  -2  -8   3 278.532 135.284  10
   2   8  -3 260.958 143.143   5
  -2  -8   3 203.499 176.697   9
  -2  -8   3 195.573 100.820   8
   2   8  -3 175.066 132.469   2
  -2  -8   2 1770.41 304.113   7
   2   8  -2 2035.38 285.323   2
  -2  -8   2 1730.09 354.882   9
  -2  -8   2 1996.70 250.179  10
   2   8  -2 2244.27 290.794   5
  -2  -8   2 2125.42 221.690   8
   2   8  -2 1672.62 336.096   4
  -2  -8   1 1235.71 270.394   7
  -2  -8   1 1693.69 346.139   9
   2   8  -1 1483.12 255.907   5
  -2  -8   1 1709.32 240.730  10
  -2  -8   1 1748.49 198.415   8
   2   8  -1 1404.07 307.294   4
   2   8  -1 1585.99 267.681   2
  -2  -8   0 538.526 120.500   8
  -2  -8   0 327.763 144.239   7
  -2  -8   0 755.041 166.926  10
   2   8   0 502.040 164.562   5
  -2  -8   0 359.437 203.820   9
   2   8   0 537.250 163.731   2
   2   8   0 464.146 161.306   4
  -2  -8  -1 133.941 134.665   7
  -2  -8  -1 321.148 113.243   8
  -2  -8  -1 325.318 109.167  10
   2   8   1 128.387 114.622   5
   2   8   1 431.571 154.272   2
  -2  -8  -1 267.380 164.856   9
   2   8   1 265.347 164.133   4
  -2  -8  -2 280.780 150.907   7
  -2  -8  -2 380.198 113.493  10
  -2  -8  -2 299.755 101.969   8
  -2  -8  -2 190.908 179.708   9
   2   8   2 413.875 166.928   2
   2   8   2 300.765 167.716   4
   2   8   2 270.492 150.740   5
  -2  -8  -3 1292.06 199.997   8
  -2  -8  -3 1439.15 294.263   7
   2   8   3 1413.64 250.586   5
  -2  -8  -3 1041.35 257.051   9
   2   8   3 1188.76 241.328   2
   2   8   3 1340.86 262.862   4
  -2  -8  -3 1072.40 181.540  10
  -2  -8  -4 1566.86 229.497   8
  -2  -8  -4 1446.13 283.897   7
  -2  -8  -4 1150.04 273.855   9
   2   8   4 1579.92 269.636   5
   2   8   4 1627.86 289.893   2
  -2  -8  -4 1360.28 224.973  10
   2   8   4 1489.87 273.467   4
  -2  -8  -5 3770.88 361.623   8
   2   8   5 2921.96 363.576   4
   2   8   5 2961.09 398.308   2
   2   8   5 2765.69 373.629   5
  -2  -8  -5 2835.76 399.830   9
  -2  -8  -5 2834.06 418.024   7
   2   8   6-88.7422 114.483   4
  -2  -8  -6 84.3962 172.504   7
  -2  -8  -6 129.634 162.180   9
   2   8   6 84.6257 150.087   2
   2   8   6 74.6576 146.486   5
  -2  -8  -7 3158.02 423.323   9
  -2  -8  -7 3042.90 426.354   7
   2   8   7 3404.69 435.940   2
   2   8   7 3171.46 353.709   4
   2   8   7 2768.70 396.957   5
   2   8   8 460.516 147.115   4
   2   8   8 210.821 141.356   1
  -2  -8  -8 189.939 140.885   7
  -2  -8  -8-109.728 218.181  11
   2   8   8 526.674 228.424   2
   2   8   8 247.675 170.067   5
  -2  -8  -9 125.104 119.205  11
   2   8   9 107.459 90.4671   4
  -2  -8  -9 273.671 161.003   7
   2   8   9 414.612 186.872   1
   2   8   9 79.2405 159.432   2
   2   8   9 310.945 224.220   5
   2   8  10 1778.52 360.365   5
  -2  -8 -10 2456.88 373.252  11
  -2  -8 -10 1779.95 325.042   7
   2   8  10 1773.73 342.345   1
   2   8  10 1782.33 351.172   2
   2   8  11 1855.65 361.064   1
  -2  -8 -11 1479.18 320.771   7
  -2  -8 -11 2099.38 383.569  11
   2   8  11 1608.35 318.522   5
  -2  -8 -12 136.390 153.486   7
   2   8  12 143.716 158.649   1
   2   8  13 636.730 235.094   1
  -2  -8 -13 2057.80 429.842  11
  -2  -8 -14 1405.44 380.332  11
   2   8  14 1388.54 341.018   1
   2   8  15-159.460 212.438   1
  -2  -8 -15 1658.43 410.360  11
  -2  -8 -16 5531.31 687.575  11
   2   8  16 4291.79 615.694   1
  -2  -8 -17 4022.84 605.282  11
   2   8  17 2922.09 565.012   1
  -2  -8 -18 1924.91 491.500  11
  -2  -8 -19 1406.39 485.745  11
   2   9 -11 90.0003 219.221  11
   2   9 -11-386.556 296.770   4
   2   9 -10 145.772 208.881   6
   2   9 -10-96.2409 195.493  11
   2   9 -10-293.101 214.828   4
   2   9  -9 606.702 236.336  11
   2   9  -9 871.462 320.131   4
   2   9  -9 808.982 344.937   6
   2   9  -8 332.566 232.679   6
   2   9  -8 239.185 228.545   4
   2   9  -8 40.0858 159.079  11
  -2  -9   7 1370.97 361.416   7
   2   9  -7 1447.06 337.643   6
   2   9  -7 1037.91 313.072   4
  -2  -9   6 1123.67 337.103   7
   2   9  -6 639.518 273.498   4
  -2  -9   5 948.992 280.879   7
  -2  -9   5 644.695 196.028  10
   2   9  -5 514.658 216.261   4
  -2  -9   4 310.444 215.296   7
  -2  -9   4 133.329 180.961   9
  -2  -9   4 245.125 127.465  10
   2   9  -4 631.201 310.348   4
  -2  -9   3 808.632 264.800   7
  -2  -9   3 1322.97 232.286  10
   2   9  -3 1181.68 242.380   5
  -2  -9   3 943.947 328.102   9
   2   9  -3 853.557 278.506   4
   2   9  -3 1019.24 250.456   2
  -2  -9   2 1300.39 326.514   7
  -2  -9   2 2192.75 267.376  10
   2   9  -2 1402.31 272.312   5
  -2  -9   2 1495.09 336.591   9
   2   9  -2 1564.49 263.335   2
   2   9  -2 1536.78 357.726   4
  -2  -9   1 92.8420 143.277   7
   2   9  -1 315.995 153.861   5
  -2  -9   1 154.610 199.209   9
  -2  -9   1 332.518 129.160  10
   2   9  -1 254.119 118.706   2
  -2  -9   1 337.706 129.000   8
   2   9  -1 63.7332 131.888   4
  -2  -9   0 244.403 107.747  10
  -2  -9   0 254.617 169.805   7
   2   9   0 660.627 269.550   4
  -2  -9   0-7.86004 157.573   9
   2   9   0 338.400 151.528   2
   2   9   0 166.278 123.233   5
  -2  -9   0 70.0965 74.0218   8
  -2  -9  -1-9.17742 67.3710   8
  -2  -9  -1-62.4188 130.914   7
  -2  -9  -1 30.5226 73.8284  10
   2   9   1 220.642 152.067   2
   2   9   1-0.24897 130.884   5
  -2  -9  -1 41.6873 165.687   9
   2   9   1-8.18506 150.449   4
  -2  -9  -2 2039.68 234.917  10
  -2  -9  -2 2022.51 363.027   7
   2   9   2 2028.74 326.792   5
  -2  -9  -2 1838.71 332.282   9
   2   9   2 2127.76 329.074   2
  -2  -9  -2 2040.80 261.034   8
   2   9   2 1908.28 345.747   4
  -2  -9  -3 941.564 187.243   8
  -2  -9  -3 1243.59 302.139   7
   2   9   3 1015.59 242.259   5
  -2  -9  -3 821.619 151.172  10
   2   9   3 932.720 242.882   2
  -2  -9  -3 933.823 254.849   9
   2   9   3 1084.45 259.443   4
  -2  -9  -4 2112.67 275.632   8
   2   9   4 2059.84 354.261   5
  -2  -9  -4 1630.64 343.151   7
  -2  -9  -4 2194.40 247.222  10
  -2  -9  -4 2037.57 370.306   9
   2   9   4 2350.64 359.545   2
   2   9   4 2103.36 346.659   4
   2   9   5 1197.29 281.001   5
  -2  -9  -5 1813.49 359.924   7
   2   9   5 1775.25 332.361   2
  -2  -9  -5 1760.38 264.226   8
  -2  -9  -5 1645.29 333.639   9
  -2  -9  -5 1437.84 224.710  10
   2   9   5 1678.76 320.089   4
   2   9   6 2365.57 349.268   4
  -2  -9  -6 2464.11 327.654   8
  -2  -9  -6 2290.70 412.402   7
   2   9   6 2455.11 406.087   2
  -2  -9  -6 2142.95 376.897   9
   2   9   6 2518.88 384.704   5
   2   9   7 2616.91 391.518   2
  -2  -9  -7 2034.09 374.823   7
   2   9   7 2808.21 366.140   4
   2   9   7 2205.81 369.007   5
   2   9   7 2218.87 361.593   1
  -2  -9  -7 2121.18 374.959   9
  -2  -9  -8 422.495 198.783   7
   2   9   8 592.915 217.995   1
   2   9   8 627.366 224.308   2
   2   9   8 785.868 270.357   5
  -2  -9  -8 334.954 179.784   9
   2   9   8 640.233 220.556   4
   2   9   9 480.121 175.914   4
  -2  -9  -9 485.144 207.979   7
  -2  -9  -9 105.010 222.287  11
   2   9   9 618.613 253.509   2
   2   9   9 572.881 210.987   1
   2   9   9 756.113 252.438   5
  -2  -9  -9 568.018 231.905   9
   2   9  10 705.148 164.515   4
   2   9  10 423.912 209.908   1
  -2  -9 -10 754.476 249.579   7
   2   9  10 419.644 246.458   2
  -2  -9 -10 327.127 129.211  11
   2   9  10 372.273 225.914   5
   2   9  11 158.352 194.845   5
  -2  -9 -11 30.9648 166.727   7
  -2  -9 -11-12.5222 153.925  11
   2   9  11 118.073 161.784   1
  -2  -9 -12 390.932 243.655  11
  -2  -9 -12 500.405 220.786   7
   2   9  12 418.736 213.675   1
   2   9  12-184.717 226.104   5
  -2  -9 -13 564.339 242.240   7
   2   9  13 86.8470 194.951   1
  -2  -9 -13 919.799 306.137  11
   2   9  14 1108.25 341.580   1
  -2  -9 -14 1445.78 395.811   7
  -2  -9 -14 1485.13 411.137  11
  -2  -9 -15 924.979 345.996   7
  -2  -9 -15 1682.18 426.386  11
  -2  -9 -16 5938.63 747.685   7
  -2  -9 -16 8181.11 810.250  11
   2   9  16 5646.83 737.749   1
  -2  -9 -17 1449.48 396.873   7
   2   9  17 1428.76 410.959   1
  -2  -9 -18 2128.50 522.040  11
  -2  -9 -19 5583.14 761.269  11
   2  10 -10 48.9265 179.853  11
   2  10  -9 269.921 179.692  11
   2  10  -9 170.398 199.701   6
   2  10  -8 827.610 332.166  11
   2  10  -8 462.614 296.856   6
   2  10  -8 189.374 191.326   4
  -2 -10   7 1667.34 427.958   7
   2  10  -7 2377.88 472.431   6
   2  10  -7 2317.58 443.443  11
   2  10  -7 1427.48 413.209   4
  -2 -10   6 1107.71 335.452   7
   2  10  -6 1409.08 378.037   6
   2  10  -6 850.934 295.639   4
  -2 -10   5 90.0778 155.882   7
   2  10  -5-60.5059 152.131   6
   2  10  -5-46.8865 198.143   4
   2  10  -4 401.685 219.656   6
  -2 -10   4 672.472 251.648   7
  -2 -10   4 199.727 166.403   9
   2  10  -4 673.807 273.928   4
  -2 -10   3 1965.74 414.352   7
   2  10  -3 2004.00 367.889   6
  -2 -10   3 2029.04 454.586   9
   2  10  -3 1969.27 434.876   4
   2  10  -2 726.210 233.201   5
  -2 -10   2 893.609 287.693   7
   2  10  -2 653.932 217.932   6
  -2 -10   2 453.997 220.666   9
   2  10  -2 606.773 256.650   4
  -2 -10   1 1669.44 377.694   7
   2  10  -1 1776.76 299.273   2
   2  10  -1 1763.47 317.417   6
   2  10  -1 1624.05 297.305   5
  -2 -10   1 1641.59 377.795   9
   2  10  -1 1634.17 369.682   4
   2  10   0-40.8447 123.963   6
  -2 -10   0-11.5573 167.770   7
   2  10   0 77.4842 133.591   5
  -2 -10   0 96.2235 181.886   9
   2  10   0-15.4207 110.004   2
   2  10   0 9.31039 143.237   4
  -2 -10  -1 203.474 203.535   7
  -2 -10  -1 604.305 222.412   9
   2  10   1 169.459 138.808   2
   2  10   1 243.716 162.658   5
   2  10   1 329.973 217.695   4
  -2 -10  -1 237.720 113.139   8
   2  10   2 556.687 188.186   2
   2  10   2 535.343 195.807   5
  -2 -10  -2 284.096 189.997   7
  -2 -10  -2 736.193 171.834   8
  -2 -10  -2 800.342 287.666   9
   2  10   2 559.804 225.521   4
  -2 -10  -3 828.543 195.678   8
   2  10   3 821.492 251.719   2
  -2 -10  -3 1127.09 337.142   9
  -2 -10  -3 489.980 201.488   7
   2  10   3 662.415 179.249   5
   2  10   3 611.521 224.717   4
  -2 -10  -4 1870.63 300.326   8
  -2 -10  -4 1685.47 348.483   7
   2  10   4 1658.89 335.426   5
   2  10   4 1672.29 319.402   2
  -2 -10  -4 1096.09 291.282   9
   2  10   4 1466.97 322.528   4
  -2 -10  -5 51.4768 180.408   7
  -2 -10  -5 28.4783 99.6231   8
   2  10   5-114.567 181.517   5
   2  10   5 120.823 170.602   2
  -2 -10  -5-96.1722 190.078   9
   2  10   5 228.696 188.574   4
  -2 -10  -6 3892.10 547.443   7
  -2 -10  -6 3778.93 507.975   9
   2  10   6 4055.46 516.225   5
   2  10   6 3704.03 480.979   2
   2  10   6 3451.62 449.123   4
  -2 -10  -6 4282.26 443.137   8
   2  10   6 3906.25 465.223   1
   2  10   7 2675.37 382.570   4
  -2 -10  -7 2998.09 381.332   8
  -2 -10  -7 2294.50 414.967   7
   2  10   7 2919.43 425.324   1
   2  10   7 2622.50 411.796   2
   2  10   7 3131.52 464.099   5
  -2 -10  -7 2176.92 398.029   9
   2  10   8 68.8055 105.955   4
  -2 -10  -8 53.0762 153.941   8
  -2 -10  -8-72.4503 175.982   7
   2  10   8-125.484 165.625   2
   2  10   8 332.329 197.212   5
   2  10   8 370.578 188.229   1
  -2 -10  -8 295.760 207.198   9
   2  10   9 616.598 194.512   4
  -2 -10  -9 657.846 270.661   7
   2  10   9 499.071 193.360   1
   2  10   9 865.034 301.064   2
   2  10   9 782.096 279.854   5
  -2 -10  -9 603.275 257.501   9
   2  10  10 1434.33 343.060   2
   2  10  10 1805.45 371.566   1
  -2 -10 -10 1748.39 384.579   7
   2  10  10 1872.41 384.770   5
  -2 -10 -10 1569.76 372.591   9
  -2 -10 -11 3008.74 506.005   7
  -2 -10 -11 2565.39 396.910  11
   2  10  11 3350.21 511.861   1
  -2 -10 -11 3562.62 541.169   9
   2  10  11 3525.24 536.697   5
  -2 -10 -12-281.880 238.340   7
  -2 -10 -12-147.252 213.144  11
   2  10  12 159.340 201.881   1
   2  10  12 90.7352 223.248   5
  -2 -10 -13 142.893 169.538   7
   2  10  13 211.383 170.527   1
   2  10  14 658.821 296.146   1
  -2 -10 -14 657.778 287.115   7
  -2 -10 -14 331.586 248.665  11
   2  10  15-12.9472 217.737   1
  -2 -10 -15 182.783 236.520   7
  -2 -10 -15 378.982 268.983  11
  -2 -10 -16 1117.79 346.311   7
   2  10  16 1531.49 415.742   1
  -2 -10 -17 1333.13 366.523   7
  -2 -10 -17 1770.24 454.359  11
  -2 -10 -18 2754.50 569.670  11
   2  11  -8-295.822 258.158   6
  -2 -11   7 389.646 284.004   7
   2  11  -7 439.921 225.445   6
   2  11  -6-1.15899 187.143   6
   2  11  -6-200.538 258.728   4
  -2 -11   5 252.428 186.841   7
   2  11  -5-149.301 245.681   4
   2  11  -5 383.160 228.451   6
   2  11  -4 865.882 262.612   6
  -2 -11   4 1185.91 398.008   9
  -2 -11   4 838.292 297.644   7
   2  11  -4 871.386 320.075   4
   2  11  -3 102.635 182.568   6
  -2 -11   3 611.597 298.293   7
  -2 -11   3 259.379 248.464   9
   2  11  -3-115.366 235.057   4
  -2 -11   2 637.333 281.648   7
  -2 -11   2 1279.30 393.736   9
   2  11  -2 1030.99 334.946   4
  -2 -11   1-89.2264 174.959   7
  -2 -11   1 137.611 212.119   9
   2  11  -1 316.152 189.202   5
   2  11  -1-33.3976 167.156   4
  -2 -11   0 1232.99 347.574   7
   2  11   0 1370.81 343.606   4
   2  11   0 1472.41 324.500   5
  -2 -11   0 1171.30 359.112   9
  -2 -11  -1 284.818 207.100   7
   2  11   1 90.3456 149.243   5
  -2 -11  -1-17.5118 175.181   9
   2  11   1 255.448 188.817   2
   2  11   1-48.3579 218.865   4
  -2 -11  -2 189.329 158.741   9
  -2 -11  -2 146.240 214.046   7
   2  11   2 401.066 197.609   5
   2  11   2 32.6518 142.442   2
   2  11   2 390.904 212.303   4
   2  11   3 641.801 227.259   4
  -2 -11  -3 1098.17 334.690   7
   2  11   3 481.953 218.340   5
   2  11   3 773.313 262.731   2
  -2 -11  -3 688.374 258.097   9
  -2 -11  -4 3193.43 493.020   7
  -2 -11  -4 3405.99 525.571   9
   2  11   4 2675.36 420.475   5
  -2 -11  -4 3143.45 378.389   8
   2  11   4 3282.22 451.999   2
   2  11   4 3383.72 494.542   4
  -2 -11  -5 2777.85 497.388   7
   2  11   5 2256.32 376.826   1
   2  11   5 2882.92 459.630   2
   2  11   5 2843.77 454.766   5
  -2 -11  -5 2883.76 491.316   9
  -2 -11  -5 2042.42 316.266   8
   2  11   5 2361.34 406.493   4
   2  11   6 2774.33 446.830   4
  -2 -11  -6 2720.57 380.083   8
  -2 -11  -6 2861.08 480.305   7
   2  11   6 3026.95 420.798   1
   2  11   6 2522.87 416.492   2
   2  11   6 2576.27 466.926   5
  -2 -11  -6 3021.30 500.959   9
  -2 -11  -7 28.5785 120.593   8
  -2 -11  -7 20.7834 175.955   7
   2  11   7 147.202 175.540   4
   2  11   7 248.248 216.853   2
   2  11   7 305.337 167.513   1
   2  11   7 132.234 172.098   5
  -2 -11  -7 157.119 196.275   9
  -2 -11  -8 55.3377 132.335   8
  -2 -11  -8-90.6096 182.393   7
   2  11   8 148.659 149.715   1
   2  11   8-35.1814 119.509   4
   2  11   8 296.891 240.615   2
   2  11   8 192.820 213.169   5
  -2 -11  -8 142.874 251.779   9
   2  11   9 204.097 151.774   4
  -2 -11  -9 123.971 132.423   8
   2  11   9 20.7027 147.867   1
  -2 -11  -9 117.665 197.159   7
   2  11   9 56.4332 172.892   2
   2  11   9 3.61387 155.125   5
  -2 -11  -9 20.7175 190.465   9
  -2 -11 -10 82.4718 136.046   8
   2  11  10 342.314 201.346   5
  -2 -11 -10 380.241 224.776   7
   2  11  10 304.825 251.082   1
  -2 -11 -10 422.280 212.510   9
  -2 -11 -11 2090.17 444.261   7
   2  11  11 1855.95 421.059   1
   2  11  11 1383.23 380.909   5
  -2 -11 -11 1565.92 417.004   9
  -2 -11 -12 1038.59 310.012   7
  -2 -11 -12 1307.08 380.921   9
   2  11  12 909.079 326.382   5
   2  11  12 1354.14 372.581   1
  -2 -11 -12 880.711 170.440  11
  -2 -11 -13 1370.82 351.150   7
   2  11  13 691.230 300.193   1
  -2 -11 -13 1079.00 384.736   9
   2  11  13 847.575 358.260   5
   2  11  14 444.085 257.622   1
  -2 -11 -14 1022.49 347.372   7
   2  11  15 4.53507 206.151   1
  -2 -11 -15 371.125 267.731   7
  -2 -12   4 1596.61 426.646   7
  -2 -12   4 1772.44 445.322   9
  -2 -12   3 805.495 316.374   7
  -2 -12   3 161.294 206.544   9
   2  12  -3 1365.42 408.194   4
  -2 -12   2 200.021 203.656   7
  -2 -12   2-91.2059 199.638   9
   2  12  -2 6.84855 250.832   4
  -2 -12   1 433.223 235.260   7
  -2 -12   1 1484.39 394.391   9
   2  12  -1 1387.97 364.573   4
  -2 -12   0 83.6977 240.107   7
  -2 -12   0-339.538 269.504   9
   2  12   0 84.9442 172.777   4
  -2 -12  -1 1496.72 416.136   7
   2  12   1 943.869 312.602   4
   2  12   1 1605.60 358.414   5
  -2 -12  -1 1434.08 367.584   9
  -2 -12  -2 299.566 264.284   7
   2  12   2 266.780 205.859   5
  -2 -12  -2 6.42192 181.470   9
   2  12   2 129.496 200.067   4
  -2 -12  -3 669.508 293.377   7
   2  12   3 800.382 275.362   5
   2  12   3 969.844 319.318   2
  -2 -12  -3 815.523 284.700   9
   2  12   3 728.365 274.367   4
   2  12   4 1513.77 353.206   2
  -2 -12  -4 710.726 245.303   7
  -2 -12  -4 1164.58 328.439   9
   2  12   4 1703.03 396.030   5
   2  12   4 683.683 267.299   4
  -2 -12  -5 1956.40 434.353   7
   2  12   5 1527.23 352.571   2
   2  12   5 1801.54 395.676   5
  -2 -12  -5 1927.41 417.083   9
   2  12   5 1342.29 337.585   4
   2  12   6 354.043 193.833   4
  -2 -12  -6-80.4039 182.291   7
  -2 -12  -6 256.394 232.635   9
   2  12   6-5.86920 166.083   2
   2  12   6 386.878 188.724   5
   2  12   7 99.7784 162.524   4
  -2 -12  -7 271.710 219.850   7
   2  12   7 242.934 216.634   2
   2  12   7 262.428 233.322   5
  -2 -12  -7-15.0725 225.111   9
  -2 -12  -7 294.083 202.904   8
   2  12   8 1253.30 311.315   1
   2  12   8 1502.48 342.582   4
  -2 -12  -8 1702.52 345.104   8
  -2 -12  -8 1364.64 358.769   7
   2  12   8 1128.86 287.410   2
   2  12   8 1507.58 372.526   5
  -2 -12  -8 1475.66 419.055   9
   2  12   9 2570.28 488.345   5
  -2 -12  -9 2548.58 410.457   8
  -2 -12  -9 2226.30 475.714   7
   2  12   9 2970.40 483.524   1
  -2 -12  -9 2369.24 457.015   9
  -2 -12 -10 664.408 253.894   8
  -2 -12 -10 1125.82 364.274   7
  -2 -12 -10 631.932 264.012   9
   2  12  10 310.213 173.373   1
   2  12  10 351.246 251.463   5
   2  12  11 371.937 294.762   1
  -2 -12 -11 250.464 227.840   7
  -2 -12 -11 593.008 275.488   8
   2  12  11 176.093 179.197   5
  -2 -12 -11 490.227 280.484   9
  -2 -12 -12 1376.16 340.133   8
  -2 -12 -12 697.327 317.106   7
   2  12  12 863.973 302.994   1
  -2 -12 -12 719.091 267.107   9
   2  12  12 666.855 331.132   5
   2  12  13 169.889 172.503   1
  -2 -12 -13 308.721 253.503   7
  -2 -12 -13 564.632 258.966   9
   2  12  14-29.5795 211.104   1
  -2 -13   0 52.6293 251.298   7
  -2 -13   0 476.576 232.776   9
   2  13   0 209.269 292.448   4
  -2 -13  -1 204.265 253.580   7
  -2 -13  -1-218.413 264.911   9
  -2 -13  -2 2085.81 477.577   7
   2  13   2 3300.59 513.660   5
  -2 -13  -2 1988.21 448.718   9
   2  13   2 2339.30 498.973   4
  -2 -13  -3-178.681 188.045   7
   2  13   3-199.570 201.217   5
  -2 -13  -3 225.641 182.382   9
   2  13   3 33.7616 198.410   4
  -2 -13  -4 775.639 321.615   7
   2  13   4 724.640 313.232   5
  -2 -13  -4 693.237 315.881   9
   2  13   4 839.506 319.193   4
   2  13   5 890.804 304.423   4
  -2 -13  -5 1841.71 464.915   7
   2  13   5 763.169 267.869   5
  -2 -13  -5 1264.31 395.060   9
   2  13   6 162.791 167.821   4
  -2 -13  -6-77.0728 196.294   7
   2  13   6 127.507 180.257   2
  -2 -13  -6 105.337 254.428   9
   2  13   6 321.275 240.800   5
   2  13   7 217.247 173.039   4
  -2 -13  -7 434.279 250.567   7
   2  13   7 128.791 175.484   2
   2  13   7-253.942 230.361   5
  -2 -13  -7 408.962 316.143   9
   2  13   8 1730.04 403.120   5
  -2 -13  -8 1246.13 381.512   7
  -2 -13  -8 1913.22 467.529   9
  -2 -13  -9 503.143 330.327   7
  -2 -13  -9 116.080 272.716   9
   2  13   9 361.780 233.970   5
  -2 -13 -10 1229.36 401.478   9
   2  13  10 1081.85 351.392   5
  -2 -13 -11 978.020 315.162   8
  -2 -13 -12 364.681 264.673   8
   2  13  12 361.176 247.446   1
   2  13  13 740.399 323.691   1
  -2 -13 -13 519.083 215.892   8
   2  14   3 771.910 332.181   4
   2  14   4 842.394 334.921   4
   2  14   4 759.506 294.418   5
   2  14   5 872.988 293.740   4
   2  14   5 569.270 289.916   5
   2  14   6 319.434 233.569   4
   2  14   6 309.238 241.659   5
   2  14   7-325.042 258.310   4
   2  14   7 180.521 243.154   5
   3 -13  -8 543.886 251.651   7
   3 -13  -7 829.971 319.002   7
   3 -13  -6 233.303 220.230   7
   3 -13  -5 1244.20 361.002   8
   3 -13  -5 1277.70 392.574   7
   3 -13  -4 642.212 262.711   8
   3 -13  -4 180.201 178.789   7
   3 -13  -3 476.399 275.949   8
   3 -13  -3 508.363 343.040   7
   3 -13  -2 13.9774 238.201   7
   3 -13  -2-22.1706 191.208   8
   3 -13  -1 209.259 236.870   7
   3 -13  -1 366.846 244.698   8
   3 -13   0 574.838 276.128   8
   3 -13   1 70.4959 230.838   8
   3 -13   2-258.032 292.537   8
   3 -13   3-172.982 168.935   8
   3 -12  -8 786.873 304.636   8
   3 -12  -8 502.094 241.306   7
   3 -12  -7 449.653 267.586   7
  -3  12   7-127.159 231.259   5
   3 -12  -7-75.7103 177.111   8
   3 -12  -6 372.302 191.412   8
   3 -12  -6 709.928 320.183   7
  -3  12   6 508.142 283.949   5
   3 -12  -5 631.114 331.615   8
   3 -12  -5 863.599 339.409   7
  -3  12   5 747.961 301.130   5
   3 -12  -4 1.14694 178.449   8
   3 -12  -4 279.348 213.228   7
  -3  12   4 100.797 178.727   5
   3 -12  -3 1685.57 381.826   8
   3 -12  -3 1577.35 407.797   7
  -3  12   3 1897.22 454.869   5
   3 -12  -2 666.271 271.599   7
   3 -12  -2 696.981 284.100   8
  -3  12   2 724.335 298.842   5
   3 -12  -1 285.135 211.303   7
  -3  12   1 416.703 254.703   5
   3 -12  -1 947.760 305.431   8
   3 -12   0 799.309 323.380   7
  -3  12   0 1131.78 377.086   5
   3 -12   0 533.343 271.713   8
   3 -12   1 1543.52 409.236   7
  -3  12  -1 1982.82 452.490   5
   3 -12   1 1390.50 360.506   8
   3 -12   2 364.621 261.507   7
  -3  12  -2-298.217 229.268   5
   3 -12   2 52.1963 196.121   8
   3 -12   3 17.7255 188.943   7
  -3  12  -3 48.5971 196.241   5
   3 -12   3-176.434 216.437   8
  -3  12  -4 38.8628 210.455   5
   3 -12   4 361.832 267.464   8
  -3  12  -5 558.435 277.862   5
   3 -12   5 455.252 246.447   8
   3 -12   6 18.0682 166.318   8
  -3  12  -6-117.376 235.404   5
  -3  11  13-49.7994 237.752   1
  -3  11  12 2760.99 538.330   1
  -3  11  11 1195.80 349.329   1
  -3  11  11 675.043 358.630   5
   3 -11 -10 225.083 261.464   8
  -3  11  10 113.903 216.832   5
   3 -11  -9 2126.40 458.403   8
   3 -11  -9 1903.85 377.418   7
  -3  11   9 2122.53 504.511   5
   3 -11  -8 2833.83 520.704   8
   3 -11  -8 3458.94 531.866   7
  -3  11   8 2471.52 480.241   5
   3 -11  -7 210.342 218.257   8
   3 -11  -7-106.923 205.788   7
  -3  11   7 123.905 294.511   5
   3 -11  -6 677.980 304.289   8
   3 -11  -6 991.703 334.706   7
  -3  11   6 1038.37 319.876   5
   3 -11  -5 296.898 177.852   7
  -3  11   5 954.985 348.975   5
   3 -11  -5 772.949 305.130   8
   3 -11  -4 166.743 205.106   7
  -3  11   4 214.073 237.119   5
   3 -11  -4 11.4148 197.290   8
   3 -11  -3 1089.70 313.312   8
   3 -11  -3 1301.05 347.153   7
  -3  11   3 1398.72 402.313   5
   3 -11  -2 321.279 256.792   8
   3 -11  -2 574.026 263.553   7
  -3  11   2 368.620 230.863   5
   3 -11  -1-97.8768 271.983   7
   3 -11  -1 260.236 199.390   9
  -3  11   1 197.089 217.991   5
   3 -11  -1 275.422 239.888   8
   3 -11   0 281.861 199.632   8
   3 -11   0 9.52251 173.838   7
  -3  11   0 281.903 191.372   5
   3 -11   0 467.922 241.894   9
  -3  11  -1 3120.63 522.337   5
   3 -11   1 2627.29 488.028   7
   3 -11   1 2940.58 433.419   9
   3 -11   1 3041.17 484.853   8
   3 -11   2 782.945 263.580   7
  -3  11  -2 625.623 286.170   5
   3 -11   2 1073.36 278.125   9
   3 -11   2 592.791 250.598   8
   3 -11   3 146.827 176.071   7
  -3  11  -3 164.334 184.166   5
   3 -11   3 152.410 178.612   8
   3 -11   4 2244.43 503.603   7
   3 -11   4 1999.19 391.937   8
  -3  11  -4 2317.85 459.484   5
   3 -11   5 752.093 316.297   7
  -3  11  -5 1449.91 389.153   5
   3 -11   5 1196.01 352.573   8
  -3  11  -6 843.275 343.716   5
   3 -11   6 766.701 287.471   8
  -3  11  -7 890.498 329.026   5
   3 -11   7 565.978 286.488   8
  -3  11  -8 96.3052 207.023   6
  -3  11  -8-164.471 221.758   5
   3 -11   8-20.5563 175.051   8
  -3  11  -9-52.8941 189.847   6
  -3  11  -9 56.5942 172.622   5
  -3  10  14 1379.33 407.357   1
  -3  10  13 1931.25 459.261   1
  -3  10  13 1411.31 377.389   5
   3 -10 -12-168.201 236.045   8
  -3  10  12-461.179 300.409   5
  -3  10  12-112.868 177.915   1
   3 -10 -11 25.1372 215.316   8
  -3  10  11 291.672 198.174   5
  -3  10  11 39.4639 200.394   1
   3 -10 -10 3940.45 607.605   8
  -3  10  10 3338.70 566.267   5
  -3  10  10 3302.77 503.510   1
   3 -10  -9 5653.98 602.223   7
  -3  10   9 5797.71 702.230   5
  -3  10   9 5635.42 629.559   1
   3 -10  -9 5720.14 690.564   8
   3 -10  -8 96.1445 191.598   8
   3 -10  -8-32.7730 160.389   7
  -3  10   8 140.771 126.885   1
  -3  10   8 264.461 260.132   5
   3 -10  -7 1393.82 366.022   8
   3 -10  -7 1809.35 368.326   7
  -3  10   7 1499.10 307.970   1
  -3  10   7 1395.45 369.155   5
   3 -10  -7 1346.25 298.989   9
   3 -10  -6 1913.47 411.258   8
   3 -10  -6 2307.03 385.289   7
   3 -10  -6 2808.45 412.025   9
  -3  10   6 2051.84 402.280   5
   3 -10  -5 336.570 191.307   8
   3 -10  -5 330.468 156.438   7
  -3  10   5 180.195 167.817   5
   3 -10  -5 233.650 137.583   9
   3 -10  -4 191.960 189.695   8
   3 -10  -4 207.509 193.058   7
  -3  10   4 154.523 216.920   5
   3 -10  -4-28.0194 148.016   9
   3 -10  -3 2547.48 418.908   8
   3 -10  -3 2345.68 413.468   7
  -3  10   3 2405.29 438.430   5
   3 -10  -3 2367.16 361.594   9
   3 -10  -2 3776.83 507.483   8
   3 -10  -2 4442.70 564.465   7
  -3  10   2 3907.34 533.161   5
   3 -10  -2 3782.68 443.770   9
   3 -10  -1 883.024 297.254   8
   3 -10  -1 1087.00 325.255   7
  -3  10   1 687.987 253.996   5
   3 -10  -1 859.914 213.326   9
   3 -10   0 326.224 199.485   7
  -3  10   0 321.756 195.899   5
   3 -10   0 407.704 188.256   9
   3 -10   0 212.755 139.652   8
   3 -10   1-2.20683 147.464   7
   3 -10   1-9.49961 153.382   9
  -3  10  -1-207.602 223.851   5
   3 -10   1 18.1654 164.510   8
   3 -10   2 976.790 304.063   7
  -3  10  -2 413.559 207.678   5
   3 -10   2 704.482 241.079   9
   3 -10   2 865.596 275.712   8
   3 -10   3-122.636 193.742   7
   3 -10   3 392.214 207.250   9
  -3  10  -3 164.313 161.400   5
   3 -10   3-148.041 170.354   8
   3 -10   4 117.022 164.179   7
  -3  10  -4 86.6725 170.192   6
  -3  10  -4 97.4163 235.714   5
   3 -10   4-186.167 216.775   8
  -3  10  -5 117.300 169.939   6
   3 -10   5 115.117 168.134   7
   3 -10   5 206.560 210.665   8
  -3  10  -5-21.6885 159.088   5
  -3  10  -6 574.158 263.729   6
  -3  10  -6 437.947 249.869   5
   3 -10   6-63.1305 163.128   8
  -3  10  -7 840.582 282.468   5
  -3  10  -7 1201.53 352.177   6
   3 -10   7 1574.79 390.699   8
  -3  10  -8 669.999 299.265   6
  -3  10  -8 891.026 358.664   5
   3 -10   8 143.924 174.866   8
  -3  10  -9 827.288 306.373   5
  -3  10  -9 719.742 303.701   6
   3 -10   9 693.121 309.889   8
  -3  10 -10 646.693 299.724   5
   3 -10  10 136.923 216.953   8
  -3  10 -10 69.1713 162.536   6
  -3  10 -11-208.441 170.005   5
  -3   9  15-272.675 210.979   5
  -3   9  14 357.351 265.723   5
  -3   9  14 219.516 198.687   1
   3  -9 -13 741.893 335.723   8
  -3   9  13 281.653 243.498   5
  -3   9  13 323.574 230.540   1
   3  -9 -12-16.2674 194.375   8
  -3   9  12-109.497 231.130   5
  -3   9  12 184.326 184.109   1
   3  -9 -11 813.804 270.306   8
  -3   9  11 1011.20 354.269   5
  -3   9  11 1203.47 322.873   1
   3  -9 -10 5835.99 682.407   8
   3  -9 -10 5341.88 560.022   7
  -3   9  10 4848.59 608.455   1
  -3   9  10 4840.37 629.591   5
   3  -9  -9 528.455 260.582   8
   3  -9  -9 553.466 232.658   7
  -3   9   9 515.483 283.115   5
   3  -9  -9 341.789 191.393   9
  -3   9   9 239.393 153.313   1
   3  -9  -8 988.182 277.952   7
   3  -9  -8 1187.95 340.500   8
  -3   9   8 876.602 249.726   1
  -3   9   8 718.617 270.238   5
   3  -9  -8 580.195 182.993   9
   3  -9  -7 1558.40 347.139   8
  -3   9   7 1341.07 352.947   5
   3  -9  -7 1716.06 327.062   7
   3  -9  -7 1485.93 276.161   9
  -3   9   7 1320.41 293.529   1
   3  -9  -6 128.275 201.154   8
   3  -9  -6-221.893 188.360   7
  -3   9   6 150.995 207.469   5
   3  -9  -6 132.116 152.697   9
  -3   9   6 144.352 171.027   1
   3  -9  -5 5103.37 555.320   7
  -3   9   5 4666.57 578.729   5
   3  -9  -5 5068.63 486.500   9
  -3   9   5 5263.69 503.153   1
   3  -9  -5 5813.96 624.540   8
   3  -9  -4 4240.80 492.129   7
  -3   9   4 4056.44 406.400   1
  -3   9   4 4044.18 537.064   5
   3  -9  -4 3749.88 417.855   9
   3  -9  -4 4026.51 529.077   8
   3  -9  -3 5116.33 547.725   7
  -3   9   3 4963.71 587.991   5
   3  -9  -3 4779.48 462.469   9
   3  -9  -3 4415.98 536.869   8
   3  -9  -2 784.704 253.456   8
   3  -9  -2 577.138 166.508   9
   3  -9  -2 777.448 262.059   7
  -3   9   2 791.264 300.478   5
   3  -9  -1 5089.67 573.617   7
   3  -9  -1 4738.57 530.183   8
   3  -9  -1 5349.80 490.639   9
  -3   9   1 5599.32 615.254   5
   3  -9   0 2424.78 392.364   7
  -3   9   0 2343.81 398.368   5
   3  -9   0 2204.26 326.517   9
   3  -9   0 1817.08 332.682   8
   3  -9   1 2057.83 388.712   7
  -3   9  -1 1955.21 377.875   5
   3  -9   1 1441.73 291.167   9
   3  -9   1 2037.78 377.525   8
   3  -9   2 1062.51 298.148   7
  -3   9  -2 676.876 198.843   5
   3  -9   2 978.756 249.980   9
   3  -9   2 576.116 158.559   8
   3  -9   3 7672.66 724.645   7
   3  -9   3 8314.12 657.248   9
  -3   9  -3 8915.67 681.534   6
  -3   9  -3 8276.59 756.257   5
   3  -9   3 8350.77 707.422   8
   3  -9   4 1884.25 388.527   7
  -3   9  -4 2609.44 430.240   5
  -3   9  -4 1941.07 349.915   6
   3  -9   4 1763.89 379.759   8
   3  -9   5 404.365 267.321   7
  -3   9  -5 164.483 159.090   6
  -3   9  -5 598.872 253.775   5
   3  -9   5 184.179 153.516   8
  -3   9  -6 1225.10 312.329   6
  -3   9  -6 563.775 237.876   5
   3  -9   6 706.933 274.846   8
  -3   9  -7 454.095 248.664   5
  -3   9  -7 302.806 172.219   6
   3  -9   7 86.8271 173.453   8
  -3   9  -8 822.483 270.060   6
  -3   9  -8 1052.25 309.487   5
   3  -9   8 1020.83 324.360   8
  -3   9  -9 308.114 200.512   6
  -3   9  -9 707.983 304.639   5
  -3   9 -10 58.0501 203.372   6
  -3   9 -10 130.317 208.687   5
   3  -9  10-10.2282 159.134   8
  -3   9 -11 529.610 269.839   6
  -3   9 -11 530.078 255.742   5
  -3   9 -12 1072.74 349.599   5
  -3   8  15 510.987 254.893   5
  -3   8  15-320.928 259.047   1
  -3   8  14 123.488 215.032   5
  -3   8  14 505.036 276.938   1
  -3   8  13 819.312 293.580   5
  -3   8  13 1075.09 299.331   1
   3  -8 -12 501.817 272.411   8
  -3   8  12 102.778 204.612   5
  -3   8  12 194.708 204.558   1
   3  -8 -11 2654.20 471.719   8
  -3   8  11 1350.64 356.552   5
  -3   8  11 1471.24 349.248   1
   3  -8 -10 2913.54 504.699   8
   3  -8 -10 3048.59 415.094   7
  -3   8  10 3019.82 501.158   5
  -3   8  10 2947.14 458.491   1
   3  -8  -9 2944.72 471.117   8
   3  -8  -9 2858.39 390.112   7
  -3   8   9 2769.69 466.151   5
  -3   8   9 2858.36 425.469   1
   3  -8  -8 234.589 140.778   7
  -3   8   8-47.7054 156.657   5
   3  -8  -8-35.4400 158.538   8
  -3   8   8 308.741 191.137   1
   3  -8  -7-142.040 174.569   8
   3  -8  -7 100.897 151.346   9
   3  -8  -7 291.537 176.493   7
  -3   8   7-39.9195 171.550   5
  -3   8   7 33.4624 133.757   1
   3  -8  -6-1.36432 160.854   8
   3  -8  -6-116.357 133.508   7
  -3   8   6 217.177 180.085   5
   3  -8  -6 18.3376 129.938   9
  -3   8   6 200.313 149.171   1
   3  -8  -5 372.328 202.715   8
   3  -8  -5 260.689 140.727   7
   3  -8  -5 511.222 173.988   9
  -3   8   5 521.741 180.386   1
  -3   8   5 384.359 206.113   5
   3  -8  -4 7408.72 599.559   7
   3  -8  -4 7045.48 648.241   8
  -3   8   4 6718.01 524.470   1
   3  -8  -4 7263.57 536.190   9
  -3   8   4 6675.57 642.159   5
   3  -8  -3 1028.54 268.108   8
   3  -8  -3 379.614 171.363   7
  -3   8   3 738.361 255.406   5
  -3   8   3 533.972 158.431   1
   3  -8  -3 381.645 157.395   9
   3  -8  -2 985.102 280.237   8
   3  -8  -2 1043.86 258.916   7
   3  -8  -2 1280.62 246.609   9
  -3   8   2 1100.14 272.611   5
  -3   8   2 1232.02 199.366   1
   3  -8  -1 6143.96 584.055   7
  -3   8   1 6150.02 607.935   5
  -3   8   1 6641.53 388.786   1
   3  -8  -1 5820.42 467.675   9
   3  -8  -1 6405.15 595.217   8
   3  -8   0 792.317 221.589   8
   3  -8   0 1036.62 263.853   7
   3  -8   0 751.859 197.194   9
  -3   8   0 971.586 288.536   5
   3  -8   1 5190.12 554.182   7
  -3   8  -1 5265.69 560.558   5
   3  -8   1 5399.51 476.143   9
   3  -8   1 5423.95 547.180   8
   3  -8   2 2718.76 403.012   7
  -3   8  -2 2552.59 409.040   5
   3  -8   2 2415.87 332.081   9
   3  -8   2 2670.09 391.922   8
   3  -8   3 3557.44 473.300   7
  -3   8  -3 4432.47 531.177   5
  -3   8  -3 4252.15 472.936   6
   3  -8   3 3961.14 426.768   9
   3  -8   3 4700.17 518.032   8
   3  -8   4 1286.68 318.486   7
  -3   8  -4 1777.42 328.125   6
  -3   8  -4 1293.84 312.669   5
   3  -8   4 1074.05 267.295   8
   3  -8   5 2270.61 416.372   7
  -3   8  -5 2247.00 402.207   5
  -3   8  -5 2374.02 395.721   6
   3  -8   5 2083.11 375.967   8
  -3   8  -6 1543.36 322.221   6
  -3   8  -6 1437.82 330.151   5
   3  -8   6 1348.02 307.566   8
  -3   8  -7 1542.46 351.978   5
   3  -8   7 1265.11 331.206   8
  -3   8  -7 1610.36 368.335   6
  -3   8  -8 1700.10 346.851   6
  -3   8  -8 1563.33 351.265   5
   3  -8   8 1794.16 380.070   8
  -3   8  -9 1865.85 368.232   6
  -3   8  -9 2271.08 413.693   5
   3  -8   9 1966.83 364.489   8
  -3   8 -10 32.3444 194.532   5
  -3   8 -10 50.4699 127.948   6
   3  -8  10 157.905 180.120   8
  -3   8 -11 548.640 238.364   5
  -3   8 -11 380.965 259.922   6
  -3   8 -12 1980.94 445.824   6
  -3   8 -12 2339.59 442.087   5
  -3   8 -13-23.4655 190.296   5
  -3   7  15 597.718 308.288   1
  -3   7  14 199.519 223.099   5
  -3   7  14 156.455 175.273   1
   3  -7 -13 341.612 179.922  11
  -3   7  13 400.621 232.003   5
  -3   7  13 216.435 200.424   1
   3  -7 -12 5063.70 500.818  11
  -3   7  12 4999.63 612.269   5
  -3   7  12 4444.72 618.114   1
   3  -7 -11 4440.65 426.962  11
  -3   7  11 4314.94 560.756   5
  -3   7  11 4709.39 600.131   1
   3  -7 -10 520.074 160.299   7
   3  -7 -10 226.581 151.395  11
  -3   7  10 470.262 225.247   5
  -3   7  10 522.026 224.924   1
   3  -7  -9 2206.60 387.101   8
   3  -7  -9 2678.03 360.160   7
  -3   7   9 2288.74 436.181   5
  -3   7   9 2039.77 365.731   1
   3  -7  -9 1662.39 197.649  11
   3  -7  -8 301.177 191.477   8
   3  -7  -8 300.511 149.095   7
  -3   7   8-96.1666 168.219   1
   3  -7  -8 226.406 88.9605  11
  -3   7   8 579.649 220.947   5
   3  -7  -7 1862.24 287.817   7
   3  -7  -7 1588.97 197.764  11
   3  -7  -7 1452.51 323.232   8
  -3   7   7 1748.37 334.594   5
  -3   7   7 1839.35 327.298   1
   3  -7  -6 718.378 259.295   8
   3  -7  -6 645.625 185.197   7
   3  -7  -6 467.320 114.468  11
  -3   7   6 503.790 186.599   5
  -3   7   6 432.143 191.138   1
   3  -7  -5 5127.41 463.115   7
   3  -7  -5 5786.40 247.141  11
  -3   7   5 5588.99 581.530   5
  -3   7   5 5305.20 475.037   1
   3  -7  -5 5902.46 451.659   9
   3  -7  -5 5661.10 563.346   8
   3  -7  -4-38.3255 164.768   8
   3  -7  -4 230.902 144.484   7
   3  -7  -4 23.5828 70.2201   6
   3  -7  -4 143.183 65.5411  10
  -3   7   4-42.4151 153.249   5
   3  -7  -4-25.1898 110.982   9
  -3   7   4 58.3762 87.8764   1
   3  -7  -3 79.5301 52.0206  10
   3  -7  -3 124.458 167.273   8
   3  -7  -3 86.5064 98.8042   7
   3  -7  -3 107.497 98.0319   9
  -3   7   3 25.7007 128.715   5
  -3   7   3 201.092 124.405   1
   3  -7  -3 216.665 94.3997   6
   3  -7  -2-163.294 155.015   8
   3  -7  -2 52.4649 112.283   7
  -3   7   2-80.6161 120.965   5
   3  -7  -2-95.7159 116.655   9
  -3   7   2 130.428 110.988   1
   3  -7  -1 411.728 180.655   8
   3  -7  -1 473.858 193.295   7
  -3   7   1 407.160 105.515   1
  -3   7   1 389.911 198.969   5
   3  -7  -1 550.555 162.861   9
   3  -7   0 1335.39 286.580   8
   3  -7   0 453.434 178.947   7
  -3   7   0 799.850 125.850   1
   3  -7   0 679.268 162.866   9
  -3   7   0 852.914 250.403   5
   3  -7   1 1950.16 318.216   7
   3  -7   1 2156.35 217.117   2
  -3   7  -1 1811.24 328.550   5
   3  -7   1 2314.96 298.617   9
   3  -7   1 1768.17 301.414   8
   3  -7   2 1606.50 318.260   7
  -3   7  -2 889.731 247.168   5
   3  -7   2 1559.34 154.613   2
   3  -7   2 1717.01 254.645   9
   3  -7   2 1532.95 290.995   8
   3  -7   3 215.631 161.296   7
  -3   7  -3 213.383 128.716   6
  -3   7  -3 87.5637 142.795   5
   3  -7   3 99.9199 122.404   9
   3  -7   3-2.67355 126.592   8
   3  -7   4 4374.98 507.829   7
  -3   7  -4 4324.46 459.752   6
  -3   7  -4 4961.86 305.563  11
  -3   7  -4 4540.93 513.680   5
   3  -7   4 4309.98 472.282   8
  -3   7  -5 1073.51 247.692   6
  -3   7  -5 920.348 162.559  11
  -3   7  -5 1080.25 267.605   5
   3  -7   5 780.413 231.566   7
   3  -7   5 669.955 222.727   8
  -3   7  -6 1653.87 234.953  11
  -3   7  -6 1420.74 333.765   5
  -3   7  -6 1317.44 289.104   6
   3  -7   6 1586.82 316.452   8
  -3   7  -7 1805.34 266.130  11
  -3   7  -7 2144.97 381.983   5
  -3   7  -7 1473.32 286.369   6
   3  -7   7 1841.52 355.706   8
  -3   7  -8 1669.26 318.790   6
  -3   7  -8 1863.27 299.681  11
  -3   7  -8 1807.97 363.035   5
   3  -7   8 1729.42 363.433   8
   3  -7   9 1063.21 333.395   3
  -3   7  -9 758.832 220.015   6
  -3   7  -9 1165.42 274.152  11
  -3   7  -9 1290.32 343.479   5
   3  -7   9 564.885 273.437   8
   3  -7  10 168.006 251.726   3
  -3   7 -10 133.766 169.199   5
  -3   7 -10-6.86233 199.576   6
  -3   7 -10 2.77318 109.704  11
   3  -7  10-70.2295 169.880   8
  -3   7 -11 8027.81 764.561   5
  -3   7 -11 7679.62 813.166   6
  -3   7 -11 6780.96 618.430  11
  -3   7 -12 1177.65 337.780   6
  -3   7 -12 1249.90 333.677   5
  -3   7 -13-388.866 269.354   6
  -3   7 -13-173.713 200.143   5
  -3   7 -14 611.362 286.805   6
  -3   7 -14 189.432 197.911   5
   3  -6 -18 1541.79 387.884  11
   3  -6 -17 956.662 320.756  11
   3  -6 -16 1218.49 349.734  11
  -3   6  16 968.394 419.082   1
  -3   6  15 2483.24 522.038   1
   3  -6 -15 2767.34 451.131  11
  -3   6  14 137.805 208.746   1
   3  -6 -14 275.843 179.376  11
   3  -6 -13 874.308 269.076  11
  -3   6  13 708.029 283.569   5
  -3   6  13 159.574 175.487   1
   3  -6 -12 3442.59 441.714  11
  -3   6  12 2585.66 439.500   5
  -3   6  12 2516.09 443.754   1
   3  -6 -11 4080.11 422.340   7
  -3   6  11 3217.25 493.862   5
   3  -6 -11 3590.31 412.700  11
  -3   6  11 2952.96 470.680   1
   3  -6 -10 3600.11 399.944   7
   3  -6 -10 3596.19 376.403  11
  -3   6  10 3119.81 438.834   5
  -3   6  10 3372.72 481.529   1
  -3   6   9 275.863 193.571   5
   3  -6  -9 123.172 100.184   7
   3  -6  -9 287.324 133.831  11
  -3   6   9 148.961 172.908   1
   3  -6  -8 4623.91 419.870   7
   3  -6  -8 4359.13 362.501  11
  -3   6   8 4294.77 500.183   5
  -3   6   8 4573.16 505.961   1
   3  -6  -8 4444.80 501.411   8
   3  -6  -7 330.956 164.054   8
   3  -6  -7 587.896 160.053   7
   3  -6  -7 483.422 131.013  11
  -3   6   7 379.276 193.154   5
  -3   6   7 219.868 149.413   1
   3  -6  -6 17277.4 785.940   7
  -3   6   6 16694.6 860.292   1
   3  -6  -6 17784.6 595.258  11
  -3   6   6 17413.2 939.280   5
   3  -6  -6 17077.9 932.293   8
   3  -6  -5 913.164 128.922  11
   3  -6  -5 1066.85 247.792   8
   3  -6  -5 936.908 206.097   7
  -3   6   5 1100.99 143.993   3
  -3   6   5 725.339 226.312   5
  -3   6   5 1001.33 202.550   1
   3  -6  -4 2875.38 380.567   8
   3  -6  -4 3558.68 277.184   6
   3  -6  -4 2858.36 314.313   7
  -3   6   4 3126.78 256.497   3
   3  -6  -4 3115.00 169.694  11
   3  -6  -4 2465.60 269.019   9
   3  -6  -4 2934.95 251.541  10
  -3   6   4 3062.17 383.963   5
  -3   6   4 2912.06 341.345   1
   3  -6  -3 6337.93 468.129   7
   3  -6  -3 7252.76 389.060   6
   3  -6  -3 6922.93 345.799  10
  -3   6   3 6894.76 471.444   1
   3  -6  -3 6641.24 420.415   9
   3  -6  -3 7087.21 575.326   8
  -3   6   3 7173.75 584.410   5
   3  -6  -2 5287.53 439.865   7
   3  -6  -2 4402.75 237.660  10
  -3   6   2 5443.05 387.973   1
   3  -6  -2 5396.19 356.006   6
  -3   6   2 4840.07 476.539   5
   3  -6  -2 5064.86 472.155   8
   3  -6  -2 5635.83 384.618   9
  -3   6   1 2848.59 379.666   5
   3  -6  -1 2687.52 362.524   8
   3  -6  -1 2267.71 298.805   7
   3  -6  -1 2647.22 266.012   9
  -3   6   1 2765.38 251.853   1
   3  -6  -1 2442.34 234.513   1
   3  -6   0 280.080 160.217   8
   3  -6   0 300.291 136.008   7
   3  -6   0 339.460 91.8120   1
  -3   6   0 541.325 107.925   1
  -3   6   0 291.404 135.035   5
   3  -6   0 526.568 123.532   2
   3  -6   0 277.441 115.718   9
   3  -6   1 9726.39 624.266   7
   3  -6   1 9803.25 515.917   9
   3  -6   1 10517.6 458.278   2
  -3   6  -1 9499.58 667.003   5
   3  -6   1 9312.19 614.475   8
   3  -6   2 2511.18 333.569   7
   3  -6   2 1967.97 250.310   9
  -3   6  -2 1629.19 97.3833  11
  -3   6  -2 2420.45 352.747   5
   3  -6   2 2271.34 179.076   2
   3  -6   2 1967.78 298.769   8
   3  -6   3-25.6562 122.669   7
   3  -6   3-2.32502 20.3854   2
  -3   6  -3 144.207 144.623   6
  -3   6  -3 1.52977 31.6624  10
  -3   6  -3-14.7805 33.5500  10
  -3   6  -3-55.3427 146.000   5
  -3   6  -3 157.193 69.8135  11
   3  -6   3-5.12166 109.465   8
   3  -6   4 92.8831 149.354   7
   3  -6   4-68.3963 131.115   3
  -3   6  -4 74.8532 50.2259  10
  -3   6  -4 28.3025 101.237   6
  -3   6  -4-150.205 155.563   5
  -3   6  -4-81.1174 65.2514  11
   3  -6   4 194.730 146.934   8
   3  -6   5 2442.66 368.369   7
   3  -6   5 2549.38 375.787   3
  -3   6  -5 3416.79 427.968   5
  -3   6  -5 2815.77 264.858  11
  -3   6  -5 2556.28 363.078   6
   3  -6   5 2743.02 376.649   8
  -3   6  -6 307.041 117.530  11
   3  -6   6 318.709 208.923   3
  -3   6  -6 51.0465 144.033   6
  -3   6  -6 217.028 174.702   5
   3  -6   6 246.058 165.094   8
   3  -6   7 2121.42 360.458   3
  -3   6  -7 2156.41 279.269  11
  -3   6  -7 1538.22 290.951   6
  -3   6  -7 1781.14 320.383   5
   3  -6   7 1900.42 343.156   8
   3  -6   8 96.4243 141.354   3
  -3   6  -8-324.580 208.286   6
  -3   6  -8 25.2147 123.153  11
  -3   6  -8-76.4514 141.892   5
   3  -6   8-127.224 160.228   8
   3  -6   9 4188.41 538.113   3
  -3   6  -9 4075.48 518.171   6
  -3   6  -9 3764.05 425.233  11
   3  -6   9 4387.60 536.613   8
   3  -6  10 5966.76 646.834   3
  -3   6 -10 6636.74 695.941   6
  -3   6 -10 5608.21 533.279  11
   3  -6  10 5012.42 660.888   8
   3  -6  11 1966.62 424.875   3
  -3   6 -11 1698.39 305.885  11
  -3   6 -11 1576.13 359.230   6
  -3   6 -12 917.647 343.826   6
   3  -6  12 553.497 285.033   3
  -3   6 -12 1111.29 304.662  11
  -3   6 -13 143.571 131.414  11
   3  -6  13 358.957 243.609   3
  -3   6 -13-67.7743 186.234   6
   3  -6  14 1441.17 403.536   3
  -3   6 -14 1898.32 473.940   6
  -3   6 -14 2044.73 422.061  11
   3  -6  15 410.068 298.493   3
  -3   6 -15-69.7484 254.958   6
  -3   6 -15 387.196 244.432  11
  -3   6 -16 204.531 202.018  11
   3  -5 -18 1008.85 296.339  11
   3  -5 -17 736.853 291.486  11
   3  -5 -16 351.618 230.205  11
  -3   5  16 394.415 293.267   1
   3  -5 -15 6413.20 676.416  11
  -3   5  15 5252.73 716.074   1
   3  -5 -14 428.535 193.155  11
  -3   5  14 812.372 324.467   1
   3  -5 -13 1609.26 325.379  11
  -3   5  13 1795.28 404.373   1
  -3   5  12 6951.29 730.228   1
   3  -5 -12 8273.61 671.961  11
  -3   5  12 6977.27 658.048   5
   3  -5 -11 295.281 162.989  11
   3  -5 -11 250.463 135.938   7
  -3   5  11 226.522 119.881   5
  -3   5  11 141.551 150.291   1
   3  -5 -10 602.377 168.906   7
   3  -5 -10 522.798 172.580  11
  -3   5  10 654.980 255.033   1
  -3   5  10 400.437 175.082   5
   3  -5  -9 26.7049 88.6233   7
   3  -5  -9 55.2294 98.3907  11
  -3   5   9 150.048 125.279   5
  -3   5   9 288.365 183.410   1
   3  -5  -8 974.100 188.629   7
   3  -5  -8 1223.62 211.465  11
  -3   5   8 875.185 228.833   5
  -3   5   8 798.518 229.864   1
   3  -5  -7 4355.55 371.973   7
   3  -5  -7 4317.53 347.205  11
  -3   5   7 4418.43 454.506   5
  -3   5   7 4582.04 456.396   1
   3  -5  -6 4218.08 355.354   7
  -3   5   6 3956.52 172.863   3
   3  -5  -6 3918.18 295.832  11
  -3   5   6 4010.72 424.791   5
  -3   5   6 4432.18 388.665  10
  -3   5   6 4070.31 434.004   1
   3  -5  -6 3848.07 427.757   8
   3  -5  -5 3353.54 309.957   7
  -3   5   5 3311.63 191.705   3
  -3   5   5 3563.17 314.721  10
   3  -5  -5 3449.82 247.900  11
  -3   5   5 3311.82 365.721   1
   3  -5  -5 3499.42 397.765   8
  -3   5   5 2978.54 375.130   5
   3  -5  -4 506.854 151.121   8
   3  -5  -4 437.996 133.516   7
  -3   5   4 645.955 136.145  10
  -3   5   4 618.243 103.825   3
   3  -5  -4 630.318 99.0295  11
  -3   5   4 520.247 171.209   5
  -3   5   4 663.161 165.088   1
   3  -5  -3 468.006 171.247   8
   3  -5  -3 495.061 142.925   7
  -3   5   3 467.970 91.0474   3
   3  -5  -3 367.482 56.9732  11
  -3   5   3 377.302 162.814   5
   3  -5  -3 566.801 123.512  10
  -3   5   3 399.606 97.5599  10
  -3   5   3 361.882 129.599   1
   3  -5  -3 323.138 98.5775   9
   3  -5  -2 646.035 182.570   8
   3  -5  -2 799.163 150.713   6
   3  -5  -2 623.147 153.025   7
  -3   5   2 803.001 147.120   3
  -3   5   2 626.355 129.778   1
   3  -5  -2 819.148 128.676  10
   3  -5  -2 823.647 149.979   9
  -3   5   2 728.717 123.879  10
  -3   5   2 828.621 219.582   5
   3  -5  -1 897.390 208.617   8
   3  -5  -1 318.567 104.282   7
   3  -5  -1 778.693 134.131   1
  -3   5   1 618.457 126.112   1
  -3   5   1 707.971 182.577   5
  -3   5   1 666.523 96.6504  10
   3  -5  -1 664.731 132.604   9
   3  -5   0 10643.1 584.638   7
  -3   5   0 12126.1 458.581   1
   3  -5   0 10888.5 464.842   9
  -3   5   0 10909.5 317.873  10
   3  -5   0 11227.8 425.572   1
   3  -5   0 11635.2 659.095   8
  -3   5   0 11058.5 660.455   5
   3  -5   1 11237.4 591.193   3
  -3   5  -1 11366.0 312.283  10
   3  -5   1 12265.4 466.900   2
   3  -5   1 11463.4 627.932   7
  -3   5  -1 11811.0 691.457   5
  -3   5  -1 9666.34 384.021   1
  -3   5  -1 11522.9 500.751   9
   3  -5   1 11345.3 491.987   9
   3  -5   1 12127.5 382.643   1
   3  -5   1 11834.6 664.022   8
   3  -5   2 3246.58 336.193   7
   3  -5   2 3568.29 349.187   3
   3  -5   2 3701.86 222.850   2
  -3   5  -2 3322.38 183.920  10
  -3   5  -2 3218.45 151.326  11
   3  -5   2 3375.46 289.250   9
   3  -5   2 3234.26 361.653   8
   3  -5   2 2735.13 149.939   1
  -3   5  -2 3160.99 381.360   5
   3  -5   3 7830.40 553.068   7
   3  -5   3 8900.30 566.457   3
  -3   5  -3 8993.24 343.988  11
   3  -5   3 8280.96 250.864   2
  -3   5  -3 8392.49 601.667   5
   3  -5   3 8673.32 586.139   8
  -3   5  -3 8362.25 549.752   6
   3  -5   4 1051.55 244.638   7
   3  -5   4 955.529 225.617   3
  -3   5  -4 964.615 138.355  11
  -3   5  -4 1117.26 255.131   5
  -3   5  -4 643.145 165.608   6
   3  -5   4 829.489 202.285   8
  -3   5  -5 156.682 154.733   5
   3  -5   5-71.8590 124.401   3
  -3   5  -5 6.92778 64.1004  11
  -3   5  -5-202.602 149.744   6
   3  -5   5-127.115 126.632   8
   3  -5   6 238.657 140.207   3
   3  -5   6 447.781 178.042   8
  -3   5  -6 570.854 154.163  11
  -3   5  -6 271.717 123.071   6
  -3   5  -7 215.816 130.435  11
   3  -5   7 218.520 182.109   3
  -3   5  -7 80.0934 109.723   6
   3  -5   7 176.318 139.937   8
   3  -5   8 7109.19 633.955   3
  -3   5  -8 7639.96 655.432   6
  -3   5  -8 7592.10 533.574  11
   3  -5   8 6124.70 638.280   8
   3  -5   9 2524.58 406.163   3
  -3   5  -9 2722.12 404.252   6
  -3   5  -9 2222.76 297.053  11
   3  -5   9 2363.37 389.019   8
   3  -5  10 437.835 220.973   3
  -3   5 -10 459.199 183.442   6
  -3   5 -10 423.254 161.335  11
   3  -5  10 427.186 240.058   8
   3  -5  11 595.263 278.686   3
  -3   5 -11 500.427 231.137  11
  -3   5 -11 346.849 210.351   6
   3  -5  12 617.162 277.222   3
  -3   5 -12 645.845 232.052  11
  -3   5 -12 655.506 265.810   6
   3  -5  13 846.171 285.169   3
  -3   5 -13 582.732 256.648  11
  -3   5 -13 455.838 215.404   6
  -3   5 -14-182.750 176.801   6
  -3   5 -14-6.04659 167.473  11
   3  -5  15 463.393 265.638   3
  -3   5 -15 106.483 201.668  11
  -3   5 -15-387.136 319.317   6
   3  -5  16 1560.15 441.019   3
  -3   5 -16 1153.66 383.873   6
  -3   5 -16 1918.46 431.884  11
  -3   5 -17 303.187 225.802  11
   3  -4 -18 411.171 251.093  11
   3  -4 -17 49.1233 169.421  11
  -3   4  16 874.087 396.907   1
   3  -4 -16 962.936 298.100  11
   3  -4 -15 3346.58 514.987  11
  -3   4  15 2894.71 535.982   1
  -3   4  14 2524.99 498.016   1
   3  -4 -14 2875.67 467.395  11
  -3   4  13 4941.09 637.876   1
   3  -4 -13 4239.73 517.730  11
   3  -4 -12 708.412 233.910  11
  -3   4  12 735.952 266.278   1
   3  -4 -11 268.866 183.344  11
  -3   4  11 420.961 225.016   1
  -3   4  11 390.646 182.306   5
   3  -4 -10 302.577 172.532  11
  -3   4  10 390.795 195.331   5
  -3   4  10 543.438 242.726   1
   3  -4  -9 10830.5 569.128   7
   3  -4  -9 11644.5 678.944  11
  -3   4   9 9654.40 742.611   1
  -3   4   9 10449.1 687.265   5
   3  -4  -8 1523.99 203.330   7
   3  -4  -8 1592.64 252.682  11
  -3   4   8 1662.40 282.402  10
  -3   4   8 1685.31 289.134   5
  -3   4   8 1377.59 292.182   1
  -3   4   7 18249.1 854.148   5
  -3   4   7 18003.5 833.252  10
   3  -4  -7 19044.0 756.042  11
  -3   4   7 17386.0 903.416   1
   3  -4  -7 19409.8 685.325   7
   3  -4  -6 22897.2 732.321   7
  -3   4   6 22308.1 874.851  10
   3  -4  -6 23365.3 764.406  11
  -3   4   6 22201.1 960.981   1
  -3   4   6 22100.3 913.522   5
   3  -4  -5 5955.99 362.115   7
   3  -4  -5 6049.16 348.424  11
  -3   4   5 5966.35 472.089   5
  -3   4   5 6148.38 424.628  10
  -3   4   5 5759.93 469.134   1
   3  -4  -5 5431.10 477.831   8
   3  -4  -4 929.134 222.072   8
  -3   4   4 977.142 89.8709   3
   3  -4  -4 1026.43 164.739   7
   3  -4  -4 1053.45 139.675  11
  -3   4   4 989.156 162.668  10
  -3   4   4 970.996 218.364   5
  -3   4   4 1094.27 208.197   1
   3  -4  -3 516.033 169.974   8
   3  -4  -3 757.350 151.661   7
  -3   4   3 799.461 154.624   7
  -3   4   3 843.347 101.909   3
   3  -4  -3 730.469 95.2098  11
  -3   4   3 860.310 138.330  10
   3  -4  -3 786.394 154.168  10
  -3   4   3 702.978 163.469   1
  -3   4   3 873.655 196.951   5
   3  -4  -2 3324.02 280.151   7
  -3   4   2 3416.70 288.602   7
  -3   4   2 3330.48 225.510   3
   3  -4  -2 3192.51 149.674  11
  -3   4   2 3411.35 244.003  10
   3  -4  -2 3068.57 328.983   8
  -3   4   2 3326.83 302.578   1
   3  -4  -2 2932.82 255.586  10
   3  -4  -2 3074.68 221.824   9
  -3   4   2 2844.80 320.618   5
   3  -4  -1 27627.7 803.295   7
  -3   4   1 28739.5 830.679   7
  -3   4   1 29210.8 730.353   3
  -3   4   1 27025.1 958.714   5
  -3   4   1 28454.7 779.579   1
  -3   4   1 27702.3 631.253  10
   3  -4  -1 29034.6 679.075  10
   3  -4  -1 31315.6 841.542   6
   3  -4  -1 29448.0 780.097   1
   3  -4  -1 26470.8 941.538   8
   3  -4  -1 27047.9 620.968   9
   3  -4   0 1096.55 189.288   8
   3  -4   0 1391.71 204.680   7
   3  -4   0 1269.21 178.534   3
  -3   4   0 1476.60 189.946   3
  -3   4   0 1052.47 155.179   1
   3  -4   0 1139.74 151.665   1
  -3   4   0 1413.74 137.089  10
  -3   4   0 986.420 191.140   5
   3  -4   0 1157.96 137.652   9
   3  -4   1 131.422 114.861   8
  -3   4  -1 187.746 82.4897   1
   3  -4   1 309.720 120.072   7
   3  -4   1 196.789 108.787   3
  -3   4  -1 195.474 140.630   5
   3  -4   1 118.723 54.9565   1
  -3   4  -1 120.687 54.3207  10
   3  -4   1 164.638 68.7565   9
  -3   4  -1 143.156 54.5197   9
   3  -4   2 2901.00 301.787   7
   3  -4   2 2561.33 273.660   3
  -3   4  -2 2812.72 156.689  11
  -3   4  -2 2724.40 324.535   5
  -3   4  -2 2928.21 200.659  10
   3  -4   2 3027.57 175.489   1
  -3   4  -2 3444.16 251.919   9
   3  -4   2 3287.68 344.349   8
   3  -4   3 5737.20 444.704   7
   3  -4   3 5248.16 409.474   3
   3  -4   3 5372.13 205.433   2
  -3   4  -3 5129.04 401.958   6
  -3   4  -3 5442.25 460.595   5
  -3   4  -3 5574.55 265.128  11
   3  -4   3 5082.18 192.381   1
  -3   4  -3 6356.14 368.800   9
   3  -4   3 4732.46 417.663   8
   3  -4   4 4226.82 392.302   3
  -3   4  -4 3892.87 259.630  11
  -3   4  -4 3916.70 377.400   6
   3  -4   4 4196.01 392.705   8
   3  -4   5 5783.95 468.883   3
  -3   4  -5 5951.99 494.726   6
  -3   4  -5 5647.47 354.739  11
   3  -4   5 5146.42 444.604   8
   3  -4   6 10769.5 676.109   3
   3  -4   6 12411.0 700.241   8
  -3   4  -6 11772.0 714.953   6
  -3   4  -6 11762.4 564.924  11
   3  -4   6 11362.9 279.262   1
   3  -4   7 14767.6 821.456   3
  -3   4  -7 15123.7 841.028   6
  -3   4  -7 15479.7 692.622  11
   3  -4   7 16065.3 398.153   1
   3  -4   7 14007.7 795.556   8
   3  -4   8 493.615 88.1056   1
  -3   4  -8 290.179 115.731  11
   3  -4   8 466.366 200.515   3
   3  -4   8 337.324 204.819   8
  -3   4  -8 534.619 190.136   6
   3  -4   9 4210.48 475.161   3
  -3   4  -9 3820.44 466.566   6
  -3   4  -9 3959.98 416.129  11
   3  -4   9 4653.38 282.786   1
   3  -4   9 3906.00 474.072   8
   3  -4  10 655.933 140.694   1
  -3   4 -10 1058.39 253.342  11
   3  -4  10 816.884 269.817   3
  -3   4 -10 773.237 234.489   6
   3  -4  11 1234.34 321.668   3
  -3   4 -11 994.290 301.758   6
  -3   4 -11 697.970 207.866  11
   3  -4  11 1101.88 182.358   1
   3  -4  12 2104.41 412.593   3
  -3   4 -12 2710.91 409.926  11
  -3   4 -12 2034.74 399.463   6
   3  -4  13 1090.63 334.293   3
  -3   4 -13 864.438 307.875   6
  -3   4 -13 1081.90 293.733  11
   3  -4  14 1390.86 336.561   3
  -3   4 -14 1275.18 314.496  11
  -3   4 -14 1017.36 312.823   6
  -3   4 -15 37.2755 161.734   6
   3  -4  15-8.16280 165.276   3
  -3   4 -15 13.2495 200.700  11
   3  -4  16 540.323 242.640   3
  -3   4 -16 298.621 193.568  11
  -3   4 -16 56.4771 190.821   6
   3  -4  17 62.8247 265.033   3
  -3   4 -17-157.223 220.231  11
  -3   4 -17-19.9110 197.738   6
   3  -3 -17 163.436 195.234  11
   3  -3 -16 3983.34 603.508  11
  -3   3  16 3359.37 567.465   1
   3  -3 -15 1850.82 418.362  11
  -3   3  15 2121.98 453.516   1
   3  -3 -14 1907.41 383.489  11
  -3   3  14 1517.45 393.618   1
   3  -3 -13 7594.22 708.731  11
  -3   3  13 8189.91 804.801   1
   3  -3 -12 82.0588 143.654  11
  -3   3  12-119.564 175.914   1
   3  -3 -11 1144.86 267.690  11
  -3   3  11 898.340 267.596   1
   3  -3 -10 2734.74 360.997  11
  -3   3  10 1926.55 395.499  10
  -3   3  10 2295.27 327.753   5
  -3   3  10 1989.18 377.407   1
   3  -3  -9 3407.35 376.328  11
  -3   3   9 3109.70 361.063   5
  -3   3   9 3013.19 417.541   1
  -3   3   9 3056.20 230.525   4
  -3   3   9 3617.18 430.647  10
  -3   3   8 11533.1 656.464   5
   3  -3  -8 12049.4 659.405  11
  -3   3   8 11465.6 717.977  10
  -3   3   8 11263.7 756.356   1
  -3   3   8 12482.4 484.889   4
   3  -3  -7 1279.28 165.408   7
  -3   3   7 1437.27 240.493  10
   3  -3  -7 1338.71 229.835  11
  -3   3   7 919.142 198.106   5
  -3   3   7 1184.45 262.948   1
  -3   3   6 28063.4 958.129   5
   3  -3  -6 28706.2 709.490   7
  -3   3   6 28530.1 1082.91   1
   3  -3  -6 28879.9 886.248  11
  -3   3   6 26696.4 989.462  10
  -3   3   5 3089.92 336.118   1
   3  -3  -5 3020.54 223.442   7
   3  -3  -5 2943.28 265.594  11
  -3   3   5 3011.46 318.922  10
  -3   3   5 3176.98 319.760   5
   3  -3  -4 14460.8 464.205   7
  -3   3   4 14331.6 685.087   1
   3  -3  -4 14310.0 514.394  11
  -3   3   4 14470.7 647.888   5
  -3   3   4 13933.0 604.455  10
   3  -3  -4 14381.4 685.390   8
  -3   3   3 29420.0 907.925   5
   3  -3  -3 30265.1 673.628   7
   3  -3  -3 32428.5 686.531  11
  -3   3   3 30982.3 824.025  10
  -3   3   3 30725.3 947.450   1
   3  -3  -3 29778.7 960.314   8
  -3   3   2 204.141 112.423   1
   3  -3  -2 56.1283 127.304   8
   3  -3  -2 163.910 81.7094   7
  -3   3   2 144.801 130.522   5
  -3   3   2 115.308 64.0445   7
  -3   3   2 123.005 56.9624   3
  -3   3   2 85.5908 86.5964  10
   3  -3  -2 175.880 111.392  10
   3  -3  -1 4367.35 282.172   7
   3  -3  -1 4460.90 245.522   3
  -3   3   1 4586.87 286.794   7
  -3   3   1 4254.79 243.093   3
  -3   3   1 4302.04 305.889   1
  -3   3   1 4145.49 354.116   5
   3  -3  -1 4311.13 286.729  10
  -3   3   1 4224.94 273.142  10
   3  -3  -1 4549.05 308.797   1
   3  -3  -1 4196.40 195.983   9
   3  -3  -1 4392.41 366.198   8
   3  -3   0 44658.9 914.863   7
  -3   3   0 46485.1 947.145   7
   3  -3   0 42108.0 839.571   3
  -3   3   0 43879.2 872.823   3
   3  -3   0 44164.1 530.576  11
   3  -3   0 43742.2 596.538   9
  -3   3   0 44428.2 1115.63   5
  -3   3   0 44168.7 913.471   1
  -3   3   0 43601.4 815.109  10
   3  -3   0 48239.6 908.486   1
   3  -3   0 46233.5 1125.77   8
   3  -3   1 8262.46 428.870   7
  -3   3  -1 9286.91 447.798   7
  -3   3  -1 9333.14 408.554   1
   3  -3   1 8494.86 419.486   3
  -3   3  -1 9325.20 436.359   3
   3  -3   1 8742.84 246.469  11
   3  -3   1 8294.33 476.508   8
  -3   3  -1 8024.78 483.266   5
  -3   3  -1 8615.87 360.261  10
  -3   3  -1 8861.64 292.098   9
   3  -3   1 8513.17 283.933   9
   3  -3   1 8981.00 357.030   1
   3  -3   2 13225.5 552.630   3
   3  -3   2 13903.3 367.820  11
  -3   3  -2 13171.2 365.412  11
   3  -3   2 12885.3 568.321   7
  -3   3  -2 11716.4 441.979  10
   3  -3   2 14643.2 426.352   1
  -3   3  -2 12522.9 625.606   5
  -3   3  -2 14590.4 433.396   9
   3  -3   2 13578.8 612.034   8
   3  -3   3 3060.80 297.880   3
   3  -3   3 3187.38 205.050  11
  -3   3  -3 2847.05 213.402  11
   3  -3   3 2882.91 184.421   1
   3  -3   3 2796.01 162.254   2
   3  -3   3 2753.44 307.455   8
  -3   3  -3 2844.13 224.214   9
   3  -3   4 572.994 94.9593   1
  -3   3  -4-108.640 182.065  11
   3  -3   4 789.351 183.507   3
   3  -3   4 991.695 133.038  11
   3  -3   4 709.300 71.9859   2
  -3   3  -4 960.912 154.662   9
   3  -3   4 1259.61 235.304   8
   3  -3   5 14688.7 709.894   3
  -3   3  -5 15677.0 758.732   6
   3  -3   5 16589.3 591.797  11
   3  -3   5 14010.6 686.783   8
  -3   3  -5 13429.2 538.283  11
   3  -3   6 166.604 146.171   3
   3  -3   6 471.969 86.8825   1
  -3   3  -6 213.949 117.120   6
  -3   3  -6 239.695 76.8186  11
   3  -3   6 435.546 167.877   8
   3  -3   7 8629.54 605.975   3
  -3   3  -7 8417.89 612.009   6
  -3   3  -7 8670.87 524.783  11
   3  -3   7 9310.25 375.231   1
   3  -3   7 9364.29 626.440   8
  -3   3  -8 337.735 51.6966   2
   3  -3   8 445.947 193.887   3
  -3   3  -8 585.238 176.960   6
  -3   3  -8 490.629 177.083  11
   3  -3   8 272.964 128.694   8
   3  -3   8 301.307 84.4670   1
   3  -3   9 2811.31 401.883   3
   3  -3   9 3091.22 402.502   8
  -3   3  -9 2840.59 348.245  11
  -3   3  -9 2229.29 328.432   6
   3  -3   9 2935.46 255.712   1
  -3   3  -9 2830.83 169.672   2
   3  -3  10 126.651 136.941   3
  -3   3 -10 30.0968 137.626   6
  -3   3 -10-143.482 120.637  11
   3  -3  10 84.3452 73.4631   1
   3  -3  11 389.142 224.590   3
   3  -3  11-62.9001 83.8541   1
  -3   3 -11-361.752 222.267   6
  -3   3 -11 136.597 147.827  11
   3  -3  12 3279.56 475.354   3
  -3   3 -12 3296.57 444.988  11
  -3   3 -12 2906.00 465.267   6
   3  -3  12 3475.11 348.497   1
   3  -3  13 3258.65 487.230   3
  -3   3 -13 2835.96 460.761   6
  -3   3 -13 3100.45 451.626  11
   3  -3  13 3868.19 386.654   1
   3  -3  14 1315.80 329.333   3
  -3   3 -14 1763.24 408.229   6
  -3   3 -14 1449.13 348.209  11
   3  -3  15 1017.13 307.261   3
  -3   3 -15 1034.95 334.498   6
  -3   3 -15 1389.68 347.416  11
   3  -3  16-170.628 212.320   3
  -3   3 -16-12.8435 218.931   6
  -3   3 -16 196.971 171.526  11
   3  -3  17 2920.29 530.649   3
  -3   3 -17 2442.48 503.323   6
  -3   3 -17 2565.18 492.099  11
   3  -3  18 67.4095 188.220   3
  -3   3 -18 1480.21 430.266  11
   3  -2 -18 249.970 228.474   6
  -3   2  17 2808.94 574.481   1
   3  -2 -17 2685.58 481.066   6
   3  -2 -17 2645.39 514.006  11
   3  -2 -16 1188.17 368.413  11
  -3   2  16 1098.46 363.179   1
   3  -2 -15-268.985 224.089  11
  -3   2  15 92.0145 206.168   1
   3  -2 -14 1107.99 306.533  11
  -3   2  14 1495.57 394.666   1
   3  -2 -13-214.949 169.926  11
  -3   2  13 87.1096 157.476   1
   3  -2 -12 849.407 244.543  11
  -3   2  12 1057.31 302.774   1
   3  -2 -11 882.026 238.768  11
  -3   2  11 301.105 226.327  10
  -3   2  11 904.550 274.047   1
   3  -2 -10 7644.00 609.799  11
  -3   2  10 7063.11 623.536  10
  -3   2  10 6522.58 634.933   1
   3  -2  -9 434.255 184.543  11
  -3   2   9 702.973 198.809  10
  -3   2   9 646.253 224.374   1
  -3   2   9 579.030 198.180   5
  -3   2   9 771.339 125.190   4
   3  -2  -8 484.997 178.503  11
  -3   2   8 525.869 184.035  10
  -3   2   8 431.995 166.263   1
  -3   2   8 504.806 108.501   4
  -3   2   8 555.462 149.093   5
  -3   2   7 3421.18 330.309   5
   3  -2  -7 3514.69 349.392  11
  -3   2   7 2991.10 375.568  10
  -3   2   7 3244.81 388.350   1
  -3   2   7 4157.38 289.146   4
  -3   2   6 123.692 78.0532   4
  -3   2   6 162.355 136.708   1
  -3   2   6 58.4666 115.062  10
   3  -2  -6 86.7386 100.577  11
  -3   2   6 146.055 103.148   5
   3  -2  -5 318.536 75.7236   7
   3  -2  -5 117.154 82.4401  11
  -3   2   5 305.935 143.327   1
  -3   2   5 328.984 154.388  10
  -3   2   5 300.506 117.454   5
   3  -2  -4 14853.1 381.681   7
  -3   2   4 13492.8 608.567  10
  -3   2   4 14563.5 583.167   5
  -3   2   4 13725.9 670.396   1
   3  -2  -3 1147.19 188.407   8
   3  -2  -3 1192.92 106.110   7
   3  -2  -3 1153.10 173.138   5
  -3   2   3 1011.75 200.812   1
  -3   2   3 1404.05 196.855  10
  -3   2   3 873.067 157.247   5
   3  -2  -2-84.3688 100.467   8
   3  -2  -2 63.9871 54.1139   7
   3  -2  -2 23.7809 25.3593   3
  -3   2   2 37.3209 45.1294   7
  -3   2   2 54.7560 88.0775   1
   3  -2  -2 65.0626 87.4517   5
  -3   2   2 169.125 113.297   5
  -3   2   2 61.2287 77.4054  10
   3  -2  -2 81.8178 85.8582  10
   3  -2  -1 3605.89 203.131   7
  -3   2   1 4299.77 215.674   7
   3  -2  -1 3825.73 190.226   3
  -3   2   1 4085.57 312.570   5
   3  -2  -1 3690.16 297.478   5
  -3   2   1 3733.66 281.961  10
  -3   2   1 3852.76 302.539   1
   3  -2  -1 4025.32 301.912   1
   3  -2  -1 3411.95 278.158  10
   3  -2  -1 3734.46 309.496   8
  -3   2   0 20348.6 644.348   1
   3  -2   0 18052.3 486.974   7
  -3   2   0 19082.0 501.643   7
  -3   2   0 18053.2 559.465  10
   3  -2   0 18303.5 486.536   3
   3  -2   0 19376.7 452.676  11
  -3   2   0 17418.2 631.385   5
   3  -2   0 17415.9 571.188  10
   3  -2   0 19943.9 611.781   1
   3  -2   0 18563.8 666.865   8
  -3   2  -1 18783.4 553.797   7
   3  -2   1 17375.3 531.833   3
  -3   2  -1 17521.5 545.012   3
  -3   2  -1 18520.4 623.042   1
   3  -2   1 17867.0 431.774  11
  -3   2  -1 17757.1 645.726   5
   3  -2   1 19752.4 563.176   1
   3  -2   1 16650.7 624.362   8
  -3   2  -1 16388.3 523.203  10
  -3   2  -2 197.452 94.3754   7
  -3   2  -2 163.023 78.8334  11
   3  -2   2 118.482 80.4220   1
   3  -2   2 155.369 106.279   3
   3  -2   2 46.8050 56.7786   2
   3  -2   2 129.198 55.9418  11
  -3   2  -2 88.9721 47.4475   9
  -3   2  -2 297.706 112.377   3
   3  -2   2 64.4994 102.642   8
  -3   2  -3 47425.1 1027.77   7
   3  -2   3 42086.1 995.900   3
   3  -2   3 46207.3 807.478  11
  -3   2  -3 42848.2 798.814  11
  -3   2  -3 45197.0 734.095   9
   3  -2   3 44528.4 701.381   2
   3  -2   3 40956.5 1030.42   8
   3  -2   4 18.0629 39.8874   2
   3  -2   4-65.9208 116.508   3
   3  -2   4-84.7081 79.2610  11
  -3   2  -4 25.9277 68.8463  11
  -3   2  -4 97.2861 118.147   6
   3  -2   4-171.558 136.560   8
  -3   2  -5 7458.62 508.092   6
  -3   2  -5 7367.35 404.312  11
   3  -2   5 7903.22 488.894   3
   3  -2   5 8158.47 419.674  11
   3  -2   5 7708.53 265.235   2
  -3   2  -5 7589.51 266.170   2
   3  -2   5 7482.05 484.950   8
  -3   2  -6 25805.4 503.610   2
   3  -2   6 24281.5 902.221   3
  -3   2  -6 24881.2 941.405   6
  -3   2  -6 25000.4 801.663  11
   3  -2   6 25171.8 504.550   2
   3  -2   6 24224.0 912.261   8
   3  -2   7 2035.46 283.897   3
  -3   2  -7 2118.34 271.648  11
  -3   2  -7 1782.36 284.533   6
  -3   2  -7 2225.49 160.857   2
   3  -2   7 1866.05 293.466   8
   3  -2   7 1832.20 200.842   1
   3  -2   8 3970.55 299.176   1
   3  -2   8 3596.19 411.384   3
  -3   2  -8 3846.92 415.247   6
  -3   2  -8 4277.92 402.176  11
  -3   2  -8 4187.94 241.748   2
   3  -2   8 3169.30 408.411   8
  -3   2  -9 1102.94 138.348   2
   3  -2   9 878.853 245.315   3
   3  -2   9 1202.69 178.680   1
  -3   2  -9 712.594 199.005   6
  -3   2  -9 1028.21 229.161  11
  -3   2 -10 19.0062 73.6059   2
   3  -2  10 19.9776 77.6687   1
   3  -2  10-49.2626 128.529   3
  -3   2 -10 259.509 157.381  11
  -3   2 -10 186.042 164.042   6
   3  -2  11 243.647 200.486   3
   3  -2  11-44.6102 93.0986   1
  -3   2 -11 20.2358 110.962   6
  -3   2 -11-58.2459 118.302  11
   3  -2  12 116.455 144.306   3
  -3   2 -12-72.3214 179.215   6
   3  -2  12 23.0973 107.794   1
  -3   2 -12 108.198 134.921  11
   3  -2  13 246.028 203.442   3
   3  -2  13 72.8232 120.839   1
  -3   2 -13 132.443 173.565  11
  -3   2 -13 263.218 176.641   6
   3  -2  14 5017.09 582.391   3
  -3   2 -14 4986.37 618.115   6
  -3   2 -14 5533.73 619.365  11
   3  -2  14 6075.18 535.637   1
   3  -2  15 198.449 148.603   1
   3  -2  15 134.282 206.035   3
  -3   2 -15 130.451 142.650  11
  -3   2 -15 196.802 212.958   6
   3  -2  16 994.506 247.327   1
   3  -2  16 964.405 303.952   3
  -3   2 -16 1078.18 326.566   6
  -3   2 -16 1123.39 329.791  11
   3  -2  17 165.297 167.991   3
  -3   2 -17 295.058 218.133   6
  -3   2 -17 70.7066 214.776  11
   3  -2  18 3990.50 611.386   3
  -3   2 -18 4711.17 686.796  11
  -3   2 -18 3667.77 604.794   6
   3  -2  19 501.364 318.247   3
   3  -1 -18-84.5221 195.379   6
  -3   1  17 2686.90 528.662   1
   3  -1 -17 2753.86 529.943   6
   3  -1 -17 2868.06 528.020  11
   3  -1 -16 200.112 230.696  11
  -3   1  16 158.121 216.021   1
   3  -1 -15 2380.91 468.844  11
  -3   1  15 2676.29 506.226   1
   3  -1 -14 454.742 232.045  11
  -3   1  14 210.340 196.502   1
  -3   1  13 702.740 274.175   1
   3  -1 -13 912.220 291.371  11
   3  -1 -12 2299.58 414.319  11
  -3   1  12 1966.27 385.698   1
  -3   1  11 11135.2 829.546  10
   3  -1 -11 11652.8 808.950  11
  -3   1  11 10275.2 824.647   1
   3  -1 -10 5279.25 523.050  11
  -3   1  10 4563.49 520.399  10
  -3   1  10 4863.53 539.889   1
  -3   1   9 381.611 195.807   1
  -3   1   9 267.639 160.608  10
   3  -1  -9 448.365 178.163  11
   3  -1  -8 2234.39 181.791   3
   3  -1  -8 2102.94 299.105  11
  -3   1   8 2652.16 385.425   1
  -3   1   8 2635.36 361.568  10
  -3   1   8 2516.94 243.913   4
  -3   1   7 6961.46 412.464   5
  -3   1   7 6586.87 526.578  10
   3  -1  -7 7654.35 294.991   3
  -3   1   7 6475.03 542.830   1
   3  -1  -7 7566.89 536.847  11
  -3   1   7 7756.15 422.114   4
  -3   1   6 1108.86 209.134  10
  -3   1   6 1108.95 168.719   4
   3  -1  -6 1092.09 100.383   3
   3  -1  -6 1202.41 186.777   5
  -3   1   6 1262.10 271.681   1
  -3   1   6 1176.38 175.445   5
   3  -1  -6 1168.72 214.109  11
   3  -1  -5 6583.33 368.846   5
  -3   1   5 6720.48 372.532   5
  -3   1   5 6177.99 479.073   1
  -3   1   5 6357.68 463.209  10
   3  -1  -5 6812.77 207.543   3
  -3   1   5 7057.45 397.688   4
  -3   1   4 25293.4 850.748  10
   3  -1  -4 27187.4 713.501   5
  -3   1   4 25290.5 683.032   5
  -3   1   4 24834.8 902.565   1
  -3   1   3 8.80073 90.8782  10
   3  -1  -3 94.4251 99.2427   8
  -3   1   3 154.046 121.998   1
   3  -1  -3 132.904 83.0948   5
  -3   1   3 66.3800 68.6699   5
   3  -1  -2 418.994 121.559   8
  -3   1   2 515.778 130.876   1
   3  -1  -2 624.949 121.713   5
  -3   1   2 422.520 121.600  10
  -3   1   2 574.024 119.298   5
   3  -1  -1 4235.91 313.599   1
  -3   1   1 4002.30 141.678   7
  -3   1   1 3427.57 307.011   1
   3  -1  -1 3905.43 150.940   9
   3  -1  -1 3769.76 307.769  10
  -3   1   1 3466.81 285.076  10
  -3   1   1 3445.68 245.755   5
   3  -1  -1 3953.55 279.270   8
  -3   1   1 3789.17 275.766   8
  -3   1   0 2446.21 143.238   7
   3  -1   0 2299.44 170.702   3
  -3   1   0 2378.53 258.847   1
   3  -1   0 2039.28 224.589  10
   3  -1   0 2535.77 237.460   1
  -3   1   0 2038.97 219.883  10
  -3   1   0 2062.03 205.088   5
   3  -1   0 2432.71 224.879   8
  -3   1   0 2307.84 220.325   8
  -3   1  -1-55.0750 80.5107   8
  -3   1  -1-52.6166 65.9200   7
   3  -1   1-56.0812 75.4559   1
   3  -1   1 35.3402 72.4898  11
   3  -1   1-20.5014 68.1001   3
  -3   1  -1 77.1758 100.293  10
   3  -1   1 52.8013 90.7739   8
   3  -1   2 13151.4 479.126   3
   3  -1   2 14055.3 454.472  11
  -3   1  -2 13559.9 448.704  11
   3  -1   2 16281.2 570.137   1
  -3   1  -2 14370.2 547.880   8
   3  -1   2 14310.6 464.577   2
   3  -1   2 14242.4 540.550   8
   3  -1   3 5023.40 325.834   3
   3  -1   3 5062.83 294.310  11
  -3   1  -3 4730.68 285.686  11
   3  -1   3 4994.52 271.755   2
   3  -1   3 4355.37 320.103   8
  -3   1  -3 5398.25 353.538   8
   3  -1   4 8543.86 457.688   3
   3  -1   4 9749.47 431.495  11
  -3   1  -4 9246.31 431.180  11
  -3   1  -4 8739.48 340.835   2
   3  -1   4 8896.28 338.135   2
   3  -1   4 8074.73 456.232   8
   3  -1   5 37114.3 1004.62   3
  -3   1  -5 37388.3 1061.98   6
   3  -1   5 41034.1 951.110  11
  -3   1  -5 37692.9 936.211  11
  -3   1  -5 40222.8 731.402   2
   3  -1   5 38111.2 705.975   2
   3  -1   5 37841.2 1028.33   8
   3  -1   6 9717.16 554.020   3
  -3   1  -6 10725.8 600.776   6
   3  -1   6 10416.6 394.116   2
  -3   1  -6 9866.95 517.905  11
  -3   1  -6 10737.6 399.342   2
   3  -1   6 10757.6 588.563   8
  -3   1  -7 2213.07 245.490  11
  -3   1  -7 2667.53 323.227   6
   3  -1   7 2571.67 306.129   3
   3  -1   7 2160.25 210.981   2
  -3   1  -7 2402.00 203.867   2
   3  -1   7 1204.47 332.548   8
   3  -1   8 3380.44 367.158   3
  -3   1  -8 3456.44 370.649   6
  -3   1  -8 3829.52 385.676  11
  -3   1  -8 3977.26 275.496   2
   3  -1   8 3594.98 305.494   1
   3  -1   9 16549.9 823.604   3
  -3   1  -9 16746.0 862.356   6
  -3   1  -9 17237.6 822.226  11
  -3   1  -9 18300.7 634.206   2
   3  -1   9 17253.7 701.756   1
  -3   1 -10 6.73867 165.252   6
   3  -1  10 175.171 150.957   3
   3  -1  10-61.9986 74.8227   1
  -3   1 -10 44.3435 102.894  11
   3  -1  11 3388.34 411.373   3
  -3   1 -11 3457.30 445.023   6
  -3   1 -11 3601.60 442.403  11
   3  -1  11 3560.39 352.877   1
   3  -1  12 4734.04 522.121   3
  -3   1 -12 4660.07 525.181   6
  -3   1 -12 4442.04 496.704  11
   3  -1  12 4727.97 444.416   1
   3  -1  13 385.472 179.458   3
  -3   1 -13 204.513 148.376   6
  -3   1 -13 547.731 218.835  11
   3  -1  13 142.123 135.564   1
   3  -1  14 209.046 164.241   3
  -3   1 -14-272.305 255.642   6
  -3   1 -14 55.4037 155.797  11
   3  -1  14 215.998 145.531   1
   3  -1  15 1654.52 339.879   3
   3  -1  15 1829.18 326.058   1
  -3   1 -15 2033.82 389.446   6
  -3   1 -15 1908.25 405.853  11
   3  -1  16-79.5692 189.193   3
   3  -1  16 88.0188 154.827   1
  -3   1 -16-68.0551 167.807   6
  -3   1 -16 386.797 243.890  11
  -3   1 -17 1182.92 380.104  11
   3  -1  17 1133.59 290.483   1
   3  -1  17 1338.72 381.088   3
  -3   1 -17 1336.15 381.027   6
   3  -1  18 919.262 275.623   1
   3  -1  18 1226.09 335.023   3
  -3   1 -18 1308.40 371.389   6
  -3   1 -18 948.520 358.770  11
   3  -1  19 120.549 190.862   3
  -3   1 -19 239.050 198.436   6
   3   0 -17 415.442 256.186   6
  -3   0  17 501.680 252.419   1
   3   0 -16 1403.79 373.681  11
  -3   0  16 2138.80 485.246   1
  -3   0  15 1222.94 369.979   1
   3   0 -15 1347.16 377.801  11
   3   0 -14 1503.06 382.956  11
  -3   0  14 618.720 241.040   1
   3   0 -13 3854.25 540.168  11
  -3   0  13 4103.19 557.708   1
  -3   0  12 3128.85 485.425   1
  -3   0  12 1424.32 382.975  10
   3   0 -12 2508.08 415.846  11
  -3   0  11 4243.59 617.460  10
  -3   0  11 6023.82 604.469   1
   3   0 -11 5893.77 594.883  11
  -3   0  10 252.159 152.106   1
   3   0 -10 190.395 151.911  11
  -3   0  10 450.892 205.769  10
   3   0  -9 678.137 237.784  11
  -3   0   9 434.787 174.113   1
  -3   0   9 473.275 223.865  10
   3   0  -8 14586.9 559.742   7
   3   0  -8 14167.5 576.016   5
   3   0  -8 14112.0 544.346   3
  -3   0   8 13351.8 804.630  10
  -3   0   8 13651.3 826.919   1
   3   0  -8 13419.5 775.474  11
   3   0  -7 888.398 133.452   7
   3   0  -7 853.568 140.442   5
   3   0  -7 872.238 135.084   3
  -3   0   7 697.518 209.688  10
  -3   0   7 641.148 183.688   1
   3   0  -6 7946.36 335.236   7
   3   0  -6 8383.95 367.006   3
   3   0  -6 7692.01 366.624   5
  -3   0   6 7128.71 525.032  10
  -3   0   6 7816.76 563.416   1
   3   0  -5 2106.11 187.069   5
   3   0  -5 2110.26 151.403   7
   3   0  -5 2270.41 177.970   3
  -3   0   5 2239.09 303.240   1
  -3   0   5 2064.73 176.097   5
  -3   0   5 1871.45 267.461  10
   3   0  -4 4461.53 228.409   3
   3   0  -4 4213.14 172.220   7
   3   0  -4 4364.31 244.551   5
  -3   0   4 3645.81 362.144  10
  -3   0   4 4369.21 233.318   5
  -3   0   4 4179.20 378.225   1
  -3   0   4 4232.64 312.254   4
   3   0  -3 1306.44 131.052   5
  -3   0   3 1209.52 197.683   1
  -3   0   3 1482.91 132.308   5
  -3   0   3 1181.09 211.491  10
  -3   0   3 1526.94 209.998   4
   3   0  -3 1204.91 162.680   9
  -3   0   2 26275.4 817.636  10
  -3   0   2 28600.4 893.935   1
   3   0  -2 28394.9 623.037   9
   3   0  -2 27485.3 679.266   8
  -3   0   2 27513.3 542.975   5
  -3   0   1 13726.4 612.849   1
  -3   0   1 12458.6 533.183  10
   3   0  -1 12836.8 566.753  10
  -3   0   1 13626.4 397.020   5
   3   0  -1 14580.3 585.187   1
   3   0  -1 13188.8 362.552   9
   3   0  -1 11987.6 432.742   8
  -3   0   0 390.142 150.581   1
   3   0   0 406.430 107.302   8
  -3   0   0 254.136 86.9214   8
   3   0   0 353.373 118.517   1
  -3   0   0 362.116 116.283  10
   3   0   0 243.060 107.812  10
  -3   0   0 380.624 64.4646   9
   3   0   0 421.052 62.6764   9
   3   0   1 5743.16 327.389   2
  -3   0  -1 5282.96 349.959  10
   3   0   1 6177.84 325.500  11
  -3   0  -1 5978.65 195.323   9
   3   0   1 5209.84 292.659   8
  -3   0  -1 6244.37 318.048   8
   3   0   1 6946.71 403.809   1
   3   0   2 6486.18 338.407   2
  -3   0  -2 7429.88 346.404   8
  -3   0  -2 6480.61 343.643   2
   3   0   2 6249.91 347.138  11
   3   0   2 5937.02 318.813   8
  -3   0  -2 6394.42 341.356  11
   3   0   3 224.724 79.6144   2
  -3   0  -3 249.915 97.3746   2
   3   0   3 258.735 95.6591  11
  -3   0  -3 351.734 126.197  11
   3   0   3 399.953 123.807   8
  -3   0  -3 305.691 103.123   8
  -3   0  -4 3605.79 287.489  11
  -3   0  -4 3922.56 263.458   2
   3   0   4 3622.63 266.465   2
   3   0   4 3452.64 282.582   8
  -3   0  -4 4588.85 323.441   8
   3   0   4 3992.20 294.279  11
   3   0   5 40581.0 1000.42   3
  -3   0  -5 40831.3 984.574  11
   3   0   5 43521.2 856.467   2
  -3   0  -5 43889.7 877.180   2
   3   0   5 43021.0 1046.69   8
   3   0   6 3594.54 332.947   3
  -3   0  -6 4022.11 367.448   6
   3   0   6 4066.13 287.715   2
  -3   0  -6 3823.44 278.181   2
   3   0   6 4042.32 363.280   8
  -3   0  -6 3834.60 326.554  11
   3   0   7 2127.34 215.825   2
   3   0   7 1690.90 258.000   3
  -3   0  -7 2448.05 306.998   6
  -3   0  -7 2445.19 238.159   2
  -3   0  -7 1737.17 168.052  11
  -3   0  -8 473.697 145.283  11
   3   0   8 611.793 169.248   3
  -3   0  -8 617.195 173.801   6
   3   0   8 746.105 145.423   2
   3   0   9-22.6437 87.7739   1
   3   0   9 144.606 115.939   3
  -3   0  -9-131.315 148.898  11
  -3   0  -9-80.8987 130.499   6
   3   0   9-90.3206 90.3132   2
   3   0  10 1325.93 223.471   1
   3   0  10 740.498 184.698   3
  -3   0 -10 1332.19 245.614   6
  -3   0 -10 1600.52 280.652  11
   3   0  11 7231.45 594.620   3
  -3   0 -11 7351.72 598.964   6
  -3   0 -11 7092.44 587.933  11
   3   0  11 7756.11 552.516   1
   3   0  12 1771.55 297.552   1
   3   0  12 1167.91 288.064   3
  -3   0 -12 1667.20 319.675  11
  -3   0 -12 1192.44 277.042   6
   3   0  13 1218.84 279.084   3
  -3   0 -13 1615.35 321.633   6
  -3   0 -13 1701.76 346.158  11
   3   0  13 1263.09 280.826   1
   3   0  14 820.280 266.772   3
  -3   0 -14 442.740 244.703  11
   3   0  14 760.247 233.032   1
  -3   0 -14 581.976 217.850   6
   3   0  15 6341.21 651.688   3
  -3   0 -15 6240.80 670.999   6
  -3   0 -15 6168.41 664.232  11
   3   0  15 6065.95 597.797   1
   3   0  16 1012.25 278.108   3
   3   0  16 953.984 278.222   1
  -3   0 -16 1287.25 332.156   6
  -3   0 -16 869.126 286.195  11
   3   0  17 4055.85 555.650   3
  -3   0 -17 4629.30 607.060   6
  -3   0 -17 3881.54 578.203  11
   3   0  17 4173.49 538.396   1
   3   0  18 797.355 281.027   3
   3   0  18 859.756 280.315   1
  -3   0 -18 959.364 336.024   6
  -3   0 -18 1380.38 401.795  11
   3   0  19-101.935 197.689   1
   3   0  19 225.083 189.332   3
  -3   0 -19-120.109 194.020  11
  -3   0 -19-116.076 221.853   6
   3   0  20 295.369 230.601   3
  -3   0 -20-326.346 282.903   6
  -3  -1  17 496.895 311.653   1
   3   1 -17-63.8307 199.004   6
  -3  -1  16 466.075 300.762   1
   3   1 -16 477.644 282.150  11
   3   1 -15 1299.87 355.395  11
  -3  -1  15 1608.84 413.546   1
   3   1 -14 226.962 235.681  11
  -3  -1  14 220.947 222.577   1
   3   1 -13 464.695 206.982  11
  -3  -1  13 491.458 234.613   1
   3   1 -12 4090.04 551.957  11
  -3  -1  12 4576.39 572.178   1
  -3  -1  12 3359.72 573.191  10
  -3  -1  11 50.1072 153.204  10
   3   1 -11-18.5297 153.925  11
  -3  -1  11 1.90488 167.728   1
   3   1 -10 2615.72 415.106  11
  -3  -1  10 2314.62 381.953   1
  -3  -1  10 2300.80 378.582  10
  -3  -1   9 2531.38 385.650   1
  -3  -1   9 1936.26 416.125  10
   3   1  -9 2871.89 404.701  11
   3   1  -8 3121.79 412.226  11
  -3  -1   8 3343.49 414.428  10
  -3  -1   8 3417.06 414.631   1
   3   1  -8 3684.79 266.807   5
   3   1  -7 2501.12 234.436   7
  -3  -1   7 2371.86 345.665  10
  -3  -1   7 2084.27 313.608   1
   3   1  -7 2325.61 193.943   5
   3   1  -6 19108.9 590.687   7
   3   1  -6 20781.2 686.505   3
  -3  -1   6 19051.8 864.025  10
  -3  -1   6 18713.7 872.350   1
   3   1  -6 20277.7 508.897   5
   3   1  -5 145.663 53.7359   7
   3   1  -5 97.9046 71.6269   3
  -3  -1   5-14.1466 99.4623   1
   3   1  -5 105.399 52.1832   5
  -3  -1   5 251.058 165.510  10
   3   1  -4 5336.45 319.645   3
   3   1  -4 5020.79 244.934   7
  -3  -1   4 4759.54 401.994  10
  -3  -1   4 4858.21 412.198   1
   3   1  -4 4850.01 191.819   5
   3   1  -3 10984.9 489.811   9
   3   1  -3 10906.1 318.799   7
  -3  -1   3 10374.6 548.768  10
  -3  -1   3 9679.66 221.704   5
  -3  -1   3 10650.7 581.022   1
  -3  -1   2 40407.8 543.853   7
   3   1  -2 41060.4 553.860   7
   3   1  -2 39179.3 710.933   8
  -3  -1   2 43246.0 1145.89   1
  -3  -1   2 39897.4 441.698   5
   3   1  -2 41941.3 872.657   9
  -3  -1   2 38252.5 1014.91  10
  -3  -1   1 14338.4 324.533   7
  -3  -1   1 14885.7 314.205   5
  -3  -1   1 13435.9 672.641   1
  -3  -1   1 13376.5 578.454  10
   3   1  -1 13993.5 586.110   2
  -3  -1   1 14271.0 459.942   9
   3   1  -1 15285.1 482.290   9
   3   1  -1 14611.2 400.064   8
  -3  -1   1 15048.8 582.831   4
   3   1   0 59.8059 47.6652   8
  -3  -1   0 111.072 62.2455   8
   3   1   0 95.5474 121.879   1
  -3  -1   0 100.499 61.9266   7
   3   1   0 71.8540 88.3453  10
   3   1   0-51.7997 89.6148   2
  -3  -1   0-23.5942 117.628  10
  -3  -1   0 209.738 85.5001   9
   3   1   0 93.8085 62.2848   9
  -3  -1  -1 16737.1 441.913   8
   3   1   1 21250.6 736.087   1
  -3  -1  -1 16092.9 608.879  10
   3   1   1 15948.7 570.729   2
  -3  -1  -1 17297.3 603.391   2
  -3  -1  -1 16062.5 444.885   9
   3   1   1 16457.9 428.409   8
   3   1   2 278.868 115.892   2
  -3  -1  -2 351.331 118.815   2
  -3  -1  -2 141.361 79.1760   9
   3   1   2 192.988 100.717  11
   3   1   2 280.764 89.7601   8
  -3  -1  -2 362.794 93.7273   8
  -3  -1  -3 22199.2 678.655  11
   3   1   3 23817.0 699.037  11
   3   1   3 22135.2 663.461   2
   3   1   3 21971.4 605.718   8
  -3  -1  -3 23341.1 610.759   8
  -3  -1  -3 24803.0 703.237   2
   3   1   4 5921.61 370.012  11
   3   1   4 5089.91 325.676   2
  -3  -1  -4 5121.30 349.064  11
  -3  -1  -4 5816.44 345.240   2
   3   1   4 5707.61 343.870   8
  -3  -1  -4 5579.99 333.307   8
  -3  -1  -5 17070.1 599.113   2
  -3  -1  -5 14968.6 618.604  11
   3   1   5 14774.0 565.998   2
  -3  -1  -5 16980.8 624.073   8
  -3  -1  -6 189.442 100.585   2
  -3  -1  -6 229.781 139.912  11
   3   1   6 76.6996 95.5953   2
  -3  -1  -7 3167.56 363.829   6
   3   1   7 2467.58 258.867   2
  -3  -1  -7 2331.25 291.136  11
   3   1   7 2281.14 280.368   3
   3   1   8 105.193 120.281   3
   3   1   8 256.227 121.680   2
  -3  -1  -8 14.1526 143.863  11
  -3  -1  -8 405.300 162.239   6
   3   1   9 612.248 178.046   1
   3   1   9 201.025 128.172   3
  -3  -1  -9 538.647 188.030   6
  -3  -1  -9 492.384 172.419  11
   3   1   9 302.595 148.242   2
   3   1  10 4142.40 422.612   3
  -3  -1 -10 4081.76 418.630   6
  -3  -1 -10 4449.08 444.428  11
   3   1  10 4429.38 410.452   2
   3   1  10 4549.68 422.791   1
  -3  -1 -11 3198.16 386.527   6
   3   1  11 2895.02 377.018   3
   3   1  11 3228.68 392.062   1
  -3  -1 -11 2736.22 351.766  11
  -3  -1 -12-58.3919 147.395  11
   3   1  12 177.481 146.675   1
   3   1  12-71.7031 136.913   3
  -3  -1 -12-51.4518 112.174   6
   3   1  13 556.808 205.977   1
   3   1  13 339.861 158.612   3
  -3  -1 -13 390.379 159.668   6
  -3  -1 -13 316.343 195.444  11
  -3  -1 -14 3650.57 495.563  11
   3   1  14 3428.38 457.788   3
  -3  -1 -14 3039.04 441.256   6
   3   1  14 3822.75 458.028   1
   3   1  15 1292.04 302.742   3
  -3  -1 -15 1165.80 297.294   6
   3   1  15 1422.64 334.231   1
  -3  -1 -15 1254.54 316.792  11
   3   1  16 5664.96 618.121   3
  -3  -1 -16 6078.15 654.853   6
  -3  -1 -16 5949.42 672.899  11
   3   1  16 6092.26 639.400   1
   3   1  17 2954.89 455.340   1
   3   1  17 3135.24 490.443   3
  -3  -1 -17 3398.88 524.178   6
  -3  -1 -17 2867.31 496.415  11
  -3  -1 -18-139.522 236.533  11
   3   1  18 210.574 223.365   3
   3   1  18 499.651 272.384   1
  -3  -1 -18-517.360 279.241   6
   3   1  19 24.4550 181.762   3
   3   1  19 397.534 255.174   1
  -3  -1 -19 91.4999 167.402   6
  -3  -1 -19-414.940 306.483  11
   3   1  20 293.454 214.009   1
   3   1  20 715.372 266.888   3
  -3  -1 -20 517.986 257.193   6
   3   1  21 1043.44 391.063   1
  -3  -2  17 240.886 285.492   1
  -3  -2  16 487.555 235.972   1
  -3  -2  15 100.250 167.529   1
   3   2 -15-89.5118 205.934  11
  -3  -2  14 205.980 193.764   1
   3   2 -14 713.583 315.130  11
  -3  -2  13 3574.84 541.559   1
   3   2 -13 3702.09 553.614  11
   3   2 -12 698.238 189.334   4
   3   2 -12 168.286 174.296  11
  -3  -2  12 394.620 226.073   1
  -3  -2  12 748.380 294.972  10
   3   2 -11 282.741 122.067   4
  -3  -2  11 644.224 235.400   1
   3   2 -11 540.156 254.827  11
  -3  -2  11 86.6595 193.386  10
   3   2 -10 6227.10 619.129  11
  -3  -2  10 7059.36 641.257   1
   3   2 -10 6727.20 541.031   4
  -3  -2  10 4780.42 674.665  10
  -3  -2   9 20320.4 1046.46   1
   3   2  -9 21601.0 1102.14  11
  -3  -2   9 20539.4 1091.71  10
   3   2  -9 21260.8 931.118   4
   3   2  -8 289.856 144.158   4
  -3  -2   8 3.77397 108.645   1
  -3  -2   8-75.5475 129.928  10
  -3  -2   7 15058.9 853.366  10
   3   2  -7 15654.4 441.818   5
  -3  -2   7 15265.7 834.560   1
   3   2  -7 15579.2 755.944   4
   3   2  -6 4741.83 209.597   5
  -3  -2   6 4135.24 425.921  10
  -3  -2   6 4921.15 461.311   1
   3   2  -6 4416.54 393.468   4
   3   2  -5 5111.42 323.678   7
  -3  -2   5 3947.83 426.506  10
  -3  -2   5 4814.39 439.162   1
   3   2  -5 4524.46 375.591   4
   3   2  -5 3795.79 147.581   5
   3   2  -4 668.246 154.668   4
  -3  -2   4 851.405 140.900   7
  -3  -2   4 665.532 193.188   1
   3   2  -4 917.258 140.761   7
  -3  -2   4 826.113 200.718  10
  -3  -2   3 25744.5 620.506   7
   3   2  -3 27162.1 650.416   7
  -3  -2   3 27825.4 979.022   1
  -3  -2   3 23948.3 872.805  10
   3   2  -3 25155.2 861.743   4
  -3  -2   2 4347.76 252.579   7
   3   2  -2 4619.08 257.045   7
   3   2  -2 4146.74 344.956   2
  -3  -2   2 4374.67 370.729  10
  -3  -2   2 3533.80 423.927   1
  -3  -2   2 4425.87 321.337   9
   3   2  -2 4116.32 195.956   8
   3   2  -2 4598.20 361.731   4
  -3  -2   1 4714.35 258.102   7
   3   2  -1 4896.27 258.963   7
  -3  -2   1 4870.39 377.878  10
   3   2  -1 4684.02 356.795   2
  -3  -2   1 4561.04 315.372   9
   3   2  -1 5226.61 341.775   9
   3   2  -1 4699.21 178.442   8
   3   2   0 72312.3 1320.59   2
  -3  -2   0 74659.4 723.676   5
  -3  -2   0 72814.9 1148.02   9
  -3  -2   0 71955.8 998.212   7
   3   2   0 76575.8 1197.71   9
   3   2   0 70609.4 633.930   8
  -3  -2   0 72416.5 1339.40  10
  -3  -2  -1 9469.17 382.211   7
   3   2   1 9199.71 472.887   2
  -3  -2  -1 9783.63 419.030   9
   3   2   1 10042.4 422.908   9
   3   2   1 9696.99 270.748   8
  -3  -2  -1 9782.60 271.988   8
  -3  -2  -1 10195.1 493.517  10
  -3  -2  -2 37.8629 88.5786   4
   3   2   2-16.7984 103.958   2
  -3  -2  -2 169.586 114.135   9
  -3  -2  -2 132.819 88.3420   2
  -3  -2  -2 177.191 134.878  10
  -3  -2  -2-4.69698 61.8919   8
   3   2   3 549.805 169.187   2
  -3  -2  -3 469.581 134.626   2
  -3  -2  -3 321.497 136.044  11
  -3  -2  -3 413.429 93.6592   8
   3   2   4 37691.0 958.721   2
  -3  -2  -4 41225.7 857.727   8
  -3  -2  -4 35120.4 953.534  11
  -3  -2  -5 150.203 131.455  11
   3   2   5 263.874 112.669   6
  -3  -2  -5 371.010 130.429   8
   3   2   5 314.301 139.928   2
  -3  -2  -6 15065.5 672.045  11
   3   2   6 15066.1 635.332   2
  -3  -2  -7 9958.69 598.877  11
   3   2   7 7886.19 479.417   2
  -3  -2  -8 413.531 175.189  11
   3   2   8 400.165 130.673   2
  -3  -2  -9 9698.54 580.983   6
  -3  -2  -9 9749.67 637.169  11
   3   2   9 10134.0 587.457   2
  -3  -2 -10 1627.34 293.055  11
  -3  -2 -10 1779.40 284.304   6
   3   2  10 1466.45 269.380   2
   3   2  10 2003.28 308.623   1
   3   2  10 1609.19 284.686   3
  -3  -2 -11-85.4366 186.536  11
   3   2  11-68.8937 128.921   3
  -3  -2 -11-21.4900 99.6186   6
   3   2  11 83.8922 127.645   1
   3   2  12 673.529 220.073   3
  -3  -2 -12 499.110 190.171   6
  -3  -2 -12 145.238 123.427  11
   3   2  12 406.944 204.105   1
   3   2  13 4937.48 511.806   3
  -3  -2 -13 5250.96 523.530   6
  -3  -2 -13 4691.54 523.700  11
   3   2  13 4899.04 528.821   1
   3   2  14 4556.38 513.257   3
  -3  -2 -14 4428.55 506.736   6
  -3  -2 -14 4359.52 534.832  11
   3   2  14 4563.37 514.077   1
   3   2  15 186.782 178.564   1
  -3  -2 -15-276.627 266.094  11
  -3  -2 -15-31.1140 128.479   6
   3   2  15-36.7988 147.364   3
  -3  -2 -16 2122.82 417.222  11
   3   2  16 2389.72 399.978   3
  -3  -2 -16 2387.20 386.452   6
   3   2  16 2142.45 393.432   1
   3   2  17 804.745 278.542   3
  -3  -2 -17 286.894 181.764   6
  -3  -2 -17 128.016 192.833  11
   3   2  17 603.443 273.351   1
   3   2  18 66.1344 159.163   3
  -3  -2 -18 684.071 273.289   6
   3   2  18 662.064 283.195   1
  -3  -2 -18-282.194 303.675  11
  -3  -2 -19-399.537 263.405  11
   3   2  19-322.115 208.734   3
   3   2  19-115.563 178.762   1
  -3  -2 -19-56.6151 189.221   6
   3   2  20 152.238 162.289   3
   3   2  20 595.235 317.931   1
  -3  -2 -20 241.496 231.913   6
  -3  -2 -21 682.216 306.071   6
  -3  -3  17 101.904 235.575   1
  -3  -3  16 315.953 221.374   1
  -3  -3  15 22.7260 172.159   1
   3   3 -15 358.694 286.115  11
  -3  -3  14 1723.53 439.964   1
   3   3 -14 1416.59 361.216  11
  -3  -3  13 2518.08 479.875   1
   3   3 -13 1744.89 402.007  11
   3   3 -12 85.5906 117.879   4
  -3  -3  12 86.6305 178.208   1
  -3  -3  12 162.137 256.765  10
   3   3 -12 514.391 273.216  11
   3   3 -11 1199.85 269.493   4
  -3  -3  11 1021.16 296.244   1
   3   3 -11 929.169 290.585  11
  -3  -3  11 437.657 306.527  10
   3   3 -10 1778.24 316.748   4
  -3  -3  10 1390.77 312.226   1
  -3  -3  10 1074.93 337.100  10
   3   3 -10 1849.89 375.519  11
   3   3  -9 3926.91 442.124   4
  -3  -3   9 3752.13 486.255  10
  -3  -3   9 3341.15 437.717   1
   3   3  -9 3631.84 483.831  11
  -3  -3   8 3904.99 476.782   1
  -3  -3   8 4132.92 511.901  10
   3   3  -8 4219.10 443.963   4
   3   3  -7 184.959 153.513   4
  -3  -3   7-42.3817 141.213   1
  -3  -3   7-252.751 179.639  10
   3   3  -6 3896.37 169.959   5
   3   3  -6 3718.82 166.780   5
  -3  -3   6 3916.14 429.156   1
   3   3  -6 4221.41 416.564   4
  -3  -3   6 3256.87 414.785  10
  -3  -3   5 2901.86 289.449   7
  -3  -3   5 2990.60 369.152   1
  -3  -3   5 2710.53 347.254  10
   3   3  -5 2643.09 310.076   4
  -3  -3   4 15653.1 607.058   7
  -3  -3   4 13158.4 816.699   1
  -3  -3   4 16616.4 772.562  10
   3   3  -4 16082.3 750.142   2
   3   3  -4 15476.3 759.423   4
  -3  -3   3 321.976 158.538   1
   3   3  -3 309.629 158.555   4
  -3  -3   3 198.683 80.8234   7
   3   3  -3 165.395 88.8839   7
   3   3  -3 368.321 112.996   2
  -3  -3   3 136.314 106.560  10
  -3  -3   3 258.509 100.000   9
   3   3  -3 70.4438 53.5826   8
   3   3  -2 2102.35 280.381   4
  -3  -3   2 2112.13 219.755   7
   3   3  -2 2261.69 222.566   7
   3   3  -2 2135.33 264.519   2
  -3  -3   2 2082.94 255.307  10
  -3  -3   2 1836.55 240.238   9
  -3  -3   1 19378.3 615.221   7
   3   3  -1 20591.5 637.910   7
  -3  -3   1 19508.3 740.733  10
   3   3  -1 19781.2 743.247   2
  -3  -3   1 19007.2 704.765   9
  -3  -3   1 18483.4 313.342   5
   3   3  -1 19492.0 772.994   4
  -3  -3   0 34217.0 824.850   7
  -3  -3   0 36587.1 560.518   5
  -3  -3   0 33957.6 961.862  10
   3   3   0 34494.8 1002.35   4
   3   3   0 33951.7 958.683   2
  -3  -3   0 32896.8 900.671   9
  -3  -3  -1 3731.65 283.506   7
  -3  -3  -1 4088.75 225.950   5
  -3  -3  -1 3554.40 320.064  10
   3   3   1 3685.85 322.969   2
  -3  -3  -1 3602.73 299.085   9
   3   3   1 3624.52 333.896   4
   3   3   2-77.3063 131.151   2
  -3  -3  -2 336.924 123.485   7
  -3  -3  -2 119.235 124.847  10
  -3  -3  -2 179.332 83.7857   5
  -3  -3  -2 41.8481 116.833   9
  -3  -3  -2 96.1839 49.4244   8
  -3  -3  -3 27335.6 707.147   5
   3   3   3 25601.2 823.949   2
  -3  -3  -3 23669.9 739.866   9
  -3  -3  -3 27961.1 605.830   8
  -3  -3  -4 11749.7 599.599  11
  -3  -3  -4 13599.2 540.774   5
   3   3   4 12793.4 594.519   2
  -3  -3  -5 1953.87 260.719  11
  -3  -3  -5 2223.33 231.066   4
   3   3   5 2214.41 261.610   2
  -3  -3  -6 2136.91 294.043  11
   3   3   6 2990.35 293.620   6
   3   3   6 1898.92 256.367   2
  -3  -3  -6 2496.47 238.301   4
  -3  -3  -7 15265.3 735.611  11
   3   3   7 16950.1 747.807   2
  -3  -3  -7 17753.4 628.586   4
  -3  -3  -8 425.208 227.787  11
   3   3   8 507.040 157.934   2
  -3  -3  -9 6352.81 515.823  11
   3   3   9 7460.92 534.372   2
  -3  -3 -10 4.67271 129.313  11
   3   3  10-64.2819 124.076   2
   3   3  10-19.0800 118.146   1
  -3  -3 -11 969.730 238.973   6
   3   3  11 641.238 213.608   2
  -3  -3 -11 669.796 209.411  11
   3   3  11 289.169 170.624   1
   3   3  12 3478.57 421.736   3
  -3  -3 -12 4101.31 434.533   6
  -3  -3 -12 3660.34 463.009  11
   3   3  12 3642.91 450.919   1
   3   3  13 5168.23 521.326   3
  -3  -3 -13 5823.91 523.643   6
  -3  -3 -13 5626.63 585.788  11
   3   3  13 5333.94 562.983   1
   3   3  14 1139.19 275.935   3
  -3  -3 -14 708.929 214.647  11
   3   3  14 703.229 234.150   1
  -3  -3 -14 1396.46 290.417   6
   3   3  15 1892.20 365.670   1
  -3  -3 -15 1798.69 341.626   6
   3   3  15 1603.20 334.007   3
  -3  -3 -15 1591.46 341.233  11
   3   3  16 208.206 173.138   3
  -3  -3 -16 364.368 193.221   6
   3   3  16-54.0771 163.138   1
  -3  -3 -16 183.806 186.858  11
   3   3  17 175.244 186.810   3
  -3  -3 -17-44.6786 149.265   6
  -3  -3 -17-421.260 253.785  11
   3   3  17-174.611 219.338   1
   3   3  18-63.9105 163.050   3
  -3  -3 -18 107.969 147.281   6
  -3  -3 -18 279.207 250.257  11
   3   3  18 88.0896 164.077   1
   3   3  19 1033.31 299.552   3
  -3  -3 -19 1847.20 403.193   6
   3   3  19 1503.19 382.435   1
  -3  -3 -19 768.850 317.108  11
   3   3  20 154.423 220.117   3
   3   3  20 281.088 238.551   1
  -3  -3 -20 394.697 265.902   6
  -3  -4  15-263.463 220.564   1
  -3  -4  14 907.796 336.537   1
   3   4 -14 1054.10 351.121  11
  -3  -4  13 110.603 207.527   1
   3   4 -13-256.194 252.022  11
   3   4 -12 57.4831 120.156   4
  -3  -4  12-30.2923 168.253   1
   3   4 -12 39.8679 168.946  11
   3   4 -11 1517.45 310.509   4
  -3  -4  11 1149.21 314.951   1
   3   4 -11 1867.81 391.986  11
  -3  -4  11 1996.47 406.552  10
  -3  -4  10 7427.88 687.327  10
   3   4 -10 7160.15 699.871  11
   3   4 -10 7223.17 646.294   4
  -3  -4  10 7129.66 673.839   1
  -3  -4   9 561.803 225.428  10
  -3  -4   9 530.352 220.564   1
   3   4  -9 374.575 211.085   4
   3   4  -9 148.810 149.810  11
   3   4  -9 595.837 195.019   2
  -3  -4   8 6108.45 631.473   1
   3   4  -8 7040.44 626.629   4
  -3  -4   8 6940.09 646.898  10
   3   4  -8 6936.63 592.299   2
  -3  -4   7 891.376 271.659   1
   3   4  -7 1089.82 227.573   2
   3   4  -7 1331.86 274.526   4
  -3  -4   7 973.244 251.169  10
   3   4  -6 415.998 132.607   4
  -3  -4   6 350.789 180.921   1
  -3  -4   6 723.940 208.542  10
   3   4  -6 508.247 161.230   2
   3   4  -6 498.531 70.4127   5
   3   4  -6 805.816 143.074   8
   3   4  -5-51.1938 127.928   4
  -3  -4   5 157.445 126.971   1
  -3  -4   5 26.3857 82.9950   7
   3   4  -5-81.2735 104.864   2
  -3  -4   5 47.5718 121.043  10
   3   4  -5 16.7832 27.1919   5
   3   4  -5 54.2460 61.0345   8
   3   4  -4 945.572 223.575   4
  -3  -4   4 1065.59 206.484   7
   3   4  -4 925.361 74.4121   5
   3   4  -4 1089.93 225.428   2
  -3  -4   4 1383.34 238.419  10
   3   4  -4 1408.40 129.935   8
  -3  -4   4 918.114 254.239   1
   3   4  -3 602.433 175.074   4
  -3  -4   3 951.869 187.435   7
   3   4  -3 826.567 171.836   2
  -3  -4   3 724.474 163.563  10
   3   4  -3 763.329 68.6898   5
  -3  -4   3 563.413 170.646   9
   3   4  -3 761.195 74.1969   8
  -3  -4   2 20091.0 732.082   7
   3   4  -2 20452.3 388.526   5
  -3  -4   2 19749.3 807.156  10
   3   4  -2 19576.1 807.298   2
  -3  -4   2 20401.9 827.986   9
   3   4  -2 20422.8 874.326   4
   3   4  -1 10458.6 579.186   2
  -3  -4   1 10976.3 529.706   7
  -3  -4   1 11241.9 583.578  10
   3   4  -1 11385.9 327.771   5
  -3  -4   1 10274.9 581.974   9
  -3  -4   1 11288.6 334.112   5
   3   4  -1 10757.9 626.240   4
  -3  -4   0 2625.83 270.987   7
   3   4   0 3144.60 197.284   5
   3   4   0 2761.58 300.369   2
  -3  -4   0 3285.98 206.253   5
  -3  -4   0 2636.47 294.574   9
   3   4   0 3035.18 331.479   4
  -3  -4   0 2935.64 305.578  10
   3   4   1 1063.13 202.247   4
   3   4   1 1369.88 225.306   2
  -3  -4  -1 1057.03 187.511   7
  -3  -4  -1 1580.05 164.022   5
  -3  -4  -1 1539.11 237.765  10
  -3  -4  -1 1221.58 212.501   9
   3   4   1 1447.98 150.613   5
  -3  -4  -2 17351.9 669.438   7
  -3  -4  -2 17988.0 692.004  10
   3   4   2 16861.3 721.790   4
  -3  -4  -2 19092.1 591.104   5
   3   4   2 16325.0 707.994   2
  -3  -4  -2 17328.4 712.495   9
  -3  -4  -3 18458.4 717.217   7
   3   4   3 18950.6 762.595   2
  -3  -4  -3 20536.6 665.621   5
  -3  -4  -3 18367.4 720.911   9
   3   4   3 19483.2 744.290   4
  -3  -4  -4-52.4835 115.507   9
   3   4   4-92.9610 140.791   2
  -3  -4  -5 4633.94 355.542  11
   3   4   5 5997.15 460.318   2
  -3  -4  -6 8353.64 532.513  11
   3   4   6 8435.62 544.782   2
   3   4   7 143.365 94.1117   6
   3   4   7 192.808 145.007   2
   3   4   8 4042.69 435.888   2
  -3  -4  -8 4388.05 316.172   4
  -3  -4  -8 4452.79 436.975  11
  -3  -4  -9 6965.78 559.933  11
   3   4   9 6904.07 585.367   2
  -3  -4  -9 7904.44 415.569   4
   3   4  10 3028.01 387.430   1
  -3  -4 -10 3105.60 405.942  11
   3   4  10 2556.79 355.151   2
  -3  -4 -10 2869.20 249.133   4
   3   4  11 3056.48 419.357   1
  -3  -4 -11 2533.61 375.003  11
   3   4  11 2285.89 359.277   2
  -3  -4 -11 2680.01 227.877   4
   3   4  12 2385.83 367.591   1
  -3  -4 -12 2343.14 365.294  11
   3   4  12 2832.43 393.365   2
   3   4  13 9026.72 678.912   3
  -3  -4 -13 9971.08 653.946   6
  -3  -4 -13 9238.18 747.221  11
   3   4  13 9367.40 754.336   1
   3   4  14 2919.83 408.770   3
  -3  -4 -14 2275.78 384.265  11
  -3  -4 -14 3927.36 439.050   6
   3   4  14 3171.18 461.235   1
  -3  -4 -15 915.628 249.645  11
   3   4  15 952.165 268.088   1
   3   4  15 1237.88 284.807   3
  -3  -4 -15 1248.25 302.968   6
   3   4  16-228.905 198.738   1
   3   4  16 36.9438 185.031   3
  -3  -4 -16 79.3218 170.835  11
  -3  -4 -16 202.211 195.294   6
  -3  -4 -17 2258.21 404.711   6
   3   4  17 2317.54 410.506   3
  -3  -4 -17 2726.67 504.942  11
   3   4  17 2356.65 452.372   1
  -3  -4 -18 1233.18 319.330   6
   3   4  18 815.399 289.531   3
  -3  -4 -18 512.508 254.919  11
   3   4  18 1012.03 293.650   1
  -3  -4 -19 951.147 362.676  11
   3   4  19 514.940 188.352   3
   3   4  19 586.503 287.075   1
   3   4  20-248.572 247.835   1
  -3  -5  13-15.2632 204.304   1
   3   5 -13 33.5048 182.675  11
   3   5 -12 689.025 252.824   4
  -3  -5  12 230.951 234.276   1
  -3  -5  12 677.442 285.134  10
   3   5 -12 436.832 196.328  11
  -3  -5  11 3299.50 506.974   1
   3   5 -11 4630.37 617.350  11
  -3  -5  11 3829.35 539.292  10
   3   5 -11 4330.94 516.342   2
   3   5 -11 4139.45 545.663   4
   3   5 -10-247.134 226.283  11
   3   5 -10 69.2239 161.471   4
   3   5 -10-5.25421 119.131   2
  -3  -5  10-39.8657 206.260  10
  -3  -5  10-82.1921 170.143   1
   3   5  -9 187.577 161.882   4
  -3  -5   9-13.2026 134.416   1
   3   5  -9 258.416 176.119   2
  -3  -5   9 109.150 162.884  10
  -3  -5   8 2332.13 382.029   1
   3   5  -8 2679.42 370.870   2
  -3  -5   8 2408.23 423.972  10
   3   5  -8 3011.81 436.624   4
  -3  -5   7 8396.99 706.573  10
  -3  -5   7 8088.99 654.395   1
   3   5  -7 9172.69 647.850   2
   3   5  -7 9448.17 725.014   4
   3   5  -6 5.96994 131.693   4
  -3  -5   6-15.1384 122.877  10
  -3  -5   6 105.517 105.697   7
   3   5  -6 220.186 128.370   2
  -3  -5   6-168.255 132.754   1
   3   5  -5 2758.91 378.853   4
  -3  -5   5 2932.61 358.212   7
  -3  -5   5 2774.01 354.837  10
   3   5  -5 3062.42 189.425   5
   3   5  -5 2853.97 348.796   2
  -3  -5   4 8600.01 569.176   7
  -3  -5   4 9184.80 614.706  10
   3   5  -4 9170.51 321.990   5
   3   5  -4 9092.85 589.645   2
  -3  -5   4 8413.45 624.795   9
   3   5  -4 8682.08 314.320   8
   3   5  -4 8904.19 650.898   4
   3   5  -3-33.0789 133.770   4
  -3  -5   3 76.3051 109.104   7
   3   5  -3 54.6278 36.8939   8
   3   5  -3 164.062 116.790   2
  -3  -5   3-7.44712 117.349   9
   3   5  -3 135.627 63.6476   5
  -3  -5   3 13.8190 104.896  10
  -3  -5   2 7501.29 512.747   7
   3   5  -2 8118.22 326.887   5
  -3  -5   2 6705.67 491.764  10
   3   5  -2 7125.85 498.411   2
  -3  -5   2 6919.80 538.440   9
   3   5  -2 7168.08 555.712   4
  -3  -5   1 3004.21 321.039   7
  -3  -5   1 3299.51 233.774   5
  -3  -5   1 3377.96 330.743  10
   3   5  -1 2666.36 316.744   2
  -3  -5   1 3129.12 365.920   9
   3   5  -1 2911.77 210.522   5
   3   5  -1 2996.40 353.276   4
   3   5   0-143.064 145.954   4
   3   5   0 25.2723 108.586   2
  -3  -5   0-26.6997 121.935   7
  -3  -5   0-29.2028 48.2489   5
  -3  -5   0-102.609 93.3181  10
  -3  -5   0 136.963 136.491   9
   3   5   0 135.491 68.8375   5
   3   5   1 823.846 219.298   2
  -3  -5  -1 707.065 185.923   7
  -3  -5  -1 549.173 55.2411   8
  -3  -5  -1 868.779 174.617  10
  -3  -5  -1 580.992 117.565   5
  -3  -5  -1 409.323 165.468   9
   3   5   1 532.182 113.923   5
   3   5   1 487.365 180.574   4
  -3  -5  -2 9706.08 564.864   7
  -3  -5  -2 10011.7 539.655  10
  -3  -5  -2 10784.5 495.836   5
   3   5   2 9138.70 564.314   2
   3   5   2 9855.99 469.328   5
  -3  -5  -2 9616.11 582.893   9
   3   5   2 9441.62 584.625   4
   3   5   3 2029.41 291.367   2
   3   5   3 1899.07 260.080   4
  -3  -5  -3 1782.92 257.121   7
  -3  -5  -3 1742.04 222.501  10
  -3  -5  -3 1588.41 250.808   9
   3   5   3 1901.98 226.868   5
  -3  -5  -4 3868.60 366.312   7
   3   5   4 3747.07 377.461   2
   3   5   4 3694.00 326.706   5
  -3  -5  -4 3955.15 377.266   9
   3   5   4 3685.90 347.415   4
   3   5   5 544.943 150.777   4
  -3  -5  -5 321.383 142.853   7
  -3  -5  -5-16.8302 182.608  11
  -3  -5  -5 476.254 176.238   9
   3   5   5 329.584 145.521   2
  -3  -5  -6 32.3961 146.857  11
   3   5   6 510.004 160.189   2
   3   5   7 2531.73 240.328   6
  -3  -5  -7 1965.53 298.555  11
   3   5   7 2116.51 315.319   2
   3   5   8 8810.27 436.949   6
  -3  -5  -8 8187.82 592.912  11
   3   5   8 7496.13 587.887   2
  -3  -5  -9 8475.57 632.043  11
   3   5   9 7992.64 626.322   2
  -3  -5 -10 2280.40 363.252  11
   3   5  10 1280.69 277.951   2
  -3  -5 -10 1436.91 177.767   4
  -3  -5 -11 4201.80 480.633  11
   3   5  11 2935.27 435.294   2
   3   5  11 3894.18 476.312   1
  -3  -5 -12 19159.0 1025.89  11
   3   5  12 17386.3 1025.01   2
   3   5  12 17979.7 1015.43   1
   3   5  13 371.387 156.479   1
  -3  -5 -13 870.632 281.982  11
  -3  -5 -14 4457.99 574.909  11
   3   5  14 5429.67 612.323   1
   3   5  15 761.563 245.857   1
  -3  -5 -15 594.595 235.777  11
   3   5  15 700.704 229.091   3
   3   5  16 4026.35 517.456   3
  -3  -5 -16 4576.83 605.714  11
   3   5  16 4205.58 567.340   1
   3   5  17-33.2240 146.327   1
  -3  -5 -17-106.778 233.929  11
   3   5  17-102.224 168.682   3
  -3  -5 -18 345.881 253.642  11
   3   5  18 504.355 235.765   3
   3   5  18 458.206 281.480   1
  -3  -5 -19 1434.03 412.174  11
   3   5  19 727.998 320.771   1
   3   6 -13 1428.15 377.299   4
   3   6 -13 1950.62 478.580  11
   3   6 -12 408.093 247.464   4
   3   6 -12 537.622 249.875  11
   3   6 -11 2029.54 427.785   4
  -3  -6  11 1032.15 397.489  10
   3   6 -11 1722.93 407.650  11
  -3  -6  11 782.585 356.996   1
   3   6 -10 391.731 246.801   4
  -3  -6  10 227.879 153.908  10
   3   6 -10-87.5528 223.672  11
  -3  -6  10-11.4190 160.356   1
   3   6  -9 118.850 141.834   4
   3   6  -9 291.706 147.693   2
  -3  -6   9 261.900 200.831  10
  -3  -6   9 251.717 175.831   1
   3   6  -8 104.945 173.753   4
   3   6  -8 284.724 169.066   2
  -3  -6   8 243.126 177.352  10
   3   6  -7 796.235 230.452   4
  -3  -6   7 1327.07 287.484   7
   3   6  -7 893.343 216.914   2
  -3  -6   7 1247.15 281.042  10
   3   6  -6 267.058 188.344   4
  -3  -6   6 681.906 237.289  10
  -3  -6   6 544.755 189.066   7
   3   6  -6 373.440 200.067   2
   3   6  -5 198.495 163.428   4
  -3  -6   5 334.884 158.911   7
   3   6  -5 228.290 153.046   2
  -3  -6   5 328.525 183.013  10
   3   6  -4 80.4985 124.116   4
  -3  -6   4 61.9724 131.194   7
   3   6  -4 93.4725 126.414   2
   3   6  -4-63.5091 69.5239   5
  -3  -6   4 49.1800 148.054   9
  -3  -6   4-43.4720 128.496  10
   3   6  -3-156.449 153.055   4
   3   6  -3-18.2150 33.0741   8
   3   6  -3-26.6577 118.930   2
  -3  -6   3 60.8972 136.139   7
  -3  -6   3 98.1245 142.937  10
   3   6  -3 181.642 93.3922   5
  -3  -6   3 76.3012 161.652   9
  -3  -6   2 9307.60 623.599   7
   3   6  -2 10536.1 445.270   5
   3   6  -2 10243.3 625.592   2
  -3  -6   2 9101.25 663.091   9
  -3  -6   2 9754.96 598.464  10
   3   6  -2 10013.0 711.028   4
  -3  -6   1 4490.16 424.789   7
  -3  -6   1 4857.79 326.530   5
   3   6  -1 4651.71 314.565   5
  -3  -6   1 4736.11 413.464  10
   3   6  -1 4421.25 426.515   2
  -3  -6   1 3929.92 443.080   9
   3   6  -1 4740.21 474.675   4
  -3  -6   0 3715.89 396.318   7
  -3  -6   0 3295.38 330.102  10
   3   6   0 3400.93 363.747   2
  -3  -6   0 3392.86 402.225   9
  -3  -6   0 3402.99 134.086   8
   3   6   0 3651.24 404.667   4
  -3  -6   0 3490.82 285.546   5
   3   6   0 3695.42 289.620   5
  -3  -6  -1 3825.61 390.967   7
  -3  -6  -1 4169.37 371.443  10
   3   6   1 3665.29 309.141   5
   3   6   1 3968.08 391.015   2
  -3  -6  -1 3692.07 409.193   9
  -3  -6  -1 4012.54 184.573   8
   3   6   1 3956.59 426.631   4
  -3  -6  -2 13981.3 739.378   7
   3   6   2 14547.7 623.382   5
  -3  -6  -2 14396.6 680.017  10
   3   6   2 13256.0 712.482   2
  -3  -6  -2 14417.3 773.225   9
   3   6   2 14304.2 761.371   4
  -3  -6  -2 15235.7 427.271   8
  -3  -6  -3 1956.89 291.552   7
   3   6   3 2469.96 280.007   5
  -3  -6  -3 2458.33 283.493  10
  -3  -6  -3 1937.00 300.415   9
   3   6   3 2218.99 313.571   4
   3   6   3 2318.08 317.689   2
  -3  -6  -4 3048.83 353.871   7
   3   6   4 3093.45 355.569   2
  -3  -6  -4 2050.54 312.995  10
   3   6   4 3004.28 320.750   5
  -3  -6  -4 3429.52 383.433   9
   3   6   4 2724.34 332.387   4
   3   6   5 1079.07 211.287   4
  -3  -6  -5 925.436 227.135   7
   3   6   5 1068.07 214.995   5
  -3  -6  -5 1205.13 245.094   9
   3   6   5 637.852 186.431   2
   3   6   6 1135.67 219.762   4
  -3  -6  -6 995.127 238.966   7
  -3  -6  -6 734.581 197.225  11
  -3  -6  -6 1168.86 252.851   9
   3   6   6 1216.73 232.980   5
   3   6   6 1455.36 270.529   2
   3   6   7 4889.91 313.996   6
  -3  -6  -7 4346.65 428.017  11
   3   6   7 4615.34 471.637   2
  -3  -6  -8 547.374 230.179  11
   3   6   8 739.006 117.980   6
   3   6   8 493.130 209.635   2
  -3  -6  -9 207.213 175.097  11
   3   6   9 80.2438 60.2992   6
   3   6   9-67.1782 161.042   2
  -3  -6 -10 589.648 230.450  11
   3   6  10 471.812 193.439   2
  -3  -6 -11 16298.6 958.299  11
   3   6  11 15378.7 939.920   2
   3   6  11 15197.4 958.584   1
   3   6  12 142.398 195.061   2
   3   6  12 60.1878 115.298   1
  -3  -6 -13 6909.72 660.800  11
   3   6  13 7077.15 687.263   1
  -3  -6 -14 335.916 260.765  11
   3   6  14 114.999 204.400   1
  -3  -6 -15 3384.38 537.666  11
   3   6  15 2904.58 487.781   1
   3   6  16-23.9635 178.263   1
   3   6  16 90.0439 167.347   3
  -3  -6 -16 359.340 269.033  11
   3   6  17 877.829 338.807   1
  -3  -6 -17 1504.47 398.948  11
   3   6  17 911.418 287.665   3
  -3  -6 -18 1946.74 462.415  11
   3   6  18 2302.28 412.337   3
   3   6  18 2803.62 543.388   1
  -3  -6 -19 565.234 326.173  11
   3   6  19 433.362 278.407   1
   3   7 -13 500.047 243.040   4
   3   7 -12 2074.72 457.731   4
   3   7 -12 2398.17 505.459  11
   3   7 -11 236.685 268.298  11
   3   7 -11 252.848 242.524   4
   3   7 -10 34.7946 136.331   4
   3   7 -10 400.926 261.825  11
  -3  -7  10 594.578 357.016  10
   3   7  -9-267.061 255.055   4
  -3  -7   9 359.004 229.990  10
   3   7  -9 53.9318 152.827  11
   3   7  -8 2403.98 413.133   4
  -3  -7   8 3004.03 483.807  10
   3   7  -8 3049.38 401.297   2
   3   7  -7 3211.67 482.473   4
  -3  -7   7 2852.86 426.707   7
  -3  -7   7 3926.48 497.784  10
   3   7  -7 3512.00 420.490   2
   3   7  -6 2340.86 409.504   4
  -3  -7   6 2428.55 408.922   7
   3   7  -6 2796.17 364.053   2
  -3  -7   6 2003.42 377.424  10
  -3  -7   5 2735.17 403.347   7
   3   7  -5 3004.32 376.202   2
  -3  -7   5 2711.72 369.122  10
   3   7  -5 2210.84 383.772   4
   3   7  -4 2330.02 332.543   2
  -3  -7   4 2064.52 349.331   7
  -3  -7   4 2710.36 419.857   9
  -3  -7   4 1937.75 329.420  10
   3   7  -4 1822.42 343.089   4
   3   7  -3 351.536 179.438   2
  -3  -7   3 326.895 180.412   7
   3   7  -3 414.507 133.695   5
  -3  -7   3 376.247 149.375  10
  -3  -7   3 542.089 213.440   9
   3   7  -3 49.3081 158.667   4
  -3  -7   2 4239.69 464.216   7
   3   7  -2 4396.90 331.738   5
   3   7  -2 4590.54 442.216   2
  -3  -7   2 4843.58 530.323   9
  -3  -7   2 4561.65 428.489  10
   3   7  -2 4238.21 497.752   4
   3   7  -1 2484.05 327.610   2
  -3  -7   1 2543.25 362.814   7
  -3  -7   1 2174.83 288.188  10
   3   7  -1 2599.70 269.780   5
  -3  -7   1 2775.98 392.242   9
   3   7  -1 2314.86 372.422   4
   3   7   0 125.054 137.238   4
   3   7   0 8.13158 106.865   2
  -3  -7   0 45.4727 144.761   7
  -3  -7   0 143.377 133.310  10
   3   7   0 42.9828 76.4359   5
  -3  -7   0 118.939 157.429   9
  -3  -7   0 62.8828 30.1290   8
  -3  -7  -1 13070.6 771.206   7
   3   7   1 12809.3 624.568   5
  -3  -7  -1 13638.5 673.722  10
   3   7   1 12962.1 732.304   2
  -3  -7  -1 13157.1 797.824   9
  -3  -7  -1 13343.4 399.497   8
   3   7   1 12546.1 791.078   4
   3   7   2-9.18214 113.061   4
  -3  -7  -2 174.857 73.6626   8
  -3  -7  -2 124.898 129.745   7
  -3  -7  -2 135.647 124.897   9
  -3  -7  -2 105.592 102.922  10
   3   7   2-25.5659 88.7805   5
   3   7   2 202.350 155.909   2
   3   7   3 1915.58 299.563   4
  -3  -7  -3 2225.74 332.353   7
  -3  -7  -3 1505.58 259.893  10
   3   7   3 1933.36 271.163   5
  -3  -7  -3 2211.93 349.539   9
  -3  -7  -3 2060.31 200.138   8
   3   7   3 1734.18 288.969   2
  -3  -7  -4 4334.89 454.332   7
  -3  -7  -4 4332.76 390.101  10
   3   7   4 3427.06 410.366   2
  -3  -7  -4 3703.60 444.437   9
   3   7   4 3733.67 382.354   5
   3   7   4 4318.16 443.046   4
   3   7   5 12941.0 719.096   5
  -3  -7  -5 13577.8 805.034   7
   3   7   5 13642.7 796.116   2
  -3  -7  -5 14358.5 821.289   9
   3   7   5 14464.3 770.210   4
   3   7   6 762.060 210.975   4
  -3  -7  -6 967.289 262.242   7
   3   7   6 673.737 192.149   5
  -3  -7  -6 950.274 229.888   9
   3   7   6 669.241 226.790   2
   3   7   7 612.725 175.165   4
  -3  -7  -7 541.488 193.754   7
  -3  -7  -7 492.093 138.066  11
   3   7   7 623.875 120.989   6
   3   7   7 456.205 199.517   2
   3   7   7 637.273 220.813   5
  -3  -7  -7 474.133 186.509   9
  -3  -7  -8 1083.60 247.171  11
  -3  -7  -8 1600.69 294.789   7
   3   7   8 1093.44 249.830   2
   3   7   8 1568.21 298.546   5
  -3  -7  -9 504.810 229.199  11
   3   7   9 12.0199 155.266   2
  -3  -7 -10 4485.75 504.179  11
   3   7  10 3584.34 494.428   2
   3   7  10 4950.82 562.925   1
   3   7  11 9944.83 789.018   2
   3   7  11 9978.66 792.433   1
   3   7  12 2209.56 389.623   1
   3   7  12 2136.68 405.845   2
  -3  -7 -12 3025.56 454.351  11
   3   7  13 883.579 282.113   1
  -3  -7 -13 2044.58 440.736  11
  -3  -7 -14 1605.88 419.581  11
   3   7  14 101.428 180.212   1
  -3  -7 -15 672.794 338.971  11
   3   7  15 172.656 210.772   1
   3   7  16 2054.79 459.943   1
  -3  -7 -16 3177.06 545.814  11
   3   7  17 658.908 273.834   1
   3   7  17 1261.57 327.555   3
  -3  -7 -17 1737.80 428.428  11
  -3  -7 -18 1226.18 423.122  11
   3   7  18 717.964 326.965   1
  -3  -7 -19 3342.29 628.486  11
   3   8 -12 760.311 287.118   4
   3   8 -11-339.044 239.534   4
   3   8 -11 113.540 267.997  11
   3   8 -10 1900.27 395.872   4
   3   8 -10 2602.70 495.115  11
  -3  -8  10 1750.17 451.741  10
   3   8  -9 2748.80 492.214   4
   3   8  -9 3115.46 527.065  11
  -3  -8   9 1826.85 447.809  10
   3   8  -8 199.849 164.166   4
  -3  -8   8 515.966 214.544  10
   3   8  -7 92.9808 169.570   4
  -3  -8   7 164.455 169.161  10
  -3  -8   7-38.7080 152.712   7
  -3  -8   6 3040.21 457.938   7
  -3  -8   6 3609.39 457.645  10
   3   8  -6 3761.61 439.873   2
   3   8  -6 2878.27 483.235   4
   3   8  -5 2422.19 354.895   2
  -3  -8   5 2310.75 424.359   7
  -3  -8   5 2204.66 344.322  10
   3   8  -5 2225.10 420.106   4
   3   8  -4-30.2202 132.108   2
  -3  -8   4-41.4363 152.800   7
  -3  -8   4 159.240 144.073  10
  -3  -8   4-119.630 161.209   9
   3   8  -4 109.835 159.225   4
   3   8  -3 1778.96 313.837   2
  -3  -8   3 2176.47 377.069   7
  -3  -8   3 1655.16 287.431  10
  -3  -8   3 1995.63 402.457   9
   3   8  -3 1715.67 361.739   4
  -3  -8   2 4689.51 519.279   7
   3   8  -2 4366.54 454.729   2
   3   8  -2 4519.67 376.568   5
  -3  -8   2 4767.85 443.271  10
  -3  -8   2 4864.30 568.413   9
   3   8  -2 4447.61 547.439   4
  -3  -8   1 8333.42 675.727   7
   3   8  -1 7832.11 505.447   5
  -3  -8   1 9315.64 587.857  10
   3   8  -1 8641.21 621.380   2
  -3  -8   1 7716.08 683.666   9
  -3  -8   1 8282.92 324.714   8
   3   8  -1 8003.71 698.578   4
   3   8   0 1547.11 277.472   2
  -3  -8   0 1743.79 336.389   7
  -3  -8   0 1909.89 277.996  10
  -3  -8   0 1417.72 306.717   9
  -3  -8   0 1496.24 146.071   8
   3   8   0 1658.19 257.544   5
   3   8   0 1518.56 329.010   4
   3   8   1 492.198 212.851   4
  -3  -8  -1 446.982 181.359   7
  -3  -8  -1 399.300 137.089  10
   3   8   1 670.770 170.655   5
  -3  -8  -1 459.241 185.273   9
   3   8   1 535.859 165.191   2
  -3  -8  -1 585.347 105.833   8
   3   8   2 963.290 249.990   4
  -3  -8  -2 1105.91 153.020   8
  -3  -8  -2 1145.97 272.791   7
  -3  -8  -2 895.643 193.361  10
   3   8   2 1076.96 210.798   5
  -3  -8  -2 1200.28 301.054   9
   3   8   2 1325.68 271.301   2
   3   8   3 414.857 197.154   4
  -3  -8  -3 327.662 110.787   8
  -3  -8  -3 483.381 199.771   7
  -3  -8  -3 525.718 150.926  10
   3   8   3 349.164 146.151   5
  -3  -8  -3 120.761 135.780   9
   3   8   3 178.987 150.724   2
  -3  -8  -4 6647.51 588.687   7
  -3  -8  -4 7351.24 505.466  10
   3   8   4 6901.21 543.005   5
  -3  -8  -4 6991.38 638.124   9
  -3  -8  -4 7120.79 426.256   8
   3   8   4 7247.92 603.761   4
   3   8   4 6727.34 570.059   2
   3   8   5 73.9670 144.807   4
  -3  -8  -5 10.3020 77.5144   8
  -3  -8  -5 47.0393 108.781  10
  -3  -8  -5 292.609 151.615   7
   3   8   5-13.4717 125.453   5
   3   8   5 209.888 144.561   2
  -3  -8  -5 439.618 202.787   9
   3   8   6 182.809 163.987   4
  -3  -8  -6 97.8010 130.175   7
   3   8   6 42.6810 109.793   5
  -3  -8  -6-90.8388 193.451   9
   3   8   6 238.104 195.554   2
  -3  -8  -7 4441.30 505.407   7
   3   8   7 4427.59 504.283   2
   3   8   7 4205.49 463.834   5
  -3  -8  -7 4122.82 499.226   9
   3   8   7 4460.64 457.389   4
   3   8   8 330.228 133.814   4
  -3  -8  -8 492.990 207.791   7
  -3  -8  -8 105.369 213.022  11
   3   8   8 202.751 170.591   2
   3   8   8 208.127 182.901   5
  -3  -8  -8 304.046 207.687   9
  -3  -8  -9 386.838 198.163   7
   3   8   9 528.177 206.415   2
   3   8   9 523.590 200.172   5
  -3  -8 -10 14783.2 977.637   7
   3   8  10 15223.6 997.693   2
  -3  -8 -10 15462.0 909.592  11
   3   8  10 15381.3 1000.53   1
  -3  -8 -11 1717.89 346.517   7
   3   8  11 1257.64 315.467   1
  -3  -8 -11 1836.48 363.778  11
   3   8  11 1726.40 377.502   2
  -3  -8 -12 864.093 304.054  11
   3   8  12 382.821 195.252   1
   3   8  12 406.255 209.477   2
   3   8  13 496.112 242.114   1
  -3  -8 -13 1692.13 387.226  11
  -3  -8 -14 2908.66 487.419  11
   3   8  14 1807.93 416.971   1
  -3  -8 -15 959.654 383.228  11
   3   8  15 402.538 289.297   1
   3   8  16 1689.11 418.485   1
  -3  -8 -16 2425.31 530.094  11
   3   8  17 1947.92 430.007   1
  -3  -8 -17 3111.57 583.030  11
   3   8  18-370.251 274.419   1
  -3  -8 -18 2766.06 645.685  11
  -3  -8 -19 2355.47 556.183  11
   3   9 -10-189.521 248.779   4
   3   9 -10 249.283 219.197  11
   3   9  -9 265.466 216.455   4
   3   9  -9 39.7120 203.894  11
   3   9  -8 384.203 265.951   4
   3   9  -7 2169.36 453.000   4
  -3  -9   7 1955.73 428.647   7
  -3  -9   7 1848.27 395.250  10
  -3  -9   6 204.975 195.902   7
  -3  -9   6 445.708 221.172  10
   3   9  -6 358.440 189.109   4
  -3  -9   5 190.995 212.394   7
  -3  -9   5-34.2419 133.568  10
   3   9  -5-26.3971 155.469   4
  -3  -9   4 6423.58 691.672   7
  -3  -9   4 7077.34 589.857  10
   3   9  -4 7147.77 597.608   2
  -3  -9   4 6901.44 737.250   9
   3   9  -4 6697.07 712.225   4
   3   9  -3 2079.42 329.412   2
  -3  -9   3 1922.49 388.643   7
  -3  -9   3 1891.86 313.268  10
  -3  -9   3 2004.51 404.518   9
   3   9  -3 2168.30 427.235   4
   3   9  -2 218.197 147.808   2
  -3  -9   2 261.978 173.975   7
  -3  -9   2 231.822 215.392   9
  -3  -9   2 80.6392 145.167  10
   3   9  -2 140.676 185.186   4
  -3  -9   1 106.704 152.237   7
  -3  -9   1-20.1417 108.896  10
   3   9  -1 103.956 115.577   5
  -3  -9   1 70.7477 175.989   9
   3   9  -1 98.4924 121.052   2
   3   9  -1 1.89045 155.183   4
  -3  -9   0 4006.75 506.060   7
   3   9   0 4644.77 445.286   5
  -3  -9   0 4678.07 409.089  10
   3   9   0 4263.57 460.514   2
  -3  -9   0 3865.99 511.525   9
   3   9   0 3807.96 498.674   4
   3   9   1 156.153 149.623   4
  -3  -9  -1 181.457 189.189   7
  -3  -9  -1 174.340 117.704  10
   3   9   1 76.5349 104.156   5
  -3  -9  -1 307.082 209.003   9
   3   9   1 412.337 193.624   2
   3   9   2-99.7941 166.175   4
  -3  -9  -2-159.898 166.188   7
  -3  -9  -2-82.6349 106.742  10
   3   9   2 34.2821 143.657   5
  -3  -9  -2-32.6939 166.829   9
   3   9   2 229.154 153.335   2
  -3  -9  -2-25.5322 67.3920   8
   3   9   3 1990.71 357.617   4
  -3  -9  -3 2887.20 440.497   7
   3   9   3 2796.62 378.474   5
  -3  -9  -3 2331.49 420.413   9
  -3  -9  -3 2988.07 284.625   8
   3   9   3 2855.10 405.463   2
  -3  -9  -3 2662.78 325.947  10
   3   9   4 1905.36 332.787   4
  -3  -9  -4 2324.76 409.211   7
  -3  -9  -4 1730.66 273.956  10
   3   9   4 2286.46 345.126   5
  -3  -9  -4 2033.87 385.386   9
   3   9   4 1846.89 346.684   2
  -3  -9  -4 2481.56 272.150   8
   3   9   5 361.638 189.640   4
  -3  -9  -5 162.870 95.2611   8
  -3  -9  -5 15.9429 162.451   7
  -3  -9  -5 225.640 108.876  10
   3   9   5 408.793 193.836   5
  -3  -9  -5 208.787 168.659   9
   3   9   5 304.927 156.275   2
   3   9   6 1169.99 255.445   4
  -3  -9  -6 1407.19 244.016   8
  -3  -9  -6 1094.89 293.898   7
  -3  -9  -6 967.040 238.556  10
   3   9   6 1212.55 288.415   5
  -3  -9  -6 1104.96 291.970   9
   3   9   6 1134.96 287.987   2
   3   9   7 1077.51 265.305   4
  -3  -9  -7 899.220 278.888   7
   3   9   7 921.651 261.167   2
   3   9   7 1098.20 251.055   5
  -3  -9  -7 812.491 261.723   9
  -3  -9  -8 3453.51 495.171   7
   3   9   8 3500.76 487.810   2
   3   9   8 3336.54 441.334   5
  -3  -9  -8 3387.56 476.865   9
   3   9   8 3640.47 429.276   4
   3   9   9 1966.07 312.824   4
  -3  -9  -9 2031.06 382.399   7
   3   9   9 1382.91 305.056   2
   3   9   9 1599.28 354.664   5
  -3  -9  -9 1796.56 372.682   9
   3   9  10 2864.54 452.092   1
  -3  -9 -10 3323.71 497.867   7
  -3  -9 -10 2802.45 399.068  11
   3   9  10 3379.32 516.801   2
  -3  -9 -10 3252.79 488.012   9
   3   9  10 2883.12 444.378   5
  -3  -9 -11 81.1852 168.869   7
   3   9  11 50.9273 167.545   2
   3   9  11 154.284 170.871   1
  -3  -9 -12 700.560 246.483   7
   3   9  12 775.602 263.820   1
  -3  -9 -12 385.915 194.577  11
   3   9  12 1058.27 315.174   2
   3   9  13 3091.86 498.893   1
  -3  -9 -13 3484.50 544.509   7
  -3  -9 -13 2480.14 446.574  11
  -3  -9 -14 677.453 282.415   7
  -3  -9 -14 678.929 341.468  11
   3   9  14 365.718 242.700   1
  -3  -9 -15 1816.69 407.614   7
   3   9  15 1304.23 344.457   1
  -3  -9 -15 2511.51 509.427  11
   3   9  16 812.274 261.625   1
  -3  -9 -16 1911.20 481.427  11
   3   9  17 169.762 238.760   1
  -3  -9 -17 3893.31 671.325  11
  -3  -9 -18 2751.07 571.049  11
   3  10  -9 115.492 164.505  11
   3  10  -8 3065.36 614.526   4
   3  10  -8 2385.15 464.113  11
   3  10  -8 2922.27 557.357   6
   3  10  -7-66.5313 201.837   4
  -3 -10   7 313.261 295.739   7
   3  10  -6 487.128 291.231   4
  -3 -10   6 439.853 222.483   7
  -3 -10   5 258.021 192.699   7
   3  10  -5-141.940 208.595   4
  -3 -10   4 5603.42 679.136   7
  -3 -10   4 5476.13 694.217   9
   3  10  -4 6378.79 755.345   4
  -3 -10   3 2125.27 430.012   7
  -3 -10   3 1607.03 353.282   9
   3  10  -3 2448.34 475.358   4
  -3 -10   2 1110.68 334.466   7
  -3 -10   2 1382.06 383.159   9
   3  10  -2 1237.52 285.294   2
   3  10  -2 895.208 313.940   4
  -3 -10   1 5387.99 639.378   7
  -3 -10   1 5398.07 644.622   9
   3  10  -1 5471.36 659.686   4
   3  10  -1 6085.90 579.828   2
  -3 -10   0-42.6431 176.036   7
   3  10   0-25.8248 104.877   5
  -3 -10   0 339.595 239.120   9
   3  10   0-53.4122 168.662   2
   3  10   0-196.833 227.596   4
   3  10   1 194.013 180.188   4
  -3 -10  -1 41.2301 172.726   7
   3  10   1 42.5520 107.724   5
  -3 -10  -1 391.538 213.906   9
   3  10   1-8.91443 118.796   2
   3  10   2 1821.89 385.560   4
  -3 -10  -2 1332.45 338.763   9
  -3 -10  -2 1334.19 326.289   7
  -3 -10  -2 1998.09 280.711  10
   3  10   2 1775.24 306.816   5
   3  10   2 1540.96 332.971   2
  -3 -10  -3 5668.60 643.659   7
   3  10   3 5586.49 572.374   2
   3  10   3 6171.05 577.336   5
  -3 -10  -3 6903.00 497.715  10
  -3 -10  -3 6483.66 704.151   9
   3  10   3 5477.10 603.189   4
   3  10   4 266.874 181.846   4
  -3 -10  -4 235.535 107.913   8
  -3 -10  -4 112.767 167.887   7
  -3 -10  -4 293.448 132.215  10
   3  10   4 54.5556 137.105   5
  -3 -10  -4 283.905 236.522   9
   3  10   4-37.7024 148.540   2
   3  10   5 1406.91 311.459   4
  -3 -10  -5 1511.69 228.381   8
  -3 -10  -5 1696.28 380.360   7
  -3 -10  -5 1674.23 265.741  10
  -3 -10  -5 1403.07 350.289   9
   3  10   5 1652.75 324.261   5
   3  10   5 1552.81 334.101   2
   3  10   6 1143.19 277.681   4
  -3 -10  -6 1083.28 232.420   8
  -3 -10  -6 1263.79 331.337   7
  -3 -10  -6 770.060 219.072  10
   3  10   6 1025.01 290.496   2
   3  10   6 706.060 240.027   5
  -3 -10  -6 1145.61 333.118   9
   3  10   7 3118.32 433.554   4
  -3 -10  -7 3783.52 542.513   7
  -3 -10  -7 3129.78 373.188  10
   3  10   7 3186.61 491.450   2
   3  10   7 2827.45 428.033   5
  -3 -10  -7 2958.85 454.168   9
  -3 -10  -7 3507.02 389.837   8
   3  10   8 415.191 177.821   4
  -3 -10  -8 650.941 289.173   7
   3  10   8 106.770 148.337   2
   3  10   8 240.990 169.348   5
  -3 -10  -8 161.735 219.237   9
  -3 -10  -9 4059.20 563.045   7
   3  10   9 4107.41 562.600   2
   3  10   9 3690.16 514.599   5
   3  10   9 4643.61 507.751   4
   3  10   9 4334.18 555.868   1
  -3 -10  -9 4888.25 604.247   9
   3  10  10-173.374 131.307   4
  -3 -10 -10 64.5159 200.649   7
   3  10  10 57.0327 172.986   1
   3  10  10-150.395 193.673   2
  -3 -10 -10-74.8970 207.078   9
   3  10  10 389.319 223.477   5
  -3 -10 -11 1282.51 351.461   7
  -3 -10 -11 888.373 226.316  11
   3  10  11 1586.59 377.170   1
   3  10  11 1306.70 354.089   2
  -3 -10 -11 1557.78 370.459   9
   3  10  11 1217.87 372.541   5
   3  10  12 147.244 180.839   1
  -3 -10 -12-182.439 217.131   7
   3  10  12-9.31154 197.631   2
  -3 -10 -13 1564.73 398.050   7
  -3 -10 -13 314.555 166.864  11
   3  10  13 1009.67 301.233   1
  -3 -10 -14 169.432 228.601   7
  -3 -10 -14-80.8846 228.353  11
   3  10  14 92.7167 198.394   1
  -3 -10 -15 1008.80 352.024   7
  -3 -10 -15 888.686 332.312  11
   3  10  15 1344.42 384.087   1
  -3 -10 -16 1505.86 397.942   7
   3  10  16 732.402 311.796   1
  -3 -10 -16 996.783 375.545  11
  -3 -10 -17 762.674 331.169  11
  -3 -10 -18 2741.39 570.225  11
  -3 -11   7 477.848 301.417   7
   3  11  -7 447.261 253.813   6
  -3 -11   6 570.519 285.782   7
   3  11  -6 575.677 289.387   6
  -3 -11   5 772.524 279.872   7
   3  11  -5 608.133 283.543   4
   3  11  -5 898.926 300.135   6
  -3 -11   4 963.455 348.012   7
   3  11  -4 945.276 302.863   6
  -3 -11   4 1268.70 426.547   9
   3  11  -4 834.952 324.424   4
  -3 -11   3 2148.04 455.880   7
  -3 -11   3 1465.31 382.971   9
   3  11  -3 1691.92 412.473   4
  -3 -11   2 1979.79 459.663   7
  -3 -11   2 2229.52 481.553   9
   3  11  -2 1917.21 416.884   4
  -3 -11   1 68.5531 177.339   7
  -3 -11   1-24.1503 171.333   9
   3  11  -1 301.166 186.346   4
  -3 -11   0 403.790 263.146   7
  -3 -11   0-207.147 199.578   9
   3  11   0 311.934 207.125   2
   3  11   0 202.226 201.159   4
  -3 -11  -1-0.87448 200.537   9
  -3 -11  -1 320.961 237.015   7
   3  11   1 201.855 174.295   4
   3  11   1-78.4728 138.418   5
   3  11   1 255.730 203.622   2
  -3 -11  -2 6190.76 693.448   7
   3  11   2 6318.58 620.500   2
   3  11   2 7159.74 640.124   5
  -3 -11  -2 6662.86 721.783   9
   3  11   2 6745.77 725.822   4
   3  11   3 105.636 195.663   4
  -3 -11  -3-5.98011 167.597   7
   3  11   3 114.007 168.682   5
  -3 -11  -3-70.9903 214.184   9
   3  11   3 173.928 172.528   2
   3  11   4 3611.27 536.154   4
  -3 -11  -4 3629.31 573.998   7
   3  11   4 3822.25 505.734   2
   3  11   4 3350.68 462.057   5
  -3 -11  -4 3343.96 523.846   9
   3  11   5 2240.77 393.632   4
  -3 -11  -5 1706.64 376.876   7
  -3 -11  -5 2008.48 441.574   9
   3  11   5 1927.47 390.145   5
   3  11   5 1913.62 385.908   2
   3  11   6 934.429 255.523   4
  -3 -11  -6 795.394 282.418   7
   3  11   6 1111.42 287.318   2
   3  11   6 1211.46 330.020   5
  -3 -11  -6 912.266 282.461   9
   3  11   7 229.222 144.182   4
  -3 -11  -7 351.797 135.940   8
  -3 -11  -7 48.5443 171.148   7
   3  11   7 359.728 207.608   2
  -3 -11  -7 378.575 201.161   9
   3  11   7 328.970 228.703   5
  -3 -11  -8 9233.84 686.225   8
  -3 -11  -8 8808.91 843.246   7
   3  11   8 8159.15 790.216   2
   3  11   8 8038.98 766.668   5
  -3 -11  -8 7319.96 782.004   9
   3  11   8 8113.95 720.536   4
   3  11   8 9094.07 798.004   1
   3  11   9 1955.03 351.219   4
  -3 -11  -9 1819.00 344.886   8
   3  11   9 1752.30 391.857   1
  -3 -11  -9 2270.19 469.918   7
   3  11   9 1781.50 400.301   5
   3  11   9 1939.75 411.523   2
  -3 -11  -9 1556.73 403.464   9
  -3 -11 -10 411.428 235.754   7
   3  11  10 533.255 253.778   2
   3  11  10 331.820 226.028   1
  -3 -11 -10 759.157 292.013   9
   3  11  10 324.553 218.113   5
  -3 -11 -11-86.9981 215.136   7
   3  11  11-92.0339 227.618   1
   3  11  11-293.382 232.406   5
   3  11  11-7.89877 173.016   2
  -3 -11 -11 382.906 207.202   9
   3  11  12 3247.41 536.517   1
  -3 -11 -12 3921.19 603.295   7
   3  11  12 3035.40 523.854   2
  -3 -11 -12 3641.77 576.469   9
  -3 -11 -13 216.627 215.025   7
   3  11  13 192.958 192.603   1
  -3 -11 -13 176.337 249.041   9
  -3 -11 -14 642.937 307.950   7
  -3 -11 -14 935.891 367.761   9
   3  11  14 615.568 317.119   1
  -3 -11 -15 1962.05 447.141   7
   3  11  15 1133.62 382.305   1
  -3 -11 -16-506.265 334.878  11
  -3 -11 -17-767.985 376.096  11
  -3 -12   4 1123.13 380.389   7
  -3 -12   3 336.881 328.920   7
   3  12  -2 1833.87 467.761   4
  -3 -12   2 1606.11 433.553   7
  -3 -12   2 1572.43 431.574   9
   3  12  -1 203.566 299.096   4
  -3 -12   1-137.990 213.991   7
  -3 -12   1 301.897 245.985   9
   3  12   0 173.370 232.963   4
  -3 -12   0 194.758 231.997   7
  -3 -12   0-382.687 278.339   9
   3  12   1 2177.35 458.599   4
  -3 -12  -1 2023.95 424.499   7
  -3 -12  -1 1703.66 424.210   9
   3  12   2 1053.90 333.565   4
  -3 -12  -2 1241.73 345.343   7
  -3 -12  -2 838.090 317.963   9
   3  12   3-63.1134 179.354   4
  -3 -12  -3 240.398 235.632   7
   3  12   3 192.733 206.950   5
  -3 -12  -3-238.344 221.310   9
   3  12   3 224.086 155.949   2
   3  12   4 1113.67 313.120   4
  -3 -12  -4 1028.64 337.890   7
   3  12   4 1424.63 342.293   5
  -3 -12  -4 638.061 292.787   9
   3  12   4 1188.84 309.934   2
   3  12   5 1987.06 421.381   4
  -3 -12  -5 1684.96 435.868   7
   3  12   5 1705.74 376.383   2
  -3 -12  -5 1472.85 382.232   9
   3  12   5 1771.91 362.765   5
   3  12   6 495.311 290.061   4
  -3 -12  -6 460.401 258.467   7
   3  12   6 230.601 199.660   2
  -3 -12  -6 275.307 248.822   9
   3  12   6 65.2105 159.518   5
   3  12   7 3743.24 525.586   4
  -3 -12  -7 3611.33 576.446   7
   3  12   7 3603.89 524.653   1
   3  12   7 4210.39 598.729   2
  -3 -12  -7 3332.59 546.545   9
   3  12   7 2953.64 491.873   5
   3  12   8 3168.32 486.950   4
  -3 -12  -8 2651.81 499.395   7
   3  12   8 2771.36 465.432   1
   3  12   8 3109.94 520.574   2
  -3 -12  -8 3695.96 614.271   9
   3  12   8 2657.21 504.823   5
   3  12   9 81.2626 151.872   4
  -3 -12  -9 197.157 239.761   7
   3  12   9 15.2040 176.455   2
   3  12   9 63.4373 136.002   1
  -3 -12  -9 246.905 193.625   9
   3  12   9-268.638 272.173   5
  -3 -12 -10 6.46464 225.481   7
   3  12  10-102.915 181.844   1
   3  12  10 218.546 204.637   2
  -3 -12 -10-404.128 313.644   9
   3  12  10 124.464 181.921   5
  -3 -12 -11 595.697 221.751   8
   3  12  11 730.674 321.187   1
  -3 -12 -11 941.758 330.126   7
   3  12  11 989.669 348.927   2
  -3 -12 -11 1110.61 313.980   9
   3  12  11 1000.98 327.661   5
  -3 -12 -12 17.4181 254.333   7
  -3 -12 -12 192.062 228.839   9
   3  12  12 272.421 243.033   1
   3  12  13 372.030 219.013   1
   3  12  14 1665.86 443.796   1
   3  13   1 1982.94 470.789   4
  -3 -13  -1 1299.31 377.849   7
  -3 -13  -2 45.2445 181.950   7
  -3 -13  -2-0.26658 195.670   9
   3  13   3 68.2178 201.384   4
  -3 -13  -3-283.715 224.386   9
   3  13   4 917.051 306.894   4
  -3 -13  -4 300.229 192.027   7
  -3 -13  -4 550.678 285.495   9
   3  13   4 1188.24 347.783   5
   3  13   5 1791.07 431.621   4
  -3 -13  -5 1776.92 454.436   7
   3  13   5 1441.47 357.278   2
  -3 -13  -5 1471.98 445.370   9
   3  13   5 1689.53 418.986   5
   3  13   6 451.633 256.957   4
  -3 -13  -6 258.116 216.547   7
   3  13   6 474.932 255.722   2
  -3 -13  -6-322.813 278.219   9
   3  13   6 25.4287 180.884   5
   3  13   7 3984.76 578.749   4
  -3 -13  -7 3314.12 576.224   7
   3  13   7 2820.91 500.492   2
  -3 -13  -7 3624.99 598.584   9
   3  13   7 3088.34 510.477   5
   3  13   8 290.972 210.399   4
  -3 -13  -8 30.6240 187.119   7
   3  13   8 306.072 223.479   2
  -3 -13  -8-121.972 254.094   9
   3  13   8-106.244 178.525   5
   3  13   9 126.870 172.168   2
  -3 -13  -9 512.679 353.674   9
   3  13   9 214.126 217.509   5
   3  13  10 554.889 254.111   2
   3  13  10 598.103 287.549   5
   3  13  11 1441.82 388.626   1
   3  13  11 738.876 311.688   5
   3  13  12 715.336 293.626   1
   3  13  13 1786.12 471.716   1
   3  14   4 306.605 272.328   4
   3  14   5 457.483 213.763   4
   3  14   6 2737.79 532.766   4
   3  14   6 2274.12 461.854   5
   3  14   7 2197.75 483.573   4
   3  14   7 735.960 277.288   5
   3  14   8 126.165 223.599   5
   3  14   8 239.937 244.724   2
   4 -13  -5 2231.01 487.216   7
   4 -13  -4 870.466 382.517   7
   4 -13  -3 277.436 278.885   7
   4 -13  -2 342.310 268.968   7
   4 -12  -6 841.518 260.560   8
   4 -12  -5 4337.60 647.091   8
   4 -12  -5 4710.28 654.633   7
   4 -12  -4 190.161 198.754   8
   4 -12  -4 106.554 181.546   7
  -4  12   4 456.784 253.536   5
   4 -12  -3 600.766 286.544   8
   4 -12  -3 715.305 312.108   7
  -4  12   3 292.750 233.945   5
   4 -12  -2-235.676 234.010   7
  -4  12   2-146.989 205.515   5
   4 -12  -2-344.349 279.235   8
   4 -12  -1 1275.51 379.434   7
  -4  12   1 1524.07 427.832   5
   4 -12  -1 1950.11 456.421   8
   4 -12   0 872.231 333.318   7
  -4  12   0 299.761 247.790   5
   4 -12   0 226.888 231.058   8
   4 -12   1 2094.70 469.399   7
  -4  12  -1 1944.43 461.773   5
   4 -12   1 1725.03 406.394   8
   4 -12   2 22.2667 191.654   7
  -4  12  -2-108.487 235.870   5
   4 -12   2 112.137 279.312   8
   4 -12   3 632.477 280.402   7
   4 -12   3-190.627 234.023   8
   4 -12   4-55.8327 172.331   8
   4 -12   5 1107.17 381.294   8
   4 -12   6-45.8800 200.737   8
   4 -11  -9 1090.48 381.862   8
  -4  11   9 155.244 176.473   5
   4 -11  -8 272.700 198.513   8
  -4  11   8 522.668 273.227   5
   4 -11  -7 596.256 314.733   8
  -4  11   7 451.234 253.921   5
   4 -11  -6 4697.85 651.413   8
   4 -11  -6 4958.85 592.783   7
  -4  11   6 4789.98 659.961   5
   4 -11  -5 411.183 203.541   8
   4 -11  -5 972.076 309.973   7
  -4  11   5 949.510 348.774   5
   4 -11  -4 1947.83 454.127   8
   4 -11  -4 1405.73 405.475   7
  -4  11   4 1569.88 422.227   5
   4 -11  -3-54.0688 204.434   8
   4 -11  -3 102.284 171.951   7
  -4  11   3 178.420 181.441   5
   4 -11  -2 378.954 225.529   8
   4 -11  -2 463.098 266.327   7
  -4  11   2 380.571 298.252   5
   4 -11  -1 245.907 231.626   7
  -4  11   1-330.381 252.410   5
   4 -11  -1 434.932 239.679   8
   4 -11   0 2690.02 491.479   7
  -4  11   0 2790.23 507.093   5
   4 -11   0 2511.06 482.471   8
   4 -11   1 1302.33 363.822   7
  -4  11  -1 2394.06 482.198   5
   4 -11   1 1355.30 352.925   8
   4 -11   2 1843.50 441.089   7
  -4  11  -2 1622.74 399.908   5
   4 -11   2 1558.32 381.054   8
   4 -11   3-89.8503 207.950   7
  -4  11  -3 13.3845 197.603   5
   4 -11   3-27.8042 187.929   8
   4 -11   4-136.617 235.520   7
  -4  11  -4 611.922 307.623   5
   4 -11   4-74.6268 240.554   8
  -4  11  -5 305.405 237.146   5
   4 -11   5 269.160 194.402   8
  -4  11  -6 1140.35 365.561   5
   4 -11   6 1119.56 366.989   8
  -4  11  -7 1990.10 459.155   5
   4 -11   7 1279.05 381.254   8
   4 -11   8 179.981 293.283   8
   4 -11   9 79.6179 276.707   8
  -4  10  13 222.987 267.061   1
  -4  10  12-169.548 223.708   1
  -4  10  12 149.972 240.175   5
  -4  10  11 457.710 249.418   5
  -4  10  11 515.777 266.509   1
   4 -10 -10 609.948 279.844   8
  -4  10  10 729.420 288.640   1
  -4  10  10 254.631 207.223   5
   4 -10  -9 32.2620 207.387   8
  -4  10   9 240.860 223.890   1
  -4  10   9 409.630 268.128   5
   4 -10  -8 1205.16 361.302   8
  -4  10   8 645.666 272.562   5
   4 -10  -7 2718.93 487.695   8
   4 -10  -7 2221.98 406.464   7
  -4  10   7 1403.56 375.645   5
   4 -10  -6 559.936 242.470   8
   4 -10  -6 617.096 249.097   7
  -4  10   6-50.5465 230.979   5
   4 -10  -5 1655.91 378.197   8
   4 -10  -5 2209.12 415.306   7
  -4  10   5 1846.27 419.582   5
   4 -10  -4 10.2753 190.150   8
   4 -10  -4 255.983 138.400   7
  -4  10   4 63.8758 184.621   5
   4 -10  -3 1117.12 314.671   8
   4 -10  -3 1344.38 324.827   7
  -4  10   3 1411.47 364.835   5
   4 -10  -2 107.401 185.309   8
   4 -10  -2-4.32702 169.070   7
  -4  10   2 176.567 223.995   5
   4 -10  -1 2441.94 433.666   8
   4 -10  -1 1854.35 347.060   7
  -4  10   1 2467.32 443.391   5
   4 -10   0 4285.17 583.503   7
  -4  10   0 3924.98 589.936   5
   4 -10   0 3792.01 542.545   8
   4 -10   1 585.046 264.212   7
  -4  10  -1 723.505 248.344   5
   4 -10   1 359.788 250.323   8
   4 -10   2 397.152 249.834   7
  -4  10  -2 80.7227 203.664   5
   4 -10   2-166.750 194.389   8
   4 -10   3 1399.78 377.408   7
  -4  10  -3 1540.17 387.079   5
   4 -10   3 1362.30 319.131   8
   4 -10   4 1156.10 336.407   7
  -4  10  -4 1307.59 357.712   5
   4 -10   4 1035.68 340.427   8
  -4  10  -5 323.368 190.556   5
   4 -10   5 282.840 224.380   8
  -4  10  -6 1037.12 341.504   5
   4 -10   6 686.100 274.472   8
  -4  10  -7 1903.25 445.030   5
  -4  10  -7 1157.77 276.241   6
   4 -10   7 1668.60 401.110   8
  -4  10  -8 118.879 160.798   6
  -4  10  -8 407.432 267.864   5
   4 -10   8 8.91492 193.625   8
  -4  10  -9-19.3547 186.580   5
  -4  10  -9-287.489 271.441   6
   4 -10   9-355.331 204.134   8
  -4  10 -10 655.031 299.772   5
   4 -10  10 648.423 308.232   8
  -4  10 -10-47.3024 216.613   6
   4 -10  11 11.0656 197.945   8
  -4   9  14 538.145 317.564   5
  -4   9  13 112.118 171.922   1
  -4   9  13 367.996 245.027   5
   4  -9 -12-269.428 278.154   8
  -4   9  12 218.817 231.686   1
  -4   9  12 144.791 173.065   5
   4  -9 -11 107.441 231.784   8
  -4   9  11 300.217 231.352   1
  -4   9  11-373.637 251.600   5
   4  -9 -10 1827.39 459.251   8
  -4   9  10 1113.30 358.708   1
  -4   9  10 1562.50 398.771   5
   4  -9  -9 387.754 221.642   8
  -4   9   9 295.135 227.196   1
  -4   9   9-69.3115 211.121   5
   4  -9  -8 228.228 188.357   8
  -4   9   8 612.773 198.415   1
  -4   9   8 555.458 297.638   5
   4  -9  -7 887.896 326.964   8
   4  -9  -7 897.854 233.045   7
  -4   9   7 677.586 222.732   1
  -4   9   7 254.156 164.159   5
   4  -9  -6 2000.87 395.598   8
   4  -9  -6 2701.22 396.610   7
  -4   9   6 2158.16 383.004   5
  -4   9   6 2479.24 388.074   1
   4  -9  -5 107.391 211.017   8
   4  -9  -5 171.504 160.992   7
  -4   9   5 72.9583 127.212   1
  -4   9   5 319.238 243.713   5
   4  -9  -4 894.336 287.042   8
   4  -9  -4 587.399 205.406   7
  -4   9   4 819.284 303.126   5
   4  -9  -3 1434.40 350.296   8
   4  -9  -3 1234.13 290.205   7
  -4   9   3 1407.92 387.562   5
   4  -9  -2 3303.12 491.950   8
   4  -9  -2 2778.39 416.848   7
  -4   9   2 3478.35 517.557   5
   4  -9  -1 6783.80 659.124   7
  -4   9   1 7380.31 734.836   5
   4  -9  -1 7987.33 741.775   8
   4  -9   0 274.183 177.654   7
  -4   9   0 487.743 255.870   5
   4  -9   0 109.029 150.067   8
   4  -9   1 158.105 186.563   7
  -4   9  -1 208.432 212.494   5
   4  -9   1 165.430 154.017   9
   4  -9   1-181.261 159.307   8
   4  -9   2 787.199 289.952   7
  -4   9  -2 815.042 292.541   5
   4  -9   2 1099.06 221.747   9
   4  -9   2 1107.45 311.170   8
   4  -9   3 3600.55 519.015   7
  -4   9  -3 3965.86 549.823   5
   4  -9   3 4254.43 538.824   8
   4  -9   4 1278.77 330.891   7
  -4   9  -4 940.147 285.170   5
   4  -9   4 788.328 271.324   8
  -4   9  -5 28.4877 179.262   5
   4  -9   5-51.0440 145.565   8
  -4   9  -6 443.031 256.255   5
  -4   9  -6-47.7989 187.812   6
   4  -9   6 266.376 213.380   8
  -4   9  -7 247.120 185.330   6
  -4   9  -7 305.289 256.411   5
   4  -9   7 303.230 201.887   8
  -4   9  -8-7.97749 221.610   6
  -4   9  -8 148.221 204.266   5
   4  -9   8 302.774 254.220   8
  -4   9  -9 368.774 159.812   6
   4  -9   9 586.153 322.218   8
  -4   9 -10-124.254 155.453   6
  -4   9 -10 290.051 218.211   5
   4  -9  10 208.016 222.527   8
  -4   9 -11 899.779 337.664   5
  -4   9 -11 591.114 329.807   6
   4  -9  11 626.292 257.765   8
  -4   9 -12 406.197 288.797   5
  -4   8  15-266.003 253.473   5
  -4   8  14 741.086 300.556   1
  -4   8  14 588.816 297.204   5
   4  -8 -13-7.07243 208.365   8
  -4   8  13 269.031 243.286   1
  -4   8  13 96.0390 201.295   5
   4  -8 -12 142.542 226.391   8
  -4   8  12 456.342 240.211   1
  -4   8  12 973.513 346.694   5
   4  -8 -11 2186.21 451.277   8
  -4   8  11 1930.99 430.474   1
  -4   8  11 1809.24 394.792   5
   4  -8 -10 1678.07 403.408   8
  -4   8  10 1671.37 395.492   1
  -4   8  10 2403.27 467.373   5
   4  -8  -9 336.984 263.816   8
  -4   8   9 485.383 231.086   5
  -4   8   9 350.551 254.748   1
  -4   8   8 7336.83 733.032   5
  -4   8   8 6816.84 670.218   1
   4  -8  -8 6721.28 711.227   8
   4  -8  -7 337.526 217.343   8
   4  -8  -7 373.490 199.867   7
  -4   8   7 251.051 170.287   1
  -4   8   7 251.240 184.165   5
   4  -8  -6 1614.99 365.465   8
   4  -8  -6 1790.73 318.764   7
  -4   8   6 1089.34 252.447   1
  -4   8   6 942.755 300.478   5
   4  -8  -5 8150.31 623.861   7
  -4   8   5 7792.69 732.886   5
  -4   8   5 6864.39 588.572   1
   4  -8  -5 8107.68 547.509   9
   4  -8  -5 7403.49 723.847   8
   4  -8  -4 895.423 287.215   8
   4  -8  -4 1392.18 281.627   7
  -4   8   4 880.186 211.253   1
  -4   8   4 786.935 257.900   5
   4  -8  -4 943.385 206.210   9
   4  -8  -3 12.0393 160.158   8
   4  -8  -3 114.155 116.454   7
  -4   8   3 106.716 94.8485   1
  -4   8   3-128.551 150.963   5
   4  -8  -3 162.992 117.513   9
   4  -8  -2 4064.20 473.523   7
  -4   8   2 3905.82 362.196   1
  -4   8   2 3514.97 498.532   5
   4  -8  -2 3763.47 358.707   9
   4  -8  -2 4090.28 507.722   8
   4  -8  -1 118.527 200.852   8
   4  -8  -1 325.260 190.065   7
  -4   8   1-298.907 188.309   5
   4  -8  -1 114.049 103.013   9
   4  -8   0 894.820 240.958   8
   4  -8   0 1685.00 331.589   7
  -4   8   0 995.217 260.273   5
   4  -8   0 1326.19 229.573   9
   4  -8   1-3.86072 134.802   7
  -4   8  -1 21.8180 171.141   5
   4  -8   1-31.0884 126.240   9
   4  -8   1 88.1106 158.948   8
   4  -8   2 2005.46 369.088   7
  -4   8  -2 1930.15 353.254   5
   4  -8   2 2092.68 289.351   9
   4  -8   2 2494.82 420.560   8
   4  -8   3 484.736 219.732   7
  -4   8  -3 597.957 249.157   5
   4  -8   3 110.869 165.308   8
   4  -8   4 4668.62 565.625   7
  -4   8  -4 4429.80 558.079   5
   4  -8   4 4011.74 511.179   8
  -4   8  -5 4831.92 593.804   5
   4  -8   5 4076.03 523.478   8
  -4   8  -6 229.669 136.852   6
  -4   8  -6 137.279 154.405   5
   4  -8   6 155.001 177.356   8
  -4   8  -7 1296.10 290.437   6
  -4   8  -7 1419.53 349.266   5
   4  -8   7 1347.92 314.387   8
  -4   8  -8 1039.29 272.309   6
  -4   8  -8 1249.76 318.988   5
   4  -8   8 765.784 280.002   8
  -4   8  -9 967.842 295.019   6
  -4   8  -9 1151.31 323.050   5
   4  -8   9 1576.31 365.307   8
  -4   8 -10 375.206 240.110   5
   4  -8  10 997.235 321.829   8
  -4   8 -10 1016.62 352.054   6
  -4   8 -11 779.646 321.578   6
  -4   8 -11 306.353 221.193   5
   4  -8  11 392.498 279.141   8
  -4   8 -12 1687.45 437.219   6
  -4   8 -12 1948.67 421.977   5
  -4   8 -13 814.920 296.190   5
  -4   8 -14 27.4572 208.491   5
  -4   7  14 204.687 239.443   5
  -4   7  14 108.747 215.714   1
   4  -7 -13 388.329 274.199   8
  -4   7  13-85.3167 262.657   1
  -4   7  13 240.084 260.679   5
   4  -7 -12 2069.75 453.188   8
  -4   7  12 2727.91 493.859   1
  -4   7  12 2049.82 381.948   5
   4  -7 -11 178.784 222.104   8
  -4   7  11 556.142 282.292   1
  -4   7  11 42.2718 163.421   5
   4  -7 -10-130.351 156.304   8
  -4   7  10 148.021 181.759   1
  -4   7  10-61.0982 158.462   5
   4  -7  -9 3862.30 525.890   8
  -4   7   9 4316.27 565.726   5
  -4   7   9 3815.37 518.337   1
   4  -7  -8 8757.80 595.516   7
  -4   7   8 7320.27 700.201   5
  -4   7   8 7054.52 672.253   1
   4  -7  -8 8773.41 770.155   8
   4  -7  -7 4238.14 509.541   8
   4  -7  -7 4023.71 405.061   7
  -4   7   7 3740.60 509.176   5
  -4   7   7 3895.65 488.581   1
   4  -7  -6 2494.10 413.251   8
   4  -7  -6 2852.42 347.207   7
  -4   7   6 2262.38 343.752   1
  -4   7   6 2713.56 414.908   5
   4  -7  -6 2879.28 327.610   9
   4  -7  -5 2164.87 391.399   8
   4  -7  -5 2238.67 309.816   7
  -4   7   5 2339.88 340.712   1
  -4   7   5 1620.93 338.910   5
   4  -7  -5 2272.90 282.554   9
   4  -7  -4-228.554 187.472   8
   4  -7  -4 290.778 158.668   7
  -4   7   4 98.8258 109.841   1
  -4   7   4 71.8511 133.325   5
   4  -7  -4 258.356 120.057   9
   4  -7  -3 2144.38 374.836   8
   4  -7  -3 1865.37 294.446   7
  -4   7   3 2054.85 291.870   1
  -4   7   3 1687.76 320.842   5
   4  -7  -3 1953.29 255.079   9
   4  -7  -2 1612.33 323.078   8
   4  -7  -2 822.023 195.357   7
  -4   7   2 980.217 260.223   5
  -4   7   2 987.832 198.002   1
   4  -7  -2 1129.67 191.313   9
   4  -7  -1 3281.30 401.209   7
  -4   7   1 3958.20 341.718   1
  -4   7   1 3240.09 438.047   5
   4  -7  -1 3751.12 339.939   9
   4  -7  -1 3655.12 456.353   8
   4  -7   0 663.682 221.137   8
  -4   7   0 355.259 114.574   1
   4  -7   0 782.773 225.144   7
  -4   7   0 362.541 169.389   5
   4  -7   0 443.670 128.610   9
   4  -7   1 230.279 167.928   7
  -4   7  -1 319.881 172.100   5
   4  -7   1 277.947 126.971   9
   4  -7   1 530.359 206.568   8
   4  -7   2 191.096 154.847   7
  -4   7  -2 433.504 230.860   5
   4  -7   2 426.706 143.373   9
   4  -7   2 517.656 221.753   8
   4  -7   3-183.186 165.913   7
  -4   7  -3 184.062 183.066   5
   4  -7   3 307.677 196.292   8
   4  -7   4 88.4407 142.385   7
  -4   7  -4 11.7710 137.516   5
   4  -7   4-285.618 179.454   8
   4  -7   5 337.818 203.052   3
  -4   7  -5-29.9046 208.339   6
  -4   7  -5 658.752 233.410   5
   4  -7   5 393.322 215.244   8
   4  -7   6 631.947 203.114   3
  -4   7  -6-214.379 209.289   6
  -4   7  -6 427.711 214.841   5
   4  -7   6 302.602 174.045   8
   4  -7   7 1027.66 288.010   3
  -4   7  -7 998.462 283.286   6
  -4   7  -7 1207.31 319.796   5
   4  -7   7 934.479 281.172   8
   4  -7   8 534.927 228.813   3
  -4   7  -8 482.693 239.567   6
  -4   7  -8 429.930 196.471   5
   4  -7   8 106.302 167.985   8
   4  -7   9 168.193 213.568   3
  -4   7  -9 484.903 268.403   6
  -4   7  -9 271.434 223.262   5
   4  -7   9 295.927 235.561   8
   4  -7  10 3073.23 520.027   3
  -4   7 -10 3119.29 532.501   6
  -4   7 -10 2566.86 460.219   5
   4  -7  10 3080.45 537.328   8
   4  -7  11 1001.04 315.358   3
  -4   7 -11 795.801 295.254   6
  -4   7 -11 996.023 300.189   5
   4  -7  11 771.042 315.391   8
   4  -7  12 330.913 288.489   3
  -4   7 -12-14.7465 183.131   6
  -4   7 -12 28.7404 155.821   5
   4  -7  13 861.575 336.372   3
  -4   7 -13 276.965 270.971   6
  -4   7 -13 257.516 268.501   5
  -4   7 -14 561.282 293.607   5
  -4   7 -15-44.7948 171.790   5
  -4   6  15 1439.12 442.414   1
   4  -6 -14 145.990 208.223  11
  -4   6  14 353.289 273.756   1
  -4   6  14 91.9481 161.049   5
   4  -6 -13 318.277 203.013  11
  -4   6  13 269.170 163.345   5
  -4   6  13 219.937 206.351   1
   4  -6 -12 833.979 232.934  11
  -4   6  12 904.893 280.117   1
  -4   6  12 650.758 253.015   5
   4  -6 -11 869.166 209.150  11
  -4   6  11 1010.95 310.666   1
  -4   6  11 242.589 173.265   5
   4  -6 -10 1655.61 351.394   8
   4  -6 -10 2457.23 327.746  11
  -4   6  10 2779.59 432.320   5
  -4   6  10 2317.15 425.896   1
   4  -6  -9 9524.57 584.349  11
  -4   6   9 8396.04 721.067   5
  -4   6   9 7899.99 721.093   1
   4  -6  -9 8390.49 765.581   8
   4  -6  -8 1676.76 348.172   8
   4  -6  -8 1746.50 245.720   7
   4  -6  -8 2185.83 262.789  11
  -4   6   8 1803.11 343.555   1
  -4   6   8 1591.04 321.919   5
   4  -6  -7 319.643 197.633   8
   4  -6  -7 904.892 188.644   7
   4  -6  -7 1224.16 189.635  11
  -4   6   7 887.278 234.257   1
  -4   6   7 1044.95 281.045   5
   4  -6  -6 2610.83 396.889   8
   4  -6  -6 2567.89 298.752   7
   4  -6  -6 2917.94 251.478  11
  -4   6   6 2994.33 329.770  10
  -4   6   6 2168.98 352.531   5
  -4   6   6 2262.79 343.498   1
   4  -6  -5 152.941 155.985   8
   4  -6  -5 154.346 115.665   7
  -4   6   5 509.203 181.279   5
   4  -6  -5 265.090 75.1420  11
  -4   6   5 150.125 122.341   1
  -4   6   5 416.327 129.551  10
   4  -6  -4 7841.35 515.791   7
   4  -6  -4 7254.57 256.471  11
  -4   6   4 7339.92 628.721   5
  -4   6   4 7628.53 467.363  10
  -4   6   4 8242.04 577.541   1
   4  -6  -4 7335.20 442.229   9
   4  -6  -4 7591.16 633.114   8
   4  -6  -3 2820.50 391.006   8
   4  -6  -3 3470.50 357.664   7
   4  -6  -3 3567.68 288.361  10
  -4   6   3 3789.65 299.347  10
  -4   6   3 3811.29 374.611   1
  -4   6   3 3160.38 399.531   5
   4  -6  -3 3737.56 300.089   9
   4  -6  -2 807.642 249.985   8
   4  -6  -2 686.910 178.135   7
  -4   6   2 884.369 179.405   1
  -4   6   2 871.537 220.224   5
  -4   6   2 759.767 132.285  10
   4  -6  -2 631.190 137.916   9
   4  -6  -1 821.667 245.087   8
   4  -6  -1 889.883 202.011   7
  -4   6   1 905.891 177.496   1
  -4   6   1 800.705 241.962   5
  -4   6   1 768.496 121.281  10
   4  -6  -1 929.829 150.538   9
   4  -6   0 187.220 137.273   8
   4  -6   0 74.8244 106.485   7
  -4   6   0 67.6668 82.0853   1
   4  -6   0 35.3309 61.5139   1
  -4   6   0 84.0627 159.547   5
  -4   6   0 33.4974 38.9087  10
   4  -6   0-8.73810 64.2621   9
   4  -6   1 9062.26 612.364   7
  -4   6  -1 9393.86 685.821   5
  -4   6  -1 9314.47 330.105  10
   4  -6   1 10068.2 488.860   2
   4  -6   1 9354.41 473.257   9
   4  -6   1 9398.92 398.741   1
   4  -6   1 8433.43 647.429   8
   4  -6   2 122.570 124.810   7
   4  -6   2-105.924 154.390   3
  -4   6  -2 56.8352 122.678   5
  -4   6  -2 90.5207 41.8379  10
   4  -6   2 140.456 62.4895   2
   4  -6   2 46.4610 41.3704   1
   4  -6   2-15.3775 119.403   8
   4  -6   3 138.212 162.740   7
   4  -6   3 100.264 155.375   3
  -4   6  -3 65.7990 39.0193  11
  -4   6  -3 45.0098 57.5999  10
  -4   6  -3-75.4585 150.854   5
   4  -6   3-18.9769 42.6102   2
   4  -6   3 201.493 173.272   8
   4  -6   4 847.731 217.157   3
  -4   6  -4 838.807 127.145  11
  -4   6  -4 783.824 137.720  10
  -4   6  -4 855.699 235.796   5
   4  -6   4 739.740 229.890   8
   4  -6   5 768.292 232.442   3
  -4   6  -5 1169.86 256.600   6
  -4   6  -5 1187.42 150.891  11
  -4   6  -5 1419.45 307.891   5
   4  -6   5 1254.26 264.531   8
   4  -6   6 205.013 179.646   3
  -4   6  -6-98.2721 115.058   6
  -4   6  -6-62.6007 109.281  11
  -4   6  -6 25.2956 138.728   5
   4  -6   6 145.247 172.380   8
  -4   6  -7-120.900 184.259  11
   4  -6   7 0.15902 133.393   3
  -4   6  -7 351.584 232.452   6
  -4   6  -7 204.079 166.786   5
   4  -6   7 432.518 231.589   8
   4  -6   8 3597.37 471.318   3
  -4   6  -8 4064.77 523.445   6
  -4   6  -8 3307.14 340.858  11
  -4   6  -8 3652.73 485.898   5
   4  -6   8 3092.20 471.295   8
   4  -6   9 33.4543 141.863   3
  -4   6  -9 309.373 192.247   6
  -4   6  -9-223.350 198.876  11
   4  -6   9-85.6702 221.633   8
   4  -6  10-59.2614 151.790   3
  -4   6 -10 109.751 140.295   6
  -4   6 -10 86.7242 110.991  11
   4  -6  10 38.5008 163.229   8
   4  -6  11-141.694 161.910   3
  -4   6 -11 275.088 218.255   6
  -4   6 -11 132.573 154.724  11
   4  -6  11 43.2589 193.071   8
   4  -6  12-98.6546 250.741   3
  -4   6 -12 562.477 306.352   6
  -4   6 -12 656.441 239.544  11
   4  -6  13-147.868 231.329   3
  -4   6 -13 298.831 243.181   6
  -4   6 -13 695.577 307.981  11
   4  -6  14 826.116 338.350   3
  -4   6 -14 676.989 307.759   6
  -4   6 -14 1113.86 328.943  11
   4  -5 -17 136.924 222.078  11
   4  -5 -16 2346.44 451.673  11
  -4   5  15 200.373 173.003   1
   4  -5 -15 462.757 229.100  11
   4  -5 -14 550.729 231.476  11
  -4   5  14 289.892 270.771   1
   4  -5 -13 559.385 214.763  11
  -4   5  13 670.177 295.060   1
  -4   5  13 458.525 226.681   5
   4  -5 -12 6998.25 626.900  11
  -4   5  12 6454.63 641.055   5
  -4   5  12 6362.78 733.823   1
   4  -5 -11 562.940 160.803  11
  -4   5  11 478.477 208.312   5
  -4   5  11 112.818 178.651   1
   4  -5 -10 10852.1 702.235  11
  -4   5  10 10923.6 797.325   5
  -4   5  10 9940.86 838.228   1
   4  -5  -9 329.486 162.913  11
  -4   5   9 133.364 154.063   1
  -4   5   9 64.7028 155.787  10
  -4   5   9-6.83393 117.303   5
   4  -5  -8 2524.99 415.640   8
   4  -5  -8 2824.46 296.219   7
  -4   5   8 2429.45 367.983   5
   4  -5  -8 2805.95 315.262  11
  -4   5   8 2392.18 376.235   1
  -4   5   8 2978.71 390.989  10
   4  -5  -7-80.4536 144.181   8
   4  -5  -7 240.384 115.059   7
   4  -5  -7 214.880 109.520  11
  -4   5   7 334.345 171.916   1
  -4   5   7 71.9109 115.481  10
  -4   5   7-51.0088 110.310   5
   4  -5  -6 16812.5 657.803   7
   4  -5  -6 16998.2 654.525  11
  -4   5   6 16135.1 885.489   5
  -4   5   6 14974.9 765.286  10
  -4   5   6 15942.1 881.767   1
   4  -5  -6 16194.5 913.678   8
   4  -5  -5 84.4442 153.538   8
   4  -5  -5 168.498 102.003   7
  -4   5   5 172.510 159.936   1
   4  -5  -5 7.12747 55.3976  11
  -4   5   5-18.6834 118.606  10
  -4   5   5 127.999 145.098   5
   4  -5  -4 6286.63 410.483   7
  -4   5   4 6283.70 256.443   3
   4  -5  -4 6765.62 321.640  11
  -4   5   4 6480.62 436.600  10
  -4   5   4 6738.50 526.543   1
  -4   5   4 6316.12 533.470   5
   4  -5  -4 6528.68 560.721   8
   4  -5  -3 685.775 208.717   8
   4  -5  -3 883.812 174.110   7
  -4   5   3 810.487 121.805   3
   4  -5  -3 793.195 91.4319  11
  -4   5   3 560.970 136.989  10
  -4   5   3 822.381 220.672   5
   4  -5  -3 914.393 143.940   9
  -4   5   3 816.049 180.847   1
   4  -5  -2 1962.71 320.996   8
  -4   5   2 1850.67 203.410   3
   4  -5  -2 1838.03 241.389   7
  -4   5   2 1843.56 242.886   1
  -4   5   2 1957.64 212.220  10
  -4   5   2 1580.08 279.902   5
   4  -5  -2 1589.44 210.897  10
   4  -5  -2 1909.48 186.456   9
   4  -5  -1 50.8657 150.413   8
   4  -5  -1 193.008 106.937   7
  -4   5   1 142.928 91.8177   1
  -4   5   1 42.0891 107.136   5
  -4   5   1 211.291 73.7888  10
   4  -5  -1 212.463 70.9471   9
   4  -5   0 16409.7 723.928   7
   4  -5   0 15901.8 657.758   3
  -4   5   0 16691.6 865.373   5
  -4   5   0 17513.1 680.679   1
  -4   5   0 17182.4 537.899  10
   4  -5   0 17063.0 521.521   9
   4  -5   0 17214.5 627.397   1
   4  -5   0 15814.4 828.685   8
   4  -5   1 1512.64 283.447   8
  -4   5  -1 1432.85 197.997   1
   4  -5   1 1697.01 251.039   7
   4  -5   1 1862.89 256.244   3
  -4   5  -1 1729.19 168.612  10
  -4   5  -1 1535.33 264.772   5
   4  -5   1 1676.71 174.630   9
   4  -5   1 2156.58 207.340   1
   4  -5   2 12255.1 674.185   7
   4  -5   2 12303.7 644.401   3
  -4   5  -2 12599.2 761.631   5
  -4   5  -2 12881.7 464.164  10
  -4   5  -2 12496.1 510.285   9
   4  -5   2 12542.5 433.587   1
   4  -5   2 12065.6 734.295   8
   4  -5   3 1129.41 217.456   3
  -4   5  -3 1250.02 129.182  11
  -4   5  -3 1355.45 165.827  10
  -4   5  -3 1210.49 267.783   5
   4  -5   3 1049.43 121.710   2
   4  -5   3 986.424 105.497   1
  -4   5  -3 1230.60 180.597   9
   4  -5   3 1008.08 228.075   8
   4  -5   4 608.883 75.1616   2
   4  -5   4 635.549 176.162   3
  -4   5  -4 736.657 131.326  11
  -4   5  -4 522.007 179.671   5
   4  -5   4 515.912 69.9895   2
   4  -5   4 452.089 63.7856   1
   4  -5   4 533.938 169.187   8
   4  -5   5 2420.04 342.156   3
  -4   5  -5 2846.58 394.817   6
  -4   5  -5 2439.32 234.157  11
  -4   5  -5 2737.94 376.920   5
   4  -5   5 2203.20 342.868   8
   4  -5   6 2762.99 384.662   3
  -4   5  -6 3023.62 427.848   6
  -4   5  -6 2713.20 262.258  11
   4  -5   6 3308.96 409.152   8
   4  -5   7 5703.85 552.408   3
  -4   5  -7 6118.06 602.178   6
  -4   5  -7 5640.77 411.303  11
   4  -5   7 5383.87 535.298   8
   4  -5   8 626.357 231.608   3
  -4   5  -8 1129.74 334.116   6
  -4   5  -8 555.623 150.899  11
   4  -5   8 506.704 208.157   8
   4  -5   9 675.817 252.768   3
  -4   5  -9 347.864 165.187   6
  -4   5  -9 647.973 191.992  11
   4  -5   9 228.951 238.750   8
   4  -5  10 1835.12 375.970   3
  -4   5 -10 2598.25 456.522   6
  -4   5 -10 2165.42 344.609  11
   4  -5  10 2368.42 431.801   8
   4  -5  11-25.7701 199.111   3
  -4   5 -11 164.843 227.941   6
  -4   5 -11 383.033 213.402  11
   4  -5  11 27.1754 167.432   8
   4  -5  12 107.915 180.694   3
  -4   5 -12 447.451 277.962   6
  -4   5 -12 599.123 268.739  11
   4  -5  13 521.489 270.732   3
  -4   5 -13 437.264 247.904   6
  -4   5 -13 788.603 338.481  11
   4  -5  14-275.046 205.571   3
  -4   5 -14 143.728 159.134   6
  -4   5 -14-75.1640 137.520  11
   4  -5  15 300.877 213.924   3
  -4   5 -15 190.032 226.319   6
  -4   5 -15 111.364 198.576  11
  -4   5 -16 159.437 175.485  11
  -4   5 -17 6.39641 211.658  11
   4  -4 -17 370.912 229.867  11
   4  -4 -16 921.160 357.928  11
   4  -4 -15 563.485 286.498  11
  -4   4  15-171.154 228.927   1
   4  -4 -14 1991.24 386.083  11
  -4   4  14 1349.61 379.216   1
   4  -4 -13 1771.25 366.296  11
  -4   4  13 2832.87 510.320   1
   4  -4 -12 1564.98 322.120  11
  -4   4  12 1369.27 350.258   1
  -4   4  12 1815.43 342.126   5
   4  -4 -11 835.842 228.538  11
  -4   4  11 345.919 222.219   1
  -4   4  11 430.676 205.766   5
   4  -4 -10 4154.50 460.495  11
  -4   4  10 3472.68 431.865   5
  -4   4  10 3708.38 492.776  10
  -4   4  10 3122.44 481.958   1
   4  -4  -9 373.148 170.815  11
  -4   4   9 4.49830 151.553   1
  -4   4   9 415.958 198.353  10
  -4   4   9 393.064 190.930   5
   4  -4  -8 374.553 92.4760   7
  -4   4   8 378.885 178.475   1
  -4   4   8 495.054 207.152  10
  -4   4   8 150.224 103.296   5
   4  -4  -8 424.737 167.842  11
   4  -4  -7 7515.99 398.401   7
   4  -4  -7 7017.08 481.974  11
  -4   4   7 6925.65 539.501   5
  -4   4   7 6408.99 581.305   1
  -4   4   7 7096.48 561.739  10
   4  -4  -7 7193.44 610.089   8
   4  -4  -6 20267.7 645.366   7
  -4   4   6 19398.7 898.715   5
   4  -4  -6 20607.0 758.633  11
  -4   4   6 18598.2 853.268  10
  -4   4   6 20111.6 982.599   1
   4  -4  -6 19113.1 951.216   8
   4  -4  -5 26.8681 128.567   8
   4  -4  -5-42.3261 59.4656   7
   4  -4  -5 26.6628 75.6833  11
  -4   4   5 84.8229 129.846   1
  -4   4   5 25.2843 107.460  10
  -4   4   5 11.1698 106.836   5
   4  -4  -4 3777.30 283.290   7
   4  -4  -4 3707.42 269.576  11
   4  -4  -4 3380.73 390.016   8
  -4   4   4 3220.42 363.222   5
  -4   4   4 3362.23 316.178  10
  -4   4   4 3693.64 397.270   1
   4  -4  -3 1525.52 269.095   8
   4  -4  -3 1537.95 188.573   7
  -4   4   3 1601.30 228.541  10
  -4   4   3 1401.32 180.684   7
   4  -4  -3 1745.24 163.594  11
  -4   4   3 1490.38 240.507   1
  -4   4   3 1601.34 259.194   5
   4  -4  -2 6932.63 401.056   7
  -4   4   2 7013.26 403.791   7
  -4   4   2 7514.22 333.314   3
   4  -4  -2 7250.56 287.449  11
  -4   4   2 7353.33 535.000   5
  -4   4   2 6992.64 407.923  10
  -4   4   2 7206.22 485.051   1
   4  -4  -2 7143.38 296.610   9
   4  -4  -2 7036.17 534.240   8
   4  -4  -1 6089.97 383.599   7
   4  -4  -1 6269.13 339.653   3
  -4   4   1 5667.36 334.447   3
  -4   4   1 6482.97 497.298   5
   4  -4  -1 6930.50 402.323  10
  -4   4   1 5843.17 362.670  10
  -4   4   1 6622.90 438.040   1
   4  -4  -1 6222.23 234.814  11
   4  -4  -1 5989.51 246.716   9
   4  -4  -1 5940.61 480.241   8
   4  -4   0 9942.62 506.704   7
   4  -4   0 10135.1 469.845   3
   4  -4   0 10191.2 263.223  11
  -4   4   0 11017.4 647.686   5
  -4   4   0 10778.8 551.502   1
  -4   4   0 10515.2 463.266  10
   4  -4   0 10508.7 500.345   1
   4  -4   0 9538.95 604.186   8
   4  -4   0 10494.8 322.218   9
   4  -4   1 326.330 176.607   8
  -4   4  -1 107.102 88.9223   1
   4  -4   1 212.134 122.406   7
   4  -4   1 199.055 108.937   3
   4  -4   1 190.665 44.0212  11
  -4   4  -1 24.9411 131.601   5
  -4   4  -1 61.4925 69.4364  10
   4  -4   1 193.906 83.8429   1
   4  -4   2 1108.25 189.267   3
   4  -4   2 940.053 98.0944  11
  -4   4  -2 937.228 219.023   5
  -4   4  -2 895.979 145.709  10
  -4   4  -2 934.291 120.732   9
   4  -4   2 899.922 129.644   1
   4  -4   2 984.341 221.428   8
   4  -4   3 5903.60 443.454   3
   4  -4   3 6498.71 290.757  11
  -4   4  -3 5899.35 357.991  10
  -4   4  -3 6090.97 295.821  11
  -4   4  -3 5837.50 495.832   5
   4  -4   3 6274.59 310.249   1
   4  -4   3 5873.16 293.198   2
  -4   4  -3 6172.23 342.704   9
   4  -4   3 6237.86 503.001   8
   4  -4   4 336.663 69.9167   2
   4  -4   4 437.032 141.935   3
   4  -4   4 490.966 101.346  11
  -4   4  -4 653.806 144.112  11
  -4   4  -4 454.007 118.192   9
   4  -4   4 334.589 75.2623   1
   4  -4   4 141.396 119.750   8
   4  -4   5 2377.19 231.349  11
   4  -4   5 1946.33 169.573   1
   4  -4   5 2342.60 333.303   3
  -4   4  -5 2675.21 252.532  11
   4  -4   5 2185.21 304.771   8
   4  -4   5 1907.84 104.909   2
   4  -4   6 1623.88 295.542   3
  -4   4  -6 2041.54 331.931   6
  -4   4  -6 1546.16 202.026  11
   4  -4   6 1370.99 262.005   8
   4  -4   7 2705.75 376.019   3
  -4   4  -7 2833.21 414.200   6
  -4   4  -7 2776.49 295.271  11
   4  -4   7 2971.38 194.195   1
   4  -4   7 2849.35 392.262   8
   4  -4   8 2142.28 343.531   3
  -4   4  -8 2206.38 391.546   6
  -4   4  -8 2137.14 275.598  11
   4  -4   8 2572.20 191.364   1
   4  -4   8 1760.31 366.839   8
   4  -4   9 16.8757 137.102   3
  -4   4  -9-40.4290 137.042   6
  -4   4  -9 59.6233 124.548  11
   4  -4   9 36.2962 56.1578   1
   4  -4   9-39.9422 145.124   8
   4  -4  10 122.710 168.347   3
  -4   4 -10 56.8293 171.525   6
  -4   4 -10 261.941 210.849  11
   4  -4  10-55.0180 50.6308   1
   4  -4  10-21.5275 148.230   8
   4  -4  11 2941.39 442.676   3
  -4   4 -11 2893.27 408.857  11
  -4   4 -11 2349.14 433.649   6
   4  -4  12 3337.60 497.677   3
  -4   4 -12 3813.10 483.809  11
  -4   4 -12 3399.54 535.995   6
   4  -4  13 774.291 261.299   3
  -4   4 -13 641.475 270.087   6
  -4   4 -13 815.237 280.448  11
   4  -4  14-48.1784 160.512   3
  -4   4 -14 247.823 202.315   6
  -4   4 -14-20.6389 167.540  11
   4  -4  15-112.373 231.885   3
  -4   4 -15-119.978 180.459   6
  -4   4 -15-63.5106 147.809  11
   4  -4  16 107.696 181.793   3
  -4   4 -16 242.681 198.030   6
  -4   4 -16 287.359 242.929  11
  -4   4 -17-216.022 207.067  11
   4  -3 -17 558.199 333.518  11
   4  -3 -16-624.295 323.400  11
   4  -3 -15 602.745 281.288  11
  -4   3  15 151.408 288.132   1
   4  -3 -14 3539.69 510.733  11
  -4   3  14 3869.62 586.286   1
   4  -3 -13 236.349 227.375  11
  -4   3  13-7.92477 202.724   1
   4  -3 -12 822.906 264.003  11
  -4   3  12 1030.13 327.429   1
   4  -3 -11 496.753 186.451  11
  -4   3  11 502.042 252.766   1
  -4   3  11 330.281 229.743  10
  -4   3  11 594.695 180.603   5
  -4   3  10 1213.37 285.883  10
   4  -3 -10 1957.85 319.482  11
  -4   3  10 1554.90 363.837   1
  -4   3  10 1692.18 291.616   5
   4  -3  -9 259.666 186.253  11
  -4   3   9 35.3678 167.451   1
  -4   3   9-190.394 201.089  10
  -4   3   9 85.8118 94.4607   5
   4  -3  -8 2693.21 224.342   7
   4  -3  -8 2720.30 338.584  11
  -4   3   8 2687.64 338.735   5
  -4   3   8 2239.37 377.579   1
  -4   3   8 2363.00 375.959  10
   4  -3  -7 13273.7 455.478   7
   4  -3  -7 11835.2 648.580  11
  -4   3   7 11871.3 661.002   5
  -4   3   7 12369.6 738.720  10
  -4   3   7 11981.6 793.952   1
   4  -3  -6 137.654 135.845   8
   4  -3  -6 218.084 75.6315   7
   4  -3  -6 315.751 110.527  11
  -4   3   6 162.471 145.545   1
  -4   3   6 146.423 143.583  10
  -4   3   6 295.194 144.629   5
   4  -3  -5 5082.07 253.675   7
   4  -3  -5 4804.87 363.010  11
  -4   3   5 4796.00 406.939   5
  -4   3   5 5095.60 423.298  10
  -4   3   5 5262.30 486.170   1
   4  -3  -5 4419.95 424.222   8
   4  -3  -4 6913.11 295.411   7
  -4   3   4 6420.94 468.871   5
  -4   3   4 6722.37 462.877  10
  -4   3   4 6737.81 522.365   1
   4  -3  -4 5992.84 480.059   8
   4  -3  -3 9312.72 356.035   7
  -4   3   3 9652.05 526.454  10
  -4   3   3 9666.96 588.185   1
  -4   3   3 9487.43 540.530   5
   4  -3  -3 8566.12 564.117   8
   4  -3  -2 1611.28 238.571   8
   4  -3  -2 1838.24 173.273   7
   4  -3  -2 1744.18 135.911   3
  -4   3   2 1845.44 174.551   7
  -4   3   2 1413.35 213.881   1
  -4   3   2 1562.22 222.760  10
  -4   3   2 2095.34 266.962   5
  -4   3   1 26798.6 809.414  10
   4  -3  -1 27997.1 703.000   7
   4  -3  -1 29273.1 657.216   3
  -4   3   1 29679.8 721.194   7
  -4   3   1 29523.3 951.837   1
   4  -3  -1 27018.4 383.668   9
  -4   3   1 28758.0 968.472   5
   4  -3  -1 27419.3 963.975   8
   4  -3   0 231.983 142.221   8
  -4   3   0 72.2876 79.8826   1
   4  -3   0 38.6150 71.6789   7
  -4   3   0 161.443 93.6473   7
   4  -3   0 209.820 88.6769   3
   4  -3   0 116.242 66.3548  11
  -4   3   0 21.6250 95.2598   5
  -4   3   0 214.230 110.209  10
  -4   3  -1 5751.42 365.350   7
   4  -3   1 5704.68 358.198   3
  -4   3  -1 5808.88 362.861   3
  -4   3  -1 5719.54 449.428   5
   4  -3   1 6043.67 268.183  11
   4  -3   1 6248.92 371.092   1
  -4   3  -1 5948.08 405.497   1
  -4   3  -1 5170.55 348.610  10
   4  -3   1 5757.67 436.774   8
   4  -3   2 2706.85 279.856   3
   4  -3   2 2838.79 194.156  11
  -4   3  -2 2658.74 324.885   5
  -4   3  -2 2319.93 238.666  10
   4  -3   2 2353.66 227.408   1
  -4   3  -2 2579.96 155.475   9
   4  -3   2 2369.27 293.546   8
   4  -3   3 6245.29 432.836   3
   4  -3   3 6753.16 326.642  11
  -4   3  -3 6178.86 327.752  11
   4  -3   3 7130.46 362.962   1
   4  -3   3 6708.30 327.817   2
  -4   3  -3 7249.34 305.748   9
   4  -3   3 6041.06 468.320   8
   4  -3   4 133.906 87.8159   1
  -4   3  -4 437.097 124.551  11
   4  -3   4 273.960 72.6961   2
   4  -3   4 331.273 141.262   3
   4  -3   4 174.352 63.0936  11
  -4   3  -4 186.017 77.3383   9
   4  -3   4 105.504 122.070   8
   4  -3   5 210.777 108.499   1
   4  -3   5 281.111 57.9487   2
   4  -3   5 433.131 176.118   3
  -4   3  -5 450.502 129.610  11
   4  -3   5 399.510 101.155  11
  -4   3  -5 554.643 127.459   9
   4  -3   5 383.080 159.158   8
   4  -3   6 9634.65 632.584   3
  -4   3  -6 9793.59 668.267   6
  -4   3  -6 9954.35 525.438  11
   4  -3   6 9459.02 295.622   2
   4  -3   6 9839.43 639.007   8
  -4   3  -7 407.286 137.727  11
   4  -3   7 278.463 149.298   3
   4  -3   7 198.961 44.6048   2
  -4   3  -7 421.850 176.366   6
   4  -3   7 212.460 128.304   8
   4  -3   8 5324.24 519.883   3
  -4   3  -8 5295.88 536.224   6
  -4   3  -8 5012.31 427.198  11
   4  -3   8 4837.14 510.823   8
   4  -3   8 5553.39 338.618   1
   4  -3   9 1535.51 285.099   3
  -4   3  -9 1796.59 339.640   6
  -4   3  -9 1495.32 263.764  11
   4  -3   9 1610.12 201.538   1
   4  -3   9 1315.90 316.572   8
   4  -3  10 199.529 96.1585   1
   4  -3  10 289.763 190.386   3
  -4   3 -10-109.829 145.419   6
  -4   3 -10 120.981 123.706  11
   4  -3  10 188.720 189.652   8
  -4   3 -11 2187.24 353.831  11
   4  -3  11 1774.57 368.015   3
  -4   3 -11 2118.39 393.789   6
   4  -3  11 1969.78 248.466   1
   4  -3  12 1525.13 352.279   3
  -4   3 -12 2077.18 407.652   6
  -4   3 -12 1620.43 332.174  11
   4  -3  12 1838.24 256.684   1
   4  -3  13 626.381 278.887   3
  -4   3 -13 247.284 172.541   6
  -4   3 -13 746.235 264.134  11
   4  -3  14 714.645 261.304   3
  -4   3 -14 832.479 267.297   6
  -4   3 -14 592.910 208.503  11
  -4   3 -15 468.485 229.535  11
   4  -3  15 1224.51 364.735   3
  -4   3 -15 770.616 288.104   6
   4  -3  16 949.680 298.888   3
  -4   3 -16 895.039 354.513   6
  -4   3 -16 859.231 333.066  11
   4  -3  17-462.515 306.798   3
  -4   3 -17 129.376 198.967   6
  -4   3 -17-135.623 198.105  11
  -4   3 -18 642.060 283.695  11
   4  -2 -16 424.569 265.186  11
  -4   2  16 92.4969 192.676   1
   4  -2 -15 324.320 237.828  11
  -4   2  15 702.334 326.391   1
   4  -2 -14 3925.12 565.580  11
  -4   2  14 4477.28 631.766   1
  -4   2  13 95.3360 245.832   1
   4  -2 -13-63.9549 197.704  11
  -4   2  12 5356.73 659.297  10
   4  -2 -12 6598.61 655.539  11
  -4   2  12 6093.17 690.886   1
   4  -2 -11 843.693 246.498  11
  -4   2  11 639.286 242.677   1
  -4   2  11 498.079 220.273  10
   4  -2 -10 265.216 190.964  11
  -4   2  10-13.9189 159.170   1
   4  -2  -9 178.658 154.905  11
  -4   2   9 74.9627 171.867   1
  -4   2   9-64.2335 146.001  10
  -4   2   9-128.904 107.479   5
   4  -2  -8 8352.65 598.193  11
  -4   2   8 8096.59 531.946   5
  -4   2   8 8226.03 657.441  10
  -4   2   8 8672.55 708.666   1
   4  -2  -7 334.825 73.0868   7
   4  -2  -7 444.215 177.621  11
  -4   2   7 245.136 115.472   1
  -4   2   7 310.458 168.299  10
  -4   2   7 397.164 139.341   5
   4  -2  -6 1183.51 106.572   7
   4  -2  -6 971.269 202.451  11
  -4   2   6 1011.03 232.015  10
  -4   2   6 747.465 157.765   5
  -4   2   6 1296.57 275.203   1
   4  -2  -5 82.9576 103.683   8
   4  -2  -5 48.1848 29.2903   7
  -4   2   5-142.655 159.496   1
  -4   2   5 92.0524 121.476  10
  -4   2   5 49.1427 94.7536   5
   4  -2  -4 20198.3 331.336   7
  -4   2   4 24708.5 810.243   5
  -4   2   4 22309.6 867.337  10
  -4   2   4 22435.3 940.173   1
   4  -2  -4 21123.8 858.336   8
   4  -2  -3 4067.60 154.535   7
  -4   2   3 4783.76 359.728   5
  -4   2   3 4800.91 431.996   1
  -4   2   3 4086.87 359.070  10
   4  -2  -3 3965.50 355.644   8
   4  -2  -2 21892.0 432.580   3
  -4   2   2 21468.1 421.822   7
  -4   2   2 21234.4 742.839   5
  -4   2   2 20483.0 765.517  10
  -4   2   2 20952.8 848.559   1
   4  -2  -2 19836.7 778.260   8
   4  -2  -1-80.3499 122.790   8
  -4   2   1-49.1533 102.014   1
  -4   2   1-48.6991 43.6770   7
   4  -2  -1 59.7121 56.2956   3
  -4   2   1 8.07399 96.1720   5
  -4   2   1 8.39126 111.777  10
   4  -2   0 1566.29 222.999   8
  -4   2   0 1009.72 200.064   1
  -4   2   0 1559.93 149.205   7
   4  -2   0 1326.32 157.490   3
   4  -2   0 1493.57 158.805  11
  -4   2   0 1308.39 201.540   5
  -4   2   0 1219.52 182.376  10
   4  -2   1 791.841 170.075   8
  -4   2  -1 880.172 135.282   7
   4  -2   1 1007.40 157.045   3
   4  -2   1 894.165 145.647   1
  -4   2  -1 953.577 178.642   5
  -4   2  -1 913.564 175.596  10
  -4   2  -2 7969.84 417.249   7
   4  -2   2 7736.26 420.342   3
   4  -2   2 9344.96 410.520  11
  -4   2  -2 8520.74 451.513  10
   4  -2   2 9384.14 457.188   1
   4  -2   2 8139.60 406.740   2
   4  -2   2 7316.01 472.578   8
   4  -2   3 17356.3 664.790   3
   4  -2   3 17160.4 543.172  11
  -4   2  -3 16808.9 547.800  11
   4  -2   3 17001.9 679.051   1
   4  -2   3 17275.2 558.859   2
  -4   2  -3 17440.3 411.128   9
   4  -2   3 15776.1 697.140   8
   4  -2   4 7080.61 465.861   3
   4  -2   4 7570.84 391.324  11
  -4   2  -4 7425.57 412.703  11
   4  -2   4 6467.13 338.452   2
   4  -2   4 7693.87 509.978   8
   4  -2   4 7674.27 458.994   1
   4  -2   5 33404.2 1053.42   3
  -4   2  -5 32840.6 897.762  11
   4  -2   5 35375.8 723.825   2
   4  -2   5 30954.1 1053.45   8
   4  -2   6 656.813 194.494   3
  -4   2  -6 468.705 148.518  11
   4  -2   6 650.633 176.441   8
   4  -2   6 594.001 103.876   2
  -4   2  -7 160.104 66.2639   2
  -4   2  -7 38.1057 98.9488   6
  -4   2  -7 265.297 126.104  11
   4  -2   7 81.6027 107.737   3
   4  -2   7 120.180 70.4246   2
   4  -2   7 217.047 142.135   8
   4  -2   8 2425.39 341.716   3
  -4   2  -8 2641.72 325.506  11
   4  -2   8 2619.38 207.978   2
  -4   2  -8 2751.39 381.428   6
  -4   2  -8 2554.08 204.098   2
   4  -2   8 1973.09 314.186   8
   4  -2   9 21771.3 1012.57   3
  -4   2  -9 21480.3 1054.02   6
  -4   2  -9 21586.1 940.381  11
  -4   2  -9 22050.5 619.362   2
   4  -2   9 22522.9 794.086   1
   4  -2  10 3604.50 458.924   3
  -4   2 -10 4813.34 532.853   6
  -4   2 -10 3744.42 416.845  11
   4  -2  10 4442.10 363.440   1
   4  -2  11 1317.28 333.610   3
   4  -2  11 984.134 190.624   1
  -4   2 -11 950.227 264.860   6
  -4   2 -11 595.861 181.371  11
   4  -2  12 1736.20 270.708   1
   4  -2  12 1671.91 356.483   3
  -4   2 -12 2181.95 382.056   6
  -4   2 -12 1371.69 301.327  11
   4  -2  13 117.774 186.881   3
  -4   2 -13 102.389 173.712   6
  -4   2 -13 63.8869 166.966  11
   4  -2  13-5.37558 109.169   1
   4  -2  14 1501.11 361.746   3
  -4   2 -14 1041.52 331.463   6
  -4   2 -14 1215.05 316.616  11
   4  -2  14 1125.20 233.464   1
  -4   2 -15 162.357 190.819  11
   4  -2  15 325.205 219.612   3
  -4   2 -15 108.739 198.221   6
   4  -2  15 237.437 167.274   1
   4  -2  16 438.727 209.128   3
  -4   2 -16 321.086 223.971   6
  -4   2 -16 378.940 236.832  11
   4  -2  17-150.415 225.294   3
  -4   2 -17-82.4207 184.748   6
  -4   2 -17 341.544 195.957  11
   4  -2  18-258.946 244.584   3
  -4   2 -18 111.444 169.165   6
  -4   2 -18 195.943 199.282  11
   4  -1 -16-237.570 209.164  11
  -4   1  16-160.326 273.382   1
   4  -1 -15 3089.69 540.578  11
  -4   1  15 2361.36 499.737   1
   4  -1 -14 2348.38 445.097  11
  -4   1  14 1646.62 435.639   1
   4  -1 -13 70.0905 152.561  11
  -4   1  13 191.590 192.892   1
  -4   1  13 109.845 207.877  10
   4  -1 -12 1129.89 311.052  11
  -4   1  12 593.119 300.253   1
  -4   1  12 800.832 314.640  10
   4  -1 -11 1269.80 297.222  11
  -4   1  11 1387.91 347.797   1
  -4   1  11 970.371 312.160  10
   4  -1 -10-68.7562 135.965  11
  -4   1  10 8.94272 157.061   1
  -4   1  10 23.1073 174.198  10
   4  -1  -9 361.021 197.225  11
  -4   1   9 223.295 176.702   1
  -4   1   9-63.7797 139.430  10
  -4   1   8 2279.78 369.519   1
  -4   1   8 2165.23 251.895   5
   4  -1  -8 2284.55 341.028  11
  -4   1   8 2370.05 390.083  10
   4  -1  -7 5222.12 240.318   7
   4  -1  -7 5181.76 215.538   3
  -4   1   7 4788.42 352.847   5
  -4   1   7 5360.97 502.762  10
  -4   1   7 4561.01 491.738   1
   4  -1  -6 3776.92 161.838   7
   4  -1  -6 3729.26 164.930   3
  -4   1   6 3923.05 316.204   5
  -4   1   6 3860.32 416.011  10
  -4   1   6 3539.01 415.671   1
   4  -1  -5 1900.74 112.383   3
  -4   1   5 1572.16 286.830   1
  -4   1   5 1808.57 195.440   5
  -4   1   5 1764.04 281.753  10
   4  -1  -5 2088.40 226.786   5
   4  -1  -4 3424.43 276.198   5
   4  -1  -4 2989.39 144.188   3
  -4   1   4 3120.97 262.525   5
  -4   1   4 3169.61 367.843   1
   4  -1  -4 3145.12 304.915   8
  -4   1   4 2812.01 323.162  10
  -4   1   3 14786.8 545.326   5
  -4   1   3 13873.2 670.226  10
  -4   1   3 14039.7 729.772   1
   4  -1  -3 14810.7 486.004   9
   4  -1  -3 15505.5 571.357   5
   4  -1  -3 14483.0 625.995   8
  -4   1   2 3048.45 252.388   5
  -4   1   2 2925.06 331.275   1
  -4   1   2 2774.95 307.786  10
   4  -1  -2 2981.79 182.703   9
   4  -1  -2 2995.73 287.487   8
  -4   1   1 5754.22 174.649   7
  -4   1   1 6333.65 368.078   5
  -4   1   1 6333.06 485.335   1
  -4   1   1 5854.58 417.632  10
   4  -1  -1 6002.44 204.819   9
   4  -1  -1 6007.53 391.940   8
   4  -1   0 216.032 115.338   8
  -4   1   0 32.6375 109.074   1
  -4   1   0 234.605 62.0571   7
  -4   1   0 188.347 99.7033   5
  -4   1   0 217.745 123.500  10
  -4   1  -1 736.414 108.445   7
   4  -1   1 864.434 140.815   3
   4  -1   1 812.603 156.413   2
   4  -1   1 835.956 148.934  11
  -4   1  -1 917.581 174.056  10
   4  -1   1 768.213 154.643   8
   4  -1   2 127.186 91.4556   1
   4  -1   2 109.993 85.7136   2
   4  -1   2 6.97050 81.5930   3
   4  -1   2 11.2318 73.7355  11
  -4   1  -2 41.0092 86.4213  10
   4  -1   2 15.4088 96.0837   8
   4  -1   3 231.926 106.508   2
   4  -1   3 272.829 118.570   3
   4  -1   3 551.389 149.216  11
  -4   1  -3 412.181 120.678  11
   4  -1   3 211.422 113.283   8
   4  -1   3 412.239 154.118   1
   4  -1   4 534.616 119.381   2
   4  -1   4 382.801 147.357   3
  -4   1  -4 529.867 155.163  11
   4  -1   4 676.665 164.380   8
   4  -1   5 9758.11 540.161   3
  -4   1  -5 13405.8 609.526  11
   4  -1   5 10549.3 442.095   2
  -4   1  -5 10348.5 443.520   2
   4  -1   5 9512.23 551.557   8
  -4   1  -6 2382.79 277.010  11
   4  -1   6 2190.02 207.897   2
   4  -1   6 2211.22 298.512   3
  -4   1  -6 2464.86 225.398   2
   4  -1   6 2127.90 299.614   8
  -4   1  -7 1129.63 160.491   2
   4  -1   7 1134.97 237.349   3
   4  -1   7 1093.69 157.868   2
   4  -1   7 1068.63 253.218   8
  -4   1  -7 880.737 179.153  11
   4  -1   8 4947.55 467.232   3
  -4   1  -8 5548.40 514.193   6
  -4   1  -8 5880.96 474.516  11
  -4   1  -8 5244.31 341.110   2
   4  -1   8 5824.69 353.104   2
   4  -1   8 6015.86 516.151   8
  -4   1  -9 7106.29 546.224  11
   4  -1   9 6531.06 554.363   3
  -4   1  -9 8021.06 618.220   6
   4  -1   9 7827.83 429.590   2
  -4   1  -9 7829.09 417.719   2
   4  -1  10 6231.27 573.607   3
  -4   1 -10 7660.00 632.151   6
  -4   1 -10 6811.34 567.040  11
   4  -1  10 7159.76 501.032   1
   4  -1  11 1198.09 227.523   1
   4  -1  11 1292.71 305.420   3
  -4   1 -11 1143.70 282.085   6
  -4   1 -11 912.948 242.746  11
   4  -1  12 376.610 201.903   3
  -4   1 -12 435.421 229.795   6
  -4   1 -12-15.8161 153.469  11
   4  -1  12 198.693 133.792   1
   4  -1  13-99.8630 97.8225   1
   4  -1  13 26.0735 167.373   3
  -4   1 -13-201.637 142.084   6
  -4   1 -13-118.514 173.817  11
   4  -1  14 536.561 244.846   3
  -4   1 -14 484.405 226.511   6
  -4   1 -14 94.2342 200.009  11
   4  -1  14 365.713 187.846   1
   4  -1  15 2787.69 489.781   3
  -4   1 -15 2203.65 404.990   6
  -4   1 -15 2324.18 409.198  11
   4  -1  15 2721.72 391.101   1
   4  -1  16 372.516 223.014   3
  -4   1 -16 461.260 274.190   6
  -4   1 -16 192.908 173.264  11
   4  -1  16 229.633 170.415   1
   4  -1  17 265.896 214.340   3
   4  -1  17 242.602 184.125   1
  -4   1 -17 333.329 207.863   6
  -4   1 -17-129.541 260.828  11
   4  -1  18 1178.64 346.339   3
  -4   1 -18 1486.49 399.694   6
  -4   1 -18 1465.27 355.398  11
   4  -1  19 367.179 257.891   3
  -4   1 -19 559.705 272.598   6
  -4   0  16 2629.20 553.880   1
  -4   0  15 3499.41 603.401   1
   4   0 -15 2370.59 469.931  11
   4   0 -14 262.508 203.055  11
  -4   0  14 323.631 195.842   1
   4   0 -13 529.653 250.994  11
  -4   0  13 810.463 308.507   1
  -4   0  13 653.230 281.057  10
   4   0 -12 2782.34 456.982  11
  -4   0  12 3197.74 502.894   1
  -4   0  12 2686.09 454.995  10
   4   0 -11 167.044 153.147  11
  -4   0  11-109.760 211.472   1
  -4   0  11 157.139 167.573  10
  -4   0  10 2307.77 394.473   1
  -4   0  10 1911.95 379.214  10
   4   0 -10 1899.59 370.738  11
   4   0  -9 3210.94 439.924  11
  -4   0   9 3022.47 444.497   1
  -4   0   9 2933.81 415.449  10
  -4   0   8 84.0022 180.525  10
   4   0  -8 34.1437 64.1990   3
   4   0  -8 65.3506 136.689  11
  -4   0   8-226.086 161.072   1
   4   0  -7 28.3832 50.5763   7
   4   0  -7 55.5394 75.3998   3
  -4   0   7 117.587 108.422   1
   4   0  -7-4.54614 57.6851   5
  -4   0   7 174.931 154.295  10
   4   0  -6 691.536 86.1104   7
   4   0  -6 756.831 115.314   3
  -4   0   6 662.567 191.127  10
  -4   0   6 588.157 201.571   1
   4   0  -6 849.381 138.611   5
  -4   0   6 758.323 120.229   5
   4   0  -5 3953.86 240.181   3
   4   0  -5 3034.86 134.527   7
  -4   0   5 3606.61 243.006   5
  -4   0   5 3643.53 399.688  10
  -4   0   5 3471.01 400.627   1
   4   0  -5 3987.31 257.928   5
   4   0  -4 1160.77 195.601   8
  -4   0   4 1071.13 226.929   1
   4   0  -4 1450.87 154.384   5
  -4   0   4 1167.21 242.931  10
  -4   0   4 1116.11 138.958   5
  -4   0   3 30898.9 667.307   5
  -4   0   3 32310.8 1108.11   1
  -4   0   3 30416.7 1026.88  10
   4   0  -3 31755.8 785.728   9
   4   0  -3 29406.2 830.129   8
  -4   0   2 5397.81 467.278   1
  -4   0   2 5457.45 431.580  10
   4   0  -2 5668.57 303.480   9
  -4   0   2 5696.91 286.047   5
   4   0  -2 5225.65 337.935   8
  -4   0   1 2430.55 330.129   1
  -4   0   1 2393.95 288.981  10
   4   0  -1 1972.82 169.098   9
  -4   0   1 2110.15 188.193   5
   4   0  -1 2092.62 219.766   8
   4   0   0 129.203 89.6772   8
  -4   0   0 149.279 108.186   8
   4   0   0 108.823 111.912   2
  -4   0   0 180.153 84.2055   5
  -4   0   0 22.2843 111.574  10
  -4   0   0 107.852 57.1290   9
   4   0   0 181.198 62.3628   9
  -4   0   0 19.9663 108.946   1
   4   0   1 5076.30 361.730   2
   4   0   1 5666.10 371.719  11
  -4   0  -1 5326.47 391.349  10
  -4   0  -1 5431.21 209.565   9
   4   0   1 5446.53 327.886   8
  -4   0  -1 5935.92 347.519   8
  -4   0  -2 24006.9 818.234  10
   4   0   2 27046.1 783.679  11
   4   0   2 26412.3 785.177   2
  -4   0  -2 25857.9 475.801   9
   4   0   2 24249.8 720.605   8
  -4   0  -2 29054.2 784.752   8
  -4   0  -3 8643.01 481.518  11
   4   0   3 10183.4 480.058   2
  -4   0  -3 11469.9 505.864   2
   4   0   3 8844.72 457.071   8
  -4   0  -4 17062.9 660.776  11
   4   0   4 17809.7 630.103   2
  -4   0  -4 18801.8 643.983   2
   4   0   4 17851.4 672.910   8
   4   0   5 110.325 89.0777   2
  -4   0  -5 90.7814 80.3616   2
   4   0   5 118.706 100.021   3
   4   0   5 6.76768 97.5225   8
  -4   0  -6 8880.54 447.938   2
   4   0   6 7169.12 488.723   3
  -4   0  -6 10642.6 596.678  11
   4   0   6 7439.92 415.963   2
   4   0   6 7392.82 494.622   8
  -4   0  -7 948.294 199.758  11
   4   0   7 875.942 199.073   3
   4   0   7 994.322 174.241   2
   4   0   7 1070.75 214.030   8
   4   0   8 3682.64 397.702   3
  -4   0  -8 4339.61 412.020  11
   4   0   8 3733.49 312.175   2
   4   0   9 712.158 220.783   3
  -4   0  -9 899.959 232.459   6
   4   0   9 690.823 161.092   2
  -4   0  -9 685.291 202.436  11
   4   0  10 6365.39 558.927   3
  -4   0 -10 7222.99 580.947  11
   4   0  10 7417.22 486.369   2
  -4   0 -10 7305.41 604.118   6
   4   0  10 7643.36 535.471   1
  -4   0 -11 2957.75 420.071   6
   4   0  11 2732.89 393.916   3
  -4   0 -11 2795.27 395.089  11
   4   0  11 2884.83 384.839   1
   4   0  12 74.4121 100.189   1
   4   0  12 87.2393 153.554   3
  -4   0 -12 262.219 206.653   6
  -4   0 -12 45.5173 148.512  11
   4   0  13 49.1216 161.224   3
  -4   0 -13 199.709 163.958   6
  -4   0 -13-362.260 267.254  11
   4   0  13 11.1317 131.307   1
   4   0  14 5143.60 577.693   3
  -4   0 -14 6064.48 642.678   6
  -4   0 -14 6227.33 646.036  11
   4   0  14 5548.13 538.365   1
   4   0  15 812.346 258.929   1
   4   0  15 720.888 259.090   3
  -4   0 -15 903.982 288.062   6
  -4   0 -15 190.010 186.147  11
   4   0  16 2723.70 465.625   3
  -4   0 -16 3101.68 516.759   6
  -4   0 -16 2860.05 491.429  11
   4   0  16 2614.27 398.116   1
   4   0  17 1131.98 311.950   3
  -4   0 -17 1732.02 410.893   6
  -4   0 -17 450.611 171.506  11
   4   0  17 1088.83 295.355   1
   4   0  18 3575.18 580.821   3
  -4   0 -18 5022.44 672.356   6
  -4   0 -18 4237.15 638.087  11
   4   0  18 4616.47 593.117   1
   4   0  19 415.153 261.632   3
   4   0  19 469.884 211.924   1
  -4   0 -19 658.199 312.266   6
  -4   0 -19 249.477 205.241  11
   4   0  20 630.055 265.699   3
  -4   0 -20 1181.53 415.566   6
  -4  -1  16 1361.60 401.351   1
  -4  -1  15-374.132 306.904   1
   4   1 -15 771.591 321.884  11
  -4  -1  14 784.944 325.190   1
   4   1 -14 1253.14 365.184  11
  -4  -1  13 1392.50 395.743   1
   4   1 -13 1325.79 374.146  11
  -4  -1  13 1275.24 422.417  10
  -4  -1  12-6.35356 152.322   1
   4   1 -12 558.763 268.211  11
  -4  -1  12 209.345 223.746  10
   4   1 -11 231.494 173.162  11
  -4  -1  11-137.487 197.873  10
   4   1 -10 11241.3 843.747  11
  -4  -1  10 10418.5 885.556  10
  -4  -1  10 11739.7 897.375   1
   4   1  -9 4490.51 520.896  11
  -4  -1   9 4205.29 529.448   1
  -4  -1   9 4571.93 536.400  10
  -4  -1   8 1288.40 305.188   1
  -4  -1   8 1110.04 281.975  10
   4   1  -7 1662.97 175.893   7
  -4  -1   7 1462.28 311.883  10
  -4  -1   7 1284.78 293.510   1
   4   1  -6 21160.0 557.239   7
   4   1  -6 21414.5 707.314   3
  -4  -1   6 19664.1 960.381  10
  -4  -1   6 19630.4 980.732   1
   4   1  -6 20805.9 485.022   5
   4   1  -5 67.3681 82.0316   3
  -4  -1   5-79.7384 117.153   1
   4   1  -5-20.4525 44.6776   7
   4   1  -5-3.99441 30.8910   5
  -4  -1   5-219.051 152.310  10
   4   1  -4 11824.3 329.573   7
  -4  -1   4 12336.3 746.908   1
  -4  -1   4 10514.8 282.752   5
  -4  -1   4 11170.0 670.431  10
   4   1  -3 69.6200 64.0489   8
  -4  -1   3 237.015 161.515   1
  -4  -1   3 228.594 154.126  10
  -4  -1   3 141.874 48.5942   5
  -4  -1   2 8451.97 233.848   7
  -4  -1   2 8004.07 534.773  10
  -4  -1   2 8790.68 272.506   5
  -4  -1   2 10071.4 642.637   1
   4   1  -2 9273.34 442.778   9
   4   1  -2 8957.60 393.509   8
  -4  -1   1 21629.3 408.462   7
  -4  -1   1 22046.6 840.611  10
  -4  -1   1 25235.2 977.847   1
   4   1  -1 21790.3 828.343   2
  -4  -1   1 20679.3 606.118   9
   4   1  -1 22906.7 643.852   9
  -4  -1   1 23258.2 494.759   5
   4   1  -1 21743.8 586.773   8
  -4  -1   0 951.330 133.197   8
  -4  -1   0 1058.21 108.712   7
   4   1   0 865.105 186.136   2
  -4  -1   0 924.162 190.369  10
  -4  -1   0 803.206 129.355   9
   4   1   0 1026.11 137.262   9
   4   1   0 853.300 123.544   8
  -4  -1  -1 1355.94 163.664   8
   4   1   1 1433.52 222.553   2
  -4  -1  -1 1120.75 220.184  10
  -4  -1  -1 1253.00 137.222   9
   4   1   1 1099.76 137.199   8
  -4  -1  -2 8966.36 512.544  10
   4   1   2 8941.49 489.820   2
  -4  -1  -2 8662.32 347.585   9
   4   1   2 8642.12 389.200   8
  -4  -1  -2 9025.42 398.927   8
   4   1   3 30398.2 883.324   2
   4   1   3 28615.6 744.563   8
  -4  -1  -3 32779.0 800.322   8
   4   1   4 690.289 159.389   2
  -4  -1  -4 741.112 170.686  11
   4   1   4 848.059 163.809   8
  -4  -1  -4 813.727 151.047   8
   4   1   5 70.2347 95.0754   2
   4   1   5-29.7217 105.263   8
  -4  -1  -6 4738.83 539.022  11
   4   1   6 1621.26 216.286   2
  -4  -1  -7 29829.3 1011.35  11
   4   1   7 29937.1 899.962   2
  -4  -1  -8 2931.29 358.895  11
   4   1   8 2762.10 303.058   2
   4   1   8 2275.18 313.239   3
   4   1   9 6678.17 532.115   3
  -4  -1  -9 7589.77 578.851  11
   4   1   9 6854.21 486.531   2
   4   1  10 982.458 216.007   3
  -4  -1 -10 1288.44 259.454   6
  -4  -1 -10 1270.71 278.147  11
   4   1  10 1638.36 249.771   2
  -4  -1 -11 598.442 229.762   6
   4   1  11 313.832 162.811   1
   4   1  11 179.612 152.351   3
  -4  -1 -11 157.443 122.465  11
   4   1  11 229.025 107.258   2
  -4  -1 -12 1819.04 345.944   6
  -4  -1 -12 1608.36 324.844  11
   4   1  12 1631.00 288.674   1
   4   1  12 1238.06 280.811   3
   4   1  13 132.113 155.305   1
   4   1  13-37.9097 155.067   3
  -4  -1 -13 270.231 202.797   6
  -4  -1 -13-177.043 197.749  11
   4   1  14 347.177 211.023   3
  -4  -1 -14 355.067 235.833   6
   4   1  14 346.015 168.031   1
  -4  -1 -14 424.264 198.021  11
   4   1  15 668.839 224.468   1
   4   1  15 512.338 197.262   3
  -4  -1 -15 1010.36 320.030   6
  -4  -1 -15 613.305 243.670  11
   4   1  16 765.652 264.506   1
   4   1  16 967.769 338.686   3
  -4  -1 -16 464.244 244.309   6
  -4  -1 -16 363.052 205.298  11
   4   1  17 1531.07 350.643   3
  -4  -1 -17 1728.36 375.372   6
   4   1  17 1878.46 364.959   1
  -4  -1 -17 1547.75 386.183  11
   4   1  18 366.523 216.407   3
  -4  -1 -18 398.815 259.505   6
  -4  -1 -18 275.046 208.061  11
   4   1  18 320.795 207.387   1
   4   1  19 517.466 243.386   3
  -4  -1 -19 485.842 281.418   6
  -4  -1 -19 914.186 333.400  11
   4   1  19 559.600 239.525   1
   4   1  20 419.171 283.240   3
   4   1  20 366.938 282.202   1
  -4  -1 -20 567.727 360.112   6
  -4  -2  16 169.490 288.954   1
  -4  -2  15 559.520 261.260   1
  -4  -2  14 278.822 207.047   1
   4   2 -14 69.9857 190.113  11
  -4  -2  13 438.391 218.898   1
   4   2 -13 365.641 255.944  11
  -4  -2  13 597.859 313.376  10
  -4  -2  12 112.315 196.491   1
   4   2 -12 159.230 199.531  11
  -4  -2  12 253.115 207.095  10
  -4  -2  11 923.054 299.790  10
  -4  -2  11 1010.24 299.518   1
   4   2 -11 827.209 284.578  11
   4   2 -10 6019.41 639.458  11
  -4  -2  10 6499.37 674.617   1
  -4  -2  10 6983.38 696.648  10
  -4  -2   9 3443.23 475.739   1
  -4  -2   9 3068.50 495.800  10
  -4  -2   8 225.573 201.860   1
  -4  -2   8 132.663 159.545  10
  -4  -2   7 1225.83 307.985   1
  -4  -2   7 929.005 248.061  10
  -4  -2   6 1336.73 300.331   1
   4   2  -6 1377.91 178.751   7
  -4  -2   6 1403.70 278.199  10
   4   2  -5 7789.92 381.813   7
  -4  -2   5 7312.63 635.117   1
  -4  -2   5 6752.48 551.382  10
   4   2  -4 9026.40 384.971   7
  -4  -2   4 8337.29 588.935  10
  -4  -2   4 9341.97 672.119   1
  -4  -2   3 4346.76 247.810   7
   4   2  -3 4475.59 254.196   7
  -4  -2   3 4734.99 474.227   1
  -4  -2   3 4222.79 419.068  10
   4   2  -3 4237.98 406.577   2
   4   2  -3 4740.61 267.688   8
  -4  -2   2 4738.54 250.435   7
   4   2  -2 4675.89 402.936   2
  -4  -2   2 5487.20 491.127   1
  -4  -2   2 4176.91 401.263  10
  -4  -2   2 4590.39 353.806   9
   4   2  -2 4763.39 247.614   8
  -4  -2   1 3523.16 219.884   7
  -4  -2   1 3401.88 358.202  10
  -4  -2   1 3598.79 294.551   9
   4   2  -1 3263.22 337.200   2
   4   2  -1 3132.64 186.013   8
  -4  -2   1 3030.31 138.684   5
  -4  -2   0 15490.1 485.392   7
  -4  -2   0 16087.5 579.626   9
  -4  -2   0 14848.3 701.473  10
   4   2   0 15497.8 700.385   2
   4   2   0 17311.5 609.961   9
   4   2   0 16021.7 407.384   8
  -4  -2  -1-24.5900 48.6981   8
   4   2   1-195.568 144.829   2
  -4  -2  -1 139.218 82.1068   7
  -4  -2  -1-301.268 161.014  10
  -4  -2  -1 89.6088 99.5607   9
   4   2   1 1.68904 71.4689   9
   4   2   1-9.07240 53.3085   8
   4   2   2 2760.84 290.360   2
  -4  -2  -2 2912.28 314.683  10
  -4  -2  -2 3156.96 254.087   9
   4   2   2 3247.49 218.228   8
  -4  -2  -2 3067.76 207.587   8
  -4  -2  -3 9316.10 552.366  10
   4   2   3 9335.35 516.868   2
  -4  -2  -3 9135.48 426.566   9
   4   2   3 9553.84 405.452   8
  -4  -2  -3 9863.50 402.231   8
  -4  -2  -4 4186.18 383.000  11
   4   2   4 4378.67 359.311   2
  -4  -2  -4 4425.02 303.496   8
  -4  -2  -5 6653.86 470.084  11
   4   2   5 5856.73 431.449   2
  -4  -2  -6 2555.12 367.881  11
   4   2   6 1862.29 247.469   2
  -4  -2  -7 1769.65 285.700  11
   4   2   7 1421.86 226.205   2
   4   2   8 10672.4 605.896   2
  -4  -2  -8 10703.5 653.745  11
  -4  -2  -9 164.422 143.443  11
   4   2   9 412.171 141.003   2
   4   2  10-6.04721 115.597   3
   4   2  10 184.629 165.600   2
  -4  -2 -10-128.110 150.269  11
   4   2  11-152.201 153.769   3
  -4  -2 -11 191.703 160.517  11
   4   2  11 228.893 137.837   2
   4   2  12 2725.08 377.414   1
   4   2  12 2428.55 376.379   3
  -4  -2 -12 2542.15 398.878  11
   4   2  12 2744.94 341.446   2
  -4  -2 -12 2422.61 370.684   6
   4   2  13 3697.67 462.460   3
  -4  -2 -13 4271.07 494.491   6
  -4  -2 -13 3810.88 486.064  11
   4   2  13 3614.88 482.456   1
  -4  -2 -14 3869.51 484.569   6
   4   2  14 2820.74 436.209   3
  -4  -2 -14 3099.54 479.278  11
   4   2  14 3267.39 466.892   1
   4   2  15 579.590 245.119   3
  -4  -2 -15 550.513 248.253   6
  -4  -2 -15-118.273 222.550  11
   4   2  15 98.0734 132.412   1
   4   2  16 1316.47 333.941   1
   4   2  16 1161.28 304.971   3
  -4  -2 -16 1522.47 338.733   6
  -4  -2 -16 1502.53 379.087  11
   4   2  17-113.207 140.975   1
  -4  -2 -17-162.042 214.644  11
   4   2  17 242.037 185.514   3
  -4  -2 -17 498.952 255.844   6
   4   2  18 1663.73 428.426   3
  -4  -2 -18 1584.80 387.079   6
  -4  -2 -18 1402.02 405.005  11
   4   2  18 1378.48 349.816   1
  -4  -2 -19 313.249 273.370  11
   4   2  19 90.7066 200.052   3
  -4  -2 -19 267.363 221.969   6
   4   2  19 401.288 258.920   1
   4   2  20-270.963 220.668   3
  -4  -2 -20 83.9113 255.844   6
   4   2  20 109.792 224.288   1
   4   2  21-304.797 236.801   3
  -4  -2 -21 281.147 281.355   6
   4   2  21 92.7932 219.008   1
  -4  -3  16 192.141 249.108   1
  -4  -3  15 366.083 229.716   1
   4   3 -14 205.863 210.017  11
  -4  -3  14 278.196 244.531   1
  -4  -3  13 252.652 224.567   1
   4   3 -13 506.979 234.578  11
  -4  -3  13 408.815 256.198  10
  -4  -3  12 125.720 229.077   1
   4   3 -12 338.606 210.374  11
  -4  -3  12-193.087 163.756  10
  -4  -3  11 1662.39 396.786   1
   4   3 -11 1041.86 310.602  11
  -4  -3  11 1362.22 378.445  10
  -4  -3  10 1442.70 337.203  10
   4   3 -10 1747.68 293.669   4
  -4  -3  10 1573.79 320.824   1
   4   3 -10 1784.66 390.696  11
   4   3  -9 796.745 218.468   4
  -4  -3   9 1239.75 315.571   1
  -4  -3   9 1663.44 368.948  10
  -4  -3   8 7798.12 701.428   1
  -4  -3   8 8518.91 715.522  10
   4   3  -8 7749.01 617.215   4
   4   3  -7 2060.25 307.154   4
  -4  -3   7 2356.96 381.950   1
  -4  -3   7 2269.19 375.645  10
  -4  -3   6 3855.50 466.071   1
  -4  -3   6 3322.28 416.885  10
   4   3  -6 3054.06 356.418   4
  -4  -3   5 2533.03 448.637   1
   4   3  -5 3021.80 381.653   2
  -4  -3   5 2865.46 384.441  10
   4   3  -5 3527.28 408.792   4
  -4  -3   4 1080.80 345.275   1
  -4  -3   4 2246.47 231.431   7
   4   3  -4 2128.55 237.087   7
   4   3  -4 2292.11 316.955   2
  -4  -3   4 2263.70 342.669  10
   4   3  -4 3048.14 374.350   4
  -4  -3   3 6980.03 388.110   7
   4   3  -3 7369.50 403.036   7
  -4  -3   3 8326.31 627.196   1
  -4  -3   3 6649.82 525.338  10
   4   3  -3 6777.12 516.467   2
   4   3  -3 6705.07 263.475   8
   4   3  -3 7303.58 547.617   4
  -4  -3   2 3157.38 358.714  10
  -4  -3   2 3241.36 257.634   7
   4   3  -2 3237.58 264.541   7
   4   3  -2 2999.43 346.385   2
  -4  -3   2 3143.51 323.504   9
   4   3  -2 2636.89 138.041   8
   4   3  -2 2637.97 325.320   4
  -4  -3   1 21267.4 652.525   7
  -4  -3   1 20986.7 863.518  10
   4   3  -1 19795.9 840.125   2
  -4  -3   1 20992.3 786.061   9
  -4  -3   0 17931.3 603.775   7
   4   3   0 16934.6 764.222   2
  -4  -3   0 17782.5 784.792  10
  -4  -3   0 19054.6 412.211   5
  -4  -3   0 18068.9 698.735   9
  -4  -3  -1 5981.33 364.902   7
  -4  -3  -1 6682.68 292.019   5
   4   3   1 5861.53 451.965   2
  -4  -3  -1 6238.92 406.021   9
  -4  -3  -1 6017.89 211.087   8
  -4  -3  -1 6789.21 478.482  10
  -4  -3  -2 17931.6 642.030   7
  -4  -3  -2 18388.4 774.546  10
  -4  -3  -2 19919.4 572.005   5
   4   3   2 17862.1 761.530   2
  -4  -3  -2 18665.3 691.166   9
  -4  -3  -2 19161.7 440.441   8
  -4  -3  -3 7350.47 499.241  10
  -4  -3  -3 7577.37 399.745   5
   4   3   3 7039.40 480.232   2
  -4  -3  -3 8058.22 452.956   9
  -4  -3  -3 8450.17 349.254   8
   4   3   4 2324.51 290.038   2
  -4  -3  -4 2223.57 253.268   9
  -4  -3  -4 2559.22 216.006   8
   4   3   5 1454.91 241.914   2
  -4  -3  -5 1049.84 200.754  11
  -4  -3  -5 1894.84 222.316   8
  -4  -3  -6 19290.5 850.193  11
   4   3   6 19820.5 828.117   2
  -4  -3  -7 463.906 225.580  11
   4   3   7 237.141 152.067   2
  -4  -3  -8 4553.56 454.601  11
   4   3   8 4257.87 413.534   2
  -4  -3  -9 2571.85 365.093  11
   4   3   9 3024.06 353.545   2
  -4  -3 -10 674.181 242.882  11
   4   3  10 755.925 193.142   2
  -4  -3 -11 2367.45 382.525  11
   4   3  11 2151.17 344.150   2
   4   3  12 10213.2 729.432   3
  -4  -3 -12 10280.8 768.873  11
   4   3  12 10711.8 741.449   2
   4   3  12 11178.5 798.559   1
   4   3  13 83.2887 133.796   3
  -4  -3 -13 286.970 224.146  11
   4   3  13 352.293 183.181   2
   4   3  13 103.258 153.228   1
   4   3  14 372.092 201.815   1
   4   3  14 73.2479 168.017   3
  -4  -3 -14 192.073 186.207  11
   4   3  15 311.262 219.954   3
  -4  -3 -15 484.176 242.223   6
  -4  -3 -15 117.856 161.667  11
   4   3  15 25.0618 127.763   1
   4   3  16 5386.57 626.221   3
  -4  -3 -16 6244.61 646.213   6
  -4  -3 -16 5931.23 673.195  11
   4   3  16 6731.15 697.593   1
   4   3  17 1524.27 388.867   1
   4   3  17 1246.18 329.154   3
  -4  -3 -17 1441.08 386.373  11
  -4  -3 -17 1328.24 343.919   6
  -4  -3 -18 1057.69 324.050   6
   4   3  18 466.207 230.834   3
  -4  -3 -18 855.630 303.335  11
   4   3  18 792.036 268.310   1
   4   3  19 652.317 277.841   3
  -4  -3 -19 61.3474 197.140   6
  -4  -3 -19-185.610 222.806  11
   4   3  19 102.577 203.837   1
   4   3  20-176.858 206.825   3
  -4  -3 -20 6.96559 195.001   6
   4   3  20 105.445 231.070   1
   4   3  21-218.027 223.133   3
  -4  -4  15 292.508 284.982   1
  -4  -4  14 235.169 253.986   1
  -4  -4  13 630.666 320.876   1
   4   4 -13 1011.23 345.248  11
   4   4 -13 1389.89 386.931   2
  -4  -4  13 494.185 321.866  10
   4   4 -12 1777.84 358.063   4
  -4  -4  12 1286.10 411.948   1
   4   4 -12 1348.75 390.255  11
   4   4 -12 1171.23 334.861   2
  -4  -4  12 866.347 339.509  10
   4   4 -11 1648.71 334.966   4
  -4  -4  11 2341.55 452.963   1
   4   4 -11 2485.78 462.456  11
   4   4 -11 2167.58 408.858   2
  -4  -4  11 1764.77 431.079  10
   4   4 -10 4154.48 563.325  11
  -4  -4  10 3186.10 568.923  10
   4   4 -10 4057.62 551.396   2
   4   4 -10 4382.13 511.410   4
  -4  -4  10 3478.71 570.030   1
   4   4  -9 362.716 154.746   4
  -4  -4   9 348.104 246.391   1
   4   4  -9 458.010 212.909   2
  -4  -4   9 189.418 193.194  10
  -4  -4   8 6710.93 655.644   1
  -4  -4   8 6223.47 654.566  10
   4   4  -8 6281.56 589.150   2
   4   4  -8 6063.73 589.495   4
   4   4  -7 66.2703 121.980   4
  -4  -4   7-163.173 170.923   1
   4   4  -7-64.1628 145.286   2
  -4  -4   7 138.928 145.106  10
  -4  -4   6 225.772 178.502   1
   4   4  -6 845.916 237.755   4
   4   4  -6 357.938 159.398   2
  -4  -4   6 555.126 227.999  10
   4   4  -5 276.651 188.318   4
  -4  -4   5 10.4341 90.5285   7
   4   4  -5 27.4886 106.203   2
  -4  -4   5 2.30423 156.417  10
  -4  -4   5-100.438 153.711   1
   4   4  -4 123.319 137.748   4
  -4  -4   4-10.5048 89.8240   7
   4   4  -4 159.434 153.141   2
  -4  -4   4-79.7745 122.648  10
   4   4  -4-23.5526 40.2545   8
  -4  -4   3 3399.91 316.435   7
  -4  -4   3 3368.12 383.174  10
   4   4  -3 3695.57 406.148   2
  -4  -4   3 3459.49 383.175   9
   4   4  -3 3661.74 421.167   4
  -4  -4   2 5647.71 389.898   7
  -4  -4   2 5767.92 488.596  10
   4   4  -2 5735.87 488.911   2
  -4  -4   2 6113.39 484.195   9
   4   4  -2 5710.10 504.700   4
   4   4  -1-41.1307 113.620   4
  -4  -4   1 121.319 118.347   7
   4   4  -1-10.7106 105.241   2
  -4  -4   1 117.874 30.6369   5
  -4  -4   1 143.863 113.004  10
  -4  -4   1-24.7007 111.707   9
  -4  -4   0 8016.01 463.929   7
  -4  -4   0 8177.70 299.904   5
   4   4   0 7447.53 531.019   2
  -4  -4   0 7586.42 505.405   9
   4   4   0 8127.04 575.389   4
  -4  -4   0 7552.41 533.751  10
  -4  -4  -1 7930.80 466.382   7
  -4  -4  -1 8288.53 350.713   5
  -4  -4  -1 7541.01 525.924  10
   4   4   1 7112.96 513.227   2
  -4  -4  -1 7758.67 505.956   9
   4   4   1 6950.96 528.767   4
  -4  -4  -2 4238.19 282.508   5
  -4  -4  -2 4384.71 357.828   7
  -4  -4  -2 3740.17 393.244  10
   4   4   2 4266.65 416.493   2
  -4  -4  -2 4082.44 375.663   9
  -4  -4  -2 4242.58 176.065   8
   4   4   3 151.826 105.541   2
  -4  -4  -3 27.1103 93.6580   7
  -4  -4  -3 206.926 130.448  10
  -4  -4  -3 97.1888 71.7023   5
  -4  -4  -3 179.335 124.604   9
  -4  -4  -3 224.909 68.8469   8
   4   4   4 812.184 200.257   2
  -4  -4  -4 540.041 172.194   9
  -4  -4  -4 637.098 112.308   8
  -4  -4  -5 10989.9 656.613  11
   4   4   5 12496.5 685.703   2
  -4  -4  -5 14452.3 554.618   8
  -4  -4  -6 698.079 165.780  11
   4   4   6 1127.29 235.521   2
  -4  -4  -7 1258.53 254.631  11
   4   4   7 1363.63 254.683   2
   4   4   8 2932.67 359.404   2
  -4  -4  -8 2760.95 362.032  11
   4   4   9 1244.24 269.294   2
  -4  -4  -9 1431.14 297.760  11
  -4  -4 -10 6106.41 575.595  11
   4   4  10 5817.15 545.618   2
  -4  -4 -11 8978.32 699.460  11
   4   4  11 8219.92 651.616   2
   4   4  12 2789.24 422.892   1
  -4  -4 -12 2781.89 435.426  11
   4   4  12 1985.47 370.802   2
   4   4  13-50.3372 147.622   1
   4   4  13 1.26157 140.091   2
   4   4  14 69.5527 173.359   1
   4   4  14 431.243 183.972   3
  -4  -4 -14 282.105 216.306  11
   4   4  15 5111.94 581.722   3
  -4  -4 -15 6439.25 693.909  11
   4   4  15 4785.84 570.642   1
   4   4  16 15.3348 147.614   3
   4   4  16-32.2856 155.446   1
  -4  -4 -16-80.4248 163.058  11
   4   4  17-72.6328 149.298   1
   4   4  17-192.972 165.651   3
  -4  -4 -17 25.2715 173.098  11
   4   4  18 74.0428 208.715   1
   4   4  18-18.3257 152.316   3
  -4  -4 -18 421.975 238.862  11
   4   4  19 521.590 275.718   3
  -4  -4 -19 538.053 237.526  11
   4   4  19 325.803 238.624   1
   4   4  20-174.197 205.628   3
   4   4  20 260.290 250.263   1
  -4  -5  13 141.768 207.300   1
  -4  -5  13-224.328 307.011  10
  -4  -5  12 111.484 176.016   1
   4   5 -12 816.422 239.129   4
   4   5 -12 1170.69 350.958  11
  -4  -5  12 785.242 332.411  10
  -4  -5  11 433.610 260.142   1
   4   5 -11 684.548 263.685   4
   4   5 -11 943.072 341.448  11
   4   5 -11 1089.72 290.152   2
  -4  -5  11 578.960 303.692  10
  -4  -5  10-82.5493 165.248   1
   4   5 -10 105.848 162.990   4
   4   5 -10 396.034 204.064  11
   4   5 -10 431.530 222.835   2
  -4  -5  10 549.872 296.360  10
  -4  -5   9 1571.04 352.130   1
   4   5  -9 1558.64 336.507   4
   4   5  -9 1378.73 304.521   2
  -4  -5   9 1333.83 313.591  10
  -4  -5   8 4298.68 614.137   1
  -4  -5   8 5785.15 643.953  10
   4   5  -8 6337.68 598.721   2
   4   5  -8 5843.13 612.209   4
   4   5  -7 1112.02 282.202   4
   4   5  -7 1439.94 278.514   2
  -4  -5   7 1355.24 306.691  10
  -4  -5   7 870.384 262.759   1
  -4  -5   6 11281.0 688.075   7
  -4  -5   6 11197.3 786.225  10
   4   5  -6 11210.5 761.313   2
   4   5  -6 11074.6 815.386   4
   4   5  -5 428.021 217.823   4
  -4  -5   5 843.975 196.061   7
   4   5  -5 483.528 188.894   2
  -4  -5   5 285.582 176.781  10
  -4  -5   4 4436.34 411.950   7
  -4  -5   4 3865.31 446.395  10
   4   5  -4 4449.03 457.118   2
  -4  -5   4 4423.22 481.893   9
   4   5  -4 3885.01 460.273   4
   4   5  -3 83.4535 115.448   4
  -4  -5   3 63.6195 106.536   7
   4   5  -3 196.383 158.199   2
  -4  -5   3 96.4449 163.427  10
  -4  -5   3-62.3355 139.219   9
  -4  -5   2 9503.45 576.438   7
  -4  -5   2 9540.42 638.593  10
   4   5  -2 9431.99 639.797   2
  -4  -5   2 9712.67 664.157   9
   4   5  -2 9418.93 673.812   4
   4   5  -1 323.702 162.790   4
   4   5  -1 208.853 156.634   2
  -4  -5   1 217.939 144.132   7
  -4  -5   1 191.574 50.8853   5
  -4  -5   1 398.557 149.210  10
  -4  -5   1-75.3382 119.707   9
   4   5   0 91.4853 140.033   4
   4   5   0 29.6164 115.981   2
  -4  -5   0 177.162 121.353   7
  -4  -5   0 174.649 103.336  10
  -4  -5   0 110.659 54.5805   5
  -4  -5   0 125.687 137.295   9
  -4  -5  -1 33180.2 1050.44   7
  -4  -5  -1 35842.8 807.848   5
  -4  -5  -1 34216.7 1118.50  10
   4   5   1 33269.8 1146.91   2
  -4  -5  -1 33126.3 1131.74   9
   4   5   1 32651.6 1183.44   4
  -4  -5  -2 8608.98 548.752   7
  -4  -5  -2 8926.08 437.370   5
  -4  -5  -2 8240.18 571.592  10
   4   5   2 8285.29 577.452   2
  -4  -5  -2 8397.57 576.460   9
  -4  -5  -2 7946.42 205.364   8
   4   5   2 7978.90 583.112   4
   4   5   3 1356.17 251.991   2
   4   5   3 1445.35 252.714   4
  -4  -5  -3 1218.72 215.228   7
  -4  -5  -3 1260.83 237.772  10
  -4  -5  -3 1519.05 267.257   9
  -4  -5  -3 1667.14 141.966   8
   4   5   4 1917.39 297.115   2
  -4  -5  -4 2366.09 321.542   7
  -4  -5  -4 2354.91 301.351  10
  -4  -5  -4 2343.76 288.254   9
  -4  -5  -4 2753.00 222.039   8
  -4  -5  -5 1133.92 228.220   9
   4   5   5 1650.58 287.586   2
  -4  -5  -6 13206.6 764.250  11
   4   5   6 12602.3 741.166   2
  -4  -5  -7 5275.37 479.692  11
   4   5   7 5201.94 495.843   2
  -4  -5  -8 135.066 176.988  11
   4   5   8 269.500 157.755   2
   4   5   9 3504.60 437.837   2
  -4  -5  -9 3254.47 421.350  11
  -4  -5 -10 9041.80 697.050  11
   4   5  10 10021.1 734.220   2
  -4  -5 -11 4275.96 555.247  11
   4   5  11 1946.71 356.199   2
   4   5  12 2828.76 468.234   2
   4   5  12 3935.69 524.057   1
   4   5  13 445.904 219.484   1
  -4  -5 -13 526.267 279.977  11
   4   5  13 232.076 174.609   2
  -4  -5 -14 17010.4 1083.09  11
   4   5  14 14064.7 971.371   2
   4   5  14 14110.3 994.744   1
   4   5  15 2773.77 475.633   1
  -4  -5 -15 3241.91 533.766  11
   4   5  15 2723.30 429.169   3
  -4  -5 -16 286.108 271.464  11
   4   5  16 139.521 208.951   3
   4   5  16 40.2846 154.376   1
   4   5  17 146.763 196.850   3
   4   5  17 184.562 188.980   1
  -4  -5 -17 524.320 290.165  11
   4   5  18 356.779 225.685   1
   4   5  18 253.737 219.488   3
  -4  -5 -18-92.2894 258.184  11
   4   5  19 80.1341 188.057   1
   4   5  19 266.105 190.075   3
  -4  -5 -19 647.326 306.404  11
   4   5  20 256.941 207.176   3
   4   6 -12 1317.29 313.046   4
   4   6 -12 1368.88 447.344  11
  -4  -6  12 992.796 326.623  10
   4   6 -11 676.820 261.415   4
   4   6 -11 462.305 233.952  11
  -4  -6  11 117.892 266.861   1
   4   6 -10 169.117 129.947   4
  -4  -6  10 572.876 258.847  10
   4   6 -10 615.865 250.557   2
   4   6 -10 531.447 296.971  11
   4   6  -9 358.223 193.763   4
   4   6  -9 743.196 239.708   2
  -4  -6   9 505.250 298.304  10
   4   6  -8 1375.83 331.674   4
   4   6  -8 1028.49 280.395   2
  -4  -6   8 1025.58 292.494  10
   4   6  -7 171.395 229.615   4
   4   6  -7 155.482 175.664   2
  -4  -6   7-116.229 201.607  10
   4   6  -6 1109.37 285.922   4
  -4  -6   6 913.582 231.367   7
   4   6  -6 1324.83 289.508   2
  -4  -6   6 1381.92 312.624  10
   4   6  -5 2189.03 381.109   4
  -4  -6   5 2056.25 322.657   7
   4   6  -5 2371.68 353.427   2
  -4  -6   5 2356.79 365.362  10
  -4  -6   4 3555.74 409.091   7
  -4  -6   4 3880.32 441.742  10
   4   6  -4 3715.99 439.623   2
  -4  -6   4 4281.83 486.978   9
   4   6  -4 4042.58 496.890   4
  -4  -6   3 6987.71 547.623   7
  -4  -6   3 7206.27 574.192  10
   4   6  -3 7274.08 594.813   2
  -4  -6   3 7060.38 622.180   9
   4   6  -3 7002.19 647.562   4
   4   6  -2 2156.62 367.364   4
   4   6  -2 2389.87 343.628   2
  -4  -6   2 2206.50 316.222   7
   4   6  -2 2543.15 176.878   5
  -4  -6   2 2423.34 340.584  10
  -4  -6   2 2257.91 350.711   9
   4   6  -1 580.885 188.725   4
   4   6  -1 826.708 205.720   2
  -4  -6   1 1000.16 201.998   7
  -4  -6   1 926.041 132.754   5
  -4  -6   1 771.632 198.776  10
  -4  -6   1 590.224 211.837   9
   4   6  -1 852.128 121.242   5
  -4  -6   0 6121.69 502.091   7
   4   6   0 6720.12 355.582   5
  -4  -6   0 6888.54 368.598   5
   4   6   0 6308.87 539.758   2
  -4  -6   0 6041.43 498.970  10
  -4  -6   0 6146.24 536.084   9
   4   6   0 5437.17 529.802   4
  -4  -6  -1 6808.17 533.002   7
  -4  -6  -1 6551.42 387.146   5
  -4  -6  -1 6735.28 510.547  10
   4   6   1 7127.21 399.613   5
   4   6   1 6536.01 544.426   2
  -4  -6  -1 6318.27 533.546   9
   4   6   1 5882.53 545.826   4
  -4  -6  -2 20813.0 915.714   7
  -4  -6  -2 21297.5 896.116  10
   4   6   2 21255.0 949.209   2
  -4  -6  -2 21672.6 973.859   9
  -4  -6  -2 20522.5 319.021   8
  -4  -6  -2 18634.0 317.952   8
   4   6   2 21452.0 996.182   4
   4   6   3 310.160 174.482   2
   4   6   3 472.894 188.302   4
  -4  -6  -3 220.007 148.251   7
  -4  -6  -3 91.8505 113.423  10
  -4  -6  -3 61.9931 127.419   9
  -4  -6  -4 14936.3 794.797   7
  -4  -6  -4 15520.9 766.449  10
   4   6   4 15232.5 839.646   2
  -4  -6  -4 14643.3 799.061   9
   4   6   4 15359.2 817.798   4
  -4  -6  -5 73.8617 149.307   7
  -4  -6  -5 34.2899 136.968   9
   4   6   5 93.1409 105.085   2
  -4  -6  -6 72.6818 135.144   7
  -4  -6  -6 157.686 153.855   9
   4   6   6 141.116 131.336   2
  -4  -6  -7-315.982 256.412  11
   4   6   7 571.785 203.074   2
   4   6   8 7675.31 641.742   2
  -4  -6  -8 7707.65 623.626  11
  -4  -6  -9-63.1859 166.361  11
   4   6   9 166.147 165.885   2
  -4  -6 -10 9629.03 755.077  11
   4   6  10 6587.40 632.599   2
  -4  -6 -11 553.475 264.926  11
   4   6  11 28.3417 165.507   2
   4   6  12 266.598 200.673   1
   4   6  12 464.808 208.771   2
  -4  -6 -13 4141.84 563.835  11
   4   6  13 3199.29 475.589   1
   4   6  13 2781.60 422.420   2
   4   6  14 4002.68 552.381   1
  -4  -6 -14 5186.36 638.865  11
   4   6  14 3943.63 555.570   2
   4   6  15 104.207 160.555   1
  -4  -6 -15 519.499 305.568  11
   4   6  16 381.523 227.764   3
   4   6  16 184.167 191.888   1
   4   6  17 284.484 219.221   3
   4   6  17 54.9200 179.509   1
   4   6  18-287.973 216.213   1
   4   6  18 99.4953 182.926   3
  -4  -6 -18 346.941 266.987  11
   4   6  19 184.921 187.241   1
   4   6  19-102.789 174.112   3
   4   7 -12-110.834 227.879   4
  -4  -7  12 414.959 300.236  10
   4   7 -11-9.91265 141.785   4
   4   7 -11-20.1056 210.267  11
  -4  -7  11 127.533 286.323  10
   4   7 -10 1953.80 405.359   4
   4   7 -10 2677.17 500.252  11
  -4  -7  10 1431.96 489.278  10
   4   7  -9 1270.89 357.072   4
  -4  -7   9 1412.33 421.124  10
   4   7  -8 108.920 155.368   4
   4   7  -8 115.682 156.113   2
  -4  -7   8-377.673 251.576  10
   4   7  -7-202.563 195.772   4
  -4  -7   7 88.7579 137.022   7
   4   7  -7-27.3185 131.342   2
  -4  -7   7-275.342 197.206  10
   4   7  -6 240.477 182.328   4
  -4  -7   6 377.835 185.439   7
   4   7  -6 285.382 166.481   2
  -4  -7   6 261.542 168.553  10
   4   7  -5 336.941 225.612   4
  -4  -7   5 331.390 179.094   7
   4   7  -5 647.361 222.193   2
  -4  -7   5 326.165 165.729  10
   4   7  -4 77.4103 152.404   4
  -4  -7   4 264.829 169.782   7
   4   7  -4 25.5593 106.387   2
  -4  -7   4 48.3926 135.890  10
  -4  -7   4 378.298 243.726   9
   4   7  -3 829.633 217.736   4
   4   7  -3 1386.88 306.373   2
  -4  -7   3 1365.55 282.823   7
  -4  -7   3 1303.22 287.653  10
  -4  -7   3 1196.80 311.188   9
   4   7  -2 312.507 214.253   4
   4   7  -2 465.225 193.211   2
  -4  -7   2 568.818 200.268   7
  -4  -7   2 369.588 156.553  10
  -4  -7   2 541.176 248.877   9
   4   7  -1 281.541 168.151   4
   4   7  -1 444.085 190.893   2
  -4  -7   1 202.658 145.532   7
  -4  -7   1 200.917 146.831  10
  -4  -7   1 596.223 218.721   9
   4   7  -1 283.434 103.107   5
   4   7   0 1796.68 342.369   4
   4   7   0 1362.60 258.506   2
  -4  -7   0 1531.46 298.025   7
  -4  -7   0 1028.57 222.710  10
  -4  -7   0 1627.78 336.531   9
   4   7   0 1530.81 199.098   5
   4   7   1 902.194 255.885   4
   4   7   1 998.919 262.231   2
  -4  -7  -1 646.304 191.998   7
  -4  -7  -1 613.559 188.048  10
  -4  -7  -1 647.188 291.791   9
   4   7   1 771.247 158.966   5
   4   7   2 1526.24 293.324   2
   4   7   2 1139.21 267.159   4
  -4  -7  -2 1149.88 257.266   7
  -4  -7  -2 1699.31 274.184  10
  -4  -7  -2 1480.96 307.020   9
   4   7   2 1331.91 201.438   5
  -4  -7  -2 1266.22 94.8613   8
  -4  -7  -3 13659.3 808.073   7
   4   7   3 13445.0 658.248   5
   4   7   3 12853.5 799.985   2
  -4  -7  -3 14578.0 762.579  10
  -4  -7  -3 13582.0 835.585   9
  -4  -7  -3 14456.2 432.329   8
   4   7   3 14053.9 836.926   4
   4   7   4 305.905 178.954   4
  -4  -7  -4 0.93902 145.885   7
  -4  -7  -4-7.97806 105.482  10
  -4  -7  -4 188.234 184.430   9
   4   7   4 29.4198 101.243   5
   4   7   4 46.0902 119.013   2
   4   7   5-15.7042 107.404   4
  -4  -7  -5-141.666 121.985   7
  -4  -7  -5-228.530 153.083  10
  -4  -7  -5-79.0230 129.165   9
   4   7   5 7.83019 107.342   2
   4   7   6 351.606 145.745   4
  -4  -7  -6 282.916 143.041   7
  -4  -7  -6 206.504 136.580   9
   4   7   6 305.115 135.867   2
  -4  -7  -7 8139.67 683.414   7
   4   7   7 7941.38 654.358   2
  -4  -7  -7 7746.07 640.064   9
  -4  -7  -8 1212.78 272.683   7
  -4  -7  -8 571.699 136.470  11
  -4  -7  -8 1015.91 274.682   9
   4   7   8 1343.62 329.342   2
  -4  -7  -9 2227.38 358.004  11
   4   7   9 2352.01 392.411   2
  -4  -7 -10 2399.37 383.121  11
   4   7  10 2428.40 401.898   2
   4   7  11 322.223 211.070   2
  -4  -7 -11 1502.50 338.428  11
   4   7  12-67.6191 128.767   1
   4   7  12 156.593 140.856   2
  -4  -7 -13 3945.61 544.110  11
   4   7  13 3713.40 536.193   1
   4   7  13 2988.20 500.152   2
  -4  -7 -14 2674.64 481.332  11
   4   7  14 1572.23 366.541   1
   4   7  14 1769.59 388.426   2
   4   7  15-106.969 211.605   1
  -4  -7 -15 288.413 255.870  11
  -4  -7 -16 1409.86 492.482  11
   4   7  16 534.420 298.529   1
   4   7  17 63.2976 170.704   3
   4   7  17 1.01658 233.325   1
   4   7  18 271.490 207.491   1
   4   7  18 93.6009 185.306   3
  -4  -7 -19 4704.84 779.679  11
   4   7  19 1059.91 335.383   3
   4   8 -11 522.171 253.529   4
  -4  -8  11 730.546 390.258  10
   4   8 -10 1441.81 380.920   4
   4   8 -10 1137.18 307.689  11
  -4  -8  10 388.713 239.073  10
   4   8  -9 582.763 311.896   4
  -4  -8   9 221.414 214.950  10
   4   8  -8 1801.55 405.048   4
  -4  -8   8 2170.14 420.565  10
   4   8  -7 365.843 236.492   4
  -4  -8   7 93.4878 163.313   7
  -4  -8   7 53.3460 136.889  10
  -4  -8   6 4786.42 567.192   7
  -4  -8   6 5734.52 601.082  10
   4   8  -6 5718.91 572.382   2
   4   8  -6 5282.66 676.479   4
   4   8  -5 1364.56 358.487   4
   4   8  -5 1532.30 341.019   2
  -4  -8   5 1440.44 317.820   7
  -4  -8   5 1557.64 322.168  10
  -4  -8   4 14629.2 948.731   7
  -4  -8   4 14092.7 894.631  10
   4   8  -4 14320.1 887.266   2
  -4  -8   4 13395.4 965.093   9
   4   8  -4 13206.4 996.620   4
   4   8  -3 697.977 276.745   4
   4   8  -3 607.946 221.575   2
  -4  -8   3 758.360 243.861   7
  -4  -8   3 240.584 167.563  10
  -4  -8   3 626.435 228.833   9
   4   8  -2 85.3078 172.620   4
   4   8  -2 320.006 189.675   2
  -4  -8   2 348.755 174.580   7
  -4  -8   2 48.4490 116.995  10
  -4  -8   2-21.6876 168.997   9
   4   8  -1 2972.80 457.095   4
   4   8  -1 2578.47 383.830   2
  -4  -8   1 2540.55 388.658   7
  -4  -8   1 2746.22 359.249  10
  -4  -8   1 3065.69 455.846   9
   4   8   0 2259.07 404.441   4
   4   8   0 1695.06 320.844   2
  -4  -8   0 1488.02 295.608   7
   4   8   0 2035.53 256.370   5
  -4  -8   0 1790.93 300.061  10
  -4  -8   0 1779.50 342.934   9
   4   8   1 1372.58 277.775   2
   4   8   1 1316.87 310.747   4
  -4  -8  -1 931.689 227.762   7
  -4  -8  -1 1133.62 246.422  10
  -4  -8  -1 816.242 270.655   9
   4   8   1 1118.82 198.305   5
   4   8   2 426.994 208.811   4
  -4  -8  -2 428.289 167.604   7
  -4  -8  -2 221.197 149.372  10
  -4  -8  -2 464.879 191.954   9
   4   8   2 194.623 118.400   5
   4   8   2 777.737 248.043   2
  -4  -8  -3 333.823 79.5161   8
   4   8   3 234.998 158.027   4
  -4  -8  -3-12.6761 149.540   7
  -4  -8  -3 227.054 112.371  10
  -4  -8  -3 288.919 167.467   9
   4   8   3 271.123 116.252   5
   4   8   3 189.770 162.953   2
   4   8   4 1674.41 316.705   4
  -4  -8  -4 1789.68 327.298   7
  -4  -8  -4 2161.69 317.619  10
  -4  -8  -4 2269.90 397.328   9
   4   8   4 2040.07 302.564   5
  -4  -8  -4 2272.70 213.080   8
   4   8   4 2204.78 370.958   2
   4   8   5 64.6048 128.255   4
   4   8   5-1.80178 99.4471   5
  -4  -8  -5 112.461 153.334   7
  -4  -8  -5 194.460 112.950  10
  -4  -8  -5-139.294 190.611   9
   4   8   5 21.8199 122.348   2
   4   8   6 814.602 243.137   4
  -4  -8  -6 1115.02 278.326   7
  -4  -8  -6 578.998 221.535  10
  -4  -8  -6 798.045 225.035   9
   4   8   6 750.882 201.150   5
   4   8   6 1030.62 271.119   2
  -4  -8  -7 3336.93 464.865   7
  -4  -8  -7 2717.86 429.553   9
   4   8   7 2924.34 435.028   2
   4   8   7 2993.68 407.726   4
  -4  -8  -8 362.708 194.027   7
  -4  -8  -8 459.346 213.844   9
   4   8   8 484.978 228.637   2
  -4  -8  -9 3744.97 499.447   7
  -4  -8  -9 3135.78 428.578  11
   4   8   9 3912.79 506.905   2
  -4  -8  -9 3628.81 497.381   9
  -4  -8 -10-409.533 304.271  11
  -4  -8 -10 20.7892 153.572   7
   4   8  10 27.1418 162.729   2
  -4  -8 -11 734.438 244.753   7
  -4  -8 -11 731.329 224.101  11
   4   8  11 809.461 265.145   2
  -4  -8 -12 5118.64 600.010  11
   4   8  12 4865.62 631.242   2
   4   8  12 4228.16 591.945   1
  -4  -8 -13 5119.26 631.812  11
   4   8  13 6096.81 688.344   2
   4   8  13 4763.55 638.550   1
  -4  -8 -14 570.434 276.950  11
   4   8  14 143.720 223.409   1
   4   8  14 311.657 274.747   2
   4   8  15 496.312 249.529   1
  -4  -8 -15 1277.94 430.554  11
  -4  -8 -16 1514.77 426.241  11
   4   8  16 873.078 311.804   1
  -4  -8 -17 2801.76 586.807  11
   4   8  17 2414.29 512.089   1
  -4  -8 -18 2112.33 620.011  11
   4   8  18 604.383 257.162   3
   4   9  -9 362.745 220.415   4
   4   9  -9-83.5843 246.787  11
   4   9  -8 93.9840 164.662   4
  -4  -9   8 6.96171 168.940  10
   4   9  -7 428.707 258.335   4
  -4  -9   7 113.876 155.758   7
  -4  -9   7 429.827 229.139  10
   4   9  -6 386.584 271.324   4
  -4  -9   6 266.829 189.414   7
  -4  -9   6 210.484 183.324  10
   4   9  -5 2167.83 463.414   4
  -4  -9   5 2068.62 399.484   7
  -4  -9   5 2452.80 394.411  10
   4   9  -4 1609.02 359.223   4
   4   9  -4 1613.86 311.894   2
  -4  -9   4 1663.66 366.584   7
  -4  -9   4 1867.98 351.918  10
  -4  -9   4 2233.44 461.561   9
   4   9  -3-195.319 236.822   4
   4   9  -3 25.5214 142.164   2
  -4  -9   3-243.160 206.784   7
  -4  -9   3 52.4206 129.600  10
  -4  -9   3 347.724 245.287   9
   4   9  -2 343.174 173.376   4
   4   9  -2 288.933 143.593   2
  -4  -9   2 184.030 192.663   7
  -4  -9   2 672.140 218.987  10
  -4  -9   2 478.118 254.966   9
   4   9  -1 3119.87 513.267   4
   4   9  -1 3039.21 431.746   2
  -4  -9   1 4337.53 544.749   7
  -4  -9   1 3755.08 425.889  10
  -4  -9   1 2718.74 438.819   9
  -4  -9   0 4476.89 529.425   7
  -4  -9   0 5191.50 498.899  10
   4   9   0 5022.49 547.281   2
  -4  -9   0 4487.06 561.288   9
   4   9   0 4962.38 607.739   4
   4   9   1 2768.04 453.976   4
  -4  -9  -1 2693.48 418.636   7
  -4  -9  -1 3214.08 396.326  10
   4   9   1 3005.16 340.368   5
  -4  -9  -1 2300.40 409.128   9
   4   9   1 2641.68 400.485   2
   4   9   2 1809.46 364.039   4
  -4  -9  -2 1401.68 339.645   7
  -4  -9  -2 2035.27 317.140  10
  -4  -9  -2 2470.67 443.470   9
   4   9   2 2101.67 294.035   5
   4   9   2 2279.88 385.515   2
   4   9   3 484.453 249.302   4
  -4  -9  -3-69.7912 163.905   7
  -4  -9  -3 112.838 125.910  10
  -4  -9  -3 84.5390 166.627   9
   4   9   3 39.2554 94.9958   5
   4   9   3 47.5420 153.282   2
   4   9   4 173.983 186.928   4
  -4  -9  -4 333.407 187.711   7
  -4  -9  -4-102.640 121.445  10
  -4  -9  -4 52.6329 186.098   9
   4   9   4 529.897 208.304   5
   4   9   4 406.583 199.364   2
   4   9   5 352.899 162.388   4
  -4  -9  -5 517.027 137.406   8
  -4  -9  -5 287.289 186.369   7
  -4  -9  -5 311.338 193.626  10
  -4  -9  -5 284.002 202.639   9
   4   9   5 304.364 175.961   5
   4   9   5 134.910 177.491   2
  -4  -9  -6 4812.93 575.283   7
   4   9   6 4267.19 533.765   2
   4   9   6 4334.15 485.895   5
  -4  -9  -6 4710.13 484.466  10
  -4  -9  -6 4769.19 552.378   9
   4   9   6 4439.00 520.093   4
  -4  -9  -6 5314.52 405.512   8
   4   9   7 313.673 191.766   4
  -4  -9  -7 325.611 212.316   7
  -4  -9  -7 249.512 131.587  10
  -4  -9  -7 43.0193 172.743   9
   4   9   7 352.568 200.453   5
   4   9   7 261.597 175.213   2
   4   9   8 852.641 237.417   4
  -4  -9  -8 1051.70 312.284   7
   4   9   8 1058.35 336.896   2
  -4  -9  -8 532.896 226.187   9
  -4  -9  -9 576.248 257.884   7
   4   9   9 306.815 198.428   2
  -4  -9  -9 238.224 191.565   9
  -4  -9 -10 304.317 179.119   7
   4   9  10 252.841 176.340   2
  -4  -9 -10 526.928 246.999   9
  -4  -9 -11 303.377 207.694   7
  -4  -9 -11-264.976 245.719  11
   4   9  11-181.564 174.037   2
   4   9  12 2658.11 503.984   1
  -4  -9 -12 2906.03 477.063   7
  -4  -9 -12 2814.33 468.429  11
   4   9  12 2626.99 475.474   2
   4   9  13 285.473 227.916   1
  -4  -9 -13 307.527 189.403   7
  -4  -9 -13 218.154 223.650  11
   4   9  13 424.892 267.752   2
  -4  -9 -14 523.771 244.951   7
  -4  -9 -14-60.9276 206.401  11
   4   9  14 143.136 183.416   1
   4   9  14 462.399 223.789   2
   4   9  15-57.6684 195.284   1
  -4  -9 -15 471.507 256.675  11
  -4  -9 -16 2108.49 496.539  11
   4   9  16 1807.02 450.783   1
  -4  -9 -17 1591.40 499.274  11
   4   9  17 112.795 213.553   1
  -4  -9 -18 1491.10 497.309  11
  -4 -10   7 559.371 267.734   7
   4  10  -6 129.721 254.187   4
  -4 -10   6-186.002 185.214   7
   4  10  -5 408.550 272.257   4
  -4 -10   5 269.587 208.855   7
   4  10  -4 997.246 340.989   4
  -4 -10   4 723.660 339.450   9
   4  10  -3 1063.40 355.212   4
  -4 -10   3 1669.98 377.681   7
  -4 -10   3 1082.66 325.749   9
   4  10  -2 2766.24 433.560   2
   4  10  -2 1850.50 432.089   4
  -4 -10   2 2194.31 425.493   7
  -4 -10   2 1694.85 394.419   9
   4  10  -1-168.136 216.752   4
  -4 -10   1 92.7216 197.949   7
  -4 -10   1 181.566 142.964  10
  -4 -10   1 74.7205 248.363   9
   4  10  -1 43.2951 151.499   2
   4  10   0 466.611 224.805   4
  -4 -10   0 570.079 225.266   7
  -4 -10   0 686.928 215.125  10
  -4 -10   0 406.522 249.482   9
   4  10   0 414.296 134.903   2
   4  10   1 2186.82 411.670   4
  -4 -10  -1 2708.53 449.147   7
  -4 -10  -1 2559.79 361.458  10
  -4 -10  -1 1787.18 387.623   9
   4  10   1 2613.40 418.570   2
   4  10   2 334.291 227.869   4
  -4 -10  -2 115.386 150.750   7
  -4 -10  -2 30.4041 114.236  10
  -4 -10  -2-241.335 259.081   9
   4  10   2 176.092 123.702   5
   4  10   2 115.206 139.872   2
   4  10   3 612.167 255.161   4
  -4 -10  -3 924.817 270.097   7
  -4 -10  -3 910.172 222.685  10
  -4 -10  -3 896.807 276.643   9
   4  10   3 978.422 237.668   5
   4  10   3 1079.44 284.350   2
   4  10   4 1528.08 341.412   4
  -4 -10  -4 1670.68 380.281   7
  -4 -10  -4 1698.84 299.812  10
  -4 -10  -4 1188.87 324.699   9
   4  10   4 1752.00 309.474   5
   4  10   4 1531.95 324.782   2
  -4 -10  -5 11667.7 908.010   7
   4  10   5 12496.4 915.893   2
  -4 -10  -5 11182.0 743.036  10
   4  10   5 10731.2 763.970   5
  -4 -10  -5 11374.5 918.262   9
   4  10   5 11829.4 896.069   4
   4  10   6 1198.52 303.340   4
  -4 -10  -6 1375.96 354.567   7
  -4 -10  -6 857.698 238.886  10
  -4 -10  -6 1373.69 343.253   9
   4  10   6 1575.57 325.079   5
   4  10   6 1497.25 329.848   2
  -4 -10  -7 4504.50 601.674   7
  -4 -10  -7 3774.22 461.167  10
   4  10   7 4829.51 567.918   5
  -4 -10  -7 4126.50 564.222   9
   4  10   7 4170.82 550.189   2
   4  10   7 4674.02 546.832   4
  -4 -10  -7 4993.76 436.452   8
   4  10   8 1447.41 326.919   4
  -4 -10  -8 1696.36 375.916   7
  -4 -10  -8 1466.44 323.059  10
   4  10   8 1685.10 386.540   2
  -4 -10  -8 1779.05 373.803   9
   4  10   8 2051.99 384.571   5
  -4 -10  -9 1353.20 348.533   7
   4  10   9 701.262 267.341   2
  -4 -10  -9 1532.41 402.015   9
  -4 -10 -10 48.1701 230.935   7
   4  10  10 209.792 202.541   2
  -4 -10 -10 86.0063 173.569   9
   4  10  11 2086.23 445.994   1
  -4 -10 -11 1631.39 354.381   7
   4  10  11 2637.25 476.296   2
  -4 -10 -11 2012.22 423.138   9
  -4 -10 -12 1011.80 339.055   7
  -4 -10 -12 502.016 173.060  11
   4  10  12 1152.75 370.197   1
   4  10  12 1441.28 408.243   2
  -4 -10 -12 1635.64 434.922   9
  -4 -10 -13 261.047 217.901   7
   4  10  13 228.517 163.698   2
   4  10  13-69.9117 176.075   1
  -4 -10 -14 77.7696 204.592   7
   4  10  14 417.307 266.294   1
   4  10  14 229.943 169.368   2
  -4 -10 -15-24.8485 191.950   7
  -4 -10 -15-251.102 332.072  11
   4  10  15 483.915 273.687   1
  -4 -10 -16 68.8090 215.499   7
   4  10  16 489.051 320.540   1
  -4 -10 -17 724.920 345.446  11
  -4 -10 -18 1299.29 408.879  11
  -4 -11   7 577.287 254.618   7
  -4 -11   6 1839.56 429.454   7
  -4 -11   5 672.289 281.908   7
   4  11  -4 1483.91 409.294   4
  -4 -11   4 1705.02 398.060   7
  -4 -11   4 1739.39 468.965   9
   4  11  -3-52.8163 197.655   4
  -4 -11   3 180.582 213.619   7
  -4 -11   3 78.3232 241.104   9
  -4 -11   2 5460.59 695.485   7
  -4 -11   2 5284.08 692.392   9
   4  11  -2 5158.84 729.872   4
   4  11  -1 1155.73 352.799   4
  -4 -11   1 1082.69 343.232   7
  -4 -11   1 777.253 308.920   9
   4  11   0 63.8985 159.347   4
  -4 -11   0 378.203 259.872   7
  -4 -11   0 760.468 322.591   9
   4  11   0 308.656 212.688   2
   4  11   1 684.748 305.168   4
  -4 -11  -1 210.099 159.091   7
  -4 -11  -1 424.362 234.292   9
   4  11   1 224.575 132.580   2
   4  11   2 325.106 209.257   4
  -4 -11  -2 582.214 266.742   7
  -4 -11  -2 780.354 261.830   9
   4  11   2 400.998 221.153   2
   4  11   3 10.6040 178.639   4
  -4 -11  -3 190.917 203.197   7
  -4 -11  -3 186.282 173.808   9
   4  11   3 406.037 246.557   2
   4  11   4 1989.98 416.832   4
  -4 -11  -4 1794.91 431.122   7
  -4 -11  -4 1396.55 374.793   9
   4  11   4 2060.82 351.287   5
   4  11   4 1759.60 372.098   2
   4  11   5 880.226 279.734   4
  -4 -11  -5 767.569 288.274   7
  -4 -11  -5 552.792 262.005   9
   4  11   5 850.704 240.716   5
   4  11   5 633.566 264.550   2
   4  11   6 434.364 187.858   4
  -4 -11  -6 111.670 171.433   7
  -4 -11  -6 496.686 253.244   9
   4  11   6 441.104 226.714   2
   4  11   6 158.860 142.778   5
   4  11   7 3157.97 483.835   4
  -4 -11  -7 2929.61 522.476   7
  -4 -11  -7 2794.96 499.530   9
   4  11   7 3703.02 546.032   2
   4  11   7 3038.74 464.582   5
   4  11   8 1722.32 344.551   4
  -4 -11  -8 737.947 304.747   7
   4  11   8 1166.23 323.814   2
  -4 -11  -8 1133.84 301.948   9
   4  11   8 1581.14 364.335   5
   4  11   9 46.8686 131.541   4
  -4 -11  -9-184.014 238.475   7
   4  11   9 349.556 268.784   2
  -4 -11  -9 126.346 198.588   9
   4  11   9 216.370 241.159   5
   4  11  10 1797.36 429.571   1
  -4 -11 -10 2297.30 478.753   7
   4  11  10 1592.94 398.491   2
  -4 -11 -10 2318.20 449.110   9
  -4 -11 -11 4130.11 620.828   7
   4  11  11 4331.08 630.548   2
  -4 -11 -11 3893.06 608.616   9
   4  11  11 4231.15 634.487   1
   4  11  12 567.149 271.602   1
  -4 -11 -12 94.0204 197.784   7
   4  11  12-13.6084 173.161   2
  -4 -11 -12 188.658 188.238   9
  -4 -11 -13 377.890 240.622   7
   4  11  13 306.484 222.805   2
   4  11  13-1.76970 164.889   1
  -4 -11 -13 411.703 286.518   9
   4  11  14 1375.96 401.127   1
  -4 -11 -14 1990.70 479.700   7
  -4 -11 -14 1248.52 340.396  11
   4  11  14 1559.87 430.342   2
  -4 -11 -14 2009.24 458.720   9
  -4 -11 -15-796.661 408.026  11
   4  11  15 207.870 189.142   1
  -4 -11 -16-931.180 408.997  11
  -4 -11 -17-479.288 353.159  11
  -4 -12   3 1893.87 463.339   7
  -4 -12   2 1568.77 413.109   7
   4  12  -1 1777.99 490.898   4
  -4 -12   1 681.001 268.610   7
  -4 -12   1 1504.58 436.843   9
   4  12   0 405.580 282.592   4
  -4 -12   0 368.417 266.345   7
  -4 -12   0-147.427 266.696   9
   4  12   1 222.939 243.161   4
  -4 -12  -1 559.566 274.125   7
  -4 -12  -1-370.929 256.048   9
   4  12   2 1834.91 417.691   4
  -4 -12  -2 2052.60 452.941   7
  -4 -12  -2 1699.30 404.308   9
   4  12   2 2494.97 433.426   2
   4  12   3 637.087 312.104   4
  -4 -12  -3 268.149 222.435   7
  -4 -12  -3 568.957 281.042   9
   4  12   3 87.9290 161.484   2
   4  12   4 2152.80 448.427   4
  -4 -12  -4 1748.88 430.165   7
  -4 -12  -4 1374.07 405.342   9
   4  12   4 2043.75 426.029   2
   4  12   5 76.5946 190.785   4
  -4 -12  -5-153.857 250.822   7
  -4 -12  -5 293.926 229.306   9
   4  12   5 148.335 137.780   5
   4  12   5 303.495 216.960   2
   4  12   6 216.583 199.108   4
  -4 -12  -6 78.2958 194.209   7
  -4 -12  -6 110.427 193.861   9
   4  12   6 369.733 224.757   2
   4  12   6 279.752 147.938   5
   4  12   7 810.328 286.735   4
  -4 -12  -7 838.083 303.163   7
   4  12   7 555.565 219.898   2
  -4 -12  -7 436.465 267.515   9
   4  12   7 561.765 261.405   5
   4  12   8 1561.86 367.657   4
  -4 -12  -8 1158.78 358.144   7
   4  12   8 1151.29 368.342   2
  -4 -12  -8 1234.62 364.107   9
   4  12   8 918.907 310.721   5
   4  12   9-33.0900 134.881   4
  -4 -12  -9-161.389 179.199   7
   4  12   9 152.995 225.213   2
  -4 -12  -9 465.487 280.094   9
   4  12   9-40.4631 172.333   5
   4  12   9 113.189 150.398   1
   4  12  10 2565.31 487.720   1
  -4 -12 -10 2566.43 517.324   7
   4  12  10 2141.00 459.845   2
  -4 -12 -10 2430.48 508.466   9
   4  12  11 105.150 186.280   1
  -4 -12 -11 142.429 250.630   7
   4  12  11 307.141 239.877   2
  -4 -12 -11 606.350 327.945   9
  -4 -12 -12 1253.40 356.496   7
   4  12  12 838.031 342.928   1
   4  12  12 493.026 275.927   2
  -4 -12 -12 407.709 257.823   9
   4  12  13 144.942 258.533   1
   4  13   2 38.3209 197.848   4
   4  13   3 1118.75 362.237   4
  -4 -13  -3 1391.40 401.428   7
   4  13   4 508.396 272.114   4
  -4 -13  -4 517.435 270.301   7
   4  13   4 415.927 216.997   2
   4  13   5 974.680 326.903   4
  -4 -13  -5 1596.25 417.578   7
   4  13   5 694.894 274.063   2
   4  13   6 106.463 221.904   4
  -4 -13  -6 460.181 299.077   7
   4  13   6 288.165 201.176   2
  -4 -13  -6 236.783 195.850   9
   4  13   7 1572.16 400.679   4
   4  13   7 915.235 326.614   2
   4  13   7 1715.75 381.198   5
   4  13   8 1784.72 410.818   4
   4  13   8 2367.88 500.243   2
   4  13   8 2118.49 443.156   5
   4  13   9 706.118 336.772   2
   4  13   9 923.664 335.847   5
   4  13  10 1455.03 425.986   2
   4  13  10 1122.80 332.490   1
   4  13  11-186.562 223.468   1
   4  13  12 363.705 237.046   1
   4  14   6 60.6497 225.901   4
   4  14   7 290.446 249.434   4
   4  14   7-261.770 272.816   2
   5 -12  -2 411.914 233.672   7
   5 -12  -1 2398.33 502.670   7
   5 -12   0 104.510 180.948   7
   5 -12   1 107.916 176.194   7
   5 -12   2-297.723 214.091   7
   5 -11  -6-36.0734 167.261   8
  -5  11   6 211.364 232.999   5
   5 -11  -5 47.2080 199.688   8
  -5  11   5 146.332 226.635   5
   5 -11  -4 4030.82 614.772   8
  -5  11   4 3769.12 635.016   5
   5 -11  -3 1096.08 337.313   8
   5 -11  -3 1364.40 357.631   7
  -5  11   3 879.404 348.563   5
   5 -11  -2 652.406 270.173   8
   5 -11  -2 1545.48 378.822   7
  -5  11   2 889.141 317.712   5
   5 -11  -1 609.730 265.344   7
  -5  11   1 787.388 311.889   5
   5 -11  -1 1150.41 365.648   8
   5 -11   0 398.516 218.125   7
  -5  11   0 662.383 333.927   5
   5 -11   0 366.140 287.221   8
   5 -11   1 117.735 234.896   7
  -5  11  -1-292.261 189.371   5
   5 -11   1-86.8367 197.777   8
   5 -11   2 265.625 219.795   7
  -5  11  -2 971.592 373.201   5
   5 -11   2 884.441 344.171   8
   5 -11   3 1010.23 358.368   7
  -5  11  -3 1165.78 378.581   5
   5 -11   3 1023.63 330.192   8
  -5  11  -4 182.864 241.111   5
   5 -11   4-212.345 176.354   8
   5 -11   5 284.078 232.472   8
   5 -11   6 3006.75 564.186   8
  -5  10  12 355.197 264.720   1
  -5  10  11 100.137 178.013   1
  -5  10  10 236.213 242.863   5
  -5  10   9 642.522 303.982   5
   5 -10  -8 2001.45 445.588   8
  -5  10   8 1631.83 421.336   5
   5 -10  -7 723.565 309.674   8
  -5  10   7 986.443 347.976   5
   5 -10  -6 742.775 272.341   8
  -5  10   6 1219.78 374.547   5
   5 -10  -5 467.347 269.921   8
  -5  10   5 428.917 247.450   5
   5 -10  -4 3194.11 522.599   8
   5 -10  -4 2590.44 424.320   7
  -5  10   4 2670.87 493.423   5
   5 -10  -3 631.525 299.689   8
   5 -10  -3 522.513 232.982   7
  -5  10   3 364.655 181.475   5
   5 -10  -2 190.763 263.491   8
   5 -10  -2 675.549 267.808   7
  -5  10   2 307.031 216.837   5
   5 -10  -1 33.9586 175.837   7
  -5  10   1 428.170 277.452   5
   5 -10  -1 297.122 217.785   8
   5 -10   0 1174.50 328.195   7
  -5  10   0 1068.92 346.629   5
   5 -10   0 859.872 288.171   8
   5 -10   1 820.010 281.964   7
  -5  10  -1 644.133 287.370   5
   5 -10   1 480.966 259.757   8
   5 -10   2 2993.26 499.202   7
  -5  10  -2 2897.75 502.092   5
   5 -10   2 2627.63 485.059   8
   5 -10   3 469.776 255.419   7
  -5  10  -3 251.717 207.989   5
   5 -10   3 396.376 254.369   8
  -5  10  -4 88.8440 168.304   5
   5 -10   4-47.6018 231.077   8
  -5  10  -5 1119.49 331.827   5
   5 -10   5 749.418 297.740   8
  -5  10  -6 3082.75 543.814   5
   5 -10   6 2244.54 485.276   8
  -5  10  -7-3.96793 212.891   5
   5 -10   7 533.819 316.890   8
  -5  10  -8 1887.15 446.810   5
   5 -10   8 1950.28 471.721   8
   5 -10   9 956.636 361.101   8
  -5   9  13 486.806 301.279   5
  -5   9  12 299.793 213.852   1
  -5   9  12 452.996 282.322   5
  -5   9  11 266.618 224.575   1
  -5   9  11 287.186 289.635   5
   5  -9 -10 234.614 222.036   8
  -5   9  10 132.511 234.403   1
  -5   9  10 474.734 311.301   5
   5  -9  -9 312.157 255.224   8
  -5   9   9 221.630 214.885   1
  -5   9   9 114.358 194.492   5
   5  -9  -8 372.101 212.533   8
  -5   9   8 81.0559 130.140   1
  -5   9   8 524.200 256.392   5
   5  -9  -7-6.80911 191.084   8
  -5   9   7 188.574 244.570   5
  -5   9   7-252.230 201.487   1
   5  -9  -6 1730.88 412.156   8
  -5   9   6 2188.90 443.798   5
   5  -9  -5 1937.24 424.116   8
  -5   9   5 1517.38 384.955   5
   5  -9  -4 1615.30 399.213   8
   5  -9  -4 1615.65 316.068   7
  -5   9   4 1131.05 338.340   5
   5  -9  -3 1249.12 339.315   8
   5  -9  -3 1358.74 288.440   7
  -5   9   3 1274.93 348.176   5
   5  -9  -2 39.0705 162.700   8
   5  -9  -2-55.6857 158.087   7
  -5   9   2 180.910 216.513   5
   5  -9  -1 1108.43 303.292   8
  -5   9   1 695.243 256.695   5
   5  -9  -1 1150.77 307.859   7
   5  -9   0 962.944 274.983   7
  -5   9   0 1077.86 296.921   5
   5  -9   0 1071.75 299.721   8
   5  -9   1 4676.48 571.989   7
  -5   9  -1 3554.34 542.190   5
   5  -9   1 4108.10 555.927   8
   5  -9   2-92.5125 208.591   7
  -5   9  -2 140.275 197.549   5
   5  -9   2 246.533 209.180   8
   5  -9   3-46.8574 153.443   7
  -5   9  -3-84.1282 172.848   5
   5  -9   3-34.8691 175.983   8
  -5   9  -4 495.229 272.879   5
   5  -9   4-222.348 196.057   8
  -5   9  -5 507.913 259.065   5
   5  -9   5 1109.78 388.110   8
  -5   9  -6 863.775 302.555   5
   5  -9   6 859.973 291.369   8
  -5   9  -7 1382.73 398.082   5
   5  -9   7 987.738 339.231   8
  -5   9  -8 1524.49 390.324   5
   5  -9   8 1478.79 410.131   8
  -5   9  -9-36.0663 180.136   5
   5  -9   9-188.307 195.020   8
  -5   9 -10 306.790 254.758   6
  -5   9 -10 476.234 279.546   5
   5  -9  10 295.761 317.681   8
  -5   9 -11 729.566 335.459   6
   5  -9  11 185.679 230.066   8
  -5   8  14 42.1511 197.391   5
  -5   8  13 493.560 292.832   1
  -5   8  13 143.380 206.962   5
   5  -8 -12 475.857 305.009   8
  -5   8  12 310.623 228.866   1
  -5   8  12 239.363 177.052   5
   5  -8 -11 3477.78 592.991   8
  -5   8  11 3228.85 553.052   1
  -5   8  11 3316.35 570.407   5
   5  -8 -10 327.195 250.565   8
  -5   8  10-130.876 157.079   1
  -5   8  10 288.955 253.569   5
  -5   8   9 5223.93 635.109   1
  -5   8   9 4719.21 605.949   5
   5  -8  -9 5330.65 658.868   8
   5  -8  -8 263.107 211.275   8
  -5   8   8 209.012 201.745   1
  -5   8   8 164.681 181.656   5
   5  -8  -7 361.699 235.472   8
  -5   8   7 439.366 248.802   1
  -5   8   7 217.296 177.567   5
   5  -8  -6 941.781 300.824   8
  -5   8   6 692.120 211.488   1
  -5   8   6 1046.49 320.644   5
   5  -8  -5 1387.89 323.167   8
  -5   8   5 953.529 226.229   1
  -5   8   5 1401.84 337.993   5
   5  -8  -4-54.1849 223.856   8
   5  -8  -4 34.0288 128.682   7
  -5   8   4-75.5974 169.496   1
  -5   8   4 205.313 169.101   5
   5  -8  -3-76.1038 229.843   8
  -5   8   3 463.181 232.180   5
   5  -8  -3 18.6847 126.268   7
   5  -8  -2 1714.01 356.314   8
  -5   8   2 2001.00 388.971   5
   5  -8  -2 1957.19 337.224   7
   5  -8  -1 1039.24 285.953   8
   5  -8  -1 1255.52 266.902   7
  -5   8   1 989.883 294.168   5
   5  -8   0 207.045 153.114   7
  -5   8   0 127.247 169.386   5
   5  -8   0 132.415 157.174   8
   5  -8   1 1824.86 343.452   7
  -5   8  -1 1812.25 364.648   5
   5  -8   1 2001.76 377.306   8
   5  -8   2 1616.24 327.705   7
  -5   8  -2 1385.80 361.972   5
   5  -8   2 1259.42 329.241   8
   5  -8   3-196.734 188.642   7
  -5   8  -3 64.3792 202.697   5
   5  -8   3 205.681 181.878   8
  -5   8  -4 306.657 246.571   5
   5  -8   4 319.147 196.200   8
  -5   8  -5 209.900 180.779   5
   5  -8   5-310.015 210.924   8
  -5   8  -6-250.489 247.771   5
   5  -8   6-56.5206 152.192   8
  -5   8  -7-293.310 246.298   5
   5  -8   7 121.296 198.493   8
  -5   8  -8 110.358 189.453   5
   5  -8   8 173.302 179.830   8
   5  -8   9-74.4316 179.748   3
  -5   8  -9 650.695 298.224   6
  -5   8  -9 416.612 283.902   5
   5  -8   9 49.7870 184.564   8
   5  -8  10 778.082 338.672   3
  -5   8 -10 1188.57 356.853   6
  -5   8 -10 303.685 234.810   5
   5  -8  10 655.215 291.495   8
   5  -8  11 726.928 340.321   3
  -5   8 -11 835.581 355.092   6
  -5   8 -11-125.272 188.673   5
   5  -8  11 95.6221 196.648   8
  -5   8 -12 576.353 368.137   6
  -5   8 -12 183.072 225.605   5
   5  -8  12-55.0316 231.515   8
  -5   7  14 188.039 216.879   5
   5  -7 -13 444.488 270.372   8
  -5   7  13 219.065 229.807   1
  -5   7  13 376.037 222.928   5
   5  -7 -12 3824.48 615.058   8
  -5   7  12 3792.95 605.659   1
  -5   7  12 3348.81 504.503   5
   5  -7 -11 2406.30 487.796   8
  -5   7  11 2649.08 500.630   1
  -5   7  11 2147.48 417.439   5
   5  -7 -10 3645.77 570.691   8
  -5   7  10 2743.33 496.506   1
  -5   7  10 3780.09 551.408   5
   5  -7  -9 3636.68 549.550   8
  -5   7   9 4222.11 573.233   1
  -5   7   9 3739.56 519.365   5
   5  -7  -8 3417.66 537.524   8
  -5   7   8 3861.21 536.841   5
  -5   7   8 4249.96 564.457   1
   5  -7  -7-74.0185 164.981   8
  -5   7   7-10.1382 151.101   1
  -5   7   7-148.019 218.752   5
   5  -7  -6 1613.69 350.263   8
  -5   7   6 1666.25 326.416   1
  -5   7   6 1509.11 356.059   5
   5  -7  -5 114.519 149.951   8
   5  -7  -5 204.577 137.803   7
  -5   7   5 181.217 144.120   1
  -5   7   5 231.894 189.935   5
   5  -7  -4 746.812 314.302   8
   5  -7  -4 242.519 135.427   7
  -5   7   4 552.975 188.788   1
  -5   7   4 518.625 217.265   5
   5  -7  -3 1548.42 322.555   8
   5  -7  -3 1727.74 280.826   7
  -5   7   3 1955.26 308.587   1
  -5   7   3 1931.38 381.990   5
   5  -7  -2 4570.12 454.444   7
  -5   7   2 3814.25 491.482   5
  -5   7   2 4463.31 439.849   1
   5  -7  -2 4355.91 542.007   8
   5  -7  -1-9.25060 123.515   8
   5  -7  -1 75.0467 132.343   7
  -5   7   1 220.146 115.955   1
  -5   7   1 200.528 193.353   5
   5  -7   0 1404.73 310.573   8
   5  -7   0 1259.90 251.718   7
  -5   7   0 1983.98 378.204   5
   5  -7   1 1203.01 269.151   7
  -5   7  -1 975.847 282.415   5
   5  -7   1 1523.06 321.726   8
   5  -7   2 904.422 225.327   7
  -5   7  -2 1207.78 332.029   5
   5  -7   2 838.974 264.718   8
  -5   7  -3 619.017 250.312   5
   5  -7   3 594.355 253.459   8
   5  -7   4 4517.14 496.618   3
  -5   7  -4 5031.71 606.631   5
   5  -7   4 4489.53 534.421   8
   5  -7   5 127.095 140.271   3
  -5   7  -5 42.2206 153.408   5
   5  -7   6 87.0731 179.170   3
  -5   7  -6 73.5012 168.337   5
   5  -7   6 101.710 181.227   8
   5  -7   7 174.403 184.628   3
  -5   7  -7 141.401 219.135   5
   5  -7   7 272.553 210.991   8
   5  -7   8 1321.45 316.711   3
  -5   7  -8 1708.86 369.631   5
   5  -7   8 768.478 284.524   8
   5  -7   9 568.704 275.001   3
  -5   7  -9 446.611 285.557   6
  -5   7  -9 654.392 276.036   5
   5  -7   9 1013.47 335.527   8
   5  -7  10 1391.16 390.605   3
  -5   7 -10 2176.54 467.640   6
  -5   7 -10 1665.74 397.016   5
   5  -7  10 560.035 292.768   8
   5  -7  11 460.925 248.541   3
  -5   7 -11 732.272 322.160   6
  -5   7 -11 213.682 168.734   5
   5  -7  11 605.975 341.343   8
   5  -7  12 174.129 205.750   3
  -5   7 -12 489.386 284.849   6
  -5   7 -12 131.772 169.844   5
   5  -7  12 239.909 245.155   8
   5  -7  13 546.925 299.836   3
  -5   7 -13 655.842 267.181   6
  -5   7 -13 109.877 209.328   5
  -5   7 -14 597.544 260.945   5
   5  -6 -14 135.891 188.117   8
   5  -6 -13 333.552 201.328   8
  -5   6  13 963.636 348.931   1
  -5   6  13 1050.82 327.295   5
   5  -6 -12 2031.43 437.732   8
  -5   6  12 1976.01 463.666   1
  -5   6  12 2361.60 432.147   5
   5  -6 -11 223.101 211.867   8
  -5   6  11 238.568 247.998   1
  -5   6  11-275.263 219.952   5
  -5   6  10 5321.22 656.545   1
  -5   6  10 6184.16 644.424   5
   5  -6 -10 5814.46 686.730   8
  -5   6   9 14726.2 962.290   5
  -5   6   9 15007.7 1043.18   1
   5  -6  -9 14452.0 1022.87   8
   5  -6  -8 376.086 207.333   8
  -5   6   8 234.427 165.756   1
  -5   6   8 457.005 191.943  10
  -5   6   8 745.729 257.979   5
   5  -6  -7 3139.96 469.158   8
  -5   6   7 3662.82 418.818  10
  -5   6   7 3901.34 498.185   1
  -5   6   7 3001.26 446.772   5
   5  -6  -6 362.309 195.683   8
  -5   6   6 634.234 219.806   1
  -5   6   6 512.123 186.247  10
  -5   6   6 800.809 242.692   5
   5  -6  -5 1390.08 308.799   8
   5  -6  -5 1809.03 261.458   7
  -5   6   5 1986.38 334.305   1
  -5   6   5 1966.33 291.366  10
  -5   6   5 1510.06 324.540   5
   5  -6  -4 786.414 221.378   8
   5  -6  -4 831.576 187.567   7
  -5   6   4 730.355 210.486   1
  -5   6   4 649.459 175.284  10
  -5   6   4 739.434 256.559   5
   5  -6  -3 1551.02 325.164   8
   5  -6  -3 2228.91 288.281   7
  -5   6   3 2904.74 419.691   5
  -5   6   3 2502.69 280.574  10
  -5   6   3 2763.21 357.354   1
   5  -6  -2 9564.89 579.325   7
  -5   6   2 8612.01 694.088   5
  -5   6   2 10431.9 644.949   1
  -5   6   2 9346.60 491.038  10
   5  -6  -2 8564.73 697.871   8
   5  -6  -1 1843.82 317.653   8
   5  -6  -1 2295.45 307.380   7
  -5   6   1 2504.10 331.857   1
  -5   6   1 2601.18 256.172  10
  -5   6   1 2262.37 368.459   5
   5  -6  -1 2339.26 200.657   9
   5  -6   0 6436.39 510.835   7
  -5   6   0 4955.91 440.518   1
  -5   6   0 7302.63 635.929   5
  -5   6   0 7425.24 395.018  10
   5  -6   0 7379.95 349.905   9
   5  -6   0 6114.00 584.344   8
   5  -6   1 628.580 182.067   7
   5  -6   1 588.596 167.155   3
  -5   6  -1 701.145 230.474   5
  -5   6  -1 808.360 134.568  10
   5  -6   1 672.862 188.640   8
   5  -6   2-115.433 167.295   3
  -5   6  -2 225.646 93.2574  10
  -5   6  -2 163.298 189.384   5
   5  -6   2 365.943 225.783   8
   5  -6   3 9457.20 646.807   3
  -5   6  -3 9344.71 742.909   5
   5  -6   3 9994.24 428.644   2
   5  -6   3 8875.93 694.905   8
  -5   6  -3 9931.57 451.961  10
   5  -6   4 6554.44 565.105   3
  -5   6  -4 6513.30 630.529   5
   5  -6   4 6186.86 614.669   8
   5  -6   5 344.935 187.439   3
  -5   6  -5 562.399 224.683   5
   5  -6   5 526.965 237.511   8
   5  -6   6 1218.06 284.124   3
  -5   6  -6 1455.42 351.615   5
   5  -6   6 1300.18 314.378   8
   5  -6   7 125.654 181.769   3
  -5   6  -7 162.640 163.356   5
   5  -6   7 48.9915 163.203   8
   5  -6   8 1659.75 322.957   3
  -5   6  -8 1449.36 349.449   5
   5  -6   8 1499.52 352.714   8
   5  -6   9-164.780 198.648   3
  -5   6  -9 240.006 231.395   6
   5  -6   9 242.594 170.713   8
   5  -6  10 3980.76 547.758   3
  -5   6 -10 4340.98 608.603   6
   5  -6  10 3152.85 497.307   8
   5  -6  11 786.411 258.467   3
  -5   6 -11 963.855 343.413   6
   5  -6  11 597.948 247.948   8
   5  -6  12 714.719 324.799   3
  -5   6 -12 598.046 318.576   6
   5  -6  12 936.180 353.774   8
   5  -6  13 155.652 226.761   3
  -5   6 -13 293.256 262.316   6
   5  -6  14 338.528 222.371   3
  -5   6 -14 525.338 336.405   6
   5  -5 -14 571.426 249.020  11
  -5   5  14 557.294 248.561   1
  -5   5  13 229.679 154.445   5
  -5   5  13 440.785 288.155   1
   5  -5 -12 70.0202 187.440   8
   5  -5 -12 139.301 136.994  11
  -5   5  12 18.1089 211.338   1
  -5   5  12 339.003 198.176   5
   5  -5 -11 2528.04 475.835   8
   5  -5 -11 2401.97 352.791  11
  -5   5  11 1922.97 427.009   1
  -5   5  11 2474.87 403.602   5
   5  -5 -10 10982.5 732.551  11
  -5   5  10 10253.2 789.933   5
  -5   5  10 9455.15 794.131  10
  -5   5  10 10265.6 899.979   1
   5  -5 -10 9501.46 814.441   8
   5  -5  -9 3628.56 502.126   8
   5  -5  -9 4134.58 432.623  11
  -5   5   9 3769.07 525.281   1
  -5   5   9 3574.74 475.592   5
  -5   5   9 3570.63 468.952  10
   5  -5  -8-10.3142 150.552   8
   5  -5  -8-21.5513 87.7193  11
  -5   5   8 36.9612 149.358   1
  -5   5   8 307.708 201.941  10
  -5   5   8-36.6724 136.024   5
   5  -5  -7 14079.9 670.816  11
  -5   5   7 12317.6 807.267   5
  -5   5   7 12881.3 788.780  10
  -5   5   7 13308.7 907.751   1
   5  -5  -7 12846.6 873.498   8
   5  -5  -6 552.727 206.710   8
   5  -5  -6 923.477 172.716  11
  -5   5   6 914.293 249.871   1
  -5   5   6 533.251 202.008   5
  -5   5   6 1002.84 225.783  10
   5  -5  -5 1682.98 331.979   8
   5  -5  -5 1881.08 224.232   7
   5  -5  -5 1959.25 211.949  11
  -5   5   5 1678.38 309.871   1
  -5   5   5 1828.83 286.517  10
  -5   5   5 1645.20 308.985   5
   5  -5  -4 1032.90 277.220   8
   5  -5  -4 1121.77 188.818   7
  -5   5   4 1329.82 264.606   1
   5  -5  -4 1270.55 165.372  11
  -5   5   4 1000.55 199.656  10
  -5   5   4 911.189 242.016   5
   5  -5  -4 1139.22 153.291   9
   5  -5  -3 11879.0 557.756   7
   5  -5  -3 11389.6 405.349  11
  -5   5   3 10900.3 719.173   5
  -5   5   3 10654.6 585.363  10
  -5   5   3 11411.6 711.741   1
   5  -5  -3 11497.0 413.427   9
   5  -5  -3 10803.6 753.248   8
   5  -5  -2 1482.22 288.287   8
   5  -5  -2 1531.03 219.086   7
  -5   5   2 1239.03 239.349   1
   5  -5  -2 1330.25 117.962  11
   5  -5  -2 1584.58 134.878  11
  -5   5   2 1314.26 197.991  10
  -5   5   2 1382.76 268.528   5
   5  -5  -2 1349.42 129.753   9
   5  -5  -1 6264.01 441.601   7
   5  -5  -1 5917.94 190.024  11
   5  -5  -1 6513.52 199.604  11
  -5   5   1 6888.79 577.098   5
  -5   5   1 6946.25 510.629   1
  -5   5   1 7033.95 437.132  10
   5  -5  -1 6704.65 263.366   9
   5  -5  -1 5893.77 551.568   8
   5  -5   0 9007.69 547.576   7
   5  -5   0 8500.25 498.024   3
  -5   5   0 9138.25 578.996   1
  -5   5   0 7965.81 636.313   5
   5  -5   0 8821.90 665.918   8
  -5   5   0 8478.15 462.228  10
   5  -5   1 814.101 176.757   3
  -5   5  -1 1268.86 302.078   5
  -5   5  -1 917.929 160.179  10
   5  -5   1 1230.78 259.550   8
   5  -5   2 4596.10 408.219   3
   5  -5   2 4607.85 188.435  11
  -5   5  -2 4756.61 342.990  10
   5  -5   2 5440.14 348.032   1
   5  -5   2 4684.85 485.408   8
  -5   5  -2 4878.33 502.761   5
   5  -5   3 12222.2 706.385   3
   5  -5   3 12847.3 387.507  11
  -5   5  -3 12750.3 815.768   5
  -5   5  -3 13192.1 562.291  10
   5  -5   3 13122.4 510.143   2
   5  -5   3 11827.6 477.122   1
  -5   5  -3 13091.4 494.033   9
   5  -5   3 12414.6 781.510   8
   5  -5   4 25.0173 140.634   3
   5  -5   4 99.1767 59.5080   2
  -5   5  -4 175.961 71.8715  11
  -5   5  -4 206.785 103.764  10
  -5   5  -4 228.522 208.217   5
  -5   5  -4 149.127 60.8613   9
   5  -5   4 87.7039 64.1923   1
   5  -5   4 140.774 61.6505  11
   5  -5   4 237.671 162.559   8
   5  -5   5 37.3931 32.6063   2
   5  -5   5 20.3963 112.876   3
  -5   5  -5-19.5974 82.7558  11
  -5   5  -5-21.5165 148.976   5
   5  -5   5 89.3348 147.390   8
   5  -5   6 4153.98 471.361   3
  -5   5  -6 4734.79 360.740  11
  -5   5  -6 3975.87 486.415   5
   5  -5   6 3623.75 463.451   8
   5  -5   7 200.204 133.803   3
  -5   5  -7 341.249 148.290  11
   5  -5   7 56.0172 156.122   8
   5  -5   8 235.863 162.309   3
  -5   5  -8 233.964 133.225  11
   5  -5   8 303.392 191.351   8
   5  -5   9 138.124 153.252   3
  -5   5  -9 470.682 242.279   6
  -5   5  -9 404.205 136.624  11
   5  -5   9 609.935 250.580   8
   5  -5  10 5543.94 633.929   3
  -5   5 -10 5837.39 665.563   6
  -5   5 -10 5841.29 540.086  11
   5  -5  10 5871.24 670.338   8
   5  -5  11 810.612 266.473   3
  -5   5 -11 1433.54 372.135   6
  -5   5 -11 1162.72 266.313  11
   5  -5  11 1254.50 339.506   8
   5  -5  12 898.688 291.401   3
  -5   5 -12 371.150 262.708   6
  -5   5 -12 228.427 186.731  11
  -5   5 -13 329.157 146.551  11
   5  -5  13 285.656 191.761   3
  -5   5 -13 576.291 305.714   6
   5  -5  14 1139.19 357.987   3
  -5   5 -14 1593.71 432.114   6
  -5   5 -14 1896.17 397.262  11
   5  -5  15 283.858 247.090   3
  -5   5 -15 936.557 363.331   6
  -5   5 -15 367.890 218.134  11
  -5   5 -16 1816.87 397.662  11
   5  -4 -16 187.531 195.513  11
   5  -4 -15 109.710 180.527  11
   5  -4 -14 272.823 182.584  11
  -5   4  14 1.41000 217.069   1
   5  -4 -13 209.301 215.210  11
  -5   4  13 112.179 224.853   1
   5  -4 -12 189.075 145.145  11
  -5   4  12-53.5174 187.534   1
  -5   4  12 72.6049 168.580   5
   5  -4 -11 2601.07 399.833  11
  -5   4  11 2369.45 451.483   1
  -5   4  11 2146.34 418.447  10
  -5   4  11 2134.93 358.283   5
   5  -4 -10 988.691 277.913   8
   5  -4 -10 975.883 263.269  11
  -5   4  10 899.561 264.062   1
  -5   4  10 852.535 260.603  10
  -5   4  10 610.427 216.314   5
   5  -4  -9 928.814 256.555   8
   5  -4  -9 1297.09 264.805  11
  -5   4   9 834.565 276.262   1
  -5   4   9 916.464 259.739  10
  -5   4   9 923.905 246.917   5
   5  -4  -8 8133.80 576.750  11
  -5   4   8 7632.53 711.784   1
  -5   4   8 7071.79 591.201   5
  -5   4   8 7334.46 643.802  10
   5  -4  -8 8278.64 690.098   8
   5  -4  -7 2412.51 379.211   8
   5  -4  -7 3394.19 362.028  11
  -5   4   7 2554.31 400.517   1
  -5   4   7 2625.49 379.533   5
  -5   4   7 2371.61 340.281  10
   5  -4  -6 207.553 144.184   8
   5  -4  -6 357.995 133.157  11
  -5   4   6 245.810 126.285   1
  -5   4   6 363.445 174.833  10
  -5   4   6 604.395 198.506   5
   5  -4  -5 690.823 220.588   8
   5  -4  -5 756.650 117.889   7
   5  -4  -5 822.466 165.153  11
  -5   4   5 511.748 144.504  10
  -5   4   5 958.028 229.823   5
  -5   4   5 689.753 209.113   1
   5  -4  -4 6806.35 342.117   7
   5  -4  -4 6618.70 401.297  11
  -5   4   4 6637.85 537.157   5
  -5   4   4 6535.88 493.425  10
  -5   4   4 5988.24 543.728   1
   5  -4  -4 6200.14 551.346   8
   5  -4  -3 844.858 234.450   8
   5  -4  -3 916.843 137.025   7
  -5   4   3 810.213 189.498   1
  -5   4   3 997.438 205.740  10
  -5   4   3 815.925 217.019   5
   5  -4  -3 819.167 106.850   9
   5  -4  -2 96.4874 129.574   8
   5  -4  -2 44.7872 78.3561   7
  -5   4   2 185.674 138.831   1
  -5   4   2 102.377 75.6765   7
  -5   4   2-6.39526 99.3756  10
  -5   4   2 57.0642 111.943   5
   5  -4  -2 21.7872 33.3311   9
   5  -4  -1 10021.8 491.903   7
   5  -4  -1 9773.80 430.516   3
  -5   4   1 10596.3 510.677   7
  -5   4   1 10675.6 675.208   5
  -5   4   1 10555.6 653.072   1
  -5   4   1 9758.55 543.901  10
   5  -4  -1 10653.1 397.582  11
   5  -4  -1 9871.47 662.242   8
   5  -4   0 14425.9 599.580   3
   5  -4   0 15951.7 451.293  11
  -5   4   0 15685.1 773.500   1
  -5   4   0 15301.3 653.988  10
  -5   4   0 14713.1 809.337   5
   5  -4   0 14744.8 809.015   8
   5  -4   1 937.084 173.886   3
   5  -4   1 942.837 104.792  11
  -5   4  -1 745.813 190.899   5
  -5   4  -1 1090.68 180.742  10
   5  -4   1 1022.88 247.902   8
   5  -4   2 20803.5 815.667   3
   5  -4   2 22977.9 555.900  11
  -5   4  -2 23297.7 1024.43   5
  -5   4  -2 22166.6 771.118  10
   5  -4   2 19296.4 923.612   8
   5  -4   3 559.627 164.506   3
   5  -4   3 711.355 133.701   2
   5  -4   3 814.156 120.860  11
  -5   4  -3 340.594 146.230   5
  -5   4  -3 687.856 139.175  10
   5  -4   3 588.110 127.470   1
  -5   4  -3 736.948 104.930   9
   5  -4   3 395.193 162.855   8
   5  -4   4 1543.07 266.717   3
   5  -4   4 1453.49 172.499  11
  -5   4  -4 1575.02 189.859  11
   5  -4   4 1319.44 172.812   1
  -5   4  -4 1130.26 255.410   5
  -5   4  -4 1559.06 231.956  10
   5  -4   4 1574.29 179.211   2
  -5   4  -4 1625.24 172.762   9
   5  -4   4 1215.17 261.145   8
   5  -4   5 5711.92 501.032   3
  -5   4  -5 6300.91 393.865  11
   5  -4   5 6185.12 352.532   1
   5  -4   5 6005.93 298.689   2
  -5   4  -5 6307.01 377.025   9
   5  -4   5 5988.83 549.902   8
   5  -4   6 6456.92 559.037   3
  -5   4  -6 6045.26 419.826  11
   5  -4   6 5909.66 352.202   1
   5  -4   6 6079.42 254.870   2
   5  -4   6 5620.19 550.902   8
   5  -4   7-47.1142 147.392   3
  -5   4  -7 11.3878 86.0590  11
   5  -4   8 622.220 260.434   3
   5  -4   8 466.675 107.441   1
  -5   4  -8 324.328 137.449  11
   5  -4   8 404.921 189.871   8
   5  -4   9 9585.99 764.135   3
  -5   4  -9 9539.55 800.674   6
  -5   4  -9 9814.81 651.231  11
   5  -4   9 9249.38 769.647   8
   5  -4   9 10612.5 456.468   1
   5  -4  10-208.446 169.450   3
  -5   4 -10 376.655 243.854   6
  -5   4 -10 193.955 161.265  11
   5  -4  10 345.399 253.044   8
   5  -4  11 992.781 290.547   3
  -5   4 -11 1053.93 256.183  11
  -5   4 -11 1343.25 372.229   6
   5  -4  11 1187.86 326.538   8
   5  -4  12 4961.60 625.494   3
  -5   4 -12 5653.19 682.767   6
  -5   4 -12 5774.02 596.400  11
   5  -4  13 697.295 292.127   3
  -5   4 -13 704.436 257.006   6
  -5   4 -13 1311.12 307.744  11
   5  -4  14 86.6521 220.647   3
  -5   4 -14 3.20200 210.320   6
  -5   4 -14 85.2959 161.657  11
   5  -4  15 503.370 244.723   3
  -5   4 -15 877.094 356.767   6
  -5   4 -15 1196.58 325.067  11
   5  -4  16 708.381 327.861   3
  -5   4 -16 749.397 324.117   6
  -5   4 -16 662.675 257.811  11
  -5   4 -17 193.742 195.090  11
   5  -3 -16 191.837 212.348  11
   5  -3 -15 117.387 196.926  11
   5  -3 -14 76.8686 167.388  11
  -5   3  14 226.049 252.578   1
  -5   3  13-38.3714 174.112   1
   5  -3 -13-87.0124 169.950  11
   5  -3 -12 561.503 219.743  11
  -5   3  12 248.491 216.416   1
  -5   3  12 627.309 237.980  10
   5  -3 -11 141.815 157.522  11
  -5   3  11-351.647 235.080   1
  -5   3  11-130.925 190.732  10
  -5   3  11 62.6631 143.416   5
   5  -3 -10 514.104 189.242  11
  -5   3  10 472.317 244.104   1
  -5   3  10 466.784 272.050  10
  -5   3  10 466.302 173.043   5
   5  -3  -9 570.959 227.656   8
   5  -3  -9 676.305 202.565  11
  -5   3   9 325.470 168.330   1
  -5   3   9 256.268 169.763  10
  -5   3   9 631.960 186.186   5
   5  -3  -8 600.873 237.854   8
   5  -3  -8 531.290 179.746  11
  -5   3   8 546.567 219.624   1
  -5   3   8 642.352 223.434  10
  -5   3   8 370.326 215.545   5
   5  -3  -7 1071.56 220.962   8
   5  -3  -7 1301.73 248.284  11
  -5   3   7 1752.37 336.704   1
  -5   3   7 1076.23 285.593  10
  -5   3   7 1109.05 234.101   5
   5  -3  -6-61.1023 136.084   8
   5  -3  -6-34.5851 90.1526  11
  -5   3   6-48.3618 130.955   1
  -5   3   6-82.3897 139.734  10
  -5   3   6 37.0530 95.3090   5
   5  -3  -5 6304.48 202.390   7
  -5   3   5 6160.53 531.434  10
  -5   3   5 5929.21 551.577   1
   5  -3  -5 6397.94 553.054   8
  -5   3   5 6801.36 515.203   5
   5  -3  -4 453.239 162.503   8
  -5   3   4 476.958 207.593   1
  -5   3   4 186.110 106.519  10
  -5   3   4 388.512 148.917   5
   5  -3  -3 1762.61 289.728   8
  -5   3   3 1767.31 295.533   1
  -5   3   3 1440.72 238.352  10
  -5   3   3 1954.69 263.375   5
   5  -3  -2 1686.31 284.292   8
   5  -3  -2 1994.79 158.869   3
  -5   3   2 1885.87 167.717   7
  -5   3   2 1933.15 303.897   1
  -5   3   2 1876.54 268.642  10
  -5   3   2 2115.88 285.789   5
   5  -3  -2 1644.68 98.3770   9
   5  -3  -2 1761.45 99.7468   9
  -5   3   1 2882.72 222.679   7
   5  -3  -1 3097.17 230.967   3
   5  -3  -1 2923.76 248.889  11
  -5   3   1 3045.15 343.909   5
  -5   3   1 3141.77 370.468   1
  -5   3   1 3050.16 321.820  10
   5  -3  -1 2859.27 358.394   8
   5  -3   0 1334.33 242.725   8
  -5   3   0 1783.56 280.390   1
  -5   3   0 1698.21 198.224   7
   5  -3   0 1454.68 181.626   3
   5  -3   0 1749.81 188.206  11
  -5   3   0 1848.38 289.419   5
  -5   3   0 1692.18 241.462  10
   5  -3   1 13414.9 575.288   3
  -5   3  -1 12310.5 693.349   5
   5  -3   1 13394.5 489.949  11
  -5   3  -1 11907.9 598.514  10
   5  -3   1 12002.0 689.341   8
  -5   3  -2 16976.6 822.569   5
   5  -3   2 16745.9 688.032   3
   5  -3   2 18404.1 583.099  11
  -5   3  -2 17460.8 710.216  10
   5  -3   2 18099.4 681.088   2
   5  -3   2 16043.1 790.325   8
   5  -3   3 1617.41 244.239   3
   5  -3   3 1812.53 192.951  11
  -5   3  -3 1894.48 291.232   5
  -5   3  -3 1609.32 226.660  10
   5  -3   3 1754.44 209.289   2
  -5   3  -3 1936.33 132.979   9
   5  -3   3 1659.16 276.600   8
   5  -3   4 162.496 88.6368   1
   5  -3   4 3.32394 66.5155   2
   5  -3   4 106.012 144.505   3
   5  -3   4 114.854 63.0845  11
  -5   3  -4 33.9063 71.8648  11
  -5   3  -4 5.79551 85.0060  10
  -5   3  -4 68.3944 53.3366   9
   5  -3   4-18.0433 104.609   8
   5  -3   5 7387.65 546.004   3
  -5   3  -5 6812.97 429.953  11
   5  -3   5 6333.33 452.050   1
   5  -3   5 6498.42 356.423   2
  -5   3  -5 7905.76 391.123   9
   5  -3   5 7470.10 573.469   8
   5  -3   6 7004.97 551.888   3
  -5   3  -6 7904.08 481.347  11
   5  -3   6 6873.39 456.429   1
   5  -3   6 6971.67 336.494   2
   5  -3   6 7583.32 594.857   8
   5  -3   7 299.133 176.824   3
  -5   3  -7 153.743 133.402  11
   5  -3   7 14.4430 55.1607   2
   5  -3   7-51.0450 153.978   8
   5  -3   8 14673.0 873.547   3
  -5   3  -8 15804.4 781.082  11
   5  -3   8 14738.2 459.255   2
   5  -3   8 17154.0 964.796   8
   5  -3   9 248.444 153.959   3
  -5   3  -9 271.081 136.781  11
   5  -3   9 177.175 100.832   1
   5  -3   9 33.8362 144.190   8
   5  -3  10 1112.22 190.067   1
   5  -3  10 1092.67 289.965   3
  -5   3 -10 1521.02 359.841   6
  -5   3 -10 1362.02 277.687  11
   5  -3  10 783.006 295.470   8
   5  -3  11 416.704 221.248   3
  -5   3 -11-61.7668 153.584   6
  -5   3 -11 288.245 184.093  11
   5  -3  11 161.092 103.613   1
   5  -3  12 4659.33 580.526   3
  -5   3 -12 5271.55 655.020   6
  -5   3 -12 4952.08 537.491  11
   5  -3  13 87.0522 251.361   3
  -5   3 -13 142.051 211.669   6
  -5   3 -13 233.536 156.090  11
   5  -3  14 2226.50 460.313   3
  -5   3 -14 2447.37 479.802   6
  -5   3 -14 2454.29 436.443  11
   5  -3  15 1461.31 386.792   3
  -5   3 -15 2092.50 467.289   6
  -5   3 -15 1957.05 379.398  11
   5  -3  16 257.212 220.391   3
  -5   3 -16 803.423 343.428   6
  -5   3 -16 424.449 262.273  11
   5  -3  17 284.910 282.063   3
  -5   3 -17 167.592 279.182   6
  -5   3 -17-68.1001 231.804  11
  -5   3 -18 183.700 200.105  11
   5  -2 -15 1082.00 344.969  11
   5  -2 -14 1072.21 299.249  11
  -5   2  14 948.276 351.163   1
   5  -2 -13 226.706 215.968  11
  -5   2  13 173.032 173.387   1
  -5   2  13-276.326 257.939  10
   5  -2 -12 1120.58 315.982  11
  -5   2  12 1083.24 328.758   1
  -5   2  12 1054.68 353.358  10
   5  -2 -11 1852.86 366.802  11
  -5   2  11 1745.54 388.414   1
  -5   2  11 1367.85 360.072  10
   5  -2 -10 1799.11 344.449  11
  -5   2  10 1203.72 338.585   1
  -5   2  10 1645.60 371.340  10
   5  -2  -9 1951.28 328.936  11
  -5   2   9 1930.07 390.271   1
  -5   2   9 1979.89 364.151  10
  -5   2   9 1722.98 271.918   5
  -5   2   8 276.212 164.652   1
   5  -2  -8 655.951 190.816  11
  -5   2   8 397.969 187.818  10
  -5   2   8 673.946 170.656   5
   5  -2  -7 341.586 177.768   8
  -5   2   7 224.868 175.915   1
   5  -2  -7 340.264 167.866  11
  -5   2   7 151.910 122.620  10
  -5   2   7-4.06603 98.5422   5
   5  -2  -6 953.400 233.955   8
  -5   2   6 1018.35 252.313   1
  -5   2   6 840.171 249.151  10
  -5   2   6 1326.73 225.808   5
  -5   2   5 5743.81 423.614   5
  -5   2   5 5567.55 540.527   1
  -5   2   5 5061.16 484.963  10
   5  -2  -5 5404.98 486.163   8
   5  -2  -4 2153.76 301.860   8
  -5   2   4 1996.57 336.172   1
  -5   2   4 2649.55 285.914   5
  -5   2   4 2521.04 328.467  10
   5  -2  -4 2504.85 220.878   9
   5  -2  -3 2235.78 304.163   8
   5  -2  -3 2164.62 127.014   3
  -5   2   3 2025.07 326.989   1
  -5   2   3 2173.26 259.941   5
  -5   2   3 2279.69 298.257  10
   5  -2  -3 2164.58 171.686   9
   5  -2  -2-92.4557 113.897   8
  -5   2   2-45.3121 102.505   1
   5  -2  -2 12.7409 37.8740   3
  -5   2   2-168.742 144.780  10
  -5   2   2 101.516 119.229   5
   5  -2  -2 9.74004 29.5911   9
  -5   2   1 10128.8 334.021   7
   5  -2  -1 9687.19 389.339   3
  -5   2   1 10141.4 563.501   5
  -5   2   1 9971.85 665.785   1
  -5   2   1 9705.91 572.801  10
   5  -2  -1 9752.31 584.846   8
   5  -2   0 131.009 135.230   8
  -5   2   0 127.833 102.683   1
  -5   2   0 103.466 56.5132   7
   5  -2   0 117.510 84.2858   3
  -5   2   0-0.44240 87.9057   5
  -5   2   0-75.1431 106.044  10
   5  -2   0-98.5864 102.199  11
  -5   2  -1 10593.6 460.954   7
   5  -2   1 10751.2 486.115   3
   5  -2   1 11567.2 495.033  11
  -5   2  -1 10962.4 606.517   5
  -5   2  -1 10169.5 570.798  10
   5  -2   1 9402.34 579.524   8
  -5   2  -2 191.235 90.9260   7
   5  -2   2 313.437 116.068   3
   5  -2   2 176.053 89.5550   2
   5  -2   2 182.357 81.0815  11
  -5   2  -2 248.770 116.975  10
   5  -2   2 338.290 134.363   8
   5  -2   3 256.496 100.971   2
   5  -2   3 73.0510 96.0173   3
  -5   2  -3 113.973 93.1875  10
  -5   2  -3 176.806 35.6277   9
   5  -2   3 104.132 103.476   8
   5  -2   4 762.179 147.992   2
   5  -2   4 999.043 198.771   3
  -5   2  -4 814.848 156.149  11
  -5   2  -4 927.495 109.610   9
   5  -2   4 616.979 160.948   8
   5  -2   5 519.859 125.427   2
   5  -2   5 624.808 203.020   3
  -5   2  -5 581.144 150.789  11
   5  -2   5 753.449 198.307   8
   5  -2   6 165.595 87.6489   2
   5  -2   6 44.3703 137.119   3
  -5   2  -6-41.9499 87.9860  11
   5  -2   6 179.097 119.396   8
   5  -2   7 17122.1 870.083   3
  -5   2  -7 18124.9 789.955  11
   5  -2   7 17805.6 594.184   2
   5  -2   7 16897.4 894.009   8
   5  -2   8 16569.5 885.628   3
  -5   2  -8 17236.2 816.633  11
   5  -2   8 17136.0 583.248   2
  -5   2  -8 17060.4 591.934   2
   5  -2   8 16545.8 911.355   8
   5  -2   9 158.541 141.285   3
  -5   2  -9-46.1625 127.472  11
   5  -2   9 106.233 63.1898   2
   5  -2   9-8.86760 146.466   8
  -5   2 -10 569.518 244.554   6
   5  -2  10-75.1446 174.668   3
  -5   2 -10 232.098 159.079  11
   5  -2  10 103.701 66.5448   2
   5  -2  10 424.731 220.476   8
   5  -2  10 145.942 101.948   1
   5  -2  11 1259.37 298.629   3
  -5   2 -11 1204.16 313.938   6
   5  -2  11 1585.83 241.141   1
  -5   2 -11 1184.82 269.840  11
   5  -2  12 518.023 216.785   3
  -5   2 -12 930.077 293.451   6
  -5   2 -12 717.886 232.582  11
   5  -2  12 391.365 153.840   1
   5  -2  13 695.407 261.242   3
   5  -2  13 1249.66 240.801   1
  -5   2 -13 1231.97 341.460   6
  -5   2 -13 1296.96 344.614  11
   5  -2  14 7920.82 779.596   3
  -5   2 -14 7984.48 809.181   6
  -5   2 -14 8485.15 777.770  11
   5  -2  14 8377.29 613.676   1
   5  -2  15 288.466 229.738   3
  -5   2 -15 281.653 260.805   6
  -5   2 -15-69.2148 159.841  11
   5  -2  16 503.926 269.344   3
  -5   2 -16 345.865 287.873   6
  -5   2 -16 235.603 216.744  11
   5  -2  17 409.484 262.753   3
  -5   2 -17 948.486 399.341   6
  -5   2 -17 665.380 268.595  11
   5  -2  18 3515.85 591.716   3
  -5   2 -18 3364.11 602.098   6
  -5   2 -18 3448.23 594.901  11
   5  -1 -15 2103.53 468.905  11
  -5   1  14 295.790 235.306   1
   5  -1 -14-242.005 219.585  11
  -5   1  13 3120.37 584.123   1
   5  -1 -13 3580.66 563.539  11
  -5   1  13 3353.99 602.015  10
  -5   1  12 1949.55 431.340   1
   5  -1 -12 1441.20 365.186  11
  -5   1  12 985.499 347.041  10
  -5   1  11 2842.70 475.168   1
   5  -1 -11 3373.84 497.364  11
  -5   1  11 3924.58 568.245  10
  -5   1  10 476.484 255.496   1
   5  -1 -10 473.106 190.235  11
  -5   1  10 838.117 294.834  10
  -5   1   9 212.425 168.403   1
   5  -1  -9-93.1056 150.130  11
  -5   1   9 187.224 161.039  10
  -5   1   8 23.0000 145.761   1
   5  -1  -8 289.285 173.558  11
  -5   1   8 317.268 195.722  10
  -5   1   8 139.349 95.2591   5
   5  -1  -7 294.553 153.667   8
  -5   1   7 47.7698 153.194   1
  -5   1   7 235.715 197.856  10
  -5   1   7 191.697 101.593   5
   5  -1  -6 7048.71 203.904   3
  -5   1   6 7492.69 449.575   5
  -5   1   6 7099.93 634.842   1
  -5   1   6 7335.61 612.097  10
   5  -1  -6 6947.13 525.409   8
   5  -1  -5 16462.7 350.352   3
  -5   1   5 17248.5 645.532   5
  -5   1   5 16377.8 881.416  10
  -5   1   5 17591.8 956.495   1
   5  -1  -5 15933.4 776.047   8
  -5   1   4 4616.41 333.545   5
  -5   1   4 4042.11 454.930   1
  -5   1   4 3969.40 419.335  10
   5  -1  -4 4721.23 327.285   9
   5  -1  -4 4393.97 391.695   8
  -5   1   3 7765.25 434.272   5
  -5   1   3 7971.91 622.722   1
  -5   1   3 7904.71 566.282  10
   5  -1  -3 8058.51 368.689   9
   5  -1  -3 7183.76 491.320   8
   5  -1  -2 2097.35 262.021   8
  -5   1   2 1907.49 327.487   1
  -5   1   2 2053.02 238.424   5
  -5   1   2 1944.76 289.275  10
   5  -1  -2 2066.63 161.717   9
   5  -1  -1-33.2292 84.4219   8
  -5   1   1-70.3335 112.911   1
  -5   1   1 81.8709 92.4584   5
  -5   1   1 88.3727 109.288  10
   5  -1  -1 9.03729 35.3305   9
  -5   1   0 2150.33 154.136   7
  -5   1   0 2314.59 265.159   5
  -5   1   0 1887.66 258.981  10
   5  -1   0 2321.50 277.732   8
  -5   1   0 2124.23 340.321   1
  -5   1  -1 2511.34 201.258   7
   5  -1   1 2472.85 244.054   3
  -5   1  -1 2410.51 277.138   5
  -5   1  -1 2406.05 279.768  10
   5  -1   1 2787.39 300.456   2
   5  -1   1 2170.37 263.397   8
  -5   1  -2 888.168 147.260   7
   5  -1   2 848.011 185.075   2
   5  -1   2 797.023 153.214   3
  -5   1  -2 864.951 194.534  10
   5  -1   2 666.511 178.792   8
   5  -1   3 480.888 127.776   2
   5  -1   3 475.766 142.176   3
  -5   1  -3 540.133 169.914  10
   5  -1   3 478.019 162.752   8
   5  -1   4 2606.55 292.723   3
  -5   1  -4 2459.61 255.287  11
   5  -1   4 2680.14 266.030   2
   5  -1   4 2412.66 308.662   8
   5  -1   5 4309.41 388.904   3
  -5   1  -5 3832.24 342.887  11
   5  -1   5 4300.75 336.407   2
   5  -1   5 3884.53 375.555   8
   5  -1   6 7187.91 519.385   3
  -5   1  -6 7450.52 488.958  11
   5  -1   6 8010.14 441.275   2
   5  -1   6 7169.53 523.112   8
   5  -1   7 17652.1 846.480   3
  -5   1  -7 18553.9 809.574  11
   5  -1   7 18174.3 672.609   2
   5  -1   7 19097.9 897.941   8
   5  -1   8 864.059 218.899   3
  -5   1  -8 897.380 208.896  11
   5  -1   8 953.187 162.870   2
   5  -1   8 1091.14 268.887   8
  -5   1  -9 107.611 115.621  11
   5  -1   9-127.096 122.148   3
   5  -1   9 21.6421 66.1951   2
   5  -1   9-119.561 153.345   8
   5  -1  10 1307.17 269.385   3
  -5   1 -10 1556.52 306.866  11
   5  -1  10 1240.76 194.566   2
   5  -1  11 427.794 161.209   3
  -5   1 -11 284.344 228.368   6
  -5   1 -11 405.231 181.734  11
   5  -1  11-45.2034 95.9131   1
   5  -1  11 96.6958 80.5010   2
   5  -1  12 1693.92 351.041   3
  -5   1 -12 1497.06 323.463  11
   5  -1  12 1873.30 286.499   1
  -5   1 -12 1838.84 400.826   6
   5  -1  13 5679.46 615.742   3
  -5   1 -13 6530.24 686.414   6
  -5   1 -13 6280.50 649.494  11
   5  -1  13 6406.88 537.806   1
   5  -1  14 3988.21 554.363   3
  -5   1 -14 3973.82 570.803   6
  -5   1 -14 4002.58 533.299  11
   5  -1  14 3230.44 431.249   1
   5  -1  15 68.1872 140.836   1
   5  -1  15 257.191 219.719   3
  -5   1 -15 188.143 243.111   6
  -5   1 -15 506.271 286.342  11
   5  -1  16-2.92279 198.668   3
  -5   1 -16 309.689 225.969   6
  -5   1 -16 17.1392 164.243  11
   5  -1  16-61.4841 113.103   1
   5  -1  17 3223.53 550.637   3
  -5   1 -17 4041.84 642.389   6
  -5   1 -17 4244.06 618.817  11
   5  -1  18 186.951 208.174   3
  -5   1 -18 335.308 305.039   6
  -5   1 -18 345.727 283.700  11
   5   0 -15 2326.48 488.202  11
  -5   0  14 1111.76 411.256   1
   5   0 -14 1427.64 409.647  11
  -5   0  14 777.091 328.203  10
  -5   0  13 1477.91 430.620   1
   5   0 -13 1290.29 374.341  11
  -5   0  13 1084.39 384.549  10
  -5   0  12 2754.36 511.433   1
   5   0 -12 2757.24 479.942  11
  -5   0  12 2038.74 484.152  10
  -5   0  11 652.919 257.535   1
   5   0 -11 796.846 261.546  11
  -5   0  11 242.890 193.722  10
  -5   0  10 1596.39 390.199   1
   5   0 -10 1400.09 345.937  11
  -5   0  10 1284.64 364.699  10
  -5   0   9 276.001 218.083   1
   5   0  -9 57.9963 155.464  11
  -5   0   9 613.872 271.699  10
  -5   0   8 1532.12 344.066   1
  -5   0   8 1205.08 342.115  10
  -5   0   7 2638.24 421.669   1
  -5   0   7 2823.52 410.367  10
   5   0  -6 12710.8 460.577   3
  -5   0   6 11864.1 825.049   1
  -5   0   6 11268.1 794.367  10
  -5   0   6 11945.4 461.880   5
   5   0  -6 11259.7 632.151   8
   5   0  -5 10871.5 419.634   3
  -5   0   5 10417.1 428.871   5
  -5   0   5 10217.4 753.357   1
  -5   0   5 9387.22 689.283  10
   5   0  -5 9749.61 567.066   8
  -5   0   4 4672.96 283.475   5
  -5   0   4 4701.43 493.559   1
  -5   0   4 4037.53 435.048  10
   5   0  -4 4416.29 375.835   8
  -5   0   3 11295.3 443.593   5
  -5   0   3 11611.2 758.184   1
  -5   0   3 11251.2 684.568  10
   5   0  -3 11980.5 505.331   9
   5   0  -3 11174.2 552.984   8
  -5   0   2 10736.5 445.032   5
  -5   0   2 9778.63 632.614  10
  -5   0   2 10017.4 700.652   1
   5   0  -2 9905.87 427.021   9
   5   0  -2 9843.38 521.266   8
  -5   0   1 6901.30 373.294   5
  -5   0   1 5822.89 484.412  10
  -5   0   1 7231.38 581.645   1
   5   0  -1 6667.78 310.108   9
   5   0  -1 6171.23 398.616   8
   5   0   0 173.071 97.7295   8
   5   0   0 207.863 134.816   2
  -5   0   0 55.0181 68.2207   5
  -5   0   0-76.2818 135.767  10
   5   0   1 269.255 120.651   2
  -5   0  -1 144.173 151.730  10
  -5   0  -1 311.921 60.7254   9
   5   0   1 108.074 73.9949   8
  -5   0  -2 22178.6 883.243  10
   5   0   2 23348.8 850.535   2
  -5   0  -2 23517.7 482.342   9
   5   0   2 21589.3 752.208   8
   5   0   3 888.735 179.866   2
  -5   0  -3 662.059 189.989  10
  -5   0  -3 787.228 105.500   9
   5   0   3 798.996 165.237   8
   5   0   4 1865.84 238.226   2
  -5   0  -4 1683.42 231.630  11
   5   0   4 1742.21 248.239   8
   5   0   5 565.339 154.602   2
   5   0   5 875.261 182.589   3
  -5   0  -5 494.995 143.964  11
   5   0   5 772.106 183.933   8
   5   0   6 8530.78 561.237   3
  -5   0  -6 9961.58 583.705  11
   5   0   6 9715.50 531.485   2
   5   0   6 9305.22 575.001   8
   5   0   7 524.705 181.619   3
  -5   0  -7 450.759 172.559  11
   5   0   7 218.219 162.056   8
   5   0   7 409.927 137.541   2
   5   0   8 1100.96 251.299   3
  -5   0  -8 1070.56 229.090  11
   5   0   8 1327.47 272.077   8
   5   0   8 1306.36 204.507   2
   5   0   9 26.0213 114.722   3
  -5   0  -9 441.839 183.799  11
   5   0   9 198.820 125.039   2
   5   0  10 1912.36 328.016   3
  -5   0 -10 2050.85 335.111  11
   5   0  10 2054.56 264.040   2
   5   0  11 907.368 258.549   3
  -5   0 -11 781.771 231.427  11
   5   0  11 949.100 215.767   2
  -5   0 -12 2535.07 393.146  11
   5   0  12 3036.97 442.128   3
   5   0  12 2982.55 331.620   2
   5   0  12 2407.17 376.917   1
   5   0  13 868.166 275.854   3
  -5   0 -13 821.565 289.831   6
  -5   0 -13 712.511 237.476  11
   5   0  13 327.240 169.159   1
   5   0  14 609.639 264.151   3
  -5   0 -14 1006.00 321.586   6
  -5   0 -14 835.312 288.490  11
   5   0  14 523.543 152.506   1
   5   0  15-80.9686 204.231   3
  -5   0 -15 70.7642 152.248   6
  -5   0 -15 84.9377 184.460  11
   5   0  15 133.316 137.121   1
   5   0  16 4883.45 617.026   3
  -5   0 -16 5452.65 678.066   6
  -5   0 -16 6072.63 700.770  11
   5   0  16 4790.63 534.661   1
  -5   0 -17-252.148 236.093  11
   5   0  17 325.011 236.443   3
  -5   0 -17 332.424 249.530   6
   5   0  17-216.036 201.906   1
   5   0  18 77.5007 195.838   3
  -5   0 -18 66.7573 178.925   6
  -5   0 -18-124.263 209.906  11
   5   0  18 61.2542 194.995   1
   5   0  19 1405.80 388.985   3
  -5   0 -19 733.114 343.409   6
  -5   0 -19 1147.00 313.143  11
  -5  -1  14-21.8640 195.782   1
   5   1 -14 196.379 221.915  11
  -5  -1  14 180.187 258.116  10
  -5  -1  13 1988.77 467.840   1
   5   1 -13 2396.02 490.463  11
  -5  -1  13 2355.84 488.135  10
  -5  -1  12 271.734 200.344   1
   5   1 -12-124.092 161.141  11
  -5  -1  12 341.293 228.304  10
   5   1 -11 4262.75 564.386  11
  -5  -1  11 3901.23 600.823   1
  -5  -1  11 4262.55 588.854  10
  -5  -1  10 1053.37 342.680   1
   5   1 -10 143.256 150.247  11
  -5  -1  10 727.762 279.128  10
  -5  -1   9 262.040 174.316   1
  -5  -1   9 23.7941 168.091  10
  -5  -1   8-79.2130 146.055   1
  -5  -1   8 33.6494 174.805  10
  -5  -1   7 3848.01 522.230   1
  -5  -1   7 3957.08 494.607  10
  -5  -1   6 8388.03 711.426   1
  -5  -1   6 7226.99 618.920  10
   5   1  -6 7865.14 501.732   8
   5   1  -5 2471.97 251.164   3
  -5  -1   5 2140.65 366.544   1
  -5  -1   5 2216.16 350.784  10
   5   1  -5 2262.46 264.873   8
  -5  -1   4 14059.6 876.556   1
  -5  -1   4 12255.8 754.676  10
  -5  -1   4 12816.8 343.859   5
   5   1  -4 12576.0 566.482   8
  -5  -1   3 16879.1 932.116   1
  -5  -1   3 15576.1 402.857   5
  -5  -1   3 14959.4 821.242  10
   5   1  -3 15290.4 609.003   8
  -5  -1   2 4621.45 500.705   1
  -5  -1   2 5011.64 248.097   5
  -5  -1   2 4489.18 431.334  10
   5   1  -2 4443.46 430.460   2
   5   1  -2 4011.41 300.977   8
  -5  -1   1 16361.0 354.084   7
  -5  -1   1 16099.3 805.448  10
   5   1  -1 16475.3 794.080   2
   5   1  -1 17389.1 593.239   9
   5   1  -1 16430.6 579.193   8
  -5  -1   1 17360.4 508.599   5
  -5  -1   0 1980.50 151.287   7
   5   1   0 1485.66 256.606   2
  -5  -1   0 1944.93 292.140  10
  -5  -1   0 1859.32 184.054   9
   5   1   0 1837.07 194.647   9
   5   1   0 1857.69 197.705   8
  -5  -1   0 1753.63 200.204   8
  -5  -1  -1 1209.80 168.928   8
   5   1   1 920.404 203.371   2
  -5  -1  -1 1156.24 230.247  10
  -5  -1  -1 1408.94 160.693   9
   5   1   1 1479.47 185.199   8
  -5  -1  -2 554.608 128.156   8
   5   1   2 494.336 160.928   2
  -5  -1  -2 625.015 172.783  10
  -5  -1  -2 492.975 110.622   9
   5   1   2 431.677 115.972   8
  -5  -1  -3 4969.04 433.476  10
   5   1   3 5393.78 426.820   2
  -5  -1  -3 5234.29 305.423   9
   5   1   3 4992.51 348.042   8
   5   1   4 23211.9 852.535   2
   5   1   4 22566.8 781.653   8
  -5  -1  -5 7819.59 513.427  11
   5   1   5 8198.37 504.523   2
   5   1   5 8109.21 503.111   8
  -5  -1  -6 6733.24 500.910  11
   5   1   6 7153.54 488.465   2
   5   1   6 5854.87 455.626   8
  -5  -1  -7 39.1804 120.744  11
   5   1   7 226.619 116.666   2
   5   1   8 505.914 187.364   3
  -5  -1  -8 837.063 216.326  11
   5   1   8 742.759 178.972   2
   5   1   9 897.026 219.148   3
  -5  -1  -9 1331.38 287.717  11
   5   1   9 1400.53 236.419   2
   5   1  10 4332.87 479.244   3
  -5  -1 -10 4381.78 482.085  11
   5   1  10 3870.05 386.165   2
   5   1  11 259.933 181.491   3
  -5  -1 -11-22.2615 143.017  11
   5   1  11-103.753 130.607   2
   5   1  12 974.059 262.906   3
  -5  -1 -12 1322.52 306.226  11
   5   1  12 1471.69 268.632   2
  -5  -1 -13 1229.01 316.287  11
   5   1  13 636.129 203.929   1
   5   1  13 564.787 225.050   3
   5   1  13 1082.32 237.304   2
   5   1  14 765.018 234.198   1
   5   1  14 833.314 258.820   3
  -5  -1 -14 836.643 274.665  11
  -5  -1 -15 4080.11 567.122   6
   5   1  15 2551.95 452.083   3
  -5  -1 -15 2476.49 432.753  11
   5   1  15 3328.35 461.877   1
   5   1  16 2025.87 404.771   3
   5   1  16 1889.83 382.938   1
  -5  -1 -16 2386.33 456.848   6
  -5  -1 -16 2246.67 425.878  11
   5   1  17 77.3764 157.775   1
   5   1  17 279.355 207.472   3
  -5  -1 -17 356.049 238.577   6
  -5  -1 -17 627.431 285.966  11
   5   1  18 301.782 215.122   3
  -5  -1 -18 792.160 307.870   6
  -5  -1 -18 418.606 246.573  11
   5   1  18 675.912 255.511   1
   5   1  19 620.248 327.814   3
  -5  -1 -19 180.486 247.758   6
  -5  -1 -19 565.411 316.745  11
   5   1  19 347.118 195.632   1
  -5  -1 -20 1260.27 415.350   6
   5   1  20 593.190 328.974   1
  -5  -2  14 2369.06 557.645   1
  -5  -2  13 2321.70 498.099   1
   5   2 -13 2883.90 517.958  11
  -5  -2  13 2812.26 609.969  10
  -5  -2  12 208.924 212.288   1
   5   2 -12 591.260 258.704  11
  -5  -2  12 579.017 280.274  10
  -5  -2  11 835.167 318.555   1
   5   2 -11 1127.86 344.285  11
  -5  -2  10 117.573 213.068   1
   5   2 -10 39.5225 150.427  11
  -5  -2  10 166.397 245.530  10
  -5  -2   9 231.054 187.468   1
  -5  -2   9 222.777 210.104  10
  -5  -2   8 71.8991 181.214   1
  -5  -2   8 175.200 185.409  10
  -5  -2   7 2392.76 424.130   1
  -5  -2   7 2857.98 445.123  10
  -5  -2   6 1467.55 373.655   1
  -5  -2   6 1232.83 307.012  10
  -5  -2   5 7293.20 701.217   1
  -5  -2   5 6837.64 609.549  10
   5   2  -5 7519.82 428.634   8
   5   2  -4 1059.75 155.115   8
  -5  -2   4 801.320 243.265   1
   5   2  -4 703.313 228.817   2
  -5  -2   4 780.419 225.874  10
  -5  -2   3 3320.36 439.178   1
  -5  -2   3 2935.44 191.304   7
  -5  -2   3 2365.44 343.765  10
   5   2  -3 3010.38 380.732   2
   5   2  -3 2818.49 228.087   8
  -5  -2   2 3461.26 208.466   7
   5   2  -2 2759.63 340.842   2
  -5  -2   2 3056.52 442.740   1
  -5  -2   2 2918.97 372.018  10
   5   2  -2 3079.34 227.033   8
  -5  -2   1 6685.01 299.747   7
  -5  -2   1 6385.41 250.140   5
  -5  -2   1 6138.01 507.759  10
   5   2  -1 6228.03 499.174   2
  -5  -2   1 6065.66 404.804   9
   5   2  -1 6553.41 313.146   8
  -5  -2   0 60.1449 51.4595   7
   5   2   0 64.5288 115.542   2
  -5  -2   0 206.357 137.248  10
  -5  -2   0 53.2227 82.8085   9
   5   2   0 170.866 76.1684   8
  -5  -2  -1 383.923 81.7430   8
   5   2   1 313.850 145.409   2
  -5  -2  -1 285.212 91.3011   7
  -5  -2  -1 219.248 136.192  10
  -5  -2  -1 240.692 104.654   9
   5   2   1 284.228 90.0225   8
   5   2   2 1458.57 238.269   2
  -5  -2  -2 1331.26 246.753  10
  -5  -2  -2 1544.52 199.942   9
  -5  -2  -2 1701.38 185.236   8
   5   2   2 1544.25 172.265   8
  -5  -2  -3 9076.59 587.561  10
   5   2   3 8529.65 555.865   2
  -5  -2  -3 8501.97 433.448   9
   5   2   3 8053.63 414.409   8
  -5  -2  -3 8841.62 425.584   8
   5   2   4-89.4626 144.976   2
  -5  -2  -4 30.5601 123.315  10
  -5  -2  -4 49.4185 103.298   9
   5   2   4-54.2516 86.8234   8
  -5  -2  -5 10127.4 603.064  11
   5   2   5 10335.5 610.010   2
  -5  -2  -6 21636.8 909.325  11
   5   2   6 22281.0 885.103   2
  -5  -2  -7 10173.6 653.167  11
   5   2   7 10057.2 616.365   2
  -5  -2  -8 1456.67 268.133  11
   5   2   8 1786.45 268.880   2
  -5  -2  -9 5113.84 504.669  11
   5   2   9 5544.61 475.606   2
  -5  -2 -10 4745.88 506.673  11
   5   2  10 5073.86 461.678   2
   5   2  11 982.977 271.824   3
  -5  -2 -11 646.197 223.557  11
   5   2  11 785.457 237.040   2
   5   2  12 210.927 180.386   3
  -5  -2 -12 209.274 153.321  11
   5   2  12 532.060 212.475   2
   5   2  13 714.577 253.636   3
   5   2  13 663.147 247.347   1
  -5  -2 -13 911.667 296.314  11
   5   2  13 840.338 256.646   2
   5   2  14 2094.18 395.223   3
  -5  -2 -14 2407.49 429.556  11
   5   2  14 2752.24 416.285   2
   5   2  14 2705.15 412.117   1
   5   2  15 41.4027 144.125   1
   5   2  15 222.944 211.539   3
  -5  -2 -15 568.426 306.267  11
  -5  -2 -16 796.194 313.151  11
   5   2  16 658.972 273.373   3
   5   2  16 648.180 258.488   1
   5   2  17 44.0666 181.383   3
   5   2  17 19.5396 157.674   1
  -5  -2 -17 470.204 267.094  11
   5   2  18 288.976 184.021   1
   5   2  18 490.249 315.225   3
  -5  -2 -18 382.029 241.728  11
   5   2  19 244.568 201.789   3
  -5  -2 -19 448.222 278.463  11
   5   2  19 705.392 280.077   1
   5   2  20 135.855 229.132   3
   5   2  20 398.265 194.844   1
   5   2  21-157.588 262.755   1
  -5  -3  14 3412.93 668.486   1
  -5  -3  13 251.426 253.990   1
  -5  -3  13 197.935 228.519  10
  -5  -3  12 1145.85 417.132   1
   5   3 -12 1082.57 338.951  11
  -5  -3  12 962.052 287.359  10
  -5  -3  11 1236.23 368.758   1
   5   3 -11 952.554 300.721  11
  -5  -3  11 587.866 254.061  10
  -5  -3  10 1921.48 416.576   1
   5   3 -10 1907.82 409.777  11
  -5  -3  10 1461.39 393.641  10
  -5  -3   9 147.519 163.888   1
  -5  -3   9-1.83073 204.090  10
  -5  -3   8 3378.25 524.114   1
  -5  -3   8 2780.55 475.254  10
  -5  -3   7 3702.80 515.212   1
  -5  -3   7 3546.72 480.601  10
   5   3  -7 3821.20 499.045   2
  -5  -3   6 257.765 180.910   1
   5   3  -6 44.9913 168.491   2
  -5  -3   6-144.736 179.071  10
  -5  -3   5 158.823 137.299   1
   5   3  -5-66.4403 81.2907   8
   5   3  -5 74.6080 136.809   2
  -5  -3   5-67.6395 153.119  10
  -5  -3   4 4171.35 296.392   7
   5   3  -4 4246.97 306.080   7
  -5  -3   4 3699.45 531.728   1
  -5  -3   4 3994.31 469.012  10
   5   3  -4 3749.80 433.511   2
   5   3  -4 4397.96 268.193   8
  -5  -3   3 1420.01 178.042   7
   5   3  -3 1031.10 240.323   2
  -5  -3   3 1457.05 288.518  10
   5   3  -3 1084.84 124.039   8
  -5  -3   2 5381.15 328.961   7
  -5  -3   2 4151.39 452.420  10
   5   3  -2 4963.86 475.397   2
  -5  -3   2 4815.60 407.459   9
   5   3  -2 4676.93 220.837   8
  -5  -3   1 787.222 140.244   7
   5   3  -1 680.077 202.051   2
  -5  -3   1 401.580 147.719  10
  -5  -3   1 711.387 170.305   9
   5   3  -1 630.539 79.0434   8
  -5  -3   0 4285.28 299.520   7
  -5  -3   0 3468.21 393.450  10
  -5  -3   0 4009.90 207.507   5
   5   3   0 3911.79 406.901   2
  -5  -3   0 3717.44 337.100   9
   5   3   0 3890.80 190.936   8
  -5  -3  -1 12769.9 540.450   7
  -5  -3  -1 12356.0 705.160  10
  -5  -3  -1 13031.5 438.389   5
   5   3   1 13076.3 723.928   2
  -5  -3  -1 12917.2 609.291   9
   5   3   1 12530.4 380.762   8
  -5  -3  -1 13686.8 390.749   8
  -5  -3  -2 549.327 94.1969   8
   5   3   2 398.762 180.570   2
  -5  -3  -2 668.834 158.281   7
  -5  -3  -2 406.632 192.267  10
  -5  -3  -2 315.538 121.373   9
  -5  -3  -3 6449.17 519.626  10
   5   3   3 6531.16 512.873   2
  -5  -3  -3 7578.31 461.513   9
  -5  -3  -3 7760.42 362.879   8
  -5  -3  -4 5023.42 483.924  10
   5   3   4 5008.13 449.206   2
  -5  -3  -4 5370.71 396.867   9
  -5  -3  -4 5544.23 338.626   8
   5   3   5 4991.42 439.215   2
  -5  -3  -6 8055.96 583.400  11
   5   3   6 8694.51 587.016   2
  -5  -3  -7 83.7061 134.953  11
   5   3   7 143.689 153.934   2
  -5  -3  -8 3471.70 407.338  11
   5   3   8 3745.27 410.128   2
  -5  -3  -9 1291.71 309.395  11
   5   3   9 613.943 181.093   2
  -5  -3 -10 423.134 168.270  11
   5   3  10 162.687 114.128   2
  -5  -3 -11 1497.50 322.552  11
   5   3  11 1495.05 286.319   2
  -5  -3 -12 7971.02 694.782  11
   5   3  12 7785.37 644.070   2
   5   3  13 2540.18 419.208   1
   5   3  13 2407.96 395.317   3
  -5  -3 -13 2367.15 444.708  11
   5   3  13 2981.14 413.231   2
  -5  -3 -14 3987.18 574.687  11
   5   3  14 3699.52 489.355   1
   5   3  14 2420.39 412.410   3
   5   3  14 3264.30 477.013   2
   5   3  15-16.7064 163.138   3
   5   3  15 20.4320 163.046   1
   5   3  16 177.924 188.580   3
  -5  -3 -16-196.639 217.763  11
   5   3  16 98.0356 172.043   1
   5   3  17 341.702 223.241   3
  -5  -3 -17 259.820 251.840  11
   5   3  17-50.1167 153.972   1
   5   3  18 2226.31 461.434   1
   5   3  18 2115.28 435.652   3
  -5  -3 -18 1773.39 392.511  11
   5   3  19 738.786 309.056   1
   5   3  19 221.687 173.987   3
  -5  -3 -19 129.492 251.001  11
   5   3  20-50.2889 225.906   3
   5   3  20 199.521 244.751   1
  -5  -4  14-188.226 248.068   1
  -5  -4  13 451.175 306.990   1
   5   4 -13 666.949 263.657   2
  -5  -4  13 657.926 346.850  10
  -5  -4  12 413.232 243.331   1
   5   4 -12 573.352 300.527  11
   5   4 -12 143.567 209.056   2
  -5  -4  12 116.248 222.804  10
  -5  -4  11 452.160 291.195   1
   5   4 -11 450.616 269.594  11
   5   4 -11 629.617 303.909   2
  -5  -4  11 171.021 190.630  10
  -5  -4  10 380.892 208.237   1
   5   4 -10 192.482 177.517   2
  -5  -4  10 299.250 183.804  10
  -5  -4   9 7278.03 766.112   1
  -5  -4   9 6587.58 713.931  10
   5   4  -9 7226.76 705.912   2
  -5  -4   8 8305.64 798.384   1
  -5  -4   8 7573.80 733.921  10
   5   4  -8 8646.21 744.812   2
  -5  -4   7 580.684 253.276   1
   5   4  -7 597.559 230.466   2
  -5  -4   7 982.618 291.835  10
   5   4  -6 33.8060 118.447   2
  -5  -4   6-33.9485 145.747  10
  -5  -4   6 2.10134 143.446   1
  -5  -4   5 8529.03 515.276   7
  -5  -4   5 6749.55 821.706   1
  -5  -4   5 8602.85 703.518  10
   5   4  -5 8040.13 672.963   2
  -5  -4   4 4356.89 357.656   7
  -5  -4   4 3921.89 464.019  10
   5   4  -4 3788.99 450.673   2
  -5  -4   3 5300.35 386.429   7
  -5  -4   3 4790.55 485.448  10
   5   4  -3 4531.79 488.137   2
  -5  -4   3 4602.24 457.611   9
  -5  -4   2 618.199 133.991   7
   5   4  -2 730.151 195.482   2
  -5  -4   2 648.764 206.585  10
  -5  -4   2 783.281 205.064   9
  -5  -4   1 16237.6 658.998   7
  -5  -4   1 15837.3 837.829  10
   5   4  -1 15948.7 855.057   2
  -5  -4   1 15052.4 756.633   9
   5   4   0 1365.84 253.340   2
  -5  -4   0 1443.33 210.244   7
  -5  -4   0 1578.27 129.405   5
  -5  -4   0 1773.60 284.000  10
  -5  -4   0 1378.09 232.843   9
  -5  -4  -1 11988.7 588.070   7
  -5  -4  -1 11476.2 710.594  10
  -5  -4  -1 12486.3 432.606   5
   5   4   1 10475.9 672.527   2
  -5  -4  -1 11644.2 636.214   9
  -5  -4  -2 5460.26 400.230   7
  -5  -4  -2 4186.30 474.542  10
  -5  -4  -2 5519.55 327.084   5
   5   4   2 4853.37 447.512   2
  -5  -4  -2 4960.30 424.092   9
  -5  -4  -2 5185.24 218.859   8
   5   4   3 2335.29 342.735   2
  -5  -4  -3 2458.77 290.007   7
  -5  -4  -3 2782.58 349.048  10
  -5  -4  -3 2457.55 310.466   9
  -5  -4  -3 2733.31 192.514   8
  -5  -4  -4 4196.14 440.279  10
   5   4   4 3829.18 431.546   2
  -5  -4  -4 3812.61 367.096   9
  -5  -4  -4 4492.46 288.355   8
   5   4   5 920.283 226.713   2
  -5  -4  -5 1044.63 211.395   9
  -5  -4  -5 990.895 151.528   8
  -5  -4  -6-7.36019 163.592  11
   5   4   6 206.492 135.021   2
  -5  -4  -7 2075.84 346.555  11
   5   4   7 1800.49 302.072   2
  -5  -4  -8 8959.41 660.438  11
   5   4   8 8889.24 639.563   2
  -5  -4  -9 3235.08 425.125  11
   5   4   9 3204.49 409.980   2
  -5  -4 -10 5387.12 559.484  11
   5   4  10 5490.88 544.904   2
  -5  -4 -11 3099.62 468.059  11
   5   4  11 2646.47 385.030   2
  -5  -4 -12 7591.40 691.154  11
   5   4  12 7594.05 649.049   2
  -5  -4 -13 2786.98 467.346  11
   5   4  13 2096.46 398.758   2
   5   4  14 3971.33 521.058   3
  -5  -4 -14 5976.94 680.872  11
   5   4  14 4173.37 519.790   2
   5   4  14 4032.43 554.918   1
  -5  -4 -15 1233.70 372.544  11
   5   4  15 724.467 266.028   3
   5   4  15 1558.99 346.593   2
   5   4  15 443.046 220.473   1
   5   4  16 483.750 232.472   1
   5   4  16 517.331 246.279   3
  -5  -4 -16 964.479 351.577  11
  -5  -4 -17 2108.07 494.193  11
   5   4  17 2067.45 418.238   3
   5   4  17 1306.58 373.606   1
   5   4  18 4731.25 637.970   3
   5   4  18 4102.71 602.987   1
  -5  -4 -18 4288.20 654.804  11
   5   4  19-85.3129 230.223   1
   5   4  19 195.457 215.015   3
  -5  -4 -19 643.146 371.058  11
   5   4  20 1195.55 368.536   1
   5   4  20 526.597 221.748   3
  -5  -5  13 33.6476 220.454   1
  -5  -5  12 57.6685 258.879   1
   5   5 -12-8.38299 167.977   2
  -5  -5  12-346.598 281.878  10
  -5  -5  11 895.096 374.064   1
   5   5 -11 1116.39 333.227   2
   5   5 -11 2055.17 472.392  11
  -5  -5  11 731.282 328.369  10
   5   5 -10-437.454 307.644   4
   5   5 -10 139.378 152.563   2
  -5  -5  10 25.2543 185.406  10
  -5  -5  10 327.838 272.643   1
   5   5  -9 2371.94 406.211   4
   5   5  -9 2941.28 466.895   2
  -5  -5   9 2557.89 505.955  10
  -5  -5   9 1983.27 486.945   1
   5   5  -8 56.2131 159.242   4
   5   5  -8 175.252 167.403   2
  -5  -5   8 144.485 172.827  10
  -5  -5   8 544.510 262.640   1
   5   5  -7 814.163 284.648   4
   5   5  -7 484.480 227.282   2
  -5  -5   7 366.443 223.140  10
   5   5  -6 358.472 206.487   4
   5   5  -6 583.373 242.286   2
  -5  -5   6 649.887 268.960  10
   5   5  -5 651.462 258.306   4
  -5  -5   5 726.679 187.819   7
   5   5  -5 529.925 197.656   2
  -5  -5   5 486.281 207.212  10
   5   5  -4 99.8882 143.557   4
  -5  -5   4 365.208 130.742   7
   5   5  -4-35.5717 171.145   2
  -5  -5   4 61.2579 146.312  10
   5   5  -3 354.550 207.898   4
  -5  -5   3 204.374 124.522   7
   5   5  -3 189.011 179.242   2
  -5  -5   3 11.7682 136.190  10
  -5  -5   3 134.153 125.712   9
  -5  -5   2 6811.42 485.516   7
  -5  -5   2 7657.28 637.221  10
   5   5  -2 6449.27 566.193   2
  -5  -5   2 6478.24 561.486   9
   5   5  -2 6313.76 598.188   4
   5   5  -1 523.475 235.364   4
  -5  -5   1 831.656 184.780   7
   5   5  -1 898.977 219.001   2
  -5  -5   1 714.217 206.149  10
  -5  -5   1 591.339 206.411   9
  -5  -5   0 5106.44 421.713   7
  -5  -5   0 5349.72 257.497   5
  -5  -5   0 5559.55 508.267  10
   5   5   0 5360.63 509.799   2
  -5  -5   0 4827.85 469.320   9
  -5  -5  -1 21171.6 852.057   7
  -5  -5  -1 22619.4 621.571   5
  -5  -5  -1 22110.9 987.698  10
   5   5   1 20514.6 988.685   2
  -5  -5  -1 21389.5 934.147   9
  -5  -5  -2 3472.29 362.369   7
  -5  -5  -2 3895.14 291.789   5
  -5  -5  -2 4005.94 428.511  10
   5   5   2 3486.42 419.111   2
  -5  -5  -2 4176.72 440.619   9
   5   5   3 2142.47 335.153   2
  -5  -5  -3 2370.04 300.628   7
  -5  -5  -3 1966.59 326.827  10
  -5  -5  -3 3170.43 382.882   9
  -5  -5  -3 2628.38 163.981   8
   5   5   4 1218.67 260.952   2
  -5  -5  -4 1319.18 241.796   7
  -5  -5  -4 977.641 251.646  10
  -5  -5  -4 1237.47 249.097   9
  -5  -5  -4 1493.61 156.082   8
   5   5   5 1633.70 288.222   2
  -5  -5  -5 1787.94 322.883  10
  -5  -5  -5 1950.23 290.215   9
  -5  -5  -5 2061.50 213.387   8
  -5  -5  -6 670.037 210.555   9
   5   5   6 517.930 165.196   2
  -5  -5  -7 3438.21 410.173  11
   5   5   7 3676.64 437.544   2
  -5  -5  -8 225.876 153.628  11
   5   5   8 1000.50 278.211   2
  -5  -5  -9 164.070 169.983  11
   5   5   9 727.327 219.692   2
  -5  -5 -10 1764.15 417.461  11
   5   5  10 738.630 216.009   2
  -5  -5 -11 4348.63 539.454  11
   5   5  11 4479.28 518.799   2
  -5  -5 -12 1441.74 423.998  11
   5   5  12 274.832 185.612   2
  -5  -5 -13 3518.85 541.072  11
   5   5  13 2519.69 450.913   2
  -5  -5 -14 4922.30 629.885  11
   5   5  14 3660.83 542.872   2
   5   5  14 4429.80 584.560   1
   5   5  15 240.908 184.575   2
   5   5  15-25.9565 203.140   1
   5   5  16 122.573 211.138   1
   5   5  16-4.21987 176.764   3
  -5  -5 -16 312.286 257.064  11
   5   5  17 75.1555 191.732   3
   5   5  17 575.222 272.665   1
   5   5  18 144.702 190.463   3
   5   5  18 162.267 211.041   1
   5   5  19 540.094 277.931   1
   5   5  19 188.986 195.584   3
   5   5  20 869.226 297.149   3
  -5  -6  12 1108.18 453.968  10
   5   6 -11 429.645 160.142   4
  -5  -6  11 592.129 357.679  10
   5   6 -10 517.566 236.489   4
   5   6 -10 1134.53 305.871   2
  -5  -6  10 743.089 287.064  10
   5   6  -9 153.791 206.253   4
   5   6  -9 406.811 234.967   2
  -5  -6   9 283.566 234.490  10
   5   6  -8 8.86581 127.415   2
  -5  -6   8 132.235 204.238  10
   5   6  -7 791.474 303.360   4
   5   6  -7 735.465 263.610   2
  -5  -6   7 729.184 249.560  10
   5   6  -6 322.713 212.049   4
  -5  -6   6 106.761 130.565   7
   5   6  -6-122.597 140.338   2
  -5  -6   6-67.5320 153.869  10
   5   6  -5 2941.97 461.817   4
  -5  -6   5 2528.28 353.701   7
   5   6  -5 2313.36 379.685   2
  -5  -6   5 2697.83 427.286  10
   5   6  -4 483.269 195.144   4
  -5  -6   4 563.041 199.584   7
   5   6  -4 364.317 216.014   2
  -5  -6   4 77.5855 149.124  10
   5   6  -3 949.271 289.294   4
  -5  -6   3 880.062 206.839   7
   5   6  -3 417.525 191.768   2
  -5  -6   3 882.038 262.011  10
  -5  -6   3 810.901 253.919   9
   5   6  -2 97.6381 146.385   4
  -5  -6   2 166.370 113.908   7
   5   6  -2 133.933 133.895   2
  -5  -6   2-100.449 135.002  10
  -5  -6   2 80.1530 148.152   9
   5   6  -1 2353.50 398.109   4
  -5  -6   1 2452.49 340.742   7
   5   6  -1 2345.88 375.201   2
  -5  -6   1 2579.13 379.790  10
  -5  -6   1 2469.29 371.507   9
  -5  -6   0 7223.97 558.491   7
  -5  -6   0 7182.42 339.636   5
  -5  -6   0 6434.43 585.847  10
   5   6   0 6284.70 574.948   2
  -5  -6   0 5991.81 550.958   9
   5   6   0 7360.74 648.382   4
  -5  -6  -1 8570.66 590.768   7
  -5  -6  -1 7694.31 625.651  10
   5   6   1 8723.27 668.159   2
  -5  -6  -1 7832.45 614.440   9
   5   6   1 8753.58 704.796   4
  -5  -6  -1 9021.14 425.215   5
   5   6   2 165.285 158.458   4
   5   6   2 230.735 173.491   2
  -5  -6  -2 305.170 159.775   7
  -5  -6  -2 174.360 117.027  10
  -5  -6  -2 258.318 206.334   9
  -5  -6  -3 13486.0 759.947   7
  -5  -6  -3 12722.9 795.688  10
   5   6   3 13783.0 844.221   2
  -5  -6  -3 14012.6 819.736   9
  -5  -6  -3 13375.6 306.137   8
  -5  -6  -4 5844.47 508.421   7
  -5  -6  -4 5683.91 549.495  10
   5   6   4 6455.96 582.616   2
  -5  -6  -4 6436.50 552.496   9
  -5  -6  -4 6738.36 307.775   8
   5   6   5-41.9549 161.735   2
  -5  -6  -5 26.6800 110.559   7
  -5  -6  -5 57.7749 118.336  10
  -5  -6  -5-21.5789 133.391   9
  -5  -6  -5-10.2825 61.0298   8
  -5  -6  -6 6004.00 529.855   7
   5   6   6 5891.37 565.750   2
  -5  -6  -6 5818.76 535.811   9
  -5  -6  -7 747.862 232.549   9
   5   6   7 688.677 232.697   2
  -5  -6  -8 4288.80 484.120  11
   5   6   8 5328.71 559.133   2
  -5  -6  -9-85.6893 213.604  11
   5   6   9 322.162 231.397   2
  -5  -6 -10 10091.6 755.083  11
   5   6  10 10789.8 804.977   2
  -5  -6 -11 55.7283 185.458  11
   5   6  11-60.5505 159.744   2
  -5  -6 -12 630.124 303.252  11
   5   6  12 170.654 140.159   2
  -5  -6 -13 4498.82 602.386  11
   5   6  13 4206.13 546.542   2
   5   6  14 740.891 226.743   1
   5   6  14 610.224 259.940   2
   5   6  15 280.128 207.359   1
  -5  -6 -15 467.884 308.281  11
   5   6  15 66.1827 192.425   2
   5   6  16 1997.24 474.573   1
  -5  -6 -16 2870.35 550.443  11
   5   6  16 1538.68 368.035   2
   5   6  17 547.366 260.310   3
   5   6  17 462.329 269.301   1
   5   6  18 885.839 299.845   3
  -5  -6 -18 1340.18 449.743  11
   5   6  18 864.284 356.405   1
   5   6  19 1029.05 392.713   1
   5   6  19 1448.50 367.974   3
   5   6  20 89.7704 205.081   3
   5   7 -11 1349.45 389.393   4
  -5  -7  11 1820.07 451.742  10
   5   7 -10 2601.94 483.034   4
  -5  -7  10 1991.28 454.669  10
   5   7  -9 967.857 351.219   4
  -5  -7   9 581.263 306.150  10
   5   7  -8 328.355 276.189   4
   5   7  -8 74.4916 142.887   2
  -5  -7   8 211.668 192.289  10
   5   7  -7 3605.42 517.662   2
  -5  -7   7 2485.73 503.904  10
   5   7  -7 3907.81 583.291   4
   5   7  -6 936.838 333.106   4
  -5  -7   6 1086.17 290.918   7
   5   7  -6 458.834 205.395   2
  -5  -7   6 837.492 283.961  10
   5   7  -5 126.427 153.141   4
  -5  -7   5 140.909 184.964   7
   5   7  -5 140.369 189.153   2
  -5  -7   5 249.992 179.469  10
   5   7  -4 1101.96 323.272   4
  -5  -7   4 1056.47 256.105   7
   5   7  -4 1174.96 298.435   2
  -5  -7   4 1055.35 277.292  10
  -5  -7   4 1228.65 347.824   9
   5   7  -3 88.7772 149.829   4
   5   7  -3 607.188 242.146   2
  -5  -7   3 119.777 147.578   7
  -5  -7   3 532.500 204.933  10
  -5  -7   3 257.157 212.673   9
   5   7  -2 2428.26 435.069   4
   5   7  -2 2854.39 418.568   2
  -5  -7   2 2019.93 326.669   7
  -5  -7   2 1910.90 336.803  10
  -5  -7   2 2490.15 417.142   9
   5   7  -1 2589.14 445.969   4
   5   7  -1 2527.14 390.908   2
  -5  -7   1 2660.86 372.060   7
  -5  -7   1 2385.86 383.517  10
  -5  -7   1 2051.72 382.112   9
   5   7   0 528.009 208.245   4
   5   7   0 879.772 246.545   2
  -5  -7   0 793.204 230.426   7
  -5  -7   0 941.095 253.308  10
  -5  -7   0 619.070 226.676   9
   5   7   1-137.708 168.947   4
   5   7   1 212.866 173.196   2
  -5  -7  -1 251.666 142.422   7
  -5  -7  -1 63.4280 157.676  10
  -5  -7  -1 195.809 155.906   9
   5   7   2 113.437 165.538   2
   5   7   2 194.452 188.152   4
  -5  -7  -2 132.979 158.470   7
  -5  -7  -2-4.19607 147.017  10
  -5  -7  -2-41.9463 174.740   9
   5   7   3 2164.94 372.244   2
   5   7   3 1700.04 313.529   4
  -5  -7  -3 1793.45 318.862   7
  -5  -7  -3 1711.84 304.910  10
  -5  -7  -3 1886.70 338.026   9
   5   7   4 628.064 216.498   2
  -5  -7  -4 546.883 192.072   7
  -5  -7  -4 735.648 223.710  10
  -5  -7  -4 256.394 156.557   9
  -5  -7  -5 972.536 251.296   7
  -5  -7  -5 800.497 260.180  10
  -5  -7  -5 569.596 194.610   9
   5   7   5 897.412 247.837   2
  -5  -7  -6 180.316 128.291   7
  -5  -7  -6 46.9835 129.567  10
  -5  -7  -6 367.850 182.938   9
   5   7   6 97.8236 166.356   2
  -5  -7  -7 849.881 248.780   7
  -5  -7  -7 1013.66 285.460   9
   5   7   7 966.390 281.458   2
  -5  -7  -8 502.842 194.507   7
  -5  -7  -8 287.551 221.143   9
   5   7   8-4.46751 137.747   2
  -5  -7  -9 4953.60 525.988  11
   5   7   9 4921.92 573.355   2
  -5  -7 -10 4998.89 580.376  11
   5   7  10 5711.46 624.494   2
  -5  -7 -11-26.2074 252.474  11
   5   7  11 702.653 255.524   2
  -5  -7 -12 9172.99 795.870  11
   5   7  12 8416.27 813.886   2
  -5  -7 -13 2178.00 449.926  11
   5   7  13 1751.64 394.398   2
   5   7  14 3492.25 581.425   1
  -5  -7 -14 2894.65 509.323  11
   5   7  14 3074.23 500.657   2
   5   7  15 393.045 235.156   1
  -5  -7 -15 534.332 320.107  11
   5   7  15 280.379 235.622   2
   5   7  16 4707.08 674.070   2
   5   7  16 4967.51 691.574   1
   5   7  17 398.115 254.578   1
  -5  -7 -17 673.748 339.507  11
   5   7  18 393.546 282.050   3
   5   7  18 545.848 293.641   1
   5   7  19 356.763 252.774   3
   5   7  20 268.748 229.632   3
  -5  -8  10 318.279 243.273  10
   5   8  -9 844.176 363.414   4
  -5  -8   9-123.833 181.139  10
   5   8  -8 2183.33 479.334   4
  -5  -8   8 1514.02 390.615  10
   5   8  -7 1651.06 425.724   4
   5   8  -7 1354.70 343.942   2
  -5  -8   7 1441.24 374.193  10
   5   8  -6-89.4689 244.871   4
  -5  -8   6-12.0817 153.532   7
   5   8  -6 342.201 221.273   2
  -5  -8   6 251.336 211.100  10
   5   8  -5 1683.16 379.752   4
  -5  -8   5 1450.17 319.794   7
   5   8  -5 1540.76 346.433   2
  -5  -8   5 1591.21 352.327  10
   5   8  -4-6.69977 154.858   4
   5   8  -4-201.372 145.457   2
  -5  -8   4 97.3899 177.620   7
  -5  -8   4-236.684 160.233  10
  -5  -8   4 268.589 232.973   9
   5   8  -3-139.298 214.961   4
   5   8  -3 201.831 190.935   2
  -5  -8   3 75.3552 138.678   7
  -5  -8   3 374.109 182.168  10
  -5  -8   3 125.774 216.733   9
   5   8  -2 277.792 195.159   4
   5   8  -2 138.882 134.903   2
  -5  -8   2 89.6555 154.271   7
  -5  -8   2 28.7579 139.557  10
  -5  -8   2-5.44365 160.390   9
   5   8  -1 1472.54 350.463   4
   5   8  -1 1246.52 298.962   2
  -5  -8   1 998.793 255.857   7
  -5  -8   1 1324.67 271.749  10
  -5  -8   1 1487.98 358.175   9
   5   8   0 455.377 239.755   4
   5   8   0 458.546 231.303   2
  -5  -8   0 856.065 234.640   7
  -5  -8   0 788.826 258.174  10
  -5  -8   0 404.604 169.302   9
   5   8   1-149.022 133.551   2
   5   8   1 298.551 209.021   4
  -5  -8  -1 175.727 170.109   7
  -5  -8  -1-251.787 177.880  10
  -5  -8  -1 197.600 221.319   9
   5   8   2 2112.47 385.288   2
   5   8   2 2318.98 403.589   4
  -5  -8  -2 1951.18 360.499   7
  -5  -8  -2 1753.11 338.540  10
  -5  -8  -2 1744.19 366.332   9
   5   8   3 620.913 241.755   2
   5   8   3 891.455 277.986   4
  -5  -8  -3 902.158 262.532   7
  -5  -8  -3 557.343 205.715  10
  -5  -8  -3 484.034 216.841   9
   5   8   4 669.120 240.614   4
  -5  -8  -4 379.779 170.976   7
  -5  -8  -4 244.442 126.239  10
  -5  -8  -4 278.531 177.961   9
   5   8   4 260.595 162.061   2
   5   8   5-39.9602 136.069   4
  -5  -8  -5 158.150 176.330   7
  -5  -8  -5-41.1564 172.787  10
  -5  -8  -5 157.442 167.009   9
   5   8   5 29.8300 178.753   2
  -5  -8  -6 785.713 227.472   7
  -5  -8  -6 937.173 240.648  10
  -5  -8  -6 788.030 270.632   9
   5   8   6 695.160 238.649   2
  -5  -8  -7-11.1896 166.564   7
  -5  -8  -7 135.355 167.696   9
  -5  -8  -7 114.355 157.472  10
   5   8   7 544.910 248.812   2
  -5  -8  -8 368.004 163.243   7
  -5  -8  -8 359.838 192.512   9
   5   8   8 96.0779 174.930   2
  -5  -8  -9-126.812 148.529   7
  -5  -8  -9 166.453 168.627   9
   5   8   9 65.5950 162.873   2
  -5  -8 -10 400.742 224.360   7
  -5  -8 -10-196.929 285.845  11
   5   8  10 477.627 211.027   2
  -5  -8 -10 78.6365 179.667   9
  -5  -8 -11 844.236 229.346  11
   5   8  11 1135.89 316.923   2
  -5  -8 -12 182.242 175.144  11
   5   8  12 485.910 171.099   2
  -5  -8 -13 1.43192 233.643  11
   5   8  13 267.039 219.628   2
   5   8  14 457.156 234.685   1
  -5  -8 -14 481.821 249.415  11
   5   8  14 298.673 245.017   2
   5   8  15 2459.08 515.818   1
  -5  -8 -15 3969.38 594.745  11
   5   8  15 3664.05 601.327   2
   5   8  16 1559.09 423.305   1
  -5  -8 -16 1167.05 363.533  11
   5   8  16 1465.53 409.158   2
   5   8  17 482.529 298.720   1
  -5  -8 -17 1004.25 465.445  11
  -5  -8 -18 2877.11 640.077  11
   5   8  19 112.195 173.888   3
  -5  -9   9 253.178 248.561  10
  -5  -9   8 361.018 225.518  10
   5   9  -7-343.691 272.227   4
  -5  -9   7 275.438 304.893  10
   5   9  -6 96.0468 202.581   4
  -5  -9   6 82.8195 192.912   7
  -5  -9   6-92.6433 187.857  10
   5   9  -5 887.030 321.490   4
   5   9  -5 739.739 265.512   2
  -5  -9   5 744.201 230.433   7
  -5  -9   5 1364.92 319.807  10
   5   9  -4 903.465 342.272   4
   5   9  -4 567.850 222.296   2
  -5  -9   4 898.271 314.472   7
  -5  -9   4 1237.29 315.439  10
  -5  -9   4 587.858 293.538   9
   5   9  -3 1315.33 338.713   4
   5   9  -3 1415.30 325.474   2
  -5  -9   3 1702.26 374.336   7
  -5  -9   3 1512.07 325.365  10
  -5  -9   3 2234.52 448.417   9
   5   9  -2 3376.44 555.016   4
  -5  -9   2 4604.45 573.247   7
  -5  -9   2 4506.85 544.574  10
   5   9  -2 4125.45 528.100   2
  -5  -9   2 4559.73 599.442   9
   5   9  -1 1737.44 381.348   4
   5   9  -1 1582.57 327.765   2
  -5  -9   1 1637.26 340.943   7
  -5  -9   1 1798.83 336.594  10
  -5  -9   1 1805.44 395.473   9
   5   9   0 266.231 196.223   2
   5   9   0-87.3091 180.063   4
  -5  -9   0 283.365 169.051   7
  -5  -9   0 287.593 170.604  10
  -5  -9   0 7.34123 173.246   9
  -5  -9  -1 6543.09 657.263   7
  -5  -9  -1 7089.27 622.851  10
   5   9   1 6867.38 670.073   2
  -5  -9  -1 6787.07 690.570   9
   5   9   1 6875.65 726.924   4
   5   9   2 859.463 279.775   4
  -5  -9  -2 1088.54 268.017   7
  -5  -9  -2 1081.32 266.106  10
  -5  -9  -2 947.315 276.314   9
   5   9   2 882.280 274.174   2
   5   9   3 408.440 218.871   4
  -5  -9  -3 329.519 208.515   7
  -5  -9  -3 655.350 239.449  10
  -5  -9  -3 670.324 263.251   9
   5   9   3 359.242 223.827   2
   5   9   4-56.6972 140.564   4
  -5  -9  -4 611.853 248.808   7
  -5  -9  -4-54.3148 161.179  10
  -5  -9  -4 476.513 263.578   9
   5   9   4 298.004 221.224   2
   5   9   5 3413.28 489.407   4
  -5  -9  -5 3351.65 486.823   7
  -5  -9  -5 4514.26 493.371  10
   5   9   5 4059.66 514.319   2
  -5  -9  -5 3736.27 508.601   9
   5   9   6 2607.51 424.025   4
  -5  -9  -6 2668.64 437.909   7
  -5  -9  -6 2251.93 421.339  10
  -5  -9  -6 2499.65 421.485   9
   5   9   6 1792.83 349.577   2
  -5  -9  -7-30.2034 163.321   7
  -5  -9  -7-34.2086 138.922  10
  -5  -9  -7-87.1450 180.665   9
   5   9   7 300.214 218.473   2
  -5  -9  -8 1748.52 389.370   7
  -5  -9  -8 1327.82 321.491  10
  -5  -9  -8 1979.89 424.473   9
   5   9   8 1660.32 385.866   2
  -5  -9  -9-285.499 219.971   7
  -5  -9  -9 131.680 215.486   9
   5   9   9 148.918 202.175   2
  -5  -9 -10-233.959 186.623   7
   5   9  10 343.477 155.563   2
  -5  -9 -10-25.9318 195.048   9
  -5  -9 -11 517.830 240.312   7
   5   9  11 219.647 256.058   2
  -5  -9 -11 554.351 243.495   9
  -5  -9 -12 843.417 302.973   7
   5   9  12 213.246 216.848   2
  -5  -9 -13 858.828 326.670   7
   5   9  13 487.243 273.913   1
   5   9  13 182.830 284.370   2
  -5  -9 -14 1044.97 258.586  11
   5   9  14 1461.43 392.622   2
   5   9  14 1590.55 414.616   1
  -5  -9 -15-222.425 292.399  11
   5   9  15 97.2170 269.072   2
   5   9  15 463.129 254.610   1
   5   9  16-27.4131 182.621   1
  -5  -9 -16-289.959 273.094  11
   5   9  16-102.063 243.152   2
  -5  -9 -17 580.376 337.013  11
  -5 -10   6-286.493 226.223   7
   5  10  -5 901.396 338.358   4
  -5 -10   5 479.909 226.139   7
   5  10  -4 726.891 315.412   4
  -5 -10   4 1010.78 305.059   7
  -5 -10   4 1230.16 381.573   9
   5  10  -3 1719.65 433.346   4
   5  10  -3 1151.67 311.247   2
  -5 -10   3 1699.12 404.740   7
  -5 -10   3 1822.08 354.293  10
  -5 -10   3 1235.28 392.234   9
   5  10  -2-79.9991 174.573   2
   5  10  -2 311.148 244.646   4
  -5 -10   2-25.4844 170.701   7
  -5 -10   2-45.4451 148.968  10
  -5 -10   2 387.777 263.154   9
   5  10  -1 2180.79 395.334   2
   5  10  -1 1985.21 446.145   4
  -5 -10   1 1929.92 436.000   7
  -5 -10   1 1964.20 355.923  10
  -5 -10   1 1523.33 386.446   9
   5  10   0 643.183 270.025   4
  -5 -10   0 848.527 267.657   7
  -5 -10   0 182.862 152.038  10
  -5 -10   0 940.324 329.867   9
   5  10   0 566.645 237.322   2
   5  10   1 1263.36 361.375   4
  -5 -10  -1 896.093 277.320   7
  -5 -10  -1 953.089 229.510  10
  -5 -10  -1 896.609 318.981   9
   5  10   1 972.046 313.934   2
   5  10   2 932.242 292.516   4
  -5 -10  -2 241.968 163.715   7
  -5 -10  -2 760.039 223.037  10
  -5 -10  -2 494.521 294.838   9
   5  10   2 451.333 218.011   2
   5  10   3 419.674 227.452   4
  -5 -10  -3 514.990 232.418   7
  -5 -10  -3 369.652 208.213  10
  -5 -10  -3 107.413 188.300   9
   5  10   3 375.469 206.251   2
   5  10   4 541.187 225.284   4
  -5 -10  -4 919.024 293.716   7
  -5 -10  -4 332.276 155.556  10
  -5 -10  -4 388.047 204.774   9
   5  10   4 848.853 252.433   2
   5  10   5 3518.22 525.862   4
  -5 -10  -5 3186.86 505.037   7
  -5 -10  -5 2695.94 408.523  10
  -5 -10  -5 3235.28 524.745   9
   5  10   5 3242.19 499.383   2
   5  10   6 473.861 239.578   4
  -5 -10  -6 279.843 199.380   7
  -5 -10  -6 119.831 150.975  10
  -5 -10  -6 95.5840 200.337   9
   5  10   6 602.359 269.439   2
  -5 -10  -7 3854.31 536.330   7
  -5 -10  -7 2841.06 463.031  10
  -5 -10  -7 3706.73 558.558   9
   5  10   7 3230.24 511.636   2
  -5 -10  -8 597.310 251.417   7
  -5 -10  -8 264.324 213.877  10
  -5 -10  -8 659.202 293.978   9
   5  10   8 351.379 181.686   2
  -5 -10  -9 279.461 257.107   7
  -5 -10  -9 346.700 203.998  10
  -5 -10  -9-86.1634 174.863   9
   5  10   9 231.121 226.598   2
  -5 -10 -10 1692.31 402.318   7
   5  10  10 1277.18 340.612   2
  -5 -10 -10 1971.39 424.490   9
  -5 -10 -11 275.789 229.529   7
   5  10  11 294.444 243.588   2
  -5 -10 -11 280.367 257.546   9
  -5 -10 -12 2197.02 449.319   7
   5  10  12 3150.99 546.689   2
  -5 -10 -12 3830.79 582.391   9
  -5 -10 -13-490.021 363.670  11
  -5 -10 -13 258.666 249.785   7
   5  10  13 424.853 270.428   2
   5  10  13 161.914 186.158   1
  -5 -10 -13 151.982 241.604   9
  -5 -10 -14-100.106 247.532   7
   5  10  14 433.066 280.558   1
  -5 -10 -14-239.308 373.961  11
   5  10  14 414.324 272.753   2
  -5 -10 -15 353.209 297.821   7
   5  10  15 191.800 187.498   1
   5  10  15 97.9249 198.690   2
  -5 -10 -16-938.496 426.346  11
  -5 -10 -17-316.951 412.585  11
  -5 -11   5 269.404 280.056   7
  -5 -11   4 330.971 227.531   7
  -5 -11   3 2640.91 515.552   7
   5  11  -2 318.650 237.458   4
  -5 -11   2 339.138 218.304   7
  -5 -11   2 972.191 364.744   9
   5  11  -1 421.984 259.254   4
  -5 -11   1 333.108 230.342   7
  -5 -11   1 72.6302 195.060   9
   5  11  -1 378.918 183.744   2
   5  11   0 51.6845 168.451   4
  -5 -11   0-120.968 184.800   7
  -5 -11   0 254.643 261.324   9
   5  11   0-66.4266 155.191   2
   5  11   1 42.9178 170.530   4
  -5 -11  -1 401.238 268.903   7
  -5 -11  -1 223.646 228.537   9
   5  11   1-6.84333 135.536   2
   5  11   2-132.881 176.876   4
  -5 -11  -2 25.8956 174.641   7
  -5 -11  -2-30.0987 220.800   9
   5  11   2 262.684 208.211   2
   5  11   3-146.159 160.528   4
  -5 -11  -3 224.432 200.073   7
  -5 -11  -3 211.873 232.180   9
   5  11   3 65.6598 154.663   2
   5  11   4 812.780 304.029   4
  -5 -11  -4 545.473 258.909   7
  -5 -11  -4 1019.21 341.862   9
   5  11   4 981.400 305.479   2
   5  11   5 3697.25 576.093   4
  -5 -11  -5 3058.63 510.550   7
  -5 -11  -5 2803.63 506.595   9
   5  11   5 2981.08 496.809   2
   5  11   6 979.503 311.765   4
  -5 -11  -6 1488.26 395.433   7
  -5 -11  -6 992.408 338.473   9
   5  11   6 899.988 292.460   2
   5  11   7 2188.26 427.557   4
  -5 -11  -7 3182.28 546.925   7
  -5 -11  -7 2752.55 446.474  10
  -5 -11  -7 2981.37 526.660   9
   5  11   7 2548.19 499.363   2
  -5 -11  -8 165.026 178.432   7
  -5 -11  -8-30.4462 150.088  10
  -5 -11  -8 677.988 296.714   9
   5  11   8 621.772 325.224   2
  -5 -11  -9 1171.93 323.989   7
  -5 -11  -9 1413.14 339.454  10
   5  11   9 1430.77 377.039   2
  -5 -11  -9 1461.70 394.211   9
  -5 -11 -10 1351.32 369.062   7
  -5 -11 -10 1322.72 321.083  10
   5  11  10 1321.98 372.160   2
  -5 -11 -10 1261.10 367.377   9
  -5 -11 -11 723.118 347.393   7
   5  11  11 1174.24 366.266   2
  -5 -11 -11 770.789 318.878   9
  -5 -11 -12 51.3608 198.404   7
   5  11  12 161.628 238.405   2
  -5 -11 -12 14.2004 275.287   9
   5  11  12-2.32093 168.886   1
  -5 -11 -13 734.964 305.668   7
   5  11  13 639.227 316.156   2
  -5 -11 -13 557.952 275.730   9
   5  11  13 640.557 280.574   1
   5  11  14 349.830 254.409   1
  -5 -11 -15-1025.57 451.655  11
  -5 -11 -16 82.2893 337.215  11
  -5 -12   3 985.978 389.969   7
  -5 -12   2 1390.07 423.721   7
  -5 -12   1 744.520 297.282   7
   5  12   0 113.644 196.748   4
  -5 -12   0-368.103 273.785   7
   5  12   1 236.496 190.746   4
  -5 -12  -1-45.7568 196.799   7
  -5 -12  -1 25.7981 242.502   9
   5  12   1 290.736 219.307   2
   5  12   2 136.492 237.366   4
  -5 -12  -2 740.495 294.473   7
  -5 -12  -2 213.418 182.867   9
   5  12   2 363.199 269.401   2
   5  12   3 1219.22 367.795   4
  -5 -12  -3 934.206 315.262   7
  -5 -12  -3 1552.97 410.771   9
   5  12   3 1159.00 351.133   2
   5  12   4 1180.68 391.822   4
  -5 -12  -4 1301.27 370.098   7
  -5 -12  -4 557.294 291.528   9
   5  12   4 1230.49 346.416   2
   5  12   5-429.791 277.525   4
  -5 -12  -5 270.757 237.521   7
  -5 -12  -5 144.746 216.117   9
   5  12   5 3.52025 218.659   2
   5  12   6 85.0617 242.219   4
  -5 -12  -6 576.959 287.563   7
  -5 -12  -6 339.821 234.135   9
   5  12   6 149.968 253.244   2
   5  12   7 2137.23 456.235   4
  -5 -12  -7 1399.64 384.588   7
  -5 -12  -7 1578.57 428.495   9
   5  12   7 1699.15 392.563   2
  -5 -12  -8 177.249 198.876   7
  -5 -12  -8 616.002 302.109   9
   5  12   8 193.671 263.418   2
  -5 -12  -9-29.5370 221.595   7
   5  12   9-146.955 173.714   2
  -5 -12  -9 347.495 259.676   9
  -5 -12 -10 305.984 230.576   7
   5  12  10 717.912 307.948   2
  -5 -12 -10 895.471 329.570   9
  -5 -12 -11 1309.33 380.813   7
   5  12  11 1761.98 471.370   2
   5  12  11 1149.89 399.045   1
   5  12  12-106.853 191.670   1
   5  12  13 250.171 208.806   1
   5  13   4 658.499 339.701   4
   5  13   4 403.890 245.868   2
   5  13   5 139.880 212.747   4
   5  13   5 297.843 208.009   2
   5  13   6 200.891 182.151   4
   5  13   6 325.973 253.901   2
   5  13   7 769.475 321.084   4
   5  13   7 327.621 248.059   2
   5  13   8 864.946 331.069   4
   5  13   8 258.467 195.895   2
   5  13  10 1118.31 381.007   1
   5  13  11 260.791 296.149   1
   5  14   8 130.494 226.675   4
   6 -11   0 348.087 339.646   7
   6 -11   1-366.094 334.215   7
  -6  10   8 99.4566 207.114   5
  -6  10   7 487.356 285.233   5
   6 -10  -6-4.58769 209.637   8
  -6  10   6-295.335 262.218   5
   6 -10  -5 2784.00 548.493   8
  -6  10   5 2471.86 505.454   5
   6 -10  -4 1294.13 367.358   8
  -6  10   4 1437.50 394.017   5
   6 -10  -3 304.947 229.318   8
  -6  10   3 29.8424 210.328   5
   6 -10  -2 1298.40 401.509   8
  -6  10   2 649.366 306.970   5
  -6  10   1 14.6887 183.451   5
   6 -10  -1-379.821 225.440   8
   6 -10   0 920.231 313.616   7
  -6  10   0 646.568 309.782   5
   6 -10   0 1126.15 323.066   8
   6 -10   1 311.165 169.778   7
  -6  10  -1 246.895 200.934   5
   6 -10   1-67.1450 191.317   8
  -6  10  -2 518.177 297.425   5
   6 -10   2 317.741 267.355   8
  -6  10  -3 110.800 220.542   5
   6 -10   3 444.074 272.063   8
  -6  10  -4 1056.28 403.466   5
   6 -10   4 694.808 316.610   8
  -6  10  -5 824.883 308.585   5
   6 -10   5 1421.10 389.229   8
   6 -10   6 357.116 253.989   8
  -6   9  11 127.506 260.223   1
  -6   9  11-197.151 269.112   5
  -6   9  10 199.085 219.128   1
  -6   9  10 140.638 235.417   5
  -6   9   9-261.061 251.446   1
  -6   9   9 303.602 297.628   5
   6  -9  -8 1239.27 398.086   8
  -6   9   8 776.442 296.249   5
   6  -9  -7 418.821 273.112   8
  -6   9   7 282.686 245.391   5
   6  -9  -6 2577.38 503.959   8
  -6   9   6 2823.20 507.950   5
   6  -9  -5 2920.54 502.552   8
  -6   9   5 3352.95 561.454   5
   6  -9  -4 1060.39 344.741   8
  -6   9   4 1090.45 332.370   5
   6  -9  -3 1210.96 358.130   8
  -6   9   3 935.884 332.893   5
   6  -9  -2 741.354 273.581   8
  -6   9   2 895.002 301.752   5
   6  -9  -1 261.630 146.706   7
  -6   9   1 454.577 233.386   5
   6  -9  -1 235.064 183.000   8
   6  -9   0 169.975 142.226   7
  -6   9   0 151.816 219.347   5
   6  -9   0-61.4925 167.436   8
   6  -9   1 770.892 251.276   7
  -6   9  -1 313.090 198.089   5
   6  -9   1 1152.17 375.824   8
  -6   9  -2 147.827 191.566   5
   6  -9   2 111.019 145.682   8
  -6   9  -3 739.001 287.801   5
   6  -9   3 670.107 264.892   8
  -6   9  -4 203.267 178.736   5
   6  -9   4 125.159 186.561   8
  -6   9  -5 1140.65 331.232   5
   6  -9   5 813.297 274.572   8
  -6   9  -6-50.8881 218.363   5
   6  -9   6 618.596 318.682   8
  -6   9  -7 2629.70 536.407   5
   6  -9   7 2240.69 480.892   8
  -6   9  -8 510.233 238.233   5
   6  -9   8 220.606 242.098   8
   6  -9   9 349.479 286.435   8
  -6   8  13 5741.03 738.661   5
  -6   8  12 2735.15 504.572   5
  -6   8  11 111.290 183.956   1
  -6   8  11 454.223 270.290   5
   6  -8 -10 1828.86 447.044   8
  -6   8  10 1144.83 376.452   1
  -6   8  10 1439.30 378.392   5
   6  -8  -9 113.525 203.051   8
  -6   8   9 201.154 198.441   1
  -6   8   9 263.974 223.896   5
   6  -8  -8 961.811 346.906   8
  -6   8   8 795.530 318.836   1
  -6   8   8 549.325 228.964   5
   6  -8  -7 469.302 258.509   8
  -6   8   7 672.126 258.418   1
  -6   8   7 464.967 253.926   5
   6  -8  -6 2251.47 465.223   8
  -6   8   6 2274.79 387.286   1
  -6   8   6 1121.02 314.420   5
   6  -8  -5 1242.60 355.026   8
  -6   8   5 1455.86 336.232   1
  -6   8   5 1220.70 332.049   5
   6  -8  -4 513.481 243.403   8
  -6   8   4 106.226 151.508   5
   6  -8  -3 2141.74 442.489   8
  -6   8   3 1497.84 371.875   5
   6  -8  -2 527.851 228.791   8
  -6   8   2 149.142 145.555   5
   6  -8  -1 884.600 312.912   8
   6  -8  -1 831.692 226.685   7
  -6   8   1 1339.73 354.458   5
   6  -8   0 4298.79 516.007   7
  -6   8   0 3603.40 529.411   5
   6  -8   0 4234.40 568.810   8
  -6   8  -1-28.3041 200.387   5
   6  -8   1-100.825 198.257   8
  -6   8  -2 518.011 246.055   5
   6  -8   2 427.552 254.263   8
  -6   8  -3-68.5390 156.975   5
   6  -8   3 153.175 211.447   8
  -6   8  -4 480.947 261.428   5
   6  -8   4 155.442 150.512   8
  -6   8  -5 659.302 282.221   5
   6  -8   5 873.104 303.599   8
   6  -8   6 1108.68 313.806   3
  -6   8  -6 1091.83 335.068   5
   6  -8   6 715.222 306.490   8
   6  -8   7 2255.31 413.873   3
  -6   8  -7 1964.52 416.359   5
   6  -8   7 2645.85 510.325   8
   6  -8   8 17.2007 177.448   3
  -6   8  -8 149.674 232.435   5
   6  -8   8 74.1775 183.431   8
   6  -8   9 313.362 231.985   3
  -6   8  -9 562.339 272.554   5
   6  -8   9 396.679 227.494   8
   6  -8  10 252.109 192.518   3
  -6   8 -10 383.096 215.963   5
   6  -8  10 15.5638 226.028   8
   6  -8  11-238.323 183.496   3
  -6   8 -11-27.1867 242.681   5
   6  -8  11 426.766 337.729   8
  -6   7  12 845.516 305.553   1
  -6   7  12 1167.90 326.401   5
   6  -7 -11 1818.83 406.179   8
  -6   7  11 2442.19 522.179   1
  -6   7  11 2009.65 433.720   5
  -6   7  10 4588.69 648.502   1
  -6   7  10 5449.81 651.497   5
   6  -7 -10 5787.20 740.828   8
   6  -7  -9 448.502 264.053   8
  -6   7   9 417.071 240.767   1
  -6   7   9 610.981 267.604   5
   6  -7  -8-0.91223 197.918   8
  -6   7   8-136.419 188.044   1
  -6   7   8 341.771 220.470   5
  -6   7   7 7349.98 737.355   5
  -6   7   7 7577.68 736.027   1
   6  -7  -7 7355.27 779.080   8
  -6   7   6 9634.64 821.397   5
  -6   7   6 10373.0 838.173   1
   6  -7  -6 9133.27 830.026   8
   6  -7  -5 283.465 247.987   8
  -6   7   5 114.726 122.742   1
  -6   7   5 435.839 214.519   5
   6  -7  -4 2377.98 438.779   8
  -6   7   4 2632.11 403.760   1
  -6   7   4 1983.76 393.491   5
  -6   7   3 4503.59 562.877   5
  -6   7   3 4379.83 509.151   1
   6  -7  -3 5274.68 619.311   8
   6  -7  -2 667.643 269.267   8
  -6   7   2 460.588 201.471   1
   6  -7  -2 692.670 203.912   7
  -6   7   2 671.362 238.341   5
   6  -7  -1 6109.83 545.773   7
  -6   7   1 5595.47 614.729   5
   6  -7  -1 5460.17 618.611   8
   6  -7   0 1514.13 298.839   7
  -6   7   0 1129.95 329.294   5
   6  -7   0 1031.85 306.793   8
  -6   7  -1 2594.18 450.094   5
   6  -7   1 1845.95 391.028   8
  -6   7  -2 15.6362 204.382   5
   6  -7   2 229.073 201.655   8
   6  -7   3 2468.43 381.139   3
  -6   7  -3 2700.94 455.147   5
   6  -7   3 3078.13 489.136   8
   6  -7   4 119.146 139.337   3
  -6   7  -4 168.262 206.897   5
   6  -7   4-309.880 241.051   8
   6  -7   5 113.563 152.634   3
  -6   7  -5 93.9766 245.180   5
   6  -7   5-29.3947 180.588   8
   6  -7   6 1839.02 373.369   3
  -6   7  -6 2050.42 424.136   5
   6  -7   6 1704.10 361.353   8
   6  -7   7 310.144 184.875   3
  -6   7  -7 382.895 188.371   5
   6  -7   7 564.948 250.403   8
   6  -7   8-160.353 179.505   3
   6  -7   8 14.9300 167.876   8
   6  -7   9 758.317 284.613   3
  -6   7  -9 312.455 220.763   5
   6  -7   9 299.605 247.038   8
   6  -7  10-57.7004 185.771   3
  -6   7 -10 673.182 280.921   5
   6  -7  10 611.666 264.714   8
   6  -7  11-66.1891 245.904   3
  -6   7 -11 436.332 277.905   5
   6  -7  11 0.25444 188.974   8
   6  -7  12 461.631 226.734   3
  -6   7 -12 100.710 196.384   5
   6  -7  12 164.806 186.850   8
   6  -6 -12 703.730 312.650   8
  -6   6  12 384.437 214.069   1
   6  -6 -11 3820.44 590.665   8
  -6   6  11 3287.81 583.539   1
  -6   6  11 4481.22 580.279   5
   6  -6 -10 1671.60 407.490   8
  -6   6  10 1619.77 392.231   1
  -6   6  10 1828.62 384.023  10
  -6   6  10 1635.48 374.406   5
   6  -6  -9-308.659 235.871   8
  -6   6   9 69.6407 155.121   1
  -6   6   9 95.5913 142.174  10
  -6   6   9-33.0030 154.686   5
   6  -6  -8 2430.91 446.398   8
  -6   6   8 2682.47 469.714   1
  -6   6   8 2754.88 438.371  10
  -6   6   8 3107.33 464.941   5
   6  -6  -7 1306.89 324.495   8
  -6   6   7 1690.22 348.660   1
  -6   6   7 1428.41 308.691  10
  -6   6   7 1375.37 325.873   5
   6  -6  -6 410.657 233.449   8
  -6   6   6 541.993 219.345   1
  -6   6   6 416.521 196.090  10
  -6   6   6 457.073 222.767   5
   6  -6  -5 460.672 204.883   8
  -6   6   5-102.817 188.796   1
  -6   6   5 104.246 128.658  10
  -6   6   5 68.6903 142.037   5
  -6   6   4 8996.96 744.969   5
  -6   6   4 9334.03 735.776   1
  -6   6   4 9227.80 614.542  10
   6  -6  -4 9261.67 786.023   8
  -6   6   3 3859.65 482.046   5
  -6   6   3 3579.42 363.796  10
  -6   6   3 4011.03 479.549   1
   6  -6  -3 3641.49 502.201   8
   6  -6  -2 935.347 268.450   8
   6  -6  -2 898.746 190.917   7
  -6   6   2 1230.99 285.499   1
  -6   6   2 1031.35 206.241  10
  -6   6   2 878.571 256.267   5
  -6   6   1 9151.09 667.150   1
  -6   6   1 9495.34 769.507   5
  -6   6   1 9577.62 543.961  10
   6  -6  -1 8326.96 725.330   8
  -6   6   0 4797.78 482.728   1
  -6   6   0 6032.07 619.830   5
   6  -6   0 5747.21 598.844   8
   6  -6   1 1001.39 201.462   3
  -6   6  -1 1333.69 328.436   5
   6  -6   1 1079.17 289.237   8
   6  -6   2 7021.50 546.352   3
  -6   6  -2 6557.24 673.975   5
   6  -6   2 6432.41 635.343   8
   6  -6   3 5974.18 527.095   3
  -6   6  -3 5953.26 619.508   5
   6  -6   3 6234.49 399.389   2
   6  -6   3 5896.87 621.909   8
   6  -6   4 399.365 180.685   3
  -6   6  -4 459.420 237.202   5
   6  -6   4 774.955 260.460   8
   6  -6   5 1194.89 270.391   3
  -6   6  -5 1263.43 329.045   5
   6  -6   5 907.742 275.084   8
   6  -6   6 207.402 186.459   3
  -6   6  -6 125.785 174.614   5
   6  -6   6-55.8114 172.823   8
   6  -6   7 714.617 209.681   3
  -6   6  -7 925.919 327.764   5
   6  -6   7 1320.74 323.442   8
   6  -6   8 11.3849 163.868   3
  -6   6  -8 98.4999 164.653   5
   6  -6   8 176.115 204.828   8
   6  -6   9 3272.75 498.059   3
  -6   6  -9 3290.85 530.161   5
   6  -6   9 2991.29 534.799   8
   6  -6  10-329.698 203.382   3
   6  -6  10 493.448 254.496   8
   6  -6  11-37.3866 218.611   3
   6  -6  11 543.187 259.247   8
   6  -6  12 1630.91 417.336   3
   6  -6  12 107.448 271.085   8
   6  -6  13 406.486 280.012   3
   6  -5 -13 201.022 233.255   8
   6  -5 -12 72.3804 184.885   8
  -6   5  12 559.072 258.584   1
   6  -5 -11-106.457 181.592   8
  -6   5  11 151.479 193.786   1
  -6   5  11 9.22481 170.811  10
  -6   5  11-0.87834 142.858   5
  -6   5  10 5284.38 584.981   5
  -6   5  10 5823.40 642.637  10
  -6   5  10 4716.28 648.170   1
   6  -5 -10 5344.71 659.725   8
   6  -5  -9 98.7194 198.901   8
  -6   5   9 122.828 164.281   1
  -6   5   9-152.008 178.861  10
  -6   5   9-13.0454 127.272   5
   6  -5  -8 2639.44 446.232   8
  -6   5   8 2158.63 398.369   1
  -6   5   8 2450.26 410.505  10
  -6   5   8 2521.31 409.829   5
   6  -5  -7 1380.10 342.319   8
  -6   5   7 986.902 320.117   1
  -6   5   7 435.534 142.551  10
  -6   5   7 448.056 191.550   5
   6  -5  -6 227.588 139.196   8
  -6   5   6 294.035 218.643   1
   6  -5  -6 419.500 132.609  11
  -6   5   6 385.698 176.910  10
  -6   5   6 282.188 181.545   5
   6  -5  -5 3131.44 450.971   8
   6  -5  -5 3778.89 321.064  11
  -6   5   5 3937.35 427.754  10
  -6   5   5 3399.86 469.233   1
  -6   5   5 3253.02 431.343   5
   6  -5  -4-9.08395 141.750   8
  -6   5   4 479.006 202.935   1
   6  -5  -4 206.372 91.0413  11
  -6   5   4-22.0986 114.210  10
  -6   5   4 275.609 168.397   5
   6  -5  -3 4029.64 481.986   8
   6  -5  -3 4087.49 278.117  11
  -6   5   3 3810.51 457.609   5
  -6   5   3 3755.51 476.065   1
  -6   5   3 3845.61 394.667  10
   6  -5  -2 3231.49 444.254   8
   6  -5  -2 3561.80 236.593  11
  -6   5   2 3592.31 440.279   5
  -6   5   2 3572.72 450.466   1
  -6   5   2 3507.38 373.236  10
   6  -5  -1 3121.61 435.346   8
   6  -5  -1 3716.38 316.798   3
  -6   5   1 4017.78 480.861   5
  -6   5   1 3280.74 434.811   1
  -6   5   1 3492.28 360.147  10
   6  -5   0 4382.24 360.605   3
  -6   5   0 4290.39 464.891   1
  -6   5   0 4583.62 501.151   5
  -6   5   0 4097.79 378.051  10
   6  -5   0 3936.45 482.150   8
   6  -5   1 6460.45 461.962   3
  -6   5  -1 6869.04 628.852   5
  -6   5  -1 7037.95 463.017  10
   6  -5   1 5767.78 571.715   8
   6  -5   2 18933.0 851.519   3
  -6   5  -2 19150.5 1035.24   5
  -6   5  -2 19698.5 780.914  10
   6  -5   2 17513.5 977.083   8
   6  -5   3 5090.70 472.580   3
  -6   5  -3 5279.35 577.347   5
  -6   5  -3 5632.31 424.963  10
   6  -5   3 5802.26 399.701   2
   6  -5   3 4870.33 524.616   8
   6  -5   4 6605.03 565.543   3
  -6   5  -4 5798.41 608.267   5
  -6   5  -4 5620.58 437.543  10
   6  -5   4 6252.32 389.541   2
   6  -5   4 5329.35 572.140   8
   6  -5   5 4910.66 510.635   3
  -6   5  -5 4367.33 528.211   5
  -6   5  -5 4603.97 416.299  10
   6  -5   5 4917.07 556.868   8
   6  -5   6 485.478 214.397   3
  -6   5  -6 253.361 132.631  10
  -6   5  -6 50.9943 158.032   5
   6  -5   6 186.056 144.505   8
   6  -5   7 3927.01 493.211   3
  -6   5  -7 3931.32 519.722   5
   6  -5   7 3587.27 486.184   8
   6  -5   8 3365.33 481.134   3
   6  -5   8 2883.84 460.975   8
   6  -5   9 2255.68 411.981   3
   6  -5   9 1908.45 381.437   8
   6  -5  10 291.119 161.558   3
   6  -5  10 525.147 284.348   8
   6  -5  11 2088.37 422.031   3
   6  -5  11 1785.51 410.046   8
   6  -5  12 2388.45 465.833   3
   6  -5  12 1996.37 442.345   8
   6  -5  13 314.655 264.774   3
   6  -5  14 90.1779 196.457   3
  -6   5 -14 265.179 218.093   6
   6  -4 -14 117.756 194.540   8
   6  -4 -14 259.600 181.208  11
   6  -4 -13 88.2000 196.617   8
  -6   4  13 428.810 261.082   1
   6  -4 -13 527.368 269.861  11
   6  -4 -12 64.2458 231.997   8
  -6   4  12-291.650 310.194   1
   6  -4 -12 367.203 244.201  11
  -6   4  12-34.8272 184.558  10
   6  -4 -11 2697.68 478.717   8
  -6   4  11 2927.61 551.624   1
   6  -4 -11 2611.21 420.977  11
  -6   4  11 2149.35 459.900  10
   6  -4 -10 1699.30 384.553   8
  -6   4  10 2634.57 456.864   1
   6  -4 -10 1727.08 334.463  11
  -6   4  10 1671.26 389.904  10
  -6   4  10 1789.29 327.324   5
   6  -4  -9 4786.86 500.879  11
  -6   4   9 5417.61 560.043   5
  -6   4   9 4737.28 563.338  10
  -6   4   9 5120.07 654.064   1
   6  -4  -9 5022.92 597.342   8
   6  -4  -8 2434.12 421.054   8
  -6   4   8 2409.46 429.015   1
   6  -4  -8 1813.49 298.947  11
  -6   4   8 2407.50 392.264  10
  -6   4   8 2100.72 330.957   5
   6  -4  -7 593.726 259.718   8
  -6   4   7 608.805 231.806   1
   6  -4  -7 886.184 210.084  11
  -6   4   7 652.814 230.942  10
  -6   4   7 709.029 207.254   5
   6  -4  -6 241.271 180.936   8
  -6   4   6 104.577 171.424   1
   6  -4  -6 277.586 147.272  11
  -6   4   6 195.815 117.788  10
  -6   4   6 79.3446 131.516   5
   6  -4  -5 535.071 228.148   8
  -6   4   5 551.196 227.915   1
   6  -4  -5 630.688 162.795  11
  -6   4   5 882.184 241.605  10
  -6   4   5 820.632 238.924   5
   6  -4  -4-45.0097 137.147   8
  -6   4   4 168.897 119.700   1
  -6   4   4 285.260 157.896  10
  -6   4   4 224.688 137.933   5
   6  -4  -3 893.547 249.806   8
  -6   4   3 990.597 255.996   1
  -6   4   3 968.993 222.966  10
  -6   4   3 1031.61 218.064   5
   6  -4  -2 346.847 187.364   8
  -6   4   2 604.856 223.349   1
   6  -4  -2 486.941 97.6224   3
  -6   4   2 419.605 151.620  10
  -6   4   2 530.908 210.425   5
   6  -4  -1 2243.14 337.890   8
   6  -4  -1 3092.92 259.515   3
  -6   4   1 3255.48 279.807   7
  -6   4   1 3005.02 421.367   1
  -6   4   1 3254.54 357.111  10
  -6   4   1 3000.05 399.453   5
   6  -4   0 1104.03 250.581   8
   6  -4   0 1771.49 224.524   3
   6  -4   0 1580.91 178.827  11
  -6   4   0 1495.27 288.551   5
  -6   4   0 1674.25 260.792  10
  -6   4   0 936.499 263.872   1
   6  -4   1 11265.3 589.140   3
   6  -4   1 11419.1 454.861  11
  -6   4  -1 10057.0 703.528   5
  -6   4  -1 10793.9 611.974  10
   6  -4   1 9362.91 696.488   8
   6  -4   2 3621.02 359.392   3
   6  -4   2 3316.59 245.807  11
  -6   4  -2 3387.89 434.064   5
  -6   4  -2 3475.42 350.478  10
   6  -4   2 3461.84 337.832   2
   6  -4   2 3596.04 452.411   8
   6  -4   3 3603.92 371.816   3
   6  -4   3 3558.35 266.453  11
  -6   4  -3 3318.87 435.674   5
  -6   4  -3 3648.48 365.259  10
   6  -4   3 3709.57 334.280   2
   6  -4   3 3597.69 445.864   8
   6  -4   4 9995.21 654.172   3
  -6   4  -4 10697.9 769.346   5
  -6   4  -4 10092.3 600.472  10
   6  -4   4 10028.7 510.794   2
   6  -4   4 9801.86 722.318   8
   6  -4   5 1956.16 315.320   3
  -6   4  -5 1839.28 228.792  11
  -6   4  -5 2076.26 356.477   5
  -6   4  -5 1556.67 277.002  10
   6  -4   5 1848.71 210.573   2
   6  -4   5 1682.83 313.421   8
   6  -4   6 248.525 86.4091   2
   6  -4   6 315.846 163.090   3
  -6   4  -6 321.458 131.068  11
   6  -4   6-95.2039 200.161   8
   6  -4   7 2060.95 350.935   3
  -6   4  -7 2296.52 297.413  11
   6  -4   7 1789.99 344.651   8
   6  -4   8 366.651 205.965   3
  -6   4  -8 425.799 156.728  11
   6  -4   8 309.460 195.765   8
   6  -4   9 4553.78 550.806   3
  -6   4  -9 4678.88 453.490  11
   6  -4   9 4145.57 539.347   8
   6  -4  10 3692.89 523.772   3
  -6   4 -10 4202.61 463.421  11
   6  -4  10 3811.78 537.786   8
   6  -4  11 11704.4 921.897   3
  -6   4 -11 12114.6 798.964  11
   6  -4  11 12514.3 978.604   8
   6  -4  12 1498.81 415.082   3
  -6   4 -12 1461.22 326.127  11
   6  -4  12 462.955 343.115   8
   6  -4  13 312.040 257.601   3
  -6   4 -13 234.939 207.680  11
   6  -4  14 1307.68 374.589   3
  -6   4 -14 1302.67 334.164  11
   6  -4  15 993.479 364.740   3
  -6   4 -15 1599.63 464.160   6
  -6   4 -15 974.716 294.204  11
  -6   4 -16 58.2148 224.573  11
  -6   4 -17 1130.19 374.828  11
   6  -3 -15 971.187 360.256  11
   6  -3 -14-228.171 254.745   8
   6  -3 -14 436.907 253.264  11
   6  -3 -13-176.322 197.103   8
  -6   3  13-227.857 204.857   1
   6  -3 -13 6.56794 200.865  11
  -6   3  13 37.7432 211.134  10
   6  -3 -12 378.385 276.661   8
  -6   3  12 15.0708 165.156   1
   6  -3 -12 124.918 147.455  11
   6  -3 -11 1861.37 364.644   8
  -6   3  11 1755.53 494.133   1
   6  -3 -11 1804.05 341.042  11
  -6   3  11 1713.74 381.061  10
   6  -3 -10 249.634 197.484   8
  -6   3  10-4.94057 230.662   1
   6  -3 -10 23.9298 149.497  11
  -6   3  10 285.286 153.155  10
   6  -3  -9 2306.05 392.934   8
   6  -3  -9 2140.16 363.476  11
  -6   3   9 2665.96 362.386   5
  -6   3   9 2112.47 407.510  10
  -6   3   9 2443.97 458.353   1
   6  -3  -8 11088.3 734.258  11
  -6   3   8 10456.8 679.394   5
  -6   3   8 9812.78 795.393  10
  -6   3   8 10780.1 891.665   1
   6  -3  -8 10339.6 789.113   8
   6  -3  -7 1064.94 308.762   8
  -6   3   7 1135.32 311.399   1
   6  -3  -7 913.607 221.939  11
  -6   3   7 531.195 189.272  10
  -6   3   7 956.717 214.831   5
   6  -3  -6 3412.90 424.928   8
   6  -3  -6 3611.48 385.003  11
  -6   3   6 3501.70 386.133   5
  -6   3   6 3445.47 463.569  10
  -6   3   6 3322.43 491.170   1
   6  -3  -5 734.706 225.887   8
  -6   3   5 781.426 228.436   1
  -6   3   5 870.770 241.436  10
  -6   3   5 1012.20 238.166   5
   6  -3  -4 704.051 220.414   8
  -6   3   4 773.781 279.823   1
  -6   3   4 649.107 205.582  10
  -6   3   4 677.375 198.673   5
   6  -3  -3-140.462 142.011   8
  -6   3   3 66.9832 141.385   1
   6  -3  -3 50.1607 24.6747   3
  -6   3   3-106.145 134.756  10
  -6   3   3 102.586 137.524   5
   6  -3  -2 411.700 166.987   8
  -6   3   2 497.714 184.081   1
   6  -3  -2 430.906 87.4414   3
  -6   3   2 300.188 146.430  10
  -6   3   2 481.230 169.344   5
  -6   3   1 12569.3 462.761   7
   6  -3  -1 12523.6 492.884   3
  -6   3   1 11709.6 803.401   1
  -6   3   1 12486.2 727.107   5
  -6   3   1 11726.1 684.958  10
   6  -3  -1 11790.9 727.935   8
   6  -3   0 67.5757 127.408   8
  -6   3   0 27.5415 77.2867   7
   6  -3   0 16.6597 62.1164   3
  -6   3   0 94.2195 112.569   5
  -6   3   0 77.0493 112.717  10
  -6   3   0 110.345 191.779   1
   6  -3   1 7800.12 460.923   3
  -6   3  -1 7446.03 578.751   5
  -6   3  -1 8385.62 558.404  10
   6  -3   1 7338.37 582.163   8
   6  -3   2 368.079 112.504   3
   6  -3   2 336.929 127.209   2
  -6   3  -2 410.790 187.378   5
  -6   3  -2 209.386 110.218  10
   6  -3   2 350.249 155.114   8
   6  -3   3 1640.22 259.178   3
   6  -3   3 1815.34 243.262   2
  -6   3  -3 1751.43 301.838   5
  -6   3  -3 1790.40 254.103  10
   6  -3   3 1494.46 294.638   8
   6  -3   4 409.287 128.609   2
   6  -3   4 565.820 191.640   3
  -6   3  -4 348.369 132.275  10
  -6   3  -4 371.066 57.7352   9
   6  -3   4 565.855 202.506   8
   6  -3   5 450.320 124.737   2
   6  -3   5 428.598 180.190   3
  -6   3  -5 446.975 148.739  11
  -6   3  -5 421.990 162.584  10
  -6   3  -5 424.119 85.8734   9
   6  -3   5 248.265 157.796   8
   6  -3   6 2929.24 370.097   3
  -6   3  -6 3153.95 325.048  11
   6  -3   6 3158.21 278.085   2
  -6   3  -6 2870.74 242.711   9
   6  -3   6 2812.84 389.739   8
   6  -3   7 174.082 93.5040   2
   6  -3   7-91.1606 137.106   3
  -6   3  -7 18.1403 115.104  11
   6  -3   7-0.14973 151.853   8
   6  -3   8 200.866 154.608   3
  -6   3  -8 210.428 151.370  11
   6  -3   8 127.089 65.0123   2
   6  -3   8 254.950 209.089   8
   6  -3   9-90.6041 149.096   3
  -6   3  -9 258.685 218.671  11
   6  -3   9 92.4305 152.403   8
   6  -3  10 7105.87 679.145   3
  -6   3 -10 7071.29 588.557  11
   6  -3  10 6927.53 697.208   8
   6  -3  11 5313.23 615.887   3
  -6   3 -11 4934.04 524.445  11
   6  -3  11 5081.96 614.264   8
   6  -3  12 570.243 266.631   3
  -6   3 -12-13.5541 129.162  11
   6  -3  13 3773.35 556.076   3
  -6   3 -13 3981.62 508.002  11
   6  -3  14 2026.87 454.379   3
  -6   3 -14 1814.03 356.162  11
   6  -3  15 153.322 192.551   3
  -6   3 -15 1225.36 321.188  11
   6  -3  16 442.417 262.039   3
  -6   3 -16 1102.88 403.486   6
  -6   3 -16 333.591 227.152  11
  -6   3 -17 1163.06 369.944  11
  -6   3 -18 337.911 225.787  11
   6  -2 -14 617.128 294.936  11
   6  -2 -13 210.457 184.190   8
  -6   2  13 60.2032 185.520   1
   6  -2 -13 101.847 172.421  11
  -6   2  13 375.000 264.503  10
   6  -2 -12 3219.26 502.164   8
  -6   2  12 3096.34 556.767   1
   6  -2 -12 3608.24 536.019  11
  -6   2  12 2750.27 541.287  10
   6  -2 -11 1131.16 296.625   8
  -6   2  11 485.151 228.291   1
   6  -2 -11 982.310 290.741  11
  -6   2  11 625.457 285.152  10
   6  -2 -10 590.209 253.766   8
  -6   2  10 957.789 322.311   1
   6  -2 -10 603.020 237.940  11
  -6   2  10 312.320 245.721  10
   6  -2  -9 2954.30 457.844   8
  -6   2   9 2803.57 481.432   1
   6  -2  -9 2797.96 416.092  11
  -6   2   9 2576.26 459.490  10
   6  -2  -8 2331.85 365.952   8
  -6   2   8 3068.47 490.877   1
   6  -2  -8 2805.97 383.355  11
  -6   2   8 2715.93 331.261   5
  -6   2   8 2438.46 417.505  10
  -6   2   7 4635.65 415.132   5
  -6   2   7 4433.61 562.441   1
  -6   2   7 3655.68 480.201  10
   6  -2  -7 4445.66 504.398   8
  -6   2   6 4757.90 407.573   5
  -6   2   6 3647.16 503.190   1
  -6   2   6 4067.66 484.369  10
   6  -2  -6 4189.17 470.239   8
   6  -2  -5 174.225 154.599   8
  -6   2   5 192.489 186.140   1
  -6   2   5 35.3169 153.316  10
  -6   2   5 306.842 143.568   5
   6  -2  -4 487.782 211.078   8
  -6   2   4 380.138 224.369   1
  -6   2   4 385.812 156.045  10
  -6   2   4 299.140 123.233   5
   6  -2  -3 197.400 136.989   8
  -6   2   3 325.440 211.281   1
   6  -2  -3 319.816 64.8848   3
  -6   2   3 180.265 127.191  10
  -6   2   3 311.852 123.873   5
   6  -2  -2 9435.70 373.965   3
  -6   2   2 8831.22 550.329   5
  -6   2   2 8833.71 705.857   1
  -6   2   2 7948.22 605.815  10
   6  -2  -2 9529.27 634.916   8
   6  -2  -1 967.841 222.113   8
  -6   2   1 582.523 215.433   1
  -6   2   1 961.854 104.493   7
   6  -2  -1 877.610 135.244   3
  -6   2   1 844.196 192.460   5
  -6   2   1 1012.88 212.875  10
  -6   2   0 13945.4 459.049   7
   6  -2   0 13919.7 561.922   3
  -6   2   0 15409.5 887.103   1
  -6   2   0 13159.5 697.352   5
  -6   2   0 12058.0 702.712  10
   6  -2   0 12453.6 709.909   8
  -6   2  -1 1714.39 193.636   7
   6  -2   1 2060.64 236.883   3
   6  -2   1 2010.88 262.647   2
  -6   2  -1 1713.70 275.432   5
  -6   2  -1 1749.21 268.839  10
   6  -2   1 1604.77 274.264   8
   6  -2   2 419.899 154.443   3
   6  -2   2 565.961 177.494   2
  -6   2  -2 422.604 176.106   5
  -6   2  -2 435.891 156.157  10
   6  -2   2 213.060 109.267   8
   6  -2   3 2620.70 300.036   3
  -6   2  -3 2462.23 316.317  10
   6  -2   3 2405.77 292.939   2
   6  -2   3 2347.03 339.455   8
   6  -2   4 337.634 134.771   2
   6  -2   4 467.511 176.255   3
  -6   2  -4 304.133 141.711  10
  -6   2  -4 330.400 55.0684   9
   6  -2   4 334.358 138.826   8
   6  -2   5 106.457 67.1265   2
   6  -2   5 169.148 120.385   3
  -6   2  -5 152.407 96.3116  11
  -6   2  -5 142.160 123.651  10
   6  -2   5 281.758 162.547   8
   6  -2   6 378.043 121.978   2
   6  -2   6 403.706 177.069   3
  -6   2  -6 355.257 147.860  11
   6  -2   6 337.183 186.520   8
   6  -2   7 1695.53 301.475   3
  -6   2  -7 1914.97 278.025  11
   6  -2   7 1664.92 223.237   2
   6  -2   7 1759.51 328.299   8
   6  -2   8 129.589 128.682   3
  -6   2  -8 128.209 129.331  11
   6  -2   8 17.1969 159.145   8
   6  -2   8 117.200 82.4359   2
  -6   2  -9 146.415 138.525  11
   6  -2   9 53.5707 153.788   3
   6  -2   9 70.1531 58.2730   2
   6  -2   9-12.2507 139.398   8
   6  -2  10-194.391 241.175   3
  -6   2 -10 203.392 195.304  11
   6  -2  10 51.5824 76.2900   2
   6  -2  10-143.419 204.774   8
   6  -2  11 1127.32 312.300   3
  -6   2 -11 1165.47 279.730  11
   6  -2  11 397.151 227.633   8
   6  -2  12 1495.46 276.152   1
   6  -2  12 1456.35 342.764   3
  -6   2 -12 1470.13 325.732  11
   6  -2  13 1779.40 286.195   1
   6  -2  13 1272.96 325.491   3
  -6   2 -13 1704.62 363.327  11
   6  -2  14 143.974 173.504   3
  -6   2 -14 300.281 224.423  11
   6  -2  15 427.665 263.127   3
  -6   2 -15 815.278 316.921  11
   6  -2  16 939.124 348.453   3
  -6   2 -16 1398.45 389.165  11
   6  -2  17 353.139 278.596   3
  -6   2 -17 333.451 220.175  11
  -6   2 -18 131.688 249.986  11
   6  -1 -14 274.323 195.390  11
  -6   1  13 2405.22 524.304   1
   6  -1 -13 3052.18 526.335  11
  -6   1  13 3334.81 617.396  10
  -6   1  12 3091.44 574.016   1
   6  -1 -12 3235.90 523.167  11
  -6   1  12 2792.00 508.806  10
   6  -1 -11 354.297 226.879   8
  -6   1  11-107.584 198.894   1
   6  -1 -11 3.09621 142.709  11
  -6   1  11 370.635 260.719  10
   6  -1 -10 1430.76 344.806   8
  -6   1  10 1140.22 328.394   1
   6  -1 -10 1632.43 368.993  11
  -6   1  10 812.067 248.306  10
   6  -1  -9 4917.61 568.531  11
  -6   1   9 4612.24 612.468   1
  -6   1   9 3968.58 573.736  10
   6  -1  -9 4865.54 513.622   8
   6  -1  -8 216.341 153.870   8
  -6   1   8 141.157 149.903   1
  -6   1   8 113.570 197.288  10
  -6   1   7 10650.6 873.869   1
  -6   1   7 9480.78 518.762   5
  -6   1   7 9322.12 774.824  10
   6  -1  -7 9663.79 694.752   8
  -6   1   6 11245.2 558.149   5
  -6   1   6 11996.1 889.197   1
  -6   1   6 10854.6 802.791  10
   6  -1  -6 10571.7 697.329   8
   6  -1  -5 54.6887 107.389   8
  -6   1   5-207.066 206.048   1
  -6   1   5-122.097 137.144  10
  -6   1   5 133.102 83.1596   5
   6  -1  -4-29.4987 121.223   8
  -6   1   4 202.762 214.542   1
  -6   1   4-86.8401 127.319  10
  -6   1   4 34.3504 74.6973   5
  -6   1   3 3180.11 450.283   1
  -6   1   3 3127.51 298.382   5
  -6   1   3 3052.89 396.763  10
   6  -1  -3 3766.50 260.319   9
   6  -1  -3 3497.01 376.418   8
  -6   1   2 9308.72 724.974   1
  -6   1   2 8555.13 497.394   5
  -6   1   2 8051.92 609.787  10
   6  -1  -2 8315.64 336.187   9
   6  -1  -2 8299.45 554.720   8
  -6   1   1 3668.33 476.231   1
  -6   1   1 3777.23 346.444   5
  -6   1   1 3389.41 398.183  10
   6  -1  -1 3568.25 351.420   8
  -6   1   0 5774.90 254.364   7
   6  -1   0 5569.33 360.969   3
  -6   1   0 5470.62 412.324   5
  -6   1   0 5944.33 496.516  10
   6  -1   0 5752.55 489.863   2
   6  -1   0 5534.26 443.064   8
  -6   1  -1 7781.36 356.924   7
   6  -1   1 7636.21 447.043   3
  -6   1  -1 7495.01 504.784   5
  -6   1  -1 7237.69 552.929  10
   6  -1   1 8077.83 563.512   2
   6  -1   1 6889.85 497.087   8
  -6   1  -2 66.8148 63.6869   7
   6  -1   2 101.967 96.4166   2
   6  -1   2 299.616 130.017   3
  -6   1  -2 172.670 114.355  10
   6  -1   2 203.497 126.701   8
   6  -1   3 1738.16 260.897   2
   6  -1   3 1909.09 249.132   3
  -6   1  -3 1873.43 300.106  10
   6  -1   3 1628.92 248.477   8
   6  -1   4 544.278 162.452   2
   6  -1   4 648.759 185.635   3
  -6   1  -4 563.318 172.490  10
   6  -1   4 479.926 174.760   8
   6  -1   5-38.2266 83.0990   2
   6  -1   5-12.6477 124.699   3
  -6   1  -5-9.06561 126.727  11
   6  -1   5 58.2268 98.8588   8
   6  -1   6 5684.75 481.744   3
  -6   1  -6 5564.99 470.366  11
   6  -1   6 5942.39 430.306   2
   6  -1   6 5889.45 514.741   8
  -6   1  -7 3107.93 365.057  11
   6  -1   7 2943.52 372.929   3
   6  -1   7 3314.42 328.399   2
   6  -1   7 2938.54 394.152   8
   6  -1   8-104.502 168.534   3
  -6   1  -8-180.845 137.043  11
   6  -1   8 65.5452 160.196   8
   6  -1   8 150.893 90.7920   2
   6  -1   9 80.3711 137.770   3
  -6   1  -9 223.196 161.967  11
   6  -1   9 7.40477 69.5949   2
   6  -1   9 198.616 187.175   8
   6  -1  10 81.4168 173.765   3
  -6   1 -10 220.920 204.435  11
   6  -1  10-36.3015 85.4520   2
   6  -1  10-35.9335 157.294   8
   6  -1  11 483.869 201.922   3
  -6   1 -11 650.187 261.652  11
   6  -1  11 129.998 113.988   2
   6  -1  12 234.779 150.395   3
  -6   1 -12 269.987 160.394  11
   6  -1  12 382.310 119.885   2
   6  -1  13 2356.83 344.804   1
   6  -1  13 1663.36 352.014   3
  -6   1 -13 1977.48 389.242  11
   6  -1  14 254.793 171.264   1
   6  -1  14 72.5866 187.763   3
  -6   1 -14 24.7269 177.372  11
   6  -1  15 801.468 271.594   3
  -6   1 -15 1148.91 334.389  11
   6  -1  15 961.388 267.725   1
   6  -1  16-75.6181 174.609   3
  -6   1 -16-210.316 193.567  11
   6  -1  17 37.2630 212.278   3
  -6   1 -17 316.319 209.400  11
   6  -1  18 210.862 253.193   3
  -6   1 -18 56.0894 200.189  11
   6   0 -14 1106.27 338.628  11
  -6   0  13 1582.47 468.345   1
   6   0 -13 1708.05 400.279  11
  -6   0  13 1714.61 453.150  10
  -6   0  12-77.3572 214.952   1
   6   0 -12 145.028 176.499  11
  -6   0  12 409.587 267.882  10
  -6   0  11 160.950 216.671   1
   6   0 -11-128.917 190.994  11
  -6   0  11 58.2567 199.603  10
   6   0 -10 2425.89 382.346   8
  -6   0  10 1765.29 442.089   1
   6   0 -10 2695.62 474.305  11
  -6   0  10 2801.53 489.789  10
   6   0  -9 198.278 159.295   8
  -6   0   9 468.021 264.872   1
   6   0  -9 183.333 180.804  11
  -6   0   9 230.874 207.216  10
   6   0  -8 2263.41 337.595   8
  -6   0   8 2450.41 456.532   1
  -6   0   8 2350.86 421.513  10
   6   0  -7 2040.85 308.694   8
  -6   0   7 2078.25 416.514   1
  -6   0   7 1788.25 348.982  10
  -6   0   6 3217.51 487.338   1
  -6   0   6 3749.73 265.469   5
  -6   0   6 3247.49 470.095  10
   6   0  -6 3607.55 387.391   8
   6   0  -5 245.167 135.370   8
  -6   0   5-136.841 162.508   1
  -6   0   5 54.1504 131.347  10
  -6   0   5 15.5619 66.5773   5
  -6   0   4 14765.6 972.208   1
  -6   0   4 14608.9 541.231   5
  -6   0   4 13465.1 844.884  10
   6   0  -4 13740.3 694.202   8
  -6   0   3 10292.7 792.881   1
  -6   0   3 10086.1 467.153   5
  -6   0   3 9247.68 689.197  10
   6   0  -3 9918.07 578.597   8
  -6   0   2 916.906 243.074   1
   6   0  -2 773.108 184.006   8
  -6   0   2 567.663 196.385  10
  -6   0   2 995.881 166.098   5
   6   0  -2 633.045 127.620   9
  -6   0   1 6512.89 612.881   1
  -6   0   1 6600.45 410.690   5
  -6   0   1 6242.45 548.063  10
   6   0  -1 6507.00 544.796   2
   6   0  -1 6394.65 321.218   9
   6   0  -1 6508.19 451.504   8
  -6   0   0 2415.60 156.333   7
   6   0   0 1989.35 294.552   2
  -6   0   0 3002.79 296.361   5
  -6   0   0 2452.79 340.344  10
   6   0   0 2361.42 281.509   8
   6   0   1 758.827 193.365   2
  -6   0  -1 555.635 156.431  10
   6   0   1 323.272 118.505   8
   6   0   2 24.1004 103.926   2
  -6   0  -2 14.3338 147.156  10
  -6   0  -2 77.9737 34.7355   9
   6   0   2 33.7659 88.8568   8
  -6   0  -3 11109.9 685.197  10
   6   0   3 11587.0 653.252   2
  -6   0  -3 11247.4 370.952   9
   6   0   3 10432.5 593.693   8
   6   0   4 1699.10 262.228   2
  -6   0  -4 2179.33 317.639  10
  -6   0  -4 2036.90 180.695   9
   6   0   4 1674.75 255.851   8
   6   0   5 2980.77 350.944   3
   6   0   5 3242.49 348.284   2
   6   0   5 3440.26 365.915   8
   6   0   6 5902.39 504.019   3
  -6   0  -6 6251.58 503.665  11
   6   0   6 7372.17 491.061   2
   6   0   6 6626.20 527.391   8
   6   0   7 3925.77 420.513   3
  -6   0  -7 4795.20 456.172  11
   6   0   7 4521.37 400.119   2
   6   0   7 3938.75 433.079   8
   6   0   8 2000.03 336.572   3
  -6   0  -8 1822.62 305.741  11
   6   0   8 1576.30 297.431   8
   6   0   8 1396.26 241.393   2
   6   0   9 4036.15 463.663   3
  -6   0  -9 4899.50 495.698  11
   6   0   9 4565.28 399.752   2
   6   0   9 4067.67 516.206   8
   6   0  10 220.715 186.461   3
  -6   0 -10 14.1350 128.992  11
   6   0  10-36.3887 83.0954   2
   6   0  11 1715.79 325.485   3
  -6   0 -11 1303.24 312.205  11
   6   0  11 1321.34 265.742   2
   6   0  12 246.236 225.562   3
  -6   0 -12 323.425 193.434  11
   6   0  12-175.745 90.7522   2
   6   0  13 1058.84 314.363   3
  -6   0 -13 1514.71 351.593  11
   6   0  13 1695.08 270.539   2
   6   0  13 956.812 232.810   1
   6   0  14 459.745 232.125   3
  -6   0 -14 444.142 239.556  11
   6   0  14-36.9999 174.158   1
   6   0  15 247.685 178.615   1
   6   0  15 238.969 243.889   3
  -6   0 -15 314.331 207.247  11
   6   0  16 1376.68 369.492   3
  -6   0 -16 1277.87 354.862  11
   6   0  16 1325.27 321.363   1
   6   0  17 335.656 241.627   1
   6   0  17 216.147 198.459   3
  -6   0 -17-7.94671 194.144  11
   6   0  18 510.774 304.849   3
  -6   0 -18 52.3262 176.985  11
  -6  -1  13 1420.33 489.803   1
   6   1 -13 1898.30 472.892  11
  -6  -1  12 160.053 209.239   1
   6   1 -12 507.685 312.350  11
  -6  -1  12 613.961 325.270  10
  -6  -1  11 2352.50 530.582   1
   6   1 -11 2215.55 431.517  11
  -6  -1  11 1880.04 456.126  10
  -6  -1  10 494.416 285.160   1
   6   1 -10 756.780 294.115  11
  -6  -1  10 872.795 233.260  10
  -6  -1   9 588.275 287.469   1
  -6  -1   9 270.531 185.326  10
   6   1  -8 1911.20 301.045   8
  -6  -1   8 1947.62 436.574   1
  -6  -1   8 1805.47 377.184  10
   6   1  -7 797.572 188.773   8
  -6  -1   7 666.299 280.373   1
  -6  -1   7 444.343 231.603  10
   6   1  -6 830.431 185.873   8
  -6  -1   6 713.804 272.096   1
  -6  -1   6 250.405 180.751  10
  -6  -1   5 4770.89 528.456  10
  -6  -1   5 5015.46 606.742   1
   6   1  -5 5528.37 424.082   8
  -6  -1   4 20395.2 1139.54   1
  -6  -1   4 18420.1 453.242   5
  -6  -1   4 17091.7 965.357  10
   6   1  -4 18771.9 754.296   8
  -6  -1   3 168.163 148.709   1
   6   1  -3-3.43454 86.5500   8
   6   1  -3-28.3224 132.020   2
  -6  -1   3 52.6577 126.053  10
  -6  -1   3 102.638 54.9761   5
  -6  -1   2 10017.4 787.778   1
  -6  -1   2 10109.1 397.391   5
  -6  -1   2 9125.20 677.769  10
   6   1  -2 9277.28 687.726   2
   6   1  -2 8954.79 493.854   8
  -6  -1   1 973.318 79.2738   7
   6   1  -1 1545.46 292.940   2
  -6  -1   1 1015.98 142.080   5
  -6  -1   1 1334.25 287.411  10
   6   1  -1 1207.45 181.505   8
  -6  -1   0 458.793 79.2484   7
   6   1   0 457.524 153.346   2
  -6  -1   0 458.192 116.764   5
  -6  -1   0 372.546 165.756  10
  -6  -1   0 432.671 113.272   9
   6   1   0 351.408 117.109   8
   6   1   1 476.068 186.748   2
  -6  -1  -1 305.062 165.868  10
  -6  -1  -1 631.164 119.908   9
   6   1   1 456.645 129.403   8
  -6  -1  -2 8257.12 614.734  10
   6   1   2 8096.45 579.046   2
  -6  -1  -2 8670.97 390.013   9
   6   1   2 8699.28 483.503   8
  -6  -1  -3 7087.32 574.749  10
   6   1   3 7067.31 539.714   2
  -6  -1  -3 7312.59 364.433   9
   6   1   3 6909.31 442.412   8
   6   1   4-108.321 123.674   2
  -6  -1  -4 129.851 150.241  10
  -6  -1  -4 36.2232 58.5943   9
   6   1   4 11.2641 87.8596   8
  -6  -1  -5 15935.6 857.151  10
   6   1   5 16176.2 782.582   2
   6   1   5 15724.1 740.021   8
  -6  -1  -6 9747.74 634.588  11
   6   1   6 9171.15 597.442   2
   6   1   6 9877.82 606.577   8
   6   1   7 1817.25 279.713   2
  -6  -1  -7 1850.59 291.318  11
   6   1   7 1757.31 279.038   8
   6   1   8 8651.95 641.168   3
  -6  -1  -8 8816.68 640.365  11
   6   1   8 9454.28 603.619   2
   6   1   9 8637.23 667.430   3
  -6  -1  -9 9105.72 669.594  11
   6   1   9 8978.45 605.106   2
   6   1  10 1040.21 271.274   3
  -6  -1 -10 972.289 259.219  11
   6   1  10 1502.83 277.213   2
   6   1  11 144.607 197.813   3
  -6  -1 -11 124.144 171.852  11
   6   1  11 219.485 164.324   2
   6   1  12 107.223 164.765   3
  -6  -1 -12 447.818 246.227  11
   6   1  12 169.501 128.007   2
   6   1  13 260.644 212.459   3
  -6  -1 -13 320.442 236.180  11
   6   1  13-81.0874 122.768   2
   6   1  14 154.210 195.064   3
  -6  -1 -14 610.953 288.245  11
   6   1  14 274.063 132.940   2
   6   1  14 229.433 187.140   1
   6   1  15 2830.22 486.506   3
  -6  -1 -15 2600.70 470.043  11
   6   1  15 2773.49 428.547   1
   6   1  16 182.865 176.134   3
  -6  -1 -16 227.967 255.090  11
   6   1  16 378.080 216.493   1
   6   1  17 203.223 168.585   3
  -6  -1 -17 357.013 254.418  11
   6   1  17 106.786 154.394   1
   6   1  18 551.411 224.871   1
   6   1  18 563.642 286.897   3
  -6  -1 -18 134.455 230.689  11
   6   1  19-28.1337 166.914   1
   6   1  19 119.786 193.487   3
  -6  -2  13-205.075 251.388   1
  -6  -2  12 997.820 424.508   1
   6   2 -12 1713.48 423.883  11
  -6  -2  12 1468.43 423.802  10
  -6  -2  11 1659.14 462.681   1
   6   2 -11 1617.09 413.869  11
  -6  -2  11 1550.55 388.993  10
  -6  -2  10 102.884 221.373   1
   6   2 -10 426.451 326.964  11
  -6  -2  10-46.1795 188.600  10
  -6  -2   9 1959.20 470.671   1
  -6  -2   9 1054.57 330.520  10
  -6  -2   8 917.195 281.744   1
  -6  -2   8 1468.11 361.921  10
  -6  -2   7 1634.47 409.697   1
  -6  -2   7 1609.11 343.597  10
  -6  -2   6 236.859 215.941   1
   6   2  -6 275.933 181.138   2
  -6  -2   6 8.95585 142.929  10
  -6  -2   5 14214.8 1013.98   1
  -6  -2   5 12321.3 866.739  10
   6   2  -5 13041.3 895.043   2
   6   2  -5 14495.6 631.739   8
  -6  -2   4 19518.0 1193.32   1
  -6  -2   4 17189.7 997.823  10
   6   2  -4 18570.4 1018.83   2
   6   2  -4 19625.4 696.602   8
  -6  -2   3 7011.28 674.835   1
  -6  -2   3 5835.79 569.562  10
   6   2  -3 5955.03 574.593   2
   6   2  -3 6040.58 372.752   8
  -6  -2   2 12466.1 364.393   7
  -6  -2   2 11229.7 298.352   5
  -6  -2   2 10942.2 764.427  10
   6   2  -2 11298.5 757.717   2
   6   2  -2 11869.1 500.736   8
  -6  -2   1 840.751 109.979   7
   6   2  -1 567.378 187.350   2
  -6  -2   1 906.007 115.183   5
  -6  -2   1 833.062 243.616  10
  -6  -2   1 894.321 175.112   9
   6   2  -1 899.626 143.476   8
  -6  -2   0-1.94869 54.0903   7
   6   2   0 120.104 131.516   2
  -6  -2   0-55.7900 47.6107   5
  -6  -2   0 275.770 203.001  10
  -6  -2   0 0.56915 72.9509   9
   6   2   0 94.1195 78.8012   8
  -6  -2  -1 327.592 101.638   8
   6   2   1 379.256 190.821   2
  -6  -2  -1 360.518 89.6753   7
  -6  -2  -1 149.730 141.764  10
  -6  -2  -1 362.035 118.482   9
   6   2   1 269.295 91.2648   8
  -6  -2  -2 120.957 83.9683   8
   6   2   2-11.3990 130.960   2
  -6  -2  -2 10.5667 131.012  10
  -6  -2  -2 161.875 75.8676   9
   6   2   2 150.398 68.2070   8
   6   2   3 2586.90 356.556   2
  -6  -2  -3 2489.37 366.706  10
  -6  -2  -3 2703.75 265.367   9
   6   2   3 2826.99 273.424   8
  -6  -2  -4 8633.46 635.670  10
   6   2   4 8303.85 586.652   2
  -6  -2  -4 8177.80 452.160   9
   6   2   4 8899.53 505.438   8
  -6  -2  -5 12429.0 766.312  10
   6   2   5 11330.6 689.940   2
  -6  -2  -5 12498.5 581.412   9
   6   2   5 12421.0 627.764   8
   6   2   6 1921.81 297.439   2
  -6  -2  -6 1868.61 297.875  11
  -6  -2  -7 4761.83 474.636  11
   6   2   7 5409.83 477.835   2
  -6  -2  -8 12196.0 765.512  11
   6   2   8 13529.1 766.009   2
  -6  -2  -9 3780.15 448.156  11
   6   2   9 3439.90 387.755   2
  -6  -2 -10 1954.72 381.478  11
   6   2  10 1852.66 311.680   2
   6   2  11 4689.51 523.857   3
  -6  -2 -11 4814.10 539.223  11
   6   2  11 5244.88 508.829   2
   6   2  12-151.800 173.564   3
  -6  -2 -12 327.748 244.883  11
   6   2  12-94.4952 133.469   2
  -6  -2 -13 4499.11 590.575  11
   6   2  13 2675.16 446.854   3
   6   2  13 3604.95 447.650   2
   6   2  14 1245.23 336.384   3
  -6  -2 -14 2598.14 475.347  11
   6   2  14 1844.22 390.373   1
   6   2  14 1802.61 313.858   2
   6   2  15 5794.26 666.845   3
  -6  -2 -15 5519.14 672.485  11
   6   2  15 6623.51 612.227   2
   6   2  15 5073.01 625.136   1
   6   2  16 392.052 241.012   1
   6   2  16 122.703 176.282   3
  -6  -2 -16 190.054 258.994  11
   6   2  17 4404.67 628.340   3
  -6  -2 -17 4854.85 678.350  11
   6   2  17 3917.53 584.772   1
   6   2  18 520.808 203.555   3
  -6  -2 -18 491.359 294.940  11
   6   2  18 933.437 317.928   1
   6   2  19 153.051 183.923   1
   6   2  19 32.7111 197.833   3
  -6  -2 -19 651.367 360.073  11
   6   2  20 215.767 219.786   1
   6   3 -13 597.397 293.228   2
  -6  -3  12 195.705 299.550   1
   6   3 -12 684.204 321.976  11
   6   3 -12 677.154 294.131   2
  -6  -3  12 793.061 348.084  10
  -6  -3  11 300.464 273.656   1
   6   3 -11 518.906 296.645  11
   6   3 -11-64.0181 192.017   2
  -6  -3  11 557.652 316.026  10
  -6  -3  10 2361.80 524.385   1
   6   3 -10 2449.39 478.677   2
  -6  -3  10 2783.43 492.670  10
  -6  -3   9 213.603 247.765   1
   6   3  -9 73.8705 182.716   2
  -6  -3   9 437.165 267.731  10
  -6  -3   8 1411.14 409.764   1
   6   3  -8 1103.41 318.230   2
  -6  -3   8 741.513 287.858  10
  -6  -3   7 347.879 266.896   1
   6   3  -7 763.074 257.603   2
  -6  -3   7 977.672 328.506  10
  -6  -3   6 5197.74 648.499   1
  -6  -3   6 4420.19 579.927  10
   6   3  -6 4064.19 528.509   2
  -6  -3   5 7326.59 746.269   1
  -6  -3   5 6254.92 627.456  10
   6   3  -5 6118.50 620.905   2
   6   3  -4 69.4552 151.531   2
  -6  -3   4 183.229 161.804  10
  -6  -3   3 9359.78 405.559   7
  -6  -3   3 8101.59 677.324  10
   6   3  -3 8775.42 709.672   2
   6   3  -3 9060.33 378.038   8
  -6  -3   2 22324.7 643.649   7
  -6  -3   2 20270.7 1036.74  10
   6   3  -2 20640.2 1038.03   2
   6   3  -2 20965.4 538.882   8
  -6  -3   1 2344.77 224.929   7
   6   3  -1 2393.82 376.987   2
  -6  -3   1 2426.59 373.558  10
  -6  -3   1 1816.39 272.911   9
   6   3  -1 2299.03 174.989   8
  -6  -3   0 2079.89 222.834   7
   6   3   0 1593.45 288.824   2
  -6  -3   0 1863.31 159.362   5
  -6  -3   0 1468.30 279.214  10
  -6  -3   0 1594.59 256.118   9
   6   3   0 1938.01 165.701   8
   6   3   1 66.3532 145.330   2
  -6  -3  -1 34.8021 78.6098   7
  -6  -3  -1 169.706 153.192  10
  -6  -3  -1 94.6660 125.047   9
   6   3   1 166.807 68.0455   8
  -6  -3  -2 1332.75 157.768   8
   6   3   2 1438.64 294.988   2
  -6  -3  -2 1338.23 189.101   7
  -6  -3  -2 1200.08 289.472  10
  -6  -3  -2 1573.67 231.788   9
   6   3   2 1338.61 160.305   8
  -6  -3  -3 3115.50 404.878  10
   6   3   3 2848.84 376.418   2
  -6  -3  -3 3545.69 337.842   9
   6   3   3 3558.94 281.637   8
  -6  -3  -3 3685.46 283.418   8
  -6  -3  -4 5832.20 532.009  10
   6   3   4 5496.97 501.126   2
  -6  -3  -4 5771.35 426.841   9
  -6  -3  -5 14446.3 849.038  10
   6   3   5 14105.5 789.809   2
  -6  -3  -5 14864.4 685.671   9
   6   3   6 377.764 172.349   2
  -6  -3  -6 337.667 142.093   9
  -6  -3  -7 13402.7 831.431  11
   6   3   7 15318.0 847.696   2
  -6  -3  -8 1215.95 269.799  11
   6   3   8 1365.18 294.267   2
  -6  -3  -9 274.699 211.156  11
   6   3   9-105.651 143.674   2
  -6  -3 -10 10139.7 778.022  11
   6   3  10 10986.3 745.804   2
  -6  -3 -11 2598.06 431.576  11
   6   3  11 1826.99 336.442   2
  -6  -3 -12 1271.20 332.270  11
   6   3  12 775.133 233.329   2
   6   3  13 239.316 207.913   3
  -6  -3 -13 769.461 344.883  11
   6   3  13 229.690 174.997   2
   6   3  14 1502.84 361.040   3
   6   3  14 825.106 255.849   2
   6   3  15 1639.69 373.994   3
  -6  -3 -15 2021.20 441.987  11
   6   3  15 2105.82 391.439   2
   6   3  15 1764.15 384.656   1
   6   3  16 1213.85 349.045   3
  -6  -3 -16 1339.65 396.885  11
   6   3  16 1277.58 314.929   2
   6   3  16 1046.34 318.030   1
  -6  -3 -17 5491.61 726.288  11
   6   3  17 3714.72 556.065   3
   6   3  17 4108.75 607.216   1
   6   3  18 1521.48 423.599   3
  -6  -3 -18 1336.33 440.237  11
   6   3  18 1311.07 324.768   1
   6   3  19 552.239 277.573   3
   6   3  19 821.509 333.473   1
   6   3  20 1270.54 399.280   1
  -6  -4  12 191.386 216.618   1
   6   4 -12 553.057 295.990   2
  -6  -4  11 712.856 361.542   1
   6   4 -11-33.0631 187.384  11
   6   4 -11 183.111 224.362   2
  -6  -4  11 413.035 294.379  10
  -6  -4  10 12.3677 217.155   1
   6   4 -10 137.967 154.837   2
  -6  -4  10-58.0299 210.606  10
  -6  -4   9 201.117 254.371   1
   6   4  -9 381.030 245.941   2
  -6  -4   9 72.0865 189.917  10
   6   4  -8 1722.34 376.506   2
  -6  -4   8 943.763 339.930  10
  -6  -4   8 1530.53 421.198   1
   6   4  -7-259.208 233.295   2
  -6  -4   7 140.743 190.258  10
  -6  -4   7-394.481 237.818   1
   6   4  -6 644.990 244.241   2
  -6  -4   6 727.183 268.696  10
   6   4  -5 427.465 179.562   2
  -6  -4   5 143.069 154.062  10
  -6  -4   4 877.580 160.336   7
   6   4  -4 758.527 228.271   2
  -6  -4   4 462.714 209.991  10
  -6  -4   3 11325.3 549.839   7
  -6  -4   3 9906.84 778.317  10
   6   4  -3 10656.8 794.164   2
  -6  -4   2 5850.47 393.136   7
  -6  -4   2 5599.16 558.642  10
   6   4  -2 5351.78 565.201   2
  -6  -4   2 5453.13 501.631   9
  -6  -4   1 663.136 153.657   7
   6   4  -1 689.688 213.665   2
  -6  -4   1 599.044 251.177  10
  -6  -4   1 512.375 157.908   9
  -6  -4   0 3906.11 330.750   7
   6   4   0 3342.17 425.349   2
  -6  -4   0 3319.44 185.497   5
  -6  -4   0 3109.37 418.582  10
  -6  -4   0 3606.56 387.931   9
  -6  -4  -1 2808.87 289.652   7
   6   4   1 2812.23 389.709   2
  -6  -4  -1 3141.55 226.941   5
  -6  -4  -1 2818.72 416.785  10
  -6  -4  -1 2708.38 319.640   9
  -6  -4  -2 659.713 93.8585   8
   6   4   2 667.864 214.241   2
  -6  -4  -2 578.500 139.953   7
  -6  -4  -2 620.262 201.375  10
  -6  -4  -2 573.502 175.609   9
  -6  -4  -2 680.069 134.223   5
  -6  -4  -3 5849.76 440.374   7
  -6  -4  -3 5641.39 567.455  10
   6   4   3 6236.22 556.484   2
  -6  -4  -3 6281.70 488.950   9
  -6  -4  -3 6457.07 323.306   8
  -6  -4  -4 10388.6 723.902  10
   6   4   4 9115.44 662.624   2
  -6  -4  -4 10323.1 614.166   9
  -6  -4  -4 11409.9 470.200   8
  -6  -4  -5 17857.1 981.230  10
   6   4   5 19963.5 984.417   2
  -6  -4  -5 19653.2 859.932   9
   6   4   6 5923.98 555.495   2
  -6  -4  -6 5711.86 469.999   9
   6   4   7 7475.69 624.720   2
  -6  -4  -8 465.569 181.603  11
   6   4   8 676.747 230.375   2
  -6  -4  -9 2258.26 370.677  11
   6   4   9 2615.40 389.831   2
  -6  -4 -10 1538.75 320.851  11
   6   4  10 2041.49 346.719   2
  -6  -4 -11 2761.18 482.712  11
   6   4  11 1373.72 309.119   2
  -6  -4 -12 640.518 293.218  11
   6   4  12 631.367 256.392   2
  -6  -4 -13 5023.89 649.630  11
   6   4  13 4497.99 536.495   2
   6   4  14-258.326 181.583   3
   6   4  14 112.969 142.469   2
   6   4  15 595.386 244.009   3
  -6  -4 -15 1360.78 386.025  11
   6   4  15 845.761 270.730   1
   6   4  15 731.931 271.100   2
   6   4  16 3477.13 548.186   1
   6   4  16 3468.26 527.468   3
  -6  -4 -16 4556.43 620.977  11
   6   4  16 3489.23 530.395   2
   6   4  17 1923.20 417.681   1
   6   4  17 1135.54 332.163   3
  -6  -4 -17 2541.41 532.319  11
   6   4  18 319.315 207.523   3
   6   4  18 189.164 222.431   1
   6   4  19 2632.68 535.422   3
   6   4  19 2685.28 525.479   1
   6   5 -12 149.685 293.913   2
  -6  -5  12 225.792 314.276   1
   6   5 -11 223.936 213.280   2
  -6  -5  11-137.185 276.748  10
  -6  -5  11 409.726 341.481   1
   6   5 -10-392.160 281.727   2
  -6  -5  10-118.125 227.883  10
   6   5  -9 1506.41 359.297   2
  -6  -5   9 1823.54 446.421  10
   6   5  -8 237.841 211.978   2
  -6  -5   8 44.0911 225.099  10
   6   5  -7-120.959 212.195   2
  -6  -5   7 106.746 203.122  10
   6   5  -6 299.986 210.050   2
  -6  -5   6 110.947 182.898  10
   6   5  -5 357.499 234.304   2
  -6  -5   5-322.554 173.026  10
  -6  -5   4 423.945 144.703   7
   6   5  -4 295.539 185.328   2
  -6  -5   4 493.105 217.038  10
  -6  -5   3 169.039 116.903   7
   6   5  -3-52.5888 135.556   2
  -6  -5   3-70.8007 148.317  10
  -6  -5   3-122.904 142.180   9
  -6  -5   2 1695.42 254.237   7
   6   5  -2 1452.67 309.430   2
  -6  -5   2 1009.51 313.074  10
  -6  -5   2 1515.55 294.010   9
  -6  -5   1 308.052 126.684   7
   6   5  -1 408.653 203.554   2
  -6  -5   1 227.853 162.705  10
  -6  -5   1 505.608 195.752   9
   6   5   0 1721.84 321.515   2
  -6  -5   0 1980.49 263.457   7
  -6  -5   0 1681.49 350.920  10
  -6  -5   0 1753.07 297.938   9
   6   5   1 397.400 199.130   2
  -6  -5  -1 205.169 107.604   7
  -6  -5  -1 194.854 187.339  10
  -6  -5  -1 76.7636 153.263   9
  -6  -5  -2 2761.54 322.071   7
   6   5   2 2874.22 407.471   2
  -6  -5  -2 3275.59 265.355   5
  -6  -5  -2 2544.89 398.862  10
  -6  -5  -2 3024.43 370.587   9
   6   5   3 991.612 258.549   2
  -6  -5  -3 1130.55 231.442   7
  -6  -5  -3 854.071 247.586  10
  -6  -5  -3 918.797 232.084   9
  -6  -5  -3 1323.65 122.403   8
  -6  -5  -4 7234.19 531.359   7
  -6  -5  -4 7240.91 612.917  10
   6   5   4 6742.82 621.990   2
  -6  -5  -4 7388.17 574.650   9
  -6  -5  -4 8244.64 361.506   8
   6   5   5-108.320 139.578   2
  -6  -5  -5-120.981 154.637   7
  -6  -5  -5-244.383 214.574  10
  -6  -5  -5-127.947 119.001   9
  -6  -5  -5-80.8542 53.8195   8
  -6  -5  -6 5145.72 536.281  10
   6   5   6 5255.14 543.615   2
  -6  -5  -6 5209.54 489.051   9
   6   5   7 8971.81 702.432   2
  -6  -5  -7 9551.57 668.836   9
  -6  -5  -8-379.112 300.392  11
   6   5   8 319.146 200.220   2
  -6  -5  -9 6789.75 624.549  11
   6   5   9 7094.88 645.453   2
  -6  -5 -10 454.183 183.995  11
   6   5  10 1083.93 258.609   2
  -6  -5 -11 7462.08 712.545  11
   6   5  11 8894.30 754.545   2
  -6  -5 -12 6064.61 671.334  11
   6   5  12 6386.66 663.805   2
  -6  -5 -13 5528.54 651.805  11
   6   5  13 4956.42 596.545   2
  -6  -5 -14 719.825 303.107  11
   6   5  14 90.3639 201.600   2
   6   5  15 233.920 229.733   1
  -6  -5 -15 366.517 302.722  11
   6   5  15 379.003 208.615   2
   6   5  16 574.982 329.675   1
   6   5  16 714.479 271.008   3
  -6  -5 -16 630.199 360.959  11
   6   5  16 457.742 240.386   2
   6   5  17 1892.40 412.706   3
   6   5  17 2375.60 489.796   1
  -6  -5 -17 3151.19 594.085  11
   6   5  18-132.192 190.415   1
   6   5  18-94.3109 250.838   3
   6   5  19 3769.46 613.228   3
   6   5  19 3653.30 655.185   1
  -6  -6  10 5500.84 874.938  10
   6   6 -10 6735.80 759.619   2
   6   6  -9 410.244 216.909   2
  -6  -6   9 339.388 280.656  10
   6   6  -8 486.090 210.528   2
  -6  -6   8 954.031 329.097  10
   6   6  -7 1548.36 368.247   2
  -6  -6   7 1243.96 354.320  10
   6   6  -6 3044.26 476.861   2
  -6  -6   6 2402.47 476.638  10
   6   6  -5-182.539 204.486   2
  -6  -6   5-88.7471 176.418  10
  -6  -6   4-45.9254 106.401   7
   6   6  -4 102.239 143.741   2
  -6  -6   4 50.4113 146.710  10
  -6  -6   3 1114.31 231.303   7
   6   6  -3 855.328 248.215   2
  -6  -6   3 1246.90 297.640  10
  -6  -6   3 754.409 254.253   9
  -6  -6   2 204.413 128.691   7
   6   6  -2-61.6857 155.227   2
  -6  -6   2 420.546 240.320  10
  -6  -6   2 22.4831 142.618   9
   6   6  -1 210.518 162.907   2
  -6  -6   1 114.699 100.146   7
  -6  -6   1 374.397 216.206  10
  -6  -6   1-16.3070 163.911   9
   6   6   0 1186.23 280.613   2
  -6  -6   0 844.181 211.833   7
  -6  -6   0 849.783 247.849  10
  -6  -6   0 1087.89 271.359   9
   6   6   1-141.626 154.201   2
  -6  -6  -1 41.1290 115.768   7
  -6  -6  -1 190.104 170.313  10
  -6  -6  -1-155.259 175.937   9
   6   6   2 503.156 206.846   2
  -6  -6  -2 336.585 156.589   7
  -6  -6  -2 486.972 202.506  10
  -6  -6  -2 521.578 225.094   9
   6   6   3 721.674 242.926   2
  -6  -6  -3 1010.55 243.734   7
  -6  -6  -3 570.058 226.237  10
  -6  -6  -3 821.126 233.864   9
   6   6   4 204.261 222.916   2
  -6  -6  -4 158.582 141.040   7
  -6  -6  -4 335.549 193.212  10
  -6  -6  -4 136.497 157.419   9
   6   6   5 121.295 168.762   2
  -6  -6  -5 269.907 163.509   7
  -6  -6  -5 31.2000 160.004  10
  -6  -6  -5 14.0037 143.461   9
   6   6   6 179.768 168.441   2
  -6  -6  -6 194.330 168.093   7
  -6  -6  -6 106.503 176.991  10
  -6  -6  -6 317.358 176.512   9
  -6  -6  -7 390.803 193.564  10
  -6  -6  -7 263.630 170.107   9
   6   6   7 269.417 168.679   2
  -6  -6  -8 1785.63 318.081   9
   6   6   8 1738.54 325.105   2
  -6  -6  -9-421.674 315.599  11
   6   6   9 217.669 144.770   2
  -6  -6 -10 8164.88 726.522  11
   6   6  10 9381.54 785.153   2
  -6  -6 -11 569.068 184.843  11
   6   6  11 1207.87 311.015   2
  -6  -6 -12 3684.97 522.989  11
   6   6  12 4034.34 539.670   2
  -6  -6 -13 5489.91 642.319  11
   6   6  13 4985.20 618.890   2
  -6  -6 -14 12.4383 201.949  11
   6   6  14-178.445 190.511   2
  -6  -6 -15 2332.32 484.988  11
   6   6  15 1304.87 398.536   1
   6   6  15 1978.97 430.401   2
   6   6  16 233.269 224.745   1
   6   6  16 125.190 184.546   2
   6   6  17 2042.23 430.799   3
  -6  -6 -17 2936.71 577.102  11
   6   6  17 2485.03 520.275   1
   6   6  17 1757.84 410.228   2
   6   6  18 41.5894 189.114   1
   6   6  18 192.031 169.729   3
   6   6  19 773.001 283.178   3
   6   7  -9-107.027 210.354   2
  -6  -7   9 30.3936 206.073  10
   6   7  -8 2086.44 447.123   2
  -6  -7   8 1427.71 398.278  10
   6   7  -7 3743.34 600.713   4
   6   7  -7 3397.09 546.065   2
  -6  -7   7 3107.25 525.304  10
   6   7  -6 506.272 262.861   4
   6   7  -6 174.859 133.785   2
  -6  -7   6 341.420 263.702  10
   6   7  -5 1278.71 346.087   4
   6   7  -5 1186.06 321.286   2
  -6  -7   5 1868.19 397.593  10
   6   7  -4 2932.98 510.782   4
  -6  -7   4 2270.28 348.207   7
   6   7  -4 2481.75 432.872   2
  -6  -7   4 2784.41 483.026  10
   6   7  -3 346.438 186.004   4
  -6  -7   3 249.179 160.175   7
   6   7  -3 167.715 129.976   2
  -6  -7   3 259.459 189.648  10
  -6  -7   3-112.671 222.454   9
   6   7  -2 10.8698 147.496   4
   6   7  -2 70.9935 161.456   2
  -6  -7   2 32.8090 120.251   7
  -6  -7   2 235.285 194.279  10
  -6  -7   2 21.2011 153.873   9
   6   7  -1 2591.91 454.782   4
   6   7  -1 2562.82 421.102   2
  -6  -7   1 2848.14 381.838   7
  -6  -7   1 2907.39 434.422  10
  -6  -7   1 2732.13 424.777   9
  -6  -7   0 2916.24 402.926   7
   6   7   0 3620.75 494.758   2
  -6  -7   0 3242.63 465.613  10
  -6  -7   0 2856.87 423.282   9
   6   7   1 619.770 246.097   2
  -6  -7  -1 812.092 223.303   7
  -6  -7  -1 770.600 237.430  10
  -6  -7  -1 636.236 202.697   9
  -6  -7  -2 5067.81 503.808   7
  -6  -7  -2 4714.29 531.526  10
   6   7   2 4904.97 559.808   2
  -6  -7  -2 4772.43 527.490   9
  -6  -7  -3 5279.10 533.146   7
  -6  -7  -3 6009.24 614.567  10
   6   7   3 5507.21 591.207   2
  -6  -7  -3 5502.32 577.712   9
   6   7   4 286.142 187.373   2
  -6  -7  -4 119.660 121.681   7
  -6  -7  -4-101.150 180.736  10
  -6  -7  -4-9.12697 138.773   9
   6   7   5 140.024 194.603   2
  -6  -7  -5 157.200 138.820   7
  -6  -7  -5 39.0410 170.191  10
  -6  -7  -5 313.291 202.206   9
  -6  -7  -6 2126.97 349.500   7
  -6  -7  -6 1421.97 300.892  10
  -6  -7  -6 1311.18 293.432   9
   6   7   6 1503.54 343.199   2
  -6  -7  -7 284.463 212.102   7
  -6  -7  -7-69.6477 158.179  10
  -6  -7  -7 17.3807 178.255   9
   6   7   7 2.09585 142.854   2
  -6  -7  -8 1618.11 353.237   7
  -6  -7  -8 2085.21 376.105   9
   6   7   8 1870.58 351.446   2
  -6  -7  -9 4539.58 543.081   9
   6   7   9 3064.91 467.965   2
  -6  -7 -10-196.750 259.771  11
  -6  -7 -10 323.588 232.258   9
   6   7  10 111.969 213.965   2
  -6  -7 -11 635.818 177.791  11
   6   7  11 1742.49 380.420   2
  -6  -7 -12-19.0005 257.607  11
   6   7  12 395.999 211.483   2
  -6  -7 -13-42.1272 170.513  11
   6   7  13 49.8799 163.123   2
  -6  -7 -14 2829.08 504.654  11
   6   7  14 2880.53 497.163   2
  -6  -7 -15 1282.88 380.463  11
   6   7  15 549.377 276.224   1
   6   7  15 782.124 310.649   2
  -6  -7 -16 2679.49 536.982  11
   6   7  16 1828.34 452.909   1
   6   7  16 1996.15 411.762   2
   6   7  17 369.059 206.008   1
   6   7  17 273.172 159.483   2
   6   7  18 614.356 265.238   3
  -6  -7 -18 2009.17 547.998  11
   6   7  19 1336.63 405.989   3
  -6  -8   9 339.306 305.226  10
   6   8  -8 2927.04 561.141   4
  -6  -8   8 1718.04 447.088  10
   6   8  -7 108.093 292.691   4
   6   8  -7-205.532 197.128   2
  -6  -8   7-160.667 235.831  10
   6   8  -6 2186.40 476.113   4
   6   8  -6 2175.28 423.036   2
  -6  -8   6 1082.46 338.424  10
   6   8  -5 1165.49 348.930   4
   6   8  -5 1953.70 412.065   2
  -6  -8   5 1672.10 435.535  10
   6   8  -4 763.727 362.270   4
   6   8  -4 638.551 282.111   2
  -6  -8   4 591.009 231.808   7
  -6  -8   4 294.327 219.664  10
   6   8  -3-176.100 184.745   4
   6   8  -3 83.0192 193.138   2
  -6  -8   3-60.9411 144.566   7
  -6  -8   3-19.3046 181.231  10
  -6  -8   3-101.254 187.474   9
   6   8  -2 1434.48 393.051   4
   6   8  -2 1540.64 330.107   2
  -6  -8   2 1921.88 354.789   7
  -6  -8   2 1764.97 350.527  10
  -6  -8   2 1313.92 345.980   9
  -6  -8   1 6439.67 613.181   7
  -6  -8   1 6362.99 645.136  10
   6   8  -1 6337.19 661.234   2
  -6  -8   1 6934.53 699.825   9
   6   8  -1 6399.85 714.049   4
   6   8   0-161.222 217.880   4
   6   8   0 181.952 149.475   2
  -6  -8   0 322.746 193.599   7
  -6  -8   0-184.085 206.723  10
  -6  -8   0 217.614 193.091   9
  -6  -8  -1 5527.90 561.267   7
  -6  -8  -1 4828.00 559.354  10
   6   8   1 4869.66 589.453   2
  -6  -8  -1 5194.47 602.004   9
   6   8   1 5202.69 638.868   4
  -6  -8  -2 18731.4 1032.45   7
  -6  -8  -2 18359.2 1040.69  10
   6   8   2 17634.0 1088.55   2
  -6  -8  -2 18148.6 1087.47   9
   6   8   3 2716.13 451.069   2
  -6  -8  -3 2883.47 426.665   7
  -6  -8  -3 2456.98 400.107  10
  -6  -8  -3 2060.01 395.203   9
   6   8   4 3528.28 490.964   2
  -6  -8  -4 4079.20 506.096   7
  -6  -8  -4 4347.07 509.526  10
  -6  -8  -4 4104.91 526.028   9
  -6  -8  -5 125.280 151.838   7
  -6  -8  -5-191.356 177.340  10
  -6  -8  -5-102.149 173.097   9
   6   8   5 221.490 194.852   2
  -6  -8  -6 65.3976 190.057   7
  -6  -8  -6-69.6379 156.274  10
  -6  -8  -6-66.6377 173.379   9
   6   8   6 114.127 178.092   2
  -6  -8  -7 1793.14 355.696   7
  -6  -8  -7 1886.01 368.694  10
  -6  -8  -7 1726.29 337.158   9
   6   8   7 1939.32 384.827   2
  -6  -8  -8 1055.90 290.685   7
  -6  -8  -8 491.840 232.749  10
  -6  -8  -8 615.753 246.448   9
   6   8   8 846.208 282.890   2
  -6  -8  -9 4602.45 573.320   7
   6   8   9 3829.68 547.174   2
  -6  -8  -9 4984.54 626.382   9
  -6  -8 -10 41.4124 182.981   7
  -6  -8 -10 201.415 166.702   9
   6   8  10-146.607 231.719   2
   6   8  11 1528.03 376.105   2
  -6  -8 -11 847.273 279.041   9
  -6  -8 -12-117.327 277.112  11
   6   8  12 122.998 218.206   2
  -6  -8 -13-115.020 250.588  11
   6   8  13 575.331 260.491   2
  -6  -8 -14-619.949 392.602  11
   6   8  14 249.932 255.001   2
   6   8  15 3187.20 580.507   1
  -6  -8 -15 2561.54 458.372  11
   6   8  15 3030.11 556.836   2
  -6  -8 -16 134.842 227.229  11
   6   8  16 167.890 230.006   1
   6   8  16 124.181 169.102   2
  -6  -8 -17-15.5077 233.439  11
   6   8  17 300.818 278.556   1
   6   8  17 295.969 233.210   2
  -6  -9   8 1966.01 516.549  10
  -6  -9   7-14.9235 249.784  10
  -6  -9   6 526.617 246.190  10
   6   9  -5-185.577 265.771   4
   6   9  -5 44.6222 162.634   2
  -6  -9   5 410.873 254.493  10
   6   9  -4-38.5101 165.760   4
   6   9  -4 46.1814 151.527   2
  -6  -9   4 269.214 236.308   7
  -6  -9   4 144.743 184.106  10
   6   9  -3 112.391 186.058   4
   6   9  -3 251.921 197.065   2
  -6  -9   3 78.8397 157.338   7
  -6  -9   3 362.016 201.931  10
  -6  -9   3 610.207 306.412   9
   6   9  -2 977.355 314.652   4
   6   9  -2 891.564 300.674   2
  -6  -9   2 775.942 282.420   7
  -6  -9   2 887.129 240.575  10
  -6  -9   2 1028.04 312.767   9
   6   9  -1 92.3209 170.379   4
   6   9  -1 113.867 137.467   2
  -6  -9   1 249.489 197.654   7
  -6  -9   1 179.759 186.902  10
  -6  -9   1 237.966 220.227   9
   6   9   0 526.571 244.605   2
   6   9   0 944.801 354.372   4
  -6  -9   0 508.360 190.667   7
  -6  -9   0 595.831 214.837  10
  -6  -9   0 509.937 238.960   9
  -6  -9  -1 7130.58 677.442   7
  -6  -9  -1 7760.50 695.945  10
   6   9   1 6962.22 715.543   2
  -6  -9  -1 7242.89 740.736   9
   6   9   1 7104.21 768.783   4
  -6  -9  -2 5017.93 586.033   7
  -6  -9  -2 5584.53 610.565  10
   6   9   2 5080.88 616.295   2
  -6  -9  -2 4677.14 606.376   9
   6   9   2 5889.30 684.792   4
   6   9   3 3259.00 504.000   2
  -6  -9  -3 3034.59 461.469   7
  -6  -9  -3 2130.21 398.186  10
  -6  -9  -3 2394.68 447.795   9
  -6  -9  -4 4435.41 548.735   7
  -6  -9  -4 4002.52 539.266  10
   6   9   4 4546.26 575.112   2
  -6  -9  -4 5166.47 626.147   9
  -6  -9  -5 1389.66 337.698   7
  -6  -9  -5 1350.76 312.470  10
  -6  -9  -5 1225.40 307.396   9
   6   9   5 896.364 240.745   2
  -6  -9  -6 363.694 243.284   7
  -6  -9  -6 190.897 163.787  10
  -6  -9  -6 95.8473 163.911   9
   6   9   6 98.4562 147.239   2
  -6  -9  -7 1128.81 302.721   7
  -6  -9  -7 959.594 322.427  10
  -6  -9  -7 1986.10 408.487   9
   6   9   7 1865.99 388.191   2
  -6  -9  -8 4028.74 566.303   7
  -6  -9  -8 4130.23 538.346  10
   6   9   8 3905.60 560.162   2
  -6  -9  -8 3942.79 551.572   9
  -6  -9  -9 928.762 295.492   7
  -6  -9  -9 1024.40 291.844  10
  -6  -9  -9 1154.94 334.889   9
   6   9   9 735.777 242.093   2
  -6  -9 -10 1339.67 327.810   7
  -6  -9 -10 1508.44 387.444   9
   6   9  10 1104.77 341.265   2
  -6  -9 -11 4207.34 599.853   7
   6   9  11 3476.82 557.545   2
  -6  -9 -11 4328.06 586.779   9
  -6  -9 -12-165.212 189.262   7
   6   9  12-102.287 163.338   2
  -6  -9 -12 203.316 243.491   9
  -6  -9 -13-165.779 220.139   7
   6   9  13 180.444 189.278   2
  -6  -9 -13-184.584 226.122   9
  -6  -9 -14 126.108 259.164  11
   6   9  14 1114.10 366.019   2
  -6  -9 -15 1070.91 314.336  11
   6   9  15 1991.89 481.238   1
   6   9  15 1862.01 484.703   2
   6   9  16 301.352 288.529   1
   6   9  16 190.489 207.650   2
  -6  -9 -17-701.963 395.131  11
  -6 -10   4 688.808 194.626  10
   6  10  -3-62.4237 204.351   2
   6  10  -3 528.495 325.532   4
  -6 -10   3 68.5494 176.162   7
  -6 -10   3 269.840 199.861  10
  -6 -10   3 197.264 203.852   9
   6  10  -2 506.115 278.022   2
   6  10  -2 415.133 292.905   4
  -6 -10   2 719.601 280.047   7
  -6 -10   2 120.216 221.055  10
  -6 -10   2 630.825 285.753   9
   6  10  -1 731.484 279.400   2
   6  10  -1 192.027 211.041   4
  -6 -10   1 197.290 186.450   7
  -6 -10   1 377.926 243.079  10
  -6 -10   1 765.371 339.927   9
   6  10   0 491.851 269.207   2
   6  10   0 484.146 255.596   4
  -6 -10   0 840.672 301.766   7
  -6 -10   0 739.433 262.170  10
  -6 -10   0 582.173 273.949   9
   6  10   1 4275.98 633.863   4
  -6 -10  -1 5027.55 606.553   7
  -6 -10  -1 4210.62 547.849  10
   6  10   1 5081.40 636.706   2
  -6 -10  -1 4320.06 586.816   9
   6  10   2 212.128 218.036   4
  -6 -10  -2 44.3311 197.605   7
  -6 -10  -2 493.073 243.652  10
  -6 -10  -2 70.1796 197.200   9
   6  10   2-81.0676 177.147   2
   6  10   3 1347.29 396.990   4
  -6 -10  -3 927.034 285.403   7
  -6 -10  -3 1245.05 327.596  10
  -6 -10  -3 1525.72 383.338   9
   6  10   3 1393.46 352.728   2
   6  10   4 1271.91 355.744   4
  -6 -10  -4 1170.39 338.987   7
  -6 -10  -4 582.586 228.266  10
  -6 -10  -4 1144.50 314.345   9
   6  10   4 797.988 291.094   2
  -6 -10  -5 544.596 267.157   7
  -6 -10  -5 638.804 235.621  10
  -6 -10  -5 24.5262 191.384   9
   6  10   5 677.097 303.248   2
  -6 -10  -6 134.019 164.799   7
  -6 -10  -6 315.285 188.657  10
  -6 -10  -6 597.536 245.998   9
   6  10   6 356.252 246.712   2
  -6 -10  -7 5116.79 642.401   7
  -6 -10  -7 4640.39 601.312  10
   6  10   7 5053.43 638.512   2
  -6 -10  -7 4840.68 636.841   9
  -6 -10  -8 969.922 287.587   7
  -6 -10  -8 890.448 281.129  10
  -6 -10  -8 678.229 304.369   9
   6  10   8 1192.37 352.864   2
  -6 -10  -9 992.971 329.130   7
  -6 -10  -9 465.250 258.850  10
  -6 -10  -9 246.491 176.292   9
   6  10   9 636.013 298.305   2
  -6 -10 -10 4498.18 616.227   7
   6  10  10 4788.98 662.398   2
  -6 -10 -10 3379.23 550.531  10
  -6 -10 -10 5330.69 670.563   9
  -6 -10 -11 3513.43 566.392   7
   6  10  11 3988.54 615.643   2
  -6 -10 -11 3101.88 560.838   9
  -6 -10 -12 356.282 224.348   7
   6  10  12-253.205 221.009   2
  -6 -10 -12 138.643 311.842   9
  -6 -10 -13 5688.66 709.506   7
   6  10  13 5373.16 731.516   2
  -6 -10 -13 5235.01 714.584   9
   6  10  14 3821.71 646.659   1
  -6 -10 -14 4341.15 674.865   7
   6  10  14 3489.86 610.440   2
  -6 -10 -14 3769.71 617.297   9
  -6 -10 -15-866.593 438.430  11
  -6 -10 -16-697.323 425.101  11
  -6 -11   3 878.941 343.533   7
  -6 -11   2 661.405 332.707   7
   6  11  -1-52.3817 186.846   2
  -6 -11   1 227.179 241.011   7
  -6 -11   1 364.747 265.314   9
   6  11   0 1983.64 462.311   4
  -6 -11   0 2096.44 423.627   7
  -6 -11   0 1615.07 387.171   9
   6  11   0 2131.75 437.959   2
   6  11   1 1999.19 497.010   4
  -6 -11  -1 1785.84 413.418   7
  -6 -11  -1 1609.88 410.462   9
   6  11   1 2567.59 503.491   2
   6  11   2-77.2475 173.641   4
  -6 -11  -2 18.0315 188.076   7
  -6 -11  -2-244.646 242.361   9
   6  11   2 3.58884 196.654   2
   6  11   3 8.66115 204.442   4
  -6 -11  -3-490.485 272.782   7
  -6 -11  -3 200.084 217.462   9
   6  11   3 195.032 202.313   2
   6  11   4 536.179 280.596   4
  -6 -11  -4 804.734 299.305   7
  -6 -11  -4 586.775 228.393  10
  -6 -11  -4 348.830 238.607   9
   6  11   4 801.387 297.549   2
  -6 -11  -5 746.475 268.491   7
  -6 -11  -5 624.584 266.305  10
  -6 -11  -5 992.974 361.219   9
   6  11   5 1047.63 339.839   2
  -6 -11  -6 1269.75 351.629   7
  -6 -11  -6 1447.28 348.883  10
  -6 -11  -6 2640.41 520.019   9
   6  11   6 1320.13 347.545   2
  -6 -11  -7 302.379 211.412   7
  -6 -11  -7 507.942 224.997  10
   6  11   7-56.1021 221.190   2
  -6 -11  -8-218.256 221.124   7
  -6 -11  -8 85.5928 160.030  10
  -6 -11  -8 201.551 218.708   9
   6  11   8 22.6739 206.480   2
  -6 -11  -9 14.7991 239.542   7
  -6 -11  -9 264.606 176.246  10
  -6 -11  -9 306.532 328.252   9
   6  11   9 66.0961 224.052   2
  -6 -11 -10 518.132 297.474   7
  -6 -11 -10 2.03030 149.980  10
  -6 -11 -10 661.831 304.606   9
   6  11  10 515.924 211.883   2
  -6 -11 -11 371.282 268.026   7
  -6 -11 -11 1069.94 339.142  10
   6  11  11 607.384 286.310   2
  -6 -11 -11 425.844 315.565   9
  -6 -11 -12 732.705 271.125   7
  -6 -11 -12 379.667 251.337  10
   6  11  12 714.672 344.994   2
  -6 -11 -12 497.245 290.712   9
  -6 -12   2 291.892 219.503   7
  -6 -12   1 1347.88 446.756   7
  -6 -12   0 1172.55 366.173   7
  -6 -12  -1-94.1042 201.353   7
   6  12   1-99.6082 151.110   2
  -6 -12  -2 177.583 186.703   7
   6  12   2 162.081 243.425   2
   6  12   3 455.762 302.214   4
  -6 -12  -3 1242.94 419.207   7
   6  12   3 436.320 235.265   2
   6  12   4 547.715 273.608   4
  -6 -12  -4 945.908 323.373   7
  -6 -12  -4 1120.85 376.777   9
   6  12   4 1034.93 355.372   2
   6  12   5 614.673 323.210   4
  -6 -12  -5 298.159 288.053   7
  -6 -12  -5 198.969 222.079   9
   6  12   5 129.015 166.150   2
  -6 -12  -6 2617.53 503.789   7
  -6 -12  -6 2512.33 536.438   9
   6  12   6 2072.81 452.610   2
  -6 -12  -7 1151.39 348.911   7
  -6 -12  -7 846.331 333.393   9
   6  12   7 1031.53 372.123   2
  -6 -12  -8 291.941 258.281   7
  -6 -12  -8 1140.45 355.994   9
   6  12   8 447.303 295.322   2
  -6 -12  -9 200.219 209.963   7
   6  12   9 557.807 277.940   2
   6  13   3 2313.35 507.743   2
   6  13   4-21.4391 183.861   2
   6  13   5 2279.29 479.847   2
  -7  10   3 788.327 320.998   5
  -7  10   2 125.267 278.268   5
  -7  10   1 632.333 326.635   5
  -7  10   0 8.76942 180.138   5
  -7   9   9 1296.94 389.755   5
  -7   9   8 426.945 280.961   5
  -7   9   7 2560.30 519.226   5
  -7   9   6 660.096 273.807   5
   7  -9  -5 1580.75 418.379   8
  -7   9   5 1962.29 471.377   5
   7  -9  -4 953.791 345.075   8
  -7   9   4 349.979 262.523   5
   7  -9  -3 2685.21 541.542   8
  -7   9   3 3104.78 551.042   5
   7  -9  -2 1672.40 438.842   8
  -7   9   2 1370.59 378.706   5
  -7   9   1-114.714 180.915   5
   7  -9  -1-227.238 260.792   8
  -7   9   0 27.2992 229.330   5
   7  -9   0-321.576 265.511   8
  -7   9  -1 711.335 280.449   5
   7  -9   1 678.621 336.274   8
  -7   9  -2 88.1123 190.510   5
   7  -9   2 168.407 185.979   8
  -7   9  -3 282.349 212.021   5
   7  -9   3-177.421 200.761   8
  -7   9  -4-92.2249 251.820   5
   7  -9   4 398.613 209.246   8
  -7   9  -5 435.901 270.978   5
   7  -9   5 280.299 241.108   8
  -7   9  -6 417.194 300.277   5
   7  -9   6-119.012 207.560   8
  -7   8  11 989.814 375.964   5
  -7   8  10 39.2734 204.748   1
  -7   8  10-41.8078 197.934   5
  -7   8   9 303.631 284.162   1
  -7   8   9 739.454 341.105   5
   7  -8  -8 792.382 297.945   8
  -7   8   8 775.181 318.559   1
  -7   8   8 887.091 298.446   5
   7  -8  -7 1837.85 432.093   8
  -7   8   7 1489.19 402.642   1
  -7   8   7 1673.99 389.505   5
   7  -8  -6 1928.25 462.337   8
  -7   8   6 2273.41 489.715   5
   7  -8  -5 1065.00 329.853   8
  -7   8   5 367.440 221.904   5
   7  -8  -4 1885.43 442.479   8
  -7   8   4 1950.27 432.550   5
  -7   8   3 8965.06 868.639   5
   7  -8  -3 9046.26 887.251   8
   7  -8  -2 577.872 271.043   8
  -7   8   2 571.529 271.840   5
  -7   8   1 2947.92 509.075   5
   7  -8  -1 2958.24 512.625   8
  -7   8   0 525.482 237.475   5
   7  -8   0 128.759 160.549   8
  -7   8  -1 868.959 300.669   5
   7  -8   1 535.733 260.562   8
  -7   8  -2 195.303 244.714   5
   7  -8   2 223.179 207.767   8
  -7   8  -3 168.999 201.062   5
   7  -8   3 468.472 215.498   8
  -7   8  -4 2327.55 490.800   5
   7  -8   4 3583.90 554.601   8
  -7   8  -5 198.637 183.019   5
   7  -8   5 459.288 286.381   8
   7  -8   6 1503.58 348.935   3
  -7   8  -6 1159.48 346.497   5
   7  -8   6 1388.57 391.396   8
   7  -8   7 3207.37 514.859   3
  -7   8  -7 3193.27 569.060   5
   7  -8   7 3642.51 601.626   8
   7  -8   8 45.0270 203.781   3
  -7   8  -8 96.4123 202.938   5
   7  -8   8 667.061 318.234   8
   7  -8   9 659.913 328.475   3
  -7   8  -9 231.044 225.886   5
   7  -8   9 231.917 231.066   8
   7  -8  10-225.558 209.389   3
  -7   7  10-110.663 233.716   1
  -7   7  10 600.418 238.471   5
   7  -7  -9 188.137 218.010   8
  -7   7   9 672.655 276.663   1
  -7   7   9 154.819 174.551   5
   7  -7  -8 259.923 236.319   8
  -7   7   8 106.762 170.513   1
  -7   7   8 722.000 301.488   5
   7  -7  -7 641.027 256.556   8
  -7   7   7 508.188 217.531   1
  -7   7   7 578.646 267.964   5
   7  -7  -6 681.105 303.940   8
  -7   7   6 408.160 235.504   1
  -7   7   6 627.270 261.545   5
   7  -7  -5-69.8739 218.857   8
  -7   7   5 432.039 188.853   1
  -7   7   5 349.213 228.272   5
   7  -7  -4 1093.31 349.689   8
  -7   7   4 1072.01 313.800   1
  -7   7   4 1584.73 375.700   5
   7  -7  -3 2530.94 452.956   8
  -7   7   3 2177.68 402.489   1
  -7   7   3 2141.47 422.712   5
   7  -7  -2 1335.70 345.437   8
  -7   7   2 1776.95 379.506   5
  -7   7   1 7085.89 748.721   5
   7  -7  -1 6581.60 729.436   8
  -7   7   0 371.738 274.235   5
   7  -7   0-51.8699 198.838   8
  -7   7  -1 675.325 284.473   5
   7  -7   1 497.021 243.323   8
  -7   7  -2 26.5938 169.910   5
   7  -7   2-101.181 215.992   8
   7  -7   3 2200.55 364.509   3
  -7   7  -3 1827.04 382.771   5
   7  -7   3 2276.81 446.913   8
   7  -7   4 11.2792 150.504   3
  -7   7  -4 209.197 220.559   5
   7  -7   4 27.0286 154.767   8
   7  -7   5 652.916 219.514   3
  -7   7  -5 224.064 175.885   5
   7  -7   5 941.132 319.266   8
   7  -7   6 4684.06 567.201   3
  -7   7  -6 4464.54 621.467   5
   7  -7   6 4557.19 609.599   8
   7  -7   7 238.304 189.618   3
  -7   7  -7 488.865 286.078   5
   7  -7   7 232.335 209.999   8
   7  -7   8 1149.29 290.663   3
  -7   7  -8 1922.69 442.741   5
   7  -7   8 1458.45 388.418   8
   7  -7   9 439.323 245.020   3
  -7   7  -9 274.149 249.583   5
   7  -7   9 335.801 176.935   8
   7  -7  10 134.620 171.127   3
  -7   7 -10 221.843 213.596   5
   7  -7  10-74.9796 228.017   8
   7  -7  11 272.456 204.524   3
  -7   7 -11 244.468 225.382   5
   7  -7  11 107.648 258.957   8
   7  -6 -11 924.152 381.160   8
  -7   6  11 657.686 331.542   1
   7  -6 -10 69.6797 171.453   8
  -7   6  10 56.4928 199.506   1
   7  -6  -9 660.364 319.425   8
  -7   6   9 196.010 195.203   1
  -7   6   9 202.335 155.519   5
   7  -6  -8 2206.94 467.252   8
  -7   6   8 1656.60 431.040   1
  -7   6   8 2313.86 429.754   5
   7  -6  -7 1751.91 400.787   8
  -7   6   7 1470.12 386.458   1
  -7   6   7 2104.75 416.398   5
   7  -6  -6-188.501 265.566   8
  -7   6   6-81.6602 147.881   1
  -7   6   6 132.845 147.412   5
   7  -6  -5 1791.52 385.946   8
  -7   6   5 1272.72 356.180   1
  -7   6   5 1605.79 352.950   5
   7  -6  -4 768.072 303.151   8
  -7   6   4 665.998 238.414   1
  -7   6   4 1261.77 307.625   5
   7  -6  -3 56.5816 160.296   8
  -7   6   3 1.09367 144.684   1
  -7   6   3-97.1108 173.256   5
  -7   6   2 7259.43 669.338   1
  -7   6   2 7015.90 693.811   5
   7  -6  -2 6801.36 701.212   8
   7  -6  -1 1445.38 346.070   8
  -7   6   1 1835.83 379.023   5
  -7   6   1 1188.56 307.890   1
  -7   6   0 2430.38 433.495   5
   7  -6   0 1836.82 385.484   8
   7  -6   1 396.520 147.861   3
  -7   6  -1 533.391 179.771   5
   7  -6   1 619.023 279.798   8
   7  -6   2 1072.75 236.138   3
   7  -6   2 728.276 186.683   2
  -7   6  -2 550.081 193.579   5
   7  -6   2 1015.54 299.189   8
   7  -6   3 2798.84 394.088   3
  -7   6  -3 2273.79 419.798   5
   7  -6   3 2708.64 459.106   8
   7  -6   4 365.869 213.885   3
  -7   6  -4 200.316 231.953   5
   7  -6   4-208.589 246.438   8
   7  -6   5 3325.86 454.339   3
  -7   6  -5 3349.41 527.624   5
   7  -6   5 2520.07 452.111   8
   7  -6   6 2078.08 359.114   3
  -7   6  -6 2396.42 445.679   5
   7  -6   6 2252.13 450.164   8
   7  -6   7 1125.93 294.283   3
  -7   6  -7 1196.82 331.331   5
   7  -6   7 1075.54 321.618   8
   7  -6   8 3272.51 515.522   3
  -7   6  -8 3415.54 542.160   5
   7  -6   8 3719.03 577.773   8
   7  -6   9 511.755 229.481   3
  -7   6  -9 314.310 189.261   5
   7  -6   9 517.166 288.835   8
  -7   6 -10 108.285 176.816   5
   7  -6  10 60.9090 200.469   8
   7  -6  11 733.018 277.895   3
  -7   6 -11 1575.48 420.690   5
   7  -6  11 649.939 316.701   8
   7  -6  12 1823.16 456.815   3
   7  -6  12 1114.83 382.375   8
   7  -5 -12 2828.66 550.835   8
  -7   5  12 2425.77 523.818  10
   7  -5 -11 2098.84 461.801   8
  -7   5  11 2770.23 557.802   1
  -7   5  11 1683.31 380.258  10
   7  -5 -10 46.8360 197.507   8
  -7   5  10 403.829 255.640   1
  -7   5  10 216.879 201.268  10
   7  -5  -9 340.676 247.547   8
  -7   5   9 343.749 236.316   1
  -7   5   9 152.020 147.159  10
  -7   5   9-100.551 157.396   5
   7  -5  -8 978.308 320.477   8
  -7   5   8 634.119 274.914   1
  -7   5   8 967.084 283.275  10
  -7   5   8 853.237 274.787   5
   7  -5  -7 1550.99 346.871   8
  -7   5   7 1698.03 396.446   1
  -7   5   7 1931.09 358.666  10
  -7   5   7 1700.84 336.321   5
   7  -5  -6 2567.76 460.220   8
  -7   5   6 2534.04 454.212   1
  -7   5   6 2700.04 401.921  10
  -7   5   6 2634.55 414.240   5
   7  -5  -5 249.995 161.366   8
  -7   5   5 356.458 195.893   1
  -7   5   5 173.610 154.814  10
  -7   5   5 458.730 201.389   5
   7  -5  -4 620.305 251.076   8
  -7   5   4 645.090 252.263   1
  -7   5   4 440.090 186.954  10
  -7   5   4 524.112 211.871   5
   7  -5  -3 163.145 158.237   8
  -7   5   3-50.6680 141.509   1
  -7   5   3 52.7708 97.5208  10
  -7   5   3-60.6265 164.467   5
   7  -5  -2 695.997 263.474   8
  -7   5   2 426.055 193.648   1
  -7   5   2 658.989 221.814  10
  -7   5   2 431.404 212.133   5
  -7   5   1 2054.42 351.629   1
   7  -5  -1 1630.11 338.647   8
  -7   5   1 1944.44 300.503  10
  -7   5   1 2504.25 407.402   5
   7  -5   0 347.974 112.876   3
  -7   5   0 456.803 224.499   5
  -7   5   0 247.737 150.621  10
   7  -5   0 309.124 180.292   8
   7  -5   1 2273.01 286.454   3
  -7   5  -1 2048.22 383.100   5
  -7   5  -1 2123.68 311.989  10
   7  -5   1 2180.93 374.357   8
   7  -5   2 279.270 124.354   3
   7  -5   2 145.985 87.8214   2
  -7   5  -2 109.296 155.413   5
  -7   5  -2 225.145 128.365  10
   7  -5   2 56.9397 136.500   8
   7  -5   3-101.418 158.287   3
   7  -5   3 165.598 102.603   2
  -7   5  -3 313.360 204.862   5
  -7   5  -3 93.1451 125.370  10
   7  -5   3 267.047 159.336   8
   7  -5   4 425.334 209.967   3
   7  -5   4 259.032 116.854   2
  -7   5  -4 305.457 216.151   5
  -7   5  -4 567.219 180.939  10
   7  -5   4 337.229 231.495   8
   7  -5   5 2190.50 374.966   3
  -7   5  -5 1801.32 392.298   5
  -7   5  -5 1825.31 295.857  10
   7  -5   5 2258.26 416.291   8
   7  -5   6-48.7441 148.270   3
  -7   5  -6-58.9789 187.448   5
  -7   5  -6-53.2399 126.403  10
   7  -5   6 351.659 217.843   8
   7  -5   7 722.433 239.650   3
  -7   5  -7 1005.80 299.785   5
   7  -5   7 927.617 289.497   8
   7  -5   8 1197.44 316.877   3
  -7   5  -8 1340.48 369.980   5
   7  -5   8 1423.84 350.764   8
   7  -5   9 30.2351 158.101   3
   7  -5   9-98.4209 203.257   8
   7  -5  10 589.600 274.002   3
   7  -5  10 423.988 213.094   8
   7  -5  11 1854.56 415.234   3
   7  -5  11 1768.45 446.200   8
   7  -5  12 1238.47 356.703   3
   7  -5  12 1399.09 418.043   8
   7  -5  13 197.017 232.274   3
   7  -5  13 58.9965 267.376   8
   7  -5  14 923.315 324.504   3
   7  -4 -13 213.987 206.580   8
   7  -4 -12 1203.81 354.665   8
  -7   4  12 1259.66 370.139  10
   7  -4 -11 82.1173 243.104   8
  -7   4  11 292.440 272.130   1
  -7   4  11 32.0907 212.885  10
   7  -4 -10 950.316 287.735   8
  -7   4  10 698.218 302.128   1
  -7   4  10 1177.08 378.413  10
   7  -4  -9 2926.17 503.561   8
  -7   4   9 3260.74 556.830   1
  -7   4   9 3529.48 539.347  10
   7  -4  -8 1054.89 303.592   8
  -7   4   8 806.546 301.301   1
  -7   4   8 840.028 262.806  10
  -7   4   8 1349.76 301.125   5
   7  -4  -7 814.264 298.004   8
  -7   4   7 957.057 321.791   1
   7  -4  -7 766.854 202.152  11
  -7   4   7 512.208 192.416  10
  -7   4   7 579.478 189.498   5
   7  -4  -6-91.0016 156.164   8
  -7   4   6 19.3988 158.774   1
   7  -4  -6 109.769 134.785  11
  -7   4   6 153.422 153.299  10
  -7   4   6 254.628 183.001   5
   7  -4  -5 3435.53 483.816   8
   7  -4  -5 4255.21 406.553  11
  -7   4   5 3486.52 435.025   5
  -7   4   5 3421.69 556.663   1
  -7   4   5 3781.58 470.570  10
   7  -4  -4 1438.72 303.498   8
  -7   4   4 1696.40 368.088   1
  -7   4   4 1367.54 284.947  10
  -7   4   4 1172.14 277.022   5
   7  -4  -3 2091.11 370.622   8
  -7   4   3 1657.90 385.548   1
  -7   4   3 1660.75 317.484  10
  -7   4   3 1851.96 326.847   5
   7  -4  -2 324.330 198.111   8
  -7   4   2 69.2526 144.277   1
  -7   4   2 254.744 141.493  10
  -7   4   2 367.606 169.857   5
   7  -4  -1 2852.36 425.058   8
   7  -4  -1 3010.76 272.535   3
  -7   4   1 2916.79 378.484  10
  -7   4   1 2965.78 403.419   5
  -7   4   1 2875.05 445.624   1
   7  -4   0 253.505 89.7058   3
  -7   4   0 208.122 144.212   5
  -7   4   0 250.530 141.112  10
   7  -4   0 341.917 153.023   8
   7  -4   1 361.403 139.964   3
   7  -4   1 340.294 165.314   2
  -7   4  -1 125.680 154.867   5
  -7   4  -1 358.055 158.950  10
   7  -4   1 228.686 161.371   8
   7  -4   2 72.1679 83.2882   3
   7  -4   2-20.9536 105.381   2
  -7   4  -2 69.7987 169.630   5
  -7   4  -2 52.6497 129.398  10
   7  -4   2 18.6178 145.904   8
   7  -4   3-0.68269 128.904   3
   7  -4   3 84.5065 94.1862   2
  -7   4  -3 67.6918 178.307   5
  -7   4  -3 22.9339 108.449  10
   7  -4   3-48.5982 168.254   8
   7  -4   4 359.731 130.339   2
   7  -4   4 473.936 178.274   3
  -7   4  -4 299.460 185.977   5
  -7   4  -4 355.514 169.532  10
   7  -4   4 546.563 245.396   8
   7  -4   5 55.2514 92.3098   2
   7  -4   5 106.790 142.531   3
  -7   4  -5 14.1240 142.771   5
  -7   4  -5 7.82762 116.805  10
   7  -4   5-212.207 187.270   8
   7  -4   6-38.5415 72.0921   2
   7  -4   6 292.939 196.420   3
  -7   4  -6 55.2982 115.104  10
   7  -4   6-240.310 199.478   8
   7  -4   7 324.552 206.443   3
  -7   4  -7 19.7249 116.625  10
   7  -4   7 124.171 156.404   8
   7  -4   8 453.187 228.391   3
   7  -4   8 408.519 234.778   8
   7  -4   9 98.0005 156.485   3
   7  -4   9 442.612 223.507   8
   7  -4  10 3274.88 497.448   3
   7  -4  10 2906.80 493.600   8
   7  -4  11 1472.43 379.427   3
   7  -4  11 1566.26 414.194   8
   7  -4  12 302.741 231.618   3
   7  -4  12 108.819 210.677   8
   7  -4  13 745.687 283.235   3
   7  -4  14 295.604 308.352   3
   7  -3 -13 526.994 260.085  11
   7  -3 -12 736.715 297.974   8
   7  -3 -12 621.358 254.960  11
  -7   3  12-78.3569 260.099  10
   7  -3 -11 20.3057 182.879   8
  -7   3  11 362.403 242.049   1
   7  -3 -11-9.02097 142.491  11
  -7   3  11 128.445 258.616  10
   7  -3 -10 1548.99 388.602   8
  -7   3  10 1724.23 444.076   1
   7  -3 -10 1362.73 331.627  11
  -7   3  10 1513.67 376.624  10
  -7   3   9 3663.34 594.600   1
   7  -3  -9 3711.17 474.157  11
  -7   3   9 3276.08 498.214  10
   7  -3  -9 3965.30 549.151   8
   7  -3  -8 704.882 243.222   8
  -7   3   8 582.601 273.498   1
   7  -3  -8 386.970 175.590  11
  -7   3   8 603.359 281.231  10
   7  -3  -7 1579.13 315.142   8
  -7   3   7 1305.08 378.068   1
   7  -3  -7 1715.71 305.791  11
  -7   3   7 1411.42 327.510  10
  -7   3   7 1339.14 260.324   5
   7  -3  -6-62.8357 140.596   8
  -7   3   6 100.978 184.680   1
  -7   3   6 335.585 193.441  10
  -7   3   6-159.266 128.988   5
   7  -3  -5-43.2726 160.200   8
  -7   3   5 258.753 271.221   1
  -7   3   5 189.182 189.768  10
  -7   3   5 192.583 184.047   5
   7  -3  -4 2169.23 347.577   8
  -7   3   4 2427.48 466.344   1
  -7   3   4 2562.34 391.543  10
  -7   3   4 2092.87 311.108   5
  -7   3   3 4559.90 587.293   1
  -7   3   3 4791.52 472.854   5
  -7   3   3 4357.95 475.762  10
   7  -3  -3 4687.16 507.042   8
   7  -3  -2 3043.37 400.942   8
  -7   3   2 3016.17 480.909   1
  -7   3   2 3374.64 398.821   5
  -7   3   2 3463.55 425.201  10
   7  -3  -1 459.871 197.082   8
   7  -3  -1 486.822 123.707   3
  -7   3   1 267.064 130.106  10
  -7   3   1 226.874 134.215   5
  -7   3   1 378.558 196.521   1
   7  -3   0 3561.04 318.202   3
  -7   3   0 3928.19 443.499   5
  -7   3   0 2913.06 380.181  10
   7  -3   0 2946.67 391.082   8
   7  -3   1 16863.2 728.903   3
  -7   3  -1 17170.8 918.510   5
  -7   3  -1 15981.2 850.143  10
   7  -3   1 16757.9 861.201   2
   7  -3   1 16094.8 915.046   8
   7  -3   2 677.139 184.123   3
   7  -3   2 555.369 171.586   2
  -7   3  -2 742.713 242.769   5
  -7   3  -2 607.643 201.752  10
   7  -3   2 450.514 173.840   8
   7  -3   3 3781.23 396.303   3
  -7   3  -3 3563.77 447.891   5
  -7   3  -3 3780.75 414.240  10
   7  -3   3 3722.99 384.802   2
   7  -3   3 3372.21 440.920   8
   7  -3   4 229.538 118.423   2
   7  -3   4 134.940 118.201   3
  -7   3  -4 274.847 180.707   5
  -7   3  -4 108.366 113.263  10
   7  -3   4 591.686 240.922   8
   7  -3   5 6098.36 538.725   3
  -7   3  -5 6581.48 556.918  10
   7  -3   5 6529.74 470.605   2
   7  -3   5 5560.18 575.992   8
   7  -3   6 302.925 111.711   2
   7  -3   6 419.476 161.246   3
  -7   3  -6 282.050 157.451  10
   7  -3   6 230.681 200.577   8
   7  -3   7 4506.58 512.565   3
  -7   3  -7 5003.07 439.404  11
   7  -3   7 4854.37 384.026   2
   7  -3   7 4516.98 543.794   8
   7  -3   8 684.214 241.451   3
  -7   3  -8 1244.64 260.447  11
   7  -3   8 1011.67 313.055   8
   7  -3   9 307.432 161.668   3
  -7   3  -9 710.128 225.150  11
   7  -3   9 123.526 198.448   8
   7  -3  10 2162.26 428.119   3
  -7   3 -10 2170.54 349.390  11
   7  -3  10 1839.48 419.080   8
   7  -3  11 64.5522 158.203   3
  -7   3 -11 110.458 136.619  11
   7  -3  11 182.985 157.417   8
   7  -3  12-95.9314 188.718   3
  -7   3 -12-48.6635 161.858  11
   7  -3  12-230.991 229.171   8
   7  -3  13-12.7212 169.340   3
  -7   3 -13 631.854 311.738  11
   7  -3  14 70.9582 196.638   3
  -7   3 -14-261.045 209.023  11
   7  -3  15 1056.95 352.917   3
  -7   3 -15 618.250 264.850  11
  -7   3 -16 800.748 313.764  11
  -7   3 -17 679.538 315.866  11
   7  -2 -13 650.766 293.812  11
   7  -2 -12 1000.85 336.188  11
  -7   2  12 300.672 264.900  10
   7  -2 -11 76.6815 177.300   8
  -7   2  11-400.320 273.134   1
   7  -2 -11 387.509 231.548  11
  -7   2  11 11.7924 241.515  10
  -7   2  10 3382.48 597.755   1
   7  -2 -10 3928.09 539.977  11
  -7   2  10 3481.22 567.796  10
   7  -2 -10 3840.47 540.906   8
   7  -2  -9 11266.9 854.793  11
  -7   2   9 11072.1 1010.16   1
  -7   2   9 8972.07 837.036  10
   7  -2  -9 10357.0 822.816   8
   7  -2  -8 124.827 152.723   8
  -7   2   8 160.090 158.034   1
   7  -2  -8 366.947 213.772  11
  -7   2   8 200.738 192.661  10
   7  -2  -7 1720.10 334.136   8
  -7   2   7 1858.15 415.228   1
  -7   2   7 1623.90 334.436  10
   7  -2  -6 493.082 205.614   8
  -7   2   6 753.448 302.146   1
  -7   2   6 334.790 170.440  10
  -7   2   6 498.442 170.435   5
   7  -2  -5 453.661 166.653   8
  -7   2   5 583.442 220.272   1
  -7   2   5 307.551 188.169  10
  -7   2   5 594.770 178.809   5
   7  -2  -4 283.665 151.045   8
  -7   2   4 261.892 193.631   1
  -7   2   4 127.489 177.688  10
  -7   2   4 352.900 168.358   5
   7  -2  -3 506.236 211.159   8
  -7   2   3 250.600 168.885   1
  -7   2   3 192.444 153.363  10
  -7   2   3 330.399 158.790   5
   7  -2  -2 67.6560 120.952   8
  -7   2   2 233.583 195.560   1
   7  -2  -2 19.5494 54.4189   3
  -7   2   2 122.287 162.177  10
  -7   2   2-110.229 116.141   5
   7  -2  -1 147.650 151.595   8
   7  -2  -1 122.364 81.0177   3
  -7   2   1 110.601 125.809  10
  -7   2   1-54.3020 106.949   5
  -7   2   1-3.34033 137.694   1
   7  -2   0 1332.74 199.738   3
   7  -2   0 988.578 223.262   2
  -7   2   0 960.150 224.953   5
  -7   2   0 1389.48 269.123  10
   7  -2   0 1274.81 278.925   8
  -7   2  -1 4073.88 293.636   7
   7  -2   1 4219.01 362.274   3
  -7   2  -1 4636.84 455.710   5
  -7   2  -1 3916.83 450.885  10
   7  -2   1 4152.31 444.096   2
   7  -2   1 3590.22 410.991   8
   7  -2   2 4284.47 382.247   3
  -7   2  -2 4261.68 448.237   5
  -7   2  -2 3645.04 428.672  10
   7  -2   2 4135.34 429.618   2
   7  -2   2 4073.35 441.262   8
   7  -2   3 9636.75 600.680   3
  -7   2  -3 10412.5 702.172   5
  -7   2  -3 9819.13 679.712  10
   7  -2   3 10085.4 640.072   2
   7  -2   3 10115.8 696.347   8
   7  -2   4 2406.78 327.879   3
  -7   2  -4 2505.62 353.789  10
   7  -2   4 2494.25 322.303   2
   7  -2   4 2198.50 337.186   8
   7  -2   5 4834.60 472.607   3
  -7   2  -5 4848.05 497.289  10
   7  -2   5 4265.05 406.871   2
   7  -2   5 5030.50 515.459   8
   7  -2   6 1118.02 206.682   2
   7  -2   6 606.562 202.877   3
  -7   2  -6 792.801 218.008  10
   7  -2   6 1093.11 293.429   8
   7  -2   7 1176.59 202.469   2
   7  -2   7 1188.56 273.359   3
  -7   2  -7 1080.06 231.654  11
   7  -2   7 1222.93 296.027   8
   7  -2   8 4666.77 523.360   3
  -7   2  -8 4537.41 467.646  11
   7  -2   8 4755.02 391.950   2
   7  -2   8 4407.01 531.382   8
   7  -2   9 477.944 222.717   3
  -7   2  -9 1175.57 276.680  11
   7  -2   9 913.700 308.154   8
   7  -2   9 913.855 183.583   2
   7  -2  10 1169.51 306.538   3
  -7   2 -10 1772.17 348.401  11
   7  -2  10 1512.41 374.501   8
   7  -2  11 1694.62 366.742   3
  -7   2 -11 1842.65 356.620  11
   7  -2  11 1314.99 358.190   8
   7  -2  12 402.392 232.445   3
  -7   2 -12 613.540 235.737  11
   7  -2  13-261.721 242.267   3
  -7   2 -13-6.75481 171.465  11
   7  -2  14 562.823 276.535   3
  -7   2 -14 1546.35 392.319  11
   7  -2  15-142.134 213.622   3
  -7   2 -15-31.8856 181.403  11
   7  -2  16 118.076 197.869   3
  -7   2 -16 505.566 256.092  11
  -7   2 -17 540.200 299.668  11
  -7   2 -18-63.6161 182.058  11
   7  -1 -13 500.412 297.323  11
   7  -1 -12 669.824 262.286  11
  -7   1  12 606.586 324.404  10
  -7   1  11 1493.96 407.548   1
   7  -1 -11 820.271 299.078  11
  -7   1  11 1056.02 331.476  10
   7  -1 -10 6734.11 704.767  11
  -7   1  10 6889.09 821.280   1
  -7   1  10 6443.65 758.988  10
   7  -1  -9 625.392 206.634   8
  -7   1   9 563.141 300.531   1
   7  -1  -9 827.084 269.054  11
  -7   1   9 315.679 235.810  10
  -7   1   8 4599.10 647.001   1
  -7   1   8 4238.21 598.433  10
   7  -1  -8 3916.36 495.082   8
  -7   1   7 7998.61 825.559   1
  -7   1   7 8809.81 809.339  10
   7  -1  -7 8579.34 678.810   8
   7  -1  -6-100.784 149.159   8
  -7   1   6-259.223 199.624   1
  -7   1   6 277.071 238.014  10
   7  -1  -5 1768.25 303.533   8
  -7   1   5 2078.20 419.634   1
  -7   1   5 1579.73 329.773  10
  -7   1   5 1920.88 241.272   5
   7  -1  -4 531.769 199.446   8
  -7   1   4 600.089 212.163   1
  -7   1   4 109.982 179.940  10
  -7   1   4 457.843 140.777   5
   7  -1  -3 9743.68 412.092   3
  -7   1   3 9932.57 837.917   1
  -7   1   3 9043.04 538.959   5
  -7   1   3 9091.47 708.285  10
   7  -1  -3 9074.55 640.951   8
   7  -1  -2 1764.90 292.619   8
   7  -1  -2 1745.95 201.912   3
  -7   1   2 1618.37 311.716  10
  -7   1   2 1637.37 237.272   5
  -7   1   2 1869.17 379.800   1
   7  -1  -1 9239.63 469.341   3
  -7   1   1 9169.23 577.062   5
  -7   1   1 9996.96 728.054  10
   7  -1  -1 8730.88 684.105   2
   7  -1  -1 8611.15 599.474   8
  -7   1   0 1344.77 121.030   7
   7  -1   0 1507.45 276.268   2
   7  -1   0 1507.25 218.002   3
  -7   1   0 1544.88 247.536   5
  -7   1   0 1371.95 283.574  10
   7  -1   0 1401.89 255.658   8
  -7   1  -1 191.933 62.1832   7
   7  -1   1 126.816 132.316   2
   7  -1   1 179.759 102.613   3
  -7   1  -1 26.2785 116.005   5
  -7   1  -1 237.604 161.748  10
   7  -1   1 218.610 136.252   8
  -7   1  -2 2545.87 247.990   7
   7  -1   2 2460.54 294.722   3
   7  -1   2 2336.64 331.684   2
  -7   1  -2 2284.73 322.715   5
  -7   1  -2 1992.94 311.498  10
   7  -1   2 2120.70 303.287   8
   7  -1   3 9814.79 593.171   3
  -7   1  -3 9965.39 698.443  10
   7  -1   3 9865.41 649.172   2
   7  -1   3 9694.69 648.801   8
   7  -1   4 10466.4 645.675   3
  -7   1  -4 10423.1 718.798  10
   7  -1   4 11226.4 679.617   2
  -7   1  -4 8944.58 230.677   9
   7  -1   4 9639.18 664.009   8
   7  -1   5 1019.72 220.654   2
   7  -1   5 1039.20 245.778   3
  -7   1  -5 873.697 231.077  10
  -7   1  -5 942.388 112.231   9
   7  -1   5 1233.36 279.261   8
   7  -1   6 61.5074 107.425   2
   7  -1   6-21.4479 113.637   3
  -7   1  -6 109.075 127.335  10
   7  -1   6 18.3924 130.491   8
   7  -1   7 2423.03 358.753   3
  -7   1  -7 2809.42 361.189  11
   7  -1   7 2910.93 333.659   2
   7  -1   7 2390.75 381.662   8
   7  -1   8 3001.48 424.870   3
  -7   1  -8 2759.32 386.364  11
   7  -1   8 3402.11 354.187   2
   7  -1   8 2972.79 445.547   8
   7  -1   9 1181.43 293.256   3
  -7   1  -9 1145.77 266.075  11
   7  -1   9 970.994 262.402   8
   7  -1   9 1032.60 207.310   2
   7  -1  10 5640.74 612.388   3
  -7   1 -10 5556.97 564.697  11
   7  -1  10 5332.84 446.207   2
   7  -1  10 4018.51 587.332   8
   7  -1  11 1200.33 338.279   3
  -7   1 -11 692.062 250.071  11
   7  -1  11 624.866 176.211   2
   7  -1  12 4331.97 563.416   3
  -7   1 -12 4749.56 554.442  11
   7  -1  13 2469.38 481.303   3
  -7   1 -13 2509.87 434.545  11
   7  -1  14 498.935 217.529   1
   7  -1  14 182.902 194.881   3
  -7   1 -14 458.758 270.926  11
   7  -1  15 676.276 274.650   3
  -7   1 -15 615.216 306.582  11
   7  -1  16 40.9544 178.636   3
  -7   1 -16 55.2132 190.143  11
   7  -1  17 546.014 287.452   3
  -7   1 -17 149.998 268.625  11
  -7   1 -18 1248.15 398.034  11
   7   0 -12 103.729 188.066  11
  -7   0  11 599.243 297.831   1
   7   0 -11 796.133 331.251  11
  -7   0  11 953.518 365.984  10
  -7   0  10 1851.92 491.406   1
   7   0 -10 1612.68 389.770  11
  -7   0  10 1386.11 401.676  10
  -7   0   9 949.480 344.201   1
  -7   0   9 1470.36 393.810  10
  -7   0   8 5290.28 706.404   1
  -7   0   8 5166.62 645.769  10
   7   0  -7 2042.43 328.520   8
  -7   0   7 2079.16 458.734   1
  -7   0   7 1645.82 386.781  10
  -7   0   6 8008.40 831.446   1
  -7   0   6 7090.72 706.422  10
   7   0  -6 8040.13 607.036   8
  -7   0   5 5749.40 666.326   1
  -7   0   5 5721.40 614.414  10
   7   0  -5 5996.71 508.122   8
  -7   0   4 3165.57 487.281   1
  -7   0   4 3377.80 280.863   5
  -7   0   4 2686.69 441.962  10
   7   0  -4 3501.58 399.377   8
  -7   0   3 612.253 269.390   1
   7   0  -3 823.549 206.033   8
   7   0  -3 701.383 240.219   2
  -7   0   3 665.599 234.747  10
  -7   0   3 848.348 164.465   5
   7   0  -2 1346.22 233.754   8
   7   0  -2 1062.95 279.994   2
  -7   0   2 1373.22 307.228  10
  -7   0   2 1397.50 199.080   5
  -7   0   2 1247.09 337.197   1
  -7   0   1 7980.76 484.663   5
  -7   0   1 7792.10 653.548  10
   7   0  -1 7802.74 647.568   2
   7   0  -1 7666.40 523.602   8
  -7   0   0 4680.41 204.371   7
  -7   0   0 4499.82 194.672   7
  -7   0   0 5128.96 396.807   5
  -7   0   0 4678.88 502.784  10
   7   0   0 4551.54 481.406   2
   7   0   0 4917.62 423.695   8
  -7   0  -1 54.0962 43.2483   7
   7   0   1 79.9884 116.406   2
  -7   0  -1 103.857 117.939   5
  -7   0  -1-107.070 165.048  10
   7   0   1-28.9228 98.7325   8
  -7   0  -2 15078.4 869.822  10
   7   0   2 14246.9 814.842   2
   7   0   2 14382.8 732.695   8
  -7   0  -3 14190.7 861.640  10
   7   0   3 15554.5 840.778   2
  -7   0  -3 15866.4 415.993   9
   7   0   3 14195.1 740.624   8
   7   0   4 1681.77 298.021   2
  -7   0  -4 1578.31 290.159  10
  -7   0  -4 1766.25 156.153   9
   7   0   4 1526.03 266.895   8
   7   0   5-27.3569 108.577   2
   7   0   5 190.016 172.413   3
  -7   0  -5 94.8225 130.415  10
  -7   0  -5-6.46813 60.2707   9
   7   0   5-98.8172 122.679   8
   7   0   6 701.347 203.640   2
   7   0   6 1046.42 248.693   3
  -7   0  -6 878.808 211.909  10
   7   0   6 1054.21 240.362   8
   7   0   7 119.337 120.436   2
   7   0   7-11.5574 167.104   3
  -7   0  -7-159.163 170.469  11
   7   0   7 50.8568 126.472   8
   7   0   8 134.695 121.333   2
   7   0   8 106.557 162.321   3
  -7   0  -8-54.8385 151.669  11
   7   0   8 182.615 143.316   8
   7   0   9 1163.48 296.602   3
  -7   0  -9 2097.07 366.001  11
   7   0   9 975.861 319.232   8
   7   0   9 1817.37 284.488   2
   7   0  10 458.319 167.827   3
  -7   0 -10 876.242 277.546  11
   7   0  10 678.513 171.966   2
   7   0  11 553.961 250.751   3
  -7   0 -11 457.153 210.576  11
   7   0  11 591.095 187.843   2
   7   0  12 1983.96 401.394   3
  -7   0 -12 2395.84 415.940  11
   7   0  12 1745.02 296.737   2
   7   0  13 341.781 204.024   3
  -7   0 -13 369.431 252.541  11
   7   0  13 228.682 157.798   2
   7   0  14 5537.02 675.627   3
  -7   0 -14 4694.12 599.787  11
   7   0  14 4850.72 583.311   1
   7   0  15 233.740 191.401   1
   7   0  15 249.029 191.958   3
  -7   0 -15 750.581 323.554  11
   7   0  16 974.840 324.486   1
   7   0  16 1290.70 390.216   3
  -7   0 -16 1763.15 418.378  11
   7   0  17-117.421 270.617   3
  -7   0 -17 263.477 246.849  11
  -7   0 -18 1633.52 454.721  11
   7   1 -12-54.7215 180.685  11
  -7  -1  11 1123.23 366.298   1
   7   1 -11 389.100 296.642  11
  -7  -1  11 772.967 347.167  10
  -7  -1  10 271.925 348.199   1
   7   1 -10 36.8517 203.630  11
  -7  -1  10 71.2574 196.922  10
  -7  -1   9 25.2184 217.199   1
  -7  -1   9 165.927 211.687  10
  -7  -1   8 977.723 376.456   1
  -7  -1   8 677.461 306.789  10
  -7  -1   7 1594.37 429.538   1
  -7  -1   7 1133.03 296.889  10
  -7  -1   6 2862.91 520.114   1
  -7  -1   6 1779.51 355.561  10
  -7  -1   5 4939.64 664.946   1
  -7  -1   5 3924.76 539.484  10
   7   1  -5 4786.92 586.077   2
   7   1  -5 3656.06 383.138   8
   7   1  -4 671.706 174.499   8
   7   1  -4 686.860 268.520   2
  -7  -1   4 896.232 282.570  10
  -7  -1   4 835.389 321.515   1
   7   1  -3 2671.02 409.774   2
  -7  -1   3 2801.85 442.908  10
   7   1  -3 2768.60 302.759   8
  -7  -1   3 3258.44 498.225   1
   7   1  -2-34.2640 107.458   8
   7   1  -2-32.7689 133.540   2
  -7  -1   2 76.0345 160.008  10
  -7  -1   2-54.5141 66.6683   5
   7   1  -1 1739.36 317.560   2
  -7  -1   1 1811.77 214.508   5
  -7  -1   1 1291.80 281.963  10
   7   1  -1 1640.73 223.526   8
  -7  -1   0 5402.21 242.149   7
  -7  -1   0 5351.30 378.684   5
  -7  -1   0 5162.75 531.334  10
   7   1   0 4856.77 499.567   2
   7   1   0 5494.46 414.271   8
  -7  -1  -1 17048.7 700.304   5
  -7  -1  -1 15558.0 910.309  10
   7   1   1 16482.1 911.806   2
  -7  -1  -1 16179.0 559.645   9
   7   1   1 15201.8 688.090   8
   7   1   2 3331.69 409.366   2
  -7  -1  -2 3542.02 447.067  10
  -7  -1  -2 3650.78 260.714   9
   7   1   2 3524.73 343.559   8
   7   1   3 1623.84 285.281   2
  -7  -1  -3 1536.97 297.592  10
  -7  -1  -3 2001.14 201.086   9
   7   1   3 1973.67 277.078   8
   7   1   4 104.455 112.200   2
  -7  -1  -4 50.6751 147.102  10
  -7  -1  -4 104.430 71.9121   9
   7   1   4 50.1715 102.094   8
  -7  -1  -5 7311.53 618.552  10
   7   1   5 6384.36 533.647   2
  -7  -1  -5 7359.66 408.974   9
   7   1   5 6162.85 495.160   8
   7   1   6 145.476 119.316   2
  -7  -1  -6 149.923 147.915  10
   7   1   6 205.704 178.654   8
  -7  -1  -7 5756.22 564.252  11
   7   1   7 6808.29 558.461   2
   7   1   7 6626.14 561.098   8
   7   1   8 5086.65 515.013   3
  -7  -1  -8 5351.49 527.465  11
   7   1   8 5821.85 521.400   2
   7   1   8 4383.15 521.942   8
   7   1   9 5580.99 568.397   3
  -7  -1  -9 5793.97 570.349  11
   7   1   9 6085.70 528.742   2
   7   1  10 481.702 202.097   3
  -7  -1 -10 735.597 260.779  11
   7   1  10 804.632 223.793   2
   7   1  11 162.624 202.820   3
  -7  -1 -11 315.479 208.975  11
   7   1  11-55.8871 103.704   2
   7   1  12 2941.04 465.445   3
  -7  -1 -12 3327.79 499.983  11
   7   1  12 3100.27 403.650   2
   7   1  13 3848.57 527.112   3
  -7  -1 -13 3401.95 519.299  11
   7   1  13 3052.76 445.715   2
   7   1  14 229.175 207.904   3
  -7  -1 -14 315.465 243.607  11
   7   1  14 103.360 152.314   2
   7   1  15-139.158 185.790   1
   7   1  15 487.035 245.227   3
  -7  -1 -15 517.136 255.234  11
   7   1  15 89.7182 115.765   2
   7   1  16 121.318 231.210   3
  -7  -1 -16 1041.00 376.055  11
   7   1  16 595.715 235.352   1
   7   1  17 384.103 255.325   1
   7   1  17 704.581 338.568   3
  -7  -1 -17 275.076 285.967  11
   7   1  18 781.427 323.974   3
   7   1  18 236.410 197.985   1
  -7  -2  11 66.0734 227.124   1
   7   2 -11 589.470 326.223  11
   7   2 -11 49.9561 203.698   2
  -7  -2  11 223.807 210.020  10
  -7  -2  10-164.179 193.546   1
   7   2 -10-83.4934 245.916   2
  -7  -2   9 141.063 245.933   1
   7   2  -9 190.267 224.586   2
  -7  -2   9 35.6996 174.084  10
  -7  -2   8 82.6611 170.700   1
   7   2  -8 75.3391 177.784   2
  -7  -2   8 208.104 199.987  10
  -7  -2   7 414.015 273.570   1
   7   2  -7 440.450 240.590   2
  -7  -2   7 279.979 235.625  10
  -7  -2   6 1141.18 365.777   1
   7   2  -6 1115.29 333.151   2
  -7  -2   6 948.383 285.315  10
  -7  -2   5 11008.0 976.605   1
  -7  -2   5 9790.29 830.263  10
   7   2  -5 9452.98 807.378   2
   7   2  -4 352.156 225.894   2
  -7  -2   4 262.907 181.145  10
   7   2  -3 3404.61 464.520   2
  -7  -2   3 3475.56 490.681  10
   7   2  -2 179.890 160.896   2
  -7  -2   2-10.6347 154.783  10
   7   2  -2 91.9520 89.4663   8
  -7  -2   1-15.9593 36.2517   7
   7   2  -1 22.5944 149.203   2
  -7  -2   1 135.579 185.555  10
  -7  -2   1 13.9151 40.7655   5
   7   2  -1 169.689 107.116   8
  -7  -2   0 101.775 63.5297   7
   7   2   0-25.5326 142.473   2
  -7  -2   0-3.25315 70.7028   5
  -7  -2   0 104.697 174.291  10
  -7  -2   0-1.53644 81.9145   9
   7   2   0 20.7018 80.8589   8
  -7  -2  -1 20016.1 628.386   7
  -7  -2  -1 19863.9 1049.49  10
   7   2   1 17643.0 968.857   2
  -7  -2  -1 19299.4 719.284   9
   7   2   1 18577.0 698.332   8
   7   2   2 2510.97 373.228   2
  -7  -2  -2 2867.80 416.282  10
  -7  -2  -2 2816.75 283.236   9
   7   2   2 2610.14 270.748   8
  -7  -2  -3 3123.35 434.932  10
   7   2   3 3320.18 422.798   2
  -7  -2  -3 3276.80 305.661   9
   7   2   3 2777.64 289.513   8
   7   2   4 1431.02 296.895   2
  -7  -2  -4 1636.66 311.386  10
  -7  -2  -4 1657.81 215.429   9
   7   2   4 1705.61 240.307   8
  -7  -2  -5 8011.99 669.091  10
   7   2   5 7293.59 605.507   2
  -7  -2  -5 7785.04 481.854   9
   7   2   5 7805.07 535.703   8
  -7  -2  -6 18940.2 1030.45  10
   7   2   6 18256.9 938.066   2
  -7  -2  -6 18315.2 736.046   9
   7   2   6 18244.7 864.406   8
   7   2   7 12274.1 782.881   2
  -7  -2  -8 6130.89 571.089  11
   7   2   8 6703.68 575.425   2
  -7  -2  -9-115.513 174.979  11
   7   2   9 70.6285 106.520   2
  -7  -2 -10 1030.03 272.744  11
   7   2  10 1334.25 276.950   2
   7   2  11 3967.88 517.719   3
  -7  -2 -11 4241.75 557.259  11
   7   2  11 4861.19 508.133   2
   7   2  12-0.55023 149.757   3
  -7  -2 -12 380.415 285.251  11
   7   2  12 338.328 175.759   2
   7   2  13 533.923 255.734   3
  -7  -2 -13 191.207 287.443  11
   7   2  13-117.752 151.463   2
   7   2  14 1271.65 346.754   3
  -7  -2 -14 1529.84 387.540  11
   7   2  14 1308.61 310.784   2
   7   2  15 1492.17 401.511   3
  -7  -2 -15 1947.43 421.004  11
   7   2  15 1279.65 323.132   2
   7   2  16 145.028 167.016   3
   7   2  16 18.3568 160.575   1
   7   2  16 316.199 221.453   2
   7   2  17 1121.00 369.091   3
   7   2  17 481.492 232.901   1
  -7  -2 -17 725.797 300.965  11
   7   2  18 845.682 342.839   3
   7   2  18 959.087 331.673   1
   7   2  19 908.977 339.641   1
   7   2  20-194.342 272.926   1
  -7  -3  11-36.6307 228.590   1
   7   3 -11 443.180 229.176   2
  -7  -3  10-361.635 279.217   1
   7   3 -10-188.719 254.474   2
  -7  -3  10 92.1239 177.327  10
  -7  -3   9 328.637 268.970   1
   7   3  -9-118.078 211.652   2
  -7  -3   9 319.758 240.568  10
   7   3  -8 40.5314 197.917   2
  -7  -3   8 199.693 220.603  10
  -7  -3   8 292.930 259.716   1
   7   3  -7 1114.09 340.720   2
  -7  -3   7 1189.75 336.103  10
  -7  -3   7 1018.55 378.740   1
   7   3  -6 1888.62 402.104   2
  -7  -3   6 1909.27 402.679  10
  -7  -3   6 1671.21 455.795   1
   7   3  -5 2792.85 465.516   2
  -7  -3   5 2766.47 460.562  10
   7   3  -4 314.097 154.800   2
  -7  -3   4 450.000 191.500  10
   7   3  -3 2751.40 436.734   2
  -7  -3   3 3460.85 490.023  10
   7   3  -2 1390.98 328.153   2
  -7  -3   2 1011.84 257.898  10
  -7  -3   1 273.585 88.8992   7
   7   3  -1 103.839 153.064   2
  -7  -3   1-49.7509 181.266  10
  -7  -3   1 163.026 126.243   9
  -7  -3   0 1685.01 200.421   7
   7   3   0 1235.90 292.566   2
  -7  -3   0 1613.62 164.199   5
  -7  -3   0 1579.54 342.853  10
  -7  -3   0 1688.67 247.197   9
   7   3   0 1712.92 181.505   8
   7   3   1 422.325 217.279   2
  -7  -3  -1 233.944 89.1200   7
  -7  -3  -1 176.633 175.448  10
  -7  -3  -1 113.567 92.1973   9
   7   3   1 255.030 92.6747   8
  -7  -3  -2 1163.49 165.026   8
   7   3   2 1261.17 307.858   2
  -7  -3  -2 1420.68 216.926   7
  -7  -3  -2 955.148 273.165  10
  -7  -3  -2 1279.89 222.873   9
   7   3   2 1180.72 176.420   8
   7   3   3 1229.77 279.475   2
  -7  -3  -3 1270.37 319.143  10
  -7  -3  -3 1629.12 239.136   9
   7   3   3 1409.83 193.645   8
  -7  -3  -4 2756.95 410.087  10
   7   3   4 3738.14 457.831   2
  -7  -3  -4 3300.95 326.857   9
   7   3   4 3191.98 311.564   8
   7   3   5 733.334 225.211   2
  -7  -3  -5 189.868 166.542  10
  -7  -3  -5 843.439 186.023   9
  -7  -3  -6 4424.04 518.014  10
   7   3   6 4243.88 486.087   2
  -7  -3  -6 5046.53 432.063   9
   7   3   7 8017.43 644.565   2
  -7  -3  -7 8274.11 564.413   9
   7   3   8 102.663 127.350   2
  -7  -3  -8-39.8755 181.985  11
  -7  -3  -9 2700.44 390.970  11
   7   3   9 3407.47 421.386   2
  -7  -3 -10 4118.86 509.680  11
   7   3  10 4549.56 502.296   2
  -7  -3 -11 963.368 308.155  11
   7   3  11 894.374 265.763   2
  -7  -3 -12 996.178 344.160  11
   7   3  12 541.201 215.756   2
   7   3  13 121.862 155.297   3
   7   3  13 230.083 165.380   2
   7   3  14 3298.16 524.374   3
  -7  -3 -14 3777.91 558.910  11
   7   3  14 2853.13 490.980   2
   7   3  15 79.9915 182.331   3
  -7  -3 -15 441.656 237.786  11
   7   3  15 365.167 204.468   2
   7   3  16 3681.49 549.433   1
  -7  -3 -16 5912.41 745.840  11
   7   3  16 4485.19 631.563   3
   7   3  16 5005.99 605.766   2
   7   3  17 3597.60 577.608   3
   7   3  17 4047.29 570.033   2
  -7  -3 -17 3775.79 634.720  11
   7   3  17 3869.48 594.710   1
   7   3  18 74.9238 211.575   1
   7   3  18 116.581 227.289   3
  -7  -3 -18 337.486 350.247  11
   7   3  19 351.765 251.338   1
   7   4 -10 1277.26 359.822   2
  -7  -4  10 1425.45 467.140  10
  -7  -4  10 1388.16 462.189   1
   7   4  -9 316.952 246.839   2
  -7  -4   9 186.044 284.557  10
  -7  -4   9 206.120 222.738   1
   7   4  -8 475.254 281.074   2
  -7  -4   8-313.444 274.631  10
   7   4  -7-164.412 157.219   2
  -7  -4   7 269.415 244.266  10
   7   4  -6 2163.49 438.885   2
  -7  -4   6 1241.86 376.320  10
   7   4  -5-49.9948 155.995   2
  -7  -4   5-105.797 207.016  10
   7   4  -4 116.486 211.908   2
  -7  -4   4 154.973 160.165  10
   7   4  -3 2603.09 440.264   2
  -7  -4   3 2926.04 451.467  10
   7   4  -2 330.813 213.831   2
  -7  -4   2 652.642 248.245  10
  -7  -4   1 1125.36 174.093   7
   7   4  -1 1394.31 312.624   2
  -7  -4   1 889.898 293.110  10
  -7  -4   1 1208.97 263.774   9
  -7  -4   0 1599.19 224.458   7
   7   4   0 1332.58 303.429   2
  -7  -4   0 1398.42 313.904  10
  -7  -4   0 1609.66 287.952   9
   7   4   1 434.578 222.998   2
  -7  -4  -1 483.786 146.310   7
  -7  -4  -1 291.643 195.514  10
  -7  -4  -1 533.435 196.768   9
  -7  -4  -2 3009.92 321.376   7
   7   4   2 1965.00 356.875   2
  -7  -4  -2 2921.69 424.119  10
  -7  -4  -2 2469.47 323.720   9
  -7  -4  -3 2598.08 309.349   7
   7   4   3 2177.26 364.134   2
  -7  -4  -3 2061.41 365.391  10
  -7  -4  -3 2091.14 291.596   9
   7   4   4 373.907 175.541   2
  -7  -4  -4 531.584 166.794   7
  -7  -4  -4-16.6877 147.115  10
  -7  -4  -4 469.452 184.272   9
   7   4   5 581.245 199.403   2
  -7  -4  -5 915.709 277.506  10
  -7  -4  -5 1038.90 224.132   9
  -7  -4  -6 3658.13 487.058  10
   7   4   6 3475.84 464.427   2
  -7  -4  -6 3402.16 388.568   9
  -7  -4  -7 5502.89 602.904  10
   7   4   7 5784.85 572.545   2
  -7  -4  -7 5443.05 501.317   9
  -7  -4  -8 604.610 213.385   9
   7   4   8 549.420 219.842   2
  -7  -4  -9 3628.28 497.045  11
   7   4   9 4803.19 523.528   2
  -7  -4 -10 887.807 273.579  11
   7   4  10 1158.07 282.520   2
  -7  -4 -11 736.899 212.911  11
   7   4  11 1315.99 301.084   2
  -7  -4 -12 21.5215 174.994  11
   7   4  12 97.7949 171.804   2
  -7  -4 -13 263.164 250.777  11
   7   4  13-99.3400 173.444   2
   7   4  14 948.083 319.250   3
  -7  -4 -14 1021.77 337.740  11
   7   4  14 703.749 260.839   2
   7   4  15 600.357 238.012   3
  -7  -4 -15 1381.80 390.773  11
   7   4  15 1016.65 301.571   2
   7   4  16 4214.63 608.198   1
   7   4  16 3756.35 568.374   3
   7   4  16 4501.81 598.547   2
  -7  -4 -16 4732.97 671.038  11
   7   4  17-56.5392 176.189   1
   7   4  17 221.357 192.811   3
  -7  -4 -17 450.815 309.558  11
   7   4  17-175.815 184.373   2
   7   4  18 961.119 317.832   1
   7   4  18 956.084 349.739   3
   7   4  19 116.602 265.732   1
   7   5 -10 612.227 255.739   2
   7   5  -9 60.9758 216.766   2
  -7  -5   9-49.8029 215.154  10
   7   5  -8 634.397 256.333   2
  -7  -5   8 1057.94 362.532  10
  -7  -5   7 4953.08 666.803  10
   7   5  -7 4006.60 596.843   2
   7   5  -6 78.4647 138.669   2
  -7  -5   6 62.5918 225.840  10
   7   5  -5 57.0605 167.501   2
  -7  -5   5 400.127 253.676  10
   7   5  -4 2193.75 409.309   2
  -7  -5   4 2574.19 448.669  10
  -7  -5   3 6732.28 703.088  10
   7   5  -3 7405.13 718.345   2
   7   5  -2 446.099 210.058   2
  -7  -5   2 242.878 213.831  10
  -7  -5   2 408.228 202.215   9
  -7  -5   1 6829.94 481.762   7
  -7  -5   1 6139.13 661.272  10
   7   5  -1 6160.88 654.467   2
  -7  -5   1 6602.42 577.147   9
   7   5   0 1838.45 374.237   2
  -7  -5   0 1821.72 257.413   7
  -7  -5   0 1414.36 320.832  10
  -7  -5   0 1820.01 337.326   9
   7   5   1 289.972 217.099   2
  -7  -5  -1 152.104 106.167   7
  -7  -5  -1 353.088 230.079  10
  -7  -5  -1 176.491 135.275   9
  -7  -5  -2 8909.00 583.021   7
  -7  -5  -2 7366.30 692.835  10
   7   5   2 7864.17 712.375   2
  -7  -5  -2 7236.50 589.872   9
   7   5   3 1744.59 321.147   2
  -7  -5  -3 2410.92 315.087   7
  -7  -5  -3 1617.96 331.065  10
  -7  -5  -3 2072.09 332.052   9
   7   5   4 478.768 201.007   2
  -7  -5  -4 618.193 192.485   7
  -7  -5  -4 593.863 271.318  10
  -7  -5  -4 657.604 213.066   9
   7   5   5 168.313 145.855   2
  -7  -5  -5 91.5559 158.141   7
  -7  -5  -5-150.055 173.639  10
  -7  -5  -5 246.137 120.783   9
   7   5   6 2837.77 434.150   2
  -7  -5  -6 2673.15 410.981  10
  -7  -5  -6 2686.39 364.540   9
  -7  -5  -7 3972.64 511.537  10
   7   5   7 5009.43 571.897   2
  -7  -5  -7 4481.50 473.481   9
  -7  -5  -8 1101.32 270.144   9
   7   5   8 1160.20 276.289   2
  -7  -5  -9 2742.30 387.843   9
   7   5   9 2724.34 431.583   2
  -7  -5 -10 934.030 246.444  11
   7   5  10 1434.79 319.694   2
  -7  -5 -11-408.189 309.559  11
   7   5  11 61.8298 145.490   2
  -7  -5 -12-299.575 274.319  11
   7   5  12-11.2448 152.503   2
  -7  -5 -13 1524.30 391.384  11
   7   5  13 2606.88 455.681   2
  -7  -5 -14 301.227 255.360  11
   7   5  14 480.218 239.153   2
  -7  -5 -15 408.993 245.481  11
   7   5  15 100.102 152.338   2
   7   5  16 762.213 288.450   1
   7   5  16 1332.46 304.167   3
  -7  -5 -16 1717.86 479.112  11
   7   5  16 1520.25 368.975   2
   7   5  17 863.615 310.742   3
  -7  -5 -17 1384.57 447.714  11
   7   5  17 675.909 288.395   1
   7   5  17 835.192 309.740   2
   7   5  18 1844.91 445.290   3
  -7  -5 -18 2517.42 593.405  11
   7   5  18 1738.81 443.662   1
   7   5  18 1585.19 416.552   2
   7   6  -9 307.962 205.710   2
   7   6  -8 2775.72 499.663   2
  -7  -6   8 2910.98 535.872  10
   7   6  -7 322.392 251.259   2
  -7  -6   7-2.74255 200.882  10
   7   6  -6 120.842 198.305   2
  -7  -6   6 205.662 252.890  10
   7   6  -5 1229.45 362.460   2
  -7  -6   5 1653.44 382.119  10
   7   6  -4 3615.10 545.115   2
  -7  -6   4 3309.58 524.059  10
   7   6  -3 390.365 232.805   2
  -7  -6   3 61.6416 159.015  10
  -7  -6   2 5425.03 629.735  10
   7   6  -2 5561.24 644.183   2
  -7  -6   2 5832.98 612.450   9
  -7  -6   1 6723.37 527.237   7
  -7  -6   1 6334.47 672.444  10
   7   6  -1 5748.01 638.278   2
  -7  -6   1 5872.64 603.766   9
   7   6   0 187.962 187.782   2
  -7  -6   0 446.507 170.039   7
  -7  -6   0 259.243 159.075  10
  -7  -6   0 217.001 181.235   9
   7   6   1-114.601 214.382   2
  -7  -6  -1 26.0893 97.5751   7
  -7  -6  -1 162.253 201.308  10
  -7  -6  -1 448.210 221.902   9
   7   6   2 653.994 274.510   2
  -7  -6  -2 271.491 141.332   7
  -7  -6  -2 551.964 242.064  10
  -7  -6  -2 388.025 206.615   9
   7   6   3 3057.91 463.389   2
  -7  -6  -3 4042.40 444.089   7
  -7  -6  -3 3630.24 489.451  10
  -7  -6  -3 3552.43 443.122   9
   7   6   4-114.571 190.087   2
  -7  -6  -4 13.9483 123.130   7
  -7  -6  -4-48.7191 163.258  10
  -7  -6  -4 31.6645 141.795   9
   7   6   5-11.2614 140.952   2
  -7  -6  -5 225.901 130.174   7
  -7  -6  -5 352.191 188.554  10
  -7  -6  -5 92.1556 163.787   9
   7   6   6 1851.82 380.439   2
  -7  -6  -6 1566.18 308.336   7
  -7  -6  -6 1083.12 336.694  10
  -7  -6  -6 1353.52 288.002   9
  -7  -6  -7 2522.81 412.542   7
  -7  -6  -7 2023.52 417.856  10
  -7  -6  -7 2770.28 403.462   9
   7   6   7 2188.81 402.505   2
  -7  -6  -8 878.635 334.761  10
  -7  -6  -8 1209.80 287.001   9
   7   6   8 1056.12 299.914   2
  -7  -6  -9 1660.01 338.946   9
   7   6   9 1796.37 383.363   2
  -7  -6 -10 21.0489 180.099   9
   7   6  10 94.6725 171.752   2
  -7  -6 -11-234.023 324.375  11
   7   6  11 337.426 213.344   2
  -7  -6 -12 1272.84 335.923  11
   7   6  12 1389.44 341.762   2
  -7  -6 -13-112.581 219.233  11
   7   6  13-100.168 166.527   2
  -7  -6 -14-64.7324 203.827  11
   7   6  14 462.429 286.617   2
  -7  -6 -15 331.919 255.939  11
   7   6  15-133.465 192.600   2
  -7  -6 -16 308.720 275.936  11
   7   6  16 373.851 263.002   2
   7   6  16 178.266 253.422   1
   7   6  17 196.934 192.479   3
   7   6  17 111.543 194.158   2
   7   6  17 409.479 285.390   1
   7   6  18 1320.29 396.896   3
   7   6  18 1140.37 383.496   2
   7   7  -9 968.797 337.685   2
   7   7  -8 1580.56 391.816   2
  -7  -7   8 1465.32 398.003  10
   7   7  -7 406.103 272.424   2
  -7  -7   7-385.326 268.774  10
   7   7  -6 1.15845 220.581   2
  -7  -7   6-89.5929 171.876  10
   7   7  -5 1391.87 372.943   2
  -7  -7   5 906.415 322.005  10
   7   7  -4 1450.09 366.283   2
  -7  -7   4 1191.76 349.406  10
   7   7  -3 1892.78 392.235   2
  -7  -7   3 1939.91 420.598  10
   7   7  -2 3976.95 564.695   2
  -7  -7   2 4357.91 578.824  10
  -7  -7   2 4321.88 551.398   9
   7   7  -1-168.830 202.956   2
  -7  -7   1 74.5154 127.059   7
  -7  -7   1 180.234 202.094  10
  -7  -7   1-17.2251 179.505   9
   7   7   0 1326.93 336.320   2
  -7  -7   0 743.524 216.885   7
  -7  -7   0 924.852 313.735  10
  -7  -7   0 956.287 271.171   9
  -7  -7  -1 7185.68 606.268   7
  -7  -7  -1 6610.99 702.852  10
   7   7   1 7118.54 708.406   2
  -7  -7  -1 7124.53 687.971   9
   7   7   2 2557.16 427.513   2
  -7  -7  -2 2794.62 394.959   7
  -7  -7  -2 2250.99 391.325  10
  -7  -7  -2 2566.55 410.608   9
   7   7   3 404.456 247.797   2
  -7  -7  -3 637.443 223.520   7
  -7  -7  -3 65.8817 167.790  10
  -7  -7  -3 572.531 252.973   9
   7   7   4 181.309 199.988   2
  -7  -7  -4 675.872 258.180   7
  -7  -7  -4 307.786 194.576  10
  -7  -7  -4 474.630 176.115   9
  -7  -7  -5 8377.23 700.868   7
  -7  -7  -5 7341.52 768.638  10
   7   7   5 9176.43 803.376   2
  -7  -7  -5 8538.20 727.729   9
   7   7   6 2352.15 431.936   2
  -7  -7  -6 2435.07 390.974   7
  -7  -7  -6 2762.80 438.766  10
  -7  -7  -6 2369.64 401.056   9
  -7  -7  -7 6085.16 613.413   7
  -7  -7  -7 5731.30 637.248  10
   7   7   7 5437.41 623.947   2
  -7  -7  -7 5960.79 606.801   9
  -7  -7  -8-58.3968 173.496   7
  -7  -7  -8 23.8684 171.901  10
  -7  -7  -8 116.401 185.920   9
   7   7   8 272.112 156.641   2
  -7  -7  -9 1373.54 312.782   7
  -7  -7  -9 1193.49 348.503  10
  -7  -7  -9 1268.74 295.242   9
   7   7   9 1223.99 344.517   2
  -7  -7 -10-149.925 190.469   9
   7   7  10-0.41133 158.882   2
  -7  -7 -11 1060.87 304.095   9
   7   7  11 1169.29 340.743   2
  -7  -7 -12 337.980 182.060  11
   7   7  12 1082.80 340.442   2
  -7  -7 -13-433.221 343.185  11
   7   7  13 569.387 292.760   2
  -7  -7 -14-372.209 373.034  11
   7   7  14-55.2396 175.550   2
  -7  -7 -15-216.775 223.210  11
   7   7  15-209.232 297.206   2
   7   7  16-86.7948 217.396   1
  -7  -7 -16-4.73129 241.735  11
  -7  -7 -17 453.836 343.078  11
   7   7  17 526.106 296.295   2
   7   7  17 422.532 273.179   1
   7   7  18 188.720 220.137   2
   7   8  -7 556.815 292.235   2
  -7  -8   7 78.1931 193.469  10
   7   8  -6 169.757 201.924   2
  -7  -8   6 209.818 204.883  10
   7   8  -5 2154.67 437.284   2
  -7  -8   5 2636.08 513.322  10
   7   8  -4 18.4197 204.689   2
  -7  -8   4 46.0203 177.372  10
   7   8  -3 1693.33 424.252   2
  -7  -8   3 1812.86 407.626  10
  -7  -8   3 1068.04 344.798   9
   7   8  -2-46.0838 162.628   2
  -7  -8   2-219.524 226.198  10
  -7  -8   2 45.5301 178.155   9
   7   8  -1 693.192 257.951   2
  -7  -8   1 898.695 262.966   7
  -7  -8   1 545.457 281.706  10
  -7  -8   1 846.966 292.183   9
   7   8   0 410.617 179.079   2
  -7  -8   0-35.3492 155.527   7
  -7  -8   0-10.2549 154.286  10
  -7  -8  -1 14322.4 912.721   7
  -7  -8  -1 14320.6 1001.90  10
   7   8   1 14591.5 1062.94   2
  -7  -8  -1 13613.8 966.545   9
   7   8   2-252.438 246.438   2
  -7  -8  -2-160.643 167.916   7
  -7  -8  -2 176.838 181.832  10
  -7  -8  -2-255.245 191.149   9
   7   8   3 1495.99 349.804   2
  -7  -8  -3 1710.42 350.541   7
  -7  -8  -3 2076.96 384.918  10
  -7  -8  -3 1600.76 357.505   9
   7   8   4 1615.22 385.979   2
  -7  -8  -4 1347.55 314.452   7
  -7  -8  -4 1405.89 352.090  10
  -7  -8  -4 1365.08 359.236   9
   7   8   5 3401.06 524.884   2
  -7  -8  -5 3945.74 525.658   7
  -7  -8  -5 2748.02 461.519  10
  -7  -8  -5 3901.84 536.131   9
  -7  -8  -6 2992.92 447.131   7
   7   8   6 3837.22 551.350   2
  -7  -8  -6 3898.81 519.249  10
  -7  -8  -6 3863.44 538.427   9
  -7  -8  -7 1857.55 388.023   7
  -7  -8  -7 1509.51 341.540  10
  -7  -8  -7 1721.06 353.294   9
   7   8   7 1438.80 363.737   2
  -7  -8  -8 2202.79 414.947   7
  -7  -8  -8 2245.19 407.489  10
  -7  -8  -8 2022.72 397.888   9
   7   8   8 1423.93 317.980   2
  -7  -8  -9 401.110 210.569   7
  -7  -8  -9 502.435 230.577  10
  -7  -8  -9 614.004 213.234   9
   7   8   9 826.216 308.535   2
  -7  -8 -10 2508.23 448.878   7
  -7  -8 -10 2996.15 493.149   9
   7   8  10 2749.65 499.466   2
  -7  -8 -11 4769.87 612.671   7
  -7  -8 -11 4497.69 586.386   9
   7   8  11 4431.65 622.512   2
   7   8  12 135.356 173.209   2
  -7  -8 -12 889.932 300.224   9
  -7  -8 -13 1370.47 351.038  11
   7   8  13 2057.83 457.012   2
  -7  -8 -14 810.779 265.568  11
   7   8  14 1485.26 407.228   2
  -7  -8 -15 67.9319 262.964  11
   7   8  15 346.351 258.990   2
   7   8  16 258.090 262.386   2
   7   8  16 100.400 217.699   1
  -7  -9   6 872.191 308.090  10
   7   9  -5 51.7037 169.987   2
  -7  -9   5 685.240 293.670  10
   7   9  -4 850.740 300.238   2
  -7  -9   4 674.949 343.177  10
   7   9  -3-172.321 197.308   2
  -7  -9   3 63.6402 208.744  10
  -7  -9   3 464.261 262.557   9
   7   9  -2 120.343 216.794   2
  -7  -9   2 113.105 161.630  10
  -7  -9   2-106.776 205.744   9
   7   9  -1 199.033 226.613   2
  -7  -9   1 374.549 231.288   7
  -7  -9   1 184.198 204.016  10
  -7  -9   1 254.872 258.599   9
   7   9   0 2431.94 465.184   2
  -7  -9   0 3172.28 478.393   7
  -7  -9   0 2702.92 480.121  10
  -7  -9   0 2278.32 433.933   9
  -7  -9  -1 3699.06 522.070   7
   7   9   1 4559.39 623.386   2
  -7  -9  -1 4214.51 569.820  10
  -7  -9  -1 4896.97 642.078   9
   7   9   2-1.10193 164.670   2
  -7  -9  -2 197.612 230.904   7
  -7  -9  -2 484.422 217.217  10
  -7  -9  -2 101.954 173.416   9
   7   9   3 1001.30 309.748   2
  -7  -9  -3 1041.50 295.975   7
  -7  -9  -3 1198.23 322.361  10
  -7  -9  -3 938.773 331.099   9
   7   9   4 1260.47 358.606   2
  -7  -9  -4 1239.83 309.395   7
  -7  -9  -4 1349.72 378.707  10
  -7  -9  -4 1293.59 313.817   9
  -7  -9  -5 54.5975 161.512   7
  -7  -9  -5-36.1783 151.159  10
  -7  -9  -5 475.203 253.892   9
   7   9   5-107.420 173.845   2
  -7  -9  -6-155.403 240.288   7
  -7  -9  -6-87.7137 169.048  10
  -7  -9  -6 110.953 181.018   9
   7   9   6-161.052 190.147   2
  -7  -9  -7 812.243 306.781   7
  -7  -9  -7 477.899 221.086  10
  -7  -9  -7 406.920 256.130   9
   7   9   7 531.870 240.339   2
  -7  -9  -8 267.713 152.788   7
  -7  -9  -8 244.098 214.940  10
  -7  -9  -8-23.8514 185.522   9
   7   9   8 267.459 243.088   2
  -7  -9  -9 23.3693 188.067   7
  -7  -9  -9 253.691 172.725  10
  -7  -9  -9 511.009 244.165   9
   7   9   9 284.773 175.275   2
  -7  -9 -10 2753.43 486.046   7
  -7  -9 -10 3244.91 512.604  10
  -7  -9 -10 4145.90 582.227   9
   7   9  10 4270.93 624.527   2
  -7  -9 -11 1626.83 395.745   7
  -7  -9 -11 1915.47 438.311   9
   7   9  11 1658.82 437.027   2
  -7  -9 -12 4127.01 633.247   7
   7   9  12 3657.89 593.784   2
  -7  -9 -12 3545.22 569.297   9
  -7  -9 -13 3900.12 614.024   7
   7   9  13 4614.44 691.191   2
  -7  -9 -13 3958.52 602.801   9
  -7  -9 -14 4045.01 639.205   7
   7   9  14 3559.00 681.262   2
  -7  -9 -14 3491.01 571.944   9
  -7  -9 -15-774.311 444.872  11
   7   9  15 550.483 362.234   2
  -7 -10   5 775.130 330.092  10
  -7 -10   4 520.793 274.220  10
   7  10  -3-118.245 241.770   2
  -7 -10   3 419.868 258.767  10
   7  10  -2-103.427 232.709   2
  -7 -10   2-328.581 252.401  10
  -7 -10   2 300.714 302.954   9
   7  10  -1 410.299 230.435   2
  -7 -10   1 275.406 182.175   7
  -7 -10   1 32.1935 157.202  10
  -7 -10   1 272.446 242.921   9
   7  10   0 2012.88 451.416   2
  -7 -10   0 2237.66 441.471   7
  -7 -10   0 1919.45 402.608  10
  -7 -10   0 2228.50 462.900   9
   7  10   1 1257.50 375.240   2
  -7 -10  -1 1183.09 322.006   7
  -7 -10  -1 1024.57 314.987  10
  -7 -10  -1 1293.41 393.725   9
   7  10   2 835.409 312.778   2
  -7 -10  -2 887.897 301.133   7
  -7 -10  -2 492.590 261.242  10
  -7 -10  -2 710.114 294.271   9
  -7 -10  -3 4927.16 615.076   7
  -7 -10  -3 4467.11 603.488  10
  -7 -10  -3 5079.98 677.441   9
   7  10   3 4230.47 614.339   2
  -7 -10  -4-86.6445 185.566   7
  -7 -10  -4 97.4625 152.422  10
  -7 -10  -4-149.555 181.289   9
   7  10   4 121.564 209.067   2
  -7 -10  -5 942.557 360.376   7
  -7 -10  -5 662.402 293.047  10
  -7 -10  -5 394.651 262.511   9
   7  10   5 531.137 246.096   2
  -7 -10  -6 469.852 259.754   7
  -7 -10  -6 49.3743 152.760  10
  -7 -10  -6 57.2002 222.441   9
   7  10   6 261.560 225.626   2
  -7 -10  -7 358.980 177.216   7
  -7 -10  -7-54.3914 161.787  10
  -7 -10  -7 471.050 214.931   9
   7  10   7 462.491 257.836   2
  -7 -10  -8 479.692 257.744   7
  -7 -10  -8 375.944 179.113  10
  -7 -10  -8 197.223 255.073   9
   7  10   8 340.906 252.575   2
  -7 -10  -9 407.212 307.573   7
  -7 -10  -9 250.380 164.803  10
  -7 -10  -9 466.775 233.713   9
   7  10   9 306.451 283.284   2
  -7 -10 -10 3120.32 536.040   7
  -7 -10 -10 2269.60 482.353  10
  -7 -10 -10 2837.96 533.290   9
   7  10  10 2674.14 513.312   2
  -7 -10 -11 19.2194 199.009   7
  -7 -10 -11 310.919 245.196  10
  -7 -10 -11 243.659 180.701   9
   7  10  11-112.053 224.402   2
  -7 -10 -12 1428.04 390.004   7
  -7 -10 -12 618.819 287.818  10
  -7 -10 -12 1158.22 373.591   9
  -7 -10 -13 2710.64 511.986   7
   7  10  13 2332.19 511.112   2
  -7 -10 -13 2658.06 505.173   9
   7  11  -1 1088.75 357.027   2
   7  11   0 488.062 287.860   2
  -7 -11   0 761.610 310.377   7
  -7 -11  -1-140.877 180.249   7
  -7 -11  -1-107.679 271.736   9
   7  11   1-101.268 215.977   2
  -7 -11  -2 761.426 303.721   7
  -7 -11  -2 476.773 229.889  10
  -7 -11  -2 495.460 267.754   9
   7  11   2 713.317 321.132   2
  -7 -11  -3 3674.04 575.449   7
  -7 -11  -3 3269.68 508.702  10
  -7 -11  -3 2597.01 532.766   9
   7  11   3 3440.52 560.033   2
  -7 -11  -4 543.394 283.780   7
  -7 -11  -4 754.898 286.507  10
  -7 -11  -4 627.203 315.523   9
   7  11   4 443.588 254.124   2
  -7 -11  -5 674.433 281.696   7
  -7 -11  -5 704.417 262.348  10
  -7 -11  -5 578.719 225.149   9
   7  11   5 888.024 328.734   2
  -7 -11  -6 375.052 272.857   7
  -7 -11  -6 386.033 280.406  10
  -7 -11  -6 277.057 274.663   9
   7  11   6 38.1246 191.028   2
  -7 -11  -7 836.615 331.334   7
  -7 -11  -7 161.649 216.644  10
  -7 -11  -7 132.527 186.282   9
   7  11   7 423.942 256.382   2
  -7 -11  -8-183.610 193.280   7
  -7 -11  -8 318.065 253.206  10
  -7 -11  -8 180.527 191.649   9
   7  11   8 27.6237 195.652   2
  -7 -11  -9 1097.97 376.691   7
  -7 -11  -9 871.492 322.838  10
  -7 -11  -9 1041.61 332.280   9
   7  11   9 666.690 298.165   2
  -7 -11 -10 315.794 268.613   7
  -7 -11 -10 507.422 296.728  10
  -7 -11 -10 945.407 375.828   9
   7  11  10 366.039 317.587   2
  -7 -11 -11 172.155 298.588   7
  -7 -11 -11 433.327 233.037  10
  -7 -11 -11-483.406 318.665   9
  -7 -11 -12 2315.06 480.013  10
  -7 -11 -13 874.363 340.959  10
  -7 -12  -1-64.3765 191.735   7
  -7 -12  -2 1685.88 430.410   7
   7  12   2 773.408 303.726   2
  -7 -12  -3 316.230 254.470   7
   7  12   3 302.896 243.046   2
  -7 -12  -4 286.087 227.180   7
   7  12   4 308.775 185.571   2
  -7 -12  -5 702.950 292.923   7
   7  12   5 1121.22 381.668   2
  -7 -12  -6 191.920 245.369   7
  -7 -12  -7 411.204 256.091   7
  -8   9   5 623.718 329.103   5
  -8   9   4 2397.39 503.935   5
  -8   9   3 1194.13 387.735   5
  -8   9   2 267.696 274.070   5
  -8   9   1 6.45439 217.810   5
  -8   9   0 1734.72 442.298   5
  -8   9  -1 570.611 304.539   5
  -8   9  -2 1669.23 416.570   5
  -8   8   8 367.904 208.003   5
  -8   8   7 1927.73 441.858   5
  -8   8   6 94.4781 190.139   5
  -8   8   5 1219.91 369.648   5
   8  -8  -4 1717.65 457.720   8
  -8   8   4 1505.88 398.028   5
   8  -8  -3 1391.66 413.230   8
  -8   8   3 1614.11 426.207   5
  -8   8   2 681.132 318.348   5
   8  -8  -2 229.365 217.695   8
  -8   8   1 332.337 261.894   5
   8  -8  -1 107.140 215.077   8
  -8   8   0 1912.54 427.984   5
   8  -8   0 1714.06 425.243   8
  -8   8  -1 577.763 324.563   5
   8  -8   1 586.157 287.357   8
  -8   8  -2 2574.24 507.811   5
   8  -8   2 3639.35 609.002   8
  -8   8  -3 191.088 201.469   5
   8  -8   3 267.812 259.453   8
  -8   8  -4 433.567 300.693   5
   8  -8   4 10.6034 183.980   8
  -8   8  -5 599.141 282.907   5
   8  -8   5 740.685 307.966   8
   8  -8   6 3315.43 537.028   3
  -8   8  -6 3029.42 571.770   5
   8  -8   6 2678.79 555.656   8
   8  -8   7 330.390 245.898   3
   8  -8   8 960.755 311.409   3
   8  -8   9 384.092 270.941   3
  -8   7   9 565.333 318.580   1
  -8   7   8 1245.64 427.666   1
  -8   7   8 1171.00 352.930   5
   8  -7  -7 961.891 345.224   8
  -8   7   7 601.014 331.819   1
  -8   7   7 542.621 244.002   5
   8  -7  -6 625.710 312.046   8
  -8   7   6 322.135 269.046   1
  -8   7   6 246.783 222.453   5
   8  -7  -5-101.270 167.606   8
  -8   7   5 281.244 243.005   5
  -8   7   4 4880.97 634.138   5
   8  -7  -4 4873.79 674.707   8
   8  -7  -3 977.280 359.542   8
  -8   7   3 709.065 275.970   5
   8  -7  -2 350.099 217.338   8
  -8   7   2 306.582 165.782   5
  -8   7   1 1571.04 395.317   5
   8  -7  -1 1663.38 417.882   8
  -8   7   0-30.9790 164.047   5
   8  -7   0-216.695 245.161   8
  -8   7  -1 1260.78 353.869   5
   8  -7   1 1031.93 344.687   8
  -8   7  -2 90.0804 188.072   5
   8  -7   2 70.9364 234.700   8
  -8   7  -3 749.934 276.947   5
   8  -7   3 190.093 201.829   8
   8  -7   4-4.35888 127.284   3
   8  -7   4-200.559 174.256   8
   8  -7   5 1414.59 335.768   3
  -8   7  -5 2000.71 466.676   5
   8  -7   5 1789.77 412.615   8
   8  -7   6 2970.99 471.677   3
   8  -7   6 2464.62 493.703   8
   8  -7   7 2110.55 433.088   3
  -8   7  -7 3112.90 558.379   5
   8  -7   7 2152.10 475.674   8
   8  -7   8 745.452 285.946   3
  -8   7  -8 1405.08 410.917   5
   8  -7   8 824.290 313.336   8
   8  -7   9 1064.84 366.822   3
  -8   7  -9 1692.41 430.058   5
   8  -7   9 1519.97 428.671   8
   8  -7  10 135.685 226.853   3
   8  -6  -9 155.728 236.165   8
  -8   6   9-43.6139 198.332   1
   8  -6  -8 519.590 279.309   8
  -8   6   8 530.663 267.623   1
   8  -6  -7 54.4593 191.859   8
  -8   6   7-73.2412 218.360   1
  -8   6   7 52.1242 176.176   5
   8  -6  -6 237.107 265.099   8
  -8   6   6 462.020 236.186   1
  -8   6   6 147.888 174.076   5
   8  -6  -5 2342.57 484.355   8
  -8   6   5 1635.00 431.451   1
  -8   6   5 2532.06 451.514   5
   8  -6  -4 1810.42 402.667   8
  -8   6   4 1337.35 364.064   1
  -8   6   4 1906.02 382.251   5
   8  -6  -3 641.850 281.172   8
  -8   6   3 654.013 278.083   1
  -8   6   3 432.508 196.091   5
   8  -6  -2 1409.03 387.960   8
  -8   6   2 1393.09 329.730   5
  -8   6   2 1215.48 331.557   1
  -8   6   1 654.525 235.821   5
   8  -6  -1 579.598 253.948   8
  -8   6   0 2627.56 453.968   5
   8  -6   0 2482.66 457.493   8
  -8   6  -1 125.018 165.463   5
   8  -6   1-38.6995 175.380   8
  -8   6  -2 701.369 252.460   5
   8  -6   2 555.038 248.076   8
   8  -6   3 1844.45 321.796   3
  -8   6  -3 2277.23 430.226   5
   8  -6   3 2027.23 441.010   8
   8  -6   4 281.561 212.178   3
  -8   6  -4 362.349 264.362   5
   8  -6   4 172.515 212.452   8
   8  -6   5 3090.22 448.741   3
  -8   6  -5 3053.68 498.625   5
   8  -6   5 2721.14 496.598   8
   8  -6   6 423.088 220.946   3
  -8   6  -6 451.668 268.003   5
   8  -6   6 372.492 258.770   8
   8  -6   7 1021.23 299.043   3
  -8   6  -7 1152.71 364.273   5
   8  -6   7 1120.16 347.343   8
   8  -6   8 826.991 300.870   3
  -8   6  -8 1857.75 453.657   5
   8  -6   8 1262.12 348.052   8
   8  -6   9 216.565 181.622   3
   8  -6   9 178.898 167.654   8
   8  -6  10 1515.81 385.488   3
  -8   6 -10 1394.73 398.968   5
   8  -6  10 1078.30 353.206   8
   8  -6  11 116.662 264.221   3
  -8   6 -11-127.709 186.279   5
   8  -6  12 168.738 229.974   3
  -8   5  11 648.510 347.476  10
   8  -5 -10 281.080 259.002   8
  -8   5  10 163.658 219.674  10
   8  -5  -9 1104.40 369.154   8
  -8   5   9 1118.10 425.951   1
  -8   5   9 1017.93 367.703  10
   8  -5  -8-307.420 241.064   8
  -8   5   8-72.8630 195.540   1
  -8   5   8 138.419 189.449  10
   8  -5  -7 560.477 300.212   8
  -8   5   7 12.1855 203.390   1
  -8   5   7 266.519 234.163  10
   8  -5  -6 1511.32 378.505   8
  -8   5   6 565.908 276.268   1
  -8   5   6 1089.63 283.124  10
  -8   5   6 798.675 301.738   5
   8  -5  -5 3966.60 571.842   8
  -8   5   5 4106.87 631.859   1
  -8   5   5 4072.40 525.137   5
  -8   5   5 3607.74 476.592  10
   8  -5  -4 1128.38 328.599   8
  -8   5   4 1102.50 368.131   1
  -8   5   4 1279.05 312.124  10
  -8   5   4 1536.01 314.949   5
   8  -5  -3 389.813 249.788   8
  -8   5   3 574.720 272.148   1
  -8   5   3 910.615 261.277  10
  -8   5   3 810.871 235.106   5
  -8   5   2 4689.83 623.651   1
  -8   5   2 5202.46 591.294   5
  -8   5   2 4084.46 480.252  10
   8  -5  -2 4641.13 596.954   8
  -8   5   1 1929.23 326.956  10
  -8   5   1 2010.50 384.504   5
   8  -5  -1 1081.87 288.395   8
  -8   5   0 1790.06 332.377  10
  -8   5   0 2359.66 406.948   5
   8  -5   0 1876.64 373.897   8
   8  -5   1-102.345 112.153   2
  -8   5  -1 239.592 209.490   5
  -8   5  -1-46.7929 157.504  10
   8  -5   1-140.122 173.985   8
   8  -5   2 2045.20 300.451   3
   8  -5   2 2004.49 315.832   2
  -8   5  -2 1779.36 326.733   5
   8  -5   2 2256.51 433.676   8
   8  -5   3 3892.93 437.628   3
  -8   5  -3 3978.03 556.019   5
   8  -5   3 3909.80 405.193   2
   8  -5   3 2669.71 462.944   8
   8  -5   4 3547.75 445.450   3
  -8   5  -4 3625.30 528.438   5
   8  -5   4 3318.86 514.772   8
   8  -5   5 2361.99 382.634   3
  -8   5  -5 2347.66 422.943   5
   8  -5   5 2379.26 446.608   8
   8  -5   6 292.786 194.878   3
  -8   5  -6-17.7238 162.757   5
   8  -5   6 625.290 282.468   8
   8  -5   7 303.590 190.359   3
  -8   5  -7 252.998 190.156   5
   8  -5   7 490.338 262.989   8
   8  -5   8 4765.18 598.750   3
  -8   5  -8 5012.58 652.368   5
   8  -5   8 5283.82 696.383   8
   8  -5   9 272.551 225.230   3
  -8   5  -9 270.037 238.745   5
   8  -5   9 479.165 242.760   8
   8  -5  10 1106.93 366.177   3
   8  -5  10 1095.78 387.325   8
   8  -5  11 292.142 220.339   3
   8  -5  11-338.740 268.493   8
   8  -5  12-289.972 191.610   3
   8  -5  12 449.776 354.993   8
   8  -5  13 17.5124 196.281   3
   8  -4 -11-377.322 297.273   8
  -8   4  11-41.8818 214.593  10
   8  -4 -10 1933.50 435.973   8
  -8   4  10 1522.89 378.281  10
   8  -4  -9 2200.03 411.629   8
  -8   4   9 1390.12 393.143   1
  -8   4   9 1904.70 452.638  10
   8  -4  -8 8.36508 167.419   8
  -8   4   8 307.007 283.535   1
  -8   4   8 186.193 168.504  10
   8  -4  -7 92.1039 160.111   8
  -8   4   7 180.566 243.705   1
  -8   4   7 116.887 167.765  10
   8  -4  -6 2828.59 473.647   8
  -8   4   6 2594.78 550.200   1
  -8   4   6 2631.85 452.625  10
  -8   4   6 3110.19 419.401   5
   8  -4  -5 3165.24 487.740   8
  -8   4   5 3023.52 572.036   1
  -8   4   5 3188.87 468.107  10
  -8   4   5 2975.88 421.621   5
   8  -4  -4 360.842 223.493   8
  -8   4   4 410.455 261.851   1
  -8   4   4 712.672 223.513  10
  -8   4   4 507.157 193.480   5
  -8   4   3 4575.85 670.464   1
  -8   4   3 4894.23 535.284   5
  -8   4   3 4980.35 550.910  10
   8  -4  -3 4362.74 557.996   8
   8  -4  -2 781.601 264.093   8
  -8   4   2 671.205 208.139  10
  -8   4   2 850.145 260.094   5
  -8   4   2 812.902 310.733   1
  -8   4   1 494.777 216.211  10
  -8   4   1 438.512 190.841   5
   8  -4  -1 34.0262 169.199   8
   8  -4   0 1637.08 322.303   2
  -8   4   0 1656.06 308.530  10
  -8   4   0 1818.91 340.442   5
   8  -4   0 1330.59 330.051   8
   8  -4   1 1788.04 268.400   3
   8  -4   1 1583.02 284.129   2
  -8   4  -1 1824.71 348.012   5
  -8   4  -1 1414.16 287.316  10
   8  -4   1 1177.00 306.128   8
   8  -4   2 1418.83 256.963   3
   8  -4   2 1602.39 293.719   2
  -8   4  -2 978.922 281.236   5
  -8   4  -2 1334.60 271.176  10
   8  -4   2 1136.63 292.285   8
   8  -4   3-7.39918 127.256   3
   8  -4   3 123.931 149.438   2
  -8   4  -3 299.725 219.490   5
  -8   4  -3 229.496 170.214  10
   8  -4   3-230.316 225.200   8
   8  -4   4 5941.58 540.982   3
  -8   4  -4 6706.17 677.036   5
  -8   4  -4 6908.68 611.421  10
   8  -4   4 6860.54 544.618   2
   8  -4   4 5607.09 631.342   8
   8  -4   5 20.9369 96.1016   2
   8  -4   5 507.318 254.831   3
  -8   4  -5 130.085 207.038   5
  -8   4  -5 190.887 151.455  10
   8  -4   5-106.820 158.017   8
   8  -4   6 389.400 197.189   3
  -8   4  -6 692.749 206.262  10
   8  -4   6 500.533 249.174   8
   8  -4   7 2106.09 385.389   3
  -8   4  -7 2592.62 458.651   5
  -8   4  -7 2154.99 371.976  10
   8  -4   7 2316.59 453.167   8
   8  -4   8 1324.72 316.937   3
  -8   4  -8 1085.14 260.155  10
   8  -4   8 1373.72 362.471   8
   8  -4   9 2365.90 430.837   3
  -8   4  -9 2785.42 418.433  10
   8  -4   9 2396.06 487.682   8
   8  -4  10 79.0286 197.451   3
   8  -4  10 3.93663 181.325   8
   8  -4  11 150.700 235.554   3
   8  -4  11 368.449 295.597   8
   8  -4  12 593.911 316.044   3
   8  -4  12 259.367 217.401   8
   8  -4  13 525.201 319.402   3
   8  -4  13-7.33782 194.223   8
   8  -4  14 1037.16 377.612   3
  -8   3  10 5273.82 692.067  10
   8  -3 -10 5144.90 667.593   8
   8  -3  -9 495.680 281.644   8
  -8   3   9 732.776 372.062   1
  -8   3   9 134.513 239.543  10
   8  -3  -8 994.981 291.847   8
  -8   3   8 1061.71 347.010   1
  -8   3   8 1005.01 292.285  10
   8  -3  -7 132.221 179.089   8
  -8   3   7 45.9765 200.295   1
   8  -3  -7 507.456 226.929  11
  -8   3   7 383.509 214.150  10
  -8   3   6 3643.86 616.068   1
  -8   3   6 3682.17 534.279  10
   8  -3  -6 4134.77 538.644   8
   8  -3  -5 82.6936 163.144   8
  -8   3   5 83.1549 235.803   1
  -8   3   5 177.215 146.003  10
  -8   3   5 56.3376 116.681   5
   8  -3  -4 2211.32 404.965   8
  -8   3   4 1914.01 466.525   1
  -8   3   4 2263.50 413.806  10
  -8   3   4 2431.96 358.974   5
   8  -3  -3 2803.56 430.803   8
  -8   3   3 1716.82 431.886   1
  -8   3   3 2444.77 431.625  10
  -8   3   3 2799.64 379.876   5
   8  -3  -2 1463.19 301.686   8
  -8   3   2 1562.61 336.220  10
  -8   3   2 1587.38 288.571   5
  -8   3   2 1845.83 429.023   1
   8  -3  -1 1517.53 316.815   2
  -8   3   1 1206.09 299.042  10
  -8   3   1 1521.99 300.520   5
   8  -3  -1 1330.11 287.697   8
   8  -3   0 2479.41 383.868   2
  -8   3   0 2669.22 399.329   5
  -8   3   0 2413.90 390.874  10
   8  -3   0 2215.24 370.649   8
   8  -3   1 540.855 144.629   3
   8  -3   1 473.075 183.853   2
  -8   3  -1 425.932 213.449   5
  -8   3  -1 290.250 141.799  10
   8  -3   1 514.810 238.756   8
   8  -3   2 783.503 197.273   3
   8  -3   2 900.200 217.937   2
  -8   3  -2 689.912 228.704   5
  -8   3  -2 834.372 251.589  10
   8  -3   2 759.070 239.394   8
   8  -3   3 6319.25 519.165   3
  -8   3  -3 6396.17 623.220   5
  -8   3  -3 5965.65 598.725  10
   8  -3   3 6959.18 579.005   2
   8  -3   3 6952.44 638.449   8
   8  -3   4 108.553 107.798   2
   8  -3   4-0.64994 109.792   3
  -8   3  -4 151.905 200.632   5
  -8   3  -4 156.801 130.064  10
   8  -3   4-179.988 158.343   8
   8  -3   5 3397.20 431.828   3
  -8   3  -5 3564.11 487.065   5
  -8   3  -5 3125.14 425.421  10
   8  -3   5 2778.39 356.597   2
   8  -3   5 3379.07 469.909   8
   8  -3   6 2900.23 409.700   3
  -8   3  -6 2655.29 399.251  10
   8  -3   6 2489.33 322.551   2
   8  -3   6 2824.17 449.366   8
   8  -3   7 6222.32 628.381   3
  -8   3  -7 6460.95 600.215  10
   8  -3   7 6225.15 485.527   2
   8  -3   7 5617.25 643.945   8
   8  -3   8 4281.99 530.081   3
  -8   3  -8 3899.78 451.854  11
  -8   3  -8 3958.83 486.247  10
   8  -3   8 4219.78 584.739   8
   8  -3   9 91.3942 149.075   3
  -8   3  -9-29.9260 142.092  11
   8  -3   9 391.978 246.739   8
   8  -3  10 1387.48 360.980   3
  -8   3 -10 900.187 273.271  11
   8  -3  10 530.676 304.092   8
   8  -3  11 380.218 211.022   3
  -8   3 -11 408.370 229.164  11
   8  -3  11 619.862 328.483   8
   8  -3  12 164.761 190.276   3
   8  -3  12 281.682 270.862   8
   8  -3  13 2169.31 461.757   3
   8  -3  14 329.093 228.002   3
   8  -2 -12 245.512 247.836  11
   8  -2 -11 6632.75 727.911  11
   8  -2 -10 1718.35 381.340  11
  -8   2  10 1686.90 457.276  10
  -8   2   9-47.3880 253.798   1
   8  -2  -9-133.023 140.262  11
  -8   2   9 76.5964 202.989  10
   8  -2  -8 309.990 247.262   8
  -8   2   8 646.271 288.380   1
   8  -2  -8 33.4047 187.525  11
  -8   2   8 68.2173 182.093  10
  -8   2   7 6813.07 815.019   1
  -8   2   7 5723.70 672.201  10
   8  -2  -7 5857.40 621.217   8
   8  -2  -6 1653.38 343.283   8
  -8   2   6 1571.67 438.498   1
  -8   2   6 1697.85 379.944  10
   8  -2  -5-190.816 184.754   8
  -8   2   5 111.786 189.462   1
  -8   2   5 208.851 223.275  10
  -8   2   4 4196.69 638.596   1
  -8   2   4 4033.89 417.490   5
  -8   2   4 3465.71 504.329  10
   8  -2  -4 3763.96 488.303   8
  -8   2   3 86.2049 208.503   1
   8  -2  -3 421.112 215.844   8
  -8   2   3 126.590 178.528  10
  -8   2   3 122.371 119.320   5
   8  -2  -2 640.462 233.849   8
   8  -2  -2 616.673 225.187   2
  -8   2   2 494.887 184.855  10
  -8   2   2 522.296 184.293   5
  -8   2   2 421.420 239.038   1
   8  -2  -1 1127.48 293.907   2
  -8   2   1 1404.27 326.555  10
  -8   2   1 1165.86 231.813   5
   8  -2  -1 943.372 253.367   8
   8  -2   0 9928.85 548.745   3
  -8   2   0 9300.18 670.498   5
  -8   2   0 9813.37 758.580  10
   8  -2   0 9109.35 712.600   2
   8  -2   0 9584.27 712.622   8
   8  -2   1 1087.56 216.708   3
   8  -2   1 890.278 235.981   2
  -8   2  -1 782.297 216.839   5
  -8   2  -1 454.369 237.984  10
   8  -2   1 579.357 203.595   8
   8  -2   2 19189.9 844.984   3
  -8   2  -2 20481.9 1030.22   5
  -8   2  -2 18594.4 1012.46  10
   8  -2   2 19319.9 1003.61   2
   8  -2   2 18788.3 992.582   8
   8  -2   3 20.7903 123.056   2
   8  -2   3 162.881 155.069   3
  -8   2  -3 127.180 164.918   5
  -8   2  -3 170.085 164.975  10
   8  -2   3 94.8659 135.056   8
   8  -2   4-109.970 124.362   2
   8  -2   4 304.844 159.902   3
  -8   2  -4 327.512 194.489   5
  -8   2  -4 77.1368 127.362  10
   8  -2   4 223.631 174.198   8
   8  -2   5 465.517 171.062   2
   8  -2   5 721.776 205.103   3
  -8   2  -5 363.635 191.399  10
   8  -2   5 485.485 199.624   8
   8  -2   6 13655.2 849.195   3
  -8   2  -6 13159.4 885.819  10
   8  -2   6 13445.8 759.685   2
   8  -2   6 12381.3 868.467   8
   8  -2   7-53.9692 108.069   2
   8  -2   7 174.593 184.424   3
  -8   2  -7 6.11509 148.658  10
   8  -2   7 5.12907 161.922   8
   8  -2   8 314.266 147.572   2
   8  -2   8 106.282 189.827   3
  -8   2  -8-78.0619 170.330  11
  -8   2  -8 203.800 154.766  10
   8  -2   8 186.929 199.126   8
   8  -2   9 439.230 210.583   3
  -8   2  -9 712.483 186.142  11
   8  -2   9 673.187 260.473   8
   8  -2  10 1082.86 313.183   3
  -8   2 -10 1085.22 260.246  11
   8  -2  10 1361.75 372.866   8
   8  -2  11 294.668 248.685   3
  -8   2 -11 242.955 203.628  11
   8  -2  11 258.745 241.810   8
   8  -2  12 6886.97 762.665   3
  -8   2 -12 5994.47 645.215  11
   8  -2  13 2842.51 504.413   3
  -8   2 -13 2784.01 468.182  11
   8  -2  14 44.8603 206.854   3
  -8   2 -14 381.786 265.782  11
   8  -2  15 236.496 224.582   3
  -8   2 -15 199.393 210.294  11
  -8   2 -16 1150.13 334.732  11
  -8   2 -17 131.739 265.962  11
   8  -1 -12 691.599 282.020  11
   8  -1 -11 683.416 292.828  11
   8  -1 -10-161.506 177.862  11
  -8   1  10 184.328 249.588  10
  -8   1   9 52.1001 224.801   1
   8  -1  -9 364.710 220.274  11
  -8   1   9 539.504 334.732  10
  -8   1   8 5667.55 781.890   1
  -8   1   8 5328.93 664.784  10
  -8   1   7 1961.90 483.550   1
  -8   1   7 1768.38 404.824  10
   8  -1  -6-132.671 178.494   8
  -8   1   6 140.678 213.126   1
  -8   1   6-155.790 181.748  10
   8  -1  -5 2719.97 394.442   8
  -8   1   5 3190.53 557.100   1
  -8   1   5 3193.70 496.121  10
  -8   1   4 1572.50 405.354   1
   8  -1  -4 1581.23 306.999   8
  -8   1   4 1138.73 307.555  10
   8  -1  -3 309.887 184.673   8
   8  -1  -3 247.558 199.110   2
  -8   1   3 361.520 178.118  10
  -8   1   3 222.030 127.600   5
  -8   1   3 197.539 218.799   1
   8  -1  -2 1164.31 247.223   8
   8  -1  -2 563.924 252.831   2
  -8   1   2 895.765 274.249  10
  -8   1   2 877.260 188.794   5
   8  -1  -1 8726.28 488.379   3
  -8   1   1 8668.74 589.570   5
  -8   1   1 7571.36 682.905  10
   8  -1  -1 8078.52 700.722   2
   8  -1  -1 8698.35 641.819   8
   8  -1   0 4836.75 388.532   3
  -8   1   0 5685.14 497.202   5
  -8   1   0 5074.69 555.274  10
   8  -1   0 4950.79 540.396   2
   8  -1   0 4165.80 459.643   8
   8  -1   1 732.625 219.087   2
   8  -1   1 740.438 164.514   3
  -8   1  -1 1131.28 254.483   5
  -8   1  -1 256.678 169.839  10
   8  -1   1 896.503 244.479   8
   8  -1   2 2756.00 322.240   3
   8  -1   2 2912.10 396.191   2
  -8   1  -2 3260.61 392.937   5
  -8   1  -2 2838.93 423.214  10
   8  -1   2 2966.73 392.569   8
   8  -1   3 1244.51 281.562   2
   8  -1   3 1334.57 246.608   3
  -8   1  -3 1592.04 301.818   5
  -8   1  -3 862.261 247.162  10
   8  -1   3 1018.47 244.518   8
   8  -1   4 413.928 172.770   2
   8  -1   4 398.859 157.094   3
  -8   1  -4 213.939 174.209  10
   8  -1   4 782.329 240.203   8
   8  -1   5 4842.86 489.023   3
  -8   1  -5 4419.30 516.577  10
   8  -1   5 4622.27 468.953   2
   8  -1   5 4427.11 485.557   8
   8  -1   6 1858.58 300.252   2
   8  -1   6 2018.04 341.731   3
  -8   1  -6 1339.30 318.193  10
   8  -1   6 1855.77 346.052   8
   8  -1   7 162.934 118.088   2
   8  -1   7 45.7031 131.128   3
  -8   1  -7-65.1365 131.547  10
   8  -1   7 93.1360 165.662   8
   8  -1   8-157.119 141.932   2
   8  -1   8 27.6628 129.542   3
  -8   1  -8 57.5875 148.017  11
  -8   1  -8-69.1285 177.402  10
   8  -1   8-264.176 155.044   8
   8  -1   9-114.800 191.088   3
  -8   1  -9 110.737 124.728  11
   8  -1   9 59.7537 212.898   8
   8  -1   9-24.7529 94.2775   2
   8  -1  10 432.305 196.721   3
  -8   1 -10 256.645 141.565  11
   8  -1  10 97.1607 145.444   8
   8  -1  10 344.083 154.169   2
   8  -1  11 3526.08 521.740   3
  -8   1 -11 3115.96 480.974  11
   8  -1  11 2768.04 554.310   8
   8  -1  12 5918.49 682.226   3
  -8   1 -12 5706.60 632.830  11
   8  -1  13-177.699 197.230   3
  -8   1 -13-54.1454 151.877  11
   8  -1  14 614.234 322.519   3
  -8   1 -14 658.302 266.028  11
   8  -1  15 1658.07 430.523   3
  -8   1 -15 1168.35 348.224  11
   8  -1  16 118.643 217.260   3
  -8   1 -16 556.190 312.212  11
  -8   1 -17 359.528 262.783  11
   8   0 -11-219.092 264.598  11
   8   0 -10 2084.53 428.569  11
  -8   0  10 1446.88 422.922  10
  -8   0   9 108.204 239.986   1
  -8   0   9 160.813 258.761  10
  -8   0   8 1888.83 483.642   1
  -8   0   8 1485.98 381.672  10
  -8   0   7-361.767 266.115   1
  -8   0   7 85.8470 204.342  10
  -8   0   6 1288.16 405.362   1
  -8   0   6 712.834 240.137  10
  -8   0   5 475.242 306.104   1
   8   0  -5 470.656 254.220   2
  -8   0   5 379.431 232.224  10
   8   0  -4 1935.51 323.475   8
   8   0  -4 1199.37 298.635   2
  -8   0   4 1556.22 337.465  10
  -8   0   4 1743.95 441.020   1
   8   0  -3 93.8658 124.900   8
   8   0  -3 41.6220 146.410   2
  -8   0   3 96.4087 163.862  10
  -8   0   2 5485.83 410.977   5
  -8   0   2 4763.24 562.857  10
   8   0  -2 4760.51 559.511   2
   8   0  -2 4539.02 441.173   8
   8   0  -1 2910.01 433.081   2
  -8   0   1 3293.52 343.077   5
  -8   0   1 3174.37 472.579  10
   8   0  -1 3075.15 372.147   8
  -8   0   0 4269.88 401.910   5
  -8   0   0 3730.36 492.816  10
   8   0   0 3343.54 457.009   2
   8   0   0 3800.78 400.511   8
  -8   0  -1 8738.52 575.789   5
  -8   0  -1 9341.06 764.349  10
   8   0   1 8972.86 722.917   2
   8   0   1 8166.42 581.521   8
  -8   0  -2 5240.74 462.722   5
  -8   0  -2 5301.56 577.019  10
   8   0   2 4185.16 486.865   2
   8   0   2 4880.35 455.231   8
   8   0   3 193.098 179.523   2
  -8   0  -3 40.9695 155.136  10
   8   0   3-103.941 143.565   8
   8   0   4 11645.9 716.343   3
  -8   0  -4 11403.1 840.008  10
   8   0   4 11587.6 779.362   2
   8   0   4 11246.1 718.780   8
   8   0   5 4632.31 486.237   3
  -8   0  -5 3675.39 466.247  10
   8   0   5 4778.43 502.534   2
   8   0   5 4150.40 453.854   8
   8   0   6 419.450 182.152   2
   8   0   6 64.3657 136.747   3
  -8   0  -6 133.209 140.171  10
   8   0   6 311.811 174.232   8
   8   0   7 430.148 181.843   2
   8   0   7 310.499 180.878   3
  -8   0  -7 472.558 190.305  10
   8   0   7 478.122 186.388   8
   8   0   8 880.823 228.967   2
   8   0   8 489.327 221.789   3
   8   0   8 581.039 204.105   8
   8   0   9 6645.54 630.812   3
  -8   0  -9 6257.42 620.930  11
   8   0   9 7566.81 606.058   2
   8   0   9 6836.22 669.754   8
   8   0  10 180.619 145.657   3
  -8   0 -10 134.225 138.451  11
   8   0  10-35.0014 180.797   8
   8   0  10 177.410 143.380   2
   8   0  11 5853.61 658.374   3
  -8   0 -11 6770.87 670.789  11
   8   0  11 6587.16 568.197   2
   8   0  12 275.683 171.986   3
  -8   0 -12 700.747 262.760  11
   8   0  12 349.000 170.473   2
   8   0  13 41.0628 208.787   3
  -8   0 -13 214.804 259.283  11
   8   0  14 2301.98 443.202   3
  -8   0 -14 1998.28 442.880  11
   8   0  15 304.664 283.353   3
   8   0  15 105.922 234.326   1
  -8   0 -15 512.750 283.778  11
   8   0  16 1292.95 353.695   3
  -8   0 -16 1188.60 359.474  11
  -8   0 -17 199.757 211.587  11
   8   1 -10 2892.19 522.934  11
  -8  -1   9 1615.04 486.963   1
   8   1  -9 1358.70 433.566   2
  -8  -1   9 1610.49 428.059  10
  -8  -1   8 2158.32 552.691   1
   8   1  -8 2068.69 456.427   2
  -8  -1   8 1980.01 418.421  10
  -8  -1   7-101.685 224.092   1
   8   1  -7 261.040 180.833   2
  -8  -1   7-322.888 258.425  10
   8   1  -6 1171.78 342.143   2
  -8  -1   6 934.397 336.549  10
  -8  -1   6 1188.53 400.129   1
   8   1  -5 97.7226 165.312   2
  -8  -1   5 515.258 263.442  10
  -8  -1   5 239.051 245.041   1
   8   1  -4 1955.96 389.514   2
  -8  -1   4 1495.59 367.857  10
   8   1  -3 128.381 126.141   2
  -8  -1   3 343.960 244.242  10
   8   1  -2 1250.91 321.082   2
  -8  -1   2 1440.28 337.094  10
   8   1  -2 1261.69 213.299   8
   8   1  -1-185.305 179.821   2
  -8  -1   1 132.099 235.960  10
   8   1  -1 95.9055 104.338   8
   8   1   0 2427.14 392.175   2
  -8  -1   0 2799.68 292.330   5
  -8  -1   0 2804.32 427.043  10
   8   1   0 3155.80 345.954   8
   8   1   1 920.921 264.565   2
  -8  -1  -1 1051.31 199.447   5
  -8  -1  -1 1406.07 340.790  10
   8   1   1 1151.75 224.012   8
   8   1   2 1653.62 318.166   2
  -8  -1  -2 1499.37 314.487  10
  -8  -1  -2 1423.87 171.004   9
   8   1   2 1298.86 227.759   8
   8   1   3 34.3239 140.252   2
  -8  -1  -3-60.5443 145.795  10
  -8  -1  -3-10.0980 65.0814   9
   8   1   3 84.9182 150.470   8
  -8  -1  -4 24551.0 1239.30  10
   8   1   4 22505.1 1105.71   2
  -8  -1  -4 25493.6 712.824   9
   8   1   4 22525.4 961.661   8
   8   1   5 706.916 224.685   2
  -8  -1  -5 640.964 255.450  10
  -8  -1  -5 812.506 148.472   9
   8   1   5 653.187 197.398   8
  -8  -1  -6 9332.82 769.208  10
   8   1   6 8915.86 696.612   2
  -8  -1  -6 9116.50 493.895   9
   8   1   6 9076.30 661.019   8
   8   1   7-2.16083 115.327   2
  -8  -1  -7-144.743 213.413  10
  -8  -1  -7-56.6835 73.5906   9
   8   1   7 164.632 151.289   8
   8   1   8 9271.69 740.201   3
   8   1   8 9176.32 691.922   2
   8   1   8 9047.15 734.310   8
   8   1   9 2654.68 417.831   3
  -8  -1  -9 2982.03 418.871  11
   8   1   9 3012.36 419.099   2
   8   1  10 5766.93 610.715   3
  -8  -1 -10 4971.47 587.855  11
   8   1  10 5966.71 558.318   2
   8   1  11 1840.58 352.287   3
  -8  -1 -11 2040.41 389.772  11
   8   1  11 2677.85 379.797   2
   8   1  12 1068.57 309.171   3
  -8  -1 -12 1434.96 381.058  11
   8   1  12 1284.99 289.685   2
   8   1  13 1133.42 330.454   3
   8   1  13 1562.14 322.961   2
   8   1  14 3188.54 541.634   3
  -8  -1 -14 4122.81 586.563  11
   8   1  14 4571.57 505.552   2
   8   1  15-352.735 219.436   3
  -8  -1 -15 442.171 277.021  11
   8   1  16 482.806 223.792   1
   8   1  16 495.102 317.446   3
  -8  -1 -16 354.625 268.407  11
   8   1  17 176.882 261.450   3
  -8  -1 -17 204.188 292.773  11
   8   1  17-11.8769 166.149   1
  -8  -2   9 845.107 382.063   1
   8   2  -9 1071.01 349.970   2
  -8  -2   9 448.264 295.266  10
   8   2  -8 957.167 345.804   2
  -8  -2   8 357.745 254.004  10
  -8  -2   8 527.001 284.496   1
   8   2  -7 1205.47 348.816   2
  -8  -2   7 583.734 264.519  10
  -8  -2   7 1091.63 450.379   1
   8   2  -6 1440.06 355.726   2
  -8  -2   6 1417.51 351.328  10
  -8  -2   6 1218.22 426.488   1
   8   2  -5 1695.89 378.965   2
  -8  -2   5 2017.70 409.861  10
   8   2  -4 2126.50 420.113   2
  -8  -2   4 1723.59 380.977  10
   8   2  -3 62.6588 162.686   2
  -8  -2   3 346.750 240.431  10
   8   2  -2 3956.68 524.421   2
  -8  -2   2 3612.66 494.087  10
   8   2  -1 1731.08 340.564   2
  -8  -2   1 2032.43 379.785  10
   8   2   0 315.653 236.063   2
  -8  -2   0 306.218 215.624  10
   8   2   1 2023.92 365.529   2
  -8  -2  -1 2407.76 270.496   5
  -8  -2  -1 2319.10 405.213  10
  -8  -2  -1 2065.08 263.989   9
   8   2   1 2549.00 290.171   8
  -8  -2  -2 2302.49 245.670   7
   8   2   2 1895.24 354.243   2
  -8  -2  -2 1944.95 386.151  10
  -8  -2  -2 2194.48 262.447   9
   8   2   2 2128.67 258.771   8
   8   2   3 761.710 252.574   2
  -8  -2  -3 1074.93 288.834  10
  -8  -2  -3 929.719 172.215   9
   8   2   3 1052.19 206.946   8
   8   2   4 117.331 193.150   2
  -8  -2  -4 111.021 181.588  10
  -8  -2  -4 111.799 96.7975   9
   8   2   4 4.01554 93.1887   8
  -8  -2  -5 7608.81 714.768  10
   8   2   5 7901.65 680.633   2
  -8  -2  -5 8934.90 517.420   9
   8   2   5 7596.77 568.836   8
   8   2   6-23.6818 168.958   2
  -8  -2  -6 180.560 187.863  10
  -8  -2  -6 58.0494 88.0954   9
   8   2   6 128.396 162.090   8
   8   2   7 191.171 144.689   2
  -8  -2  -7 504.631 251.115  10
  -8  -2  -7 248.519 134.455   9
   8   2   7-98.5340 104.789   8
   8   2   8 2939.05 424.712   2
  -8  -2  -8 3010.04 475.934  10
   8   2   9 2092.20 367.249   2
  -8  -2  -9 2054.23 351.594  11
   8   2  10 3539.49 498.450   3
  -8  -2 -10 3770.88 509.199  11
   8   2  10 3961.30 483.159   2
   8   2  11 345.263 227.902   3
  -8  -2 -11 245.537 212.859  11
   8   2  11 611.392 237.502   2
   8   2  12 2529.72 458.712   3
  -8  -2 -12 2636.74 471.826  11
   8   2  12 2931.78 437.327   2
   8   2  13 6668.70 729.656   3
  -8  -2 -13 6985.63 737.357  11
   8   2  13 7028.68 661.416   2
   8   2  14 341.779 277.363   3
  -8  -2 -14 767.901 314.090  11
   8   2  14 302.648 193.697   2
   8   2  15 261.523 215.259   3
  -8  -2 -15 709.695 312.542  11
   8   2  15 327.137 189.486   2
   8   2  16 845.582 326.148   3
  -8  -2 -16 1132.69 365.248  11
   8   2  16 906.627 325.814   1
   8   2  17 2174.17 479.728   3
   8   2  17 1476.39 366.335   1
  -8  -2 -17 2082.82 474.795  11
   8   2  18-214.408 271.043   1
   8   2  19 143.613 227.289   1
   8   3  -9 365.063 257.251   2
  -8  -3   9 630.914 384.805   1
   8   3  -8 98.1735 181.359   2
  -8  -3   8-124.465 235.095  10
   8   3  -7 1169.23 343.066   2
  -8  -3   7 914.262 342.702  10
   8   3  -6 949.798 341.539   2
  -8  -3   6 711.323 333.681  10
   8   3  -5-32.0366 150.229   2
  -8  -3   5 277.398 251.309  10
   8   3  -4 1289.84 371.228   2
  -8  -3   4 1445.90 386.243  10
   8   3  -3 1893.19 383.390   2
  -8  -3   3 2180.94 433.802  10
   8   3  -2 420.968 262.703   2
  -8  -3   2 399.745 223.400  10
   8   3  -1 1009.62 307.300   2
  -8  -3   1 1036.67 305.312  10
   8   3   0 2236.49 412.941   2
  -8  -3   0 2767.03 468.559  10
  -8  -3   0 2837.33 323.134   9
  -8  -3  -1 8768.90 789.100  10
   8   3   1 9179.21 765.629   2
  -8  -3  -1 9430.72 586.667   9
   8   3   2-153.777 184.267   2
  -8  -3  -2 88.9659 89.2021   7
  -8  -3  -2 42.7654 182.474  10
  -8  -3  -2-119.627 125.297   9
  -8  -3  -3 4755.29 388.090   7
  -8  -3  -3 3905.84 516.400  10
   8   3   3 4496.10 535.911   2
  -8  -3  -3 4334.18 393.335   9
   8   3   3 4831.40 384.909   8
   8   3   4 745.655 261.566   2
  -8  -3  -4 1044.29 303.288  10
  -8  -3  -4 867.113 195.244   9
   8   3   4 899.946 191.878   8
   8   3   5 635.980 251.363   2
  -8  -3  -5 632.571 257.311  10
  -8  -3  -5 606.016 184.378   9
   8   3   6 1020.08 284.329   2
  -8  -3  -6 1359.46 341.975  10
  -8  -3  -6 1357.85 222.670   9
  -8  -3  -7 4615.82 581.986  10
   8   3   7 3584.54 504.587   2
  -8  -3  -7 4008.62 406.403   9
   8   3   8 175.832 188.343   2
  -8  -3  -8-133.658 207.126  10
  -8  -3  -8 59.6200 120.770   9
   8   3   9 371.062 209.638   2
  -8  -3 -10 1255.24 317.535  11
   8   3  10 1874.02 367.508   2
  -8  -3 -11-316.245 273.549  11
   8   3  11 260.892 182.098   2
  -8  -3 -12 27.9826 222.052  11
   8   3  12 456.729 217.516   2
   8   3  13-297.872 218.139   3
  -8  -3 -13 38.4837 166.693  11
   8   3  13 32.9998 137.239   2
   8   3  14-43.6905 221.433   3
  -8  -3 -14 548.637 288.527  11
   8   3  14 340.316 172.904   2
   8   3  15 2232.20 491.273   3
  -8  -3 -15 2316.38 460.884  11
   8   3  15 1874.88 380.790   2
   8   3  16 1611.55 399.928   3
  -8  -3 -16 1636.15 438.309  11
   8   3  16 2242.40 462.447   2
   8   3  17 608.013 291.271   1
   8   3  17 656.109 312.120   3
   8   3  17 444.489 243.340   2
   8   3  18 1412.78 376.789   1
   8   3  19 1085.02 404.302   1
   8   4  -8 38.6316 210.683   2
  -8  -4   8 519.569 291.908  10
   8   4  -7 1393.76 380.646   2
  -8  -4   7 684.266 253.230  10
   8   4  -6 2453.01 481.418   2
  -8  -4   6 2314.28 499.459  10
   8   4  -5 971.653 298.988   2
  -8  -4   5 1292.74 366.598  10
   8   4  -4 3319.38 541.622   2
  -8  -4   4 3572.89 542.194  10
   8   4  -3 289.737 219.956   2
  -8  -4   3-223.584 274.849  10
   8   4  -2 600.959 279.009   2
  -8  -4   2 622.938 262.480  10
   8   4  -1-127.500 214.704   2
  -8  -4   1 101.574 206.118  10
   8   4   0 3286.87 487.936   2
  -8  -4   0 3186.44 488.733  10
  -8  -4   0 3810.38 427.012   9
   8   4   1 1371.22 335.179   2
  -8  -4  -1 1212.83 341.857  10
  -8  -4  -1 1182.29 246.715   9
  -8  -4  -2 4267.82 378.810   7
   8   4   2 3346.59 491.509   2
  -8  -4  -2 4269.95 554.193  10
  -8  -4  -2 4139.59 425.012   9
   8   4   3 260.570 202.643   2
  -8  -4  -3 105.519 99.7648   7
  -8  -4  -3 153.749 166.936  10
  -8  -4  -3 142.463 99.4735   9
   8   4   4 2.49609 121.913   2
  -8  -4  -4-53.6279 99.9724   7
  -8  -4  -4-278.345 220.162  10
  -8  -4  -4 0.80895 130.587   9
  -8  -4  -5 6461.30 693.392  10
   8   4   5 6482.44 647.474   2
  -8  -4  -5 7042.53 563.399   9
  -8  -4  -6 15115.3 1024.69  10
   8   4   6 12807.6 919.432   2
  -8  -4  -6 14874.3 805.964   9
  -8  -4  -7 4967.64 617.792  10
   8   4   7 5624.50 623.043   2
  -8  -4  -7 6029.56 529.451   9
   8   4   8 378.019 228.225   2
  -8  -4  -8 98.7851 150.337  10
  -8  -4  -8 277.556 154.650   9
  -8  -4  -9 832.420 217.196   9
   8   4   9 611.489 236.566   2
   8   4  10 3455.13 493.041   2
  -8  -4 -11 1673.83 319.449  11
   8   4  11 2147.66 405.835   2
  -8  -4 -12-204.933 296.505  11
   8   4  12-46.7905 144.486   2
  -8  -4 -13-113.553 190.274  11
   8   4  13-73.4220 161.316   2
   8   4  14-111.032 172.042   3
  -8  -4 -14-45.6026 204.343  11
   8   4  14-68.6719 164.490   2
   8   4  15-6.19819 168.257   3
  -8  -4 -15-2.94863 194.235  11
   8   4  15-95.9025 156.539   2
   8   4  16 943.410 338.658   3
  -8  -4 -16 1372.18 426.658  11
   8   4  16 513.998 202.536   2
   8   4  17 957.936 365.614   3
   8   4  17 201.594 246.771   2
   8   4  17 455.666 280.820   1
   8   4  18 420.310 275.124   1
   8   4  18 103.483 210.809   2
   8   5  -7 1450.11 402.217   2
  -8  -5   7 982.033 333.674  10
   8   5  -6-81.2673 167.051   2
  -8  -5   6 342.862 268.399  10
   8   5  -5 3897.72 586.888   2
  -8  -5   5 3755.96 595.062  10
   8   5  -4 2468.92 494.916   2
  -8  -5   4 2197.68 480.267  10
   8   5  -3 191.668 205.301   2
  -8  -5   3 179.929 160.117  10
   8   5  -2 1523.97 373.165   2
  -8  -5   2 1208.18 327.776  10
   8   5  -1 1775.72 399.537   2
  -8  -5   1 1754.27 391.411  10
  -8  -5   1 1561.63 320.291   9
   8   5   0 1085.86 273.633   2
  -8  -5   0 1419.77 365.363  10
  -8  -5   0 1116.06 269.016   9
   8   5   1 117.437 183.467   2
  -8  -5  -1-0.91686 100.285   7
  -8  -5  -1-229.008 166.865  10
  -8  -5  -1-30.7366 147.223   9
   8   5   2 724.847 252.244   2
  -8  -5  -2 976.086 214.959   7
  -8  -5  -2 564.590 220.358  10
  -8  -5  -2 1083.22 259.893   9
   8   5   3 1452.44 347.704   2
  -8  -5  -3 1642.56 286.978   7
  -8  -5  -3 2072.89 423.871  10
  -8  -5  -3 1673.72 304.070   9
   8   5   4 302.643 202.459   2
  -8  -5  -4 199.997 166.727   7
  -8  -5  -4 331.972 249.301  10
  -8  -5  -4 171.609 139.940   9
   8   5   5 1692.38 355.575   2
  -8  -5  -5 2184.92 332.052   7
  -8  -5  -5 1936.21 381.415  10
  -8  -5  -5 2067.05 335.713   9
  -8  -5  -6 7565.11 620.398   7
  -8  -5  -6 6641.66 699.448  10
   8   5   6 6872.12 694.871   2
  -8  -5  -6 7218.65 609.853   9
   8   5   7 1044.87 318.247   2
  -8  -5  -7 665.329 244.643  10
  -8  -5  -7 872.441 237.805   9
   8   5   8 3885.11 547.508   2
  -8  -5  -8 3042.27 497.021  10
  -8  -5  -8 3870.76 472.830   9
  -8  -5  -9 75.7273 189.687  10
  -8  -5  -9 52.4104 129.186   9
   8   5   9 144.445 204.427   2
  -8  -5 -10 221.349 144.668   9
   8   5  10 378.783 245.385   2
  -8  -5 -11-657.705 311.410  11
   8   5  11 187.918 151.106   2
  -8  -5 -12 1208.75 355.820  11
   8   5  12 1755.76 401.076   2
  -8  -5 -13 1683.39 364.227  11
   8   5  13 2208.04 423.550   2
  -8  -5 -14 670.114 244.862  11
   8   5  14 682.222 306.762   2
  -8  -5 -15 1322.37 374.849  11
   8   5  15 1787.50 402.801   2
   8   5  16 431.381 286.625   3
  -8  -5 -16 610.475 321.205  11
   8   5  16 411.576 265.420   2
   8   5  17-302.628 274.244   1
   8   5  17 372.374 270.601   3
  -8  -5 -17 394.582 304.322  11
   8   5  17 64.6000 203.774   2
   8   5  18 1101.61 349.885   2
   8   5  19 1258.41 389.433   2
   8   6  -7-69.6497 191.947   2
   8   6  -6 207.123 193.447   2
  -8  -6   6 84.6796 221.582  10
   8   6  -5 2478.97 484.341   2
  -8  -6   5 2664.94 529.328  10
   8   6  -4 1510.20 405.372   2
  -8  -6   4 1655.62 435.096  10
   8   6  -3 2151.41 437.704   2
  -8  -6   3 2162.80 462.826  10
  -8  -6   2 6033.42 712.571  10
   8   6  -2 7084.86 773.575   2
   8   6  -1 2894.48 509.779   2
  -8  -6   1 3447.99 547.521  10
  -8  -6   1 3231.42 479.003   9
   8   6   0 269.420 198.916   2
  -8  -6   0 676.967 287.572  10
  -8  -6   0 362.611 193.624   9
   8   6   1 2607.75 453.536   2
  -8  -6  -1 2287.80 441.482  10
  -8  -6  -1 2693.97 420.455   9
   8   6   2 277.775 238.073   2
  -8  -6  -2 391.031 176.361   7
  -8  -6  -2 118.009 195.312  10
  -8  -6  -2 62.4584 146.015   9
   8   6   3 102.004 153.376   2
  -8  -6  -3 478.164 178.289   7
  -8  -6  -3 144.773 170.652  10
  -8  -6  -3 254.868 135.924   9
   8   6   4 1957.75 420.793   2
  -8  -6  -4 1333.57 266.977   7
  -8  -6  -4 1665.83 360.124  10
  -8  -6  -4 2066.01 365.693   9
  -8  -6  -5 11638.3 778.068   7
  -8  -6  -5 10579.0 895.714  10
   8   6   5 9205.84 831.590   2
  -8  -6  -5 10956.2 787.032   9
   8   6   6 569.682 260.239   2
  -8  -6  -6 1061.76 288.328   7
  -8  -6  -6 742.271 312.356  10
  -8  -6  -6 667.231 216.301   9
   8   6   7 343.636 229.051   2
  -8  -6  -7 107.077 131.173   7
  -8  -6  -7-384.491 236.405  10
  -8  -6  -7 0.79861 173.528   9
  -8  -6  -8 9631.43 871.019  10
   8   6   8 9988.92 864.933   2
  -8  -6  -8 9450.47 751.310   9
  -8  -6  -9 186.210 213.057  10
  -8  -6  -9 73.1752 173.497   9
   8   6   9-43.9927 152.474   2
  -8  -6 -10 1220.19 298.359   9
   8   6  10 1476.89 350.195   2
  -8  -6 -11 319.899 204.212   9
   8   6  11 283.748 208.983   2
  -8  -6 -12 938.404 286.908  11
   8   6  12 1460.37 408.998   2
  -8  -6 -13 741.953 188.343  11
   8   6  13 1620.41 393.682   2
  -8  -6 -14-363.632 322.227  11
   8   6  14 27.3919 167.045   2
  -8  -6 -15 1146.92 401.885  11
   8   6  15 1627.45 397.930   2
  -8  -6 -16 9.02458 280.146  11
   8   6  16-48.6744 202.829   2
   8   6  17 1070.30 359.597   2
   8   6  18 3458.03 590.734   2
   8   7  -6 162.972 167.967   2
   8   7  -5 459.282 231.430   2
  -8  -7   5 1309.09 399.232  10
   8   7  -4 620.781 267.912   2
  -8  -7   4 589.021 227.383  10
   8   7  -3 1144.22 320.918   2
  -8  -7   3 1646.65 423.811  10
   8   7  -2 4285.52 615.700   2
  -8  -7   2 4781.33 639.559  10
  -8  -7   2 5398.64 641.578   9
   8   7  -1 561.913 281.989   2
  -8  -7   1 395.009 249.376  10
  -8  -7   1 206.683 226.054   9
   8   7   0 2314.42 469.554   2
  -8  -7   0 2140.67 442.885  10
  -8  -7   0 1724.55 363.967   9
   8   7   1 212.573 174.322   2
  -8  -7  -1 18.4364 222.507  10
  -8  -7  -1 371.795 228.091   9
   8   7   2 491.710 302.316   2
  -8  -7  -2 524.733 207.931   7
  -8  -7  -2 300.839 211.296  10
  -8  -7  -2 139.197 157.362   9
   8   7   3 1414.31 340.499   2
  -8  -7  -3 740.015 223.132   7
  -8  -7  -3 1093.20 321.118  10
  -8  -7  -3 1329.63 308.786   9
  -8  -7  -4 14407.6 905.782   7
  -8  -7  -4 13682.5 1022.65  10
   8   7   4 13076.5 1022.47   2
  -8  -7  -4 12999.0 909.284   9
   8   7   5 1214.81 351.199   2
  -8  -7  -5 1718.51 346.064   7
  -8  -7  -5 1396.44 363.808  10
  -8  -7  -5 1726.03 374.081   9
   8   7   6 619.090 274.375   2
  -8  -7  -6 1006.33 310.837   7
  -8  -7  -6 390.148 241.113  10
  -8  -7  -6 531.803 216.875   9
   8   7   7 2009.49 436.003   2
  -8  -7  -7 1937.79 349.386   7
  -8  -7  -7 2459.31 456.724  10
  -8  -7  -7 2114.88 380.703   9
  -8  -7  -8 691.988 258.842   7
  -8  -7  -8 788.650 253.757  10
  -8  -7  -8 939.517 297.097   9
   8   7   8 1014.18 314.866   2
  -8  -7  -9 242.784 142.332   7
  -8  -7  -9 159.279 201.434  10
  -8  -7  -9 282.650 211.788   9
   8   7   9 68.0265 171.019   2
  -8  -7 -10 2081.55 440.738  10
  -8  -7 -10 3297.87 496.672   9
   8   7  10 2139.57 428.015   2
  -8  -7 -11 1174.16 338.104   9
   8   7  11 762.000 274.104   2
  -8  -7 -12-120.060 160.882   9
   8   7  12-331.889 239.300   2
   8   7  13 483.374 249.009   2
  -8  -7 -14 1673.48 430.324  11
   8   7  14 2865.18 541.098   2
  -8  -7 -15-680.668 404.667  11
   8   7  15 903.774 343.286   2
   8   7  16 159.765 237.293   2
   8   7  17 3494.61 622.845   2
   8   8  -4 264.172 203.868   2
  -8  -8   4 129.360 233.346  10
   8   8  -3 2286.69 490.321   2
  -8  -8   3 1976.27 452.523  10
   8   8  -2 854.571 333.311   2
  -8  -8   2 928.031 337.626  10
  -8  -8   2 798.213 269.581   9
   8   8  -1 1320.58 384.784   2
  -8  -8   1 883.061 316.105  10
  -8  -8   1 801.521 313.480   9
   8   8   0 937.016 330.026   2
  -8  -8   0 1001.16 325.980  10
  -8  -8   0 962.379 294.635   9
   8   8   1 42.4784 188.510   2
  -8  -8  -1 81.4788 183.997  10
  -8  -8  -1 8.42805 187.347   9
   8   8   2 193.959 200.112   2
  -8  -8  -2 31.4165 149.605   7
  -8  -8  -2 678.199 283.199  10
  -8  -8  -2 719.159 290.176   9
   8   8   3 195.893 161.015   2
  -8  -8  -3 30.3502 147.898   7
  -8  -8  -3-56.9160 201.846  10
  -8  -8  -3 18.3918 186.936   9
   8   8   4 3163.24 525.657   2
  -8  -8  -4 4304.33 544.632   7
  -8  -8  -4 3254.22 535.832  10
  -8  -8  -4 3511.65 508.320   9
   8   8   5 1312.43 320.575   2
  -8  -8  -5 1309.33 330.651   7
  -8  -8  -5 1735.08 426.275  10
  -8  -8  -5 1425.76 361.338   9
   8   8   6 3580.89 564.943   2
  -8  -8  -6 3499.49 501.291   7
  -8  -8  -6 2217.19 442.196  10
  -8  -8  -6 3488.03 494.626   9
  -8  -8  -7 1219.74 308.905   7
  -8  -8  -7 816.503 314.355  10
  -8  -8  -7 1281.04 345.678   9
   8   8   7 722.213 306.076   2
  -8  -8  -8 710.903 278.591   7
  -8  -8  -8 72.9428 199.338  10
  -8  -8  -8 172.669 196.442   9
   8   8   8 216.477 220.015   2
  -8  -8  -9 981.852 306.476   7
  -8  -8  -9 1042.23 318.421  10
  -8  -8  -9 1145.54 351.289   9
   8   8   9 660.179 294.859   2
  -8  -8 -10 10538.2 906.867   7
  -8  -8 -10 8008.91 874.699  10
   8   8  10 8908.32 898.703   2
  -8  -8 -10 9953.16 876.997   9
  -8  -8 -11 794.908 290.152   7
  -8  -8 -11 437.031 242.042  10
  -8  -8 -11 641.584 292.316   9
   8   8  11 471.413 256.000   2
  -8  -8 -12-18.7836 233.171   9
   8   8  12 175.689 278.574   2
  -8  -8 -13 1832.92 437.450   9
   8   8  13 1467.12 405.151   2
   8   8  14 1597.39 485.237   2
  -8  -8 -14 1821.36 440.911   9
  -8  -8 -15-647.168 463.976  11
   8   8  15-245.429 288.930   2
   8   9  -3 88.3078 259.941   2
  -8  -9   3-191.827 195.724  10
   8   9  -2-159.707 243.213   2
  -8  -9   2-120.388 172.161  10
  -8  -9   2 411.762 276.197   9
   8   9  -1 177.147 209.878   2
  -8  -9   1 827.236 346.021  10
  -8  -9   1 320.660 194.365   9
   8   9   0 327.172 219.452   2
  -8  -9   0 44.1331 223.242  10
  -8  -9   0 387.363 252.623   9
   8   9   1 8.68723 157.979   2
  -8  -9  -1 308.259 221.992  10
  -8  -9  -1 423.873 289.493   9
   8   9   2 353.390 225.300   2
  -8  -9  -2 197.151 230.615   7
  -8  -9  -2 110.316 192.698  10
  -8  -9  -2 55.3511 191.876   9
   8   9   3 1853.04 423.041   2
  -8  -9  -3 1956.00 392.977   7
  -8  -9  -3 2521.28 469.572  10
  -8  -9  -3 2650.02 504.016   9
   8   9   4 1880.37 424.120   2
  -8  -9  -4 2393.17 411.074   7
  -8  -9  -4 2225.41 442.130  10
  -8  -9  -4 1769.97 407.844   9
   8   9   5 53.3162 153.194   2
  -8  -9  -5 30.5763 192.226   7
  -8  -9  -5 422.195 233.767  10
  -8  -9  -6 707.569 241.581   7
  -8  -9  -6 827.132 312.453  10
  -8  -9  -6 591.796 287.246   9
   8   9   6 301.408 248.867   2
  -8  -9  -7 833.960 307.585   7
  -8  -9  -7 253.130 184.284  10
  -8  -9  -7 86.5186 214.841   9
   8   9   7 769.890 302.650   2
  -8  -9  -8 398.399 226.880   7
  -8  -9  -8 620.615 294.092  10
  -8  -9  -8 942.588 307.103   9
   8   9   8 227.839 163.675   2
  -8  -9  -9 262.938 165.930   7
  -8  -9  -9 684.003 283.920  10
  -8  -9  -9 701.936 291.408   9
   8   9   9 983.812 302.352   2
  -8  -9 -10 868.294 305.669   7
  -8  -9 -10 1476.62 427.005  10
  -8  -9 -10 780.053 297.823   9
   8   9  10 397.338 241.306   2
  -8  -9 -11 549.288 311.284   7
  -8  -9 -11 68.1940 187.715  10
  -8  -9 -11 694.890 303.520   9
   8   9  11 915.883 337.629   2
  -8  -9 -12 1027.32 370.608   7
  -8  -9 -12 964.414 333.916  10
  -8  -9 -12 819.886 321.291   9
   8   9  12 879.737 343.628   2
  -8  -9 -13 926.134 293.346   7
   8   9  13 1201.44 403.022   2
  -8  -9 -13 1134.72 350.085   9
  -8  -9 -14 354.227 225.596   7
  -8  -9 -14 187.357 275.249   9
  -8 -10   2-33.8056 203.372  10
  -8 -10   1 75.6466 198.848  10
   8  10   0 122.263 243.904   2
  -8 -10   0-4.90911 177.129  10
  -8 -10   0-126.042 239.694   9
   8  10   1-49.2146 195.193   2
  -8 -10  -1 96.4428 178.341  10
  -8 -10  -1-29.8182 236.906   9
   8  10   2 1673.48 436.564   2
  -8 -10  -2 960.357 288.424   7
  -8 -10  -2 1937.35 463.661  10
  -8 -10  -2 1459.91 413.115   9
   8  10   3 275.316 215.608   2
  -8 -10  -3-197.493 221.475   7
  -8 -10  -3 128.203 189.889  10
  -8 -10  -3 56.7792 202.942   9
  -8 -10  -4-56.7565 178.123   7
  -8 -10  -4 185.242 210.896  10
  -8 -10  -4 278.050 193.192   9
   8  10   4 152.001 160.999   2
  -8 -10  -5 897.771 320.269   7
  -8 -10  -5 766.846 283.724   9
   8  10   5 593.220 233.391   2
  -8 -10  -6 572.358 294.860   7
  -8 -10  -6 95.4824 234.599  10
  -8 -10  -6 188.814 213.349   9
   8  10   6 248.499 264.554   2
  -8 -10  -7 426.144 258.839   7
  -8 -10  -7 351.765 247.595  10
  -8 -10  -7 400.600 242.877   9
   8  10   7 142.515 209.847   2
  -8 -10  -8 1516.97 380.593   7
  -8 -10  -8 1830.30 440.646  10
  -8 -10  -8 3010.80 557.647   9
   8  10   8 1867.81 427.709   2
  -8 -10  -9 83.7514 246.359   7
  -8 -10  -9-169.298 212.814  10
  -8 -10  -9 176.046 197.662   9
   8  10   9-283.044 218.871   2
  -8 -10 -10-68.3756 173.003   7
  -8 -10 -10 74.5889 242.481  10
  -8 -10 -10 426.638 292.639   9
   8  10  10-107.902 201.169   2
  -8 -10 -11 68.3294 241.360   7
  -8 -10 -11 54.9565 178.297  10
  -8 -10 -11-0.25680 233.775   9
  -8 -10 -12 2075.81 469.715   7
  -8 -10 -12 1256.29 397.728  10
  -8 -10 -12 2159.76 472.088   9
  -8 -10 -13-209.412 216.352  10
  -8 -11  -1-55.4892 194.827  10
  -8 -11  -2 3119.17 564.191  10
  -8 -11  -3 992.663 370.584   7
  -8 -11  -3-271.247 253.967  10
  -8 -11  -4 185.092 232.378   7
  -8 -11  -4 316.030 254.216  10
  -8 -11  -5 120.434 172.353   7
  -8 -11  -5 653.285 285.709  10
  -8 -11  -5 188.995 309.767   9
  -8 -11  -6 114.154 263.816   7
  -8 -11  -6 48.0552 221.691  10
  -8 -11  -6 41.6658 208.522   9
  -8 -11  -7-272.712 259.732   7
  -8 -11  -7 239.625 206.368  10
  -8 -11  -7 389.716 343.561   9
  -8 -11  -8 606.741 297.434   7
  -8 -11  -8 413.121 240.341  10
  -8 -11  -8 484.321 302.903   9
  -8 -11  -9-145.756 227.055   7
  -8 -11  -9 897.406 371.988  10
  -8 -11 -10 48.4967 191.416  10
  -8 -11 -11 247.473 228.994  10
  -8 -11 -12 1388.20 400.279  10
  -8 -11 -13 345.723 227.486  10
  -9   8   5 2354.48 494.467   5
  -9   8   4 1075.67 321.979   5
  -9   8   3 430.963 310.963   5
  -9   8   2 401.196 299.195   5
  -9   8   1 1517.40 396.550   5
  -9   8   0 919.792 297.113   5
  -9   8  -1 404.109 295.843   5
  -9   8  -2 2659.16 534.594   5
   9  -8   8 638.196 305.332   3
  -9   7   5 864.822 323.609   5
  -9   7   4 73.3665 229.196   5
   9  -7  -3 468.291 298.896   8
  -9   7   3-130.840 233.989   5
  -9   7   2 1321.61 384.630   5
   9  -7  -2 986.964 339.058   8
  -9   7   1 66.8994 188.606   5
   9  -7  -1 517.405 306.960   8
  -9   7   0 238.894 249.452   5
   9  -7   0-3.27630 207.351   8
  -9   7  -1 1612.47 401.387   5
   9  -7   1 1540.03 404.607   8
  -9   7  -2 1176.28 366.804   5
   9  -7   2-61.9154 220.406   8
  -9   7  -3 1230.23 421.819   5
   9  -7   3 969.544 346.626   8
  -9   7  -4 4172.74 641.590   5
   9  -7   4 3917.07 638.104   8
  -9   7  -5-115.651 188.098   5
   9  -7   5-75.2177 184.773   8
  -9   7  -6 109.831 272.952   5
   9  -7   7 179.764 206.291   3
   9  -7   8 4351.11 614.873   3
   9  -7   9 282.150 264.521   3
  -9   6   7 361.547 279.350   1
   9  -6  -6 2707.69 544.083   8
  -9   6   6 1742.34 547.344   1
   9  -6  -5 1424.14 410.499   8
  -9   6   5 457.068 257.806   1
  -9   6   5 1266.57 377.316   5
  -9   6   4-208.675 258.295   1
   9  -6  -4 28.8470 204.061   8
  -9   6   4 27.7190 163.421   5
   9  -6  -3 763.795 299.979   8
  -9   6   3 1023.61 323.111   5
  -9   6   2 706.913 260.939   5
   9  -6  -2 609.261 299.696   8
   9  -6  -1 357.869 212.375   2
  -9   6   1 554.059 273.500   5
   9  -6  -1 673.940 286.789   8
  -9   6   0 253.346 162.716   5
   9  -6   0-96.4201 199.554   8
  -9   6  -1 773.092 298.416   5
   9  -6   1 172.071 204.193   8
  -9   6  -2 155.078 185.543   5
   9  -6   2 211.388 196.614   8
  -9   6  -3 138.098 210.329   5
   9  -6   3 206.216 207.162   8
  -9   6  -4 158.118 225.344   5
   9  -6   4 488.473 305.384   8
  -9   6  -5-404.431 307.419   5
   9  -6   5 206.365 204.117   8
   9  -6   6 354.224 218.627   3
  -9   6  -6 63.4912 182.745   5
   9  -6   6 211.053 232.341   8
   9  -6   7 3408.18 523.078   3
  -9   6  -7 2822.64 522.418   5
   9  -6   7 2817.72 547.054   8
   9  -6   8 291.695 206.228   3
  -9   6  -8 282.818 271.003   5
   9  -6   8 243.704 220.245   8
   9  -6   9 318.912 248.882   3
   9  -6  10 449.993 281.946   3
   9  -5  -8-255.897 283.922   8
   9  -5  -7 1706.01 427.573   8
  -9   5   7 726.864 380.239   1
   9  -5  -6 4028.38 639.946   8
  -9   5   6 3418.94 707.725   1
   9  -5  -5 4.69049 180.997   8
  -9   5   5 538.357 317.632   1
  -9   5   4 312.367 213.146   1
   9  -5  -4 333.149 252.738   8
  -9   5   4 718.100 276.931   5
   9  -5  -3 1573.43 387.622   8
  -9   5   3 1245.73 323.400   5
  -9   5   3 766.474 354.379   1
  -9   5   2 1388.68 341.722   5
   9  -5  -2 1264.27 367.452   8
   9  -5  -1 1365.73 347.607   2
  -9   5   1 1179.08 297.063   5
   9  -5  -1 1652.63 395.752   8
  -9   5   0 3258.76 512.052   5
   9  -5   0 3547.00 497.527   2
   9  -5   0 2575.96 488.744   8
   9  -5   1 97.9665 141.086   2
  -9   5  -1 518.616 252.179   5
   9  -5   1 325.722 260.935   8
  -9   5  -2 414.735 260.713   5
   9  -5   2-14.9003 199.203   8
  -9   5  -3 253.085 202.309   5
   9  -5   3 87.6285 190.604   8
  -9   5  -4 302.029 205.186   5
   9  -5   4 400.749 237.101   8
   9  -5   5 201.845 180.686   3
  -9   5  -5 341.789 245.883   5
   9  -5   5 224.484 190.843   8
   9  -5   6 2117.21 385.056   3
  -9   5  -6 2583.34 500.275   5
   9  -5   6 2791.41 532.938   8
   9  -5   7 1086.10 292.632   3
  -9   5  -7 991.721 354.974   5
   9  -5   7 864.109 325.961   8
   9  -5   8 775.873 298.249   3
  -9   5  -8 840.717 325.804   5
   9  -5   8 107.441 214.880   8
   9  -5   9 217.121 179.145   3
  -9   5  -9 189.629 247.512   5
   9  -5   9 441.259 278.975   8
   9  -5  10 512.915 303.180   3
  -9   5 -10 129.811 244.161   5
   9  -5  10 799.072 304.019   8
   9  -5  11-30.7136 199.844   3
   9  -5  12 838.224 373.475   3
  -9   4   9-149.023 241.034  10
   9  -4  -8 695.481 293.500   8
  -9   4   8 19.7219 228.376  10
   9  -4  -7 3117.33 541.477   8
  -9   4   7 2483.19 590.853   1
  -9   4   7 3291.53 550.289  10
   9  -4  -6 453.222 260.978   8
  -9   4   6 547.244 329.492   1
  -9   4   6 377.772 290.014  10
   9  -4  -5 89.6704 201.287   8
  -9   4   5 284.028 237.863   1
  -9   4   5 119.237 192.654  10
   9  -4  -4 1541.77 372.678   8
  -9   4   4 1074.36 284.625  10
  -9   4   4 805.129 355.144   1
   9  -4  -3 1854.83 415.759   8
  -9   4   3 1776.38 373.525  10
  -9   4   3 2056.91 364.924   5
  -9   4   3 1329.08 411.742   1
   9  -4  -2 205.091 197.957   2
  -9   4   2 72.2083 178.576  10
  -9   4   2 196.743 170.511   5
   9  -4  -2 193.566 168.406   8
   9  -4  -1 3395.51 487.647   2
  -9   4   1 3812.00 508.730   5
  -9   4   1 3870.58 508.036  10
   9  -4  -1 3941.10 542.413   8
   9  -4   0 1636.43 342.478   2
  -9   4   0 1641.95 360.576  10
  -9   4   0 1736.77 364.653   5
   9  -4   0 1351.08 349.648   8
   9  -4   1 219.251 213.137   2
  -9   4  -1-14.0740 143.708   5
  -9   4  -1 109.952 198.534  10
   9  -4   1-140.006 202.653   8
   9  -4   2 1074.96 275.281   2
  -9   4  -2 1156.32 325.921   5
  -9   4  -2 1110.15 284.011  10
   9  -4   2 614.991 258.892   8
   9  -4   3 858.494 226.759   2
  -9   4  -3 1148.55 321.308   5
  -9   4  -3 1149.42 285.527  10
   9  -4   3 930.944 281.494   8
   9  -4   4 2296.55 363.079   3
  -9   4  -4 2054.49 372.527   5
  -9   4  -4 2319.00 402.217  10
   9  -4   4 1632.65 389.956   8
   9  -4   5 197.013 196.755   3
  -9   4  -5 252.281 236.535   5
  -9   4  -5 480.252 227.721  10
   9  -4   5 193.107 218.913   8
   9  -4   6 5435.58 595.102   3
  -9   4  -6 5576.56 661.233   5
  -9   4  -6 5631.47 596.891  10
   9  -4   6 4592.16 606.081   8
   9  -4   7 148.311 137.406   3
  -9   4  -7 170.743 172.647   5
  -9   4  -7 200.845 194.921  10
   9  -4   7 12.9842 199.679   8
   9  -4   8 212.293 188.771   3
  -9   4  -8 124.451 224.449   5
   9  -4   8 579.579 297.027   8
   9  -4   9 822.900 292.408   3
   9  -4   9 565.966 271.422   8
   9  -4  10 1834.16 419.700   3
   9  -4  10 1646.57 411.592   8
   9  -4  11 387.342 204.446   3
   9  -4  11 857.383 326.137   8
   9  -4  12 74.3452 219.238   3
   9  -4  12 202.758 174.698   8
  -9   3   8 2502.47 479.419  10
   9  -3  -7 1635.34 393.336   8
  -9   3   7 1006.34 376.371   1
  -9   3   7 1315.36 357.729  10
   9  -3  -6 531.237 261.251   8
  -9   3   6 365.331 287.650   1
  -9   3   6 645.741 292.867  10
   9  -3  -5 421.664 200.667   8
  -9   3   5 480.158 305.643   1
  -9   3   5 233.734 168.533  10
   9  -3  -4 2872.88 479.798   8
  -9   3   4 1897.29 382.137  10
  -9   3   4 3017.98 631.254   1
   9  -3  -3 512.374 238.154   8
   9  -3  -3 144.364 168.300   2
  -9   3   3 111.856 147.748  10
   9  -3  -2 666.738 241.526   2
  -9   3   2 833.527 291.001  10
  -9   3   2 1117.23 271.369   5
   9  -3  -2 669.247 242.297   8
   9  -3  -1 3937.16 534.705   2
  -9   3   1 3922.12 471.392   5
  -9   3   1 3654.76 510.388  10
   9  -3  -1 3300.85 469.410   8
   9  -3   0 299.310 186.922   2
  -9   3   0 506.595 229.430  10
  -9   3   0 467.608 234.758   5
   9  -3   0 34.1578 150.822   8
   9  -3   1 1553.76 344.463   2
  -9   3  -1 961.731 249.697   5
  -9   3  -1 1279.80 306.987  10
   9  -3   1 1024.69 301.657   8
   9  -3   2 1054.24 277.320   2
  -9   3  -2 997.448 292.372   5
  -9   3  -2 733.950 228.395  10
   9  -3   2 954.693 271.737   8
   9  -3   3 2241.76 348.483   2
   9  -3   3 2353.36 340.727   3
  -9   3  -3 2260.73 399.166   5
  -9   3  -3 1995.00 368.301  10
   9  -3   3 1844.88 391.284   8
   9  -3   4 362.610 152.508   2
   9  -3   4 343.310 150.180   3
  -9   3  -4 335.215 195.425   5
  -9   3  -4 263.105 185.995  10
   9  -3   4 317.330 171.356   8
   9  -3   5 2136.55 331.972   2
   9  -3   5 1869.53 330.309   3
  -9   3  -5 2121.69 423.204   5
  -9   3  -5 1969.43 365.298  10
   9  -3   5 1798.89 384.319   8
   9  -3   6 871.932 254.799   3
  -9   3  -6 1042.55 318.356   5
  -9   3  -6 634.749 218.360  10
   9  -3   6 641.093 272.337   8
   9  -3   7-323.767 207.464   3
  -9   3  -7-83.4813 144.472  10
   9  -3   7 126.655 165.505   8
   9  -3   8 1985.91 383.886   3
  -9   3  -8 1692.41 359.134  10
   9  -3   8 1483.76 361.923   8
   9  -3   9 2089.84 415.087   3
  -9   3  -9 2728.27 448.311  10
   9  -3   9 2415.55 468.906   8
   9  -3  10-128.663 188.770   3
  -9   3 -10 70.8345 200.300  10
   9  -3  10 370.431 257.937   8
   9  -3  11 885.338 324.205   3
   9  -3  11 345.761 231.216   8
   9  -3  12 504.036 283.356   3
   9  -3  12-59.6631 187.479   8
   9  -3  13-21.3608 178.967   3
  -9   2   8 3025.63 539.263  10
  -9   2   7 113.643 253.063   1
  -9   2   7 1065.65 349.951  10
  -9   2   6 472.123 334.742   1
  -9   2   6 320.393 266.295  10
   9  -2  -5 1042.49 250.622   8
  -9   2   5 1562.85 368.823  10
  -9   2   5 1305.35 457.299   1
   9  -2  -4 1318.99 336.693   8
   9  -2  -4 1279.32 378.774   2
  -9   2   4 836.630 303.237  10
  -9   2   4 1143.70 394.865   1
   9  -2  -3 246.478 189.148   8
   9  -2  -3 99.2842 180.996   2
  -9   2   3 464.033 221.056  10
  -9   2   2 4809.83 602.843  10
   9  -2  -2 4481.91 575.620   2
   9  -2  -2 3955.59 491.122   8
   9  -2  -1 1204.63 295.605   2
  -9   2   1 1538.35 338.242  10
  -9   2   1 1873.08 331.683   5
   9  -2  -1 1859.56 366.878   8
   9  -2   0 172.121 174.496   2
  -9   2   0 12.4662 150.351  10
  -9   2   0-131.104 139.544   5
   9  -2   0 100.537 152.833   8
   9  -2   1 768.193 265.420   2
  -9   2  -1 754.457 250.157   5
  -9   2  -1 273.965 205.820  10
   9  -2   1 519.788 198.585   8
   9  -2   2 3958.68 409.747   3
  -9   2  -2 3989.90 477.991   5
  -9   2  -2 3957.97 513.594  10
   9  -2   2 4448.75 529.103   2
   9  -2   2 4249.88 497.184   8
   9  -2   3 447.432 214.713   2
   9  -2   3 144.034 135.492   3
  -9   2  -3 213.289 174.986   5
  -9   2  -3 5.52159 147.312  10
   9  -2   3-147.574 179.527   8
   9  -2   4 620.346 225.077   2
   9  -2   4 507.458 192.190   3
  -9   2  -4 246.738 202.521   5
  -9   2  -4 386.691 230.334  10
   9  -2   4 519.386 251.547   8
   9  -2   5 1026.91 274.867   2
   9  -2   5 1423.69 300.832   3
  -9   2  -5 1478.17 334.224   5
  -9   2  -5 1439.60 319.072  10
   9  -2   5 1459.60 326.703   8
   9  -2   6 2650.12 417.081   3
  -9   2  -6 3115.26 467.384  10
   9  -2   6 3200.62 412.576   2
   9  -2   6 2445.31 411.183   8
   9  -2   7 167.699 142.541   2
   9  -2   7 196.388 200.609   3
  -9   2  -7 410.481 212.227  10
   9  -2   7 328.580 245.755   8
   9  -2   8 3092.54 460.021   3
  -9   2  -8 3550.61 513.695  10
   9  -2   8 3093.08 490.376   8
   9  -2   9 193.474 177.186   3
  -9   2  -9 15.7727 167.849  10
   9  -2   9 269.053 230.737   8
   9  -2  10 3400.36 521.990   3
  -9   2 -10 3424.94 471.166  11
  -9   2 -10 3644.88 559.833  10
   9  -2  10 2996.38 536.045   8
   9  -2  11 1400.69 385.182   3
  -9   2 -11 899.149 273.112  11
   9  -2  11 762.310 338.280   8
   9  -2  12 412.375 265.863   3
  -9   2 -12 105.143 175.564  11
   9  -2  12-104.487 245.015   8
   9  -2  13 746.870 307.093   3
   9  -2  14 46.5440 193.401   3
   9  -1 -10 107.245 204.334  11
   9  -1  -9 2427.00 464.055  11
  -9   1   8 2978.51 555.363  10
  -9   1   7 521.759 293.027   1
  -9   1   7 123.498 214.627  10
   9  -1  -6 81.1815 206.439   2
  -9   1   6 214.053 185.630  10
  -9   1   6 164.302 291.519   1
   9  -1  -5 425.659 252.232   2
  -9   1   5 553.402 296.564  10
  -9   1   5 318.076 320.361   1
   9  -1  -4 220.312 220.204   2
  -9   1   4 216.735 197.670  10
   9  -1  -3 3474.47 555.772   2
  -9   1   3 3473.11 548.490  10
   9  -1  -3 3764.18 467.977   8
  -9   1   2 5092.88 636.756  10
   9  -1  -2 4458.92 587.281   2
   9  -1  -2 4902.77 531.764   8
   9  -1  -1 43.9986 178.802   2
  -9   1   1 227.635 252.265  10
   9  -1  -1 9.91404 140.287   8
   9  -1   0-143.908 172.724   2
  -9   1   0-53.2866 143.398  10
  -9   1   0-56.7654 134.277   5
   9  -1   0-64.9029 121.898   8
   9  -1   1 7289.04 530.292   3
  -9   1  -1 7315.19 606.446   5
  -9   1  -1 6162.79 668.990  10
   9  -1   1 6798.43 665.132   2
   9  -1   1 6831.31 604.052   8
   9  -1   2 568.951 234.407   2
   9  -1   2 662.830 186.147   3
  -9   1  -2 763.324 212.706   5
  -9   1  -2 350.830 176.742  10
   9  -1   2 817.541 251.067   8
   9  -1   3 323.489 190.844   2
   9  -1   3 329.961 188.832   3
  -9   1  -3 262.060 163.621   5
  -9   1  -3 530.353 250.435  10
   9  -1   3 177.924 161.244   8
   9  -1   4 2116.13 346.036   2
   9  -1   4 2486.67 358.119   3
  -9   1  -4 2368.96 386.398   5
  -9   1  -4 2246.65 407.373  10
   9  -1   4 2463.81 378.302   8
   9  -1   5 5615.80 550.283   3
  -9   1  -5 5672.46 627.422  10
   9  -1   5 6130.04 608.085   2
   9  -1   5 5289.78 567.360   8
   9  -1   6 397.377 157.178   2
   9  -1   6 686.422 235.248   3
  -9   1  -6 679.662 255.966  10
   9  -1   6 570.777 230.268   8
   9  -1   7 202.681 156.266   2
   9  -1   7 207.397 161.564   3
  -9   1  -7-117.262 166.827  10
   9  -1   7 102.536 179.028   8
   9  -1   8 3047.96 455.309   3
  -9   1  -8 3467.21 526.218  10
   9  -1   8 3352.06 436.695   2
   9  -1   8 3415.48 508.704   8
   9  -1   9 937.951 245.548   2
   9  -1   9 1432.80 342.593   3
  -9   1  -9 929.451 310.153  10
   9  -1   9 795.096 306.598   8
   9  -1  10 2537.06 442.304   3
  -9   1 -10 1686.73 385.613  11
   9  -1  10 2360.21 459.430   8
   9  -1  11 422.350 210.276   3
  -9   1 -11 455.956 178.968  11
   9  -1  11 627.249 276.943   8
   9  -1  12 1846.44 405.116   3
  -9   1 -12 1752.47 362.282  11
   9  -1  13 33.5450 224.501   3
  -9   1 -13-143.253 208.782  11
   9  -1  14 2139.41 488.615   3
  -9   1 -14 1959.74 432.914  11
  -9   1 -15 345.369 185.643  11
  -9   1 -16 501.486 308.519  11
  -9   1 -17 491.262 325.192  11
   9   0  -9 2234.41 442.150  11
   9   0  -7 1013.36 378.943   2
  -9   0   7 438.155 222.591  10
  -9   0   7 711.122 325.536   1
   9   0  -6 674.503 303.967   2
  -9   0   6 174.482 230.648  10
  -9   0   6 266.111 228.695   1
   9   0  -5 709.169 294.261   2
  -9   0   5 881.224 360.087  10
   9   0  -4 107.132 197.398   2
  -9   0   4 160.660 236.297  10
   9   0  -3 3091.47 492.662   2
  -9   0   3 2141.49 472.446  10
   9   0  -2 997.553 319.153   2
  -9   0   2 727.685 288.232  10
   9   0  -1 543.652 250.510   2
  -9   0   1 480.308 244.529  10
   9   0  -1 395.413 170.742   8
   9   0   0 3062.90 480.688   2
  -9   0   0 3725.83 530.460  10
   9   0   0 3405.28 409.773   8
   9   0   1 1587.85 326.308   2
  -9   0  -1 1805.64 289.121   5
  -9   0  -1 1963.17 419.114  10
   9   0   1 1920.83 323.212   8
   9   0   2 78.8984 139.756   2
   9   0   2 188.522 142.591   3
  -9   0  -2 272.406 153.451   5
  -9   0  -2-210.425 203.144  10
   9   0   2 77.8886 153.511   8
   9   0   3 630.528 263.313   2
   9   0   3 1253.06 267.678   3
  -9   0  -3 740.990 229.747   5
  -9   0  -3 498.901 224.514  10
   9   0   3 437.093 166.736   8
   9   0   4 6059.51 563.729   3
  -9   0  -4 7671.20 725.748  10
   9   0   4 6602.70 641.795   2
   9   0   4 6970.68 611.501   8
   9   0   5 284.693 131.867   2
   9   0   5 159.587 162.316   3
  -9   0  -5 456.209 246.998  10
   9   0   5 223.859 177.835   8
   9   0   6 653.870 237.620   2
   9   0   6 798.485 255.530   3
  -9   0  -6 660.165 246.107  10
   9   0   6 820.281 238.605   8
   9   0   7 3808.36 493.063   3
  -9   0  -7 3798.37 536.567  10
   9   0   7 3306.19 450.176   2
   9   0   7 3833.56 493.057   8
   9   0   8-87.2414 168.993   2
   9   0   8-43.7805 152.008   3
  -9   0  -8-18.2430 188.156  10
   9   0   8-43.3396 155.800   8
   9   0   9 2972.04 417.252   2
   9   0   9 2984.01 460.927   3
  -9   0  -9 2340.46 449.105  10
   9   0   9 3757.49 532.841   8
   9   0  10 489.101 241.939   3
  -9   0 -10 1039.02 298.856  11
   9   0  10 747.398 278.782   8
   9   0  10 983.484 261.139   2
   9   0  11 1266.12 336.855   3
  -9   0 -11 1158.42 281.008  11
   9   0  11 1438.22 283.590   2
   9   0  12 252.086 267.499   3
  -9   0 -12-69.3339 196.027  11
   9   0  13 1593.77 388.208   3
  -9   0 -13 1543.63 398.875  11
   9   0  14 1312.98 384.263   3
  -9   0 -14 1939.75 427.832  11
   9   0  15-162.997 193.400   3
  -9   0 -15 161.276 212.436  11
  -9   0 -16 411.333 292.922  11
  -9   0 -17 970.621 381.710  11
   9   1  -7 274.965 212.337   2
  -9  -1   7 50.8230 237.691  10
  -9  -1   7 638.691 359.926   1
   9   1  -6 2289.49 464.208   2
  -9  -1   6 2213.59 461.490  10
   9   1  -5 555.201 245.752   2
  -9  -1   5 215.322 233.326  10
   9   1  -4-215.144 248.050   2
  -9  -1   4 195.491 229.493  10
   9   1  -3 573.188 266.536   2
  -9  -1   3 277.748 174.525  10
   9   1  -2 2527.58 456.867   2
  -9  -1   2 2711.52 480.109  10
   9   1  -1 544.587 218.351   2
  -9  -1   1-124.868 197.242  10
   9   1   0 2201.77 419.314   2
  -9  -1   0 2607.30 454.677  10
   9   1   1 974.803 275.922   2
  -9  -1  -1 1090.74 308.646  10
   9   1   1 863.906 212.876   8
   9   1   2 167.725 181.676   2
  -9  -1  -2 258.344 136.194   5
  -9  -1  -2 194.702 210.077  10
   9   1   2 132.568 140.551   8
  -9  -1  -3 6007.55 663.331  10
   9   1   3 5748.56 624.351   2
   9   1   3 6798.83 554.035   8
   9   1   4 667.955 251.539   2
  -9  -1  -4 753.930 263.789  10
   9   1   4 1225.93 279.946   8
   9   1   5-87.5256 161.959   2
  -9  -1  -5 308.075 216.087  10
   9   1   5 195.668 153.224   8
   9   1   6 2158.88 379.177   2
  -9  -1  -6 2587.83 457.737  10
   9   1   6 2064.72 348.375   8
   9   1   7 1455.08 323.765   2
   9   1   7 1047.59 270.225   3
  -9  -1  -7 819.791 314.007  10
   9   1   7 1381.03 326.627   8
   9   1   8 168.653 180.502   2
   9   1   8-17.7970 137.562   3
  -9  -1  -8 297.685 171.786  10
   9   1   9-15.0939 149.627   2
   9   1   9-90.6372 160.052   3
  -9  -1  -9 120.208 172.823  10
   9   1   9 50.2277 152.882   8
   9   1  10 2487.04 424.881   3
   9   1  10 3408.92 458.034   2
   9   1  11 461.254 256.377   3
  -9  -1 -11 120.853 202.157  11
   9   1  11 194.942 161.394   2
   9   1  12 891.247 302.494   3
  -9  -1 -12 1164.47 322.080  11
   9   1  12 1067.32 287.198   2
   9   1  13 6260.33 739.386   3
  -9  -1 -13 5668.32 686.185  11
   9   1  13 5601.69 593.114   2
   9   1  14 129.069 258.951   3
  -9  -1 -14 137.855 183.922  11
   9   1  15 1074.87 329.479   3
  -9  -1 -15 745.027 337.803  11
  -9  -1 -16 450.120 307.448  11
  -9  -2   7 1961.38 474.875  10
   9   2  -6 856.913 309.117   2
  -9  -2   6 465.854 295.011  10
   9   2  -5 191.563 215.763   2
  -9  -2   5-60.7191 228.435  10
   9   2  -4 1171.35 327.131   2
  -9  -2   4 787.950 289.105  10
   9   2  -3 1991.92 421.486   2
  -9  -2   3 2181.83 448.797  10
   9   2  -2 1138.81 345.212   2
  -9  -2   2 1505.74 393.666  10
   9   2  -1 1078.97 350.487   2
  -9  -2   1 969.201 324.395  10
   9   2   0 1841.17 381.911   2
  -9  -2   0 1611.64 368.190  10
   9   2   1 3633.97 533.354   2
  -9  -2  -1 2964.50 476.889  10
   9   2   2 180.834 166.783   2
  -9  -2  -2 44.9052 165.392  10
   9   2   3 3981.47 527.879   2
  -9  -2  -3 4502.61 585.553  10
   9   2   4 2910.83 462.978   2
  -9  -2  -4 2589.15 436.841  10
   9   2   4 3199.54 380.961   8
   9   2   5 167.918 172.899   2
  -9  -2  -5-19.5945 176.100  10
   9   2   5-123.924 115.290   8
   9   2   6 3295.47 474.436   2
  -9  -2  -6 2965.77 475.414  10
   9   2   6 3341.11 413.328   8
   9   2   7 188.810 163.769   2
  -9  -2  -7 203.722 236.358  10
   9   2   7-119.840 174.744   8
   9   2   8 1500.23 344.048   2
  -9  -2  -8 1074.85 308.665  10
   9   2   9 877.091 258.606   2
  -9  -2  -9 610.113 269.714  10
   9   2  10 1631.91 369.074   3
   9   2  10 1305.98 304.707   2
   9   2  11 510.551 219.577   3
   9   2  11 187.788 169.334   2
   9   2  12 1506.73 370.273   3
  -9  -2 -12 1704.77 373.124  11
   9   2  12 2531.03 427.213   2
   9   2  13 1691.19 411.987   3
  -9  -2 -13 1555.97 366.640  11
   9   2  13 1850.24 380.757   2
  -9  -2 -14 308.456 179.670  11
   9   2  14 324.502 172.302   2
   9   2  15 518.598 290.775   3
  -9  -2 -15 263.052 268.805  11
  -9  -2 -16 293.116 264.620  11
   9   2  17 252.706 210.784   1
   9   2  18 4.43638 239.192   1
   9   3  -6-111.587 203.756   2
  -9  -3   6 376.636 306.567  10
   9   3  -5 2058.24 464.129   2
  -9  -3   5 1837.02 435.951  10
   9   3  -4 2449.66 492.051   2
  -9  -3   4 2267.95 475.448  10
   9   3  -3 1691.18 389.072   2
  -9  -3   3 1180.20 333.943  10
   9   3  -2 601.294 259.119   2
  -9  -3   2 223.843 185.944  10
   9   3  -1 987.301 322.169   2
  -9  -3   1 855.164 260.225  10
   9   3   0 1764.03 396.487   2
  -9  -3   0 1511.38 406.082  10
   9   3   1 454.079 245.146   2
  -9  -3  -1-253.389 220.928  10
  -9  -3  -2 4712.95 618.586  10
   9   3   2 4910.28 609.230   2
   9   3   3 1934.24 386.599   2
  -9  -3  -3 1280.41 354.363  10
   9   3   4 830.912 260.498   2
  -9  -3  -4 645.943 253.486  10
   9   3   5 1646.26 349.648   2
  -9  -3  -5 1616.24 365.644  10
   9   3   6-93.7156 158.461   2
  -9  -3  -6 160.803 170.933  10
  -9  -3  -6 4.48346 136.211   9
   9   3   7 263.042 205.238   2
  -9  -3  -7 19.6360 169.251  10
  -9  -3  -7 462.738 161.594   9
   9   3   8 249.313 196.863   2
  -9  -3  -8 174.826 179.008  10
  -9  -3  -8 174.675 105.769   9
   9   3   9 2502.51 425.414   2
  -9  -3  -9 2374.05 499.326  10
  -9  -3  -9 2213.59 323.065   9
  -9  -3 -10 7085.98 806.390  10
   9   3  10 7403.56 725.662   2
  -9  -3 -10 7456.13 599.629   9
   9   3  11 207.601 171.814   2
   9   3  12 3810.81 553.313   3
  -9  -3 -12 2532.37 499.577  11
   9   3  12 3703.79 534.420   2
   9   3  13 1035.19 354.563   3
  -9  -3 -13 87.1837 191.669  11
   9   3  13 693.055 295.550   2
   9   3  14 259.100 256.915   3
  -9  -3 -14-42.2864 219.539  11
   9   3  14 234.899 207.890   2
   9   3  15 1897.96 458.252   3
  -9  -3 -15 819.195 317.738  11
   9   3  15 1290.95 336.441   2
  -9  -3 -16-360.426 318.421  11
   9   3  16 299.146 194.414   2
   9   3  18 148.834 275.171   1
   9   4  -5 4726.59 675.452   2
  -9  -4   5 3975.53 644.489  10
   9   4  -4 2491.65 480.741   2
  -9  -4   4 2830.48 590.149  10
   9   4  -3 9.49394 182.051   2
  -9  -4   3 224.074 224.632  10
   9   4  -2 898.697 279.630   2
  -9  -4   2 1252.29 347.383  10
   9   4  -1 372.827 202.314   2
  -9  -4   1 714.120 286.342  10
   9   4   0 643.354 224.392   2
  -9  -4   0 639.720 285.547  10
   9   4   1 4402.26 590.203   2
  -9  -4  -1 6051.75 681.797  10
  -9  -4  -1 5053.49 486.045   9
   9   4   2 2736.22 473.889   2
  -9  -4  -2 2587.81 474.463  10
  -9  -4  -2 2813.08 346.889   9
   9   4   3 515.763 244.857   2
  -9  -4  -3 178.636 182.105  10
  -9  -4  -3 737.080 196.045   9
   9   4   4 2751.91 478.980   2
  -9  -4  -4 1777.61 426.549  10
  -9  -4  -4 2196.92 313.389   9
   9   4   5 3219.29 495.942   2
  -9  -4  -5 2759.80 365.966   7
  -9  -4  -5 2528.18 469.582  10
  -9  -4  -5 2983.39 358.109   9
   9   4   6 114.182 198.308   2
  -9  -4  -6 289.765 209.777  10
  -9  -4  -6 116.872 148.061   9
   9   4   7 993.560 325.052   2
  -9  -4  -7 1413.35 371.408  10
  -9  -4  -7 1137.79 244.935   9
   9   4   8 2914.75 480.065   2
  -9  -4  -8 2780.02 512.386  10
  -9  -4  -8 3005.57 398.559   9
  -9  -4  -9 5325.67 666.479  10
   9   4   9 5660.69 657.636   2
  -9  -4  -9 5698.10 542.301   9
  -9  -4 -10 3876.03 581.151  10
  -9  -4 -10 3964.28 472.114   9
   9   4  10 3899.34 552.914   2
  -9  -4 -11 2431.45 391.101   9
   9   4  11 2771.69 469.340   2
  -9  -4 -12-615.897 362.916  11
   9   4  12 407.519 213.007   2
  -9  -4 -13 74.4812 186.532  11
   9   4  13 149.607 215.394   2
   9   4  14 1203.79 375.418   3
   9   4  14 665.083 268.850   2
   9   4  15 1428.21 400.822   3
  -9  -4 -15 1533.81 382.966  11
   9   4  15 1419.32 386.892   2
  -9  -4 -16 694.945 270.840  11
   9   4  16 631.316 346.117   2
   9   4  17-183.576 222.756   2
   9   5  -5 4656.88 697.920   2
  -9  -5   5 3958.40 645.444  10
   9   5  -4 264.915 176.939   2
  -9  -5   4 224.665 177.459  10
   9   5  -3 894.224 267.859   2
  -9  -5   3 1373.75 386.507  10
   9   5  -2 2725.15 512.512   2
  -9  -5   2 1641.73 432.676  10
   9   5  -1 3383.46 571.867   2
  -9  -5   1 3321.77 569.601  10
   9   5   0 428.518 238.845   2
  -9  -5   0 829.081 334.681  10
  -9  -5   0 832.852 249.373   9
   9   5   1 4182.13 603.475   2
  -9  -5  -1 3633.85 552.349  10
  -9  -5  -1 3845.18 465.894   9
   9   5   2 1857.86 413.298   2
  -9  -5  -2 2486.16 478.627  10
  -9  -5  -2 2004.50 352.296   9
   9   5   3 35.2754 162.377   2
  -9  -5  -3 153.078 190.838  10
  -9  -5  -3 187.617 142.671   9
   9   5   4 3327.39 526.574   2
  -9  -5  -4 3023.73 516.313  10
  -9  -5  -4 3772.79 440.865   9
   9   5   5 251.781 158.618   2
  -9  -5  -5 158.995 122.735   7
  -9  -5  -5 378.587 245.216  10
  -9  -5  -5 151.480 141.252   9
   9   5   6 226.411 209.972   2
  -9  -5  -6 37.7367 115.683   7
  -9  -5  -6 211.723 217.914  10
  -9  -5  -6 146.158 201.119   9
   9   5   7 1708.66 394.637   2
  -9  -5  -7 1708.24 395.653  10
  -9  -5  -7 1835.27 320.078   9
   9   5   8 3591.95 544.054   2
  -9  -5  -8 2800.41 490.130  10
  -9  -5  -8 2776.46 408.464   9
  -9  -5  -9 2140.97 435.798  10
  -9  -5  -9 2783.75 418.925   9
   9   5   9 2814.90 504.294   2
  -9  -5 -10 351.902 263.701  10
  -9  -5 -10 271.054 210.866   9
   9   5  10 360.476 230.866   2
  -9  -5 -11 1416.77 394.403  10
  -9  -5 -11 1653.18 340.215   9
   9   5  11 1630.66 372.650   2
  -9  -5 -12 1007.03 306.688   9
   9   5  12 218.867 165.946   2
  -9  -5 -13 2.56823 311.131  11
   9   5  13 471.851 289.080   2
  -9  -5 -14 599.024 204.624  11
   9   5  14 385.143 221.448   2
  -9  -5 -15 63.5746 354.422  11
   9   5  15 603.881 270.200   2
   9   5  16 158.107 219.463   2
   9   5  17 397.813 256.774   2
   9   5  18 445.595 279.092   2
   9   6  -4 48.8527 195.060   2
  -9  -6   4 563.716 314.191  10
   9   6  -3 697.260 260.375   2
  -9  -6   3 1067.77 371.563  10
   9   6  -2 2537.82 522.730   2
  -9  -6   2 2725.99 522.927  10
   9   6  -1 661.222 273.804   2
  -9  -6   1 829.513 356.903  10
   9   6   0 1183.48 337.445   2
  -9  -6   0 1203.41 354.921  10
  -9  -6   0 1295.04 326.652   9
   9   6   1 1583.08 387.661   2
  -9  -6  -1 1238.54 348.500  10
  -9  -6  -1 2194.37 400.233   9
   9   6   2 52.3639 174.141   2
  -9  -6  -2 388.285 206.147  10
  -9  -6  -2 346.683 200.809   9
   9   6   3 2198.74 459.583   2
  -9  -6  -3 2224.48 472.668  10
  -9  -6  -3 2580.75 417.803   9
   9   6   4 2220.20 473.175   2
  -9  -6  -4 1869.73 429.663  10
  -9  -6  -4 2353.44 385.704   9
   9   6   5 830.142 319.899   2
  -9  -6  -5 467.068 182.131   7
  -9  -6  -5 649.161 313.350  10
  -9  -6  -5 272.485 205.107   9
   9   6   6 1260.75 359.923   2
  -9  -6  -6 1802.12 350.140   7
  -9  -6  -6 1065.94 329.467  10
  -9  -6  -6 1841.99 355.738   9
  -9  -6  -7 5759.70 593.319   7
  -9  -6  -7 5757.04 715.029  10
   9   6   7 5127.26 663.239   2
  -9  -6  -7 5607.42 593.887   9
   9   6   8 1950.40 420.074   2
  -9  -6  -8 2138.43 380.286   7
  -9  -6  -8 2038.40 438.614  10
  -9  -6  -8 2236.14 419.181   9
  -9  -6  -9 1538.98 408.447  10
  -9  -6  -9 2155.20 392.184   9
   9   6   9 1252.05 348.668   2
  -9  -6 -10 1723.07 425.399  10
  -9  -6 -10 3056.56 478.224   9
   9   6  10 2257.42 456.585   2
  -9  -6 -11-80.9320 186.775  10
  -9  -6 -11 134.615 196.312   9
   9   6  11 283.915 230.554   2
  -9  -6 -12 454.478 203.393   9
   9   6  12 629.345 284.846   2
  -9  -6 -13 1383.38 349.889   9
   9   6  13 1217.85 373.083   2
  -9  -6 -14 316.473 227.311  11
   9   6  14 1548.98 402.746   2
  -9  -6 -15-997.414 441.599  11
   9   6  15 274.660 257.274   2
   9   6  16 1006.75 365.640   2
   9   6  17 1363.32 410.865   2
  -9  -7   3 1248.22 383.567  10
   9   7  -2 738.792 301.994   2
  -9  -7   2 1285.70 390.903  10
  -9  -7   1 1.03492 234.689  10
  -9  -7   1 176.233 201.853   9
   9   7   0 855.069 309.479   2
  -9  -7   0 674.065 307.266  10
  -9  -7   0 970.964 305.176   9
   9   7   1 510.367 245.208   2
  -9  -7  -1 74.6878 260.603  10
  -9  -7  -1 666.299 255.819   9
   9   7   2 214.536 319.294   2
  -9  -7  -2 254.704 232.524  10
  -9  -7  -2-80.9883 154.672   9
   9   7   3 2220.38 458.014   2
  -9  -7  -3 1144.50 350.548  10
  -9  -7  -3 1524.72 358.982   9
   9   7   4 1797.85 433.912   2
  -9  -7  -4 1711.77 406.163  10
  -9  -7  -4 1714.04 358.066   9
   9   7   5 512.596 291.342   2
  -9  -7  -5 100.743 155.846   7
  -9  -7  -5 400.732 236.792  10
  -9  -7  -5-92.1939 175.269   9
   9   7   6 1620.56 406.277   2
  -9  -7  -6 1416.85 331.100   7
  -9  -7  -6 1284.68 390.773  10
  -9  -7  -6 1112.26 283.011   9
  -9  -7  -7 6891.01 678.159   7
  -9  -7  -7 7386.01 801.347  10
   9   7   7 6190.88 738.966   2
  -9  -7  -7 7510.01 722.998   9
  -9  -7  -8 1889.29 388.080   7
  -9  -7  -8 1546.74 431.600  10
  -9  -7  -8 1810.13 376.730   9
   9   7   8 2199.87 497.728   2
  -9  -7  -9 5048.59 629.450   7
  -9  -7  -9 5060.70 709.213  10
   9   7   9 5777.16 713.169   2
  -9  -7  -9 7017.96 704.705   9
  -9  -7 -10 1889.99 401.645   7
  -9  -7 -10 1116.25 371.574  10
  -9  -7 -10 1786.40 389.542   9
   9   7  10 1046.50 349.451   2
  -9  -7 -11 949.864 338.385  10
  -9  -7 -11 960.694 311.723   9
   9   7  11 1111.61 330.487   2
  -9  -7 -12 453.519 299.212  10
  -9  -7 -12 208.563 172.630   9
   9   7  12-324.117 218.721   2
  -9  -7 -13 2686.37 501.192   9
   9   7  13 2681.79 517.995   2
  -9  -7 -14 508.129 265.366   9
   9   7  14 541.029 266.914   2
   9   7  15 326.898 290.369   2
  -9  -8   1 168.762 207.663  10
  -9  -8   1 328.446 250.842   9
   9   8   0 47.7604 168.426   2
  -9  -8   0-240.086 214.591  10
   9   8   1 434.138 221.147   2
  -9  -8  -1 378.791 229.151  10
  -9  -8  -1 896.731 344.128   9
   9   8   2-6.46526 182.629   2
  -9  -8  -2 123.577 172.809  10
  -9  -8  -2 33.5896 199.292   9
   9   8   3 719.097 302.901   2
  -9  -8  -3 472.431 266.861  10
  -9  -8  -3 379.655 205.761   9
   9   8   4-68.0326 171.007   2
  -9  -8  -4 131.147 213.184  10
  -9  -8  -4-291.377 236.992   9
   9   8   5 280.404 221.221   2
  -9  -8  -5-80.7730 137.851   7
  -9  -8  -5 127.855 212.267  10
  -9  -8  -5 306.698 248.229   9
   9   8   6 2257.54 500.396   2
  -9  -8  -6 2166.25 404.594   7
  -9  -8  -6 2265.61 474.190  10
  -9  -8  -6 2092.17 430.753   9
  -9  -8  -7 2185.06 422.393   7
  -9  -8  -7 1686.32 454.450  10
  -9  -8  -7 2201.66 439.653   9
   9   8   7 1839.47 459.999   2
  -9  -8  -8 719.160 271.586   7
  -9  -8  -8 1019.18 366.742  10
  -9  -8  -8 843.287 312.891   9
   9   8   8 568.916 326.363   2
  -9  -8  -9 328.047 185.116   7
  -9  -8  -9 487.734 298.678  10
  -9  -8  -9 516.006 266.806   9
   9   8   9 875.280 345.142   2
  -9  -8 -10 635.018 285.100   7
  -9  -8 -10 182.784 289.923  10
  -9  -8 -10 1037.74 353.580   9
   9   8  10 234.563 194.457   2
  -9  -8 -11 272.045 254.743   7
  -9  -8 -11 96.6531 210.767  10
  -9  -8 -11 33.0520 189.813   9
   9   8  11 34.7284 193.161   2
  -9  -8 -12 984.603 347.284   7
  -9  -8 -12 216.733 231.646  10
  -9  -8 -12 668.753 290.129   9
   9   8  12-10.2790 191.581   2
  -9  -8 -13 1328.96 396.732  10
  -9  -8 -13 635.921 280.425   9
   9   8  13 1556.78 466.363   2
  -9  -8 -14 1468.38 402.594   9
  -9  -8 -15 574.871 298.764   9
  -9  -9   1 499.693 272.004   9
  -9  -9   0-91.8522 219.744  10
  -9  -9   0 205.227 221.366   9
  -9  -9  -1 773.817 329.955  10
  -9  -9  -1 80.8136 198.563   9
  -9  -9  -2 467.215 242.933  10
  -9  -9  -2 493.346 289.655   9
   9   9   3-63.4574 232.852   2
  -9  -9  -3-254.741 250.239  10
  -9  -9  -3 127.019 181.193   9
   9   9   4 420.799 270.021   2
  -9  -9  -4 364.738 239.093  10
  -9  -9  -4 626.351 236.810   9
   9   9   5-103.370 231.696   2
  -9  -9  -5 361.867 204.022   7
  -9  -9  -5 553.553 252.715  10
  -9  -9  -5 722.994 324.738   9
  -9  -9  -6 2355.80 434.338   7
  -9  -9  -6 1242.35 368.720  10
  -9  -9  -6 2281.63 503.427   9
   9   9   6 1964.41 500.812   2
  -9  -9  -7-168.795 180.937   7
  -9  -9  -7-106.245 179.886  10
  -9  -9  -7 101.966 215.962   9
   9   9   7-432.069 329.844   2
  -9  -9  -8 269.077 245.060   7
  -9  -9  -8 340.691 245.637  10
  -9  -9  -8-265.015 240.149   9
   9   9   8-42.3749 207.617   2
  -9  -9  -9 1684.69 416.232   7
  -9  -9  -9 1387.70 447.014  10
  -9  -9  -9 1144.51 361.743   9
   9   9   9 1126.69 364.622   2
  -9  -9 -10 159.075 229.118   7
  -9  -9 -10 128.030 226.086  10
  -9  -9 -10 239.932 255.621   9
  -9  -9 -11 2413.06 452.354   7
  -9  -9 -11 1855.51 443.016  10
  -9  -9 -11 2540.18 504.800   9
  -9  -9 -12 829.678 316.314   7
  -9  -9 -12 639.748 337.989  10
  -9  -9 -12 969.333 346.890   9
  -9  -9 -13-260.304 254.833   9
  -9 -10  -2 511.104 322.865  10
  -9 -10  -2 445.969 322.302   9
  -9 -10  -3 2059.40 456.212  10
  -9 -10  -3 1569.96 447.047   9
  -9 -10  -4 274.218 282.136  10
  -9 -10  -4 164.822 240.963   9
  -9 -10  -5 2178.03 472.952  10
  -9 -10  -5 1364.08 392.068   9
  -9 -10  -6 677.309 319.314   7
  -9 -10  -6 587.561 313.690  10
  -9 -10  -6 1348.59 391.928   9
  -9 -10  -7 416.034 304.294   7
  -9 -10  -7 331.592 290.528  10
  -9 -10  -7-15.5824 213.179   9
  -9 -10  -8-8.39512 181.294   7
  -9 -10  -8 35.2171 193.805  10
  -9 -10  -8 572.179 302.888   9
  -9 -10  -9 967.187 361.723   7
  -9 -10  -9 576.288 333.164  10
  -9 -10  -9 441.023 264.472   9
  -9 -10 -10 509.957 248.600   7
  -9 -10 -10 154.062 253.299  10
  -9 -10 -10 175.981 230.892   9
  -9 -10 -11 646.569 272.035   7
  -9 -10 -11 605.511 316.644  10
  -9 -11  -5 1145.19 374.702  10
  -9 -11  -6 1644.34 436.167   7
  -9 -11  -6 1068.30 431.799  10
  -9 -11  -7 479.104 276.158   7
  -9 -11  -7-71.8652 214.504  10
  -9 -11  -8 983.254 355.932  10
 -10   7   3 391.471 243.212   5
 -10   7   2 525.248 336.108   5
 -10   7   1 240.073 209.647   5
 -10   7   0 197.775 213.008   5
 -10   7  -1 243.279 268.324   5
  10  -6  -3 2439.55 494.626   2
 -10   6   2 867.615 338.718   5
 -10   6   1-164.675 196.426   5
  10  -6  -1 24.0432 173.682   8
 -10   6   0-134.349 204.151   5
  10  -6   0 705.832 335.938   8
 -10   6  -1 1020.34 354.801   5
  10  -6   1 451.585 228.630   8
 -10   6  -2 141.307 210.269   5
  10  -6   2 124.162 236.090   8
 -10   6  -3 412.756 271.784   5
  10  -6   3 604.414 348.846   8
 -10   6  -4 67.5755 246.672   5
 -10   6  -5 229.052 312.010   5
 -10   6  -6 12.2914 222.783   5
  10  -6   9 577.459 296.697   3
  10  -5  -5-55.5275 203.111   8
 -10   5   5-256.547 298.274   1
  10  -5  -4 1178.83 357.651   8
  10  -5  -3 1234.57 408.660   2
  10  -5  -3 914.333 318.300   8
  10  -5  -2 141.067 213.335   2
 -10   5   2 23.1138 172.740   5
  10  -5  -2 88.7281 161.143   8
  10  -5  -1 792.840 291.348   2
 -10   5   1 828.254 307.725   5
  10  -5  -1 325.668 253.311   8
  10  -5   0 482.614 237.010   2
 -10   5   0-19.1292 169.402   5
  10  -5   0 149.222 187.115   8
 -10   5  -1 498.529 289.879   5
  10  -5   1 242.240 216.621   8
 -10   5  -2 436.538 277.389   5
  10  -5   2 427.291 212.751   8
 -10   5  -3 442.944 283.082   5
  10  -5   3 138.997 231.915   8
 -10   5  -4 426.216 270.564   5
  10  -5   4 326.915 186.410   8
 -10   5  -5 89.9030 180.731   5
  10  -5   5-194.539 185.646   8
 -10   5  -6 1341.22 361.483   5
  10  -5   6 1846.53 484.855   8
 -10   5  -7-90.7963 212.199   5
  10  -5   7-189.135 244.257   8
  10  -5   8-77.6528 191.023   3
 -10   5  -8 330.704 271.346   5
  10  -5   9 395.414 229.520   3
  10  -5  10-256.804 248.799   3
 -10   4   6 367.872 256.904  10
  10  -4  -5 810.256 319.542   8
 -10   4   5 999.845 340.779  10
 -10   4   5 874.010 417.065   1
  10  -4  -4 729.876 266.557   8
  10  -4  -4 784.201 292.585   2
 -10   4   4 949.668 307.215  10
  10  -4  -3 2804.92 522.548   2
 -10   4   3 2407.25 473.953  10
  10  -4  -3 2276.98 483.168   8
 -10   4   2 194.529 177.021  10
  10  -4  -2 132.825 192.329   8
  10  -4  -1-63.0520 147.488   2
 -10   4   1 407.170 227.276  10
 -10   4   1 243.529 156.291   5
  10  -4  -1 272.504 251.748   8
  10  -4   0 177.118 208.356   2
 -10   4   0 135.288 171.568  10
 -10   4   0 127.282 210.027   5
  10  -4   0 9.21134 173.874   8
  10  -4   1 136.291 160.541   2
 -10   4  -1 156.569 232.951   5
  10  -4   1-173.551 214.373   8
  10  -4   2 1239.33 317.441   2
 -10   4  -2 1094.29 320.758   5
  10  -4   2 720.339 277.878   8
 -10   4  -3 460.456 247.246   5
  10  -4   3 63.8503 208.829   8
 -10   4  -4-114.835 209.401   5
  10  -4   4-121.780 161.193   8
 -10   4  -5 1561.65 398.212   5
  10  -4   5 1379.33 381.136   8
 -10   4  -6 80.0009 207.879   5
  10  -4   6-62.9251 207.775   8
  10  -4   7 51.8649 174.565   3
 -10   4  -7 255.001 268.728   5
  10  -4   7-76.7023 171.819   8
  10  -4   8 142.474 160.460   3
  10  -4   8 501.130 255.524   8
  10  -4   9 1541.31 396.320   3
 -10   4  -9 1719.12 447.550   5
  10  -4   9 1364.09 412.532   8
  10  -4  10 2150.85 421.189   3
 -10   4 -10 2060.54 467.002   5
  10  -4  11 127.261 230.076   3
 -10   3   6 517.493 222.672  10
  10  -3  -5 2285.46 484.483   2
 -10   3   5 2428.78 494.427  10
  10  -3  -4 1152.73 339.554   2
 -10   3   4 1428.03 383.820  10
  10  -3  -4 1237.39 316.664   8
  10  -3  -3 542.034 265.534   2
 -10   3   3 490.581 257.763  10
  10  -3  -3 51.8835 189.301   8
  10  -3  -2 733.634 296.194   2
 -10   3   2 264.996 234.921  10
  10  -3  -2 524.811 238.113   8
  10  -3  -1 1172.38 321.656   2
 -10   3   1 780.532 299.878  10
  10  -3  -1 1233.47 345.582   8
  10  -3   0 287.978 256.582   2
 -10   3   0 141.785 157.306  10
 -10   3   0 325.452 212.344   5
  10  -3   0 175.337 197.352   8
  10  -3   1 507.185 263.403   2
 -10   3  -1 836.920 287.784  10
 -10   3  -1 733.153 244.720   5
  10  -3   1 345.987 229.662   8
  10  -3   2 795.381 266.479   2
 -10   3  -2 480.103 202.585   5
 -10   3  -2 445.826 238.211  10
  10  -3   2 893.814 318.891   8
  10  -3   3 3096.27 472.855   2
 -10   3  -3 3074.22 486.782   5
 -10   3  -3 2957.90 477.627  10
  10  -3   3 2497.47 466.774   8
  10  -3   4 163.170 210.662   2
 -10   3  -4 249.295 213.945   5
 -10   3  -4-41.3028 174.926  10
  10  -3   4-227.157 251.153   8
 -10   3  -5 509.268 243.962   5
 -10   3  -5 227.408 214.188  10
  10  -3   5 312.257 144.694   8
  10  -3   6 50.4294 146.145   3
 -10   3  -6 303.924 223.184   5
 -10   3  -6 25.2552 171.174  10
  10  -3   6 47.0819 169.066   8
  10  -3   7-42.5196 197.138   3
 -10   3  -7 243.809 210.583   5
 -10   3  -7 43.0192 179.839  10
  10  -3   7 44.0798 183.165   8
  10  -3   8 637.079 280.603   3
 -10   3  -8 669.272 288.184   5
 -10   3  -8 831.937 274.185  10
  10  -3   8 797.218 302.274   8
  10  -3   9 963.274 322.600   3
 -10   3  -9 605.182 246.022  10
  10  -3   9 595.865 284.669   8
  10  -3  10 173.946 210.204   3
 -10   3 -10 182.474 222.481  10
  10  -3  10 49.1988 189.224   8
  10  -3  11 1263.84 409.252   3
  10  -3  11 1329.34 445.429   8
  10  -3  12 627.077 330.302   3
 -10   2   6 666.703 304.935  10
  10  -2  -5 2176.76 475.081   2
 -10   2   5 2258.04 469.651  10
  10  -2  -4 182.400 222.204   2
 -10   2   4-148.952 199.377  10
  10  -2  -3 1318.71 360.759   2
 -10   2   3 1065.78 345.081  10
  10  -2  -2 217.951 181.056   2
 -10   2   2 193.167 180.751  10
  10  -2  -2-185.529 178.430   8
  10  -2  -1 1352.62 352.847   2
 -10   2   1 1181.91 359.980  10
  10  -2  -1 1531.87 354.722   8
  10  -2   0 2278.37 440.280   2
 -10   2   0 2356.19 476.980  10
  10  -2   0 2937.71 458.933   8
  10  -2   1 2490.46 451.417   2
 -10   2  -1 3310.17 469.353   5
 -10   2  -1 2622.98 473.115  10
  10  -2   1 2734.90 441.640   8
  10  -2   2 2373.33 445.943   2
 -10   2  -2 2375.63 417.922   5
 -10   2  -2 1734.11 377.035  10
  10  -2   2 1844.30 375.586   8
  10  -2   3 145.599 142.117   2
 -10   2  -3 688.617 266.555   5
 -10   2  -3 285.688 235.776  10
  10  -2   3 245.393 188.285   8
  10  -2   4 2389.39 429.855   2
 -10   2  -4 2773.47 459.901   5
 -10   2  -4 2004.49 418.936  10
  10  -2   4 2027.14 405.798   8
  10  -2   5-6.09138 150.532   2
  10  -2   5 253.040 158.100   3
 -10   2  -5-87.5925 147.475   5
 -10   2  -5-46.5475 207.745  10
  10  -2   5 139.955 194.381   8
  10  -2   6 1356.74 327.747   2
  10  -2   6 1698.21 363.985   3
 -10   2  -6 1500.89 361.599   5
 -10   2  -6 1571.84 358.149  10
  10  -2   6 1465.49 347.666   8
  10  -2   7 136.839 194.946   3
 -10   2  -7 41.1035 149.969  10
  10  -2   7 174.197 253.397   8
  10  -2   8 1314.73 320.461   3
 -10   2  -8 1838.26 412.351  10
  10  -2   8 1302.98 346.657   8
  10  -2   9 3.39102 194.410   3
 -10   2  -9 131.583 245.264  10
  10  -2   9-127.383 219.482   8
  10  -2  10-12.6159 204.181   3
 -10   2 -10 446.375 228.636  10
  10  -2  10 463.837 297.232   8
  10  -2  11 159.188 191.879   3
 -10   2 -11 191.131 186.663  10
  10  -2  11-22.2684 163.915   8
 -10   2 -12 271.845 210.906  10
  10  -2  12-85.0783 201.674   8
  10  -2  13 28.1414 205.897   3
  10  -1  -5 977.600 341.219   2
 -10   1   5 714.629 277.817  10
  10  -1  -4 3.09576 246.301   2
 -10   1   4-35.3924 237.125  10
  10  -1  -3 387.487 252.811   2
 -10   1   3 149.139 204.848  10
  10  -1  -2 284.805 266.467   2
 -10   1   2 0.69863 222.848  10
  10  -1  -1 337.851 257.337   2
 -10   1   1 327.658 164.811  10
  10  -1   0 810.634 297.249   2
 -10   1   0 994.182 335.184  10
  10  -1   0 1263.86 305.749   8
  10  -1   1 2396.31 427.135   2
 -10   1  -1 2051.39 447.695  10
  10  -1   1 2152.76 385.863   8
  10  -1   2-39.9516 138.151   2
 -10   1  -2-178.965 174.594   5
 -10   1  -2 103.311 170.913  10
  10  -1   2 427.706 191.134   8
 -10   1  -3 3456.36 466.232   5
 -10   1  -3 4032.12 576.892  10
  10  -1   3 4147.04 563.917   2
  10  -1   3 3299.49 475.829   8
  10  -1   4 71.6804 156.783   2
  10  -1   4 332.086 229.530   3
 -10   1  -4 280.440 146.418   5
 -10   1  -4-219.787 236.518  10
  10  -1   4 186.213 177.327   8
  10  -1   5 2959.41 464.766   2
  10  -1   5 2602.28 395.458   3
 -10   1  -5 3088.38 465.681   5
 -10   1  -5 2258.11 466.384  10
  10  -1   5 2746.70 449.156   8
  10  -1   6 378.093 207.699   2
  10  -1   6-131.935 134.114   3
 -10   1  -6 85.0368 191.509  10
  10  -1   6 224.262 206.643   8
  10  -1   7 2785.16 440.142   2
  10  -1   7 2756.00 425.941   3
 -10   1  -7 2364.46 460.151  10
  10  -1   7 3644.95 528.996   8
  10  -1   8 938.692 281.440   2
  10  -1   8 720.322 283.697   3
 -10   1  -8 607.232 252.584  10
  10  -1   8 292.046 215.682   8
  10  -1   9 881.328 295.886   3
 -10   1  -9 710.994 288.707  10
  10  -1   9 509.633 251.433   8
  10  -1  10 802.772 280.214   3
 -10   1 -10 1301.13 378.284  10
  10  -1  10 1469.71 392.575   8
  10  -1  11 236.250 217.826   3
 -10   1 -11-123.619 197.542  10
  10  -1  11 18.6594 187.691   8
  10  -1  12 740.358 274.538   3
 -10   1 -12 896.725 313.150  10
  10  -1  13 341.226 265.290   3
 -10   1 -13 463.462 272.741  11
 -10   0   5 351.921 296.913  10
  10   0  -4-216.836 190.909   2
 -10   0   4-6.97774 191.622  10
  10   0  -3 46.8499 196.193   2
 -10   0   3 1010.65 335.188  10
  10   0  -2 86.9141 167.509   2
 -10   0   2-30.0637 186.335  10
  10   0  -1 53.0551 207.051   2
 -10   0   1 206.625 246.137  10
  10   0   0 745.009 324.767   2
 -10   0   0 1641.98 418.910  10
  10   0   1 4013.06 567.779   2
 -10   0  -1 4154.91 604.820  10
  10   0   2 1643.84 364.072   2
 -10   0  -2 1853.89 429.089  10
  10   0   2 1707.22 326.832   8
  10   0   3 280.690 224.884   2
  10   0   3 99.2164 139.692   3
 -10   0  -3 35.7758 140.054   5
 -10   0  -3 162.801 198.683  10
  10   0   3 595.043 249.893   8
  10   0   4 1519.34 371.240   2
  10   0   4 1530.07 322.833   3
 -10   0  -4 1489.86 316.146   5
 -10   0  -4 373.637 228.158  10
  10   0   4 1275.23 305.350   8
  10   0   5 1185.28 322.876   2
  10   0   5 941.751 269.575   3
 -10   0  -5 864.562 289.357  10
  10   0   5 817.155 244.742   8
  10   0   6 584.732 228.070   2
  10   0   6 777.806 273.273   3
 -10   0  -6 615.847 278.416  10
  10   0   6 608.282 251.155   8
  10   0   7 996.797 293.660   2
  10   0   7 951.025 243.614   3
 -10   0  -7 891.294 309.896  10
  10   0   7 1044.51 283.313   8
  10   0   8-95.7560 160.290   2
  10   0   8 66.4152 149.213   3
 -10   0  -8-87.5612 187.233  10
  10   0   8-108.891 170.207   8
  10   0   9 3975.34 551.197   3
  10   0   9 3862.43 517.555   2
 -10   0  -9 3190.49 537.430  10
  10   0   9 3955.37 549.924   8
  10   0  10 179.637 225.386   3
 -10   0 -10 254.411 251.101  10
  10   0  10-95.7610 217.366   8
  10   0  10 165.787 180.486   2
  10   0  11-202.327 200.773   3
 -10   0 -11-12.8848 193.499  10
  10   0  12 335.487 239.221   3
  10   0  13 2846.39 561.224   3
 -10   0 -13 1586.74 391.942  11
 -10   0 -14 785.872 285.157  11
 -10   0 -15-237.317 293.186  11
  10   1  -4 453.274 309.142   2
 -10  -1   4 16.2101 214.446  10
  10   1  -3 766.870 322.784   2
 -10  -1   3 419.848 319.772  10
  10   1  -2 274.248 229.442   2
 -10  -1   2 470.899 319.196  10
  10   1  -1 1417.82 360.534   2
 -10  -1   1 921.492 337.338  10
  10   1   0 1436.37 373.449   2
 -10  -1   0 1859.92 439.116  10
  10   1   1 270.730 231.798   2
 -10  -1  -1 203.002 235.493  10
  10   1   2 99.9220 163.585   2
 -10  -1  -2 83.5260 194.983  10
  10   1   3 1861.37 393.638   2
 -10  -1  -3 1266.57 389.391  10
  10   1   4 1741.33 393.362   2
 -10  -1  -4 1820.37 321.787   5
 -10  -1  -4 1342.07 356.376  10
  10   1   5-354.470 243.876   2
  10   1   5-140.858 202.663   3
 -10  -1  -5-132.955 193.763  10
  10   1   5 79.8825 154.197   8
  10   1   6 1520.55 346.140   2
  10   1   6 1594.25 333.145   3
 -10  -1  -6 1152.25 360.871  10
  10   1   6 1655.84 340.912   8
  10   1   7 1493.88 331.486   2
  10   1   7 1342.45 327.837   3
 -10  -1  -7 1579.24 422.327  10
  10   1   7 1817.16 375.912   8
  10   1   8 773.256 268.933   2
  10   1   8 633.701 231.083   3
 -10  -1  -8 278.683 210.870  10
  10   1   8 557.650 217.401   8
  10   1   9-42.6908 136.818   2
  10   1   9 133.764 175.032   3
 -10  -1  -9 111.442 190.631  10
  10   1   9-10.8179 151.315   8
  10   1  10 582.817 266.972   3
 -10  -1 -10 152.380 230.808  10
  10   1  10 31.7115 138.455   2
  10   1  11-384.365 275.677   3
 -10  -1 -11 82.2214 219.547  10
  10   1  11 365.848 233.000   2
  10   1  12 1617.05 390.706   3
  10   1  13 1029.80 346.005   3
 -10  -1 -13 802.575 249.731  11
  10   1  14 1155.67 393.501   3
 -10  -1 -14 203.745 260.753  11
 -10  -1 -15 40.5794 232.649  11
  10   2  -4-164.290 185.796   2
 -10  -2   4 234.479 197.002  10
  10   2  -3 1261.25 421.696   2
 -10  -2   3 200.347 206.408  10
  10   2  -2 576.640 260.785   2
 -10  -2   2 250.568 208.020  10
  10   2  -1 2177.03 455.874   2
 -10  -2   1 2494.21 481.294  10
  10   2   0 107.333 210.105   2
 -10  -2   0 278.653 233.352  10
  10   2   1 260.278 194.293   2
 -10  -2  -1-23.3590 234.981  10
  10   2   2 129.284 175.969   2
 -10  -2  -2 393.769 285.738  10
  10   2   3 2348.85 464.918   2
 -10  -2  -3 2034.76 451.143  10
  10   2   4 117.527 182.073   2
 -10  -2  -4 352.907 255.607  10
  10   2   5 1014.30 312.174   2
 -10  -2  -5 381.046 196.029  10
  10   2   6 1707.24 382.015   2
 -10  -2  -6 1658.49 387.664  10
  10   2   7 304.762 209.788   2
 -10  -2  -7 172.218 226.859  10
  10   2   8-102.623 193.816   2
 -10  -2  -8 97.6997 185.737  10
  10   2   9-161.062 167.203   2
  10   2   9-77.4221 204.369   3
 -10  -2  -9 230.863 219.750  10
  10   2  10 723.102 274.747   3
 -10  -2 -10 338.923 234.327  10
  10   2  11 1287.61 329.622   3
 -10  -2 -11 1620.47 424.318  10
  10   2  11 1613.51 354.220   2
  10   2  12 966.415 305.150   3
  10   2  12 643.506 240.574   2
  10   2  13 1035.79 384.224   3
 -10  -2 -13 856.894 279.056  11
  10   2  13 1216.95 350.829   2
  10   2  14 240.693 212.377   3
 -10  -2 -14 279.419 199.750  11
 -10  -2 -15 864.147 294.479  11
  10   3  -3 462.747 277.396   2
 -10  -3   3 352.303 276.314  10
  10   3  -2 1690.82 423.990   2
 -10  -3   2 1809.31 427.604  10
  10   3  -1 1446.03 404.460   2
 -10  -3   1 1434.90 407.615  10
  10   3   0 1183.12 351.151   2
 -10  -3   0 1323.89 319.763  10
  10   3   1 1253.87 352.137   2
 -10  -3  -1 1568.62 408.088  10
  10   3   2 1469.94 379.186   2
 -10  -3  -2 1194.80 407.702  10
  10   3   3 2000.21 435.302   2
 -10  -3  -3 2030.24 433.792  10
  10   3   4 1055.22 283.133   2
 -10  -3  -4 346.756 252.667  10
  10   3   5 2186.84 422.802   2
 -10  -3  -5 2097.29 430.934  10
  10   3   6 55.3480 188.137   2
 -10  -3  -6 91.6519 197.827  10
  10   3   7 160.725 222.313   2
 -10  -3  -7 189.964 234.211  10
  10   3   8-10.0659 160.152   2
 -10  -3  -8 474.562 298.915  10
  10   3   9 1021.99 309.819   2
 -10  -3  -9 1279.70 383.291  10
 -10  -3 -10 183.579 181.295  10
  10   3  10-32.6933 166.686   2
  10   3  11-296.943 261.971   3
 -10  -3 -11 471.020 312.119  10
  10   3  11 597.622 219.983   2
  10   3  12 590.820 277.353   3
 -10  -3 -12 606.280 322.694  10
  10   3  12 877.510 319.007   2
  10   3  13 50.1289 194.955   3
  10   3  13 116.582 200.859   2
 -10  -3 -14-760.234 370.661  11
  10   3  14-162.329 200.231   2
 -10  -3 -15 203.531 247.822  11
  10   4  -2 409.964 262.646   2
 -10  -4   2 615.063 255.271  10
  10   4  -1 459.968 289.179   2
 -10  -4   1-27.1269 221.702  10
  10   4   0 760.376 285.415   2
 -10  -4   0 390.612 232.619  10
  10   4   1 1411.57 361.686   2
 -10  -4  -1 2719.53 511.745  10
  10   4   2 989.975 361.607   2
 -10  -4  -2 1143.28 360.463  10
  10   4   3 863.876 327.379   2
 -10  -4  -3 368.113 262.458  10
  10   4   4 2441.87 451.985   2
 -10  -4  -4 3040.16 530.286  10
  10   4   5-105.102 159.158   2
 -10  -4  -5-243.585 248.954  10
  10   4   6 490.838 281.829   2
 -10  -4  -6 1149.16 360.902  10
  10   4   7 1503.61 385.859   2
 -10  -4  -7 984.931 366.244  10
  10   4   8 1441.80 385.657   2
 -10  -4  -8 1636.82 427.780  10
  10   4   9 303.964 259.382   2
 -10  -4  -9 712.268 354.403  10
 -10  -4 -10 107.508 219.947  10
  10   4  10 395.036 248.859   2
 -10  -4 -11 1085.78 352.751  10
  10   4  11 1834.34 408.434   2
 -10  -4 -12 369.149 293.542  10
  10   4  12 290.527 243.249   2
  10   4  13-25.6611 185.216   3
  10   4  13 501.323 246.518   2
  10   4  14 654.950 279.805   2
  10   4  15 369.424 256.168   2
  10   4  16-203.360 213.195   2
  10   5  -1 448.831 257.340   2
 -10  -5   1 765.559 308.929  10
  10   5   0-321.273 245.898   2
 -10  -5   0 193.757 236.062  10
  10   5   1 1881.50 459.354   2
 -10  -5  -1 1536.15 399.441  10
  10   5   2 274.393 253.113   2
 -10  -5  -2-110.552 202.185  10
  10   5   3 1205.63 364.692   2
 -10  -5  -3 1547.86 422.412  10
  10   5   4 601.928 284.585   2
 -10  -5  -4-144.044 263.009  10
  10   5   5 171.350 182.246   2
 -10  -5  -5 176.760 205.844  10
  10   5   6 2083.38 457.961   2
 -10  -5  -6 2502.32 503.901  10
  10   5   7 2945.74 522.341   2
 -10  -5  -7 3563.15 608.420  10
  10   5   8 641.936 319.246   2
 -10  -5  -8 284.874 250.184  10
  10   5   9 232.081 232.333   2
 -10  -5  -9 402.200 256.050  10
 -10  -5 -10 2534.37 533.829  10
  10   5  10 2781.81 507.948   2
 -10  -5 -11-0.54149 231.108  10
  10   5  11 774.662 307.846   2
 -10  -5 -12 82.6772 200.884  10
  10   5  12 134.208 210.109   2
 -10  -5 -13 1858.16 508.767  10
  10   5  13 897.987 341.244   2
  10   5  14 341.529 241.192   2
  10   5  15 478.194 265.210   2
  10   5  16 540.944 307.239   2
  10   6   0 466.729 309.082   2
 -10  -6   0 904.679 356.325  10
  10   6   1 2805.27 533.059   2
 -10  -6  -1 2340.40 513.270  10
  10   6   2 333.607 250.220   2
 -10  -6  -2-317.553 242.580  10
  10   6   3 60.6336 186.189   2
 -10  -6  -3 266.769 240.222  10
  10   6   4 58.7846 159.971   2
 -10  -6  -4-49.1827 224.048  10
  10   6   5-66.1396 190.248   2
 -10  -6  -5 553.477 344.405  10
  10   6   6 838.414 364.410   2
 -10  -6  -6 1013.01 313.097  10
  10   6   7 674.533 285.225   2
 -10  -6  -7 1101.43 403.780  10
  10   6   8 121.715 169.027   2
 -10  -6  -8 277.077 165.863   7
 -10  -6  -8 454.711 300.522  10
 -10  -6  -9 1121.42 319.922   7
 -10  -6  -9 1680.44 461.359  10
  10   6   9 740.243 325.900   2
 -10  -6 -10 491.634 302.593  10
  10   6  10 481.605 302.390   2
 -10  -6 -11 197.603 212.842  10
  10   6  11 252.985 251.509   2
 -10  -6 -12-82.5480 241.287  10
  10   6  12 73.5670 164.396   2
  10   6  13 1077.59 326.892   2
  10   6  14 168.612 239.462   2
 -10  -7  -1-233.141 255.426  10
 -10  -7  -2 89.2062 319.202  10
  10   7   3-47.3422 245.495   2
 -10  -7  -3 296.488 197.423  10
  10   7   4 210.631 201.171   2
 -10  -7  -4-107.321 260.867  10
  10   7   5 419.612 263.257   2
 -10  -7  -5 220.125 271.105  10
  10   7   6 1540.51 424.837   2
 -10  -7  -6 1280.08 387.842  10
 -10  -7  -6 929.883 327.792   9
  10   7   7 1243.39 379.113   2
 -10  -7  -7 1667.15 436.735  10
 -10  -7  -7 1235.49 330.892   9
 -10  -7  -8 153.252 195.190   7
 -10  -7  -8 201.235 275.128  10
 -10  -7  -8 202.686 205.306   9
  10   7   8 275.532 222.463   2
 -10  -7  -9 1036.03 333.213   7
 -10  -7  -9 664.443 348.128  10
 -10  -7  -9 663.228 249.461   9
  10   7   9 662.566 275.592   2
 -10  -7 -10-34.9788 226.523  10
 -10  -7 -10 294.908 196.183   9
  10   7  10 212.048 231.147   2
 -10  -7 -11 822.876 320.130   7
 -10  -7 -11 283.879 232.848  10
 -10  -7 -11 392.653 255.921   9
  10   7  11 586.066 294.068   2
 -10  -7 -12 216.897 217.082   9
 -10  -7 -13 526.253 244.498   9
 -10  -7 -14-152.643 251.882   9
 -10  -7 -15 1355.12 408.328   9
 -10  -8  -3 387.282 258.514  10
 -10  -8  -4 761.199 345.192  10
 -10  -8  -4 266.278 226.598   9
 -10  -8  -5 837.144 338.167  10
 -10  -8  -5 1095.95 297.703   9
 -10  -8  -6 412.502 280.675  10
 -10  -8  -6 397.771 254.635   9
 -10  -8  -7 475.599 307.634  10
 -10  -8  -7 116.883 176.771   9
 -10  -8  -8 1291.87 427.874  10
 -10  -8  -8 894.706 280.050   9
 -10  -8  -9 858.983 343.738   7
 -10  -8  -9 707.776 319.197  10
 -10  -8  -9 762.431 294.681   9
 -10  -8 -10 1011.50 318.471   7
 -10  -8 -10 1187.64 346.269   9
 -10  -8 -11-106.642 174.769   7
 -10  -8 -11 30.8198 220.433   9
 -10  -8 -12 1276.95 337.410   7
 -10  -8 -12 2385.72 502.700   9
 -10  -8 -13 813.569 324.579   7
 -10  -8 -13 482.002 229.334   9
 -10  -8 -14 20.7249 221.376   9
 -10  -9  -2 481.280 294.965   9
 -10  -9  -3 553.502 247.513   9
 -10  -9  -4 361.657 234.989   9
 -10  -9  -5-168.727 225.087   9
 -10  -9  -6 846.434 302.491   9
 -10  -9  -7 416.573 262.418   9
 -10  -9  -8 576.667 299.234   9
 -10  -9  -9 405.665 271.568   7
 -10  -9  -9 83.7387 254.915   9
 -10  -9 -10-111.705 181.900   7
 -10  -9 -10 440.245 271.176   9
 -10  -9 -11 867.181 358.735   7
 -10  -9 -11 1248.14 397.647   9
 -10  -9 -12-3.68044 246.992   9
 -11   5  -1 183.641 247.454   5
 -11   5  -2 861.961 335.718   5
 -11   5  -3 467.433 255.518   5
 -11   5  -4 339.863 254.605   5
 -11   5  -5 149.630 240.137   5
  11  -4  -2 1114.16 332.696   2
  11  -4  -2 1457.51 388.668   8
  11  -4  -1 908.736 333.999   2
  11  -4  -1 1105.87 350.711   8
  11  -4   0 170.596 205.675   2
  11  -4   0 115.520 200.804   8
  11  -4   1 80.4295 206.600   8
 -11   4  -2 461.894 235.600   5
  11  -4   2 297.130 255.072   8
 -11   4  -3 368.323 254.315   5
  11  -4   3 281.282 266.263   8
 -11   4  -4-342.259 216.828   5
  11  -4   4-111.142 217.296   8
 -11   4  -5 1493.78 355.450   5
  11  -4   5 1541.08 448.535   8
 -11   4  -6 1859.88 436.715   5
  11  -4   6 2314.34 523.890   8
 -11   4  -7 1060.86 365.494   5
  11  -4  10 596.834 345.352   3
 -11   3   3 1284.87 383.226  10
  11  -3  -2 2478.94 512.582   2
 -11   3   2 2221.74 492.452  10
  11  -3  -1 775.749 307.629   2
 -11   3   1 250.819 211.350  10
  11  -3   0 859.454 296.121   2
 -11   3   0 785.184 317.608  10
  11  -3   0 619.229 270.221   8
  11  -3   1 2651.47 476.531   2
 -11   3  -1 1821.21 425.082  10
  11  -3   1 2231.57 464.820   8
  11  -3   2 1327.52 336.763   2
 -11   3  -2 1053.21 335.058  10
  11  -3   2 892.103 273.952   8
 -11   3  -3-62.2908 211.987   5
 -11   3  -3-3.39917 180.873  10
  11  -3   3 335.391 255.334   8
 -11   3  -4 964.038 342.162   5
 -11   3  -4 570.745 272.949  10
  11  -3   4 241.768 181.810   8
 -11   3  -5 1349.51 368.932   5
 -11   3  -5 1119.44 298.109  10
  11  -3   5 1237.81 429.729   8
 -11   3  -6 147.119 180.627   5
  11  -3   6-184.909 176.094   8
 -11   3  -7 2137.22 447.526   5
  11  -3   7 1978.75 451.798   8
 -11   3  -8 2441.69 505.905   5
  11  -3   8 1618.83 448.703   8
  11  -3   9 838.855 314.019   3
 -11   3  -9 817.884 341.699   5
  11  -3  10 124.596 201.590   3
 -11   2   3 333.460 281.226  10
  11  -2  -2 1119.73 377.252   2
 -11   2   2 618.964 286.503  10
  11  -2  -1 78.8136 181.556   2
 -11   2   1-72.5093 186.217  10
  11  -2   0 2454.58 514.174   2
 -11   2   0 2494.94 502.935  10
  11  -2   1 1001.81 330.191   2
 -11   2  -1 577.611 212.435  10
  11  -2   2-165.603 188.754   2
 -11   2  -2-369.008 246.620  10
  11  -2   2 339.020 221.155   8
  11  -2   3 83.5081 154.197   2
 -11   2  -3 41.5903 233.493  10
  11  -2   3 207.677 205.742   8
  11  -2   4 3327.87 523.581   2
 -11   2  -4 4463.40 592.248   5
 -11   2  -4 4027.64 606.138  10
  11  -2   4 4439.17 608.070   8
  11  -2   5-114.787 192.157   2
 -11   2  -5 271.378 196.864   5
 -11   2  -5-148.933 214.682  10
  11  -2   5 362.423 208.470   8
 -11   2  -6 1063.94 348.925   5
 -11   2  -6 847.741 303.028  10
  11  -2   6 803.670 341.374   8
 -11   2  -7 1561.51 385.787   5
 -11   2  -7 991.957 292.725  10
  11  -2   7 1621.18 429.275   8
  11  -2   8 3474.73 538.945   3
 -11   2  -8 3142.95 559.456   5
 -11   2  -8 3407.43 572.978  10
  11  -2   8 3232.52 565.886   8
  11  -2   9 471.812 286.109   3
 -11   2  -9-20.5867 201.725  10
  11  -2   9 109.045 206.853   8
  11  -2  10 1875.99 453.329   3
 -11   2 -10 1328.89 386.487  10
  11  -2  10 1642.87 422.462   8
  11  -2  11 690.407 299.386   3
 -11   2 -11 809.266 371.099  10
 -11   2 -12-17.6827 187.488  10
  11  -1  -2 2066.08 471.774   2
 -11   1   2 1849.01 466.837  10
  11  -1  -1 487.450 303.571   2
 -11   1   1 89.0806 243.773  10
  11  -1   0 2252.03 458.879   2
 -11   1   0 1614.71 403.341  10
  11  -1   1 283.293 229.094   2
 -11   1  -1 63.9194 169.659  10
  11  -1   2 166.180 231.535   2
 -11   1  -2 626.505 302.008  10
  11  -1   3 1685.45 396.375   2
 -11   1  -3 1845.87 441.310  10
  11  -1   4 1700.44 379.844   2
 -11   1  -4 2159.47 466.321  10
  11  -1   4 1430.06 337.500   8
  11  -1   5 574.771 253.211   2
 -11   1  -5 720.892 287.587   5
 -11   1  -5 535.114 288.901  10
  11  -1   5 664.049 263.738   8
  11  -1   6 300.785 221.983   2
 -11   1  -6-183.907 211.517   5
 -11   1  -6-9.46467 206.895  10
  11  -1   6-43.6323 171.422   8
  11  -1   7 879.572 265.236   3
 -11   1  -7 505.313 250.482   5
 -11   1  -7 349.613 249.646  10
  11  -1   7 1023.51 331.300   8
  11  -1   8 51.8058 182.676   3
 -11   1  -8 361.507 259.741  10
  11  -1   8-6.44230 228.048   8
  11  -1   9 1462.78 377.865   3
 -11   1  -9 1905.01 461.579  10
  11  -1   9 1589.24 465.957   8
  11  -1  10 2485.85 478.428   3
 -11   1 -10 2430.93 511.504  10
  11  -1  10 2407.75 516.422   8
 -11   1 -11 117.415 182.092  10
  11  -1  11 6.31998 190.467   8
 -11   1 -12 967.063 375.424  10
 -11   0   2 111.482 188.397  10
  11   0  -1 1274.26 392.592   2
 -11   0   1 748.833 339.284  10
  11   0   0 1662.65 396.263   2
 -11   0   0 1052.94 361.167  10
  11   0   1 1889.79 427.497   2
 -11   0  -1 1523.62 413.503  10
  11   0   2 1662.99 391.054   2
 -11   0  -2 1927.33 450.500  10
  11   0   3 2694.31 501.749   2
 -11   0  -3 2213.60 483.891  10
  11   0   4 1468.22 373.678   2
 -11   0  -4 1273.89 428.717  10
  11   0   5-392.573 237.266   2
 -11   0  -5-155.300 191.133  10
  11   0   6 1250.15 356.357   2
  11   0   6 1005.40 320.111   3
 -11   0  -6 1195.86 280.769   5
 -11   0  -6 1244.14 402.822  10
  11   0   6 1612.17 372.753   8
  11   0   7 336.996 224.478   2
  11   0   7 976.353 304.840   3
 -11   0  -7 301.392 305.473  10
  11   0   7 97.8803 160.070   8
  11   0   8-418.726 252.455   2
  11   0   8-55.7714 180.191   3
 -11   0  -8-62.8662 262.799  10
  11   0   8 126.053 197.220   8
  11   0   9 473.481 237.828   3
 -11   0  -9 628.894 300.448  10
  11   0   9 670.994 310.801   8
  11   0  10 121.559 213.290   3
 -11   0 -10 831.914 354.756  10
  11   0  10 279.006 198.113   8
  11   0  11 167.160 186.746   3
 -11   0 -11 750.008 341.889  10
  11   0  12 747.644 390.278   3
 -11   0 -12 1090.87 426.300  10
  11   1  -1 36.5980 203.508   2
 -11  -1   1-301.664 208.888  10
  11   1   0 1031.27 371.223   2
 -11  -1   0 478.171 303.072  10
  11   1   1 196.738 210.385   2
 -11  -1  -1 83.7853 197.728  10
  11   1   2 2090.40 451.162   2
 -11  -1  -2 2545.07 526.884  10
  11   1   3 581.166 248.310   2
 -11  -1  -3 1250.93 387.021  10
  11   1   4 144.716 156.393   2
 -11  -1  -4-284.038 301.608  10
  11   1   5 541.355 289.379   2
  11   1   5 286.188 187.535   3
 -11  -1  -5 538.891 326.252  10
  11   1   6 2580.46 461.035   2
  11   1   6 2360.02 435.269   3
 -11  -1  -6 2781.10 557.438  10
  11   1   7 590.120 244.773   2
  11   1   7 948.330 306.906   3
 -11  -1  -7 633.882 310.539  10
  11   1   8-23.1139 209.589   2
  11   1   8-282.625 221.405   3
 -11  -1  -8 229.846 218.710  10
  11   1   9-181.590 162.703   2
  11   1   9 354.163 228.914   3
 -11  -1  -9 385.034 285.416  10
  11   1  10 761.047 277.967   2
  11   1  10 13.8743 244.224   3
 -11  -1 -10 143.389 273.785  10
  11   1  11 1008.47 344.245   3
 -11  -1 -11 585.994 362.478  10
  11   1  12 299.865 237.709   3
 -11  -1 -12 82.3456 200.259  10
  11   2   0 676.034 289.175   2
 -11  -2   0 282.744 215.795  10
  11   2   1 320.436 252.702   2
 -11  -2  -1-60.1859 249.696  10
  11   2   2 2199.26 459.058   2
 -11  -2  -2 1999.07 493.807  10
  11   2   3 338.012 226.039   2
 -11  -2  -3 63.4957 209.659  10
  11   2   4 462.557 276.051   2
 -11  -2  -4 900.423 378.938  10
  11   2   5 259.132 225.244   2
 -11  -2  -5 562.068 320.740  10
  11   2   6 1638.26 420.068   2
 -11  -2  -6 1522.06 409.010  10
  11   2   7 593.408 290.494   2
  11   2   7 923.719 318.896   3
 -11  -2  -7 109.111 202.465  10
  11   2   8 46.1438 201.052   2
  11   2   8-27.5562 207.715   3
 -11  -2  -8-111.367 221.366  10
  11   2   9 82.2870 159.776   2
  11   2   9 238.772 249.748   3
 -11  -2  -9 8.38528 207.756  10
  11   2  10 461.877 284.043   2
  11   2  10 439.707 259.848   3
 -11  -2 -10 492.636 302.245  10
  11   2  11 1025.56 360.241   3
 -11  -2 -11 981.347 342.900  10
  11   2  12 2108.28 455.240   3
  11   2  12 1725.50 407.775   2
  11   3   1 1310.72 391.052   2
 -11  -3  -1 1817.25 468.746  10
  11   3   2 1802.79 438.148   2
 -11  -3  -2 2370.10 560.821  10
  11   3   3-91.1356 209.056   2
 -11  -3  -3 414.156 284.082  10
  11   3   4 2234.58 502.809   2
 -11  -3  -4 1303.70 405.657  10
  11   3   5 1680.78 405.605   2
 -11  -3  -5 1448.22 420.800  10
  11   3   6 249.426 269.920   2
 -11  -3  -6 220.976 222.702  10
  11   3   7 988.620 337.634   2
 -11  -3  -7 86.0229 255.479  10
  11   3   8 348.451 241.187   2
 -11  -3  -8-9.82391 211.478  10
  11   3   9-231.435 225.905   2
 -11  -3  -9-16.0464 202.994  10
  11   3  10 1097.62 333.792   3
 -11  -3 -10 945.661 400.394  10
  11   3  10 825.139 288.400   2
 -11  -3 -11 532.354 309.569  10
  11   3  11 1038.32 331.110   2
  11   3  12 661.088 298.507   3
  11   3  12 599.768 301.181   2
  11   3  13 211.302 194.746   2
  11   4   2 525.747 242.433   2
 -11  -4  -2 235.490 257.212  10
  11   4   3 643.347 293.860   2
 -11  -4  -3 309.046 310.395  10
 -11  -4  -4 5327.40 780.567  10
  11   4   4 5414.25 719.319   2
  11   4   5 135.669 188.841   2
 -11  -4  -5 218.426 217.075  10
  11   4   6 350.192 250.493   2
 -11  -4  -6 281.349 289.675  10
  11   4   7 306.717 202.152   2
 -11  -4  -7-141.197 207.489  10
  11   4   8 3127.81 583.729   2
 -11  -4  -8 2870.85 582.709  10
  11   4   9 1251.93 368.134   2
 -11  -4  -9 1048.19 392.682  10
 -11  -4 -10-92.8099 228.561  10
  11   4  10-36.1423 173.999   2
  11   4  11 636.507 337.097   2
  11   4  12 280.100 240.464   2
  11   4  13 1815.29 458.167   2
  11   4  14 191.261 237.662   2
  11   5   4 3855.06 618.550   2
  11   5   5 339.079 297.045   2
 -11  -5  -5-71.1433 205.090  10
  11   5   6 321.225 240.448   2
 -11  -5  -6 133.968 226.467  10
  11   5   7 3389.17 592.121   2
 -11  -5  -7 2618.57 539.414  10
  11   5   8-372.008 287.582   2
 -11  -5  -8 152.333 244.322  10
  11   5   9 241.781 223.226   2
  11   5  10 2203.86 496.758   2
  11   5  11 1034.58 361.795   2
  11   5  12 1045.26 354.970   2
 -12   3  -6 535.927 332.097   5
  12  -2   2 833.763 312.873   2
  12  -2   3 497.234 260.071   2
 -12   2  -3 516.363 201.335  10
 -12   2  -4-95.0699 220.010  10
 -12   2  -5 284.350 254.053  10
 -12   2  -6 1513.04 442.331  10
  12  -2   6 1315.31 404.540   8
 -12   2  -7 3236.34 578.331   5
 -12   2  -7 3038.11 602.746  10
  12  -2   7 2673.79 526.481   8
 -12   2  -8 124.839 205.531   5
  12  -1   2 1833.64 445.827   2
  12  -1   3 360.884 221.328   2
  12  -1   4 89.0247 183.762   2
 -12   1  -4 8.45610 218.137  10
  12  -1   5 97.8538 162.292   2
 -12   1  -5 117.012 204.463  10
 -12   1  -6 1102.67 364.490  10
 -12   1  -7 807.582 341.445  10
 -12   1  -8 2122.66 467.894   5
  12  -1   8 925.130 318.254   8
 -12   1  -9 3390.11 589.947   5
  12  -1   9 3508.85 580.423   8
  12  -1  10 810.099 358.248   3
  12   0   3 16.6289 193.166   2
  12   0   4-89.5972 238.682   2
  12   0   5-20.5137 215.368   2
  12   0   6-36.4477 227.059   2
  12   0   7 173.460 225.918   2
  12   0   9 2003.43 468.371   3
  12   0  10 545.075 244.839   3
  12   1   4 27.5702 216.115   2
  12   1   5 1396.07 408.324   2
  12   1   6 185.943 257.484   2
  12   1   7 480.426 297.753   2
  12   1   8 528.640 249.613   2
  12   1   8 484.361 255.342   3
  12   1   9 34.0976 190.481   2
  12   1   9 333.475 226.032   3
  12   1  10 785.765 332.568   3
  12   2   5 1616.93 405.870   2
  12   2   6-171.290 227.343   2
  12   2   7-97.9031 182.656   2
  12   2   7 203.373 253.655   3
  12   2   8-129.450 187.354   2
  12   2   8 99.3459 202.924   3
  12   2   9-158.668 258.331   2
  12   2   9 66.5248 169.798   3
  12   2  10 9.39728 211.058   2
  12   2  10-39.1590 193.548   3
  12   3   8-7.87013 193.240   2
  12   3   9 610.905 308.211   2
  12   3   9 668.773 309.636   3
  12   3  10 242.726 219.047   2
  12   3  11 3306.79 593.074   2
   0   0   0    0.00    0.00   0

TITL MnMolsp_DMAD in P-1
REM P-1 (#2 in standard setting)
CELL 0.71073   9.201451  10.715706  15.658897  76.7784  74.2068  84.6757
ZERR    6.00   0.000748   0.000818   0.001203   0.0066   0.0070   0.0065
LATT  1
SFAC C H N O
UNIT 66.00 60.00 6.00 6.00
TREF
HKLF 4
END
;
_shelx_hkl_checksum              80742
loop_
_space_group_symop_operation_xyz
'x, y, z'
'-x, -y, -z'
loop_
_atom_site_label
_atom_site_type_symbol
_atom_site_fract_x
_atom_site_fract_y
_atom_site_fract_z
_atom_site_U_iso_or_equiv
_atom_site_adp_type
_atom_site_occupancy
_atom_site_site_symmetry_order
_atom_site_calc_flag
_atom_site_refinement_flags_posn
_atom_site_refinement_flags_adp
Mn1 Mn 0.90366(4) 0.41782(3) 0.34514(2) 0.01814(10) Uani 1 1 d . .
O1 O 1.50457(16) 0.27589(14) 0.17168(11) 0.0238(4) Uani 1 1 d . .
O9 O 1.46063(18) 0.22130(17) 0.05108(12) 0.0322(4) Uani 1 1 d . .
O12 O 1.0441(2) 0.14161(15) 0.04229(12) 0.0334(4) Uani 1 1 d . .
O13 O 0.71855(18) 0.53284(15) 0.49494(12) 0.0310(4) Uani 1 1 d . .
O15 O 1.21526(19) 0.02621(15) 0.10797(12) 0.0328(4) Uani 1 1 d . .
O27 O 1.0372(2) 0.28875(19) 0.49492(13) 0.0405(5) Uani 1 1 d . .
O50 O 1.1060(2) 0.63172(18) 0.31382(15) 0.0516(6) Uani 1 1 d . .
N4 N 1.04763(19) 0.33161(16) 0.24993(12) 0.0163(4) Uani 1 1 d . .
N5 N 0.80340(19) 0.50459(16) 0.24224(13) 0.0179(4) Uani 1 1 d . .
N6 N 0.75676(19) 0.27362(16) 0.36792(12) 0.0166(4) Uani 1 1 d . .
N17 N 1.19798(19) 0.33636(16) 0.23138(12) 0.0166(4) Uani 1 1 d . .
N21 N 1.00283(19) 0.26165(16) 0.20172(12) 0.0177(4) Uani 1 1 d . .
N22 N 0.60947(19) 0.30137(16) 0.36298(12) 0.0159(4) Uani 1 1 d . .
N26 N 0.64994(19) 0.50200(16) 0.25521(13) 0.0171(4) Uani 1 1 d . .
C16 C 0.7839(2) 0.4902(2) 0.43332(17) 0.0215(5) Uani 1 1 d . .
C31 C 0.5572(2) 0.43380(19) 0.34018(15) 0.0179(5) Uani 1 1 d . .
H31A H 0.4515 0.4359 0.3360 0.021 Uiso 1 1 calc R U
H31B H 0.5587 0.4775 0.3892 0.021 Uiso 1 1 calc R U
C32 C 1.0308(3) 0.5481(2) 0.32280(17) 0.0287(6) Uani 1 1 d . .
C33 C 0.6300(3) 0.0928(2) 0.39906(16) 0.0211(5) Uani 1 1 d . .
H33 H 0.6091 0.0041 0.4140 0.025 Uiso 1 1 calc R U
C34 C 1.4148(2) 0.2508(2) 0.12353(16) 0.0201(5) Uani 1 1 d . .
C38 C 0.3663(3) 0.1920(2) 0.39156(17) 0.0260(6) Uani 1 1 d . .
H38A H 0.3099 0.2133 0.4494 0.039 Uiso 1 1 calc R U
H38B H 0.3393 0.1066 0.3894 0.039 Uiso 1 1 calc R U
H38C H 0.3412 0.2555 0.3414 0.039 Uiso 1 1 calc R U
C39 C 0.9892(3) 0.3351(2) 0.43412(17) 0.0259(6) Uani 1 1 d . .
C41 C 1.1238(2) 0.1273(2) 0.09284(16) 0.0190(5) Uani 1 1 d . .
C43 C 0.7678(2) 0.1457(2) 0.38912(15) 0.0201(5) Uani 1 1 d . .
C44 C 0.5308(2) 0.1926(2) 0.38321(15) 0.0187(5) Uani 1 1 d . .
C46 C 1.1303(2) 0.21770(19) 0.15038(15) 0.0158(5) Uani 1 1 d . .
C47 C 1.2526(2) 0.26445(19) 0.16834(15) 0.0160(5) Uani 1 1 d . .
C57 C 0.7358(3) 0.6107(2) 0.11745(17) 0.0237(5) Uani 1 1 d . .
H57 H 0.7430 0.6597 0.0577 0.028 Uiso 1 1 calc R U
C58 C 0.4456(2) 0.5882(2) 0.17734(18) 0.0267(6) Uani 1 1 d . .
H58A H 0.3956 0.5058 0.1969 0.040 Uiso 1 1 calc R U
H58B H 0.4412 0.6274 0.1150 0.040 Uiso 1 1 calc R U
H58C H 0.3941 0.6453 0.2178 0.040 Uiso 1 1 calc R U
C59 C 0.6061(2) 0.56721(19) 0.18080(16) 0.0202(5) Uani 1 1 d . .
C60 C 0.9101(3) 0.0725(2) 0.40130(19) 0.0317(6) Uani 1 1 d . .
H60A H 0.9974 0.1168 0.3577 0.048 Uiso 1 1 calc R U
H60B H 0.9080 -0.0141 0.3909 0.048 Uiso 1 1 calc R U
H60C H 0.9181 0.0667 0.4632 0.048 Uiso 1 1 calc R U
C62 C 1.0193(3) 0.5909(2) 0.11143(18) 0.0315(6) Uani 1 1 d . .
H62A H 1.0678 0.6156 0.1533 0.047 Uiso 1 1 calc R U
H62B H 1.0297 0.6594 0.0568 0.047 Uiso 1 1 calc R U
H62C H 1.0678 0.5116 0.0945 0.047 Uiso 1 1 calc R U
C65 C 0.8551(3) 0.56973(19) 0.15676(16) 0.0217(5) Uani 1 1 d . .
C67 C 1.6654(2) 0.2665(2) 0.13003(19) 0.0296(6) Uani 1 1 d . .
H67A H 1.6909 0.1824 0.1141 0.044 Uiso 1 1 calc R U
H67B H 1.7216 0.2766 0.1728 0.044 Uiso 1 1 calc R U
H67C H 1.6923 0.3341 0.0750 0.044 Uiso 1 1 calc R U
C76 C 1.2293(4) -0.0670(3) 0.0522(2) 0.0463(8) Uani 1 1 d . .
H76A H 1.1284 -0.0883 0.0513 0.069 Uiso 1 1 calc R U
H76B H 1.2817 -0.1448 0.0773 0.069 Uiso 1 1 calc R U
H76C H 1.2871 -0.0311 -0.0098 0.069 Uiso 1 1 calc R U
C54 C 0.5318(4) 0.9152(2) 0.2251(2) 0.0430(8) Uani 1 1 d . .
H54 H 0.5463 0.9690 0.1663 0.052 Uiso 1 1 calc R U
C66 C 0.4869(4) 0.7583(2) 0.39421(19) 0.0408(7) Uani 1 1 d . .
H66 H 0.4719 0.7033 0.4526 0.049 Uiso 1 1 calc R U
C70 C 0.6572(3) 0.8651(2) 0.25664(19) 0.0365(7) Uani 1 1 d . .
C72 C 0.3867(4) 0.8881(3) 0.2775(2) 0.0463(8) Uani 1 1 d . .
H72 H 0.3025 0.9237 0.2550 0.056 Uiso 1 1 calc R U
C73 C 0.6315(3) 0.7858(2) 0.34228(19) 0.0377(7) Uani 1 1 d . .
H73 H 0.7149 0.7500 0.3655 0.045 Uiso 1 1 calc R U
C75 C 0.8151(4) 0.8984(3) 0.2013(2) 0.0560(9) Uani 1 1 d . .
H75A H 0.8341 0.9865 0.2022 0.084 Uiso 1 1 calc R U
H75B H 0.8265 0.8911 0.1385 0.084 Uiso 1 1 calc R U
H75C H 0.8876 0.8394 0.2271 0.084 Uiso 1 1 calc R U
C79 C 0.3644(4) 0.8091(3) 0.3629(2) 0.0446(8) Uani 1 1 d . .
H79 H 0.2649 0.7902 0.3995 0.054 Uiso 1 1 calc R U
loop_
_atom_site_aniso_label
_atom_site_aniso_U_11
_atom_site_aniso_U_22
_atom_site_aniso_U_33
_atom_site_aniso_U_23
_atom_site_aniso_U_13
_atom_site_aniso_U_12
Mn1 0.01093(17) 0.02361(19) 0.0211(2) -0.01119(15) -0.00050(14) -0.00125(13)
O1 0.0093(8) 0.0362(9) 0.0294(10) -0.0173(8) -0.0029(7) 0.0013(7)
O9 0.0175(9) 0.0552(11) 0.0264(10) -0.0210(9) -0.0009(8) 0.0024(8)
O12 0.0455(11) 0.0301(9) 0.0348(11) -0.0112(8) -0.0240(10) 0.0000(8)
O13 0.0254(9) 0.0367(9) 0.0304(10) -0.0198(8) 0.0044(8) -0.0013(8)
O15 0.0347(10) 0.0298(9) 0.0438(11) -0.0241(8) -0.0177(9) 0.0126(8)
O27 0.0272(10) 0.0702(13) 0.0288(11) -0.0165(10) -0.0125(9) 0.0065(9)
O50 0.0349(11) 0.0594(12) 0.0636(15) -0.0380(11) 0.0118(11) -0.0284(10)
N4 0.0099(9) 0.0206(9) 0.0198(10) -0.0074(8) -0.0034(8) -0.0006(7)
N5 0.0094(9) 0.0165(9) 0.0239(11) -0.0042(8) 0.0018(8) 0.0003(7)
N6 0.0116(9) 0.0216(9) 0.0174(10) -0.0075(8) -0.0030(8) 0.0005(7)
N17 0.0104(9) 0.0201(9) 0.0200(10) -0.0066(8) -0.0037(8) 0.0010(7)
N21 0.0136(9) 0.0214(9) 0.0194(10) -0.0074(8) -0.0041(8) 0.0000(7)
N22 0.0120(9) 0.0173(9) 0.0173(10) -0.0027(8) -0.0029(8) -0.0002(7)
N26 0.0117(9) 0.0162(9) 0.0210(10) -0.0049(8) 0.0002(8) 0.0007(7)
C16 0.0141(11) 0.0222(11) 0.0272(14) -0.0048(10) -0.0024(11) -0.0061(9)
C31 0.0125(11) 0.0175(10) 0.0214(12) -0.0043(9) -0.0008(10) 0.0010(9)
C32 0.0172(12) 0.0414(14) 0.0290(15) -0.0233(12) 0.0054(11) -0.0037(11)
C33 0.0239(12) 0.0173(11) 0.0216(13) -0.0036(10) -0.0049(10) -0.0027(9)
C34 0.0168(12) 0.0196(11) 0.0231(13) -0.0064(10) -0.0034(10) 0.0025(9)
C38 0.0192(12) 0.0298(13) 0.0286(14) -0.0012(11) -0.0072(11) -0.0086(10)
C39 0.0122(12) 0.0411(14) 0.0268(14) -0.0181(12) -0.0004(11) 0.0000(10)
C41 0.0161(11) 0.0211(11) 0.0180(12) -0.0039(10) -0.0004(10) -0.0036(9)
C43 0.0201(12) 0.0201(11) 0.0171(12) -0.0023(9) -0.0019(10) 0.0021(9)
C44 0.0195(12) 0.0219(11) 0.0136(11) -0.0031(9) -0.0015(10) -0.0051(9)
C46 0.0142(11) 0.0169(10) 0.0160(12) -0.0044(9) -0.0032(9) 0.0012(9)
C47 0.0140(11) 0.0165(10) 0.0181(12) -0.0052(9) -0.0044(9) 0.0014(9)
C57 0.0226(13) 0.0200(11) 0.0234(13) 0.0010(10) -0.0018(11) -0.0017(10)
C58 0.0205(12) 0.0246(12) 0.0329(15) -0.0013(11) -0.0076(11) -0.0006(10)
C59 0.0198(12) 0.0141(10) 0.0257(13) -0.0031(10) -0.0056(11) 0.0002(9)
C60 0.0253(13) 0.0272(13) 0.0388(16) 0.0002(12) -0.0101(12) 0.0061(11)
C62 0.0190(13) 0.0323(13) 0.0336(15) 0.0025(12) 0.0024(12) -0.0038(10)
C65 0.0189(12) 0.0156(11) 0.0247(13) -0.0010(10) 0.0018(10) -0.0012(9)
C67 0.0087(11) 0.0400(14) 0.0443(17) -0.0220(13) -0.0037(11) 0.0012(10)
C76 0.058(2) 0.0376(15) 0.053(2) -0.0333(15) -0.0148(17) 0.0113(14)
C54 0.061(2) 0.0318(15) 0.0279(16) 0.0025(12) -0.0025(15) -0.0076(14)
C66 0.066(2) 0.0294(14) 0.0263(15) -0.0062(12) -0.0073(16) -0.0126(14)
C70 0.0487(18) 0.0207(12) 0.0359(16) -0.0091(12) -0.0012(14) -0.0026(12)
C72 0.053(2) 0.0400(16) 0.048(2) -0.0113(15) -0.0146(17) -0.0014(14)
C73 0.0576(19) 0.0213(13) 0.0348(16) -0.0074(12) -0.0108(15) -0.0034(12)
C75 0.054(2) 0.0459(18) 0.055(2) -0.0070(16) 0.0048(18) -0.0044(15)
C79 0.0516(19) 0.0447(17) 0.0350(18) -0.0172(14) 0.0053(15) -0.0171(15)
loop_
_atom_type_symbol
_atom_type_description
_atom_type_scat_dispersion_real
_atom_type_scat_dispersion_imag
_atom_type_scat_source
C C 0.0033 0.0016 'International Tables Vol C Tables 4.2.6.8 and 6.1.1.4'
H H 0.0000 0.0000 'International Tables Vol C Tables 4.2.6.8 and 6.1.1.4'
Mn Mn 0.3368 0.7283 'International Tables Vol C Tables 4.2.6.8 and 6.1.1.4'
N N 0.0061 0.0033 'International Tables Vol C Tables 4.2.6.8 and 6.1.1.4'
O O 0.0106 0.0060 'International Tables Vol C Tables 4.2.6.8 and 6.1.1.4'
loop_
_geom_angle_atom_site_label_1
_geom_angle_atom_site_label_2
_geom_angle_atom_site_label_3
_geom_angle
C16 Mn1 C39 83.57(10)
C16 Mn1 C32 86.90(10)
C39 Mn1 C32 88.49(12)
C16 Mn1 N4 176.65(10)
C39 Mn1 N4 93.16(9)
C32 Mn1 N4 92.32(9)
C16 Mn1 N6 93.05(8)
C39 Mn1 N6 93.10(9)
C32 Mn1 N6 178.39(10)
N4 Mn1 N6 87.82(7)
C16 Mn1 N5 97.81(9)
C39 Mn1 N5 177.37(9)
C32 Mn1 N5 93.82(10)
N4 Mn1 N5 85.49(7)
N6 Mn1 N5 84.60(7)
C34 O1 C67 115.34(18)
C41 O15 C76 116.7(2)
N21 N4 N17 112.98(16)
N21 N4 Mn1 124.02(13)
N17 N4 Mn1 122.97(14)
C65 N5 N26 104.94(18)
C65 N5 Mn1 134.29(15)
N26 N5 Mn1 120.76(13)
C43 N6 N22 104.90(17)
C43 N6 Mn1 134.29(15)
N22 N6 Mn1 120.81(12)
N4 N17 C47 105.24(18)
N4 N21 C46 105.56(17)
C44 N22 N6 111.17(16)
C44 N22 C31 128.79(18)
N6 N22 C31 120.02(17)
C59 N26 N5 111.71(17)
C59 N26 C31 128.25(18)
N5 N26 C31 120.04(18)
O13 C16 Mn1 172.8(2)
N26 C31 N22 111.88(16)
N26 C31 H31A 109.2
N22 C31 H31A 109.2
N26 C31 H31B 109.2
N22 C31 H31B 109.2
H31A C31 H31B 107.9
O50 C32 Mn1 175.8(2)
C44 C33 C43 106.91(19)
C44 C33 H33 126.5
C43 C33 H33 126.5
O9 C34 O1 123.9(2)
O9 C34 C47 123.1(2)
O1 C34 C47 112.91(19)
C44 C38 H38A 109.5
C44 C38 H38B 109.5
H38A C38 H38B 109.5
C44 C38 H38C 109.5
H38A C38 H38C 109.5
H38B C38 H38C 109.5
O27 C39 Mn1 174.7(2)
O12 C41 O15 125.0(2)
O12 C41 C46 124.8(2)
O15 C41 C46 110.1(2)
N6 C43 C33 110.55(19)
N6 C43 C60 123.4(2)
C33 C43 C60 126.0(2)
N22 C44 C33 106.44(19)
N22 C44 C38 123.66(19)
C33 C44 C38 129.8(2)
N21 C46 C47 108.23(18)
N21 C46 C41 120.48(19)
C47 C46 C41 131.13(19)
N17 C47 C46 107.99(18)
N17 C47 C34 123.6(2)
C46 C47 C34 128.3(2)
C59 C57 C65 107.2(2)
C59 C57 H57 126.4
C65 C57 H57 126.4
C59 C58 H58A 109.5
C59 C58 H58B 109.5
H58A C58 H58B 109.5
C59 C58 H58C 109.5
H58A C58 H58C 109.5
H58B C58 H58C 109.5
N26 C59 C57 105.9(2)
N26 C59 C58 123.7(2)
C57 C59 C58 130.4(2)
C43 C60 H60A 109.5
C43 C60 H60B 109.5
H60A C60 H60B 109.5
C43 C60 H60C 109.5
H60A C60 H60C 109.5
H60B C60 H60C 109.5
C65 C62 H62A 109.5
C65 C62 H62B 109.5
H62A C62 H62B 109.5
C65 C62 H62C 109.5
H62A C62 H62C 109.5
H62B C62 H62C 109.5
N5 C65 C57 110.2(2)
N5 C65 C62 123.6(2)
C57 C65 C62 126.1(2)
O1 C67 H67A 109.5
O1 C67 H67B 109.5
H67A C67 H67B 109.5
O1 C67 H67C 109.5
H67A C67 H67C 109.5
H67B C67 H67C 109.5
O15 C76 H76A 109.5
O15 C76 H76B 109.5
H76A C76 H76B 109.5
O15 C76 H76C 109.5
H76A C76 H76C 109.5
H76B C76 H76C 109.5
C72 C54 C70 121.3(3)
C72 C54 H54 119.3
C70 C54 H54 119.3
C79 C66 C73 120.9(3)
C79 C66 H66 119.5
C73 C66 H66 119.5
C73 C70 C54 117.7(3)
C73 C70 C75 120.8(3)
C54 C70 C75 121.5(3)
C54 C72 C79 119.8(3)
C54 C72 H72 120.1
C79 C72 H72 120.1
C66 C73 C70 121.0(3)
C66 C73 H73 119.5
C70 C73 H73 119.5
C70 C75 H75A 109.5
C70 C75 H75B 109.5
H75A C75 H75B 109.5
C70 C75 H75C 109.5
H75A C75 H75C 109.5
H75B C75 H75C 109.5
C66 C79 C72 119.4(3)
C66 C79 H79 120.3
C72 C79 H79 120.3
loop_
_geom_bond_atom_site_label_1
_geom_bond_atom_site_label_2
_geom_bond_distance
Mn1 C16 1.796(2)
Mn1 C39 1.802(3)
Mn1 C32 1.816(3)
Mn1 N4 2.0394(17)
Mn1 N6 2.0530(18)
Mn1 N5 2.0679(19)
O1 C34 1.340(3)
O1 C67 1.450(2)
O9 C34 1.201(3)
O12 C41 1.195(3)
O13 C16 1.156(3)
O15 C41 1.326(3)
O15 C76 1.446(3)
O27 C39 1.149(3)
O50 C32 1.143(3)
N4 N21 1.337(2)
N4 N17 1.337(2)
N5 C65 1.339(3)
N5 N26 1.373(2)
N6 C43 1.336(3)
N6 N22 1.380(2)
N17 C47 1.352(3)
N21 C46 1.342(3)
N22 C44 1.358(3)
N22 C31 1.452(3)
N26 C59 1.357(3)
N26 C31 1.444(3)
C31 H31A 0.9900
C31 H31B 0.9900
C33 C44 1.363(3)
C33 C43 1.392(3)
C33 H33 0.9500
C34 C47 1.476(3)
C38 C44 1.484(3)
C38 H38A 0.9800
C38 H38B 0.9800
C38 H38C 0.9800
C41 C46 1.481(3)
C43 C60 1.498(3)
C46 C47 1.392(3)
C57 C59 1.369(3)
C57 C65 1.390(3)
C57 H57 0.9500
C58 C59 1.487(3)
C58 H58A 0.9800
C58 H58B 0.9800
C58 H58C 0.9800
C60 H60A 0.9800
C60 H60B 0.9800
C60 H60C 0.9800
C62 C65 1.498(3)
C62 H62A 0.9800
C62 H62B 0.9800
C62 H62C 0.9800
C67 H67A 0.9800
C67 H67B 0.9800
C67 H67C 0.9800
C76 H76A 0.9800
C76 H76B 0.9800
C76 H76C 0.9800
C54 C72 1.381(4)
C54 C70 1.392(4)
C54 H54 0.9500
C66 C79 1.368(4)
C66 C73 1.376(4)
C66 H66 0.9500
C70 C73 1.385(4)
C70 C75 1.503(4)
C72 C79 1.383(4)
C72 H72 0.9500
C73 H73 0.9500
C75 H75A 0.9800
C75 H75B 0.9800
C75 H75C 0.9800
C79 H79 0.9500
loop_
_geom_torsion_atom_site_label_1
_geom_torsion_atom_site_label_2
_geom_torsion_atom_site_label_3
_geom_torsion_atom_site_label_4
_geom_torsion
N21 N4 N17 C47 -0.6(2)
Mn1 N4 N17 C47 177.52(13)
N17 N4 N21 C46 0.8(2)
Mn1 N4 N21 C46 -177.26(13)
C43 N6 N22 C44 1.6(2)
Mn1 N6 N22 C44 -177.99(14)
C43 N6 N22 C31 -179.48(19)
Mn1 N6 N22 C31 0.9(2)
C65 N5 N26 C59 -1.9(2)
Mn1 N5 N26 C59 178.20(13)
C65 N5 N26 C31 177.44(18)
Mn1 N5 N26 C31 -2.5(2)
C59 N26 C31 N22 124.8(2)
N5 N26 C31 N22 -54.4(3)
C44 N22 C31 N26 -125.8(2)
N6 N22 C31 N26 55.5(3)
C67 O1 C34 O9 0.6(3)
C67 O1 C34 C47 -178.81(18)
C76 O15 C41 O12 6.2(3)
C76 O15 C41 C46 -175.9(2)
N22 N6 C43 C33 -1.0(2)
Mn1 N6 C43 C33 178.56(16)
N22 N6 C43 C60 179.8(2)
Mn1 N6 C43 C60 -0.6(4)
C44 C33 C43 N6 0.0(3)
C44 C33 C43 C60 179.2(2)
N6 N22 C44 C33 -1.6(2)
C31 N22 C44 C33 179.6(2)
N6 N22 C44 C38 174.4(2)
C31 N22 C44 C38 -4.4(4)
C43 C33 C44 N22 1.0(3)
C43 C33 C44 C38 -174.8(2)
N4 N21 C46 C47 -0.7(2)
N4 N21 C46 C41 175.20(18)
O12 C41 C46 N21 48.8(3)
O15 C41 C46 N21 -129.0(2)
O12 C41 C46 C47 -136.3(3)
O15 C41 C46 C47 45.8(3)
N4 N17 C47 C46 0.1(2)
N4 N17 C47 C34 175.53(19)
N21 C46 C47 N17 0.4(2)
C41 C46 C47 N17 -174.9(2)
N21 C46 C47 C34 -174.8(2)
C41 C46 C47 C34 9.9(4)
O9 C34 C47 N17 -156.9(2)
O1 C34 C47 N17 22.5(3)
O9 C34 C47 C46 17.5(4)
O1 C34 C47 C46 -163.1(2)
N5 N26 C59 C57 1.3(2)
C31 N26 C59 C57 -177.95(19)
N5 N26 C59 C58 -175.67(19)
C31 N26 C59 C58 5.1(3)
C65 C57 C59 N26 -0.2(2)
C65 C57 C59 C58 176.5(2)
N26 N5 C65 C57 1.7(2)
Mn1 N5 C65 C57 -178.38(15)
N26 N5 C65 C62 -177.0(2)
Mn1 N5 C65 C62 3.0(3)
C59 C57 C65 N5 -1.0(3)
C59 C57 C65 C62 177.6(2)
C72 C54 C70 C73 0.7(4)
C72 C54 C70 C75 -177.5(3)
C70 C54 C72 C79 -0.5(4)
C79 C66 C73 C70 -0.4(4)
C54 C70 C73 C66 -0.2(4)
C75 C70 C73 C66 178.0(3)
C73 C66 C79 C72 0.6(4)
C54 C72 C79 C66 -0.2(4)
