#------------------------------------------------------------------------------
#$Date: 2019-11-26 05:52:13 +0200 (Tue, 26 Nov 2019) $
#$Revision: 242756 $
#$URL: file:///home/coder/svn-repositories/cod/cif/4/13/28/4132883.cif $
#------------------------------------------------------------------------------
#
# This file is available in the Crystallography Open Database (COD),
# http://www.crystallography.net/
#
# All data on this site have been placed in the public domain by the
# contributors.
#
data_4132883
loop_
_publ_author_name
'Andreo, Jacopo'
'Priola, Emanuele'
'Alberto, Gabriele'
'Benzi, Paola'
'Marabello, Domenica'
'Proserpio, Davide M.'
'Lamberti, Carlo'
'Diana, Eliano'
_publ_section_title
;
 Autoluminescent Metal-Organic Frameworks (MOFs): Self-Photoemission of a
 Highly Stable Thorium MOF.
;
_journal_issue                   43
_journal_name_full               'Journal of the American Chemical Society'
_journal_page_first              14144
_journal_page_last               14149
_journal_paper_doi               10.1021/jacs.8b07113
_journal_volume                  140
_journal_year                    2018
_chemical_formula_moiety         'C24 H12 O8 Th'
_chemical_formula_sum            'C24 H12 O8 Th'
_chemical_formula_weight         660.38
_space_group_crystal_system      monoclinic
_space_group_IT_number           15
_space_group_name_Hall           '-C 2yc'
_space_group_name_H-M_alt        'C 1 2/c 1'
_atom_sites_solution_hydrogens   geom
_atom_sites_solution_primary     dual
_audit_creation_date             2017-09-18
_audit_creation_method
;
Olex2 1.2
(compiled 2017.08.10 svn.r3458 for OlexSys, GUI svn.r5381)
;
_cell_angle_alpha                90
_cell_angle_beta                 108.913(3)
_cell_angle_gamma                90
_cell_formula_units_Z            8
_cell_length_a                   17.7914(5)
_cell_length_b                   22.1948(6)
_cell_length_c                   12.5214(3)
_cell_measurement_reflns_used    6290
_cell_measurement_temperature    293(2)
_cell_measurement_theta_max      61.8390
_cell_measurement_theta_min      4.2990
_cell_volume                     4677.5(2)
_computing_cell_refinement       'CrysAlisPro 1.171.38.43 (Rigaku OD, 2015)'
_computing_data_collection       'CrysAlisPro 1.171.38.43 (Rigaku OD, 2015)'
_computing_data_reduction        'CrysAlisPro 1.171.38.43 (Rigaku OD, 2015)'
_computing_molecular_graphics    'Olex2 (Dolomanov et al., 2009)'
_computing_publication_material  'Olex2 (Dolomanov et al., 2009)'
_computing_structure_refinement  'ShelXL (Sheldrick, 2015)'
_computing_structure_solution    'ShelXT (Sheldrick, 2015)'
_diffrn_ambient_temperature      293(2)
_diffrn_detector                 'CCD plate'
_diffrn_detector_area_resol_mean 10.2890
_diffrn_detector_type            Ruby
_diffrn_measured_fraction_theta_full 0.991
_diffrn_measured_fraction_theta_max 0.991
_diffrn_measurement_details
;
List of Runs (angles in degrees, time in seconds):

  # Type    Start    End  Width  t~exp~   \w     \q     \k     \f   Frames
--------------------------------------------------------------------------
  1  \w    -59.00  18.00   1.00   10.00    --    0.00 -37.00  90.00   77
  2  \w    -20.00  74.00   1.00   10.00    --    0.00  37.00 -90.00   94
  3  \w   -102.00 -59.00   1.00   30.00    --  -72.00  80.00  15.38   43
  4  \w    -95.00 -70.00   1.00   30.00    --  -72.00  80.00 -97.22   25
  5  \w    -92.00 -51.00   1.00   30.00    --  -72.00  80.00  95.25   41
  6  \w    -84.00 -58.00   1.00   30.00    --  -72.00  80.00 126.40   26
  7  \w    -97.00 -64.00   1.00   30.00    --  -72.00  80.00 174.09   33
  8  \w   -103.00 -77.00   1.00   30.00    --  -72.00  77.00 -60.00   26
  9  \w      9.00  35.00   1.00   30.00    --   82.02 -65.00-172.83   26
 10  \w     64.00  98.00   1.00   30.00    --   82.02 -61.00 -60.00   34
 11  \w     55.00 111.00   1.00   30.00    --   82.02 -68.00 103.38   56
 12  \w     62.00 157.00   1.00   30.00    --   82.02  30.00 -90.00   95
 13  \w     49.00 106.00   1.00   30.00    --   82.02 -61.00   0.00   57
 14  \w     81.00 156.00   1.00   30.00    --   82.02  77.00 -60.00   75
 15  \w     57.00  83.00   1.00   30.00    --   82.02 -61.00  60.00   26
 16  \w    128.00 154.00   1.00   30.00    --   82.02  77.00-120.00   26
 17  \w     49.00  81.00   1.00   30.00    --   82.02  77.00-120.00   32
 18  \w     45.00 134.00   1.00   30.00    --   82.02 -15.00 -90.00   89
 19  \w     51.00 107.00   1.00   30.00    --   82.02  77.00 120.00   56
 20  \w     49.00 111.00   1.00   30.00    --   82.02 -61.00-120.00   62
 21  \w     65.00 102.00   1.00   30.00    --   82.02 -65.00-172.83   37
;
_diffrn_measurement_device       'four-circle diffractometer'
_diffrn_measurement_device_type  'Xcalibur, Ruby, Gemini ultra'
_diffrn_measurement_method       '\w scans'
_diffrn_orient_matrix_type
'CrysAlisPro convention (1999,Acta A55,543-557)'
_diffrn_orient_matrix_UB_11      0.0086565000
_diffrn_orient_matrix_UB_12      0.0658644000
_diffrn_orient_matrix_UB_13      -0.0332208000
_diffrn_orient_matrix_UB_21      0.0322119000
_diffrn_orient_matrix_UB_22      -0.0219017000
_diffrn_orient_matrix_UB_23      -0.0936056000
_diffrn_orient_matrix_UB_31      -0.0851894000
_diffrn_orient_matrix_UB_32      -0.0016022000
_diffrn_orient_matrix_UB_33      -0.0839646000
_diffrn_radiation_monochromator  mirror
_diffrn_radiation_probe          x-ray
_diffrn_radiation_type           CuK\a
_diffrn_radiation_wavelength     1.54184
_diffrn_reflns_av_R_equivalents  0.0305
_diffrn_reflns_av_unetI/netI     0.0232
_diffrn_reflns_Laue_measured_fraction_full 0.991
_diffrn_reflns_Laue_measured_fraction_max 0.991
_diffrn_reflns_limit_h_max       19
_diffrn_reflns_limit_h_min       -19
_diffrn_reflns_limit_k_max       24
_diffrn_reflns_limit_k_min       -24
_diffrn_reflns_limit_l_max       13
_diffrn_reflns_limit_l_min       -13
_diffrn_reflns_number            14439
_diffrn_reflns_point_group_measured_fraction_full 0.991
_diffrn_reflns_point_group_measured_fraction_max 0.991
_diffrn_reflns_theta_full        57.902
_diffrn_reflns_theta_max         57.902
_diffrn_reflns_theta_min         3.295
_diffrn_source                   'fine-focus sealed X-ray tube'
_diffrn_source_type              'Enhance Ultra (Cu) X-ray Source'
_exptl_absorpt_coefficient_mu    20.968
_exptl_absorpt_correction_T_max  1.00000
_exptl_absorpt_correction_T_min  0.518
_exptl_absorpt_correction_type   multi-scan
_exptl_absorpt_process_details
;
CrysAlisPro 1.171.38.43 (Rigaku Oxford Diffraction, 2015)
Empirical absorption correction using spherical harmonics,
 implemented in SCALE3 ABSPACK scaling algorithm.
;
_exptl_crystal_colour            'clear light yellow'
_exptl_crystal_colour_lustre     clear
_exptl_crystal_colour_modifier   light
_exptl_crystal_colour_primary    yellow
_exptl_crystal_density_diffrn    1.876
_exptl_crystal_description       prism
_exptl_crystal_F_000             2480
_exptl_crystal_size_max          0.1
_exptl_crystal_size_mid          0.04
_exptl_crystal_size_min          0.01
_refine_diff_density_max         1.080
_refine_diff_density_min         -0.527
_refine_diff_density_rms         0.088
_refine_ls_extinction_method     none
_refine_ls_goodness_of_fit_ref   1.053
_refine_ls_hydrogen_treatment    constr
_refine_ls_matrix_type           full
_refine_ls_number_parameters     298
_refine_ls_number_reflns         3230
_refine_ls_number_restraints     0
_refine_ls_restrained_S_all      1.053
_refine_ls_R_factor_all          0.0360
_refine_ls_R_factor_gt           0.0206
_refine_ls_shift/su_max          0.002
_refine_ls_shift/su_mean         0.000
_refine_ls_structure_factor_coef Fsqd
_refine_ls_weighting_details
'w=1/[\s^2^(Fo^2^)+(0.0237P)^2^+2.5825P] where P=(Fo^2^+2Fc^2^)/3'
_refine_ls_weighting_scheme      calc
_refine_ls_wR_factor_gt          0.0450
_refine_ls_wR_factor_ref         0.0513
_reflns_Friedel_coverage         0.000
_reflns_number_gt                2216
_reflns_number_total             3230
_reflns_threshold_expression     'I > 2\s(I)'
_cod_data_source_file            ja8b07113_si_001.cif
_cod_data_source_block           th2
_cod_database_code               4132883
_chemical_oxdiff_formula         Th(C12H6O4)2
_shelx_space_group_comment
;
The symmetry employed for this shelxl refinement is uniquely defined
by the following loop, which should always be used as a source of
symmetry information in preference to the above space-group names.
They are only intended as comments.
;
_reflns_odcompleteness_completeness 98.61
_reflns_odcompleteness_iscentric 1
_reflns_odcompleteness_theta     58.86
_olex2_refinement_description
;
1. Fixed Uiso
 At 1.2 times of:
  All C(H) groups
2.a Aromatic/amide H refined with riding coordinates:
 C3A(H3A), C4A(H4A), C6A(H6A), C8A(H8A), C9A(H9A), C3B(H3B), C5B(H5B),
 C6B(H6B), C3C(H3C), C5C(H5C), C6C(H6C), C11A(H11A)
;
_shelx_res_file
;
    th2.res created by SHELXL-2014/7

TITL th2_b.res in C2/c
REM Old TITL th2 in C2/c
REM SHELXT solution in C2/c
REM R1 0.087, Rweak 0.000, Alpha 0.034, Orientation as input
REM Formula found by SHELXT: C25 O6 Th
CELL 1.54184 17.7914 22.1948 12.5214 90 108.913 90
ZERR 8 0.0005 0.0006 0.0003 0 0.003 0
LATT 7
SYMM -X,+Y,0.5-Z
SFAC C H O Th
UNIT 192 96 64 8

L.S. 10
PLAN  20
BOND $H
LIST 6
fmap 2
ACTA
REM <olex2.extras>
REM <HklSrc "%.\\th2.hkl">
REM </olex2.extras>

WGHT    0.023700    2.582500
FVAR       0.88170
TH1   4    0.636122    0.250399    0.364523    11.00000    0.02065    0.02124 =
         0.02835   -0.00085    0.00683    0.00090
O1A   3    0.568572    0.309355    0.211439    11.00000    0.03284    0.03479 =
         0.03621    0.00958    0.00548   -0.00044
O2A   3    0.454409    0.317044    0.070675    11.00000    0.02697    0.03851 =
         0.04277    0.00366    0.01024   -0.00983
O3A   3    0.798663    0.653433    0.081607    11.00000    0.02770    0.02740 =
         0.04484    0.00224    0.00077   -0.00648
O4A   3    0.699069    0.653068   -0.081801    11.00000    0.02932    0.01961 =
         0.03933    0.00743    0.00633    0.00219
O1B   3    0.533767    0.189082    0.380322    11.00000    0.02627    0.03103 =
         0.05795    0.00206    0.01371   -0.00562
O2B   3    0.403000    0.184181    0.301448    11.00000    0.04059    0.03645 =
         0.04302    0.01468    0.00582    0.00164
O1C   3    0.686848    0.248396    0.567092    11.00000    0.03514    0.03486 =
         0.03091    0.00704    0.01647    0.00563
O2C   3    0.769531    0.241290    0.740420    11.00000    0.02281    0.06478 =
         0.03836   -0.00273    0.00780   -0.00092
C1A   1    0.524670    0.333203    0.121916    11.00000    0.03455    0.02324 =
         0.03263    0.00047    0.01217   -0.00049
C2A   1    0.559298    0.383757    0.074112    11.00000    0.03991    0.03045 =
         0.03435    0.00265    0.00094   -0.00759
C3A   1    0.519897    0.408690   -0.032804    11.00000    0.04996    0.04205 =
         0.04371    0.01009   -0.00171   -0.01600
AFIX  43
H3A   2    0.472987    0.391337   -0.078790    11.00000   -1.20000
AFIX   0
C4A   1    0.549938    0.457983   -0.069352    11.00000    0.05576    0.05188 =
         0.03984    0.01208   -0.00087   -0.02433
AFIX  43
H4A   2    0.522919    0.473825   -0.140182    11.00000   -1.20000
AFIX   0
C5A   1    0.620734    0.485596   -0.002879    11.00000    0.03547    0.03810 =
         0.04067    0.00858   -0.00092   -0.00523
C6A   1    0.649239    0.540325   -0.032962    11.00000    0.04556    0.03351 =
         0.04582    0.01186    0.00660   -0.01060
AFIX  43
H6A   2    0.622153    0.557928   -0.102158    11.00000   -1.20000
AFIX   0
C7A   1    0.715855    0.568169    0.037290    11.00000    0.03442    0.03432 =
         0.04269   -0.00011    0.00973   -0.01281
C8A   1    0.758273    0.540770    0.142001    11.00000    0.05601    0.04571 =
         0.05874    0.01988   -0.01163   -0.02529
AFIX  43
H8A   2    0.803883    0.559044    0.189626    11.00000   -1.20000
AFIX   0
C9A   1    0.732368    0.487585    0.173213    11.00000    0.05232    0.06237 =
         0.07845    0.03656   -0.01070   -0.02412
AFIX  43
H9A   2    0.761100    0.469623    0.241319    11.00000   -1.20000
AFIX   0
C12A  1    0.740113    0.628921    0.009022    11.00000    0.03225    0.02601 =
         0.04485   -0.00127    0.01419   -0.00185
C1B   1    0.467082    0.163031    0.362914    11.00000    0.02606    0.03445 =
         0.04024    0.00240    0.00974    0.00138
C2B   1    0.466297    0.103470    0.415474    11.00000    0.03655    0.03070 =
         0.05015    0.01471    0.00588   -0.00283
C3B   1    0.535193    0.070284    0.450184    11.00000    0.03332    0.04437 =
         0.06586    0.02043    0.01067   -0.00266
AFIX  43
H3B   2    0.581786    0.086587    0.444094    11.00000   -1.20000
AFIX   0
C4B   1    0.536245    0.011666    0.495053    11.00000    0.03694    0.04527 =
         0.06364    0.02501    0.01088   -0.00429
C5B   1    0.605507   -0.024040    0.528074    11.00000    0.03815    0.03881 =
         0.10357    0.02841    0.02420    0.00923
AFIX  43
H5B   2    0.652002   -0.009563    0.518633    11.00000   -1.20000
AFIX   0
C6B   1    0.395327    0.080143    0.425845    11.00000    0.04513    0.04270 =
         0.08563    0.01914    0.02494    0.00069
AFIX  43
H6B   2    0.348888    0.102785    0.401425    11.00000   -1.20000
AFIX   0
C1C   1    0.699998    0.242514    0.672727    11.00000    0.03356    0.03278 =
         0.04132   -0.00286    0.01850   -0.00142
C2C   1    0.632385    0.239408    0.718421    11.00000    0.02452    0.06765 =
         0.03311   -0.00326    0.01184   -0.00456
C3C   1    0.556076    0.238823    0.648722    11.00000    0.03765    0.07773 =
         0.03283   -0.00079    0.01492   -0.00161
AFIX  43
H3C   2    0.545831    0.239346    0.571024    11.00000   -1.20000
AFIX   0
C4C   1    0.492119    0.237445    0.691321    11.00000    0.02744    0.07806 =
         0.03523    0.00056    0.01340    0.00068
C5C   1    0.648870    0.238499    0.836489    11.00000    0.03128    0.13640 =
         0.03634   -0.00078    0.00719   -0.00866
AFIX  43
H5C   2    0.701145    0.238465    0.884626    11.00000   -1.20000
AFIX   0
C6C   1    0.587711    0.237673    0.879412    11.00000    0.03036    0.17105 =
         0.03216    0.00820    0.01234    0.00269
AFIX  43
H6C   2    0.598865    0.237246    0.957289    11.00000   -1.20000
AFIX   0
C11A  1    0.629384    0.408962    0.138033    11.00000    0.04813    0.04196 =
         0.05095    0.01234    0.00779   -0.01490
AFIX  43
H11A  2    0.656502    0.391906    0.207740    11.00000   -1.20000
AFIX   0
C10A  1    0.662081    0.459627    0.102583    11.00000    0.04406    0.04082 =
         0.05202    0.00944    0.00494   -0.01203
HKLF 4

REM  th2_b.res in C2/c
REM R1 =  0.0206 for    2216 Fo > 4sig(Fo)  and  0.0360 for all    3230 data
REM    298 parameters refined using      0 restraints

END

WGHT      0.0237      2.5826

REM Highest difference peak  1.080,  deepest hole -0.527,  1-sigma level  0.088
Q1    1   0.5982  0.2509  0.4050  11.00000  0.05    1.08
Q2    1   0.6333  0.2930  0.3672  11.00000  0.05    0.54
Q3    1   0.6885  0.2513  0.4215  11.00000  0.05    0.54
Q4    1   0.6331  0.2078  0.3667  11.00000  0.05    0.51
Q5    1   0.5439 -0.0407  0.4202  11.00000  0.05    0.50
Q6    1   0.6423  0.0476  0.4488  11.00000  0.05    0.42
Q7    1   0.6556  0.2484  0.3076  11.00000  0.05    0.36
Q8    1   0.4573  0.4272  0.0130  11.00000  0.05    0.35
Q9    1   0.3269  0.0462  0.3901  11.00000  0.05    0.32
Q10   1   0.5844  0.2527  0.3092  11.00000  0.05    0.31
Q11   1   0.5309  0.5116  0.0230  11.00000  0.05    0.31
Q12   1   0.7608  0.2797  0.6890  11.00000  0.05    0.31
Q13   1   0.8732  0.6468  0.1356  11.00000  0.05    0.31
Q14   1   0.4783  0.0966  0.5351  11.00000  0.05    0.29
Q15   1   0.5989  0.3193  0.1808  11.00000  0.05    0.29
Q16   1   0.4339  0.1704  0.2722  11.00000  0.05    0.28
Q17   1   0.3441  0.0995  0.3669  11.00000  0.05    0.28
Q18   1   0.3656  0.1695  0.2337  11.00000  0.05    0.27
Q19   1   0.7238  0.2493  0.5853  11.00000  0.05    0.26
Q20   1   0.5956  0.2180  0.9976  11.00000  0.05    0.26
;
_shelx_res_checksum              85710
_shelx_hkl_file
;
   0   0  -1 85.3039 97.3189   1
   0   0   2 20839.8 799.419   2
   0   0  -2 19646.6 895.605   1
   0   0   3 116.965 206.952   2
   0   0  -3-59.2319 235.411   1
   0   0   4 333150. 4435.28   2
   0   0  -4 338795. 3629.20   7
   0   0  -5-132.229 249.030   1
   0   0  -5-35.6305 227.391   7
   0   0   5 232.534 170.040   2
   0   0  -6 8232.76 1089.21   1
   0   0  -6 9230.71 807.290   7
   0   0  -6 8747.74 851.249  10
   0   0   6 9915.38 948.014   2
   0   0  -7-92.9994 459.534  10
   0   0  -7 59.5663 333.648  13
   0   0  -7 142.510 337.804   7
   0   0  -7-73.6168 198.180  18
   0   0  -8 65466.4 2525.37  16
   0   0  -8 63755.3 2398.08  13
   0   0  -8 64403.9 2631.47  10
   0   0  -8 67850.4 2179.44  18
   0   0  -8 62665.3 2456.08   7
   0   0  -9-432.473 397.794   7
   0   0  -9 380.851 395.869  16
   0   0  -9-258.429 414.976   6
   0   0  -9-81.4103 413.962  13
   0   0 -10 23968.6 1686.26  13
   0   0 -10 24219.4 1678.69   6
   0   0 -11-110.692 406.552  13
   0   0 -11 535.964 416.693   6
   0   0 -12 17767.2 1353.53  13
   0   0 -12 19662.1 1394.08   6
   0   0 -12 19022.3 1494.67   5
   0   0 -13 167.825 264.545  13
   0  -2   0 516727. 3306.45   1
   0   2  -1 2.73180 111.036   2
   0  -2  -1 59.7157 151.842   1
   0  -2   1 27.3249 125.346   2
   0  -2   2 158534. 2132.18   2
   0   2  -2 155934. 2188.02   2
   0  -2  -2 163553. 2804.85   1
   0   2  -3 4748.92 504.882   2
   0  -2  -3 4601.85 606.921   1
   0   2   3 4063.67 591.865   1
   0  -2   3 5356.47 489.631   2
   0   2  -4 332079. 3899.83   7
   0  -2   4 342979. 4153.14   2
   0   2   4 343277. 5040.40   2
   0   2  -5 479.476 398.946   1
   0   2  -5 550.068 323.558   7
   0  -2  -5 827.981 278.567   7
   0  -2   5 651.402 219.862   2
   0  -2  -5 451.458 297.187   1
   0  -2  -6 8510.71 857.214  10
   0   2  -6 9179.50 881.617  10
   0   2  -6 8397.57 705.845  18
   0  -2  -6 7908.81 730.941   7
   0   2   6 9748.98 1034.14   2
   0   2  -6 7094.77 968.800   1
   0  -2  -6 7805.80 1184.14   1
   0  -2  -6 9430.49 796.869  13
   0   2  -6 9494.27 857.126   7
   0   2  -7 1501.20 480.920   7
   0   2  -7 1421.77 483.684  10
   0   2  -7 1041.17 403.749   6
   0  -2  -7 1490.67 335.379  18
   0  -2  -7 1365.20 385.869   7
   0  -2  -7 1710.68 483.112  13
   0   2  -7 1863.89 434.597  18
   0  -2  -8 65673.6 2446.71   7
   0   2  -8 68540.7 2257.27  18
   0   2  -8 65945.6 2543.99   6
   0   2  -8 63734.1 2610.69  10
   0  -2  -8 65575.6 2405.22  13
   0  -2  -8 63121.3 2615.66  16
   0   2  -9 295.410 383.250   6
   0  -2  -9 233.810 398.994  16
   0   2  -9-249.238 455.745  13
   0  -2  -9-274.473 395.743   7
   0  -2  -9 510.895 445.773  13
   0   2  -9 1192.51 365.608  18
   0   2  -9 303.432 408.881  10
   0   2 -10 25520.5 1738.31   6
   0  -2 -10 24616.3 1702.28  13
   0  -2 -10 29576.4 1845.56   6
   0   2 -10 25926.3 1725.69  13
   0  -2 -10 25279.5 1768.87   7
   0  -2 -10 21759.0 1731.06  16
   0  -2 -11 939.882 437.517  16
   0  -2 -11 446.556 362.213   6
   0  -2 -11-193.747 407.628  13
   0   2 -11-47.9960 379.512   5
   0   2 -11-323.027 390.516   6
   0   2 -11-109.725 436.639  13
   0   2 -12 22147.1 1568.22   5
   0   2 -12 21809.6 1483.11  13
   0  -2 -12 20921.6 1469.87  13
   0  -2 -12 20715.0 1446.43   6
   0   4   0 587293. 4979.87   1
   0  -4   0 584901. 5089.04   1
   0  -4  -1 6542.15 626.213   1
   0   4  -1 6722.95 556.289   2
   0   4  -2 42457.1 1344.76   2
   0  -4  -2 44527.6 1723.69   1
   0  -4  -3 7636.22 858.952   1
   0   4  -3 6396.15 614.140   2
   0  -4   3 6233.11 598.274   2
   0   4   3 7628.72 822.013   1
   0   4  -4 162159. 2866.80   6
   0  -4  -4 157640. 4076.69   1
   0   4   4 161594. 4124.60   1
   0  -4   4 155903. 2987.49   2
   0  -4   5 13738.4 947.004   2
   0  -4  -5 14243.6 868.184  13
   0  -4  -5 12237.1 1317.60   1
   0   4  -5 12426.6 916.092   6
   0   4  -5 12422.9 880.557  10
   0   4   5 14986.5 1277.03   2
   0  -4  -6 52007.6 1558.48  18
   0   4  -6 51348.0 2719.23   1
   0  -4  -6 55932.7 1828.12   7
   0  -4  -6 55992.6 1852.08  13
   0  -4  -6 59730.2 1774.04  12
   0   4   6 65059.4 2888.01   2
   0   4  -6 58969.7 1934.00  18
   0   4  -6 59203.4 2102.09   6
   0   4  -6 60558.5 2097.82  10
   0  -4  -7 1389.71 412.378   7
   0  -4  -7 1147.78 326.212  12
   0   4  -7 1348.77 494.919  10
   0   4  -7 1132.29 331.819  18
   0   4  -7 1392.48 476.990   6
   0  -4  -7 843.988 464.918  16
   0  -4  -7 1564.20 322.420  18
   0  -4  -7 1088.41 424.472  13
   0   4  -8 87089.9 2652.47  18
   0  -4  -8 76675.5 2946.16  16
   0  -4  -8 84146.4 2732.96  13
   0   4  -8 83645.5 2904.09   6
   0  -4  -8 80365.6 2693.92   7
   0   4  -8 86583.9 3001.24  10
   0  -4  -9-78.4650 394.322   7
   0  -4  -9-6.64752 414.296  16
   0   4  -9-354.520 279.593  18
   0   4  -9-390.710 478.992  10
   0   4  -9-8.59734 328.040   6
   0  -4  -9 313.589 445.222  13
   0  -4 -10 26413.7 1923.00  16
   0   4 -10 30129.6 1857.17  13
   0   4 -10 28548.4 1827.65   6
   0  -4 -10 29852.1 1883.31   7
   0  -4 -10 27710.5 1774.94  13
   0   4 -10 29978.9 1977.60  10
   0   4 -10 29980.3 1909.65   5
   0  -4 -11 316.580 420.609  16
   0   4 -11 586.744 415.022   5
   0  -4 -11-216.768 395.810   6
   0   4 -11 489.492 460.612  13
   0  -4 -11 177.846 390.853  13
   0   4 -12 18440.9 1346.81  13
   0  -4 -12 18623.6 1330.45   6
   0   4 -12 17949.7 1357.13   5
   0  -4 -12 18807.5 1393.35  13
   0   6   0 339930. 4622.71   1
   0   6  -1 3113.47 502.085   2
   0   6   1 3542.98 577.621   1
   0  -6  -1 2909.98 574.928   1
   0   6  -1 3824.91 554.920   1
   0   6   2 13192.4 1073.11   1
   0   6  -2 11463.6 871.269   2
   0  -6  -2 11964.8 1066.68   1
   0  -6  -3 1328.71 476.418   1
   0   6  -3 1106.07 336.460   2
   0   6   3 889.029 356.641   1
   0  -6  -4 182834. 4905.96   1
   0   6  -4 171939. 3559.23   2
   0   6   4 183826. 4723.90   1
   0   6  -4 174141. 2921.15   5
   0   6  -5 69.0717 291.218   6
   0   6  -5 253.411 266.169  18
   0   6  -5 188.803 315.184  20
   0  -6  -5-144.436 275.686  13
   0  -6  -5 441.248 265.251  12
   0   6  -5 49.7350 230.066   5
   0  -6  -6 20535.9 1181.11  13
   0   6  -6 19807.9 1220.39  10
   0  -6  -6 19026.3 1110.59  12
   0  -6  -6 20144.6 1328.10  16
   0   6  -6 19016.6 1273.25   6
   0   6  -6 20583.2 1212.15  18
   0   6  -6 19796.4 1222.04   5
   0   6  -7-498.987 441.247   6
   0  -6  -7 348.831 282.229  12
   0  -6  -7 260.755 332.010  16
   0   6  -7-98.1451 322.783   5
   0   6  -7-110.813 265.496  18
   0  -6  -7 444.772 358.944  13
   0  -6  -7-617.730 340.432   7
   0   6  -7-143.625 320.866  10
   0   6  -8 63548.4 2324.59  18
   0   6  -8 59269.0 2498.04   6
   0  -6  -8 58992.7 2319.28   7
   0  -6  -8 60870.5 2270.78  12
   0   6  -8 60616.3 2457.33   5
   0   6  -8 59274.7 2483.98  10
   0  -6  -8 56055.1 2600.24  16
   0  -6  -8 59537.3 2341.16  13
   0  -6  -9 59.9552 358.463   7
   0   6  -9-58.5769 430.767  10
   0   6  -9-184.040 407.567   5
   0   6  -9 888.733 393.216  18
   0  -6  -9-241.726 491.034  16
   0  -6  -9-34.3194 384.419  13
   0  -6 -10 43383.6 2242.22   7
   0   6 -10 41799.2 2182.44   5
   0  -6 -10 36070.9 2287.61  16
   0   6 -10 39722.1 2216.02  10
   0  -6 -10 41054.6 2152.84  13
   0   6 -11-444.554 408.095  13
   0  -6 -11-467.147 455.286  16
   0   6 -11 484.488 366.534   5
   0  -6 -11 734.818 417.260   7
   0  -6 -11-28.0235 400.715  13
   0   6 -12 17631.5 1255.55  13
   0   6 -12 17954.5 1276.93   5
   0  -6 -12 17091.5 1301.63  13
   0   6  12 17208.7 1144.43  19
   0  -6 -12 19413.0 1362.55   6
   0   8   0 294681. 5046.03   1
   0   8  -1 6587.20 784.946   1
   0   8  -1 7050.28 799.803   2
   0  -8  -1 6812.71 902.577   1
   0   8   1 7336.85 879.550   1
   0   8   2 3487.23 683.463   1
   0   8  -2 3230.79 567.232   1
   0   8  -2 2809.27 552.480   2
   0  -8  -2 3367.15 703.926   1
   0   8  -2 3352.25 429.236   5
   0  -8  -3 3967.98 510.098  12
   0   8   3 3919.41 552.896  19
   0   8   3 3908.51 734.585   1
   0  -8  -3 4006.49 501.832  13
   0   8  -3 3756.36 496.702  20
   0   8  -3 3418.09 446.343   5
   0  -8  -3 2922.78 723.481   1
   0   8  -3 3147.42 602.482   1
   0   8  -3 3634.40 567.037   2
   0  -8  -4 142541. 2996.08  16
   0   8  -4 138347. 2739.41   5
   0  -8  -4 134967. 2684.79  13
   0  -8  -4 143180. 2889.92  12
   0   8  -4 134806. 2753.34  18
   0   8  -4 133411. 2740.49  20
   0   8   4 132149. 2767.53  19
   0   8  -4 144543. 3536.09   2
   0  -8  -4 149669. 4179.68  14
   0  -8  -5 4739.35 673.290  16
   0  -8  -5 4698.47 628.138  12
   0  -8  -5 3622.30 540.504  13
   0   8  -5 3901.89 543.019  18
   0   8  -5 3780.36 539.368   5
   0   8  -5 3939.53 581.661  20
   0  -8  -5 2868.09 761.627  14
   0   8  -6 29514.2 1509.50   5
   0  -8  -6 31493.3 1526.91  13
   0   8  -6 27496.4 1454.97  10
   0  -8  -6 28489.2 1485.78  12
   0  -8  -6 29608.4 1683.10  16
   0   8  -6 29585.0 1505.93  18
   0  -8  -7-111.917 350.186  13
   0  -8  -7 176.212 399.329  16
   0  -8  -7 486.985 391.062  12
   0   8  -7-29.4347 366.293  10
   0   8  -7 24.6934 365.749   5
   0   8  -7-357.684 278.504  18
   0  -8  -7 374.046 325.507   7
   0  -8  -8 78039.5 2759.21  12
   0   8  -8 75584.5 2622.68  18
   0   8  -8 72283.7 2709.00  10
   0  -8  -8 68989.6 2909.81  16
   0  -8  -8 71408.9 2620.48  13
   0   8  -8 74761.3 2706.82   5
   0  -8  -8 72465.6 2618.09   7
   0  -8  -9 881.250 412.265   7
   0  -8  -9-188.382 514.958  16
   0   8  -9-247.635 324.910   5
   0  -8  -9 720.583 437.891  13
   0   8  -9 448.645 405.253  10
   0   8  -9 932.218 376.613  18
   0   8 -10 25369.1 1652.03   5
   0   8  10 20602.1 1431.45  19
   0  -8 -10 21888.6 1590.85  13
   0  -8 -10 20979.3 1775.16  16
   0   8 -10 22443.7 1420.21  18
   0   8 -10 21128.6 1592.83  10
   0  -8 -10 21941.8 1624.92   7
   0  -8 -11-77.1572 405.867  16
   0   8  11 174.249 338.519  19
   0   8 -11 753.656 371.752   5
   0   8 -11-419.023 368.399  13
   0  -8 -11 734.387 440.824  13
   0  -8 -11 1379.57 406.355   7
   0   8  12 8397.10 790.157  19
   0   8 -12 7559.61 822.715  13
   0  -8 -12 7980.27 895.812  13
   0 -10   0 333353. 5642.31  14
   0  10   0 329050. 6121.24   1
   0  10   0 332170. 3962.04  19
   0  10  -1 12409.6 809.909  19
   0 -10  -1 14649.6 1334.11  14
   0  10   1 11589.0 792.999  19
   0  10  -1 11476.4 1143.50   1
   0 -10  -1 13141.2 885.395  12
   0  10  -1 12479.4 1178.68   2
   0  10   1 13160.9 1292.31   1
   0  10   2 1911.16 602.159   1
   0  10   2 3205.21 493.059  19
   0  10  -2 2554.51 510.686   1
   0 -10  -2 3307.18 507.565  12
   0 -10  -2 3643.08 882.483  14
   0  10  -2 2196.37 544.993   2
   0  10  -2 3159.15 469.808  20
   0  10  -3 152.582 237.180   5
   0 -10  -3 143.218 294.173  12
   0  10  -3 643.139 287.236   1
   0  10   3 48.0170 381.650  19
   0  10  -3 66.2677 139.156   2
   0 -10  -3 170.884 259.081  16
   0  10  -3 8.55087 281.283  20
   0  10  -4 179115. 3365.15  20
   0  10   4 182467. 3460.94  19
   0 -10  -4 190554. 5068.70  14
   0  10  -4 180549. 3392.51  18
   0  10  -4 183219. 3388.12   5
   0 -10  -4 187501. 3673.48  12
   0 -10  -4 192296. 3679.81  16
   0 -10  -4 180219. 3399.48  13
   0 -10  -5 36.7256 287.007  16
   0 -10  -5 102.283 311.589  13
   0  10  -5 284.089 281.075  18
   0  10   5 21.1214 362.521  19
   0 -10  -5 110.445 301.192  12
   0  10  -5 521.563 380.673  20
   0  10  -5 111.945 294.425   5
   0 -10  -5 230.150 550.360  14
   0  10   6 7120.63 830.749  19
   0  10  -6 8099.14 863.779  18
   0 -10  -6 6505.07 817.426  12
   0 -10  -6 7295.64 925.878  16
   0 -10  -6 8867.64 1195.19  14
   0  10  -6 6940.17 782.233   5
   0 -10  -6 7180.43 826.541  13
   0  10  -6 8674.95 854.433  10
   0  10   7 240.951 411.474  19
   0  10  -7 558.170 385.803   5
   0 -10  -7 815.586 525.931  16
   0 -10  -7 73.1160 375.335  12
   0 -10  -7 749.175 419.348  13
   0  10  -7 375.162 263.013  18
   0  10  -7 361.909 354.939  10
   0 -10  -8 53885.1 2644.85  16
   0 -10  -8 55567.3 2482.16  12
   0 -10  -8 55611.2 2411.78  13
   0 -10  -8 59988.2 2445.89   7
   0  10   8 56950.8 2358.98  19
   0  10  -8 57626.3 2411.39  10
   0  10  -8 61756.4 2430.23   5
   0  10  -8 55756.9 2305.87  18
   0  10  -9-163.632 227.034  18
   0 -10  -9-16.8318 246.953   7
   0 -10  -9 730.757 530.603  16
   0  10  -9 24.6158 349.212  10
   0  10  -9 1079.03 440.884   5
   0  10   9-742.732 427.863  19
   0 -10  -9 787.229 485.223  13
   0 -10  -9-636.026 455.536  12
   0 -10 -10 26334.3 1727.59   7
   0  10  10 25715.3 1573.75  19
   0  10 -10 27812.5 1736.79  10
   0 -10 -10 26756.8 1730.67  13
   0  10 -10 27302.4 1620.98   5
   0 -10 -10 22958.8 1829.79  16
   0  10 -10 28833.9 1586.30  18
   0 -10 -11 455.359 383.567  13
   0  10  11-323.734 289.817  19
   0  12   0 324391. 4319.07  19
   0 -12   0 322600. 6031.86  14
   0 -12  -1 2322.28 746.609  14
   0  12  -1 2779.79 423.568  20
   0  12   1 2577.50 461.990  19
   0 -12   1 2680.57 717.009  14
   0  12  -1 2634.10 460.009  19
   0  12   2 3830.59 576.999  19
   0  12  -2 4950.21 582.871  20
   0 -12  -2 3606.07 475.614  15
   0 -12  -2 4512.95 529.634  16
   0 -12  -2 3845.75 589.287  12
   0 -12  -3-140.958 248.411  16
   0 -12  -3-536.912 762.787  14
   0 -12  -3 59.9511 341.690  12
   0  12   3 144.341 359.157  19
   0 -12   3-257.078 389.128  14
   0  12  -3 17.8971 250.775  20
   0 -12  -3 70.8015 188.437  15
   0 -12  -4 138688. 3482.48  12
   0  12  -4 136723. 3119.72  20
   0  12  -4 139139. 3202.87  18
   0  12   4 135334. 3218.46  19
   0 -12  -4 136607. 3243.27  16
   0 -12  -4 137159. 2964.76  15
   0 -12  -4 136113. 4568.78  14
   0  12  -5 1123.77 394.645   5
   0 -12  -5 1657.17 485.182  16
   0 -12  -5 2618.28 910.912  14
   0  12  -5 2014.55 508.480  20
   0 -12  -5 1386.92 501.826  12
   0  12  -5 1234.70 418.203  18
   0  12   5 1322.64 451.593  19
   0  12  -6 12557.5 1023.42  10
   0  12  -6 11684.5 1055.31  18
   0  12  -6 11813.8 1039.41   5
   0 -12  -6 11505.6 1141.36  16
   0 -12  -6 11378.6 1103.20  13
   0 -12  -6 13150.7 1506.25  14
   0  12   6 12384.4 1115.80  19
   0 -12  -6 12125.5 1195.55  12
   0  12   7 2.47459 366.935  19
   0 -12  -7 412.308 458.296  16
   0  12  -7-118.254 319.974  18
   0  12  -7 262.525 355.453  10
   0 -12  -7-36.0204 359.727  13
   0  12  -7 698.406 380.097   5
   0 -12  -7-275.446 396.294  12
   0  12  -8 51318.2 2196.35   5
   0  12   8 48958.7 2218.74  19
   0 -12  -8 52655.7 2319.09   7
   0  12  -8 46682.5 2143.48  18
   0  12  -8 50818.9 2204.52  10
   0 -12  -8 48339.9 2294.16  13
   0 -12  -8 47938.6 2522.95  16
   0 -12  -8 49629.8 2447.49  12
   0  12  -9 65.8683 339.097  10
   0  12   9 152.422 422.444  19
   0 -12  -9 703.010 483.958  13
   0 -12  -9-233.330 559.484  16
   0  12  -9 146.310 251.266  18
   0 -12  -9 755.881 397.402   7
   0  12  10 22395.8 1420.15  19
   0  12 -10 22228.4 1349.35  18
   0 -12 -10 20493.4 1393.91  15
   0  12 -10 20465.8 1414.73  10
   0 -12 -11 478.071 352.229  15
   0  12  11 13.1288 318.623  19
   0  14   0 258674. 3630.55  20
   0 -14   0 261957. 5822.55  14
   0  14   0 263562. 4285.37  19
   0  14  -1 4162.63 535.496  20
   0  14   1 4622.88 639.639  19
   0 -14   1 3473.46 866.606  14
   0 -14  -1 4870.62 1030.64  14
   0  14   2 7435.49 810.153  19
   0 -14   2 7016.19 984.181  14
   0  14  -2 7037.53 722.239  20
   0 -14  -2 6716.20 1153.22  14
   0 -14  -2 6869.05 675.583  15
   0 -14  -3 195.511 265.999  15
   0  14   3 186.761 360.000  19
   0  14  -3-158.402 301.803  20
   0 -14  -3 557.936 717.853  14
   0 -14   3-782.083 458.832  14
   0  14   4 127487. 3297.21  19
   0 -14  -4 128171. 3280.48  16
   0  14  -4 119040. 3088.30  20
   0  14  -4 129653. 3243.39  18
   0 -14  -4 125061. 3023.89  15
   0 -14  -4 129273. 4650.75  14
   0 -14  -5 3433.12 962.268  14
   0  14   5 4580.17 747.947  19
   0  14  -5 3607.23 633.383  18
   0 -14  -5 4494.79 717.828  16
   0 -14  -5 4075.66 639.043  15
   0 -14  -6 6888.60 806.085  15
   0  14  -6 6946.14 763.714  10
   0 -14  -6 7598.21 1251.92  14
   0  14   6 7367.23 930.970  19
   0  14  -6 7071.64 847.097  18
   0 -14  -6 7512.53 952.786  16
   0 -14  -7 329.824 372.278  16
   0  14  -7-511.322 385.725  18
   0 -14  -7 298.301 341.642  15
   0  14  -7 156.783 302.693  10
   0  14   7 107.159 389.439  19
   0  14  -8 41234.6 1978.96  18
   0 -14  -8 41192.5 1968.83  15
   0  14   8 43999.0 2091.39  19
   0  14  -8 43657.0 1987.93  10
   0  14   9 971.479 431.305  19
   0 -14  -9-79.4452 297.208  15
   0  14  -9 704.996 351.029  18
   0  14  -9 482.415 331.387  10
   0 -14 -10 15623.7 1145.68  15
   0  14  10 17406.5 1180.66  19
   0  14 -10 16278.9 1154.82  10
   0  14 -10 15918.7 1063.02  18
   0  16   0 148357. 3477.42  19
   0 -16   0 143139. 4527.26  14
   0 -16   1 2403.18 754.643  14
   0 -16  -1 2515.72 860.782  14
   0  16   1 1406.13 494.804  19
   0  16  -1 1508.26 406.803  20
   0 -16   2 4614.94 946.362  14
   0  16   2 6274.47 812.947  19
   0  16  -2 5524.07 690.214  20
   0 -16  -2 6556.01 1239.50  14
   0  16   3 1048.20 490.221  19
   0 -16   3 554.940 486.970  14
   0 -16  -3 886.630 770.835  14
   0  16  -4 65353.2 2403.20  18
   0  16   4 62876.3 2454.83  19
   0 -16  -4 64090.4 3391.80  14
   0 -16  -4 63960.2 2272.48  15
   0  16  -5 480.220 415.705  18
   0  16   5 588.604 505.802  19
   0 -16  -5 864.488 368.203  15
   0 -16  -5 900.476 705.448  14
   0  16  -6 13120.0 1160.00  18
   0  16   6 11350.7 1124.47  19
   0  16  -6 13472.4 1044.53  10
   0 -16  -6 12599.9 1091.98  15
   0 -16  -6 11987.1 1484.32  14
   0  16   7-230.635 405.948  19
   0 -16  -7-647.281 431.318  14
   0  16  -7 685.622 366.139  18
   0  16  -7-290.882 240.840  10
   0 -16  -7-243.767 306.762  15
   0 -16  -8 30130.4 1612.40  15
   0  16  -8 29345.1 1508.36  10
   0  16  -8 27875.7 1584.44  18
   0  16   8 32847.8 1750.38  19
   0  16  -9 195.106 216.089  18
   0 -16  -9 730.240 334.999  15
   0  16   9 422.738 322.284  19
   0 -18   0 123849. 4286.09  14
   0 -18   1 2238.21 807.598  14
   0  18   1 935.746 469.366  19
   0 -18  -1 2099.77 877.931  14
   0  18   2 1665.32 545.975  19
   0 -18  -2 2078.69 918.877  14
   0 -18   2 554.303 540.363  14
   0  18   3 246.773 419.979  19
   0  18  -3 131.741 302.655  18
   0 -18  -3 1175.57 781.720  14
   0 -18   3 148.954 432.286  14
   0  18  -4 63997.2 2416.04  18
   0  18   4 65429.9 2537.71  19
   0 -18  -4 62148.1 3297.10  14
   0  18   5 706.610 461.956  19
   0 -18  -5 822.151 707.701  14
   0  18  -5-208.574 310.564  18
   0  18   6 10203.1 1061.17  19
   0 -18  -6 8520.14 1214.22  14
   0  18  -6 10065.1 1001.41  18
   0 -18  -7 492.235 377.774  14
   0  18  -7-194.437 233.941  18
   0  18   7 700.031 405.182  19
   0 -18  -7-591.234 287.137  15
   0  18   8 30091.0 1549.71  19
   0  18  -8 29700.5 1499.23  18
   0 -18  -8 29532.9 1479.60  15
   0 -20   0 94367.9 3692.99  14
   0 -20  -1 928.632 708.002  14
   0 -20   1 1558.17 681.262  14
   0 -20   2 974.199 540.945  14
   0 -20  -2 1731.58 818.203  14
   0  20   2 1300.17 524.302  19
   0 -20   3-205.281 380.539  14
   0 -20  -3-408.017 721.087  14
   0  20  -3 1199.17 381.894  18
   0  20   3-230.826 390.735  19
   0  20  -4 73827.9 2550.73  18
   0  20   4 72621.5 2620.16  19
   0 -20  -4 71822.3 3346.52  14
   0  20  -5-441.816 313.600  18
   0 -20  -5-509.651 530.360  14
   0  20   5-514.782 429.099  19
   0  20   6 3318.54 602.596  19
   0  20  -6 2810.28 519.622  18
   0 -20  -6 3077.45 728.859  14
   0  20   7-372.428 336.548  19
   0  20  -7-130.784 199.159  18
   0 -22   0 60897.8 2725.45  14
   0  22  -1 1112.42 399.562  18
   0 -22   1 903.868 508.325  14
   0 -22  -2-157.168 508.595  14
   0  22  -2 828.287 355.344  18
   0 -22   2 122.773 351.824  14
   0 -22  -3 363.000 537.727  14
   0  22  -3 695.377 321.406  18
   0  22  -4 49148.5 1951.61  18
   0 -22  -4 53238.4 2580.84  14
   0  22   5 372.882 334.572  19
   0 -22  -5 978.821 504.647  14
   0  22  -5 139.800 250.440  18
   0  24   0 49029.6 1805.61  18
   0 -24   0 49796.6 2128.01  14
   0 -24   1 1230.52 389.179  14
   0  24   1 436.105 219.413  18
   0  24  -1 625.766 248.955  18
   0 -24  -2 284.621 358.674  14
   0  24   2 1057.97 254.368  18
   0  24  -2 542.328 284.099  18
   1   1 -13 9352.47 900.439  13
   1  -1 -13 10935.1 985.826  13
   1  -1 -13 10806.3 1000.86   5
   1   1 -12 215.556 368.841  13
   1   1 -12 489.613 347.199   6
   1  -1 -12-551.544 370.667   6
   1   1 -12-981.737 300.776   5
   1  -1 -12 18.4423 318.495  13
   1   1 -11 25329.8 1654.41   6
   1   1 -11 25554.1 1720.52  13
   1  -1 -11 25637.8 1667.28   6
   1  -1 -11 24747.6 1800.00  16
   1  -1 -11 23631.3 1673.49  13
   1  -1 -10-89.9948 410.833  13
   1   1 -10-36.5924 428.585  13
   1  -1 -10-3.42012 314.484  16
   1   1 -10 413.297 399.768   6
   1   1 -10 1243.10 410.573  18
   1  -1 -10-275.417 356.424   6
   1   1  -9 40388.9 2040.67  13
   1  -1  -9 41406.5 2056.39  13
   1  -1  -9 39033.0 2185.92  16
   1   1  -9 43404.5 1907.60  18
   1  -1  -9 45201.7 1887.93  18
   1   1  -9 41577.8 2059.72   6
   1  -1  -9 37984.9 2012.13   7
   1   1  -9 38675.4 2097.76  16
   1  -1  -8 144.040 359.429  13
   1   1  -8-172.998 408.625  10
   1  -1  -8-515.205 284.875  18
   1   1  -8-78.3912 369.709  13
   1   1  -8-249.641 321.377   6
   1  -1  -8 183.906 320.507   7
   1   1  -8 866.086 431.824   7
   1   1  -8-632.228 330.277  18
   1  -1  -7 7033.54 781.105  13
   1   1  -7 6475.22 852.844  10
   1   1  -7 7425.15 810.647   7
   1  -1  -7 6569.25 670.731  18
   1  -1  -7 6593.11 752.847   7
   1   1  -7 7093.02 708.381  18
   1  -1  -6 1972.66 411.247   7
   1  -1  -6 2221.69 382.216  18
   1   1  -6 2210.21 604.690   1
   1   1  -6 2113.63 511.396  10
  -1  -1   6 2895.67 532.907   2
   1   1  -6 2630.20 450.334  18
   1   1  -6 1988.16 442.292   7
   1  -1  -6 2441.80 461.805  13
   1  -1  -6 2884.58 576.335  10
  -1   1   6 2260.08 506.712   2
   1  -1  -6 2444.75 666.844   1
  -1  -1   5 173226. 3679.92   2
   1  -1  -5 171881. 2819.18   7
   1  -1  -5 168959. 4496.29   1
  -1   1   5 174224. 3927.20   2
   1   1  -5 175206. 3037.54   7
   1   1  -4 2454.54 561.399   1
   1  -1  -4 2782.72 595.661   1
  -1   1   4 3724.05 577.252   2
  -1  -1   4 2891.70 479.135   2
  -1  -1   3 2620.90 422.988   2
   1   1  -3 1705.19 409.901   2
  -1   1   3 2893.16 469.637   2
   1  -1  -3 2202.10 462.309   1
   1   1  -2 8795.05 619.730   2
   1  -1  -2 9039.44 692.930   1
  -1  -1   2 8823.70 578.731   2
   1   1  -1 610677. 4022.87   2
   1  -1  -1 626901. 4115.21   1
   1   1   0 783.329 151.156   2
  -1  -1  -1 1278.57 219.245   1
  -1   1  -1 1291.78 135.680   1
  -1   1  -2 3353.22 352.787   1
   1   1   2 3852.84 438.323   1
  -1  -1  -2 3491.06 410.685   1
   1  -1   2 3750.81 267.613   2
  -1  -1  -3 303803. 4208.19   1
  -1   1  -3 298347. 3834.06   1
   1  -1   4 1252.74 277.219   2
   1   1   4 1399.23 352.546   2
  -1   1  -4 1232.31 375.733   1
  -1  -1  -4 1032.09 379.092   1
  -1   1  -4 1485.73 322.600   7
  -1  -1  -5 2477.41 422.853   7
  -1   1  -5 2135.45 499.168   1
  -1   1  -5 2255.04 413.674   7
  -1  -1  -5 2429.53 567.251   1
   1  -1   5 2920.81 425.545   2
   1   1   5 2887.42 538.137   2
  -1   1  -5 2485.25 468.416  10
  -1   1  -6 239.673 321.899  10
  -1   1  -6-25.4444 196.723   1
  -1  -1  -6 293.349 313.742  13
  -1   1  -6 87.1748 279.669   7
  -1  -1  -6-271.587 337.707   1
  -1  -1  -6 329.058 287.889  10
  -1  -1  -6 31.9770 282.855   7
  -1  -1  -6 253.775 248.458  16
  -1   1  -6 357.098 189.185  16
  -1  -1  -7 116187. 3093.77  16
  -1  -1  -7 114481. 3185.15  10
  -1  -1  -7 111435. 2902.96  13
  -1   1  -7 113658. 3201.73  10
  -1   1  -7 114838. 3137.18   7
  -1  -1  -7 108023. 2941.55   7
  -1   1  -7 119698. 2971.57  16
  -1  -1  -8 422.604 382.078   7
  -1  -1  -8 304.474 430.961  13
  -1   1  -8-779.829 481.439   6
  -1   1  -8 126.184 359.512   7
  -1   1  -8 357.603 378.913  13
  -1  -1  -8-125.021 371.874  16
  -1   1  -8 153.145 379.205  10
  -1  -1  -9 16143.9 1349.91  13
  -1  -1  -9 17161.7 1430.43  16
  -1   1  -9 16262.2 1445.11  10
  -1   1  -9 16946.0 1381.46  13
  -1   1  -9 19586.5 1534.89   6
  -1   1  -9 20312.6 1580.78   7
  -1  -1  -9 16933.4 1402.12   7
  -1  -1 -10-334.074 499.350  13
  -1  -1 -10-60.0101 395.038   7
  -1  -1 -10 463.926 433.875   6
  -1   1 -10-250.022 529.857  13
  -1   1 -10 121.409 384.254   6
  -1   1 -11 32203.6 2070.77   5
  -1  -1 -11 34850.1 2018.99   6
  -1   1 -11 34271.7 1945.76  13
  -1   1 -11 33142.2 1958.58   6
  -1  -1 -11 31205.5 1865.30  13
  -1   1 -12-654.716 387.518   5
  -1  -1 -12-501.836 368.982   5
  -1   1 -12-195.284 352.938  13
  -1   1 -12 510.012 324.089   6
  -1  -1 -12-357.163 333.109  13
  -1  -1 -12 198.493 219.333   6
  -1   3  13 6458.17 640.424  19
   1   3 -13 7763.61 829.191  13
   1  -3 -13 7184.14 811.497  13
   1   3 -12 118.516 373.963  13
   1   3 -12 200.626 281.113   5
   1  -3 -12 560.668 404.836  13
   1  -3 -12 1177.79 456.180  16
   1  -3 -11 21948.7 1763.33  16
   1  -3 -11 22996.5 1624.55  13
   1   3 -11 26433.8 1683.00   6
   1   3 -11 25174.2 1735.36   5
   1   3 -11 21781.3 1587.91  13
   1  -3 -11 23963.0 1620.32   6
   1   3 -10 69.1321 147.073  18
   1  -3 -10 219.687 390.017   7
   1   3 -10 67.2233 400.589  13
   1  -3 -10 235.901 470.846  16
   1  -3 -10 115.666 490.346  13
   1   3 -10-292.050 362.423   6
   1   3  -9 57686.7 2434.88   6
   1  -3  -9 63103.0 2199.14  18
   1   3  -9 56470.4 2615.87  10
   1   3  -9 60829.4 2324.15  18
   1  -3  -9 52275.6 2608.04  16
   1  -3  -9 56740.9 2395.12  13
   1  -3  -9 57891.9 2432.65   7
   1  -3  -8 57.5195 402.392  13
   1  -3  -8-243.029 239.306  18
   1  -3  -8 288.306 364.562   7
   1   3  -8 195.204 267.522  18
   1   3  -8-75.3749 321.279   6
   1  -3  -8 194.968 245.178  12
   1   3  -8 278.910 435.052  10
   1  -3  -7 19385.0 1183.83   7
   1  -3  -7 17873.5 1054.52  12
   1   3  -7 18185.5 1167.94  18
   1  -3  -7 18235.5 1167.30  13
   1   3  -7 17168.7 1199.58   6
   1   3  -7 18509.1 1332.04  10
   1  -3  -7 18377.4 1071.78  18
   1   3  -6 925.153 334.496  18
  -1   3   6 1150.36 438.144   2
   1  -3  -6 379.419 298.898   7
  -1  -3   6-269.367 249.530   2
   1   3  -6 546.188 349.751  10
   1  -3  -6 667.901 229.811  12
   1   3  -6 982.922 398.986   1
   1  -3  -6 847.612 381.786  13
   1   3  -6 618.438 360.648   6
   1  -3  -6 191.427 203.690  18
   1  -3  -5 189984. 2899.19   7
   1   3  -5 186342. 3135.38   6
  -1  -3   5 187528. 3738.33   2
   1  -3  -5 185046. 4873.87   1
  -1   3   5 197583. 4530.94   2
  -1   3   4 13842.4 1111.18   2
  -1  -3   4 14477.5 978.963   2
   1  -3  -4 13513.4 1189.13   1
   1   3  -3 87995.2 2300.91   2
  -1  -3   3 93709.0 2292.52   2
   1  -3  -3 90660.1 2634.53   1
   1   3  -2-86.1248 228.274   2
  -1  -3   2-27.9779 224.382   2
   1  -3  -2-78.2844 267.837   1
   1   3  -1 192242. 2783.75   2
   1  -3  -1 191279. 2683.96   1
   1  -3   0 595.179 177.844   1
  -1   3   0 632.395 164.203   1
  -1   3  -1 31026.8 809.650   2
  -1  -3  -1 32099.6 1239.34   1
  -1  -3  -2 11002.3 833.983   1
   1   3   2 9976.37 781.082   1
  -1   3  -2 10347.1 495.417   2
  -1  -3  -3 205779. 3943.56   1
   1   3   3 210974. 3937.16   1
   1   3   4 5.06537 291.612   1
  -1   3  -4-74.6742 319.387   6
  -1   3  -4-419.283 279.310   1
  -1  -3  -4 73.6907 290.457   1
   1  -3   4 311.475 197.926   2
  -1   3  -4 270.985 251.764   7
  -1   3  -5 4161.16 571.912  10
  -1   3  -5 3669.46 598.747   1
   1  -3   5 4708.70 491.194   2
  -1  -3  -5 4679.10 584.286  16
  -1  -3  -5 4412.45 536.049  13
  -1   3  -5 4251.55 568.600   7
  -1  -3  -5 3690.10 766.465   1
  -1   3  -5 3728.08 547.707   6
   1   3   5 3608.24 619.295   2
  -1  -3  -6 1877.72 439.108  13
  -1  -3  -6 1955.57 459.571  16
  -1   3  -6 2347.05 531.258   6
  -1   3  -6 1388.27 433.821   7
  -1   3  -6 1562.07 406.228  10
  -1   3  -6 1568.69 363.460  18
  -1  -3  -6 1608.75 412.591   7
  -1   3  -7 83969.9 2826.77   7
  -1   3  -7 87565.3 2418.45  18
  -1  -3  -7 86307.7 2802.93  16
  -1  -3  -7 86377.7 2561.86  13
  -1   3  -7 85237.8 2797.21   6
  -1   3  -7 85408.4 2735.15  10
  -1  -3  -7 79951.2 2494.34   7
  -1  -3  -8 554.573 443.578  13
  -1   3  -8 236.961 401.772  10
  -1  -3  -8 430.902 415.661  16
  -1   3  -8 257.331 386.605   6
  -1  -3  -8 246.934 351.104   7
  -1   3  -9 24781.8 1748.50  10
  -1  -3  -9 21653.2 1675.68  16
  -1   3  -9 25940.0 1777.17   6
  -1   3  -9 22402.1 1595.36  13
  -1  -3  -9 22717.7 1589.06   7
  -1  -3  -9 24964.0 1650.96  13
  -1   3 -10-82.7400 525.865   5
  -1   3 -10 463.357 448.463  13
  -1  -3 -10 36.9480 442.412  13
  -1   3 -10 487.940 443.884   6
  -1  -3 -10 235.508 314.735   7
  -1  -3 -10 1120.50 569.210  16
  -1   3 -11 38496.1 2049.38  13
  -1  -3 -11 37230.6 2013.11  13
  -1   3 -11 39320.1 2122.98   6
  -1  -3 -11 35599.9 2031.54   6
  -1   3 -11 36822.4 2127.44   5
  -1  -3 -12 88.4323 339.517  13
  -1   3 -12 181.622 330.710  13
  -1  -3 -12 606.556 329.886   6
  -1   3 -12 425.724 299.007   5
   1   5 -12 594.844 400.399  13
   1   5 -12-384.455 333.952   5
   1  -5 -12 1062.24 486.706  16
   1  -5 -12 802.153 368.119   6
   1  -5 -12 226.563 302.437  13
  -1   5  12 920.375 357.767  19
   1   5 -11 38412.7 2022.54  13
   1  -5 -11 36004.6 2024.31  13
   1   5 -11 39008.3 2063.83   5
   1  -5 -11 33582.2 2196.46  16
   1   5 -10-333.414 358.380   5
   1  -5 -10 243.150 461.321  13
   1   5 -10-518.740 330.007  18
   1   5 -10 414.990 475.945  10
   1  -5 -10-300.176 403.433   7
   1  -5 -10 160.774 484.435  16
   1   5  -9 53515.5 2532.47  10
   1   5  -9 54667.3 2407.27   6
   1  -5  -9 53871.7 2356.00  13
   1   5  -9 53668.0 2401.23   5
   1  -5  -9 47080.3 2542.24  16
   1  -5  -9 51080.6 2279.75   7
   1   5  -9 57078.4 2311.33  18
   1  -5  -8 2112.73 505.784  12
   1  -5  -8 1947.89 469.686   7
   1   5  -8 2291.27 526.880  18
   1  -5  -8 2243.56 573.690  13
   1  -5  -8 2033.76 626.971  16
   1   5  -8 1746.60 586.193  10
   1   5  -8 2642.85 626.760   6
   1  -5  -7 30453.7 1467.17   7
   1   5  -7 32045.2 1582.80  18
   1  -5  -7 31832.3 1479.71  12
   1   5  -7 30229.6 1594.64   6
   1   5  -7 30579.7 1649.98  10
   1  -5  -7 31863.6 1539.29  13
   1  -5  -6 8325.48 719.818   7
   1   5  -6 8299.02 794.935  18
   1  -5  -6 8988.92 694.117  18
   1   5  -6 10334.9 914.108  10
   1   5  -6 8055.60 796.701   6
   1  -5  -6 9755.15 809.724  13
   1  -5  -6 10405.6 803.761  12
  -1  -5   5 84159.7 2655.48   2
   1   5  -5 85775.9 2292.42   6
   1   5  -5 86702.1 2260.73  10
   1   5  -5 86838.9 2233.67  18
   1  -5  -5 81777.8 3451.32   1
   1  -5  -5 85402.6 2058.98  13
  -1   5   4-188.209 284.037   1
  -1  -5   4 4.03930 219.962   2
   1   5  -4 104.003 321.932   6
   1  -5  -4 260.983 379.437   1
   1   5  -4-78.0849 244.598   2
  -1  -5   3 59748.3 2090.00   2
   1  -5  -3 61490.9 2411.18   1
  -1   5   3 62457.3 2387.70   1
   1  -5  -2 74.3207 301.754   1
   1   5  -2 169.284 287.229   2
  -1   5   1 87312.8 2253.76   1
   1   5  -1 84539.1 2240.81   2
   1  -5  -1 86879.9 2255.89   1
   1  -5   0 2747.13 421.700   1
  -1   5   0 2983.02 415.580   1
  -1   5  -1 23395.0 991.324   1
  -1  -5  -1 22913.0 1298.94   1
  -1  -5  -2 352.625 346.767   1
  -1   5  -2 186.076 173.118   2
  -1  -5  -3 212671. 3303.87   4
  -1   5  -3 204003. 2929.20   2
   1   5   3 213730. 4415.09   1
  -1  -5  -3 205895. 4512.06   1
  -1   5  -3 216628. 3267.57   6
  -1   5  -3 214029. 2979.97   5
   1   5   4 1518.62 519.481   1
  -1  -5  -4 1330.82 485.194   1
  -1   5  -4 1027.66 268.955   2
  -1   5  -4 1021.77 349.239   5
  -1   5  -4 1879.15 457.330   6
  -1  -5  -5 25459.4 1185.77  13
  -1   5  -5 25200.0 1569.66   1
  -1   5  -5 26785.1 1227.24  20
  -1  -5  -5 27450.4 1377.98  16
   1   5   5 29051.8 2042.39   1
  -1   5  -5 28734.2 1255.99  18
  -1  -5  -5 28057.0 2050.25   1
  -1   5  -5 25878.1 1344.89   6
  -1   5  -6 834.326 341.321  10
  -1  -5  -6 180.012 237.320  12
  -1   5  -6 284.508 245.912  18
  -1  -5  -6 840.983 416.110  16
  -1   5  -6 390.618 294.061  20
  -1  -5  -6 682.698 329.960  13
  -1   5  -6 476.680 312.480   6
  -1  -5  -7 94010.8 3033.24  16
  -1  -5  -7 95208.5 2732.02  13
  -1  -5  -7 96298.9 2754.58   7
  -1   5  -7 94923.8 2896.83  10
  -1   5  -7 95051.1 2610.95  18
  -1   5  -7 91937.2 2994.10   6
  -1   5  -7 98516.4 3050.75   5
  -1   5  -8 817.165 313.900  18
  -1  -5  -8 128.787 297.770   7
  -1   5  -8 256.780 376.918   6
  -1  -5  -8 431.777 417.571  16
  -1   5  -8 407.499 391.916   5
  -1   5  -8-18.5217 400.784  10
  -1  -5  -8 7.04489 398.332  13
  -1  -5  -9 26901.2 1894.46  16
  -1  -5  -9 30132.5 1773.76  13
  -1  -5  -9 29701.9 1818.64   7
  -1   5  -9 31952.4 1943.54   5
  -1   5  -9 29293.4 1879.69  10
  -1   5  -9 29332.6 1879.06   6
  -1   5 -10-67.8769 457.157  10
  -1  -5 -10 461.059 468.060  16
  -1  -5 -10-11.2536 398.152  13
  -1   5 -10-255.687 432.851   5
  -1   5 -10 390.136 474.459  13
  -1  -5 -10 131.908 368.339   7
  -1  -5 -11 50945.3 2466.25   7
  -1   5 -11 44338.7 2233.29   5
  -1  -5 -11 45981.4 2219.61  13
  -1  -5 -11 49197.5 2355.04   6
  -1   5 -11 48967.5 2262.24  13
  -1  -5 -12 40.1361 255.357   6
  -1   5 -12 144.960 273.194   5
  -1   5 -12 601.467 405.004  13
  -1  -5 -12-569.141 412.233  13
   1  -7 -12-148.791 332.558  13
   1   7 -12 53.8044 331.324  13
   1  -7 -12-147.139 404.707  16
  -1   7  12 92.5321 248.430  19
   1  -7 -12-842.150 320.633   6
  -1   7  11 32128.7 1683.30  19
   1  -7 -11 33295.9 1932.23  13
   1   7 -11 35530.1 1865.89   5
   1  -7 -11 30418.2 2098.57  16
   1   7 -11 37227.7 1779.24  18
   1   7 -11 32974.1 1848.05  13
   1   7 -10 29.9926 390.711  18
   1  -7 -10 322.123 537.884  16
   1   7 -10 210.308 297.274   5
   1  -7 -10 430.302 480.619  13
   1   7 -10 30.3858 445.173  10
   1  -7 -10-442.491 379.592   7
   1  -7  -9 51485.0 2291.03  12
   1   7  -9 51863.5 2239.33  18
   1  -7  -9 52910.0 2336.47   7
   1   7  -9 48481.5 2349.95  10
   1  -7  -9 50970.5 2314.18  13
   1   7  -9 53158.6 2308.16   5
   1  -7  -9 46088.1 2560.74  16
   1   7  -8 364.392 341.282  18
   1  -7  -8 536.289 400.510  12
   1  -7  -8 434.362 487.993  16
   1   7  -8 77.5726 414.375  10
   1  -7  -8 86.2454 253.663   7
   1  -7  -8 309.687 389.410  13
   1   7  -8 341.073 396.781   5
   1  -7  -7 17937.3 1189.83  12
   1   7  -7 16360.0 1167.86   5
   1   7  -7 15543.6 1166.01  18
   1  -7  -7 16392.6 1109.56   7
   1  -7  -7 17164.5 1392.89  16
   1  -7  -7 18240.1 1238.99  13
   1   7  -7 15013.9 1174.39  10
   1   7  -6 172.502 301.460  18
   1  -7  -6-241.402 304.048  13
   1   7  -6 35.6657 351.877  10
   1  -7  -6 8.83972 237.959  12
   1   7  -6 187.156 237.290   5
   1  -7  -5 79970.2 2179.24  12
   1   7  -5 79510.3 2179.07  10
   1   7  -5 82852.4 2977.90   2
   1   7  -5 76449.9 2063.50   5
   1   7  -5 80671.3 2268.22  18
   1  -7  -5 80585.9 2127.29  13
   1   7  -4 3289.63 569.002   2
   1  -7  -4 2847.50 425.610  13
   1   7  -4 3290.29 432.981   5
  -1   7   4 3771.85 770.368   1
   1  -7  -4 3645.92 474.774  12
   1   7  -4 3271.26 535.670  20
   1   7  -4 3975.37 502.978  18
   1  -7  -4 3624.40 796.243   1
  -1   7   3 33150.1 1933.51   1
   1  -7  -3 34028.1 2022.93   1
   1   7  -3 28302.8 1571.02   2
   1   7  -2 203.857 282.842   2
   1  -7  -2 312.210 385.932   1
  -1   7   2 344.338 336.949   1
   1   7  -1 99063.6 2888.18   1
  -1   7   1 101309. 2833.40   1
   1   7  -1 96525.7 2785.34   2
  -1   7   0 2227.58 456.864   1
   1   7   0 1828.97 465.041   1
   1   7   1 41696.8 1934.24   1
  -1  -7  -1 39804.4 1987.75   1
  -1   7  -1 37568.0 1540.21   1
   1   7   2 163.140 325.841   1
  -1  -7  -2 263.121 434.513   1
  -1   7  -2 231.025 216.194   2
  -1   7  -2 115.356 219.719   1
  -1  -7  -2 188.780 370.364   4
  -1   7  -2 73.5103 234.732   5
  -1  -7  -3 207900. 5188.00   1
  -1   7  -3 199165. 3398.67   2
  -1   7  -3 199692. 3087.13   5
  -1   7  -3 199283. 3735.04   1
  -1   7  -4 465.150 311.428   5
  -1  -7  -4 678.054 368.828  16
  -1  -7  -4 328.782 247.220  12
  -1  -7  -4 1341.51 508.468   1
  -1   7  -4 296.838 286.399  20
   1   7   4 279.591 281.128   1
  -1  -7  -4 644.663 316.138  13
  -1   7  -4 694.866 254.388  18
  -1   7  -4 366.594 215.562   2
  -1   7  -5 23067.3 1267.23   5
  -1  -7  -5 23669.0 1220.12  12
  -1  -7  -5 24297.6 1375.17  16
  -1   7  -5 22447.0 1198.39  20
  -1   7  -5 22815.3 1198.77  18
  -1  -7  -5 24619.2 1224.03  13
  -1  -7  -6 889.208 416.015  16
  -1   7  -6 398.648 304.238  18
  -1   7  -6 643.961 348.060  20
  -1  -7  -6 602.818 352.560  13
  -1   7  -6 599.136 330.744   5
  -1  -7  -6-146.252 285.090  12
  -1   7  -6 292.710 280.701  10
  -1   7  -7 90748.6 2856.70  10
  -1  -7  -7 95071.8 2750.80  12
  -1  -7  -7 92719.3 2771.63  13
  -1  -7  -7 90211.2 2747.72   7
  -1  -7  -7 86268.5 3020.29  16
  -1   7  -7 94327.5 2716.69  18
  -1   7  -7 92516.7 2922.99   5
  -1   7  -8 232.470 411.943  10
  -1  -7  -8-24.8501 434.585  16
  -1  -7  -8-57.7172 309.754   7
  -1  -7  -8-2.41996 396.665  13
  -1   7  -8-504.579 381.089   5
  -1   7  -8-238.959 317.702  18
  -1  -7  -9 10873.0 1275.43  16
  -1   7  -9 10763.3 1160.40   5
  -1  -7  -9 11037.3 1144.71   7
  -1   7  -9 13220.1 1276.03  10
  -1   7  -9 13229.9 1082.14  18
  -1  -7  -9 11062.9 1141.79  13
  -1  -7 -10 512.978 437.009   7
  -1   7 -10 1154.13 486.223   5
  -1   7 -10 127.777 417.920  10
  -1  -7 -10 163.690 442.683  16
  -1  -7 -10 896.513 558.080  13
  -1   7 -11 17389.8 1343.21  13
  -1  -7 -11 17208.1 1420.01   7
   1   7  11 18268.8 1279.22  19
  -1   7 -11 18698.3 1406.09   5
  -1  -7 -11 17202.4 1373.88  13
  -1  -7 -12-73.3098 282.092  13
  -1   7 -12-383.571 360.530  13
   1   7  12 101.367 251.046  19
   1  -9 -12-368.824 360.162  13
   1   9 -12 457.701 311.596  13
  -1   9  12 220.341 262.173  19
   1  -9 -11 22004.1 1552.12  13
   1   9 -11 21688.8 1333.41  18
  -1   9  11 21703.9 1361.39  19
   1  -9 -11 21672.5 1757.17  16
   1   9 -10 441.815 323.995   5
  -1   9  10 284.603 363.716  19
   1  -9 -10 225.383 351.131   7
   1  -9 -10 364.451 453.629  16
   1   9 -10 498.192 334.939  18
   1  -9 -10 1097.82 487.295  13
   1   9 -10 552.684 434.341  10
   1  -9  -9 57969.2 2581.83  12
   1   9  -9 60863.1 2406.45   5
   1   9  -9 59165.2 2422.87  18
   1  -9  -9 60608.1 2521.34   7
   1  -9  -9 57607.3 2857.05  16
   1  -9  -9 57548.8 2508.18  13
   1   9  -9 56399.9 2485.37  10
  -1   9   9 58990.5 2384.61  19
   1   9  -8 132.774 283.737   5
  -1   9   8-311.521 469.372  19
   1  -9  -8 248.411 464.159  16
   1  -9  -8 567.987 411.307  12
   1   9  -8 262.119 375.755  10
   1  -9  -8 181.707 363.541  13
   1  -9  -8 374.526 305.152   7
   1   9  -8 202.639 314.858  18
   1   9  -7 12928.7 1050.27   5
   1  -9  -7 15369.3 1194.89  13
   1  -9  -7 14242.7 1074.72   7
  -1   9   7 14427.8 1143.84  19
   1   9  -7 14186.3 1139.84  10
   1  -9  -7 14631.0 1332.63  16
   1  -9  -7 13085.3 1148.94  12
   1   9  -7 14314.2 1155.21  18
   1   9  -6 331.997 308.179   5
   1  -9  -6 547.580 381.020  12
   1   9  -6 427.921 275.429  10
   1  -9  -6 296.146 292.249  13
   1   9  -6-405.691 317.421  18
  -1   9   6 624.397 395.292  19
   1  -9  -6 318.236 419.628  16
   1  -9  -5 115560. 3012.95  16
   1  -9  -5 109668. 2677.16  13
  -1   9   5 109877. 2732.78  19
   1  -9  -5 118633. 4215.76  14
   1  -9  -5 110035. 2815.37  12
   1   9  -5 109763. 2790.88  18
   1   9  -5 111748. 2606.74   5
   1  -9  -4-2.97962 230.495  13
   1   9  -4 451.425 318.383  20
  -1   9   4 70.9972 333.775  19
   1  -9  -4 203.422 299.598  12
   1   9  -4-336.188 230.988   2
   1   9  -4 53.7690 263.754  18
   1   9  -4 47.5916 216.263   5
   1  -9  -4 189.223 308.785  16
   1   9  -3 30974.4 1960.20   1
   1  -9  -3 31943.8 1297.57  13
   1   9  -3 35639.3 1437.38  20
   1  -9  -3 32564.5 2232.72   1
   1   9  -3 29477.6 1779.11   2
   1  -9  -3 35404.8 1430.50  12
  -1   9   3 32942.0 1365.52  19
  -1   9   3 33775.4 2162.78   1
   1   9  -3 31595.2 1247.94   5
   1   9  -2 1176.21 465.218   2
   1   9  -2 1181.33 433.930   1
  -1   9   2 892.318 381.091   1
   1  -9  -2 419.204 336.253   1
  -1   9   2 573.015 324.613  19
   1  -9  -1 156881. 4207.60   1
  -1   9   1 161889. 4099.49   1
   1   9  -1 151315. 4045.61   1
   1   9  -1 157114. 4019.90   2
  -1   9   0 2655.79 526.919   1
   1   9   0 2241.55 539.740   1
  -1   9  -1 49141.8 2089.14   1
   1   9   1 52643.3 2463.41   1
  -1   9  -1 52247.8 2144.47   2
  -1  -9  -2-405.991 381.284   1
  -1   9  -2 50.6426 221.144   5
  -1   9  -2-538.623 263.769   1
  -1  -9  -2-36.7208 480.840  14
  -1   9  -2 173.065 227.631  20
   1   9   2 411.988 335.539  19
   1   9   2 609.821 349.359   1
  -1  -9  -2 139.286 283.460  12
  -1   9  -2 324.664 250.826   2
  -1   9  -3 197536. 3103.19  20
  -1   9  -3 200174. 3963.40   2
  -1  -9  -3 201873. 4574.86  14
  -1   9  -3 191600. 3283.29   5
  -1   9  -3 198147. 4141.84   1
  -1  -9  -3 190408. 3198.44  13
  -1  -9  -3 195049. 3433.93  12
   1   9   3 190118. 3265.34  19
  -1  -9  -3 202878. 3406.79  16
  -1  -9  -4 231.215 294.085  12
   1   9   4 19.8226 337.228  19
  -1   9  -4 138.999 265.245   5
  -1  -9  -4-71.6901 325.191  13
  -1   9  -4-53.4477 269.650  20
  -1  -9  -4-58.4926 532.145  14
  -1   9  -4 157.742 239.028  18
  -1  -9  -4 358.019 362.278  16
  -1  -9  -5 7748.68 837.282  16
  -1  -9  -5 7506.84 788.062  12
  -1   9  -5 7604.17 767.353  20
  -1   9  -5 8260.40 785.847  18
  -1  -9  -5 8012.58 789.794  13
  -1  -9  -5 8940.28 1132.79  14
  -1   9  -5 7852.68 791.416   5
  -1  -9  -6 2.18134 275.595  12
  -1   9  -6-111.271 322.789  20
  -1  -9  -6 196.879 346.901  13
  -1   9  -6-28.1051 295.706   5
  -1   9  -6 107.320 251.605  18
  -1  -9  -6 49.3288 418.628  16
  -1  -9  -7 62548.6 2376.77  13
  -1   9  -7 64464.2 2476.90   5
  -1  -9  -7 64412.1 2696.96  16
  -1   9  -7 61907.1 2399.39  10
  -1  -9  -7 65629.4 2482.09  12
  -1   9  -7 63404.1 2312.52  18
  -1   9  -8 160.345 430.167  10
  -1  -9  -8-58.5466 401.157  13
  -1   9  -8-252.718 403.819   5
  -1  -9  -8-146.456 504.829  16
  -1  -9  -8 608.736 409.400   7
  -1  -9  -8-447.466 407.110  12
  -1   9  -8 41.7460 225.229  18
  -1  -9  -9 22464.7 1561.66  13
   1   9   9 23218.1 1566.65  19
  -1  -9  -9 23047.8 1611.67   7
  -1   9  -9 22823.6 1599.62   5
  -1   9  -9 23958.4 1673.32  10
  -1   9  -9 23341.6 1447.04  18
  -1  -9  -9 19332.0 1664.75  16
  -1  -9 -10-130.964 342.600   7
  -1   9 -10-44.6862 387.188  10
  -1   9 -10-740.709 383.827   5
  -1  -9 -10-27.6918 360.753  13
   1   9  10 267.863 412.262  19
  -1   9 -11 29750.7 1641.47   5
   1   9  11 27563.9 1514.81  19
  -1  -9 -11 27318.6 1657.57  13
  -1   9 -11 26769.0 1576.63  13
  -1  -9 -11 28604.2 1766.74   7
   1 -11 -11 18051.0 1394.66  13
  -1  11  11 18453.9 1220.45  19
   1  11 -11 18413.5 1196.63  18
   1  11 -10-120.530 218.092  18
  -1  11  10-23.5872 372.184  19
   1 -11 -10-731.526 402.874  13
   1  11 -10-131.545 338.657  10
   1 -11 -10-734.011 530.766  16
   1  11  -9 40160.6 2027.96  18
   1  11  -9 42001.7 2087.84  10
   1 -11  -9 42116.0 2282.20  12
   1 -11  -9 42104.9 2453.62  16
  -1  11   9 41194.8 2019.73  19
   1 -11  -9 42694.9 2187.97  13
  -1  11   8-208.564 412.240  19
   1 -11  -8-254.067 590.139  16
   1 -11  -8-516.082 339.195   7
   1  11  -8-383.698 394.371  10
   1  11  -8 395.481 372.812  18
   1 -11  -8-687.318 474.365  12
   1 -11  -8 447.155 465.997  13
  -1  11   7 7201.33 885.718  19
   1 -11  -7 7733.66 825.748   7
   1  11  -7 7918.92 839.911   5
   1 -11  -7 6794.97 904.781  13
   1 -11  -7 6889.26 912.890  12
   1  11  -7 7309.41 839.985  10
   1  11  -7 7849.14 923.698  18
   1 -11  -7 6698.91 957.751  16
   1  11  -6 607.290 341.213  10
   1  11  -6 1163.36 384.795   5
   1 -11  -6 339.081 448.356  16
   1  11  -6 447.067 355.233  18
   1 -11  -6 859.477 721.670  14
  -1  11   6 910.124 454.269  19
   1 -11  -6 740.893 421.930  12
   1 -11  -6 410.450 379.898  13
   1 -11  -5 116097. 3164.93  16
  -1  11   5 121073. 3051.80  19
   1 -11  -5 118035. 3202.91  12
   1  11  -5 122143. 2928.79   5
   1  11  -5 119143. 3069.82  18
   1 -11  -5 115808. 2991.36  13
   1 -11  -5 127355. 4624.93  14
   1 -11  -4-42.2024 326.039  12
   1  11  -4 155.085 229.246  18
   1  11  -4-67.0140 297.490  20
   1 -11  -4-173.866 304.099  16
  -1  11   4 107.612 316.255  19
   1 -11  -3 9551.28 781.919  16
   1 -11  -3 9968.27 721.090  15
   1  11  -3 8592.46 1115.70   1
   1 -11  -3 9666.81 868.088  12
  -1 -11   3 9889.26 881.905  14
   1  11  -3 8108.10 1026.49   2
   1  11  -3 10904.3 855.576  20
  -1  11   3 8981.55 812.960  19
   1  11  -2 264.050 368.750   1
  -1  11   2 878.440 361.832  19
   1 -11  -2 619.759 226.462  15
  -1 -11   2 736.583 471.352  14
   1  11  -2 1942.60 493.278   2
   1  11  -2 716.242 335.685  20
   1 -11  -2 503.613 313.571  12
  -1  11   1 279330. 6056.90   1
   1  11  -1 268959. 5871.56   2
   1  11  -1 265577. 3559.78  20
  -1  11   1 265984. 3892.14  19
   1  11  -1 268870. 6020.67   1
   1  11  -1 264966. 3644.64  19
   1 -11  -1 257335. 3883.74  12
  -1 -11   1 256695. 4782.93  14
   1 -11  -1 257891. 5549.53  14
   1  11   0 72.9385 237.114  19
   1 -11   0 750.460 601.219  14
  -1 -11   0-57.7948 498.218  14
  -1  11   0-114.874 271.170  19
  -1  11   0 425.364 336.252   1
  -1  11  -1 23998.5 1042.76  20
  -1 -11  -1 23962.7 1085.09  15
  -1  11  -1 22985.4 1635.91   1
   1  11   1 24761.0 1179.19  19
   1 -11   1 25314.7 1683.75  14
  -1 -11  -1 24238.3 1633.69  14
  -1  11  -1 25139.3 1685.42   2
  -1 -11  -2 554.842 300.836  16
  -1  11  -2-101.820 130.624   2
  -1  11  -2 565.331 324.871   1
  -1  11  -2 661.202 278.501  20
  -1 -11  -2 1004.55 343.092  15
   1  11   2 636.444 305.742  19
  -1 -11  -2 856.258 592.800  14
   1  11   3 163154. 3268.92  19
  -1 -11  -3 170304. 3093.05  15
  -1 -11  -3 168317. 4546.51  14
  -1 -11  -3 167735. 3294.69  16
  -1  11  -3 168143. 3092.07  20
  -1 -11  -3 165752. 3541.75  12
   1  11   4 1214.36 472.437  19
  -1 -11  -4 1488.46 443.856  12
  -1 -11  -4 1490.63 435.584  13
  -1 -11  -4 1398.53 702.636  14
  -1 -11  -4 1261.54 410.526  16
  -1  11  -4 920.751 372.259  20
  -1  11  -4 1568.23 441.891   5
  -1 -11  -5 8087.98 912.247  12
  -1 -11  -5 7250.31 837.627  13
  -1  11  -5 8259.58 823.230  18
  -1  11  -5 8037.69 834.628  20
   1  11   5 8913.86 916.409  19
  -1 -11  -5 7735.53 832.039  16
  -1  11  -5 7033.60 791.685   5
  -1 -11  -5 6969.22 1142.44  14
  -1 -11  -6-108.692 397.287  13
  -1 -11  -6-765.183 523.610  14
  -1  11  -6 101.432 300.116   5
  -1  11  -6 79.5783 377.494  20
   1  11   6-175.808 450.690  19
  -1 -11  -6 364.168 395.663  12
  -1 -11  -6-264.540 394.503  16
  -1  11  -6-342.139 300.434  18
  -1  11  -7 54254.0 2221.01  18
  -1 -11  -7 53719.2 2536.06  16
  -1  11  -7 56639.4 2279.89  10
  -1  11  -7 54954.6 2310.79   5
  -1 -11  -7 55876.2 2341.57  13
   1  11   7 58417.8 2386.40  19
  -1 -11  -7 56239.8 2463.62  12
  -1  11  -8 362.168 260.063  18
  -1 -11  -8 258.384 307.406   7
  -1 -11  -8 219.037 407.925  13
  -1 -11  -8 103.386 470.705  16
   1  11   8-1044.58 511.948  19
  -1  11  -8-45.0844 301.086   5
  -1  11  -8 323.925 396.300  10
  -1 -11  -9 22628.0 1615.10  13
   1  11   9 23718.5 1552.09  19
  -1 -11  -9 22660.5 1781.70  16
  -1  11  -9 22663.2 1540.42   5
  -1  11  -9 22945.2 1430.13  18
  -1 -11  -9 23642.5 1596.87   7
  -1  11  -9 24060.7 1605.98  10
  -1  11 -10 1034.64 396.961   5
  -1  11 -10-73.2185 317.117  10
  -1 -11 -10-200.740 317.166   7
   1  11  10 418.049 425.540  19
  -1 -11 -10 219.383 411.094  13
   1  11  11 19360.9 1212.61  19
  -1 -11 -11 19312.7 1304.00  15
  -1  11 -11 20613.3 1302.39  13
  -1  13  11 18148.6 1138.73  19
   1 -13 -11 17167.6 1165.54  15
   1  13 -11 15696.0 1016.26  18
   1  13 -10-84.3793 198.978  18
   1 -13 -10 323.314 279.474  15
   1  13 -10 377.476 329.717  10
   1 -13  -9 28779.6 1979.80  16
   1 -13  -9 28870.2 1643.10  15
   1  13  -9 30386.6 1715.67  18
   1  13  -9 30817.8 1706.76  10
  -1  13   9 30758.7 1732.50  19
   1 -13  -8 2048.31 640.380  16
   1  13  -8 2964.59 564.507  10
  -1  13   8 2181.03 583.575  19
   1 -13  -8 2794.86 709.784  12
   1  13  -8 2679.92 596.890  18
   1  13  -7 7095.49 893.152  18
   1  13  -7 7254.71 834.281  10
  -1  13   7 7650.64 920.566  19
   1 -13  -7 7249.05 975.312  12
   1 -13  -7 6523.36 942.450  16
   1 -13  -6 2813.94 969.072  14
  -1  13   6 2110.87 544.168  19
   1 -13  -6 2453.87 516.519  15
   1 -13  -6 1931.23 589.529  12
   1 -13  -6 1745.78 559.218  16
   1  13  -6 2349.70 558.938  18
   1  13  -6 2490.53 500.181  10
  -1  13   5 113595. 3142.94  19
   1 -13  -5 115386. 2873.08  15
   1 -13  -5 114137. 3405.30  12
   1 -13  -5 118311. 3276.97  16
   1  13  -5 111283. 3089.40  18
   1 -13  -4 14.4587 383.992  12
  -1  13   4 133.653 424.318  19
   1 -13  -4 120.724 812.614  14
   1 -13  -4-344.968 301.871  16
   1 -13  -4-97.5198 221.873  15
   1  13  -4 137.557 274.457  18
   1  13  -3 8148.33 795.177  20
   1 -13  -3 7704.73 879.681  12
  -1  13   3 6610.01 768.162  19
  -1 -13   3 6904.69 856.543  14
   1 -13  -3 6789.66 686.041  16
   1 -13  -3 7032.08 659.280  15
   1 -13  -2 2144.68 939.010  14
   1  13  -2 2770.08 464.072  20
   1 -13  -2 1765.24 485.445  12
   1 -13  -2 1983.13 370.229  15
  -1 -13   2 1326.44 514.272  14
  -1  13   2 1442.79 428.342  19
   1  13  -1 150343. 2867.78  20
  -1 -13   1 140665. 3826.66  14
   1  13  -1 149763. 3017.04  19
  -1  13   1 146675. 3170.07  19
  -1  13   0 5135.00 646.218  19
   1  13   0 4733.58 615.342  19
   1 -13   0 5126.71 1034.30  14
  -1 -13   0 5287.58 945.235  14
  -1  13   0 4925.29 518.537  20
  -1 -13  -1 3018.55 797.809  14
   1  13   1 3463.12 540.914  19
  -1  13  -1 3614.45 496.085  20
   1 -13   2-511.858 487.559  14
  -1 -13  -2 234.577 577.515  14
  -1  13  -2-61.4727 248.267  20
  -1 -13  -2 240.912 264.870  15
   1  13   2 312.781 361.775  19
   1 -13   3 151415. 3816.43  14
  -1  13  -3 159401. 3248.18  20
  -1 -13  -3 155808. 4660.64  14
   1  13   3 158860. 3452.55  19
  -1 -13  -3 157602. 3262.78  15
  -1 -13  -4 383.611 333.883  15
  -1  13  -4 693.519 378.195  20
   1  13   4 1134.73 413.579  19
  -1 -13  -4 1477.93 746.021  14
  -1 -13  -4 1092.70 428.485  16
  -1  13  -4 378.424 281.597  18
  -1  13  -5 4287.19 673.046  18
  -1 -13  -5 4156.42 620.859  15
  -1 -13  -5 4079.33 722.127  16
  -1 -13  -5 4465.44 1054.77  14
   1  13   5 3974.82 682.760  19
  -1  13  -5 4564.58 704.174  20
   1  13   6 141.577 463.671  19
  -1 -13  -6-313.283 576.948  14
  -1  13  -6 181.392 290.354  10
  -1 -13  -6 168.525 413.124  16
  -1  13  -6-252.809 309.527  18
  -1 -13  -6 372.044 329.720  15
   1  13   7 62495.5 2497.24  19
  -1  13  -7 59221.8 2375.08  18
  -1  13  -7 57067.8 2292.14  10
  -1 -13  -7 57323.8 2320.86  15
  -1 -13  -7 57987.9 2658.87  16
  -1  13  -7 61939.3 2455.34   5
  -1  13  -8 290.567 290.596  18
  -1 -13  -8 1486.20 429.444   7
   1  13   8 338.999 366.943  19
  -1  13  -8 198.131 288.493   5
  -1 -13  -8 805.430 390.124  15
  -1  13  -8 566.819 392.400  10
  -1 -13  -9 12917.5 1138.02  15
   1  13   9 13125.9 1145.89  19
  -1  13  -9 14862.2 1125.61  18
  -1 -13  -9 14570.8 1239.07   7
  -1  13  -9 15176.7 1210.90  10
  -1 -13 -10 173.307 297.178  15
   1  13  10 779.774 359.779  19
  -1  13 -10-151.590 278.885  10
   1 -15 -10 523.160 285.038  15
   1  15 -10 48.1086 188.437  10
  -1  15  10-11.5505 222.785  19
   1 -15  -9 20038.5 1322.09  15
  -1  15   9 24903.1 1502.39  19
   1  15  -9 23846.3 1460.33  18
   1  15  -9 24493.5 1390.31  10
  -1  15   8-9.89896 355.281  19
   1  15  -8-278.518 290.384  10
   1  15  -8 277.663 336.757  18
   1 -15  -8-111.202 323.656  15
  -1  15   7 26320.9 1650.04  19
   1 -15  -7 24558.9 1478.36  15
   1 -15  -7 25145.5 1727.41  16
   1  15  -7 27182.5 1692.77  18
   1 -15  -7 27428.3 2059.36  14
   1  15  -7 26020.5 1444.65  10
  -1  15   6 2617.18 656.916  19
   1 -15  -6 2257.66 518.287  15
   1  15  -6 3783.01 565.098  10
   1  15  -6 2243.52 562.371  18
   1 -15  -6 2324.88 571.528  16
   1 -15  -6 2519.53 873.764  14
   1  15  -5 62035.5 2041.72  10
   1 -15  -5 58566.5 2342.27  16
   1 -15  -5 56841.3 3348.57  14
   1 -15  -5 58267.7 2130.77  15
   1  15  -5 57789.2 2320.67  18
  -1  15   5 55946.7 2333.81  19
  -1  15   4 815.743 484.726  19
   1 -15  -4 1035.73 399.101  16
   1 -15  -4 683.382 326.417  15
   1  15  -4-376.743 349.887  18
   1 -15  -4 854.832 855.676  14
  -1 -15   3 7574.09 940.408  14
  -1  15   3 9633.35 1009.94  19
   1 -15  -3 8483.46 772.807  15
   1 -15  -3 8950.20 1453.76  14
   1 -15  -2 1571.21 876.712  14
  -1 -15   2 969.287 525.440  14
  -1  15   2 387.056 357.031  19
  -1 -15   1 146256. 4153.16  14
  -1  15   1 149740. 3478.81  19
  -1  15   0-59.8561 348.890  19
   1  15   0 112.571 348.015  19
  -1 -15   0 235.763 581.852  14
  -1  15   0-46.7871 235.149  20
  -1  15  -1 336.682 332.407  20
   1 -15   1 303.315 602.167  14
   1  15   1 287.874 382.371  19
  -1 -15  -1-10.4303 624.298  14
  -1 -15  -2 2521.52 883.235  14
   1  15   2 2644.13 576.739  19
  -1  15  -2 2290.39 471.312  20
   1 -15   2 2679.18 838.975  14
   1  15   3 104538. 2982.72  19
   1 -15   3 103161. 3281.07  14
  -1 -15  -3 102317. 2808.12  15
  -1 -15  -3 100939. 3938.19  14
  -1  15  -3 99872.7 2756.85  20
   1  15   4-563.061 473.172  19
  -1 -15  -4 277.172 296.733  15
  -1  15  -4 390.646 331.099  18
  -1  15  -4-4.22487 346.567  20
  -1 -15  -4-44.9400 695.711  14
   1  15   5 9508.78 1025.86  19
  -1  15  -5 8210.56 914.303  18
  -1 -15  -5 8124.48 892.562  15
  -1 -15  -5 7286.30 1223.74  14
  -1 -15  -6 256.977 361.687  15
  -1  15  -6 610.907 341.213  10
  -1 -15  -6-173.512 681.803  14
   1  15   6 1424.93 577.127  19
  -1  15  -6 472.669 392.443  18
  -1  15  -7 74001.8 2502.03  10
  -1  15  -7 72160.7 2594.38  18
  -1 -15  -7 69826.1 2536.40  15
   1  15   7 75689.7 2728.69  19
  -1  15  -8 669.321 314.819  18
  -1 -15  -8 606.900 391.465  15
  -1  15  -8 469.778 357.180  10
   1  15   8 790.560 399.830  19
  -1  15  -9 9941.62 871.479  18
  -1  15  -9 11884.0 991.699  10
  -1 -15  -9 12040.9 1036.01  15
   1  15   9 12131.7 1038.89  19
  -1  15 -10-409.980 263.600  10
   1  15  10-103.968 294.399  19
  -1 -15 -10 35.0416 186.830  15
  -1  17   9 23392.5 1350.39  19
   1  17  -9 22931.8 1319.27  18
   1 -17  -9 21639.5 1252.27  15
   1 -17  -8-461.636 306.546  15
  -1  17   8-848.869 418.693  19
  -1  17   7 17818.1 1343.23  19
   1  17  -7 17043.1 1289.89  18
   1 -17  -7 18421.4 1663.11  14
   1 -17  -7 18373.0 1236.05  15
   1 -17  -6 157.012 256.332  15
   1 -17  -6 338.129 604.466  14
  -1  17   6-917.026 486.207  19
   1  17  -6 14.9221 292.949  18
  -1  17   5 62058.0 2512.53  19
   1 -17  -5 58994.6 3340.12  14
   1 -17  -5 59938.7 2202.10  15
   1  17  -5 59157.9 2395.91  18
   1 -17  -4 553.836 807.624  14
  -1  17   4 148.809 499.128  19
   1  17  -4 990.135 395.569  18
  -1 -17   3 5901.94 895.224  14
   1  17  -3 6808.57 804.578  18
  -1  17   3 6064.81 886.640  19
   1 -17  -3 5751.84 1240.85  14
  -1 -17   2 89.9382 479.748  14
  -1  17   2-28.9695 417.147  19
   1 -17  -2-268.686 855.745  14
   1 -17  -1 112702. 4326.40  14
  -1  17   1 115297. 3260.71  19
  -1 -17   1 112564. 3804.56  14
  -1 -17   0 24.8443 601.451  14
   1  17   0 150.741 391.860  19
   1 -17   0-95.6889 679.665  14
   1  17   1 358.221 404.605  19
   1 -17   1-3.68186 628.643  14
  -1  17  -1 999.264 343.000  20
  -1 -17  -1 345.686 631.799  14
   1  17   2 1557.97 557.363  19
   1 -17   2 1443.96 678.112  14
  -1  17  -2 1373.80 450.530  20
  -1 -17  -2 1457.83 781.549  14
  -1 -17  -3 77669.2 3557.52  14
  -1  17  -3 76847.7 2521.85  20
   1  17   3 78132.5 2703.94  19
   1 -17   3 75437.0 2866.92  14
  -1 -17  -4 827.179 675.270  14
   1  17   4 1431.11 541.402  19
  -1  17  -4 1578.58 462.631  18
  -1  17  -5 1554.84 454.164  18
   1  17   5 1618.56 589.348  19
  -1 -17  -5 1867.19 764.235  14
  -1 -17  -5 2379.86 515.215  15
   1  17   6 1287.88 479.958  19
  -1 -17  -6 665.149 590.542  14
  -1  17  -6 975.646 395.382  18
  -1 -17  -6 682.765 360.196  15
  -1  17  -6 1330.87 382.763  10
   1  17   7 42226.1 1977.02  19
  -1  17  -7 42360.0 1918.28  18
  -1 -17  -7 39426.3 1865.13  15
  -1  17  -7 39771.6 1729.87  10
  -1  17  -8 111.803 205.915  10
   1  17   8 337.502 317.089  19
  -1  17  -8 358.674 226.593  18
   1  17   9 7101.52 756.029  19
  -1  17  -9 7478.08 690.697  18
  -1 -17  -9 7847.35 762.467  15
  -1  17  -9 6827.71 693.529  10
   1  19  -8 590.760 269.066  18
  -1  19   8 433.045 305.405  19
   1 -19  -7 8027.56 1042.51  14
  -1  19   7 9689.43 953.661  19
  -1  19   6 581.107 453.561  19
   1 -19  -6 531.862 594.549  14
   1  19  -6 50.4464 273.663  18
   1  19  -5 61423.6 2407.45  18
  -1  19   5 63839.5 2495.50  19
   1 -19  -5 64148.6 3296.64  14
  -1  19   4-452.248 478.934  19
   1  19  -4 241.352 300.805  18
   1 -19  -4-86.1215 610.545  14
   1  19  -3 8194.31 876.969  18
  -1  19   3 9029.46 1043.89  19
  -1 -19   3 9971.26 1054.96  14
   1 -19  -3 11266.3 1545.32  14
   1 -19  -2 211.281 809.415  14
  -1  19   2 131.656 441.342  19
  -1 -19   2-309.690 461.986  14
  -1 -19   1 91733.0 3448.03  14
   1 -19  -1 92028.1 3901.93  14
  -1 -19   0 399.101 597.324  14
   1 -19   0 481.044 707.974  14
  -1 -19  -1 998.168 661.613  14
   1  19   1 737.880 429.402  19
   1 -19   1 506.756 637.240  14
  -1 -19  -2 414.485 624.190  14
   1 -19   2 12.8102 437.027  14
   1  19   2 363.665 419.044  19
  -1  19  -3 66675.8 2448.96  18
   1 -19   3 67126.6 2644.67  14
   1  19   3 67627.2 2552.00  19
  -1 -19  -3 63167.8 3172.92  14
  -1  19  -4 74.2460 341.166  18
   1  19   4-129.921 395.173  19
  -1 -19  -4 673.312 638.570  14
  -1 -19  -5 4637.99 915.692  14
  -1  19  -5 4771.33 705.628  18
   1  19   5 4947.89 795.065  19
   1  19   6-171.931 317.480  19
  -1  19  -6 394.954 310.387  18
  -1 -19  -6 894.439 551.905  14
  -1  19  -7 37832.3 1685.05  18
   1  19   7 38810.9 1756.18  19
   1  21  -6 221.277 269.864  18
   1 -21  -6-24.0958 336.499  14
  -1  21   6 240.644 351.324  19
   1  21  -5 54110.2 2094.02  18
   1 -21  -5 54013.1 2722.79  14
  -1  21   5 57508.4 2236.65  19
   1  21  -4 258.073 278.396  18
  -1  21   4-114.759 360.308  19
   1 -21  -4 115.917 511.137  14
   1  21  -3 4954.37 675.749  18
  -1 -21   3 5582.40 798.584  14
   1 -21  -3 4002.92 950.851  14
  -1 -21   2 258.464 427.445  14
   1 -21  -2 149.055 615.324  14
   1  21  -2-165.717 264.650  18
  -1 -21   1 66519.8 2818.17  14
   1 -21  -1 69208.0 3225.57  14
  -1 -21   0 416.135 568.666  14
   1 -21   0-886.656 619.278  14
  -1 -21  -1 266.061 556.372  14
   1 -21   1 1374.83 623.143  14
   1 -21   2 910.021 515.589  14
  -1  21  -2-42.0681 284.724  18
  -1 -21  -2 25.0938 536.105  14
  -1  21  -3 66719.2 2373.89  18
   1  21   3 66354.1 2443.82  19
  -1 -21  -3 67913.6 3077.22  14
   1  21   4 962.626 449.301  19
  -1  21  -4 403.018 292.255  18
  -1 -21  -4 124.121 488.167  14
  -1 -21  -5-318.654 407.152  14
   1  21   5 426.280 367.427  19
  -1  21  -6 436.875 244.053  18
   1  21   6 287.891 338.888  19
  -1 -21  -6 747.647 440.769  14
   1  23  -4 1031.31 347.778  18
   1 -23  -4 505.312 506.686  14
   1  23  -3 2983.29 506.324  18
   1 -23  -3 2558.44 706.424  14
  -1 -23   2 1647.94 457.568  14
   1 -23  -2 1007.60 558.901  14
   1  23  -2 1864.64 419.728  18
   1  23  -1 56223.5 2027.37  18
   1 -23  -1 53780.6 2518.71  14
  -1 -23   1 57963.8 2353.69  14
   1 -23   0 324.063 506.770  14
  -1 -23   0 554.916 434.058  14
   1  23   0-78.2022 220.621  18
  -1 -23  -1 5.67082 438.261  14
   1 -23   1-84.5294 375.804  14
   1  23   1 1321.06 341.756  18
  -1  23  -1 418.548 305.081  18
  -1 -23  -2-103.036 421.595  14
  -1  23  -2-116.870 251.584  18
  -1  23  -3 54741.2 1984.24  18
  -1 -23  -3 52908.3 2390.16  14
  -1 -23  -4 578.878 417.203  14
  -1  23  -4-110.801 243.421  18
   2   0 -13-445.630 306.881   5
   2   0 -13 425.085 327.505  13
   2   0 -12 14766.4 1293.80  13
   2   0 -11-44.5409 277.308   6
   2   0 -11-65.4268 442.475  13
   2   0 -10 29224.3 1724.06   6
   2   0 -10 27497.1 1768.82  13
   2   0 -10 26499.5 1886.72  16
   2   0 -10 29421.5 1657.16  18
   2   0  -9-50.3577 345.990  13
   2   0  -9-2.39617 376.968   6
   2   0  -9 112.333 264.961  18
   2   0  -8 57440.5 2117.99  18
   2   0  -8 57909.5 2212.32  13
   2   0  -8 55431.7 2224.75   7
   2   0  -7 71.4674 287.166  18
   2   0  -7-327.521 230.657  12
   2   0  -7-174.860 288.423   7
   2   0  -7 178.888 322.694  13
  -2   0   6 185099. 4524.92   2
   2   0  -6 181168. 3796.88  10
   2   0  -6 185071. 3357.81   7
   2   0  -6 188110. 3252.29  18
   2   0  -6 190181. 5546.00   1
  -2   0   5-514.383 299.606   2
   2   0  -5-28.8165 247.479   7
   2   0  -5 245.097 416.225   1
   2   0  -4 1846.08 520.019   1
  -2   0   4 1225.39 395.551   2
   2   0  -3 57.9260 293.746   2
  -2   0   3 66.2114 263.887   2
   2   0  -2 161643. 2849.35   2
   2   0  -1-59.9327 146.293   2
  -2   0   0 2261.23 248.710   2
   2   0   0 2607.24 265.777   2
   2   0   1 39.1394 105.499   1
  -2   0  -1-7.79139 116.455   1
   2   0   1 10.7255 111.077   2
  -2   0  -2 279898. 2980.91   1
   2   0   2 287559. 3095.53   1
  -2   0  -3 83.9104 193.318   1
   2   0   3 23.9274 147.623   2
   2   0   4 852.526 264.411   2
  -2   0  -4 873.105 330.500   1
  -2   0  -4 587.376 266.823   7
  -2   0  -5 87.6636 194.343   7
  -2   0  -5 211.317 328.216  10
   2   0   5 107.340 134.853   2
  -2   0  -5-189.306 215.549   1
  -2   0  -6 178812. 3347.63  16
  -2   0  -6 169080. 3464.48   7
  -2   0  -6 170300. 3545.81  10
  -2   0  -7-559.261 276.333  16
  -2   0  -7 179.723 331.797  10
  -2   0  -7-101.990 307.955  13
  -2   0  -7-29.2080 265.962   7
  -2   0  -8 20511.9 1473.53  10
  -2   0  -8 18966.0 1385.57  13
  -2   0  -8 19658.1 1363.00  16
  -2   0  -8 19911.4 1471.64   7
  -2   0  -9 206.392 350.063   7
  -2   0  -9 167.596 419.454   6
  -2   0  -9 5.48373 396.226  13
  -2   0 -10 48562.1 2487.73   6
  -2   0 -10 48788.0 2367.08  13
  -2   0 -11-3.49142 341.009   5
  -2   0 -11-203.768 350.506   6
  -2   0 -11 397.482 417.615  13
  -2   0 -12 20136.5 1416.66   6
  -2   0 -12 20378.6 1386.63  13
  -2   0 -12 20124.0 1510.60   5
  -2   2  13 214.584 220.819  19
   2   2 -13-140.637 252.568  13
   2  -2 -13 184.158 313.700  13
   2  -2 -12 15444.0 1339.02  16
   2   2 -12 15591.0 1300.81   5
   2   2 -12 16118.2 1319.40  13
   2  -2 -12 14667.2 1277.61  13
   2  -2 -11-71.8127 394.106  13
   2  -2 -11 229.776 286.903   6
   2   2 -11 1139.30 357.905  18
   2   2 -11 1139.10 414.133   6
   2   2 -11 399.861 415.136  13
   2  -2 -11 119.242 463.069  16
   2  -2 -10 34189.7 1744.77  18
   2   2 -10 29139.4 1796.71  13
   2  -2 -10 29205.4 1816.93  13
   2  -2 -10 31529.7 1794.77   6
   2  -2 -10 26250.7 1942.70  16
   2   2 -10 33417.1 1783.00  18
   2   2 -10 30428.1 1771.31   6
   2   2  -9 507.343 358.425   6
   2   2  -9 414.927 402.767  13
   2  -2  -9 425.193 505.517  13
   2   2  -9 59.3364 276.099  18
   2  -2  -9 406.655 317.006   7
   2  -2  -9 47.1544 249.712  18
   2  -2  -8 38294.4 1686.96  18
   2  -2  -8 41936.7 1712.39  12
   2   2  -8 39452.4 1809.29   6
   2   2  -8 39702.9 1827.51  18
   2   2  -8 42111.6 2160.96  10
   2  -2  -8 38735.9 1817.65  13
   2  -2  -8 39389.2 1836.00   7
   2   2  -7 45.2437 291.239   6
   2  -2  -7 47.2773 230.896  18
   2  -2  -7-17.9409 286.965   7
   2  -2  -7-412.954 333.271  13
   2   2  -7-90.8123 295.083  18
   2   2  -7-101.316 362.283  10
   2  -2  -7-103.803 224.052  12
   2  -2  -6 271683. 3873.45   7
   2  -2  -6 282680. 3950.39  13
   2   2  -6 275733. 4642.15  10
   2  -2  -6 284619. 3877.85  18
   2   2  -6 276080. 4135.12  18
   2  -2  -6 287200. 3798.03  12
  -2   2   6 282897. 5876.80   2
   2  -2  -6 288647. 6830.58   1
  -2  -2   6 279257. 5298.78   2
   2   2  -6 276529. 3987.06   6
   2   2  -6 279685. 6833.06   1
   2  -2  -5 333.885 260.296   7
  -2   2   5 1025.77 396.918   2
   2   2  -5 269.723 267.700   6
   2  -2  -5 226.448 302.306   1
  -2  -2   5 294.577 297.558   2
  -2  -2   4 1125.47 337.189   2
  -2   2   4 938.793 393.659   2
   2  -2  -4 1152.65 454.646   1
   2  -2  -3 19.8608 272.208   1
   2   2  -3 138.383 338.127   2
  -2  -2   3 73.9103 257.851   2
   2   2  -2 420554. 4899.52   2
   2  -2  -2 439003. 4892.74   1
   2  -2  -1 68.7357 167.445   1
   2   2  -1 192.683 211.482   2
  -2   2   0 1041.60 196.311   2
   2  -2   0 983.428 140.622   1
   2   2   0 827.485 261.270   2
   2   2   1 1000.02 265.624   1
  -2  -2  -1 705.632 272.999   1
  -2  -2  -2 228066. 3473.03   1
  -2   2  -2 218980. 1956.97   1
   2   2   2 226892. 3326.11   1
  -2  -2  -3 3238.58 522.624   1
  -2   2  -3 3174.60 370.546   1
   2   2   3 4280.09 596.051   1
  -2  -2  -4 11482.0 718.342   4
   2   2   4 11675.6 1051.24   1
  -2   2  -4 11907.9 819.300   1
  -2   2  -4 12232.1 809.954   7
  -2  -2  -4 11275.9 1016.85   1
   2  -2   4 11282.9 499.236   2
  -2   2  -5-74.8812 292.426   7
  -2  -2  -5-35.4027 246.560  13
  -2  -2  -5 100.658 286.616  16
  -2  -2  -5-294.901 321.860   1
   2   2   5-8.64300 206.833   2
  -2  -2  -5-323.513 291.827  10
  -2   2  -5-336.138 282.359  10
  -2   2  -5 396.503 234.644   1
  -2   2  -6 158486. 3501.12   7
  -2  -2  -6 156088. 3385.13  10
  -2  -2  -6 162272. 3365.17  16
  -2   2  -6 161997. 3435.96  10
  -2  -2  -6 153844. 3228.58   7
  -2   2  -6 159868. 3627.49   6
  -2  -2  -6 156065. 3185.78  13
  -2  -2  -7 195.477 346.591  13
  -2  -2  -7 203.364 254.626  16
  -2  -2  -7-324.723 352.188   7
  -2   2  -7-67.6194 350.658   7
  -2   2  -7 197.446 371.973  10
  -2  -2  -7 382.819 365.463  10
  -2   2  -7 604.343 416.972   6
  -2  -2  -8 18776.3 1394.15  16
  -2   2  -8 19334.6 1472.25   7
  -2  -2  -8 17042.6 1351.96   7
  -2   2  -8 18603.5 1421.42  10
  -2   2  -8 19055.1 1503.59   6
  -2  -2  -8 19163.7 1368.01  13
  -2  -2  -9 137.548 467.344  13
  -2  -2  -9 267.575 392.630   7
  -2   2  -9 252.824 413.024  13
  -2   2  -9-649.639 491.577   6
  -2   2  -9-279.408 475.134  10
  -2  -2  -9 130.051 363.406  16
  -2  -2 -10 51762.3 2522.70   7
  -2   2 -10 50058.2 2523.62   6
  -2   2 -10 53193.3 2706.21   5
  -2  -2 -10 50568.7 2521.58   6
  -2  -2 -10 49782.6 2368.78  13
  -2   2 -10 48823.9 2346.17  13
  -2  -2 -11-349.673 336.577  13
  -2   2 -11-596.930 392.653   6
  -2   2 -11 2.71269 373.662  13
  -2   2 -11-293.374 401.396   5
  -2  -2 -11 553.615 407.737   6
  -2   2 -12 18738.0 1328.66  13
  -2  -2 -12 22763.4 1662.53   5
  -2   2 -12 20560.4 1483.44   5
  -2  -2 -12 21206.3 1417.19   6
  -2  -2 -12 20234.5 1376.05  13
   2  -4 -13-389.509 303.899  13
   2   4 -13 94.9381 318.677  13
  -2   4  13 113.608 225.536  19
   2   4 -12 27632.7 1635.05   5
   2   4 -12 25272.5 1601.33  13
   2  -4 -12 28383.9 1584.83   6
   2  -4 -12 26077.1 1836.54  16
   2  -4 -12 27037.3 1702.90  13
   2  -4 -11 476.580 532.340  16
   2  -4 -11 562.621 389.215   6
   2   4 -11 169.287 353.627   5
   2   4 -11 562.788 360.393  18
   2  -4 -11 497.184 458.568  13
   2   4 -11 353.066 400.902  13
   2  -4 -10 26540.2 1745.98   7
   2   4 -10 28816.8 1695.19  18
   2  -4 -10 22419.2 1851.27  16
   2  -4 -10 28340.0 1794.50  13
   2   4 -10 26993.0 1737.45  13
   2   4 -10 28883.6 1724.00   6
   2   4  -9 2263.72 541.849  18
   2  -4  -9 2097.76 586.814  13
   2   4  -9 2382.34 673.434  10
   2  -4  -9 1341.46 391.436  12
   2  -4  -9 1398.44 472.769   7
   2  -4  -9 1595.35 470.379  18
   2   4  -9 1844.58 511.507   6
   2  -4  -8 46585.2 1832.98  18
   2  -4  -8 47290.7 1982.08   7
   2   4  -8 44197.9 2163.52  10
   2  -4  -8 48923.4 1936.98  12
   2  -4  -8 48718.7 2041.86  13
   2   4  -8 48575.0 2087.48  18
   2   4  -8 48840.3 2053.03   6
   2  -4  -7 352.364 276.765  12
   2  -4  -7 51.0512 312.527  13
   2   4  -7 686.661 405.985  10
   2  -4  -7 623.170 299.906  18
   2  -4  -7 548.238 329.170   7
   2   4  -7 391.336 326.428  18
   2   4  -7 567.548 359.320   6
  -2  -4   6 204317. 4548.85   2
   2  -4  -6 192944. 3185.58   7
   2  -4  -6 201810. 3324.16  12
   2   4  -6 196069. 3882.07  10
   2  -4  -6 197170. 3358.58  13
   2  -4  -6 191904. 3190.14  18
   2   4  -6 199296. 3665.06  18
   2   4  -6 195496. 3488.97   6
   2  -4  -5 4567.73 866.916   1
  -2  -4   5 4305.72 677.996   2
  -2   4   5 5270.20 832.753   2
   2  -4  -5 4283.21 464.403   7
   2   4  -5 4875.28 565.152   6
  -2  -4   4 52203.0 2045.59   2
   2   4  -4 46541.9 2085.77   2
  -2   4   4 54856.0 2351.27   2
   2  -4  -4 50294.8 2356.62   1
   2  -4  -3 183.447 284.694   1
   2   4  -3 373.247 293.667   2
  -2  -4   3 137.074 263.564   2
   2   4  -2 192205. 3619.27   2
   2  -4  -2 190721. 3544.04   1
   2   4  -1 2220.78 460.323   2
   2  -4  -1 1999.49 364.714   1
  -2   4   1 2618.22 405.807   1
  -2   4   0 25509.3 892.953   1
   2  -4   0 23938.3 879.432   1
   2   4   0 24142.6 1230.04   2
  -2   4  -1-64.7742 111.626   1
  -2  -4  -1-38.1453 286.222   1
  -2  -4  -2 355023. 5222.69   1
   2   4   2 365721. 5023.38   1
  -2   4  -3 10129.0 696.957   5
  -2  -4  -3 9565.17 708.055   4
  -2  -4  -3 9325.41 941.523   1
  -2   4  -3 9973.16 735.008   6
   2   4   3 9072.73 907.362   1
  -2   4  -3 10053.0 714.557   7
  -2   4  -3 8956.23 589.750   1
  -2   4  -4 1926.24 412.442   6
  -2   4  -4 1931.23 360.205   1
  -2  -4  -4 1526.61 451.301   1
  -2   4  -4 2513.97 476.819   7
   2   4   4 2628.94 563.610   1
  -2  -4  -4 2260.99 441.872   4
  -2   4  -5 6556.51 630.707  20
  -2  -4  -5 6241.32 633.881  13
  -2   4  -5 7108.23 758.588   6
  -2  -4  -5 6518.68 693.657  16
  -2   4  -5 7120.50 756.462   7
  -2  -4  -5 6141.01 935.106   1
  -2   4  -6 129433. 2805.02  20
  -2   4  -6 128971. 2730.18  18
  -2   4  -6 127462. 3317.18   7
  -2  -4  -6 132202. 2936.07  13
  -2  -4  -6 135719. 3242.51  16
  -2   4  -6 132889. 3382.60   6
  -2   4  -6 134897. 3164.50  10
  -2   4  -7 27.6154 363.591  10
  -2  -4  -7-6.10098 310.014  13
  -2   4  -7 265.697 386.855   6
  -2  -4  -7 88.1689 302.478   7
  -2  -4  -7 270.052 358.387  16
  -2   4  -8 20239.4 1562.50   5
  -2  -4  -8 20368.0 1415.11  13
  -2   4  -8 19959.3 1555.90   6
  -2   4  -8 18022.4 1411.78  10
  -2  -4  -8 19153.3 1480.36  16
  -2  -4  -8 19268.8 1407.08   7
  -2   4  -9 549.073 443.189   5
  -2  -4  -9 139.292 305.526   7
  -2   4  -9 694.385 507.501   6
  -2  -4  -9 291.941 396.979  13
  -2   4  -9 694.190 445.844  10
  -2  -4  -9-380.618 403.206  16
  -2   4 -10 64176.9 2669.13  13
  -2  -4 -10 70293.5 2912.64   7
  -2   4 -10 67926.9 2930.82   6
  -2  -4 -10 65070.7 2665.59  13
  -2   4 -10 66750.0 2821.34  10
  -2   4 -10 70372.4 3014.13   5
  -2  -4 -11-53.7045 384.987  13
  -2   4 -11 374.234 419.103   5
  -2  -4 -11 785.388 457.061   6
  -2   4 -11 95.2240 375.156  13
  -2  -4 -12 12570.7 1124.95   6
  -2   4 -12 13749.9 1157.93   5
  -2   4 -12 13015.6 1085.77  13
  -2  -4 -12 12770.6 1117.31  13
   2  -6 -13 720.383 359.115  13
  -2   6  13 41.8572 175.900  19
   2   6 -13 764.958 331.610  13
   2  -6 -12 22906.0 1573.55  13
   2  -6 -12 24033.9 1491.05   6
   2  -6 -12 20820.1 1623.11  16
   2   6 -12 22527.2 1459.89  13
  -2   6  12 22629.5 1306.80  19
   2   6 -11 615.585 386.970   5
   2   6 -11 489.182 295.893  18
   2  -6 -11 787.773 547.553  16
   2   6 -11 96.2021 343.512  13
  -2   6  11 62.6597 374.301  19
   2  -6 -11 303.554 419.742  13
   2  -6 -10 38667.3 2057.59   7
   2   6 -10 40829.6 2043.02   5
   2  -6 -10 38170.2 2063.63  13
   2  -6 -10 34882.0 2300.49  16
   2   6 -10 38012.7 1954.68  18
   2  -6  -9 706.736 446.549   7
   2  -6  -9 800.292 409.129  13
   2   6  -9 937.734 462.473  18
   2   6  -9 822.564 427.553   5
   2  -6  -9 1082.44 446.935  12
   2   6  -9 152.612 450.399  10
   2  -6  -9 1075.40 690.579  16
   2  -6  -8 70163.0 2487.45  13
   2   6  -8 65023.9 2461.14  18
   2  -6  -8 71385.9 2475.14  12
   2  -6  -8 68839.6 2377.51   7
   2   6  -8 66253.4 2605.00  10
   2   6  -8 68599.3 2408.27   5
   2  -6  -7 390.200 320.650  12
   2  -6  -7 168.838 280.914   7
   2   6  -7 577.563 333.935   5
   2   6  -7 622.077 343.645  18
   2  -6  -7 101.450 289.617  13
   2   6  -7 254.381 349.978  10
   2  -6  -6 112840. 2633.03  13
   2   6  -6 105919. 2795.31  10
   2  -6  -6 108946. 2610.61  12
   2  -6  -6 105494. 2392.10   7
   2   6  -6 106220. 2528.84   5
   2   6  -6 111272. 2850.28  18
  -2  -6   5 335.068 256.698   2
   2   6  -5-109.955 282.924  10
  -2   6   5-331.984 329.582   2
   2   6  -5 63.4339 286.177  18
   2   6  -5 125.293 280.365   5
   2  -6  -5 338.498 291.814  12
   2   6  -5 354.662 222.848   2
   2  -6  -5 51.6391 250.361  13
  -2  -6   4 67451.6 2613.23   2
   2  -6  -4 71020.6 3009.65   1
  -2   6   4 72425.5 3031.29   1
   2   6  -3-340.214 298.724   2
  -2  -6   3-100.609 262.130   2
   2  -6  -3 391.788 348.374   1
  -2   6   3-103.312 259.449   1
   2  -6  -2 118457. 3141.49   1
  -2   6   2 124062. 3208.10   1
   2   6  -2 123123. 3225.92   2
   2   6  -1-97.0757 301.171   1
   2  -6  -1 80.3084 246.166   1
  -2   6   1 73.5464 237.356   1
   2   6  -1-37.4674 241.148   2
   2  -6   0 16454.3 981.006   1
   2   6   0 17731.0 1249.37   2
  -2   6   0 18149.4 984.724   1
  -2   6  -1 480.794 199.000   1
   2   6   1 536.816 285.578   1
  -2   6  -2 243863. 3124.66   5
  -2  -6  -2 237566. 3629.12   8
   2   6   2 239068. 4664.85   1
  -2   6  -2 226093. 2939.44   1
  -2  -6  -2 239894. 3543.63   4
  -2  -6  -2 243546. 5014.94   1
  -2   6  -2 227508. 2938.90   2
  -2  -6  -3 1567.74 427.858   4
  -2   6  -3 1369.82 216.065   2
  -2   6  -3 1362.70 263.354   1
   2   6   3 1503.02 465.526   1
  -2  -6  -3 1311.68 499.394   1
  -2   6  -3 1440.45 377.644   5
   2   6   4 33325.9 2068.41   1
  -2   6  -4 27175.1 1269.34   1
  -2  -6  -4 29920.3 1221.57  13
  -2  -6  -4 32854.7 1422.80  16
  -2   6  -4 30659.1 1456.67   6
  -2  -6  -4 30386.1 2117.32   1
  -2   6  -4 28871.0 1341.49   5
  -2   6  -4 30315.3 1206.75  20
  -2   6  -5 1049.13 381.917   5
  -2   6  -5 707.396 401.012   6
  -2  -6  -5 822.212 291.121  12
  -2   6  -5 442.263 311.920  20
  -2  -6  -5 690.269 357.863  16
  -2   6  -5 850.640 274.582  18
  -2  -6  -5 510.580 287.041  13
  -2   6  -6 123339. 3368.20   6
  -2   6  -6 121803. 2852.49  20
  -2  -6  -6 121125. 2900.73  13
  -2  -6  -6 122951. 3256.72  16
  -2  -6  -6 131497. 2918.57  12
  -2   6  -6 129696. 3330.03   5
  -2   6  -6 127321. 2868.94  18
  -2   6  -6 131999. 3186.55  10
  -2   6  -7 206.519 205.089  18
  -2  -6  -7-334.475 383.206  16
  -2   6  -7 310.386 422.845   6
  -2  -6  -7 195.262 316.683  13
  -2   6  -7 191.349 349.902  10
  -2  -6  -7 133.832 308.362   7
  -2   6  -7 316.527 352.597   5
  -2  -6  -8 8404.58 958.546   7
  -2  -6  -8 6711.50 971.743  16
  -2   6  -8 7378.00 1004.26   5
  -2   6  -8 7489.52 1018.10   6
  -2  -6  -8 8205.24 938.997  13
  -2   6  -8 8394.57 1009.09  10
  -2  -6  -9-34.7969 382.685  13
  -2  -6  -9 346.251 413.923   7
  -2   6  -9 190.344 350.291   5
  -2  -6  -9 416.635 448.970  16
  -2   6  -9 213.081 475.665  10
  -2   6 -10 61732.1 2736.70   5
  -2  -6 -10 60184.7 2672.91   7
  -2   6 -10 60531.3 2644.14  10
  -2   6 -10 59986.2 2553.54  13
  -2  -6 -10 59762.8 2540.56  13
  -2   6 -11 80.6243 350.014  13
  -2   6 -11 153.597 337.010   5
  -2  -6 -11-377.581 359.746   7
  -2  -6 -11-476.476 395.897  13
  -2  -6 -11-233.336 379.054   6
  -2  -6 -12 6861.41 813.075  13
   2   6  12 5985.28 694.540  19
  -2   6 -12 6902.80 765.080  13
  -2   8  12 16360.2 1082.78  19
   2   8 -12 16071.5 1184.66  13
   2  -8 -12 18329.9 1528.37  16
   2  -8 -12 18587.6 1396.80  13
   2   8 -11 170.048 379.291  13
  -2   8  11 88.0849 315.249  19
   2  -8 -11-543.723 480.946  16
   2  -8 -11 171.713 375.384  13
   2   8 -11 350.743 252.587  18
   2  -8 -10 39047.1 2130.47  12
   2  -8 -10 36058.7 2380.94  16
   2   8 -10 36720.3 2067.60  10
  -2   8  10 37944.7 1881.02  19
   2   8 -10 35420.6 1903.86  18
   2  -8 -10 40939.1 2127.01   7
   2  -8 -10 35160.1 2017.25  13
   2   8  -9-58.9898 319.699  18
  -2   8   9 7.09614 448.999  19
   2   8  -9-545.209 461.787  10
   2  -8  -9-17.0352 414.030  12
   2  -8  -9-25.5332 533.376  16
   2   8  -9 796.259 391.980   5
   2  -8  -9 569.262 361.056   7
   2  -8  -9 67.9858 419.377  13
  -2   8   8 28223.1 1592.49  19
   2  -8  -8 31514.4 1652.34   7
   2   8  -8 30172.4 1590.49   5
   2   8  -8 30973.6 1758.84  18
   2  -8  -8 28868.9 1947.98  16
   2  -8  -8 30993.1 1739.10  13
   2   8  -8 30395.7 1755.68  10
   2  -8  -8 29719.0 1725.57  12
   2  -8  -7 478.457 352.389  13
   2   8  -7 429.066 322.338  18
   2   8  -7 140.731 339.223  10
   2   8  -7 547.419 279.194   5
   2  -8  -7 494.834 231.440   7
  -2   8   7 746.497 388.576  19
   2  -8  -7 647.527 389.160  12
  -2   8   6 132837. 3034.14  19
   2  -8  -6 136450. 3178.51  12
   2   8  -6 136046. 3260.92  18
   2   8  -6 139572. 2938.96   5
   2   8  -6 131626. 3110.74  10
   2  -8  -6 134601. 3041.11  13
   2   8  -5 3347.24 548.372  18
  -2   8   5 4127.76 582.260  19
   2   8  -5 3341.88 691.488   2
   2   8  -5 3838.61 487.855   5
   2  -8  -5 3868.87 543.615  12
   2   8  -5 3511.25 490.890  10
   2  -8  -5 5553.17 1016.63  14
   2  -8  -5 4023.80 548.400  13
   2   8  -4 62083.0 2691.38   2
   2  -8  -4 65507.4 1920.91  12
   2   8  -4 62447.3 1924.81  18
   2   8  -4 58386.7 1621.03   5
   2  -8  -4 65484.5 1837.40  13
   2  -8  -4 62608.8 2930.63  14
  -2   8   4 65096.7 1911.88  19
  -2   8   3 1065.05 429.827   1
   2   8  -3 204.752 218.788   2
   2  -8  -3 547.130 373.148   1
   2   8  -2 157259. 4241.77   1
   2  -8  -2 160047. 4160.89   1
  -2   8   2 165801. 4144.18   1
   2   8  -2 162750. 4136.34   2
   2   8  -1 60.8463 261.123   1
   2  -8  -1 272.339 289.495   1
  -2   8   1 2.25436 237.536   1
   2   8  -1-97.7650 284.933   2
   2   8   0 54720.4 2411.85   2
  -2  -8   0 52797.2 1709.50   4
  -2   8   0 53244.4 1998.64   1
   2   8   0 54562.6 2398.30   1
  -2  -8  -1-44.4948 362.180   4
  -2   8  -1 6.64100 180.762   1
   2   8   1 352.832 334.723   1
  -2  -8  -2 217728. 3851.39   4
  -2   8  -2 217702. 3634.04   2
   2   8   2 237157. 5263.39   1
  -2   8  -2 227821. 3619.44   1
  -2   8  -2 222409. 3328.49   5
  -2  -8  -2 246983. 5822.72   1
  -2  -8  -3 442.928 294.402  13
  -2   8  -3 307.845 269.409  20
  -2  -8  -3-23.5584 296.158  12
  -2  -8  -3 56.5125 292.377  16
  -2   8  -3 533.105 197.006   2
   2   8   3 283.353 382.950   1
  -2   8  -3 48.1347 68.4868   1
  -2  -8  -3 605.686 478.763  14
  -2   8  -3 11.7446 276.109   5
  -2   8  -4 14175.2 896.430  20
  -2  -8  -4 17126.7 1054.70  12
  -2   8  -4 13894.8 966.096   5
  -2  -8  -4 16514.0 1280.46  14
  -2  -8  -4 16274.5 1080.71  16
  -2  -8  -4 15588.3 973.100  13
  -2   8  -4 15567.6 953.905  18
  -2  -8  -5 849.928 485.681  14
  -2   8  -5 283.656 291.602  18
  -2   8  -5 574.367 336.797  20
  -2  -8  -5 551.055 287.851  12
  -2   8  -5 578.197 342.485   5
  -2  -8  -5 595.000 357.976  13
  -2  -8  -5 157.009 249.252  16
  -2   8  -6 89813.3 2571.89  20
  -2  -8  -6 95586.1 2694.71  13
  -2   8  -6 93213.6 2578.59  18
  -2  -8  -6 90524.4 2932.97  16
  -2   8  -6 94767.3 2895.42   5
  -2  -8  -7 50.4888 434.089  16
  -2   8  -7-500.795 367.926   5
  -2  -8  -7-226.830 304.469  12
  -2   8  -7 100.381 247.323  18
  -2  -8  -7 35.7907 371.882  13
  -2   8  -7 257.495 383.093  10
  -2  -8  -8 9342.10 1020.36   7
  -2  -8  -8 10121.0 1166.06  16
  -2   8  -8 11474.0 1014.36  18
  -2  -8  -8 11535.3 1124.11  13
  -2   8  -8 10835.7 1132.67   5
  -2   8  -8 11488.9 1154.32  10
  -2  -8  -9 375.462 455.540  13
  -2  -8  -9 287.383 406.226   7
  -2   8  -9 373.435 491.288  10
  -2   8  -9-98.9528 309.880   5
  -2  -8  -9 41.5576 471.431  16
   2   8  10 46708.4 2126.08  19
  -2   8 -10 47677.4 2304.54  10
  -2   8 -10 48094.0 2314.52   5
  -2  -8 -10 48941.7 2390.78   7
  -2  -8 -10 46836.1 2230.93  13
   2   8  11 23.6288 345.473  19
  -2   8 -11 138.076 414.392  13
  -2  -8 -11 782.432 397.519  13
  -2   8 -11 1427.04 454.110   5
  -2  -8 -11 911.483 440.214   7
   2  10 -12 16629.5 1137.59  13
  -2  10  12 16276.7 1037.69  19
   2 -10 -12 19153.3 1495.16  16
   2  10 -11 223.297 208.143  18
   2 -10 -11-782.843 495.745  16
   2 -10 -11-708.231 432.038  13
  -2  10  11 243.868 311.205  19
   2 -10 -10 28284.1 1871.59  12
   2 -10 -10 25715.2 1972.39  16
  -2  10  10 27921.3 1602.71  19
   2  10 -10 24585.4 1577.20  18
   2 -10 -10 27692.6 1799.51  13
   2  10 -10 25204.7 1662.88  10
   2 -10  -9-420.092 458.823  12
   2  10  -9-538.602 402.968  10
   2 -10  -9 466.402 620.006  16
   2 -10  -9 391.382 410.263  13
  -2  10   9 268.292 469.053  19
   2  10  -9-965.284 437.738  18
   2 -10  -8 24378.3 1480.95   7
   2  10  -8 22912.6 1552.48  18
   2 -10  -8 22664.1 1789.22  16
   2 -10  -8 22232.6 1585.11  12
   2  10  -8 20866.4 1438.13  10
   2 -10  -8 25048.9 1634.91  13
  -2  10   8 23165.7 1503.49  19
  -2  10   7 2020.03 571.097  19
   2 -10  -7 1686.57 572.407  16
   2 -10  -7 1626.89 489.780  12
   2  10  -7 2149.91 531.156  10
   2 -10  -7 2264.40 568.277  13
   2  10  -7 1975.10 500.747  18
   2 -10  -7 2044.83 435.245   7
  -2  10   6 115900. 3013.32  19
   2 -10  -6 117977. 3211.16  12
   2  10  -6 114819. 3126.57  18
   2  10  -6 113200. 2886.99  10
   2 -10  -6 118407. 3395.53  16
   2 -10  -6 115469. 3028.65  13
   2 -10  -5 1629.38 783.967  14
   2  10  -5 771.783 309.581  10
   2 -10  -5 1256.32 431.443  12
   2  10  -5 953.044 375.328  18
   2 -10  -5 695.344 335.487  13
  -2  10   5 903.813 412.255  19
   2 -10  -4 19147.8 1185.43  12
   2  10  -4 20823.4 1695.90   2
  -2  10   4 19962.8 1188.00  19
   2  10  -4 19055.7 1149.29  18
   2 -10  -3 263.424 285.164  12
   2  10  -3 442.809 300.613   1
   2 -10  -3-343.818 707.216  14
   2  10  -3-192.819 277.787   2
  -2  10   3 562.732 419.537  19
   2 -10  -2 291526. 4081.06  12
  -2 -10   2 299945. 4537.67  14
   2  10  -2 307551. 6311.91   2
   2  10  -2 299172. 4152.78  20
   2  10  -2 317726. 6641.16   1
  -2  10   2 295124. 4113.19  19
   2 -10  -2 304398. 6578.71   1
  -2  10   2 321587. 6457.20   1
   2 -10  -1 1670.91 483.226   1
   2  10  -1 1590.10 481.136   1
  -2  10   1 1537.80 464.050   1
  -2 -10   1 604.319 348.261   4
  -2  10   1 1586.74 437.682  19
   2 -10  -1 1071.36 283.414  12
  -2 -10   1 1096.75 452.892  14
   2  10  -1 1508.51 491.671   2
  -2 -10   0 69175.1 2403.23  14
  -2 -10   0 67963.9 2175.55   4
   2  10   0 71804.5 3076.55   1
   2  10   0 70324.1 3011.93   2
  -2  10   0 71706.8 2696.75   1
  -2  10   0 76145.6 2044.91  19
  -2  10  -1-360.087 186.484   2
   2  10   1 378.252 271.173  19
  -2  10  -1 243.054 223.418  20
  -2 -10  -1 353.239 252.907  15
  -2  10  -1-18.5195 174.055   1
  -2 -10  -1 259.780 497.031  14
  -2  10  -2 179931. 3882.63   2
  -2  10  -2 179042. 2862.39  20
  -2 -10  -2 183718. 4190.10  14
  -2 -10  -2 180484. 3014.90  15
  -2  10  -2 187315. 3868.44   1
  -2 -10  -3 125.266 262.305  13
  -2 -10  -3-17.3528 237.376  15
   2  10   3 349.246 347.664  19
  -2 -10  -3 8.41356 277.784  16
  -2  10  -3 261.550 261.849  20
  -2  10  -3 268.867 281.969   5
  -2 -10  -3-43.4223 472.479  14
  -2  10  -4 2367.18 455.381  20
  -2 -10  -4 2388.06 513.704  12
  -2 -10  -4 2832.76 526.615  16
  -2 -10  -4 2697.33 740.112  14
  -2  10  -4 2818.14 537.212   5
   2  10   4 3014.00 540.442  19
  -2 -10  -4 3185.47 537.935  13
  -2  10  -5 733.452 376.091  18
  -2 -10  -5 297.319 348.775  12
   2  10   5 423.979 345.513  19
  -2 -10  -5 384.591 323.568  13
  -2  10  -5 869.848 409.389  20
  -2  10  -5 554.971 379.932   5
  -2 -10  -5 815.415 527.378  14
  -2 -10  -5 709.136 404.135  16
  -2 -10  -6 62243.6 2526.04  16
   2  10   6 61345.0 2316.31  19
  -2 -10  -6 59956.4 2261.19  13
  -2  10  -6 58500.0 2344.47   5
  -2 -10  -6 60356.8 2375.18  12
  -2  10  -6 58212.2 2128.45  18
  -2  10  -6 59065.7 2193.78  20
  -2  10  -7 1003.51 406.040  18
  -2  10  -7 1268.85 473.664   5
  -2  10  -7 367.988 398.415  10
   2  10   7 142.084 410.439  19
  -2 -10  -7 868.010 518.704  16
  -2 -10  -7 741.818 461.930  13
  -2  10  -8 9901.91 1133.36  10
   2  10   8 10423.4 1091.01  19
  -2 -10  -8 10267.0 1091.39   7
  -2  10  -8 9376.99 929.940  18
  -2  10  -8 11217.1 1159.03   5
  -2 -10  -8 9876.53 1198.72  16
  -2 -10  -8 9197.62 1038.97  13
  -2 -10  -9 37.9745 362.509  13
   2  10   9 123.155 382.613  19
  -2  10  -9-327.816 360.711   5
  -2  10  -9 432.931 476.234  10
  -2 -10  -9-87.9324 352.787   7
  -2 -10 -10 31572.3 1895.70   7
   2  10  10 31164.2 1686.29  19
  -2  10 -10 31850.4 1808.71   5
  -2  10 -10 31392.9 1782.94  10
  -2 -10 -10 31905.9 1810.58  13
   2  10  11 660.250 346.271  19
  -2  10 -11 441.793 362.293  13
  -2 -10 -11 586.889 355.931  15
  -2 -10 -11 379.778 322.880  13
   2  12 -11 72.1400 159.023  18
  -2  12  11 418.384 335.202  19
   2 -12 -11 739.340 551.378  16
   2  12 -10 21790.1 1447.32  18
  -2  12  10 19330.3 1348.43  19
   2 -12 -10 20650.5 1608.25  12
   2 -12 -10 19180.2 1650.35  16
   2  12 -10 22728.6 1470.14  10
   2 -12  -9 322.506 460.620  12
   2  12  -9 1274.68 451.046  10
   2  12  -9 1534.52 478.186  18
   2 -12  -9 1047.77 490.612  13
  -2  12   9 791.272 475.762  19
   2 -12  -9 486.539 534.613  16
   2  12  -8 11618.3 1128.60  18
  -2  12   8 10903.4 1102.83  19
   2  12  -8 11158.6 1062.05  10
   2 -12  -8 10839.1 1238.72  16
   2 -12  -8 10557.0 1213.20  12
   2 -12  -8 11670.7 1195.04  13
   2  12  -7 2940.87 656.402  18
  -2  12   7 2505.77 623.254  19
   2 -12  -7 2871.54 683.366  12
   2 -12  -7 2688.67 687.036  16
   2  12  -7 2988.11 577.223  10
   2 -12  -6 115876. 3442.51  12
  -2  12   6 118179. 3204.07  19
   2  12  -6 118181. 3320.92  18
   2  12  -6 120174. 2968.55  10
   2 -12  -6 113530. 3398.52  16
   2  12  -5 1345.03 460.766  18
   2 -12  -5 2137.90 527.923  16
  -2  12   5 1462.49 518.478  19
   2 -12  -5 1248.45 494.832  12
   2  12  -5 2108.71 397.421  10
   2 -12  -4 16936.4 1223.56  12
  -2  12   4 13642.8 1050.78  19
   2 -12  -4 14978.2 917.930  15
   2  12  -4 15060.1 1060.73  18
   2 -12  -4 15912.4 1107.69  16
   2 -12  -3 207.924 257.578  12
  -2  12   3 242.484 374.692  19
   2 -12  -3 596.555 292.999  15
   2 -12  -3-586.908 284.791  16
  -2 -12   3 131.318 326.789  14
  -2 -12   2 101969. 2941.19  14
   2 -12  -2 111897. 2802.35  12
  -2  12   2 107694. 2721.15  19
   2 -12  -2 106968. 4042.66  14
   2 -12  -1 626.666 309.388  12
  -2  12   1 768.927 259.477  20
  -2  12   1 619.269 327.824  19
   2  12  -1 921.022 309.572  19
   2 -12  -1 1248.29 716.220  14
  -2 -12   1 693.367 504.699  14
  -2  12   0 1063.30 416.080   1
  -2  12   0 1840.78 494.555  19
  -2 -12   0 1335.96 549.956  14
   2 -12   0 940.974 629.373  14
   2  12   0 1761.24 401.533  19
  -2  12   0 1675.12 304.397  20
  -2  12  -1-97.3025 230.914  20
   2  12   1 89.3712 294.904  19
  -2 -12  -1-150.840 431.398  14
  -2 -12  -1-107.534 257.699  15
   2 -12   1 265.673 546.086  14
   2  12   2 152838. 3104.94  19
  -2  12  -2 157259. 2929.19  20
  -2 -12  -2 153618. 3050.58  15
  -2 -12  -2 150627. 4134.30  14
   2 -12   3 1791.22 622.417  14
  -2  12  -3 1432.54 404.467  20
   2  12   3 1071.51 405.186  19
  -2 -12  -3 943.128 330.350  15
  -2 -12  -3 1093.99 606.693  14
   2  12   4 2119.52 501.378  19
  -2  12  -4 2110.06 465.188  20
  -2 -12  -4 1770.35 510.586  16
  -2 -12  -4 1809.74 693.943  14
  -2 -12  -4 1991.68 483.050  15
  -2  12  -4 1409.36 444.348   5
  -2 -12  -5-3.55266 523.249  14
  -2  12  -5 201.029 379.798  20
   2  12   5-53.2144 438.104  19
  -2  12  -5 407.885 324.283  18
  -2 -12  -5 124.067 322.948  16
  -2 -12  -5 901.966 441.033  13
  -2  12  -5 729.504 377.838   5
  -2 -12  -5 262.528 330.687  15
  -2 -12  -6 64416.6 2662.17  16
  -2  12  -6 65310.5 2550.14   5
   2  12   6 67685.4 2521.24  19
  -2 -12  -6 64740.7 2931.10  14
  -2 -12  -6 63740.8 2368.90  15
  -2  12  -6 61760.3 2321.08  20
  -2 -12  -6 66458.1 2512.72  13
  -2  12  -6 67825.4 2406.10  18
  -2 -12  -7 5.15501 393.559  13
  -2  12  -7 705.422 387.196   5
  -2 -12  -7 613.818 381.948  15
  -2  12  -7 1153.84 389.024  18
   2  12   7 770.831 483.551  19
  -2  12  -7 937.652 427.913  10
  -2  12  -8 14812.3 1226.36  10
   2  12   8 16070.5 1314.59  19
  -2  12  -8 14841.0 1145.61  18
  -2 -12  -8 15927.3 1332.21   7
  -2 -12  -8 14675.4 1239.05  15
  -2  12  -8 14145.1 1250.65   5
  -2 -12  -8 14844.6 1306.73  13
   2  12   9-34.1928 370.294  19
  -2 -12  -9 632.451 442.095   7
  -2 -12  -9-17.8380 331.705  15
  -2  12  -9 320.424 379.859  10
  -2 -12  -9 71.8409 397.900  13
  -2  12  -9-625.723 366.641   5
   2  12  10 33626.5 1670.77  19
  -2 -12 -10 32232.8 1816.22   7
  -2  12 -10 30610.2 1628.94   5
  -2 -12 -10 30685.3 1688.96  15
  -2  12 -10 30890.1 1659.15  10
   2  14 -11-73.7700 163.237  18
  -2  14  11 332.435 258.300  19
   2 -14 -11 531.218 273.485  15
   2 -14 -10 17961.6 1238.81  15
   2 -14 -10 16039.0 1422.85  16
   2  14 -10 17040.9 1218.66  18
  -2  14  10 17642.3 1211.67  19
   2 -14  -9 134.104 434.889  16
   2  14  -9 112.291 333.773  18
  -2  14   9 165.397 354.177  19
   2 -14  -9 266.429 332.245  15
   2 -14  -9 531.634 452.339  12
   2  14  -9 263.361 255.581  10
   2 -14  -8 38481.3 2196.02  16
   2 -14  -8 39585.8 2272.79  12
   2 -14  -8 37748.6 1800.25  15
   2  14  -8 38875.6 2011.05  18
   2  14  -8 42138.4 1878.21  10
  -2  14   8 39574.4 1974.19  19
   2 -14  -7 1762.04 864.460  14
   2 -14  -7 2028.26 610.521  12
   2 -14  -7 2199.83 622.934  16
   2 -14  -7 2077.23 471.121  15
   2  14  -7 1172.77 390.680  10
  -2  14   7 2097.26 580.982  19
   2  14  -7 2044.43 568.454  18
   2  14  -6 66848.0 2201.40  10
   2 -14  -6 61018.9 2664.43  12
  -2  14   6 60574.9 2413.63  19
   2 -14  -6 57584.5 2450.65  16
   2 -14  -6 59594.8 2152.64  15
   2 -14  -6 69812.1 3710.53  14
   2  14  -6 62436.0 2471.56  18
   2 -14  -5 3115.88 678.803  12
  -2  14   5 3641.60 708.697  19
   2 -14  -5 3474.49 1121.81  14
   2 -14  -5 3057.28 605.747  16
   2  14  -5 2940.46 483.176  10
   2  14  -5 3393.90 637.494  18
   2 -14  -5 3809.96 551.755  15
   2 -14  -4 9366.24 1047.78  12
   2 -14  -4 9127.35 879.263  16
   2 -14  -4 9296.49 783.755  15
   2  14  -4 9563.13 940.461  18
  -2  14   4 7773.87 886.546  19
  -2  14   3 644.941 475.690  19
  -2 -14   3 52.1269 350.612  14
   2 -14  -3-515.719 385.376  12
   2 -14  -2 84560.9 3882.72  14
  -2 -14   2 82620.5 2849.66  14
  -2  14   2 86970.2 2645.17  19
  -2  14   1 762.031 437.666  19
   2 -14  -1 738.701 724.655  14
   2  14  -1 87.6009 301.956  19
  -2 -14   1 164.252 501.097  14
  -2  14   1 345.778 245.688  20
  -2 -14   0 382.263 470.869  14
  -2  14   0 439.008 266.254  20
   2  14   0 236.204 277.661  19
   2  14   1 1109.96 406.722  19
  -2 -14  -1 1193.18 596.146  14
  -2  14  -1 657.628 310.238  20
   2 -14   1 507.948 641.019  14
  -2  14  -2 118497. 2757.63  20
  -2 -14  -2 121256. 2956.98  15
  -2 -14  -2 118615. 3887.04  14
   2  14   2 118534. 2951.15  19
  -2 -14  -3 285.140 593.715  14
   2  14   3 389.227 359.076  19
  -2 -14  -3 371.791 350.417  15
  -2  14  -3 760.250 416.361  20
  -2  14  -4 2851.79 556.441  20
  -2 -14  -4 2163.56 522.808  15
   2  14   4 2834.25 599.628  19
  -2  14  -4 2743.90 541.080  18
  -2 -14  -4 2600.63 796.878  14
  -2 -14  -5 825.943 631.093  14
  -2 -14  -5-11.3970 324.372  15
  -2  14  -5 359.950 319.927  18
  -2  14  -5 118.610 370.128  20
   2  14   5 7.15779 444.868  19
  -2 -14  -6 89773.1 2893.21  15
   2  14   6 92468.6 2983.77  19
  -2 -14  -6 87086.0 3494.77  14
  -2  14  -6 92849.7 2877.73  18
  -2  14  -7 521.386 303.299  18
  -2 -14  -7-151.654 358.346  15
  -2  14  -7 32.4608 311.958  10
   2  14   7 78.5032 366.372  19
  -2 -14  -8 9471.31 1017.82   7
  -2  14  -8 8838.52 892.560  18
  -2  14  -8 9501.37 975.619  10
   2  14   8 9590.04 1027.57  19
  -2 -14  -8 7461.08 902.598  15
  -2 -14  -9-306.569 322.602   7
   2  14   9-556.023 387.414  19
  -2 -14  -9 349.699 342.415  15
  -2  14  -9-24.0188 290.531  10
   2  14  10 34087.7 1568.10  19
  -2 -14 -10 31624.6 1595.66  15
  -2  14 -10 35365.7 1604.08  10
  -2  16  10 18877.1 1153.36  19
   2  16 -10 19003.9 1170.97  18
  -2  16   9 400.029 369.143  19
   2  16  -9 2.26383 245.995  18
   2 -16  -8 26635.5 1726.39  16
   2  16  -8 29683.0 1702.45  18
  -2  16   8 27537.4 1629.00  19
   2 -16  -8 28480.6 1531.81  15
  -2  16   7 2223.43 615.286  19
   2 -16  -7 1265.92 382.754  15
   2  16  -7 717.700 410.954  18
   2 -16  -7 633.783 358.109  16
   2 -16  -7 1155.28 700.478  14
   2 -16  -6 63937.1 2239.91  15
  -2  16   6 64350.4 2527.94  19
   2  16  -6 63262.2 2508.69  18
   2 -16  -6 65610.4 3521.73  14
   2 -16  -6 58112.9 2407.11  16
   2 -16  -5-26.1633 793.855  14
   2 -16  -5 199.579 298.909  16
  -2  16   5-609.901 494.419  19
   2  16  -5-75.4017 394.251  18
   2  16  -4 6448.75 807.172  18
   2 -16  -4 8861.36 1533.24  14
  -2  16   4 7724.73 950.528  19
   2  16  -3 442.910 314.126  18
  -2  16   3 269.305 416.949  19
  -2 -16   3 320.524 405.676  14
   2 -16  -3 509.069 829.273  14
  -2  16   2 93024.9 2922.66  19
  -2 -16   2 91828.0 3151.26  14
  -2 -16   1 131.027 468.300  14
  -2  16   1-37.6196 430.331  19
  -2  16   0 1316.90 373.680  20
   2  16   0 973.078 433.899  19
  -2 -16   0 746.194 600.711  14
   2 -16   0 2560.19 921.206  14
  -2  16  -1 329.357 296.311  20
  -2 -16  -1 164.859 568.819  14
   2  16   1 125.213 322.949  19
   2 -16   2 87616.0 3420.32  14
  -2  16  -2 91496.4 2609.60  20
   2  16   2 90915.1 2724.26  19
  -2 -16  -2 94273.1 3654.32  14
  -2 -16  -3-490.262 617.298  14
   2 -16   3 773.793 487.692  14
  -2  16  -3 489.629 373.081  20
   2  16   3 311.202 435.943  19
  -2  16  -4 4757.84 699.044  18
  -2  16  -4 4404.43 709.674  20
  -2 -16  -4 4371.32 1015.90  14
   2  16   4 4383.33 760.653  19
  -2 -16  -4 4232.14 676.569  15
  -2  16  -5 1037.76 479.179  20
  -2 -16  -5 1353.28 475.012  15
  -2 -16  -5 739.439 733.052  14
  -2  16  -5 1564.66 519.493  18
   2  16   5 1445.88 530.422  19
   2  16   6 105677. 3177.26  19
  -2  16  -6 100949. 3009.59  18
  -2 -16  -6 99992.2 3055.95  15
  -2  16  -6 104356. 2890.89  10
  -2 -16  -6 96300.4 3683.81  14
  -2  16  -7 820.711 280.179  18
   2  16   7 187.652 373.366  19
  -2 -16  -7 668.553 412.752  15
  -2  16  -7 782.328 353.295  10
  -2  16  -8 6422.59 752.199  10
   2  16   8 6998.12 836.997  19
  -2  16  -8 6529.44 755.023  18
  -2 -16  -8 6545.47 809.709  15
   2  16   9-55.1881 277.323  19
  -2  16  -9 217.459 250.568  10
  -2 -16  -9 80.8636 234.406  15
   2  18  -9-281.376 211.507  18
  -2  18   9 130.016 260.351  19
  -2  18   8 20422.8 1326.32  19
   2  18  -8 20011.1 1300.52  18
  -2  18   7-391.501 385.981  19
   2  18  -7 250.333 287.901  18
   2  18  -6 60247.4 2392.87  18
   2 -18  -6 58697.7 3216.37  14
  -2  18   6 60135.6 2419.84  19
   2  18  -5 434.978 336.462  18
  -2  18   5 1120.73 532.855  19
   2 -18  -5 434.191 738.201  14
  -2  18   4 11768.4 1165.90  19
   2 -18  -4 13199.7 1788.79  14
   2  18  -4 12323.6 1102.25  18
  -2  18   3 683.203 497.597  19
   2  18  -3-101.399 293.163  18
  -2 -18   3-470.563 424.249  14
   2 -18  -3 540.107 955.452  14
  -2  18   2 80438.1 2875.42  19
  -2 -18   2 78319.7 2999.75  14
   2 -18  -2 81816.6 3923.28  14
   2 -18  -1 1115.58 787.836  14
  -2 -18   1-914.551 562.896  14
   2 -18   0 2487.98 933.331  14
  -2 -18   0 4390.86 922.362  14
   2  18   1 105.637 369.416  19
   2 -18   1 301.948 621.370  14
  -2 -18  -1 217.343 631.725  14
  -2  18  -1-426.652 324.617  20
  -2 -18  -2 74859.7 3344.75  14
   2 -18   2 78519.5 3219.07  14
  -2  18  -2 77383.7 2504.68  20
   2  18   2 74146.0 2586.24  19
   2 -18   3 2939.28 684.969  14
  -2  18  -3 2508.00 575.366  20
   2  18   3 2875.87 650.935  19
  -2 -18  -3 2552.82 845.676  14
  -2 -18  -4 858.961 656.840  14
   2  18   4 785.663 447.395  19
  -2  18  -4 615.048 375.017  18
  -2  18  -5 1913.39 483.453  18
   2  18   5 2265.26 570.825  19
  -2 -18  -5 1799.42 683.342  14
   2  18   6 56769.5 2253.66  19
  -2  18  -6 54842.8 2150.06  18
  -2 -18  -6 54149.6 2628.55  14
  -2  18  -6 55404.7 2000.20  10
   2  18   7-140.710 362.400  19
  -2  18  -7-209.648 227.682  10
  -2  18  -7 241.090 239.121  18
   2  18   8 5153.33 635.523  19
  -2  18  -8 4394.48 568.019  10
  -2  18  -8 4387.19 552.801  18
  -2  20   7 144.624 331.980  19
   2  20  -7 429.052 263.392  18
   2 -20  -7-418.053 330.021  14
  -2  20   6 45128.5 2000.80  19
   2  20  -6 42677.2 1878.26  18
   2 -20  -6 44097.2 2527.83  14
   2 -20  -5 815.184 665.618  14
   2  20  -5 738.073 368.743  18
  -2  20   5-319.517 438.905  19
  -2  20   4 10133.7 1072.46  19
   2  20  -4 9961.93 966.457  18
   2 -20  -4 8459.53 1367.77  14
  -2  20   3-7.84432 437.302  19
   2  20  -3 4.49827 246.814  18
  -2 -20   3 461.904 360.372  14
   2 -20  -3 171.199 648.451  14
  -2 -20   2 70184.6 2769.54  14
   2 -20  -2 71605.0 3535.73  14
   2  20  -2 71704.8 2461.91  18
   2 -20  -1 349.059 648.049  14
  -2 -20   1 1010.53 540.913  14
   2 -20   0 4934.78 1042.13  14
  -2 -20   0 3623.72 818.653  14
  -2 -20  -1-285.603 636.886  14
   2 -20   1 1168.92 738.663  14
  -2 -20  -2 72173.9 3185.33  14
   2  20   2 71440.2 2539.27  19
   2 -20   2 69020.9 2882.80  14
   2  20   3-277.525 350.321  19
  -2 -20  -3 606.387 564.828  14
  -2  20  -3 526.569 341.364  18
  -2  20  -4-592.681 346.039  18
   2  20   4-517.607 387.520  19
   2  20   5-328.280 381.826  19
  -2 -20  -5 247.635 293.204  11
  -2  20  -5 205.440 289.635  18
  -2 -20  -5 602.102 491.502  14
   2  20   6 33431.0 1604.77  19
  -2 -20  -6 34514.5 1577.35  11
  -2  20  -6 32866.0 1547.39  18
  -2 -20  -6 30548.6 1790.67  14
   2  22  -5-106.159 249.775  18
   2 -22  -5-144.864 454.267  14
   2  22  -4 10278.1 899.210  18
   2 -22  -4 10600.9 1295.42  14
   2  22  -3 677.541 299.398  18
   2 -22  -3 1494.35 703.495  14
   2  22  -2 54580.8 2080.24  18
  -2 -22   2 54785.5 2259.52  14
   2 -22  -2 58686.6 2891.81  14
   2 -22  -1 816.096 571.699  14
  -2 -22   1 1167.80 501.803  14
   2  22  -1 381.291 284.168  18
   2  22   0 2730.94 480.372  18
  -2 -22   0 2541.79 648.935  14
   2 -22   0 3310.68 795.928  14
   2 -22   1 124.678 439.426  14
  -2 -22  -1-904.725 526.265  14
   2  22   1-845.526 313.147  18
   2 -22   2 50161.2 2221.18  14
  -2  22  -2 49886.1 1998.35  18
  -2 -22  -2 53016.1 2511.13  14
  -2  22  -3-99.1645 272.647  18
  -2 -22  -3 296.759 472.302  14
  -2  22  -4 2109.91 420.588  18
   2  22   4 1596.39 449.087  19
  -2 -22  -4 2902.15 688.881  14
  -2 -22  -5 1756.11 493.886  14
  -2  22  -5 1063.07 287.764  18
   2  24  -2 41062.4 1610.50  18
   2 -24  -2 39353.9 2006.04  14
   2 -24  -1 891.063 435.556  14
   2  24  -1 1005.86 295.096  18
  -2 -24   1 146.288 249.593  14
  -2 -24   0 2079.53 522.676  14
   2  24   0 2219.82 363.747  18
  -2  24   0 2623.41 432.648  18
   2 -24   0 3209.63 653.012  14
   2 -24   1 766.423 410.757  14
  -2 -24  -1 940.853 399.360  14
  -2  24  -1-47.6620 191.159  18
   3  -1 -13 23202.7 1439.41  13
   3   1 -13 21265.1 1364.78  13
   3  -1 -12-748.950 457.891  13
   3   1 -12-734.579 461.729  13
   3   1 -12-364.488 229.600  18
   3  -1 -12-31.0436 324.811  16
   3   1 -11 27425.9 1665.43  18
   3  -1 -11 28004.0 1646.00  18
   3  -1 -11 25094.6 1695.78  13
   3  -1 -11 26881.8 1612.67   6
   3   1 -11 23861.2 1635.44  13
   3  -1 -11 26179.2 1926.82  16
   3  -1 -10 234.025 346.271   6
   3   1 -10 268.784 289.355   6
   3   1 -10 953.296 501.482  13
   3  -1 -10-248.515 299.693  18
   3   1 -10 641.245 359.627  18
   3  -1 -10-41.0364 429.212  13
   3   1  -9 54228.2 2299.69  13
   3   1  -9 58941.6 2248.29   6
   3  -1  -9 57302.3 2123.81  12
   3  -1  -9 56054.0 2253.02  18
   3  -1  -9 51235.3 2223.97  13
   3   1  -9 54739.6 2281.34  18
   3   1  -8 4209.20 659.995  13
   3   1  -8 3285.74 611.560  18
   3   1  -8 4572.31 584.710  12
   3  -1  -8 3596.47 555.943  12
   3  -1  -8 3208.67 555.776  18
   3  -1  -8 3487.29 621.312  13
   3   1  -8 3939.93 594.760   6
   3  -1  -7 123726. 2891.81  13
   3  -1  -7 126317. 2791.07  12
   3   1  -7 126110. 3053.59  18
   3  -1  -7 124183. 2960.20   7
   3  -1  -7 127630. 2972.55  18
   3   1  -7 123676. 2741.95  12
   3   1  -6 5174.45 626.135  18
  -3   1   6 6475.34 948.605   2
   3  -1  -6 5970.52 631.565  18
   3  -1  -6 4888.29 568.895   7
   3   1  -6 5742.16 793.269  10
   3  -1  -6 5715.41 1015.50   1
   3  -1  -6 6607.68 626.154  12
   3  -1  -6 5805.26 601.026  13
  -3  -1   6 5820.06 801.924   2
   3   1  -6 5836.78 1002.20   1
  -3  -1   5 31517.3 1763.99   2
   3  -1  -5 30665.1 1194.93   7
  -3   1   5 30909.2 1800.52   2
   3  -1  -5 30769.9 2099.01   1
   3   1  -4 1190.68 528.294   2
  -3  -1   4 1426.13 419.534   2
  -3   1   4 958.826 392.833   2
   3  -1  -4 939.788 485.997   1
   3   1  -3 131464. 3252.61   2
   3   1  -2 21496.7 1203.99   2
   3  -1  -2 21734.4 1170.99   2
  -3   1   1 71569.9 1766.32   2
   3   1  -1 67800.5 1906.12   2
   3  -1  -1 73684.4 1800.33   2
  -3  -1   0 10442.7 665.458   2
   3   1   0 10238.7 699.645   2
  -3   1   0 10257.0 572.221   2
   3   1   1 102716. 2101.25   2
   3  -1   1 102305. 1078.57   1
   3   1   1 107903. 1932.44   1
   3  -1   1 108779. 1327.12   2
   3   1   2 1515.13 311.019   1
  -3   1  -2 1246.36 206.839   1
   3   1   2 1688.45 336.578   2
  -3  -1  -2 1485.27 337.301   1
  -3   1  -3 310.174 223.139   7
  -3  -1  -3 239.984 237.981   1
  -3   1  -3 127.198 177.604   1
   3   1   3 377.732 278.984   1
   3  -1   4 475.584 114.969   2
   3  -1   4 696.495 113.779   2
  -3   1  -4 653.106 289.953   7
   3   1   4 377.723 218.290   2
  -3  -1  -4 494.967 258.688   1
  -3   1  -4 844.891 245.943   1
  -3  -1  -4 452.009 207.578   4
  -3   1  -5 181697. 3390.85   7
  -3  -1  -5 188244. 3337.97  10
  -3  -1  -5 190281. 3252.61  16
  -3  -1  -5 188803. 3225.65  13
  -3   1  -5 185900. 3372.15  10
  -3  -1  -5 184262. 4313.33   1
  -3  -1  -5 180309. 3306.61   7
  -3   1  -6-149.781 296.961  10
  -3   1  -6 38.6720 272.542   7
  -3  -1  -6-723.405 317.201  16
  -3  -1  -6 61.5803 286.782  10
  -3  -1  -6-58.6410 295.952  13
  -3  -1  -6 77.0548 243.523   7
  -3  -1  -7 13897.4 1110.78  13
  -3   1  -7 14417.5 1183.41  10
  -3  -1  -7 17141.2 1197.08  16
  -3   1  -7 13894.6 1195.43   7
  -3  -1  -7 15082.1 1194.35  10
  -3   1  -7 14554.3 1288.32   6
  -3  -1  -7 14394.1 1163.66   7
  -3  -1  -8 104.801 358.997  13
  -3   1  -8-72.3240 422.827  10
  -3   1  -8 5.11912 405.857  13
  -3  -1  -8 284.314 441.956   7
  -3   1  -8 5.72787 412.319   7
  -3  -1  -8 378.853 297.162  16
  -3  -1  -8-274.226 348.813  10
  -3   1  -8 321.804 401.046   6
  -3  -1  -9 54825.3 2695.95   6
  -3   1  -9 54235.2 2662.10   6
  -3  -1  -9 53534.2 2540.12   7
  -3   1  -9 51326.6 2397.41  13
  -3   1  -9 53991.0 2484.59  10
  -3  -1  -9 50861.1 2359.99  13
  -3   1  -9 52718.1 2569.78   7
  -3  -1 -10 124.869 402.718  13
  -3   1 -10-56.8747 425.121   6
  -3   1 -10 403.169 451.205  13
  -3   1 -10-80.2885 426.843   5
  -3  -1 -10-379.911 410.600   6
  -3  -1 -10 764.274 405.232   7
  -3  -1 -11 10796.6 1183.17   6
  -3   1 -11 10987.2 1127.99  13
  -3  -1 -11 12084.8 1358.38   5
  -3   1 -11 10302.5 1205.67   5
  -3  -1 -11 10952.7 1092.76  13
  -3   1 -11 11777.4 1229.59   6
  -3  -1 -12 143.529 294.380  13
  -3   1 -12 60.2551 306.293  13
  -3  -1 -12 62.6534 366.987   5
  -3   1 -12 866.920 362.769   5
   3  -3 -13 30321.7 1640.33  13
   3   3 -13 29686.7 1559.38  13
   3   3 -12-119.890 348.825  13
   3   3 -12-113.787 335.198   5
   3  -3 -12-497.997 420.335  13
   3  -3 -12 226.613 376.091  16
   3   3 -12-121.695 262.141  18
   3   3 -11 21825.4 1561.46  13
   3  -3 -11 20840.5 1768.14  16
   3   3 -11 21158.2 1474.82  18
   3  -3 -11 23993.2 1507.51   6
   3  -3 -11 24290.1 1684.05  13
   3   3 -10 1159.96 519.965  13
   3  -3 -10 1004.78 488.884  13
   3  -3 -10 1085.20 362.658  18
   3   3 -10 1422.97 482.459   6
   3   3 -10 717.098 409.708  18
   3  -3  -9 54552.0 2178.79  18
   3  -3  -9 52707.8 2261.62  13
   3  -3  -9 52097.8 2253.02   7
   3   3  -9 53436.8 2313.68  18
   3  -3  -9 54503.5 2166.16  12
   3   3  -9 56403.6 2216.81   6
   3  -3  -8 169.871 322.897  13
   3  -3  -8 477.944 332.436   7
   3  -3  -8 84.1088 316.712  12
   3   3  -8 423.094 322.801   6
   3   3  -8 323.096 272.306  12
   3   3  -8 58.0244 336.776  18
   3   3  -8 205.721 442.342  10
   3  -3  -8-11.8460 254.422  18
   3   3  -7 103263. 3194.37  10
   3   3  -7 101349. 2585.56   6
   3   3  -7 100255. 2817.99  18
   3  -3  -7 98927.1 2560.92  18
   3  -3  -7 97315.6 2555.12   7
   3  -3  -7 102482. 2566.32  12
   3   3  -7 99929.5 2487.87  12
   3  -3  -7 99110.0 2606.88  13
   3  -3  -6 137.352 255.479  13
   3   3  -6 83.1158 226.472   6
   3  -3  -6 257.919 235.747   7
   3  -3  -6 144.212 258.448  18
   3  -3  -6 452.535 281.461  12
   3   3  -6 394.187 334.125  18
  -3  -3   6 1122.26 354.710   2
  -3   3   6 547.187 332.784   2
   3   3  -6 336.194 423.687  10
   3   3  -6-654.926 326.343   2
   3  -3  -5 34109.6 1183.30   7
  -3  -3   5 33265.4 1803.38   2
  -3   3   5 35090.4 2030.18   2
   3  -3  -5 34104.2 2199.48   1
   3  -3  -4 2211.42 545.541   1
  -3  -3   4 1585.16 445.012   2
   3   3  -4 2104.93 525.200   2
   3   3  -3 102968. 3011.11   2
   3  -3  -3 103212. 2954.61   1
   3   3  -2 13345.8 1045.50   2
   3  -3  -2 12326.2 917.634   1
   3   3  -1 9747.75 843.096   2
  -3   3   1 10234.9 763.414   2
   3  -3  -1 9223.36 639.201   1
   3   3   0 6976.93 691.397   1
   3   3   0 6348.47 689.541   2
   3  -3   0 7339.23 392.569   1
  -3   3  -1 288408. 2097.57   2
   3   3   1 289351. 4413.03   2
   3   3   2 519.326 264.971   1
  -3  -3  -2 164.616 275.751   1
  -3  -3  -3 2056.81 381.096   4
  -3   3  -3 1475.33 162.184   1
  -3   3  -3 1659.73 343.192   7
  -3   3  -3 1626.07 358.684   6
   3   3   3 1886.67 449.876   1
  -3  -3  -3 1658.30 464.443   1
  -3  -3  -4 3247.41 447.523  13
   3   3   4 3644.58 643.442   1
  -3   3  -4 2696.90 461.129   6
  -3  -3  -4 2613.46 584.809   1
  -3   3  -4 3451.94 490.016   7
  -3  -3  -4 3204.04 450.731   4
  -3   3  -4 2478.23 324.296   1
  -3  -3  -5 203756. 5109.56   1
  -3   3  -5 207479. 3151.14  20
  -3  -3  -5 212440. 3434.24  13
  -3  -3  -5 217499. 3680.39  16
  -3   3  -5 211952. 3854.60   7
  -3  -3  -5 215415. 3494.14  10
  -3   3  -5 208375. 3990.64   6
  -3  -3  -6 131.801 285.225   7
  -3   3  -6 16.5568 343.985   6
  -3   3  -6 33.2076 316.052   7
  -3  -3  -6 454.450 313.037  10
  -3  -3  -6 17.5706 306.630  13
  -3   3  -6 56.9623 298.127  10
  -3   3  -6-121.474 273.244  20
  -3  -3  -6-271.169 311.831  16
  -3   3  -7 7756.14 987.285   6
  -3   3  -7 7156.66 871.460  10
  -3  -3  -7 6991.21 815.601  13
  -3  -3  -7 6855.70 836.981  16
  -3   3  -7 7059.64 933.370   7
  -3  -3  -7 7560.19 875.417   7
  -3   3  -8 261.187 437.987   7
  -3  -3  -8 138.758 449.370   7
  -3   3  -8 333.073 392.945  10
  -3   3  -8-446.710 449.073   6
  -3  -3  -8 339.830 353.258  13
  -3  -3  -8 385.827 343.727  16
  -3   3  -9 62327.8 2890.12   5
  -3  -3  -9 56416.3 2443.90  13
  -3   3  -9 60238.3 2624.87  10
  -3   3  -9 61030.4 2839.61   6
  -3   3  -9 57431.0 2546.65  13
  -3  -3  -9 57600.0 2584.70   7
  -3  -3 -10 282.341 447.427  13
  -3   3 -10 828.192 459.181  13
  -3   3 -10 611.469 467.705   6
  -3  -3 -10 973.594 468.855   6
  -3   3 -10-71.9571 451.994   5
  -3  -3 -10-331.498 362.979   7
  -3   3 -11 10286.5 1053.86  13
  -3   3 -11 11037.5 1202.54   5
  -3  -3 -11 10612.5 1150.94   6
  -3  -3 -11 9493.37 1034.22  13
  -3  -3 -12 172.228 316.899  13
  -3   3 -12-108.124 292.477  13
   3  -5 -13 25329.4 1593.27  16
   3   5 -13 27454.0 1459.70  13
   3  -5 -13 30006.2 1618.58  13
   3  -5 -12-774.175 506.480  16
   3   5 -12-283.561 340.501  13
   3  -5 -12-174.895 372.385  13
  -3   5  12-621.641 259.323  19
   3   5 -11 24345.6 1609.96  13
   3  -5 -11 23423.7 1903.73  16
   3   5 -11 28270.9 1693.16  18
   3   5 -11 27325.3 1621.19   5
   3  -5 -11 26470.7 1755.57  13
   3  -5 -10 81.4957 430.408  13
   3  -5 -10 354.322 536.782  16
   3  -5 -10-207.794 313.893  12
   3   5 -10-126.166 285.974  18
   3   5 -10 661.660 369.009   5
   3   5  -9 58575.1 2457.95  18
   3  -5  -9 58217.2 2345.72  12
   3   5  -9 56388.8 2611.53  10
   3  -5  -9 60116.1 2411.82   7
   3  -5  -9 55826.3 2350.05  13
   3  -5  -8 2261.47 474.987   7
   3  -5  -8 2753.06 556.961  12
   3   5  -8 2891.30 688.166  10
   3  -5  -8 2229.03 472.643  18
   3   5  -8 2934.89 585.592  18
   3  -5  -8 2785.99 555.911  13
   3   5  -7 90638.4 2909.17  10
   3  -5  -7 87747.3 2489.53  12
   3   5  -7 91969.7 2432.51  12
   3   5  -7 88549.8 2743.73  18
   3  -5  -7 90231.8 2417.88   7
   3   5  -7 92157.1 2567.14   6
   3  -5  -7 88632.4 2430.74  18
   3  -5  -7 87490.4 2483.79  13
   3  -5  -6 1685.10 401.041  18
  -3  -5   6 1135.31 483.695   2
   3  -5  -6 1427.58 323.039   7
   3  -5  -6 1391.30 350.558  13
   3   5  -6 1046.02 434.482  10
   3   5  -6 1588.49 363.362  12
   3   5  -6 345.966 250.498   2
   3   5  -6 1506.70 433.272  18
   3  -5  -6 1579.30 390.627  12
   3  -5  -5 84450.7 1817.34   7
   3   5  -5 87235.1 2361.00  18
   3  -5  -5 88271.8 3634.50   1
   3  -5  -5 89465.8 2125.55  12
   3  -5  -5 86660.1 2067.04  18
  -3  -5   5 86414.4 3050.05   2
  -3   5   5 95295.1 3534.09   2
  -3  -5   4 388.824 266.944   2
   3   5  -4 382.326 377.912   2
  -3   5   4-374.316 322.038   2
   3  -5  -4 263.725 301.777   1
  -3  -5   3 211127. 4414.20   2
   3   5  -3 206562. 4512.78   2
   3  -5  -3 212752. 4478.62   1
  -3   5   2 4435.88 633.053   1
   3   5  -2 4406.01 726.930   2
  -3  -5   2 4931.96 719.340   2
   3  -5  -2 4508.84 631.280   1
   3  -5  -1 30880.7 1296.05   1
   3   5  -1 31820.7 1662.02   2
  -3   5   1 30226.5 1334.79   1
   3  -5   0 202.390 198.421   1
   3   5   0 140.523 326.887   2
  -3   5   0 67.0964 170.548   1
   3   5   1 275636. 4655.54   1
  -3   5  -1 264159. 2358.39   1
   3   5   1 264718. 4852.46   2
  -3  -5  -2-29.6217 244.597   4
  -3  -5  -2 188.628 322.607   1
   3   5   2 154.886 301.044   1
  -3   5  -2-49.6969 213.175   6
  -3   5  -2-73.9656 212.161   5
  -3  -5  -3 207.822 291.439   8
  -3  -5  -3-45.1325 305.421   4
  -3   5  -3 297.051 246.004   7
  -3  -5  -3 519.262 312.506   1
  -3   5  -3 139.521 245.474   6
  -3   5  -3 198.086 246.968   5
   3   5   3 31.2841 273.245   1
  -3  -5  -4 178.051 323.750   1
  -3  -5  -4 155.592 266.073   8
   3   5   4 47.4622 407.032   1
  -3  -5  -4 218.446 306.780   4
  -3   5  -4 297.278 308.023   5
  -3   5  -4 178.617 285.817   6
  -3  -5  -4 723.933 335.882  16
  -3   5  -4 262.673 309.205   7
  -3  -5  -4 195.623 251.880  13
  -3   5  -4 15.0477 226.561  20
  -3  -5  -5 179686. 3563.93  16
  -3   5  -5 174420. 3719.95   7
  -3   5  -5 173841. 3765.39   6
  -3   5  -5 177470. 3699.93   5
  -3   5  -5 183347. 3147.35  20
  -3  -5  -5 175404. 3195.33  13
  -3   5  -6 625.960 366.129   5
  -3   5  -6 387.046 303.366  10
  -3  -5  -6 299.392 312.711  16
  -3  -5  -6 624.790 358.452  13
  -3   5  -6 341.130 386.831   6
  -3   5  -6 443.218 267.187  20
  -3  -5  -7 2722.99 582.978  13
  -3  -5  -7 3445.97 689.913  16
  -3   5  -7 2427.40 688.942   6
  -3   5  -7 3233.53 668.622   5
  -3  -5  -7 2508.75 552.605   7
  -3   5  -7 2958.25 610.310  10
  -3  -5  -8 509.278 391.380  13
  -3   5  -8 473.634 460.378  10
  -3  -5  -8 1016.98 486.259  16
  -3   5  -8-124.187 442.256   6
  -3   5  -8 79.6558 383.101   5
  -3  -5  -8 409.717 406.904   7
  -3   5  -9 87746.7 3375.74   6
  -3  -5  -9 88171.8 3032.05  13
  -3   5  -9 86700.0 3308.36   5
  -3   5  -9 81629.0 3057.78  10
  -3  -5  -9 84903.1 3140.72   7
  -3   5 -10 976.218 441.254  10
  -3  -5 -10 640.479 384.249   7
  -3  -5 -10 700.536 443.633  13
  -3   5 -10 386.448 472.493  13
  -3   5 -10 1303.92 529.579   5
  -3   5 -11 6086.97 823.537  13
  -3  -5 -11 4893.59 764.404   7
  -3   5 -11 5148.82 817.255   5
  -3  -5 -11 6083.17 848.076  13
  -3  -5 -11 7188.30 984.436   6
   3   7 -12 411.049 293.381  18
   3  -7 -12 663.867 459.236  13
  -3   7  12 337.636 286.435  19
   3   7 -12 939.075 416.737  13
   3  -7 -12 361.380 383.370  16
   3   7 -11 27103.7 1670.36  13
   3   7 -11 27477.8 1686.56  18
   3  -7 -11 23249.3 1899.32  16
  -3   7  11 27882.0 1529.64  19
   3  -7 -11 28072.7 1810.13  13
   3  -7 -10 48.9338 411.332  13
   3  -7 -10 940.117 622.657  16
   3  -7 -10 1046.59 428.006  12
   3  -7 -10 1630.76 466.640   7
  -3   7  10 240.389 366.219  19
   3   7 -10 560.035 391.894  18
   3  -7  -9 55433.3 2312.37   7
   3  -7  -9 51221.1 2311.65  13
   3   7  -9 49500.6 2303.46  18
   3   7  -9 50952.8 2423.32  10
   3  -7  -9 52166.2 2325.76  12
  -3   7   9 51365.1 2100.67  19
   3  -7  -8 129.943 389.628  13
  -3   7   8 124.677 332.842  19
   3   7  -8 99.7211 336.156   5
   3  -7  -8-204.830 349.484  12
   3   7  -8-281.104 343.613  18
   3   7  -8 483.974 422.481  10
   3  -7  -8 170.508 245.177   7
   3  -7  -7 91443.4 2463.80   7
   3   7  -7 94177.5 2493.51  12
  -3   7   7 87702.9 2503.14  19
   3   7  -7 97374.7 2520.38   5
   3  -7  -7 88311.8 2600.36  13
   3   7  -7 85945.0 2778.71  18
   3   7  -7 87736.3 2810.64  10
   3  -7  -7 88843.7 2660.03  12
   3  -7  -6 399.184 329.427  13
   3   7  -6 24.1888 247.478   5
   3   7  -6-209.059 296.374  10
  -3   7   6 639.398 361.751  19
   3  -7  -6 144.008 242.917  12
   3   7  -6 261.472 296.808  18
   3  -7  -6 176.835 203.071   7
   3   7  -5 105944. 3837.72   2
  -3  -7   5 111650. 3770.20   2
   3   7  -5 107495. 2707.10  18
  -3   7   5 108980. 2483.04  19
   3  -7  -5 110118. 2444.76  13
   3   7  -5 108773. 2660.64  10
   3  -7  -5 112807. 2556.21  12
  -3  -7   4-200.384 210.512   2
   3   7  -4-485.858 306.663  18
   3  -7  -4-136.852 306.149   1
   3   7  -4-573.562 343.450   2
   3  -7  -4 147.299 255.619  12
   3   7  -3 180516. 4555.05   2
   3  -7  -3 173401. 4467.25   1
  -3  -7   2-68.5174 329.298   8
  -3   7   2-252.019 310.285   1
   3   7  -2-73.1050 250.144   2
   3  -7  -2-2.41130 228.673   1
  -3   7   1 24079.6 1370.59   1
   3   7  -1 25747.5 1665.66   2
   3   7  -1 27108.7 1710.03   1
   3  -7  -1 23097.8 1324.89   1
  -3  -7   1 24498.9 1173.76   8
   3   7   0 106.281 286.714   2
  -3  -7   0 11.5569 278.560   8
   3  -7   0 230.947 230.919   1
  -3  -7   0-385.941 320.073   4
  -3   7   0-24.1874 222.903   1
   3   7   0 50.1931 252.089   1
  -3  -7  -1 192558. 3390.70   8
   3   7   1 195113. 4671.16   2
  -3   7  -1 197957. 2967.68   5
   3   7   1 192878. 4431.58   1
  -3   7  -1 197373. 2906.58   1
  -3  -7  -1 197570. 3236.56   4
  -3  -7  -2 237.494 346.446   8
  -3  -7  -2-7.84253 303.743   4
   3   7   2-81.5759 293.321   1
  -3   7  -2-157.443 112.224   1
  -3   7  -2 239.884 145.941   2
  -3   7  -2 47.7855 210.377   5
  -3  -7  -3 7747.53 764.519   4
  -3   7  -3 6889.61 674.123   5
  -3  -7  -3 7853.44 709.752  16
  -3  -7  -3 6946.97 1059.94   1
   3   7   3 8763.78 1075.02   1
  -3  -7  -3 7436.88 622.134  13
  -3   7  -3 7451.42 599.437  20
  -3  -7  -4 4631.98 662.270   4
  -3  -7  -4 5327.18 617.958  12
  -3   7  -4 4831.61 553.823  20
  -3  -7  -4 5089.86 645.316  16
  -3  -7  -4 5772.41 708.709  14
  -3   7  -4 4834.80 514.687  18
  -3   7  -4 4980.97 632.587   5
  -3  -7  -4 5623.76 590.199  13
  -3  -7  -5 147743. 3086.36  12
  -3   7  -5 144375. 2913.18  18
  -3   7  -5 134647. 2850.14  20
  -3   7  -5 142928. 3381.73   5
  -3  -7  -5 140776. 3348.57  16
  -3  -7  -5 141357. 3012.08  13
  -3  -7  -6 535.705 329.685  13
  -3   7  -6 667.708 376.974  20
  -3   7  -6 835.846 293.159  18
  -3  -7  -6 599.253 435.108  16
  -3   7  -6 430.131 433.892   5
  -3  -7  -7 3878.90 651.788  13
  -3  -7  -7 3321.51 651.253   7
  -3   7  -7 3369.30 717.231   5
  -3   7  -7 3361.29 567.960  20
  -3  -7  -7 3123.10 657.810  16
  -3   7  -7 3859.79 700.340  10
  -3  -7  -8 774.643 416.514   7
  -3   7  -8-151.756 428.952   5
  -3   7  -8 45.8793 400.620  10
  -3  -7  -8 204.324 439.355  13
  -3  -7  -9 85073.9 3126.51   7
  -3   7  -9 82730.4 3179.77   5
  -3   7  -9 79969.2 2977.46  10
  -3  -7  -9 80424.9 2890.51  13
  -3  -7 -10-340.517 362.477  13
  -3   7 -10 43.2089 350.755  13
  -3   7 -10 52.6382 318.092  10
  -3  -7 -10-142.108 362.605   7
  -3   7 -10-150.852 307.595   5
  -3  -7 -11 8890.25 1013.17   6
  -3  -7 -11 8307.15 975.313   7
   3   7  11 8372.54 875.587  19
  -3   7 -11 7891.30 891.096  13
  -3   7 -11 8904.48 984.560   5
  -3  -7 -11 9255.48 974.849  13
   3   9 -12-309.073 213.377  18
  -3   9  12 286.886 264.200  19
   3   9 -12 196.523 337.853  13
   3  -9 -12 177.073 420.588  16
   3  -9 -12-398.711 392.594  13
   3  -9 -11 24226.2 1672.30  12
   3   9 -11 21887.7 1459.26  18
  -3   9  11 21760.2 1338.35  19
   3  -9 -11 20798.4 1750.64  16
   3  -9 -11 19982.4 1532.12  13
   3  -9 -10 541.085 467.096  13
   3  -9 -10 757.443 450.890  12
   3   9 -10-209.023 348.110  18
  -3   9  10 390.420 346.494  19
   3  -9 -10 500.864 601.090  16
  -3   9   9 33897.5 1752.13  19
   3   9  -9 34561.6 1957.78  18
   3   9  -9 32928.3 1890.37  10
   3  -9  -9 33643.9 1938.33  13
   3  -9  -9 34485.8 2269.32  16
   3  -9  -9 31611.0 1919.97  12
   3  -9  -8 290.290 428.052  13
   3  -9  -8 874.744 441.081  12
   3   9  -8 81.3274 366.264  10
  -3   9   8-10.9807 403.802  19
   3   9  -8 93.2965 361.227  18
   3  -9  -7 79354.7 2696.33  12
  -3   9   7 75784.6 2450.31  19
   3   9  -7 74506.9 2673.73  18
   3   9  -7 76978.8 2586.22  10
   3  -9  -7 77073.4 2563.92  13
   3  -9  -6 252.160 337.219  12
  -3   9   6 224.928 382.262  19
   3  -9  -6 136.674 324.383  13
   3   9  -6-32.6358 286.462  18
   3   9  -6 243.138 278.373  10
   3   9  -5 53965.3 2005.59  18
   3  -9  -5 55146.4 1970.89  12
   3  -9  -5 60919.9 3308.47  14
   3   9  -5 55238.5 1877.27  10
  -3   9   5 55089.9 1906.96  19
   3  -9  -5 51277.9 1830.61  13
   3  -9  -4 672.731 284.810  13
   3   9  -4 223.264 239.352  18
   3   9  -4 329.468 278.832   2
   3  -9  -4 628.144 304.694  12
  -3   9   4 464.351 387.408  19
  -3   9   3 306629. 6520.59   1
   3  -9  -3 291248. 6447.61   1
  -3   9   3 282677. 4019.75  19
   3  -9  -3 292194. 3997.60  12
   3   9  -3 284271. 3984.59  18
   3   9  -3 309459. 6472.42   2
   3  -9  -2 3976.97 496.773  12
  -3   9   2 3638.18 683.614   1
   3  -9  -2 3324.82 708.318   1
   3   9  -2 4221.10 814.798   1
   3   9  -2 2614.98 603.898   2
  -3   9   2 3817.24 540.554  19
   3  -9  -1 57092.5 2428.67   1
  -3   9   1 63407.7 1850.39  19
   3   9  -1 58142.5 2729.72   2
   3   9  -1 60038.2 2795.27   1
  -3   9   1 57671.1 2400.62   1
  -3  -9   1 55358.7 1708.89   4
  -3   9   0 153.928 227.619   1
  -3  -9   0 142.891 335.941   4
  -3  -9   0 156.966 210.311  15
  -3   9   0-5.62883 314.931  19
   3   9   0-210.484 273.678   1
  -3  -9   0 76.0342 388.720  14
   3   9   0-174.263 230.316   2
  -3   9  -1 170842. 2588.41  20
   3   9   1 174399. 4774.62   1
  -3   9  -1 173308. 3386.28   1
  -3  -9  -1 170614. 2771.25  15
  -3  -9  -1 168797. 3564.72  14
   3   9   1 173013. 4851.80   2
  -3  -9  -1 160701. 3308.36   4
  -3  -9  -2 221.242 210.741  13
  -3   9  -2-15.8878 138.449   2
  -3  -9  -2 389.275 264.917  15
  -3  -9  -2 516.590 404.180   4
  -3   9  -2 10.7386 276.653   5
  -3   9  -2 194.450 207.425  20
   3   9   2 356.982 271.305  19
  -3  -9  -2 530.422 389.272  14
  -3  -9  -3 202.135 209.621  13
  -3   9  -3 257.220 268.421  20
   3   9   3-18.4306 339.043  19
  -3  -9  -3 193.323 255.417  16
  -3  -9  -3 256.464 354.673   4
  -3   9  -3 509.782 353.717   5
  -3  -9  -3 288.234 430.646  14
  -3  -9  -4 54.4930 273.268  13
  -3   9  -4 169.356 279.930  20
  -3   9  -4 405.793 258.399  18
  -3  -9  -4 298.964 325.541  16
  -3   9  -4 302.048 313.613   5
  -3  -9  -4-107.803 399.636  14
  -3   9  -5 76288.5 2257.85  18
  -3  -9  -5 81962.3 2879.64  14
  -3  -9  -5 76724.1 2598.54  16
  -3   9  -5 77909.7 2592.33   5
  -3   9  -5 73722.5 2247.84  20
  -3  -9  -5 74737.1 2329.78  13
  -3   9  -6 198.229 318.584  20
  -3   9  -6 336.209 238.978  18
  -3   9  -6 583.411 415.666   5
  -3  -9  -6 207.450 385.030  16
  -3  -9  -6-338.939 370.304  13
  -3  -9  -7 1520.04 542.954  13
  -3   9  -7 1067.73 435.900  20
  -3   9  -7 2143.18 428.576  18
  -3  -9  -7 1344.58 584.645  16
  -3   9  -7 1766.57 543.050   5
  -3   9  -7 1769.29 557.814  10
  -3  -9  -8-524.308 455.576  13
  -3   9  -8-13.3979 383.899  10
  -3  -9  -8 209.547 416.484   7
  -3   9  -8 343.044 352.242   5
  -3   9  -9 49484.9 2404.87   5
  -3  -9  -9 47988.7 2238.11  13
   3   9   9 47107.5 2180.77  19
  -3  -9  -9 48428.1 2366.88   7
  -3   9  -9 45095.4 2233.36  10
  -3  -9 -10-18.0533 293.685  13
  -3  -9 -10 671.502 386.319   7
  -3   9 -10-183.080 360.408   5
   3   9  10-64.1586 367.080  19
  -3   9 -10-111.013 357.005  10
  -3   9 -11 8919.81 891.101  13
  -3  -9 -11 9251.22 934.682  15
   3   9  11 9030.91 870.570  19
  -3  -9 -11 9739.13 1040.15   6
  -3  -9 -11 9074.27 917.208  13
   3  11 -12 35.7898 273.865  13
  -3  11  12 551.438 276.533  19
   3 -11 -12 591.220 400.193  16
   3  11 -12 875.705 263.514  18
   3 -11 -11 13924.4 1319.22  12
  -3  11  11 13713.1 1058.82  19
   3  11 -11 13708.8 1124.08  18
   3 -11 -11 13848.7 1405.10  16
  -3  11  10 1342.61 418.230  19
   3 -11 -10 904.856 486.917  12
   3  11 -10 1070.36 449.039  18
   3 -11 -10 1707.26 576.402  13
   3 -11 -10 523.439 619.556  16
   3 -11  -9 22546.5 1709.94  12
   3  11  -9 21075.1 1530.28  18
   3  11  -9 20391.1 1445.72  10
  -3  11   9 21605.2 1451.13  19
   3 -11  -9 20950.2 1776.84  16
   3 -11  -9 21836.9 1601.97  13
   3 -11  -8-500.140 403.659  13
   3 -11  -8-306.377 450.832  16
   3  11  -8 45.8830 363.709  10
   3 -11  -8 71.8228 444.798  12
   3  11  -8-5.51574 302.390  18
  -3  11   8 353.421 352.569  19
  -3  11   7 77420.4 2592.13  19
   3 -11  -7 74362.9 2789.39  12
   3  11  -7 75976.4 2776.74  18
   3 -11  -7 76196.3 2985.81  16
   3  11  -7 77891.3 2561.00  10
   3 -11  -7 76410.7 2714.17  13
   3 -11  -6 1238.57 467.598  13
   3  11  -6 1162.92 425.350  18
  -3  11   6 1816.00 561.512  19
   3  11  -6 1414.23 439.519  10
   3 -11  -6 1642.53 503.470  12
   3 -11  -5 45285.7 1956.49  12
   3  11  -5 43993.9 1908.13  18
  -3  11   5 44874.2 1850.28  19
   3  11  -5 45033.4 1689.51  10
   3  11  -4-120.591 331.639  18
  -3  11   4-73.6150 337.452  19
   3 -11  -4-62.3167 295.075  12
   3 -11  -4 45.6090 823.230  14
   3 -11  -3 111546. 2766.83  12
  -3  11   3 109361. 2738.33  19
   3  11  -3 112482. 2665.31  18
  -3 -11   3 110028. 2713.12  14
   3 -11  -2 329.411 293.628  12
  -3  11   2 306.144 377.495  19
  -3 -11   2 604.067 361.121  14
  -3  11   1 13551.0 981.204  19
   3 -11  -1 12097.6 858.556  12
   3  11  -1 13441.0 810.684  19
  -3 -11   1 13196.0 771.841  11
  -3  11   1 14030.5 776.792  20
  -3 -11   1 13465.6 957.061   4
  -3 -11   1 12305.8 1044.77  14
  -3  11   1 13502.0 1283.06   1
  -3  11   0 560.702 237.608  20
   3  11   0 355.722 235.605  19
  -3  11   0 787.445 389.107  19
  -3 -11   0 271.483 354.239  14
  -3  11   0 270.796 293.178   1
  -3 -11   0 469.250 397.972   4
  -3 -11  -1 147180. 3664.41  14
   3  11   1 144252. 2743.39  19
  -3  11  -1 139370. 3658.48   2
  -3 -11  -1 147450. 2855.66  15
  -3 -11  -1 141548. 3427.52   4
  -3  11  -1 145767. 2620.94  20
  -3  11  -2-297.644 259.271  20
  -3 -11  -2 236.938 285.245  15
   3  11   2-202.083 347.099  19
  -3 -11  -2 403.134 492.187  14
  -3  11  -3 475.958 290.065  20
   3  11   3 958.070 381.136  19
  -3 -11  -3 677.999 489.600  14
  -3 -11  -3 230.244 268.968  15
  -3  11  -3 642.938 355.499   5
   3 -11   3 350.265 443.489  14
  -3 -11  -4 530.505 317.434  13
   3  11   4 402.485 410.498  19
  -3 -11  -4 907.658 369.249  15
  -3  11  -4 672.229 385.365   5
  -3 -11  -4 853.165 509.607  14
  -3  11  -4 553.622 332.292  20
  -3 -11  -5 75774.5 3048.73  14
   3  11   5 82108.8 2631.20  19
  -3  11  -5 79540.5 2441.58  18
  -3  11  -5 78705.9 2434.15  20
  -3  11  -5 81888.1 2778.65   5
  -3 -11  -5 83546.3 2589.53  15
  -3 -11  -5 85716.2 2655.52  13
  -3  11  -6 140.810 344.207  20
  -3 -11  -6-139.635 330.082  13
   3  11   6-304.047 452.453  19
  -3  11  -6 309.018 202.438  18
  -3  11  -6-7.96181 386.106   5
  -3  11  -7 2073.65 578.589  10
  -3  11  -7 2167.51 525.575   5
   3  11   7 1579.84 563.466  19
  -3 -11  -7 1230.47 512.163  13
  -3  11  -7 2227.93 550.315  18
  -3 -11  -8 580.917 384.343  13
   3  11   8 311.878 410.785  19
  -3  11  -8 807.288 477.044  10
  -3 -11  -8 469.584 419.240   7
  -3  11  -8 1252.30 451.707   5
  -3 -11  -9 38504.8 2071.93   7
   3  11   9 37028.7 1896.66  19
  -3  11  -9 38682.1 1971.75  10
  -3 -11  -9 38274.8 1968.95  15
  -3  11  -9 38246.2 2044.21   5
  -3 -11  -9 36371.9 1969.59  13
   3  11  10-154.343 353.620  19
  -3  11 -10 173.144 331.685  10
  -3 -11 -10 811.671 386.738   7
  -3  11 -10 1884.61 458.219   5
  -3 -11 -10 1231.27 451.931  15
  -3 -11 -10 861.574 475.639  13
   3  13 -11 13782.7 1057.44  18
  -3  13  11 12348.1 938.441  19
   3 -13 -11 13333.4 1303.47  16
   3 -13 -11 12907.5 1026.82  15
  -3  13  10 310.478 343.576  19
   3  13 -10 82.8077 281.307  18
   3 -13 -10 590.502 326.546  15
   3 -13 -10-350.128 444.489  12
   3 -13 -10 647.694 466.602  16
   3 -13  -9 39281.1 2312.98  16
   3 -13  -9 36818.9 2222.15  12
   3  13  -9 39900.0 2052.86  18
  -3  13   9 41004.8 1952.18  19
   3  13  -9 41031.2 1898.59  10
   3 -13  -8 482.092 476.988  12
   3  13  -8 674.313 357.575  10
   3  13  -8 258.370 412.729  18
   3 -13  -8 1115.98 531.868  16
  -3  13   8 923.989 454.625  19
   3 -13  -7 45439.8 2325.54  12
  -3  13   7 45245.9 2079.01  19
   3  13  -7 48519.6 1983.32  10
   3 -13  -7 44611.6 2289.74  16
   3  13  -7 48044.0 2242.81  18
   3 -13  -6 102.873 342.853  16
   3 -13  -6 192.386 420.000  12
   3  13  -6 74.4982 364.734  18
  -3  13   6-89.8470 435.207  19
   3 -13  -6 303.550 248.342  15
   3  13  -6-293.768 262.910  10
   3 -13  -6 65.9858 917.561  14
   3 -13  -5 26749.3 1667.01  12
  -3  13   5 27692.0 1567.84  19
   3 -13  -5 24188.3 1481.00  16
   3 -13  -5 31358.2 2727.06  14
   3  13  -5 27443.4 1599.86  18
  -3  13   4 112.448 386.216  19
   3 -13  -4 168.754 352.728  12
   3  13  -4 186.088 349.531  18
   3 -13  -4-747.026 342.819  16
  -3 -13   4-495.671 347.060  14
  -3  13   3 80295.3 2541.22  19
   3 -13  -3 78985.5 2597.37  12
   3  13  -3 76192.3 2372.73  18
  -3 -13   3 81277.2 2545.73  14
   3 -13  -3 82468.1 3965.13  14
   3 -13  -2 159.578 300.482  12
  -3  13   2 104.449 353.548  19
  -3 -13   2-274.256 404.334  14
   3 -13  -2-121.117 740.789  14
  -3  13   1 9039.26 676.523  20
   3  13  -1 10291.7 804.220  19
  -3 -13   1 8915.07 689.643  11
  -3 -13   1 8888.34 1009.02  14
  -3  13   1 9783.64 937.186  19
   3 -13  -1 8068.61 1298.06  14
  -3  13   0 415.918 263.926  20
   3  13   0 68.2875 266.784  19
  -3 -13   0 541.813 242.183  11
  -3 -13   0 262.399 501.718  14
   3 -13   0-21.9176 652.373  14
  -3  13  -1 115452. 2531.76  20
   3  13   1 109416. 2612.21  19
  -3 -13  -1 113937. 3496.17  14
   3  13   2-636.095 322.777  19
  -3 -13  -2-440.266 333.507  15
  -3 -13  -2-23.7641 533.016  14
   3 -13   2-373.176 529.006  14
  -3  13  -2 128.415 247.281  20
  -3 -13  -3 127.411 279.695  15
  -3  13  -3 447.315 325.446  20
   3  13   3 966.158 408.471  19
  -3 -13  -3 22.4153 523.554  14
   3  13   4 468.699 377.545  19
  -3 -13  -4 363.930 524.635  14
  -3  13  -4 300.662 283.705  18
  -3 -13  -4 440.954 357.345  15
  -3  13  -4 507.349 389.277  20
   3  13   5 86826.7 2811.81  19
  -3  13  -5 88743.7 2686.02  18
  -3 -13  -5 87096.6 3450.25  14
  -3 -13  -5 88375.9 2808.83  15
  -3  13  -5 91397.8 2750.11  20
  -3 -13  -6 898.152 503.388  14
  -3  13  -6 117.916 254.976  18
   3  13   6 389.394 461.522  19
  -3 -13  -6 402.394 368.906  15
  -3  13  -6 882.517 466.848  20
  -3  13  -6-167.335 365.404   5
   3  13   7 8749.54 1002.95  19
  -3  13  -7 8214.39 862.334  18
  -3 -13  -7 7995.12 957.876  15
  -3  13  -7 8384.37 989.236   5
  -3  13  -7 8140.97 922.303  10
  -3 -13  -8-336.075 321.813   7
  -3  13  -8 315.468 307.326  10
   3  13   8 556.121 441.609  19
  -3 -13  -8-281.263 358.576  15
  -3  13  -8-433.122 400.000   5
  -3 -13  -9 38953.4 2009.69   7
   3  13   9 43206.0 1942.10  19
  -3  13  -9 43438.7 1961.66  10
  -3 -13  -9 44275.2 2045.12  15
   3  13  10-210.810 277.108  19
  -3  13 -10-657.316 309.413  10
  -3  15  10-559.701 338.870  19
   3  15 -10 273.619 299.380  18
   3 -15 -10 428.480 359.117  16
   3 -15  -9 31977.2 2022.90  12
   3  15  -9 32076.8 1761.05  18
  -3  15   9 33281.1 1704.97  19
   3 -15  -9 30631.7 1904.41  16
   3 -15  -9 33634.2 1626.83  15
   3  15  -8 114.816 324.605  18
  -3  15   8 140.456 383.547  19
   3 -15  -8 614.804 404.833  16
   3 -15  -8 308.078 242.608  15
   3 -15  -8-306.732 468.603  12
  -3  15   7 46741.5 2148.38  19
   3 -15  -7 47148.1 2454.36  12
   3  15  -7 48982.8 2252.61  18
   3 -15  -7 42034.2 2173.51  16
  -3  15   6-81.8448 435.221  19
   3 -15  -6 290.588 452.519  12
   3  15  -6-186.957 346.237  18
   3 -15  -6 305.065 393.880  16
   3 -15  -6 114.720 779.845  14
   3 -15  -5 17658.3 1442.03  12
  -3  15   5 18377.5 1358.58  19
   3 -15  -5 18222.8 1279.37  16
   3 -15  -5 18686.7 2255.53  14
   3  15  -5 17492.9 1302.19  18
   3  15  -4 406.705 302.987  18
   3 -15  -4 573.508 903.864  14
  -3  15   4 721.854 490.234  19
  -3 -15   4 370.689 399.151  14
   3 -15  -4 604.959 460.698  12
   3 -15  -3 49367.7 2222.41  12
  -3  15   3 47663.1 2111.95  19
   3  15  -3 48642.1 1962.35  18
  -3 -15   3 44758.4 2021.93  14
  -3  15   2 127.797 431.091  19
  -3 -15   2 230.734 425.687  14
   3 -15  -2 350.274 948.313  14
   3  15  -1 1269.13 384.062  19
  -3  15   1 1703.68 575.194  19
  -3  15   1 1655.18 343.022  20
  -3 -15   1 1229.21 602.693  14
  -3  15   0-75.3644 251.534  20
  -3 -15   0 552.397 270.622  11
   3  15   0 610.009 369.050  19
  -3 -15   0 370.865 500.623  14
   3  15   1 103794. 2711.46  19
  -3  15  -1 105606. 2651.93  20
  -3 -15  -1 97533.0 3454.37  14
   3  15   2 1774.68 504.736  19
  -3  15  -2 1589.69 419.482  20
  -3 -15  -2 1413.75 656.245  14
   3  15   3 360.844 336.835  19
  -3  15  -3 509.460 371.336  20
  -3 -15  -3 454.531 347.258  15
  -3 -15  -3 59.8011 616.953  14
  -3  15  -4 894.852 406.358  20
   3  15   4 409.384 496.865  19
  -3  15  -4 935.269 350.482  18
  -3 -15  -4 224.989 349.246  15
  -3 -15  -4 609.965 652.901  14
   3  15   5 112364. 3231.83  19
  -3  15  -5 113268. 3164.99  20
  -3  15  -5 119747. 3208.48  18
  -3 -15  -5 111989. 3256.28  15
  -3 -15  -5 109740. 3955.20  14
   3  15   6-51.9283 387.196  19
  -3  15  -6 18.2154 246.057  18
  -3 -15  -6-215.522 327.000  15
  -3 -15  -6 34.1984 362.711  14
   3  15   7 5317.10 780.439  19
  -3  15  -7 5441.11 747.833  10
  -3  15  -7 5886.46 742.164  18
  -3 -15  -7 4764.64 750.869  15
   3  15   8-897.677 437.781  19
  -3 -15  -8 78.4925 251.298   7
  -3 -15  -8-475.401 357.014  15
  -3  15  -8 171.710 309.339  10
   3  15   9 42664.5 1794.60  19
  -3  15  -9 43617.9 1793.28  10
  -3 -15  -9 40391.1 1832.98  15
  -3  17   9 25924.1 1422.27  19
   3  17  -9 27166.5 1494.08  18
   3  17  -8 343.715 335.480  18
  -3  17   8 474.687 406.884  19
   3 -17  -7 43350.6 2054.35  16
   3 -17  -7 50220.9 2893.06  14
  -3  17   7 45402.6 2084.89  19
   3  17  -7 44645.4 2095.57  18
  -3  17   6 622.155 420.963  19
   3  17  -6 95.8594 306.659  18
   3 -17  -6-510.482 302.531  16
   3 -17  -6 127.739 718.026  14
  -3  17   5 16973.7 1358.34  19
   3 -17  -5 15558.2 1960.93  14
   3  17  -5 15354.3 1237.65  18
  -3  17   4-713.754 498.244  19
   3  17  -4 443.728 374.926  18
   3 -17  -4 1445.84 1012.07  14
  -3  17   3 65836.1 2588.12  19
   3 -17  -3 63254.4 3717.77  14
  -3 -17   3 63049.9 2485.80  14
   3  17  -3 62274.6 2335.34  18
  -3  17   2 59.7925 462.656  19
   3  17  -2 245.413 311.076  18
  -3 -17   2 56.1953 464.586  14
  -3 -17   1 2410.71 742.974  14
   3 -17  -1 1965.46 988.477  14
   3  17   0-104.446 293.778  19
  -3  17   0-345.990 285.577  20
  -3 -17   0-414.240 600.736  14
   3 -17   0 49.3708 782.049  14
   3  17   1 85803.5 2620.07  19
  -3  17  -1 88563.6 2569.02  20
  -3 -17  -1 94438.6 2580.24  11
  -3 -17  -1 87224.3 3419.46  14
   3  17   2 17.4502 327.506  19
  -3 -17  -2 568.347 277.963  11
  -3 -17  -2 78.1518 586.368  14
   3 -17   2 892.151 639.047  14
  -3  17  -2 262.107 323.381  20
   3  17   3 3225.80 611.753  19
  -3 -17  -3 3202.15 867.354  14
   3 -17   3 3853.05 778.135  14
  -3  17  -3 3408.00 610.338  20
  -3  17  -4 741.556 351.063  18
  -3 -17  -4 1214.33 637.336  14
  -3  17  -4 1230.80 501.075  20
   3  17   4 247.868 416.971  19
  -3  17  -5 117353. 3182.01  18
   3  17   5 114414. 3241.21  19
  -3 -17  -5 109353. 3910.63  14
  -3 -17  -5 110735. 3254.08  15
   3  17   6 454.267 417.429  19
  -3  17  -6 629.496 280.239  18
  -3 -17  -6 726.760 348.978  15
  -3 -17  -6 1252.88 503.661  14
   3  17   7 3473.41 620.686  19
  -3  17  -7 2602.90 498.706  10
  -3 -17  -7 2658.11 526.128   7
  -3  17  -7 1980.57 474.222  18
  -3 -17  -7 2919.04 545.673  15
   3  17   8 44.2989 370.109  19
  -3 -17  -8 8.22349 307.403  15
  -3  17  -8 138.091 226.953  10
  -3  19   8 744.093 331.927  19
   3  19  -8 1111.03 367.959  18
   3  19  -7 33886.2 1724.19  18
  -3  19   7 33544.8 1708.98  19
   3 -19  -7 37184.5 2258.73  14
  -3  19   6-105.837 387.736  19
   3  19  -6 433.984 336.643  18
   3 -19  -6 398.307 713.149  14
  -3  19   5 13510.5 1209.85  19
   3  19  -5 12275.0 1093.93  18
   3 -19  -5 13586.8 1759.50  14
   3  19  -4 78.9537 326.267  18
  -3  19   4-66.1024 480.088  19
   3 -19  -4 395.133 777.467  14
  -3  19   3 72818.2 2771.87  19
   3 -19  -3 78357.9 3965.22  14
   3  19  -3 70554.4 2476.12  18
  -3 -19   3 72328.2 2635.39  14
   3  19  -2-373.443 311.441  18
  -3 -19   2 385.631 481.482  14
   3 -19  -2-426.879 805.061  14
  -3 -19   1 11424.9 1257.21  14
   3 -19  -1 9540.79 1455.91  14
   3  19  -1 10736.1 964.975  18
  -3 -19   0 300.415 511.944  14
   3 -19   0-640.106 758.911  14
   3 -19   1 75529.1 3393.86  14
   3  19   1 79922.0 2614.70  19
  -3  19  -1 83712.1 2565.14  20
  -3 -19  -1 82227.8 3328.18  14
   3  19   2 307.577 365.887  19
  -3  19  -2 440.023 369.968  20
   3 -19   2-190.373 528.939  14
  -3 -19  -2 418.613 584.240  14
   3  19   3 4230.44 697.224  19
  -3  19  -3 3900.34 616.727  18
  -3  19  -3 2920.73 571.825  20
  -3 -19  -3 3491.75 560.217  11
  -3 -19  -3 2739.16 838.780  14
   3  19   4 200.135 372.304  19
  -3  19  -4 325.416 274.539  18
  -3 -19  -4 1126.96 343.482  11
  -3 -19  -4 864.614 507.363  14
  -3  19  -5 49936.0 2019.32  18
  -3 -19  -5 46446.1 2432.07  14
  -3  19  -5 48688.4 1847.40  10
   3  19   5 47528.0 2008.37  19
  -3  19  -6-222.593 213.171  18
   3  19   6 77.5245 332.273  19
  -3  19  -6 379.016 232.115  10
   3  19   7 3448.49 571.722  19
  -3  19  -7 4545.03 545.896  10
  -3  19  -7 3750.33 490.466  18
  -3  21   6-299.325 321.410  19
   3  21  -6 196.056 196.292  18
   3 -21  -6 175.073 506.784  14
   3  21  -5 19438.8 1268.88  18
   3 -21  -5 18175.1 1719.41  14
  -3  21   5 19688.9 1368.57  19
   3  21  -4 896.311 345.342  18
   3 -21  -4-514.292 654.430  14
   3  21  -3 48467.9 1993.42  18
  -3 -21   3 50608.7 2063.42  14
   3 -21  -3 51017.2 2922.36  14
   3  21  -2 150.474 286.448  18
   3 -21  -2 1136.50 759.836  14
  -3 -21   2 529.638 409.893  14
   3  21  -1 4388.82 616.323  18
  -3 -21   1 6431.35 953.703  14
   3 -21  -1 4880.67 1050.68  14
   3  21   0 102.425 209.650  18
   3 -21   0 332.738 633.454  14
  -3 -21   0 287.644 510.596  14
   3  21   1 60730.3 2040.26  18
  -3 -21  -1 56974.7 2665.85  14
  -3 -21  -2 80.1755 478.607  14
  -3  21  -2 184.860 291.732  18
   3 -21   2 300.874 413.163  14
   3  21   3 355.406 358.223  19
  -3  21  -3 536.183 307.281  18
  -3 -21  -3 34.6409 479.912  14
   3  21   4 1338.01 422.822  19
  -3  21  -4 1007.94 332.413  18
   3  21   5 37401.4 1636.13  19
  -3 -21  -5 37060.1 1938.77  14
  -3  21  -5 36980.6 1606.61  18
   3 -23  -4 704.951 532.150  14
   3  23  -4-207.232 244.875  18
   3  23  -3 40805.3 1678.00  18
   3 -23  -3 41721.2 2286.38  14
   3  23  -2-137.973 190.783  18
  -3 -23   2 6.11583 230.114  14
  -3 -23   1 5969.79 808.495  14
   3 -23  -1 6597.14 987.885  14
   3  23  -1 5463.58 612.517  18
   3 -23   0 1014.86 554.262  14
   3  23   0 1102.91 283.004  18
  -3 -23   0 1185.85 453.581  14
  -3 -23  -1 37463.5 1940.30  14
   3 -23   1 34177.0 1841.08  14
  -3 -23  -2-48.0211 354.831  14
  -3  23  -2 50.6646 260.076  18
  -3 -23  -3 43.3881 336.365  14
  -3  23  -3 384.916 231.217  18
   4   0 -13 1351.54 389.008  13
   4   0 -12 11524.2 1087.09  18
   4   0 -12 12309.1 1160.96  13
   4   0 -11 499.014 430.380  13
   4   0 -11 336.081 300.116  18
   4   0 -10 43419.5 1944.73  12
   4   0 -10 40787.8 2068.58  18
   4   0 -10 42214.7 2119.99  13
   4   0  -9 243.828 275.725  12
   4   0  -9-34.8497 321.509  18
   4   0  -9 548.267 341.229   6
   4   0  -9 120.811 414.494  13
   4   0  -8 75588.7 2461.82  13
   4   0  -8 71975.1 2502.85  18
   4   0  -8 75083.7 2358.55  12
   4   0  -8 78343.2 2296.98   6
   4   0  -7-730.356 345.081  13
   4   0  -7-190.273 333.637  18
   4   0  -7-146.643 265.493  12
   4   0  -6 96034.8 2334.96  12
   4   0  -6 93380.4 2453.64  18
  -4   0   6 97295.3 3553.02   2
  -4   0   5 211.591 282.563   2
  -4   0   4 100621. 3085.01   2
   4   0  -4 99220.7 3330.68   2
   4   0  -3-615.173 416.634   2
   4   0  -2 80575.5 2464.97   2
  -4   0   1 27.0704 244.331   2
   4   0  -1-60.3539 267.130   2
  -4   0   0 151680. 2559.42   2
   4   0   0 146529. 2673.03   2
   4   0   1 29.7443 134.393   1
   4   0   1 40.8113 174.385   2
   4   0   2 5412.98 467.997   2
   4   0   2 5744.51 468.021   1
   4   0   3 156.136 114.248   2
   4   0   4 230756. 2580.73   2
  -4   0  -4 224937. 3480.03   7
  -4   0  -4 243550. 3982.46   1
   4   0   4 218237. 2734.30   2
  -4   0  -4 234523. 3013.26   4
  -4   0  -5 50.4484 232.186   7
  -4   0  -5-103.823 327.833  10
  -4   0  -6 3689.75 609.739  13
  -4   0  -6 4170.70 635.993   7
  -4   0  -6 3767.27 609.667  10
  -4   0  -7 22.6425 325.200  13
  -4   0  -7 68.3413 315.262   7
  -4   0  -7-238.377 349.521  10
  -4   0  -8 61724.5 2516.51  10
  -4   0  -8 60812.4 2827.80   6
  -4   0  -8 61492.4 2642.50   7
  -4   0  -8 59337.8 2463.12  13
  -4   0  -9-175.967 382.211   7
  -4   0  -9 11.2158 414.592  13
  -4   0  -9-3.49503 389.625   6
  -4   0 -10 4348.38 807.293   6
  -4   0 -10 5762.64 1046.78   5
  -4   0 -10 4682.29 789.526  13
  -4   0 -11 111.245 338.735   6
  -4   0 -11 764.052 497.717   5
  -4   0 -11-59.9403 412.575  13
   4   2 -13 311.467 288.154  13
   4  -2 -13-261.016 300.171  13
   4   2 -12 11938.7 1063.76  18
   4   2 -12 13417.6 1141.84   5
   4  -2 -12 11329.5 1229.46  16
   4  -2 -12 12388.7 1191.20  13
   4   2 -12 12538.1 1156.47  13
   4   2 -11-10.8939 390.229  13
   4  -2 -11 486.685 373.902  18
   4   2 -11 65.8082 382.628  18
   4  -2 -11 453.186 434.166  13
   4   2 -10 57202.2 2446.86  13
   4   2 -10 56395.8 2459.37  18
   4  -2 -10 56902.0 2394.53  18
   4  -2 -10 60130.7 2345.56  12
   4  -2 -10 57650.9 2478.22  13
   4  -2  -9 2597.51 640.453  13
   4  -2  -9 1850.07 489.838  12
   4   2  -9 2704.84 483.277  12
   4  -2  -9 2307.23 550.094  18
   4   2  -9 2440.61 574.691  13
   4   2  -9 2494.82 575.982  18
   4   2  -8 48444.4 1835.95   6
   4  -2  -8 45558.7 1961.00  18
   4   2  -8 46433.0 2067.80  18
   4   2  -8 44791.6 1822.45  12
   4  -2  -8 45258.3 1864.93  12
   4  -2  -8 45227.4 1914.04  13
   4  -2  -7 182.509 304.451  13
   4  -2  -7 350.890 266.639  12
   4  -2  -7 275.733 277.203  18
   4   2  -7 917.225 387.054  18
   4   2  -7 241.320 262.619  12
   4   2  -7 124.908 246.684   6
   4  -2  -6 83032.1 2137.00   7
   4   2  -6 83148.8 2207.87  12
   4  -2  -6 87828.8 2220.65  12
  -4  -2   6 88687.7 3295.99   2
   4   2  -6 80856.3 2391.08  18
   4   2  -6 82938.8 3700.70   2
   4  -2  -6 85688.9 2263.34  18
  -4   2   6 88938.0 3485.18   2
   4  -2  -5-79.4931 318.288   1
  -4   2   5 330.311 284.800   2
   4   2  -5 275.989 352.509   2
  -4  -2   5 44.8277 219.879   2
   4   2  -4 133673. 3952.51   2
  -4   2   4 140257. 3771.64   2
   4  -2  -4 135931. 3981.33   1
  -4  -2   4 138368. 3573.71   2
   4  -2  -3 13294.3 1140.93   1
   4   2  -3 13192.1 1180.91   2
   4   2  -2 90210.9 2778.75   2
  -4   2   2 92812.1 2552.14   2
  -4   2   1 8048.49 696.669   2
   4   2  -1 7272.62 788.446   2
  -4  -2   1 8192.96 782.642   2
   4  -2  -1 7997.77 708.979   2
   4   2   0 219180. 3881.84   2
  -4  -2   0 225974. 3639.54   2
  -4   2   0 228269. 3020.02   2
   4  -2   0 220384. 2885.95   2
   4   2   1 44.5819 236.824   1
   4   2   1 179.072 278.234   2
  -4   2  -1 28.4937 87.1721   2
  -4   2  -2 2808.51 416.593   5
   4   2   2 2935.90 454.299   1
   4   2   2 2029.98 471.289   2
   4   2   3 840.225 332.209   2
  -4  -2  -3 1245.96 329.431   4
  -4   2  -3 1107.51 319.712   7
   4   2   3 607.774 229.909   1
  -4  -2  -3 830.501 304.297   1
  -4   2  -3 543.746 274.233   6
  -4  -2  -4 258245. 3467.21  13
   4   2   4 258381. 4889.43   1
  -4  -2  -4 240553. 4786.13   1
  -4  -2  -4 234548. 3375.07   4
  -4   2  -4 246902. 3725.88   7
  -4  -2  -4 260590. 3629.50  16
   4   2   4 236242. 4959.76   2
  -4   2  -4 234571. 3965.61   6
  -4  -2  -5 437.504 295.416  13
  -4   2  -5 645.915 312.747   7
  -4   2  -5 248.012 315.806   6
  -4  -2  -5 256.500 249.894  16
  -4  -2  -5 436.489 282.704  10
  -4   2  -5 762.564 330.497  10
  -4  -2  -5 382.821 266.983   4
  -4  -2  -6 6468.60 751.158   7
  -4   2  -6 7007.98 907.059   6
  -4   2  -6 6157.61 757.802  10
  -4  -2  -6 7078.81 747.572  16
  -4  -2  -6 7314.80 778.465  10
  -4   2  -6 7094.40 826.527   7
  -4  -2  -6 8025.79 806.105  13
  -4  -2  -7 13.1907 338.109  13
  -4  -2  -7 200.367 397.969   7
  -4   2  -7 723.089 414.719   7
  -4   2  -7 315.260 388.430   6
  -4  -2  -7-285.722 326.551  10
  -4   2  -7-21.3082 365.886  10
  -4  -2  -8 63988.8 2504.94  13
  -4   2  -8 62525.9 2739.58   7
  -4   2  -8 67659.9 2964.28   6
  -4   2  -8 64017.4 2598.54  13
  -4   2  -8 61381.1 2528.55  10
  -4  -2  -8 64127.8 2661.54   7
  -4   2  -9 1455.95 544.419  13
  -4  -2  -9 444.361 361.187   7
  -4  -2  -9-359.361 483.493   6
  -4   2  -9 1341.73 548.942   6
  -4  -2  -9 269.138 408.469  13
  -4   2  -9 403.651 357.578  10
  -4   2  -9 390.457 539.442   5
  -4   2 -10 8170.60 1057.62   6
  -4  -2 -10 5891.40 934.295   6
  -4  -2 -10 7277.29 997.879   7
  -4   2 -10 7102.51 1075.17   5
  -4  -2 -10 5739.45 882.773  13
  -4   2 -10 7199.67 974.776  13
  -4  -2 -11-335.899 375.729  13
  -4   2 -11 630.226 365.321  13
  -4  -2 -11 406.433 360.493   5
  -4  -2 -11 33.1741 295.771   6
  -4   2 -11 159.235 363.060   6
  -4   2 -11 721.090 451.703   5
   4  -4 -13-519.254 352.490  13
   4   4 -13-70.6739 326.700  13
   4   4 -13 24.9207 235.197  18
   4  -4 -13-1098.20 421.700  16
   4   4 -12 11936.4 1081.86  18
   4  -4 -12 11565.5 1301.54  16
  -4   4  12 12720.6 967.278  19
   4  -4 -12 12382.8 1183.24  13
   4   4 -12 12481.3 1118.49  13
   4  -4 -11-159.648 328.327  13
   4   4 -11-599.633 417.931  13
   4   4 -11-303.565 347.322  18
   4  -4 -11-26.9002 448.648  16
   4   4 -10 59022.3 2481.06  13
   4  -4 -10 60495.6 2458.07  12
   4   4 -10 62042.0 2630.05  18
   4  -4 -10 58854.0 2510.17  13
   4  -4  -9 1716.30 474.756  18
   4  -4  -9 2071.14 537.201  13
   4   4  -9 2106.73 580.809  18
   4  -4  -9 2124.59 504.852  12
   4  -4  -8 38981.8 1783.98  12
   4  -4  -8 36638.7 1739.66   7
   4   4  -8 38204.2 1689.42  12
   4  -4  -8 36931.7 1723.98  18
   4   4  -8 36383.8 1911.51  18
   4  -4  -8 38500.9 1788.40  13
   4  -4  -7 253.789 291.342  13
   4   4  -7 513.003 361.778  18
   4   4  -7-14.0615 211.579  12
   4  -4  -7-206.716 277.452  12
   4   4  -7 43.0955 372.036  10
   4   4  -7 185.921 216.798   6
   4  -4  -7 15.5232 188.275   7
   4  -4  -7 32.2248 255.465  18
   4  -4  -6 72560.7 1939.86   7
   4   4  -6 72984.1 2357.48  18
  -4  -4   6 77187.6 3129.72   2
   4   4  -6 68153.0 1865.03   6
   4  -4  -6 72000.8 2084.59  18
   4   4  -6 70659.9 2095.08  12
   4   4  -6 73313.7 2617.34  10
   4  -4  -6 71581.3 2069.70  12
   4  -4  -6 74568.5 2018.40  13
   4   4  -6 69313.4 3390.05   2
   4  -4  -5 2881.24 428.473  18
   4  -4  -5 2616.81 433.778  12
   4   4  -5 2606.95 506.042  18
  -4   4   5 2688.94 712.413   2
   4   4  -5 3402.53 730.310   2
   4  -4  -5 3373.67 777.742   1
  -4  -4   5 2926.78 591.159   2
   4   4  -4 84354.6 3231.73   2
  -4  -4   4 85945.5 2959.38   2
   4  -4  -4 84449.1 3166.34   1
  -4   4   4 91702.7 3193.61   2
   4   4  -3 15407.0 1342.71   2
  -4  -4   3 17944.9 1321.93   2
   4  -4  -3 16403.6 1270.12   1
   4   4  -2 12215.5 1138.32   2
   4  -4  -2 12492.7 962.314   1
  -4   4   2 15085.8 1129.12   2
   4   4  -1 13890.2 1145.04   2
   4  -4  -1 13471.4 827.034   1
   4   4   0 329898. 5054.23   1
   4   4   0 313781. 5281.50   2
   4  -4   0 311955. 2785.37   1
  -4   4   0 323896. 3929.51   2
  -4   4  -1-5.87409 100.853   2
   4   4   1 53.5419 275.780   1
   4   4   1 48.7256 283.103   2
   4   4   2 4662.68 760.027   2
  -4   4  -2 5908.13 548.074   5
   4   4   2 5202.68 687.285   1
  -4  -4  -2 5554.28 569.017   8
  -4   4  -2 5529.60 568.863   6
  -4   4  -3 2271.68 407.655   7
  -4  -4  -3 1992.43 438.778   8
   4   4   3 1098.73 454.020   2
  -4  -4  -3 2254.16 432.905   4
   4   4   3 2102.01 459.274   1
  -4   4  -3 1533.35 379.145   6
  -4  -4  -3 1748.48 484.975   1
  -4   4  -3 2067.46 402.969   5
  -4  -4  -4 240112. 5543.62   1
  -4   4  -4 234272. 4101.39   6
  -4   4  -4 248923. 4052.90   5
  -4   4  -4 254510. 3328.79  20
  -4  -4  -4 252060. 3882.39  16
   4   4   4 259903. 5419.72   1
  -4   4  -4 237350. 3866.38   7
  -4  -4  -4 251794. 3498.83  13
  -4  -4  -4 237185. 3741.84   4
  -4  -4  -4 247279. 3491.83   8
  -4  -4  -5 360.015 230.588  13
  -4   4  -5 182.360 253.843   7
  -4   4  -5 183.095 236.471  20
  -4   4  -5 293.970 383.382   6
  -4  -4  -5 147.088 236.378  16
  -4   4  -5 235.573 347.212   5
  -4  -4  -5-35.8196 286.045   4
  -4  -4  -6 2065.15 468.678  13
  -4   4  -6 1622.19 386.694  20
  -4   4  -6 1714.73 494.969   7
  -4   4  -6 1842.66 543.647   6
  -4  -4  -6 2141.72 518.343  16
  -4   4  -6 1268.18 472.929   5
  -4   4  -6 1704.35 464.222  10
  -4  -4  -7 1899.70 523.354  13
  -4   4  -7 1942.41 589.206   5
  -4  -4  -7 1341.09 449.185   7
  -4   4  -7 1583.55 562.085  10
  -4   4  -7 1515.59 578.374   7
  -4   4  -7 1609.45 655.322   6
  -4  -4  -8 113805. 3496.31   7
  -4   4  -8 105698. 3315.26  10
  -4   4  -8 111048. 3813.36   6
  -4  -4  -8 105732. 3195.89  13
  -4  -4  -9 1808.29 544.021  13
  -4   4  -9 1508.92 554.048  13
  -4  -4  -9 860.815 439.303   7
  -4   4  -9 1122.54 519.640   6
  -4   4  -9 1020.41 522.477   5
  -4   4  -9 1083.19 466.128  10
  -4  -4 -10 1795.99 512.124  13
  -4   4 -10 865.119 497.738  13
  -4  -4 -10 1591.72 632.536   6
  -4   4 -10 1311.08 544.632   5
  -4  -4 -10 1574.51 570.717   7
  -4   4 -10 933.874 491.736  10
  -4  -4 -11-7.26020 328.537  13
  -4   4 -11 473.546 384.749  13
  -4  -4 -11 397.042 352.833   6
  -4  -4 -11-136.459 430.867   5
  -4   4 -11 269.801 387.301   5
   4  -6 -13-1062.59 403.430  13
   4   6 -13 197.189 145.823  18
   4   6 -13 873.324 356.058  13
   4  -6 -13-503.109 358.145  16
  -4   6  12 9600.15 841.570  19
   4   6 -12 10388.0 1011.86  18
   4  -6 -12 7280.09 1031.33  16
   4  -6 -12 10374.9 1061.68  13
   4   6 -12 10093.4 1009.42  13
   4   6 -11 214.576 408.754  13
   4  -6 -11 542.361 417.486  13
  -4   6  11 252.908 301.017  19
   4  -6 -11 1213.71 444.587  12
   4   6 -11 528.050 379.033  18
   4  -6 -11 34.9324 428.298  16
   4   6 -10 47235.4 2302.07  18
   4  -6 -10 48609.9 2301.15  12
  -4   6  10 47677.0 1977.69  19
   4  -6 -10 42665.3 2183.14  13
   4  -6  -9 1059.67 444.221  13
   4   6  -9 923.758 493.185  18
   4  -6  -9 529.147 369.673  12
  -4   6   9 668.108 414.611  19
   4   6  -8 56389.5 2042.78  12
   4  -6  -8 54021.9 2187.50  12
   4   6  -8 53412.5 2325.86  18
   4   6  -8 53345.7 2448.28  10
   4  -6  -8 54439.1 2173.39  13
   4  -6  -8 56654.5 2147.06   7
   4  -6  -7 381.603 367.084  13
   4  -6  -7 166.236 264.551  12
   4   6  -7 235.006 364.462  18
   4   6  -7 250.700 398.695  10
   4   6  -7 801.881 342.922  12
  -4   6   7 193.726 302.350  19
  -4   6   6 85217.9 2206.41  19
   4  -6  -6 78966.8 2276.96  12
   4   6  -6 82061.5 2561.73  18
   4   6  -6 85554.3 2737.68  10
   4  -6  -6 83455.0 2241.58  13
   4  -6  -5 111.739 241.999  13
   4  -6  -5-11.4175 246.619  12
   4   6  -5 443.590 286.123   2
   4   6  -5 86.2539 278.258  18
  -4   6   5 17.2683 235.638  19
  -4  -6   5 649.430 365.440   2
   4   6  -4 257927. 5916.80   2
  -4  -6   4 253540. 5476.49   2
   4  -6  -4 254443. 5767.39   1
   4  -6  -4 256797. 3462.33  12
   4  -6  -3 2273.37 576.182   1
   4   6  -3 865.738 455.850   2
  -4   6   3 1987.54 540.256   2
  -4  -6   3 2167.75 582.007   2
   4   6  -2 10465.0 1149.79   2
   4  -6  -2 9795.72 930.338   1
  -4  -6   2 10933.5 733.131   8
  -4  -6   1 349.758 336.677   8
   4   6  -1 17.1356 381.984   2
   4  -6  -1-43.3544 191.649   1
   4  -6   0 259439. 3331.72   1
   4   6   0 267636. 5408.94   2
   4   6   0 268714. 5186.04   1
  -4   6   0 263228. 4136.30   2
  -4  -6   0 263217. 3580.46   8
   4   6   1 546.615 354.021   2
  -4   6  -1-234.391 196.208   5
  -4  -6  -1 73.3486 324.156   8
   4   6   1-341.449 316.089   1
  -4   6  -1-63.1476 172.663   2
   4   6   2 412.037 369.718   2
  -4  -6  -2 700.421 388.393   8
  -4  -6  -2 394.545 285.976   4
   4   6   2 686.696 351.597   1
  -4   6  -2 455.983 223.318   5
  -4  -6  -3 1635.69 411.421   4
  -4  -6  -3 2367.35 504.376   8
  -4   6  -3 1746.27 336.104  20
   4   6   3 2776.24 611.293   1
  -4   6  -3 1890.62 457.659   6
  -4  -6  -3 2048.15 374.861  13
  -4   6  -3 1577.11 385.492   5
  -4  -6  -4 300751. 4631.62   4
  -4  -6  -4 299226. 4287.60   8
  -4   6  -4 306331. 4686.21   5
  -4   6  -4 309700. 3935.44  20
  -4   6  -4 305800. 4896.31   6
  -4  -6  -4 311983. 4565.26  16
  -4  -6  -4 312921. 4485.45  14
  -4  -6  -4 311566. 4078.69  13
  -4  -6  -5 1167.30 354.719  13
  -4   6  -5 1291.71 363.896  20
  -4   6  -5 867.967 422.490   6
  -4  -6  -5 1532.44 451.616  16
  -4   6  -5 1061.69 430.118   5
  -4  -6  -6 166.960 288.278  13
  -4   6  -6 336.772 359.506  10
  -4   6  -6 272.895 400.727   6
  -4   6  -6 211.850 272.605  20
  -4   6  -6 659.470 409.280   5
  -4  -6  -7 739.425 423.155  13
  -4  -6  -7-219.408 336.518   7
  -4   6  -7 744.757 460.157   5
  -4   6  -7 249.124 324.069  20
  -4   6  -7 259.572 453.664   6
  -4   6  -7 195.602 348.407  10
  -4  -6  -8 91135.4 3167.13   7
  -4   6  -8 85682.7 3016.18  10
  -4   6  -8 92414.7 3376.11   5
  -4  -6  -8 87850.6 2903.96  13
  -4  -6  -9 386.964 294.474   7
  -4   6  -9-275.987 381.029  10
  -4   6  -9 440.995 409.248   5
  -4  -6  -9 510.260 400.568  13
  -4   6 -10 7576.25 943.065  13
  -4   6 -10 8201.94 1028.15   5
  -4  -6 -10 8345.66 1038.17   7
  -4   6 -10 7519.44 943.190  10
  -4  -6 -10 7351.08 916.986  13
  -4   6 -11 70.0940 322.849  13
  -4  -6 -11-309.751 327.068   7
  -4  -6 -11-129.846 381.476  13
  -4  -6 -11 573.770 488.028   6
  -4   6 -11 559.631 384.971   5
   4   8 -12 10442.3 982.234  13
  -4   8  12 9024.95 797.583  19
   4   8 -12 9013.21 923.422  18
   4  -8 -12 9247.85 1165.19  16
   4  -8 -12 9552.08 1033.27  13
   4  -8 -11-331.458 423.317  13
   4  -8 -11-76.2874 555.928  16
   4  -8 -11-615.257 443.910  12
   4   8 -11-54.5472 371.954  18
   4   8 -11 108.378 361.228  13
  -4   8  11-1245.64 394.175  19
   4  -8 -10 44334.2 2271.07  12
  -4   8  10 45247.5 1958.24  19
   4   8 -10 45776.1 2285.05  18
   4  -8 -10 44464.1 2634.30  16
   4  -8 -10 44273.3 2259.92  13
   4  -8  -9 257.180 388.891  12
  -4   8   9-173.357 301.889  19
   4   8  -9 413.624 439.564  10
   4  -8  -9 127.673 349.089  13
   4   8  -9 528.214 466.250  18
   4  -8  -8 49919.7 2207.83  12
  -4   8   8 51031.7 2007.86  19
   4   8  -8 51406.9 2324.09  10
   4   8  -8 52421.1 2347.63  18
   4  -8  -8 50858.7 2187.78  13
   4  -8  -7 178.578 279.753  13
   4  -8  -7 291.181 287.121  12
   4   8  -7 358.512 352.112  10
  -4   8   7 435.021 347.997  19
   4   8  -7 551.121 411.378  18
   4  -8  -6 71615.4 3623.50  14
   4   8  -6 66978.3 2391.69  18
  -4   8   6 67810.0 2108.77  19
   4  -8  -6 66666.8 2218.97  12
   4   8  -6 67871.5 2365.75  10
   4  -8  -6 62690.9 2088.58  13
   4  -8  -5 100.455 269.628  12
  -4   8   5 201.171 275.878  19
   4   8  -5 213.735 331.495  18
   4  -8  -5 251.904 259.690  13
   4   8  -4 294653. 6700.51   2
  -4   8   4 280516. 3987.40  19
   4  -8  -4 286854. 3978.82  12
  -4  -8   3 350.376 327.116   8
   4  -8  -3 231.310 234.313  12
   4   8  -3 937.131 412.428   2
   4   8  -3 190.841 262.203  18
   4  -8  -3 492.543 340.685   1
  -4  -8   2 23642.1 1168.48   8
   4   8  -2 23436.9 1795.92   2
  -4   8   2 23952.5 1630.72   1
   4  -8  -2 24796.9 1608.72   1
  -4  -8   1 840.519 417.238   8
   4   8  -1 807.087 444.271   1
   4  -8  -1 572.250 305.366   1
  -4   8   1 750.575 315.597   1
   4   8  -1 777.101 447.871   2
  -4  -8   0 179390. 3381.00   8
   4   8   0 192535. 5053.93   2
  -4  -8   0 190389. 3236.15   4
  -4   8   0 186082. 3524.49   1
   4   8   1 301.091 422.978   2
  -4  -8  -1-187.009 325.408   4
  -4   8  -1 6.17789 212.464  20
  -4   8  -1-111.909 130.818   1
  -4  -8  -1 123.528 334.387   8
  -4  -8  -1 228.245 239.290  15
   4   8   1 614.028 375.138   1
  -4  -8  -1 375.884 370.564  14
  -4   8  -1 73.3961 212.480   5
  -4  -8  -2 20437.6 1259.89   8
  -4  -8  -2 19814.9 997.608  15
   4   8   2 19821.9 1796.46   2
   4   8   2 20740.2 1035.22  19
  -4   8  -2 20685.3 962.701  20
  -4   8  -2 19620.9 1098.15   5
  -4  -8  -2 21221.6 1275.95  14
  -4  -8  -2 19646.7 980.117  13
  -4  -8  -2 20851.2 1230.25   4
  -4  -8  -3 1040.57 330.785  13
  -4   8  -3 815.688 407.808   5
  -4  -8  -3 518.502 408.375   8
  -4   8  -3 1096.61 314.813  20
  -4  -8  -3 685.701 385.712   4
  -4  -8  -3 1482.78 513.846  14
  -4  -8  -4 108924. 3051.10   4
  -4   8  -4 112542. 2476.40  18
  -4   8  -4 108529. 2909.34   5
  -4   8  -4 109459. 2490.43  20
  -4  -8  -4 111132. 3108.27  14
  -4  -8  -4 109703. 2604.27  13
  -4  -8  -5-70.7783 274.623  13
  -4   8  -5 142.771 282.319  20
  -4   8  -5 28.0126 342.688   5
  -4  -8  -5-294.082 310.290  14
  -4   8  -5 532.376 234.299  18
  -4  -8  -6 380.901 333.428  13
  -4   8  -6 115.051 292.797  20
  -4   8  -6 82.2597 311.495   5
  -4  -8  -7-225.593 346.568  13
  -4   8  -7-138.787 311.122  20
  -4   8  -7 306.309 374.947  10
  -4   8  -7-660.940 455.745   5
  -4  -8  -8 77835.8 2935.19   7
  -4   8  -8 80835.1 3138.72   5
  -4   8  -8 82867.8 2943.32  10
  -4  -8  -8 74627.4 2702.07  13
  -4  -8  -9 752.181 434.657  13
  -4   8  -9 571.454 441.742   5
  -4  -8  -9 454.092 384.148   7
  -4   8  -9 57.2365 409.340  10
   4   8  10 9301.78 990.673  19
  -4  -8 -10 10727.8 1127.95   7
  -4   8 -10 9735.33 1011.10  10
  -4   8 -10 11036.4 1108.38   5
  -4   8 -10 11112.7 1088.81  13
  -4  -8 -10 9265.94 1001.76  13
  -4  -8 -11 67.2996 300.049  13
  -4   8 -11 343.624 337.259  13
   4   8  11 483.490 314.982  19
  -4  -8 -11 693.634 348.282  15
   4  10 -12 8841.53 839.852  13
  -4  10  12 8967.72 749.391  19
   4  10 -12 8668.96 852.058  18
   4 -10 -12 8365.79 1067.19  16
   4 -10 -11 747.986 426.937  13
  -4  10  11 286.685 312.087  19
   4  10 -11 323.008 355.500  18
   4 -10 -11 787.837 421.635  12
   4 -10 -11 389.617 485.716  16
   4  10 -10 42475.7 2181.22  18
   4 -10 -10 39992.5 2248.72  12
  -4  10  10 42319.2 1905.65  19
   4 -10 -10 40062.6 2479.44  16
   4 -10 -10 37211.6 2109.53  13
   4  10  -9 900.640 509.884  18
   4 -10  -9 1010.58 515.647  12
   4 -10  -9 988.685 501.315  13
  -4  10   9 724.762 416.457  19
   4 -10  -9 814.269 572.875  16
   4  10  -9 1162.67 503.065  10
   4  10  -8 34262.4 1841.15  10
   4  10  -8 32116.2 1893.86  18
  -4  10   8 31811.5 1662.04  19
   4 -10  -8 29778.5 1821.46  12
   4 -10  -8 29239.2 1744.32  13
  -4  10   7 1056.63 452.447  19
   4  10  -7 568.884 472.155  18
   4 -10  -7 309.587 400.985  12
   4  10  -7 623.567 404.820  10
   4 -10  -7 156.094 342.091  13
   4 -10  -6 65351.2 2369.84  12
  -4  10   6 66159.4 2228.84  19
   4  10  -6 66449.2 2465.94  18
   4  10  -6 70141.3 2336.48  10
   4 -10  -6 67609.6 2321.78  13
  -4  10   5 569.236 330.651  19
   4  10  -5 284.486 277.924  18
   4 -10  -5 132.852 274.790  12
   4  10  -4 119548. 2950.56  18
  -4  10   4 123335. 2882.26  19
   4 -10  -4 122459. 2881.20  12
  -4  10   3 514.626 381.869  19
   4 -10  -3 812.617 326.513  12
   4  10  -3 909.366 347.882  18
  -4 -10   3 389.481 195.569  11
  -4 -10   3 895.477 351.599  14
   4 -10  -2 23157.2 1148.97  12
  -4  10   2 22363.2 1229.52  19
  -4 -10   2 22607.3 1026.66  11
  -4 -10   2 20933.9 1213.10  14
  -4  10   2 23042.6 950.987  20
   4 -10  -2 20101.1 1676.32   1
  -4  10   2 20619.0 1680.15   1
  -4 -10   2 21990.3 1078.45   4
  -4 -10   1 378.667 332.093   4
  -4 -10   1 199.856 322.792  14
  -4  10   1 353.624 304.498  19
  -4  10   1-183.348 256.101   1
  -4 -10   1 555.211 236.888  11
  -4  10   1 510.158 244.892  20
   4 -10  -1 292.229 305.701   1
   4 -10  -1 320.378 270.818  12
  -4  10   0 140255. 2461.29  20
   4  10   0 140705. 2439.51  19
  -4 -10   0 140095. 3244.21  14
  -4 -10   0 133908. 3040.16   4
  -4 -10  -1 13.8490 388.869   4
  -4  10  -1 176.615 218.141  20
   4  10   1 319.578 234.369  19
  -4 -10  -1 9.86744 240.783  15
  -4 -10  -1-336.024 412.499  14
  -4 -10  -2 11270.0 1046.63   4
   4  10   2 11019.4 808.912  19
  -4  10  -2 11103.8 779.492  20
  -4  10  -2 9908.80 875.529   5
  -4 -10  -2 11226.8 1045.52  14
  -4 -10  -2 10997.1 833.418  15
  -4 -10  -3 52.6334 272.269  13
  -4  10  -3 106.666 256.729  20
  -4 -10  -3 93.2806 415.418   4
   4  10   3-25.1632 304.893  19
  -4  10  -3 1.99750 349.453   5
  -4 -10  -3 124.726 276.552  15
  -4 -10  -3 96.3333 408.068  14
   4  10   4 117322. 2936.87  19
  -4  10  -4 114893. 2716.89  20
  -4  10  -4 118961. 3213.61   5
  -4  10  -4 116695. 2719.43  18
  -4 -10  -4 118903. 2929.73  15
  -4 -10  -4 119745. 3557.12  14
  -4 -10  -4 115411. 2859.81  13
  -4 -10  -5-175.631 318.851  13
  -4  10  -5-3.77818 327.002  20
  -4  10  -5-10.9112 190.405  18
   4  10   5 165.451 390.764  19
  -4  10  -5-138.034 443.204   5
  -4 -10  -5-301.206 397.291  14
  -4 -10  -6 340.239 373.128  13
  -4  10  -6 131.044 189.691  18
  -4  10  -6 640.752 383.818  20
  -4  10  -6 69.3245 406.967   5
   4  10   6 295.847 393.686  19
  -4 -10  -7-234.922 349.190  13
   4  10   7 175.079 451.558  19
  -4  10  -7-50.3633 386.960  20
  -4  10  -7-444.818 419.070  10
  -4  10  -7-717.543 430.400   5
  -4 -10  -8 68249.1 2764.53   7
   4  10   8 68626.9 2625.97  19
  -4  10  -8 70540.7 2885.45   5
  -4  10  -8 65840.0 2596.37  10
  -4 -10  -8 68013.0 2593.78  13
  -4 -10  -9-412.901 308.523  13
  -4 -10  -9 317.231 317.188   7
   4  10   9-517.663 411.574  19
  -4  10  -9-35.9440 336.502  10
  -4 -10  -9-558.013 383.822  15
  -4  10 -10 2921.31 553.443  13
  -4 -10 -10 2711.29 606.054   7
  -4 -10 -10 3098.92 605.355  13
   4  10  10 3182.53 607.471  19
  -4  10 -10 1999.10 517.878  10
  -4 -10 -10 3554.17 643.573  15
  -4  10 -10 4389.48 702.294   5
   4  12 -11-171.698 277.521  18
   4 -12 -11-718.681 483.628  16
  -4  12  11-634.212 316.382  19
  -4  12  10 34870.0 1704.41  19
   4  12 -10 37465.2 1989.39  18
   4 -12 -10 37414.0 2287.13  16
   4 -12 -10 35580.3 2124.54  12
  -4  12   9-194.934 336.962  19
   4  12  -9-192.908 375.599  18
   4  12  -9 650.610 324.215  10
   4 -12  -9 471.967 556.371  12
   4 -12  -9 407.324 495.345  16
   4 -12  -8 48808.7 2427.31  12
   4 -12  -8 46995.5 2480.57  16
   4  12  -8 45741.6 2270.47  18
   4  12  -8 49065.2 2088.60  10
  -4  12   8 46602.8 2054.33  19
   4 -12  -7 235.287 424.220  12
  -4  12   7 519.073 419.259  19
   4  12  -7 864.415 443.031  18
   4 -12  -7 659.422 472.728  16
   4  12  -7 1654.81 444.486  10
   4 -12  -6 64492.9 2555.17  12
  -4  12   6 68388.8 2406.77  19
   4  12  -6 66038.5 2514.38  18
   4  12  -5-206.012 314.075  18
  -4  12   5-22.8193 348.585  19
   4 -12  -5 100.317 375.755  12
   4 -12  -5-731.965 988.180  14
  -4 -12   4 99899.0 2514.45  14
   4 -12  -4 99774.8 2861.96  12
  -4  12   4 97654.4 2767.91  19
   4 -12  -4 101728. 4499.37  14
   4  12  -4 95599.6 2744.43  18
   4  12  -3-38.1699 249.210  18
  -4  12   3 220.154 402.009  19
   4 -12  -3 205.600 330.143  12
  -4 -12   3 138.491 302.423  14
   4 -12  -2 28070.1 1404.10  12
  -4  12   2 29536.3 1174.17  20
  -4 -12   2 28935.2 1232.90  11
  -4 -12   2 29676.0 1561.17  14
  -4  12   2 29687.7 1527.87  19
  -4  12   1 712.547 367.616  19
   4  12  -1 683.911 261.865  19
  -4 -12   1 741.733 248.850  11
   4 -12  -1 665.873 300.166  12
  -4 -12   1 745.160 387.849   4
  -4  12   1 919.000 272.899  20
  -4 -12   1 405.030 354.860  14
  -4 -12   0 112212. 3015.55   4
   4  12   0 119987. 2486.26  19
  -4 -12   0 117744. 2548.87  11
  -4  12   0 124100. 2505.13  20
  -4 -12   0 117502. 3267.11  14
  -4  12  -1 38.2660 250.176  20
   4  12   1-29.4207 300.982  19
  -4 -12  -1-138.711 248.728  15
  -4 -12  -1-2.50402 437.560  14
  -4 -12  -1-96.1277 397.652   4
   4  12   2 3819.61 561.593  19
  -4 -12  -2 3391.28 547.186  15
  -4 -12  -2 4061.03 785.560  14
  -4  12  -2 3710.62 529.952  20
   4  12   3 511.998 398.869  19
  -4  12  -3-179.075 278.107  20
  -4 -12  -3 216.550 320.932  15
  -4 -12  -3 88.2258 480.362  14
  -4  12  -4 121049. 2956.87  20
   4  12   4 115760. 3050.49  19
  -4  12  -4 115455. 3356.72   5
  -4 -12  -4 114622. 3737.34  14
  -4 -12  -4 118551. 3119.33  15
  -4  12  -4 117279. 2903.82  18
  -4  12  -5 159.517 324.413  20
   4  12   5 412.818 422.361  19
  -4  12  -5 362.612 270.389  18
  -4 -12  -5 326.258 427.750  14
  -4  12  -5 310.737 345.973   5
  -4 -12  -5 194.837 367.558  15
  -4 -12  -6 382.007 357.494  13
  -4  12  -6 173.721 355.018   5
   4  12   6-515.339 448.646  19
  -4  12  -6 71.5991 232.237  18
  -4  12  -6-155.395 352.179  20
  -4 -12  -6 64.0670 381.058  15
  -4 -12  -6 537.271 461.575  14
  -4 -12  -7 1280.59 481.599  13
   4  12   7 1500.57 543.996  19
  -4  12  -7 1420.07 514.677   5
  -4  12  -7 1126.83 484.146  10
  -4 -12  -7 1391.61 504.337  15
  -4 -12  -8 44916.0 2230.03   7
   4  12   8 46174.0 2120.96  19
  -4  12  -8 46998.6 2297.12   5
  -4 -12  -8 45579.5 2173.35  15
  -4 -12  -8 44120.7 2099.88  13
  -4  12  -8 46717.8 2128.44  10
  -4 -12  -9 706.384 415.421   7
   4  12   9 585.213 394.122  19
  -4 -12  -9 733.331 395.062  15
  -4  12  -9 884.232 391.275  10
  -4  12  -9-355.633 359.540   5
  -4 -12 -10 3968.88 630.079  15
   4  12  10 4452.64 626.710  19
  -4  12 -10 4383.87 627.133  10
   4  14 -11-565.810 304.000  18
   4 -14 -11-727.278 451.495  16
   4 -14 -10 37292.7 2120.76  12
  -4  14  10 36032.5 1667.70  19
   4  14 -10 37584.6 1881.56  18
   4 -14 -10 32994.8 2001.29  16
  -4  14   9-544.281 369.003  19
   4  14  -9 468.016 359.716  18
   4 -14  -9-74.2516 396.648  16
   4 -14  -9-261.405 438.411  12
   4 -14  -8 19648.6 1632.25  12
   4  14  -8 21790.1 1592.52  18
  -4  14   8 19538.9 1371.53  19
   4 -14  -8 20359.5 1605.50  16
  -4  14   7 880.770 423.957  19
   4  14  -7 322.816 412.538  18
   4 -14  -7 398.422 500.545  12
   4 -14  -7-5.79565 411.036  16
   4 -14  -6 32747.4 1959.46  12
   4  14  -6 32350.8 1831.83  18
  -4  14   6 35040.9 1826.60  19
   4 -14  -6 30678.8 1763.78  16
   4 -14  -5 656.784 463.666  12
   4  14  -5 504.550 355.503  18
  -4  14   5 374.704 433.644  19
   4 -14  -5 165.008 316.081  16
   4 -14  -4 42729.6 2059.07  12
   4  14  -4 41447.5 1898.98  18
  -4 -14   4 46448.2 1860.46  14
  -4  14   4 43843.5 2003.59  19
   4 -14  -3 94.0059 311.443  12
  -4  14   3 266.652 376.629  19
   4 -14  -3-339.480 956.629  14
   4  14  -3 248.175 272.875  18
  -4 -14   3 335.083 372.524  14
   4 -14  -2 9546.47 944.693  12
  -4  14   2 9313.09 978.390  19
   4 -14  -2 8293.08 1462.62  14
  -4 -14   2 8552.44 974.567  14
  -4  14   2 10163.1 754.195  20
   4  14  -1 512.621 289.466  19
  -4 -14   1 749.833 267.844  11
  -4  14   1 628.409 299.636  20
  -4 -14   1 945.673 520.280  14
  -4 -14   0 118756. 2722.63  11
   4  14   0 122164. 2719.26  19
  -4  14   0 121679. 2678.01  20
  -4 -14   0 122531. 3578.57  14
   4  14   1 56.3306 261.338  19
  -4  14  -1-114.916 273.422  20
  -4 -14  -1 89.0448 464.060  14
   4 -14   1-1113.10 725.734  14
   4 -14   2 710.054 619.414  14
  -4  14  -2 1513.46 435.773  20
  -4 -14  -2 889.142 358.726  15
   4  14   2 841.515 391.349  19
  -4 -14  -2 603.157 594.274  14
  -4  14  -3 198.266 325.591  20
   4  14   3 214.291 325.147  19
  -4 -14  -3 216.378 326.915  15
  -4 -14  -3 370.712 504.543  14
  -4  14  -4 101005. 2878.95  20
  -4 -14  -4 96420.1 2962.81  15
   4  14   4 96837.3 2893.01  19
  -4  14  -4 96357.8 2764.73  18
  -4 -14  -4 98015.3 3633.21  14
  -4  14  -5 794.071 350.379  18
   4  14   5 382.407 413.347  19
  -4  14  -5 420.397 401.158  20
  -4 -14  -5 283.920 353.755  15
  -4 -14  -5 665.719 503.233  14
  -4  14  -6 4584.74 720.264  20
   4  14   6 3659.12 704.103  19
  -4  14  -6 4359.72 640.830  18
  -4 -14  -6 4345.84 724.830  15
  -4 -14  -6 3919.94 827.227  14
  -4 -14  -7 376.252 366.919  15
   4  14   7 880.874 439.120  19
  -4  14  -7 459.392 291.217  18
  -4  14  -7 373.372 330.686  10
  -4 -14  -8 50863.6 2298.59   7
   4  14   8 49042.5 2076.05  19
  -4  14  -8 50488.5 2102.72  10
  -4 -14  -8 51922.8 2224.10  15
  -4 -14  -9-131.895 249.558   7
  -4 -14  -9 343.959 320.982  15
  -4  14  -9-310.053 301.728  10
  -4  16  10 26762.2 1346.74  19
   4  16 -10 30006.0 1552.19  18
  -4  16   9 118.274 336.289  19
   4  16  -9 98.4602 260.134  18
   4 -16  -9 310.554 372.595  16
   4 -16  -8 23507.3 1754.88  12
  -4  16   8 22974.3 1460.69  19
   4 -16  -8 23196.8 1598.89  16
   4  16  -8 23972.1 1554.99  18
   4 -16  -7 55.1846 493.915  12
  -4  16   7 153.112 418.530  19
   4  16  -7 231.049 412.286  18
   4 -16  -7 362.130 366.306  16
   4 -16  -7 1695.08 955.808  14
   4 -16  -6 23085.0 1743.62  12
   4 -16  -6 22794.6 1484.49  16
  -4  16   6 24969.1 1586.27  19
   4 -16  -6 25030.3 2477.96  14
   4  16  -6 23200.0 1558.31  18
  -4  16   5 702.700 522.756  19
   4 -16  -5 1133.97 562.514  12
   4  16  -5 700.023 411.234  18
   4 -16  -4 43178.0 2221.82  12
   4  16  -4 45108.8 2009.31  18
   4 -16  -4 47595.7 3427.79  14
  -4 -16   4 48375.6 1968.66  14
  -4  16   4 44632.6 2129.69  19
  -4  16   3 414.662 427.202  19
   4  16  -3 374.263 338.680  18
  -4 -16   3-327.664 382.090  14
   4 -16  -3 1024.21 1154.87  14
   4  16  -2 9356.88 887.513  18
  -4  16   2 8449.61 988.451  19
  -4 -16   2 8860.87 1023.83  14
  -4  16   1-4.89945 322.158  20
  -4 -16   1-205.240 468.589  14
  -4 -16   0 88169.9 3224.69  14
  -4  16   0 88589.3 2450.57  20
  -4 -16   0 93317.0 2532.46  11
   4  16   0 89660.7 2509.35  19
   4  16   1 866.035 376.632  19
  -4  16  -1 711.130 343.814  20
  -4 -16  -1 518.734 296.120  11
  -4 -16  -1 930.309 629.841  14
   4 -16   1-29.7452 781.247  14
  -4  16  -2 1105.91 415.400  20
   4  16   2 1334.02 432.700  19
  -4 -16  -2 706.516 589.549  14
  -4  16  -3 1452.81 494.013  20
  -4 -16  -3 1071.65 657.842  14
   4  16   3 912.784 469.399  19
  -4  16  -4 124507. 3307.68  20
  -4  16  -4 128112. 3286.03  18
  -4 -16  -4 126486. 4176.38  14
   4  16   4 128681. 3377.64  19
  -4 -16  -4 118744. 3395.20  15
   4  16   5 655.510 449.903  19
  -4  16  -5 611.724 368.624  20
  -4 -16  -5-583.687 505.844  14
  -4 -16  -5 144.297 321.342  15
  -4  16  -5-93.3098 236.672  18
   4  16   6 464.835 387.030  19
  -4  16  -6 1222.35 377.188  18
  -4 -16  -6 960.214 425.614  15
  -4  16  -6 909.573 355.668  10
  -4 -16  -6 770.972 417.889  14
   4  16   7-418.596 359.273  19
  -4  16  -7 80.4862 152.696  18
  -4 -16  -7-147.744 337.247  15
  -4  16  -7 511.950 296.038  10
  -4 -16  -8 32745.4 1725.25   7
   4  16   8 37981.0 1706.13  19
  -4 -16  -8 35445.9 1737.39  15
  -4  16  -8 35358.1 1622.59  10
  -4  18   9 389.049 292.476  19
   4  18  -9 856.300 341.776  18
  -4  18   8 20467.0 1297.53  19
   4  18  -8 20068.9 1325.28  18
   4  18  -7 145.553 288.614  18
   4 -18  -7 700.252 687.159  14
  -4  18   7 32.2952 344.785  19
  -4  18   6 18624.8 1380.63  19
   4  18  -6 16974.3 1287.39  18
   4 -18  -6 19336.9 2082.71  14
  -4  18   5 43.8290 383.860  19
   4  18  -5 195.344 311.311  18
   4 -18  -5-792.101 900.005  14
  -4  18   4 50320.4 2312.10  19
   4  18  -4 48507.3 2114.23  18
  -4  18   3 62.6203 455.172  19
   4  18  -3-35.9335 299.566  18
  -4 -18   3 84.7223 377.797  14
   4  18  -2 8149.15 846.431  18
  -4 -18   2 5809.09 899.770  14
   4  18  -1 859.580 328.369  18
  -4 -18   1-201.827 438.551  14
   4 -18  -1 283.416 811.671  14
  -4 -18   0 89001.2 3325.30  14
  -4  18   0 95635.9 2658.88  20
   4 -18   0 92975.1 4107.59  14
  -4  18  -1 924.041 418.458  20
   4  18   1 477.205 349.587  19
  -4 -18  -1 1701.33 436.107  11
  -4 -18  -1 1193.57 729.345  14
  -4  18  -2 555.647 340.855  20
  -4 -18  -2 711.605 359.620  11
   4  18   2-676.237 413.402  19
  -4 -18  -2 343.070 576.605  14
   4 -18   2 675.148 559.945  14
  -4  18  -3 22.5141 324.456  20
   4  18   3-291.054 379.309  19
  -4 -18  -3-485.061 303.310  11
  -4 -18  -3 167.731 514.623  14
  -4  18  -4 87094.7 2770.01  20
   4  18   4 82489.4 2657.48  19
  -4  18  -4 84356.5 2672.66  18
  -4 -18  -4 79104.3 3249.11  14
   4  18   5 112.355 321.944  19
  -4  18  -5 228.395 302.819  18
  -4 -18  -5 189.942 439.231  14
  -4  18  -6 1918.20 426.404  18
   4  18   6 1022.01 419.025  19
  -4  18  -6 532.118 306.388  10
  -4 -18  -6 1333.08 466.392  14
  -4  18  -7 581.487 276.478  10
   4  18   7 641.787 367.178  19
  -4  20   7-105.358 300.212  19
   4  20  -7 321.987 295.030  18
   4 -20  -7-6.45285 304.883  14
  -4  20   6 21654.8 1406.50  19
   4  20  -6 21968.4 1350.73  18
   4 -20  -6 22683.1 1960.11  14
   4  20  -5 794.698 412.873  18
  -4  20   5 626.683 451.688  19
   4 -20  -5 1935.64 876.219  14
   4 -20  -4 51833.7 3172.76  14
   4  20  -4 47519.6 2017.22  18
   4  20  -3 230.413 335.658  18
  -4 -20   3 176.222 330.832  14
   4 -20  -3 457.783 811.083  14
  -4 -20   2 9793.74 1049.48  14
   4  20  -2 11069.3 970.194  18
   4 -20  -2 11538.4 1597.23  14
   4  20  -1 20.1706 192.415  18
  -4 -20   1-52.4601 449.247  14
   4 -20  -1 344.289 696.098  14
   4  20   0 69620.8 2249.39  18
  -4 -20   0 63111.1 2752.84  14
  -4  20  -1 1370.60 439.205  20
  -4 -20  -1 529.922 454.101  14
   4 -20   1 1018.39 623.484  14
  -4  20  -2 2481.17 542.082  20
   4  20   2 1429.26 457.818  19
  -4 -20  -2 1496.24 671.954  14
   4 -20   2 2028.61 687.159  14
  -4 -20  -3 1385.41 523.319  14
   4  20   3 1338.34 446.623  19
  -4  20  -3 369.541 304.252  18
  -4 -20  -3 1113.50 384.230  11
   4  20   4 45460.8 1882.60  19
  -4  20  -4 45455.3 1887.06  18
  -4 -20  -4 50600.8 1987.03  11
  -4 -20  -4 48073.7 2379.09  14
   4  20   5-230.930 261.612  19
  -4 -20  -5 801.200 336.746  11
  -4  20  -5 508.649 201.496  18
  -4  20  -5 314.774 225.707  10
  -4 -20  -5 674.931 435.924  14
   4  20   6 1244.68 345.791  19
  -4  20  -6 1731.11 329.501  18
  -4 -20  -6 1221.39 366.869  11
  -4  20  -6 763.634 289.723  10
   4  22  -5-1.82393 229.277  18
   4 -22  -5-34.0325 559.858  14
   4  22  -4 40527.0 1721.97  18
   4 -22  -4 41353.9 2445.06  14
   4  22  -3-180.910 249.111  18
  -4 -22   3-67.0674 302.318  14
   4 -22  -3 105.976 594.794  14
   4  22  -2 11474.6 931.999  18
  -4 -22   2 11217.4 1020.35  14
   4 -22  -2 11218.8 1358.91  14
   4  22  -1 239.225 226.833  18
  -4 -22   1 64.6807 332.049  14
   4 -22  -1 265.832 511.635  14
  -4 -22   0 46769.6 2209.07  14
   4 -22   0 43011.9 2382.64  14
  -4 -22  -1 121.933 455.550  14
   4 -22   1-760.204 404.698  14
  -4  22  -2 4620.81 615.749  18
  -4 -22  -2 4486.59 766.869  14
  -4 -22  -3 149.984 426.374  14
  -4  22  -3 398.814 274.319  18
  -4 -22  -4 35328.4 1796.63  14
  -4  22  -4 32760.0 1467.43  18
   5  -1 -13 6779.63 781.995  13
   5   1 -13 5693.39 721.751  18
   5   1 -13 6863.73 782.654  13
   5  -1 -12-909.240 422.605  13
   5   1 -12-103.199 349.545  13
   5  -1 -12-66.9784 284.684  18
   5   1 -12 97.3829 334.241  18
   5  -1 -12-1293.33 513.404  16
   5   1 -11 47817.8 2306.62  18
   5  -1 -11 46018.4 2236.09  18
   5  -1 -11 51025.7 2179.76  12
   5  -1 -11 50957.3 2314.08  13
   5   1 -11 49286.8 2258.90  13
   5  -1 -10 152.617 349.025  13
   5   1 -10 490.179 438.954  13
   5   1 -10 43.7220 301.084  12
   5  -1 -10 411.332 350.678  12
   5  -1 -10 194.060 367.457  18
   5   1 -10 396.801 410.085  18
   5  -1  -9 28897.3 1608.94  12
   5  -1  -9 29691.9 1738.64  18
   5   1  -9 29490.4 1764.34  18
   5   1  -9 28237.0 1569.30  12
   5  -1  -9 30012.3 1680.51  13
   5   1  -9 30475.9 1690.70  13
   5  -1  -8-235.028 320.906  13
   5   1  -8-791.115 374.736  13
   5  -1  -8 107.837 299.378  12
   5   1  -8 138.335 324.623  18
   5  -1  -8-4.58850 343.887  18
   5   1  -8 148.911 314.034  12
   5   1  -7 109445. 2666.68  13
   5   1  -7 108708. 2767.89  12
   5  -1  -7 107771. 2882.95  18
   5   1  -7 111316. 3027.30  18
   5  -1  -7 110523. 2768.74  12
   5  -1  -7 111346. 2677.05  13
   5  -1  -6 945.628 352.558  12
   5   1  -6 597.024 307.809  18
   5   1  -6 566.761 296.157  12
   5  -1  -6 1045.29 349.585  18
  -5   1   5 116558. 3801.04   2
   5  -1  -5 104925. 4125.42   1
  -5  -1   5 108238. 3595.75   2
   5   1  -5 108704. 4048.80   2
   5   1  -4 1132.26 484.259   2
  -5   1   4 353.255 325.996   2
  -5  -1   4 258.888 300.893   2
   5  -1  -4 531.993 402.090   2
   5   1  -3 122770. 3705.34   2
  -5   1   3 123701. 3407.45   2
  -5  -1   3 120745. 3319.15   2
   5  -1  -3 128678. 3622.72   2
  -5   1   2 2832.66 533.368   2
   5   1  -2 2870.05 613.979   2
  -5  -1   2 3220.31 581.751   2
   5  -1  -1 194213. 3643.05   2
  -5   1   1 193895. 3568.64   2
   5   1  -1 194074. 4018.29   2
  -5  -1   1 195093. 3729.98   2
   5  -1   0 1711.83 360.423   2
   5   1   0 1915.12 480.491   2
  -5   1   0 2087.94 381.147   2
  -5  -1   0 1334.24 369.509   2
   5  -1   1 9122.57 591.618   2
   5   1   1 9596.29 830.282   2
   5  -1   1 8745.50 455.418   1
   5   1   1 8755.95 678.532   1
   5  -1   2 99.4529 68.0499   2
   5   1   2 17.4379 113.667   1
   5   1   2 56.3332 205.351   2
   5   1   3 150436. 3077.89   2
   5   1   3 161101. 3170.93   1
  -5   1  -4 589.789 224.973   4
  -5  -1  -4 557.790 245.268   4
  -5  -1  -4 213.821 253.670  13
  -5   1  -4 714.907 318.011   7
  -5  -1  -5-69.3031 263.593  13
  -5   1  -5 154.415 298.667   7
  -5  -1  -5 382.138 277.065  10
  -5   1  -5 468.508 296.051  10
  -5  -1  -5 129.464 259.860   7
  -5  -1  -6 1288.15 424.322  13
  -5   1  -6-32.6910 308.745  13
  -5  -1  -6 1229.19 414.893   7
  -5   1  -6 966.890 471.752   6
  -5  -1  -6 619.263 363.190  10
  -5   1  -6 880.579 367.279  10
  -5   1  -6 752.465 353.778   7
  -5   1  -7 39198.7 1927.33  13
  -5   1  -7 38924.4 2203.68   6
  -5  -1  -7 39951.8 2033.04   7
  -5   1  -7 40313.5 2092.26   7
  -5  -1  -7 38606.8 1848.87  10
  -5   1  -7 38490.8 1898.79  10
  -5  -1  -7 38115.3 1842.97  13
  -5  -1  -8 2498.79 759.361   6
  -5  -1  -8 2003.88 590.568  13
  -5   1  -8 1674.06 561.648  13
  -5  -1  -8 1724.03 525.143   7
  -5   1  -8 1716.05 581.749   7
  -5   1  -8 1187.06 572.787   5
  -5   1  -8 885.621 413.873  10
  -5   1  -8 1924.61 680.770   6
  -5  -1  -9 976.682 538.941  13
  -5   1  -9 303.465 445.231  13
  -5  -1  -9 446.546 503.777   6
  -5   1  -9 961.679 532.658   7
  -5  -1  -9 1332.94 538.146   7
  -5   1  -9 404.815 465.149   6
  -5   1  -9 970.949 608.534   5
  -5  -1 -10 893.213 434.401  13
  -5   1 -10 714.980 513.821  13
  -5  -1 -10 694.292 440.505   6
  -5   1 -10-6.78598 348.275   6
  -5  -1 -10-621.415 567.337   5
  -5   1 -10 967.013 570.466   5
  -5  -1 -11 39130.1 2093.21   6
  -5   1 -11 38870.4 2075.28   6
  -5  -1 -11 39737.3 2237.37   5
  -5   1 -11 38018.4 2151.57   5
  -5  -1 -11 34902.9 1756.99  13
  -5   1 -11 34659.0 1753.13  13
   5  -3 -13 6421.56 786.154  13
   5   3 -13 5295.37 660.000  18
   5   3 -13 5798.65 725.478  13
   5  -3 -13 5078.97 766.081  16
   5  -3 -12 540.327 374.329  13
   5   3 -12-332.601 314.369  18
   5   3 -12 925.685 437.485  13
   5  -3 -12 85.6713 336.207  16
   5   3 -11 55959.6 2517.93  18
   5  -3 -11 57759.7 2406.29  12
   5  -3 -11 58634.4 2521.65  13
   5  -3 -11 55771.6 2414.95  18
   5   3 -11 58619.5 2437.14  13
   5  -3 -10 294.871 362.040  13
   5   3 -10 1745.44 509.215  13
   5  -3 -10 1592.02 515.436  12
   5   3 -10 1709.25 439.212  12
   5  -3 -10 575.858 396.179  18
   5   3 -10 1135.85 505.629  18
   5   3  -9 22861.8 1470.39  13
   5  -3  -9 21848.4 1429.24  12
   5  -3  -9 20941.4 1446.07  18
   5   3  -9 20897.1 1550.22  18
   5   3  -9 22526.0 1391.01  12
   5  -3  -9 21130.7 1433.17  13
   5  -3  -8 878.979 346.317  13
   5  -3  -8 1706.37 453.995  18
   5   3  -8 1433.42 425.895  12
   5  -3  -8 1163.60 411.305  12
   5   3  -8 1430.40 544.881  18
   5  -3  -7 92725.7 2559.60  12
   5   3  -7 92544.8 2591.30  12
   5  -3  -7 96317.6 2670.44  18
   5   3  -7 93277.7 2863.42  18
   5  -3  -7 92208.6 2453.28  13
   5   3  -6 257.784 310.269  12
   5  -3  -6 633.055 319.753  12
   5  -3  -6-76.4127 241.111  18
   5   3  -6 124.199 305.608  17
   5   3  -6 37.9211 274.376  18
   5   3  -5 115128. 4267.04   2
  -5   3   5 121302. 4018.42   2
  -5  -3   5 121295. 3808.77   2
   5  -3  -5 111368. 2427.02  18
   5   3  -5 114174. 2746.81  18
   5  -3  -5 111649. 4154.10   1
   5  -3  -5 115023. 2424.99  12
   5  -3  -4 1000.10 508.741   1
  -5  -3   4 104.812 300.161   2
   5   3  -4 529.883 342.917   2
  -5   3   4 415.308 309.348   2
  -5  -3   3 67165.7 2592.44   2
   5  -3  -3 60280.8 2448.48   1
  -5   3   3 65534.1 2555.19   2
   5   3  -3 62731.0 2770.34   2
  -5   3   2-200.185 275.476   2
   5   3  -2 123.833 326.321   2
  -5  -3   2 88.3027 230.386   2
   5  -3  -2-11.6048 261.883   1
  -5   3   1 235151. 4030.29   2
   5   3  -1 224065. 4739.64   2
  -5  -3   1 233356. 4449.37   2
   5  -3  -1 221228. 3372.71   1
   5  -3   0 90.8153 117.039   1
   5   3   0 207.582 343.181   1
  -5   3   0 81.7904 201.185   2
   5   3   0-106.979 341.286   2
   5   3   1 14224.3 1057.49   1
   5   3   1 13409.1 1196.26   2
  -5   3  -1 14629.3 565.398   2
  -5   3  -1 16308.2 814.492   5
  -5   3  -2 215.948 243.886   6
   5   3   2-7.99520 231.626   1
  -5   3  -2 240.279 275.246   5
   5   3   2-241.270 260.056   2
  -5   3  -3 183568. 3031.29   7
  -5   3  -3 180621. 3259.31   5
  -5   3  -3 172746. 3295.03   6
   5   3   3 173921. 4591.28   2
   5   3   3 187954. 4055.07   1
  -5  -3  -4 866.304 326.743   8
  -5  -3  -4 1371.48 346.979  13
  -5  -3  -4 1142.01 349.811   4
  -5   3  -4 1216.47 275.315  20
  -5   3  -4 1178.53 426.833   6
   5   3   4 1141.13 417.827   1
  -5   3  -4 1007.03 367.787   5
  -5   3  -4 1933.95 388.112   7
  -5  -3  -5 1204.61 375.099   4
  -5  -3  -5 1846.70 415.419  13
  -5   3  -5 1409.50 459.065   6
  -5   3  -5 1486.58 445.148   5
  -5   3  -5 1239.98 476.241   7
  -5   3  -5 1380.95 345.817  20
  -5  -3  -6 788.286 358.065  13
  -5   3  -6 323.629 352.749   7
  -5   3  -6-177.041 368.776   6
  -5   3  -6 781.831 398.945   5
  -5   3  -6 854.207 391.402  10
  -5  -3  -6 476.470 370.035   7
  -5  -3  -6 621.381 283.239  10
  -5   3  -7 86958.5 3124.91   7
  -5  -3  -7 89807.4 3004.13   7
  -5   3  -7 84959.8 2839.35  10
  -5   3  -7 90646.4 3328.03   6
  -5   3  -7 89645.2 3234.46   5
  -5  -3  -7 86512.7 2751.35  13
  -5  -3  -8 2042.59 574.877  13
  -5   3  -8 1361.74 569.818  13
  -5   3  -8 2277.96 699.315   5
  -5  -3  -8 1986.68 560.587   7
  -5   3  -8 1833.29 693.124   6
  -5   3  -8 1932.65 540.170  10
  -5  -3  -9 217.569 429.290  13
  -5   3  -9 264.922 423.483  13
  -5  -3  -9 274.334 323.861   7
  -5  -3  -9 644.659 526.595   6
  -5   3  -9 1088.61 601.356   6
  -5   3  -9 735.815 545.213   5
  -5   3  -9 618.405 390.313  10
  -5  -3 -10-90.6861 372.365  13
  -5  -3 -10 527.361 373.407   7
  -5   3 -10-58.8054 292.401  13
  -5  -3 -10 481.646 462.156   6
  -5  -3 -10 23.4296 463.945   5
  -5   3 -10 598.810 469.847   5
  -5   3 -10-62.9651 330.557   6
  -5  -3 -11 29743.7 1623.05  13
  -5  -3 -11 32208.3 1918.82   6
  -5   3 -11 34314.6 1940.31   5
  -5  -3 -11 32755.9 2049.01   5
  -5   3 -11 29485.2 1610.57  13
   5  -5 -13 5058.02 701.161  13
   5   5 -13 4861.97 639.517  13
   5   5 -13 4279.69 597.680  18
   5  -5 -13 4333.42 747.301  16
   5  -5 -12 539.681 415.573  13
   5   5 -12-293.538 346.186  13
   5  -5 -12 805.221 527.994  16
   5   5 -12-41.6911 288.125  18
   5   5 -11 48712.8 2188.95  13
   5  -5 -11 44372.7 2194.46  12
   5   5 -11 48070.1 2338.12  18
   5  -5 -11 49822.2 2358.23  13
   5  -5 -10 322.010 436.491  13
   5   5 -10 875.714 416.668  13
  -5   5  10 930.974 339.784  19
   5  -5 -10 839.247 437.283  12
   5   5 -10 861.941 442.866  18
  -5   5   9 20556.6 1226.63  19
   5   5  -9 18876.3 1495.08  18
   5  -5  -9 20323.0 1430.80  12
   5   5  -9 19214.8 1274.56  12
   5  -5  -9 17646.2 1363.78  13
   5  -5  -8 221.083 295.317  13
   5  -5  -8 201.873 316.388  12
   5   5  -8 113.083 262.983  12
  -5   5   8 623.173 305.431  19
   5  -5  -8 200.562 312.073  18
   5   5  -8 300.644 421.816  18
   5   5  -7 57350.1 2080.24  12
   5  -5  -7 57264.6 2065.69  18
   5   5  -7 56263.5 2308.82  18
   5  -5  -7 55017.6 2036.58  12
   5  -5  -7 55887.2 1981.07  13
  -5   5   7 58427.9 1835.59  19
   5  -5  -6 998.835 322.830  13
   5   5  -6 423.703 287.173  17
   5  -5  -6 1279.32 378.039  12
  -5   5   6 1209.63 326.920  19
   5   5  -6 1236.54 439.139  18
   5  -5  -6 1173.83 378.462  18
   5   5  -6 1253.79 643.019  10
   5   5  -5 91386.8 3879.98   2
   5  -5  -5 88603.1 2222.79  18
  -5  -5   5 94802.4 3526.36   2
   5   5  -5 90585.5 2560.57  18
   5  -5  -5 88660.1 2200.31  12
   5   5  -4 9570.91 1229.13   2
  -5  -5   4 11172.7 1211.41   2
   5  -5  -4 10506.9 1185.20   1
  -5   5   4 10391.0 634.791   3
  -5   5   4 10733.6 1209.94   2
  -5   5   3 1869.67 525.521   2
   5   5  -3 2105.07 598.076   2
  -5  -5   3 2741.04 622.674   2
   5  -5  -3 2022.68 554.148   1
  -5  -5   2-11.4996 258.976   2
   5   5  -2 360.992 456.496   2
   5  -5  -2 131.410 242.385   1
  -5   5   2 186.842 334.853   2
   5  -5  -1 227865. 3526.29   1
   5   5  -1 238602. 5277.65   2
  -5   5   1 240805. 4315.83   2
   5   5   0-20.8369 301.803   1
  -5   5   0-164.658 206.838   2
   5  -5   0 17.7742 111.688   1
   5   5   0 58.9991 420.281   2
  -5   5   0 179.990 224.755   5
  -5   5  -1 4350.53 388.453   2
  -5   5  -1 4829.15 505.327   5
   5   5   1 4391.42 686.128   1
   5   5   1 4994.96 864.559   2
  -5   5  -2 5725.70 556.787   7
  -5   5  -2 7293.81 639.097   5
   5   5   2 5193.76 756.388   1
  -5  -5  -2 5906.46 647.685   8
   5   5   2 5980.33 988.648   2
  -5   5  -2 6630.14 663.068   6
  -5   5  -3 240252. 4043.25   6
   5   5   3 218415. 5898.46   2
  -5   5  -3 259747. 3338.23  20
  -5  -5  -3 253572. 3781.60  14
  -5   5  -3 243539. 3931.69   5
   5   5   3 259732. 5444.24   1
  -5   5  -3 238272. 3718.96   7
  -5  -5  -3 244427. 3876.24   4
  -5  -5  -3 259174. 3375.30  13
  -5  -5  -3 235041. 3735.30   8
  -5  -5  -4 675.091 299.762  13
  -5  -5  -4 1172.20 369.372   8
  -5  -5  -4 896.180 400.958   4
  -5   5  -4 722.054 346.108   7
  -5  -5  -4 220.746 305.251  14
  -5   5  -4 1010.04 319.065  20
  -5   5  -4 783.182 322.553   6
  -5   5  -4 755.489 340.749   5
  -5  -5  -5 803.972 336.421  13
  -5  -5  -5 539.327 364.335   4
  -5   5  -5 58.2960 214.739  20
  -5   5  -5 514.954 336.027   7
  -5   5  -5 264.286 335.324   6
  -5   5  -5 204.883 322.523   5
  -5  -5  -6-517.658 335.066  13
  -5   5  -6 48.6329 349.877   6
  -5   5  -6-184.894 290.369  20
  -5   5  -6 21.3002 334.199   5
  -5   5  -6 58.5159 338.306  10
  -5  -5  -7 63602.1 2560.79   7
  -5   5  -7 66109.9 2892.89   6
  -5   5  -7 65161.4 2763.24   5
  -5   5  -7 57719.1 2357.21  10
  -5  -5  -7 59514.9 2278.96  13
  -5  -5  -8 235.244 377.302  13
  -5  -5  -8-156.992 396.211   7
  -5   5  -8 166.273 459.851   6
  -5   5  -8 265.020 444.325   5
  -5   5  -8-285.108 344.743  10
  -5  -5  -9 1307.37 473.280  13
  -5   5  -9 934.402 527.275  13
  -5  -5  -9 1831.27 560.214   7
  -5   5  -9 1112.20 470.011  10
  -5   5  -9 1449.34 574.700   5
  -5  -5 -10 1242.13 479.301  13
  -5   5 -10 1288.11 490.517  13
  -5  -5 -10 1102.75 477.308   7
  -5  -5 -10 348.160 475.024   6
  -5   5 -10 134.825 320.423  10
  -5   5 -10 693.619 421.476   5
  -5  -5 -11 27309.1 1851.16   5
  -5   5 -11 26194.9 1636.33   5
  -5  -5 -11 18859.6 1255.55  15
  -5  -5 -11 24733.3 1643.95   6
  -5  -5 -11 22979.5 1386.46  13
  -5   5 -11 22421.9 1374.20  13
   5  -7 -13 3759.69 686.535  13
   5   7 -13 4356.21 589.970  18
   5  -7 -13 3213.20 677.615  16
   5  -7 -12-1009.59 436.346  13
   5   7 -12-222.149 309.832  13
   5   7 -12-35.0496 265.348  18
   5  -7 -12-20.4856 395.096  16
   5  -7 -12-880.059 451.898  12
   5   7 -11 42509.6 2017.47  13
   5  -7 -11 43814.9 2234.59  12
  -5   7  11 46024.4 1829.01  19
   5   7 -11 40976.6 2139.06  18
   5  -7 -11 42777.6 2531.52  16
   5  -7 -11 44238.3 2244.71  13
  -5   7  10 590.273 367.948  19
   5   7 -10 105.629 356.139  18
   5  -7 -10 298.957 369.589  12
   5  -7 -10-63.4001 380.018  13
   5   7  -9 27181.0 1497.85  12
  -5   7   9 27468.6 1452.93  19
   5   7  -9 25792.2 1750.55  18
   5  -7  -9 23838.4 1609.46  12
   5  -7  -9 26188.1 1663.99  13
   5  -7  -8 23.2560 296.819  13
   5  -7  -8 88.9225 326.189  12
  -5   7   8-154.376 281.544  19
   5   7  -8-5.51347 385.345  18
   5   7  -8 146.967 274.442  12
   5   7  -7 48402.2 2265.00  10
  -5   7   7 48310.1 1768.23  19
   5   7  -7 50673.3 2216.77  18
   5  -7  -7 47884.9 1973.79  12
   5  -7  -7 47486.9 1921.27  13
   5  -7  -6-21.6610 284.207  12
  -5   7   6 38.3546 223.342  19
   5   7  -6 127.173 241.921  18
   5   7  -6 114.105 385.135  10
   5  -7  -6-70.8292 264.521  13
   5  -7  -5 162824. 3136.22  12
  -5   7   5 169582. 3070.94  19
   5   7  -5 167422. 3571.29  18
   5  -7  -5 165257. 3044.44  13
  -5  -7   4 2053.10 556.170   2
  -5  -7   4 1182.40 305.633   8
   5  -7  -4 665.687 262.862  12
   5  -7  -4-3.72532 307.836   1
   5   7  -4 1053.18 406.991  18
  -5  -7   4 863.913 319.786  11
   5   7  -4 1866.60 578.366   2
  -5  -7   3 3783.18 756.653   2
   5  -7  -3 2980.95 678.469   1
  -5   7   3 3474.86 366.705   3
  -5   7   3 2906.24 679.059   2
   5   7  -3 2448.00 639.151   2
  -5  -7   3 3559.98 468.698   8
   5  -7  -2 1771.12 402.455   1
  -5  -7   2 1879.21 438.541   8
  -5   7   2 2210.73 308.261   3
  -5   7   2 2439.32 538.459   2
   5   7  -2 2814.37 660.244   2
   5   7  -1 261199. 6046.48   2
   5   7  -1 246528. 5704.50   1
   5  -7  -1 244267. 4122.83   1
  -5  -7   1 245315. 3653.58   8
  -5   7   1 259875. 4868.74   2
  -5  -7   0 4.51359 284.065   8
   5   7   0-478.499 359.473   1
   5   7   0 162.951 352.820   2
  -5   7  -1 22848.3 1102.03   2
  -5   7  -1 22936.4 975.354  21
  -5  -7  -1 23305.2 1207.22  14
  -5   7  -1 23843.0 996.934  20
   5   7   1 25527.1 1793.87   1
   5   7   1 24441.4 1941.93   2
  -5   7  -1 21423.4 1083.04   5
  -5  -7  -1 23757.4 1039.62  15
  -5  -7  -1 21871.1 1210.12   8
  -5  -7  -2 1828.50 344.966  13
  -5  -7  -2 2011.06 448.090   4
   5   7   2 2398.06 617.890   1
  -5   7  -2 1900.73 328.832  21
  -5  -7  -2 1819.40 484.915   8
   5   7   2 2342.28 675.232   2
  -5  -7  -2 2150.10 378.285  15
  -5   7  -2 1962.39 364.949  20
  -5   7  -2 2021.12 418.812   5
  -5  -7  -2 1842.30 485.210  14
  -5   7  -3 232722. 3360.36  20
  -5  -7  -3 228973. 4048.60  14
  -5   7  -3 227120. 3970.98   5
  -5  -7  -3 231347. 3436.53  13
  -5  -7  -3 225400. 4086.53   4
  -5  -7  -3 218646. 3932.77   8
  -5  -7  -4 929.893 343.600  13
  -5  -7  -4 922.716 394.745   8
  -5  -7  -4 796.405 415.899  14
  -5  -7  -4 1005.59 393.772   4
  -5   7  -4 462.765 335.961   5
  -5   7  -4 1307.53 339.899  20
  -5  -7  -5 2016.46 439.307  13
  -5  -7  -5 2447.98 572.662   4
  -5   7  -5 1801.86 410.373  20
  -5   7  -5 2385.79 565.204   5
  -5  -7  -6 319.732 319.045  13
  -5   7  -6 207.403 281.322  20
  -5   7  -6 511.243 443.243   5
  -5  -7  -7 68069.9 2680.86   7
  -5   7  -7 71701.6 2413.99  20
  -5   7  -7 69782.1 2873.67   5
  -5   7  -7 67075.2 2565.07  10
  -5  -7  -7 60989.2 2334.98  13
  -5  -7  -8 183.627 374.849  13
  -5   7  -8-131.866 415.094   5
  -5  -7  -8-99.5494 347.549   7
  -5   7  -8 109.795 423.795  10
  -5  -7  -9 1675.89 529.617  13
  -5   7  -9 2459.57 654.351  13
  -5   7  -9 1819.46 544.846  10
  -5  -7  -9 2979.70 692.265   7
  -5   7  -9 2164.63 642.457   5
  -5  -7 -10 362.070 322.291  13
  -5   7 -10-256.282 406.891  13
  -5  -7 -10-184.841 418.633   6
  -5  -7 -10-22.7795 264.452   7
  -5   7 -10-314.075 354.236  10
  -5  -7 -10-416.464 339.703  15
  -5   7 -10-367.484 349.164   5
   5   9 -12 184.495 336.938  13
   5   9 -12 502.938 325.894  18
   5  -9 -12 476.117 414.504  12
   5  -9 -12 463.764 437.255  16
   5   9 -11 50179.8 2092.12  13
  -5   9  11 52299.4 1940.14  19
   5  -9 -11 46143.7 2335.07  12
   5   9 -11 47955.8 2267.87  18
   5  -9 -11 47191.2 2626.37  16
   5  -9 -11 48280.9 2332.64  13
   5  -9 -10 1256.54 572.938  13
  -5   9  10 410.852 300.743  19
   5   9 -10 872.407 508.095  18
   5  -9 -10 1178.16 611.175  16
   5   9  -9 16367.6 1434.52  18
  -5   9   9 17007.5 1199.26  19
   5  -9  -9 17110.5 1447.74  12
   5  -9  -9 14951.4 1340.23  13
   5  -9  -8-261.965 356.182  13
   5   9  -8-303.198 412.621  18
   5   9  -8 53.7029 248.711  12
  -5   9   8 362.197 404.670  19
   5  -9  -8 188.028 383.135  12
   5   9  -8-72.5791 370.891  10
  -5   9   7 50055.4 1924.67  19
   5   9  -7 50614.7 2270.79  18
   5   9  -7 49400.8 2189.62  10
   5  -9  -7 48894.0 2067.83  13
   5  -9  -7 51290.9 2159.20  12
   5  -9  -6 395.941 382.390  13
   5  -9  -6 6.14304 306.730  12
  -5   9   6-28.2945 292.309  19
   5   9  -6 25.8205 325.066  18
   5   9  -6 1125.74 360.058  10
   5  -9  -5 141876. 3166.67  12
  -5   9   5 143771. 3060.36  19
  -5  -9   5 149696. 2919.89  11
   5   9  -5 140592. 3385.19  18
  -5   9   4-128.909 289.816  19
   5   9  -4 118.006 284.579  18
  -5  -9   4 349.055 263.940  11
   5  -9  -4 144.541 234.656  12
  -5  -9   4 455.667 272.275  14
  -5  -9   3 45619.0 1643.36   8
  -5   9   3 43011.4 1471.17  21
   5  -9  -3 44037.9 1579.35  12
  -5   9   3 43662.9 1676.58  19
  -5   9   3 42230.3 1171.94   3
   5  -9  -3 45674.9 2534.83   1
  -5  -9   3 44720.2 1515.10  11
   5   9  -3 44172.2 1724.10  18
  -5  -9   3 44632.3 1562.00  14
  -5  -9   2 689.610 380.710   8
  -5   9   2 223.777 186.336   3
  -5   9   2-475.280 244.504   2
   5   9  -2 331.050 250.436  18
  -5   9   2 211.636 279.680  21
  -5   9   2 124.733 339.822  19
   5  -9  -2 177.823 261.434   1
  -5  -9   2 217.108 234.928  11
   5  -9  -2-109.210 199.135  12
  -5  -9   2 424.635 368.969  14
  -5   9   1 136574. 2561.49  21
   5  -9  -1 137124. 3591.10   1
  -5   9   1 145409. 2468.69  20
  -5   9   1 145457. 3032.85  19
  -5  -9   1 138576. 2553.71  11
  -5  -9   1 135562. 2928.34  14
  -5   9   1 143991. 4029.13   2
  -5  -9   1 133545. 2991.11   8
  -5  -9   0 800.289 375.077   4
  -5  -9   0 786.178 419.906   8
  -5   9   0 882.480 288.955  20
  -5   9   0 913.934 304.676  21
  -5   9   0 922.355 313.812   2
  -5  -9   0 938.814 294.084  15
  -5  -9   0 601.190 381.019  14
  -5  -9  -1 40894.9 1802.70   8
   5   9   1 42550.8 1388.74  19
  -5   9  -1 42959.9 1431.37  20
  -5  -9  -1 42904.5 1519.60  15
  -5  -9  -1 40417.7 1727.89   4
  -5  -9  -1 40929.8 1770.66  14
  -5  -9  -2 340.491 269.016  13
  -5  -9  -2 98.7906 401.473   8
  -5  -9  -2 443.907 376.353   4
   5   9   2 386.333 279.268  19
  -5   9  -2 515.841 263.824  20
  -5  -9  -2 846.614 452.217  14
  -5  -9  -2 389.646 220.837  15
  -5   9  -2 227.650 287.710   5
  -5  -9  -3 141344. 3545.11   4
  -5  -9  -3 146790. 3606.71  14
   5   9   3 144257. 3006.21  19
  -5   9  -3 145800. 2854.43  20
  -5  -9  -3 145672. 3051.62  15
  -5   9  -3 145385. 3379.57   5
  -5  -9  -3 148301. 2978.58  13
  -5  -9  -4 321.550 291.825  13
  -5  -9  -4 363.681 400.958   4
  -5   9  -4-104.308 309.644  20
  -5   9  -4 47.9039 168.231  18
  -5  -9  -4 19.7438 414.321  14
  -5  -9  -4-335.944 314.959  15
  -5   9  -4 85.6368 325.531   5
  -5  -9  -5 2113.74 484.800  13
  -5   9  -5 1593.14 522.564   5
  -5   9  -5 1964.02 436.604  20
  -5  -9  -6 19.8367 305.375  13
  -5   9  -6 204.608 319.445  20
  -5   9  -6 216.279 346.506   5
  -5   9  -7 58391.7 2239.00  20
  -5   9  -7 57483.7 2626.93   5
  -5  -9  -7 57609.6 2307.49  13
  -5   9  -7 54894.4 2331.67  10
  -5  -9  -8 714.262 460.357  13
  -5  -9  -8 564.991 424.001   7
  -5   9  -8 461.642 403.451  10
  -5  -9  -8 510.019 937.731  15
  -5   9  -8 472.573 419.468   5
  -5  -9  -9 6832.76 909.047   7
   5   9   9 6605.04 843.734  19
  -5  -9  -9 6587.13 841.159  15
  -5   9  -9 6821.22 937.826   5
  -5   9  -9 6033.60 821.887  10
  -5  -9  -9 6329.58 820.534  13
  -5  -9 -10-304.820 358.112  13
  -5  -9 -10-30.3698 231.166  15
  -5   9 -10 160.814 361.417  13
  -5  -9 -10 210.604 305.545   7
   5   9  10-864.154 405.536  19
  -5   9 -10 424.090 301.406   5
  -5   9 -10-399.495 295.055  10
   5 -11 -12-247.583 353.429  12
   5  11 -12 2.08222 332.766  18
   5 -11 -12-89.8659 365.178  16
   5 -11 -11 36208.7 2058.15  12
  -5  11  11 35782.6 1577.53  19
   5  11 -11 35679.8 1877.61  18
   5 -11 -11 34501.4 2162.55  16
   5  11 -10 190.980 349.917  18
   5 -11 -10 74.6478 478.229  12
  -5  11  10 513.465 307.900  19
   5 -11 -10 815.131 559.729  16
   5 -11  -9 34147.8 2075.93  12
  -5  11   9 37051.4 1761.14  19
   5  11  -9 35846.1 2063.08  18
   5 -11  -9 36984.9 2292.38  16
   5  11  -8 4308.57 618.796  12
   5 -11  -8 5982.28 929.453  12
  -5  11   8 4569.21 675.446  19
   5  11  -8 5028.33 844.203  18
   5  11  -8 5783.14 781.633  10
   5  11  -7 85822.6 3002.22  18
  -5  11   7 83895.4 2602.82  19
   5 -11  -7 87586.5 3001.84  12
  -5  11   6 493.787 354.101  19
   5  11  -6 521.770 400.664  18
   5 -11  -6 149.285 338.704  12
   5 -11  -6 592.480 1023.35  14
   5 -11  -5 86673.5 2696.64  12
   5  11  -5 87148.8 2748.39  18
  -5  11   5 87784.8 2583.68  19
   5  11  -4 909.735 375.328  18
  -5 -11   4 321.108 244.699  14
   5 -11  -4 644.854 383.576  12
  -5 -11   4 1375.02 374.742  11
  -5  11   4 1169.77 459.231  19
   5 -11  -3 42163.0 1707.02  12
  -5  11   3 42590.7 1400.40  20
  -5  11   3 39803.7 1755.74  19
   5  11  -3 41002.5 1734.39  18
  -5 -11   3 41818.0 1561.67  11
  -5 -11   3 40384.7 1656.51  14
  -5 -11   2 306.202 312.540   4
  -5  11   2 554.541 260.262  20
  -5  11   2 209.180 407.244  19
   5  11  -2 416.954 236.252  18
  -5 -11   2-69.4317 209.432  11
   5 -11  -2 356.826 267.773  12
  -5  11   2 253.042 184.580   3
  -5 -11   2 420.082 331.842  14
   5 -11  -1 124223. 2660.87  12
  -5 -11   1 117464. 2520.22  11
  -5  11   1 125589. 2484.87  20
  -5 -11   1 124188. 3089.52  14
  -5 -11   0-46.1131 345.966   4
  -5  11   0 198.711 223.824  20
   5  11   0-165.821 229.691  19
  -5 -11   0 46.0745 222.823  11
  -5 -11   0-42.5657 350.781  14
  -5  11  -1 17537.5 1008.86  20
   5  11   1 18774.6 1007.10  19
  -5 -11  -1 17975.1 1099.35  15
  -5 -11  -1 18174.8 1319.88  14
  -5 -11  -1 17603.8 1278.36   4
  -5 -11  -2 174.194 387.811   4
   5  11   2 431.305 320.661  19
  -5  11  -2 244.809 276.353  20
  -5 -11  -2-63.4890 286.753  15
  -5 -11  -2-182.599 414.353  14
  -5 -11  -3 116777. 3483.47   4
   5  11   3 115508. 2832.86  19
  -5  11  -3 116606. 2736.05  20
  -5 -11  -3 118178. 2958.74  15
  -5  11  -3 110718. 3170.55   5
  -5 -11  -3 116829. 3509.59  14
  -5 -11  -4 128.152 300.115  13
  -5  11  -4 432.691 327.837  20
  -5  11  -4 558.350 275.824  18
  -5 -11  -4 823.979 514.234  14
   5  11   4 160.888 388.188  19
  -5 -11  -4 647.563 353.082  15
  -5  11  -4 560.899 392.594   5
  -5 -11  -5-306.472 325.897  13
  -5 -11  -5 105.717 309.716  15
   5  11   5-22.5301 364.345  19
  -5  11  -5 372.288 219.014  18
  -5  11  -5-12.2106 336.728  20
  -5 -11  -5 472.976 464.252  14
  -5  11  -5 796.277 446.513   5
  -5 -11  -6 464.668 368.385  13
  -5  11  -6 473.614 439.063   5
  -5  11  -6-2.20428 336.525  20
   5  11   6 492.847 453.021  19
  -5 -11  -6-27.2192 344.287  15
  -5  11  -7 70502.4 2498.79  20
   5  11   7 70324.6 2612.62  19
  -5  11  -7 71701.0 2929.51   5
  -5  11  -7 72367.5 2655.66  10
  -5 -11  -7 72365.0 2707.02  15
  -5 -11  -7 69893.0 2578.90  13
  -5 -11  -8-477.316 370.302  13
  -5  11  -8 561.973 370.309  10
   5  11   8 57.1882 350.122  19
  -5 -11  -8 185.378 320.839   7
  -5 -11  -8-23.4879 309.057  15
  -5  11  -8 470.192 345.937   5
  -5 -11  -9 779.573 379.167  13
   5  11   9 1020.01 437.928  19
  -5 -11  -9 1217.60 441.777   7
  -5 -11  -9 965.477 424.338  15
  -5  11  -9 708.092 423.414  10
  -5  11  -9 1103.28 466.349   5
   5 -13 -11 33542.1 1938.98  12
  -5  13  11 34131.2 1466.03  19
   5  13 -11 34147.5 1736.74  18
   5 -13 -11 34258.7 2010.56  16
  -5  13  10 850.805 369.031  19
   5  13 -10 441.950 385.815  18
   5 -13 -10 305.023 463.371  12
   5 -13 -10 1231.64 565.730  16
   5 -13  -9 14161.1 1380.23  12
   5  13  -9 15850.3 1370.13  18
  -5  13   9 15343.5 1159.22  19
   5 -13  -9 14669.7 1439.95  16
  -5  13   8 286.606 341.772  19
   5 -13  -8-145.236 436.412  12
   5  13  -8 620.109 442.337  18
   5 -13  -8 312.423 427.133  16
   5 -13  -7 52917.9 2479.54  12
  -5  13   7 51065.4 2132.46  19
   5 -13  -7 50586.9 2414.44  16
   5  13  -7 53531.3 2428.67  18
   5 -13  -6 686.690 463.238  12
   5  13  -6 411.231 416.389  18
   5 -13  -6 548.119 372.395  16
  -5  13   6 602.766 407.683  19
   5 -13  -6 568.797 1089.04  14
   5  13  -5 54838.7 2249.98  18
   5 -13  -5 53341.2 2308.27  12
  -5  13   5 54732.2 2166.97  19
  -5  13   4 965.820 435.270  19
   5 -13  -4 1071.52 469.192  12
   5  13  -4 1135.08 407.650  18
  -5 -13   4 616.750 327.580  14
   5 -13  -3 31262.9 1638.25  12
   5  13  -3 31202.4 1573.47  18
  -5 -13   3 33444.7 1468.26  11
  -5 -13   3 30564.9 1564.25  14
  -5  13   3 29510.3 1621.41  19
  -5  13   3 32103.3 1289.48  20
  -5  13   2 396.172 236.712  20
   5 -13  -2-491.671 315.187  12
  -5  13   2-48.0963 380.576  19
   5  13  -2-193.820 232.561  18
  -5 -13   2 199.509 238.879  11
  -5 -13   2 421.615 378.773  14
  -5 -13   1 130559. 3180.75   4
   5 -13  -1 132663. 3044.42  12
   5  13  -1 132508. 2635.63  19
  -5  13   1 127347. 2670.31  20
  -5 -13   1 127051. 2800.11  11
  -5 -13   1 125217. 3371.49  14
  -5  13   0-104.485 245.764  20
   5  13   0-498.509 281.757  19
  -5 -13   0 208.233 311.474  11
  -5 -13   0-456.012 435.441  14
  -5 -13   0 346.931 395.019   4
  -5 -13  -1 8510.62 987.357   4
  -5  13  -1 8458.09 771.347  20
   5  13   1 8439.62 744.615  19
  -5 -13  -1 7771.50 971.624  14
  -5  13  -2-88.7250 285.768  20
   5  13   2 268.548 322.911  19
  -5 -13  -2-215.477 328.280  15
  -5 -13  -2 248.992 473.096  14
  -5  13  -3 115011. 2895.77  20
   5  13   3 113581. 2937.26  19
  -5 -13  -3 113605. 3106.42  15
  -5 -13  -3 118873. 3756.55  14
  -5  13  -4 1083.38 397.823  20
   5  13   4 739.639 385.913  19
  -5  13  -4 1156.00 343.813  18
  -5 -13  -4 1125.19 450.214  15
  -5 -13  -4 594.481 525.798  14
  -5  13  -5 216.514 393.444  20
   5  13   5 368.144 342.455  19
  -5 -13  -5 432.895 420.268  14
  -5  13  -5 686.537 284.646  18
  -5 -13  -5 609.979 458.787  15
  -5  13  -6 1660.79 506.015  20
   5  13   6 2233.48 616.858  19
  -5 -13  -6 1235.47 510.537  15
   5  13   7 45518.1 2068.50  19
  -5 -13  -7 45486.8 2171.25  15
  -5  13  -7 44212.9 2024.94  10
   5  13   8 88.7399 372.611  19
  -5 -13  -8 633.770 364.404   7
  -5 -13  -8 597.222 406.685  15
  -5  13  -8 1095.70 425.615  10
  -5 -13  -9 1842.24 407.390   7
   5  13   9 1875.00 502.906  19
  -5 -13  -9 876.486 392.939  15
  -5  13  -9 1316.62 405.379  10
   5 -15 -10-390.026 412.542  12
  -5  15  10-657.936 296.207  19
   5  15 -10 311.703 316.314  18
   5 -15 -10-479.399 393.513  16
   5 -15  -9 8298.54 1071.93  12
  -5  15   9 9954.30 944.219  19
   5  15  -9 9348.13 1019.46  18
   5 -15  -9 8617.24 1051.22  16
   5 -15  -8 382.530 455.194  12
  -5  15   8 1105.64 425.874  19
   5  15  -8 436.685 344.360  18
   5 -15  -8 887.031 468.555  16
   5 -15  -7 33747.0 2067.48  12
  -5  15   7 31953.5 1732.34  19
   5  15  -7 33436.0 1910.36  18
   5 -15  -7 30253.0 1810.41  16
   5 -15  -6 747.443 520.136  12
   5  15  -6 1321.73 507.810  18
  -5  15   6 754.477 442.531  19
   5 -15  -6 798.666 378.452  16
   5 -15  -5 38438.9 2110.12  12
  -5  15   5 40512.5 1977.73  19
   5  15  -5 43943.7 2058.75  18
  -5  15   4-259.239 398.806  19
   5  15  -4 92.6566 338.107  18
   5 -15  -4 140.176 346.176  12
  -5 -15   4 12.1344 303.777  14
   5 -15  -4 147.397 1006.27  14
   5 -15  -3 12917.0 1168.02  12
  -5  15   3 16369.0 1343.64  19
   5  15  -3 16086.8 1181.44  18
  -5 -15   3 16015.4 1226.04  14
   5 -15  -3 18600.8 2129.56  14
  -5  15   2 443.056 297.005  20
   5  15  -2 1172.34 383.897  18
  -5 -15   2 630.837 454.526  14
   5 -15  -2 225.260 993.998  14
   5  15  -1 127595. 2799.84  19
  -5 -15   1 124602. 2911.34  11
  -5  15   1 122636. 2776.04  20
   5  15  -1 127482. 3042.03  18
  -5 -15   1 122083. 3555.03  14
   5 -15   0-478.904 862.597  14
   5  15   0-309.313 300.317  19
  -5  15   0-152.977 305.603  20
  -5 -15   0-339.740 252.029  11
  -5 -15   0-262.807 480.306  14
  -5  15  -1 5039.09 660.623  20
   5  15   1 4760.05 640.474  19
  -5 -15  -1 4424.99 644.258  11
  -5 -15  -1 4561.62 875.592  14
   5 -15   1 4996.76 1137.46  14
  -5 -15  -2 1149.39 567.955  14
   5 -15   2 440.859 670.707  14
  -5  15  -2 406.475 337.649  20
   5  15   2 1174.49 399.053  19
   5  15   3 78912.8 2527.72  19
  -5 -15  -3 77811.5 2725.91  15
  -5 -15  -3 74768.8 3108.94  14
  -5  15  -3 78189.4 2544.12  20
  -5  15  -4 402.714 368.390  20
   5  15   4 246.913 365.091  19
  -5  15  -4 1180.90 401.244  18
  -5 -15  -4 922.439 446.987  15
  -5 -15  -4 1539.28 663.167  14
   5  15   5 23.2604 367.527  19
  -5  15  -5 805.402 416.704  20
  -5  15  -5 162.939 171.241  18
  -5 -15  -5 472.897 389.269  15
  -5 -15  -5 301.671 467.357  14
  -5  15  -6-198.860 326.277  20
   5  15   6 266.871 388.670  19
  -5  15  -6-386.838 261.998  18
  -5 -15  -6-120.255 406.840  15
  -5 -15  -6 406.974 380.054  14
   5  15   7 39017.0 1831.14  19
  -5  15  -7 41992.9 1891.74  10
  -5 -15  -7 41279.9 1991.60  15
   5  15   8 126.319 295.607  19
  -5 -15  -8 73.8371 296.568  15
  -5 -15  -8-169.444 177.444   7
  -5  15  -8 194.616 268.849  10
  -5  17   9 9964.33 862.636  19
   5  17  -9 10122.5 949.736  18
   5 -17  -9 9914.24 967.290  16
   5 -17  -8 311.410 446.806  12
  -5  17   8 437.193 313.244  19
   5  17  -8 12.0988 286.507  18
   5 -17  -8 651.316 383.337  16
   5 -17  -7 24487.1 1773.02  12
  -5  17   7 28460.9 1625.43  19
   5  17  -7 27956.0 1667.76  18
   5 -17  -7 26374.1 1555.70  16
   5 -17  -7 30674.2 2457.89  14
   5 -17  -6 107.081 440.913  12
  -5  17   6-2.45650 357.568  19
   5  17  -6 201.216 306.810  18
   5 -17  -6-256.758 1069.16  14
   5 -17  -5 37780.6 2162.40  12
  -5  17   5 34739.9 1892.14  19
   5  17  -5 34593.5 1830.41  18
  -5 -17   4-255.643 323.051  14
   5  17  -4-243.002 310.994  18
  -5  17   4-443.974 494.177  19
  -5  17   3 23574.7 1645.54  19
   5  17  -3 23100.0 1428.06  18
  -5 -17   3 24152.4 1530.28  14
   5 -17  -3 27095.0 2605.16  14
   5  17  -2-235.816 260.569  18
  -5 -17   2-326.065 410.446  14
  -5  17   1 68061.2 2163.06  20
   5  17  -1 72502.9 2365.16  18
  -5 -17   1 64613.7 2716.35  14
  -5  17   0-21.1379 332.625  20
   5  17   0 85.0872 288.146  19
  -5 -17   0-376.268 287.089  11
  -5 -17   0 494.134 521.086  14
  -5  17  -1 448.515 378.562  20
   5  17   1 923.210 391.272  19
  -5 -17  -1 738.996 373.868  11
  -5 -17  -1 1124.68 647.135  14
   5 -17   1 102.918 690.195  14
  -5  17  -2 1700.08 524.855  20
   5  17   2 2090.55 488.024  19
  -5 -17  -2 2269.02 508.830  11
  -5 -17  -2 2451.55 789.365  14
  -5  17  -3 124095. 3275.18  20
  -5 -17  -3 122867. 3984.79  14
  -5 -17  -3 120575. 3312.65  11
   5  17   3 120444. 3140.91  19
  -5  17  -4-139.535 370.996  20
   5  17   4 204.774 310.403  19
  -5  17  -4 19.5390 343.057  18
  -5 -17  -4 93.6288 463.268  14
  -5  17  -5 552.306 306.022  18
  -5  17  -5 792.141 399.309  20
   5  17   5 696.054 356.383  19
  -5 -17  -5-211.654 379.964  14
   5  17   6 301.963 337.197  19
  -5  17  -6-26.9844 85.2288  18
  -5  17  -6-649.342 317.522  10
  -5 -17  -6-276.493 332.187  14
  -5 -17  -7 35169.4 1777.84   7
   5  17   7 36711.1 1633.47  19
  -5  17  -7 37619.3 1651.32  10
  -5  19   8 312.398 326.566  19
   5  19  -8 263.657 244.304  18
  -5  19   7 24562.7 1439.09  19
   5  19  -7 26353.6 1496.71  18
   5 -19  -7 25689.3 2013.42  14
  -5  19   6 387.164 324.323  19
   5  19  -6 235.908 357.469  18
  -5  19   5 30397.3 1741.43  19
   5  19  -5 28945.2 1610.26  18
   5 -19  -5 30245.1 2607.01  14
   5  19  -4 276.378 299.786  18
   5 -19  -4 354.337 797.524  14
   5  19  -3 9562.00 939.179  18
  -5 -19   3 8369.25 943.386  14
   5 -19  -3 11546.5 1768.38  14
   5  19  -2 1483.37 423.573  18
  -5 -19   2 1387.40 542.280  14
   5  19  -1 82526.9 2506.35  18
  -5 -19   1 75146.0 2896.97  14
  -5 -19   0 362.002 489.307  14
  -5  19   0 460.079 321.247  20
   5  19   1 6689.43 752.392  19
  -5  19  -1 7581.13 826.799  20
  -5 -19  -1 6953.87 792.945  11
  -5 -19  -1 6685.01 1020.85  14
   5 -19   1 7286.77 1212.16  14
  -5  19  -2-76.3861 345.997  20
   5  19   2-865.511 361.318  19
  -5 -19  -2 125.324 255.840  11
  -5 -19  -2 22.2958 489.852  14
   5 -19   2-254.946 426.210  14
  -5  19  -3 40220.2 1861.06  20
  -5  19  -3 39222.7 1798.84  18
  -5 -19  -3 42008.4 1897.19  11
  -5 -19  -3 36633.2 2140.93  14
   5  19   3 38395.1 1736.78  19
  -5  19  -4 516.558 326.717  20
   5  19   4 532.132 316.801  19
  -5 -19  -4 449.976 302.885  11
  -5  19  -4 586.467 276.533  18
  -5 -19  -4 1313.99 631.627  14
   5  19   5 1732.49 407.259  19
  -5  19  -5 1382.92 348.946  18
  -5 -19  -5 1115.99 379.876  11
  -5 -19  -5 518.078 402.782  14
  -5  19  -5 1215.22 371.741  10
  -5 -19  -6 82.0493 255.439  11
   5  19   6-35.8360 263.591  19
  -5  19  -6-410.916 251.341  10
   5  21  -6 638.122 308.787  18
   5 -21  -6 903.601 578.920  14
   5  21  -5 39123.0 1715.52  18
   5 -21  -5 40322.0 2576.16  14
   5  21  -4 109.784 236.775  18
   5 -21  -4 86.6550 629.247  14
   5  21  -3 23586.6 1347.08  18
   5 -21  -3 23527.8 2077.76  14
  -5 -21   3 23688.0 1380.38  14
   5  21  -2-30.7058 211.188  18
   5 -21  -2-649.192 733.537  14
  -5 -21   2 333.956 342.009  14
   5 -21  -1 47673.0 2787.94  14
  -5 -21   1 47999.1 2203.82  14
  -5 -21   0 271.710 433.493  14
   5 -21   0 1343.50 703.585  14
  -5 -21  -1 8833.71 1066.58  14
  -5  21  -1 9650.88 868.737  20
   5 -21   1 7285.46 1042.89  14
  -5  21  -2-290.569 283.713  18
  -5 -21  -2 264.288 402.900  14
  -5  21  -3 52016.3 1960.13  18
   5  21   3 49889.6 1827.00  19
  -5 -21  -3 53909.7 2363.59  14
   5  21   4 1591.97 379.091  19
  -5  21  -4 1812.38 386.672  18
  -5 -21  -4 1060.30 366.101  11
  -5 -21  -4 1018.56 432.937  14
   5  23  -3 9754.48 774.821  18
   5 -23  -3 9344.92 1132.85  14
  -5 -23   2 193.843 262.333  14
   5 -23  -2 94.2737 442.505  14
  -5 -23   1 45281.6 1901.94  14
   5 -23  -1 42204.7 2234.74  14
  -5 -23   0-285.183 359.950  14
   5 -23   0-68.7971 432.387  14
  -5  23  -1 7786.12 735.258  18
  -5 -23  -1 7209.90 854.660  14
   5 -23   1 6069.03 819.471  14
   6   0 -12 37600.5 1995.65  18
   6   0 -12 41945.5 1997.60  13
   6   0 -11-198.938 373.137  18
   6   0 -11 56.2456 248.862  12
   6   0 -10 18034.5 1479.99  18
   6   0 -10 17099.7 1298.88  12
   6   0 -10 18035.9 1379.02  13
   6   0  -9 373.535 361.132  13
   6   0  -9-138.045 424.879  18
   6   0  -9 347.383 286.403  12
   6   0  -8 102086. 3149.24  18
   6   0  -8 101486. 2891.96  12
   6   0  -8 108469. 2890.54  13
   6   0  -7 335.325 327.285  18
   6   0  -7-599.769 337.863  12
   6   0  -6 105459. 2762.60  18
   6   0  -6 100331. 2576.17  12
   6   0  -6 109393. 2903.22  17
   6   0  -5 47.0524 279.276  12
   6   0  -5-131.171 340.908  17
   6   0  -5 246.423 402.151   2
   6   0  -5 79.1498 272.400  18
  -6   0   5 282.108 212.756   2
  -6   0   4 236016. 5206.71   2
   6   0  -4 234668. 5788.07   2
  -6   0   3 220.109 276.560   2
   6   0  -3-50.8812 358.024   2
  -6   0   3 16.1349 228.993   3
   6   0  -2 193481. 4519.90   2
  -6   0   2 208816. 2653.71   3
  -6   0   2 200581. 4292.42   2
  -6   0   1-182.226 299.124   2
  -6   0   1-21.7054 195.946   3
   6   0  -1 13.9694 320.252   2
   6   0   0 26269.9 1434.02   2
  -6   0   0 28673.6 970.417   3
  -6   0   0 27333.5 1339.41   2
   6   0   1-231.383 199.073   2
   6   0   1 167.103 147.631   1
   6   0   2 113886. 2286.32   2
   6   0   2 111291. 2108.20   1
  -6   0  -4 1388.10 346.529   4
  -6   0  -4 2230.56 413.951  13
  -6   0  -4 1690.41 379.826   7
  -6   0  -4 2108.56 412.937  10
  -6   0  -5-77.7996 354.679  13
  -6   0  -5-33.0829 255.506  10
  -6   0  -5-24.7989 304.712   7
  -6   0  -6 117279. 3057.96  13
  -6   0  -6 112251. 3259.15   7
  -6   0  -6 119415. 3663.73   6
  -6   0  -6 113763. 3002.72  10
  -6   0  -7 136.913 365.692  13
  -6   0  -7-335.707 366.365   7
  -6   0  -7 310.368 527.143   6
  -6   0  -7-326.387 337.505  10
  -6   0  -8 6940.97 995.108   7
  -6   0  -8 5888.38 1005.29   6
  -6   0  -8 7417.93 891.639  10
  -6   0  -8 6649.46 1046.11   5
  -6   0  -8 6439.03 871.614  13
  -6   0  -9 185.898 388.585  13
  -6   0  -9 601.471 450.749   7
  -6   0  -9 412.670 445.177   6
  -6   0  -9 688.492 474.390   5
  -6   0 -10 47060.6 2470.83   6
  -6   0 -10 44981.2 2489.38   5
  -6   0 -10 43112.0 2039.06  13
  -6   0 -11 897.693 354.817  13
   6   2 -13-339.877 290.193  18
   6  -2 -13 238.347 297.656  16
   6   2 -12 40713.6 2107.20  18
   6  -2 -12 44314.1 2093.06  13
   6  -2 -11 190.035 283.479  13
   6  -2 -11 156.549 391.013  18
   6   2 -11 1111.59 456.181  13
   6   2 -11 304.607 227.063  12
   6   2 -11 75.5205 383.207  18
   6  -2 -11 593.539 374.723  12
   6   2 -10 11163.6 1040.34  12
   6  -2 -10 11742.6 1127.51  12
   6  -2 -10 10600.1 1128.74  18
   6   2 -10 11727.4 1228.86  18
   6  -2 -10 11175.0 1105.58  13
   6   2 -10 12299.8 1168.21  13
   6  -2  -9-199.896 364.773  13
   6   2  -9 137.293 321.729  13
   6  -2  -9-7.98866 409.215  18
   6  -2  -9-557.613 385.504  12
   6   2  -9-406.363 310.130  12
   6   2  -9 28.8079 450.257  18
   6   2  -8 82303.4 2528.75  13
   6  -2  -8 80937.4 2731.52  18
   6   2  -8 84653.7 2941.42  18
   6  -2  -8 79466.5 2571.04  12
   6   2  -8 81864.0 2606.95  12
   6  -2  -8 80593.8 2506.37  13
   6  -2  -7 688.738 301.460  13
   6  -2  -7 996.542 439.125  18
   6  -2  -7 705.378 349.420  12
   6   2  -7 379.802 353.575  12
   6   2  -7 717.591 400.744  18
   6   2  -6 76974.0 2331.56  12
   6   2  -6 74546.9 2430.13  18
   6   2  -6 79176.9 2415.25  17
   6  -2  -6 73797.4 2181.27  12
   6  -2  -6 78890.1 2313.37  18
   6  -2  -5 292.486 312.836  17
   6   2  -5 484.512 334.310  18
   6   2  -5 22.5132 269.254   2
   6  -2  -5 541.273 267.901  12
   6   2  -5 665.343 346.083  12
   6   2  -5 667.168 343.579  17
   6  -2  -5 733.766 340.718  18
  -6   2   5 1082.41 412.675   2
  -6  -2   5 609.233 344.811   2
   6  -2  -5 189.523 404.257   1
   6   2  -4 129517. 4461.00   2
  -6   2   4 137787. 4085.93   2
   6  -2  -4 130053. 4245.94   1
  -6   2   4 129356. 2329.57   3
  -6  -2   4 136211. 3994.86   2
   6  -2  -3 366.729 408.532   2
   6   2  -3 533.687 429.949   2
  -6   2   3-516.944 359.885   2
  -6   2   3 315.201 235.951   3
  -6  -2   3 932.268 376.122   2
   6   2  -2 251690. 5527.75   2
  -6  -2   2 259168. 5078.46   2
  -6   2   2 255973. 4918.21   2
  -6  -2   2 263914. 3122.09   3
   6  -2  -2 262171. 4964.97   2
   6  -2  -1 243.215 284.835   2
  -6   2   1 457.705 211.644   3
   6   2  -1 143.391 395.079   2
  -6   2   1 591.404 285.859   2
  -6  -2   1 421.236 386.915   2
   6   2   0 42110.5 1833.35   1
   6   2   0 38650.4 2010.78   2
  -6   2   0 43236.7 1596.42   2
   6  -2   0 41107.0 1571.53   2
  -6  -2  -1 1523.40 284.026   3
   6   2   1 798.042 267.295   1
  -6   2  -1 1617.27 313.197   5
   6   2   1 1568.76 498.228   2
  -6  -2  -2 202026. 2631.35   3
  -6   2  -2 207434. 2949.75   7
  -6   2  -2 202810. 3286.38   6
   6   2   2 204398. 3791.76   1
  -6   2  -2 199854. 3142.62   5
  -6   2  -3 141.611 208.408   7
  -6   2  -3 134.176 286.763   6
   6   2   3-128.041 179.094   1
  -6   2  -3 59.2727 222.206   5
  -6   2  -4 8624.20 789.822   7
  -6   2  -4 8706.50 900.146   6
  -6   2  -4 9218.10 874.355   5
  -6   2  -4 9450.99 663.770  20
  -6  -2  -4 9572.91 787.409   4
  -6  -2  -4 9565.92 757.041  13
  -6  -2  -5 194.322 286.862  13
  -6   2  -5 188.395 424.385   6
  -6   2  -5-103.431 283.000   7
  -6   2  -5-220.783 364.811   5
  -6  -2  -5 617.420 320.995   4
  -6   2  -5 257.169 282.176  10
  -6  -2  -6 132495. 3504.33   7
  -6   2  -6 129423. 3681.69   5
  -6   2  -6 132839. 3288.24  10
  -6   2  -6 133188. 3609.26   7
  -6   2  -6 132968. 3861.57   6
  -6  -2  -6 136625. 3244.55  13
  -6  -2  -7 132.112 361.167  13
  -6   2  -7-512.083 388.143  13
  -6   2  -7 347.276 405.409   7
  -6  -2  -7 262.714 367.899   7
  -6   2  -7 26.5723 460.902   6
  -6   2  -7 129.214 361.886  10
  -6   2  -7 163.852 416.097   5
  -6  -2  -8 7323.18 1060.43   6
  -6  -2  -8 7310.27 1013.82   7
  -6   2  -8 8638.08 1185.44   6
  -6   2  -8 7395.06 889.652  10
  -6   2  -8 7777.98 1081.39   5
  -6   2  -8 7813.01 1024.13   7
  -6  -2  -8 6600.31 881.919  13
  -6   2  -8 7411.05 945.681  13
  -6  -2  -9 565.092 406.736  13
  -6   2  -9 677.088 446.368  13
  -6  -2  -9 253.301 415.718   6
  -6   2  -9 258.204 474.743   6
  -6  -2  -9-172.259 600.063   5
  -6   2  -9 228.601 415.124   5
  -6   2  -9-962.005 391.404  10
  -6  -2  -9-636.862 440.192   7
  -6  -2 -10 45389.5 2425.56   6
  -6   2 -10 44658.7 2368.07   6
  -6  -2 -10 46824.0 2549.98   5
  -6  -2 -10 42576.9 2204.40   7
  -6   2 -10 45581.3 2409.74   5
  -6  -2 -10 41018.2 1951.97  13
  -6   2 -10 39288.7 1961.99  13
   6  -4 -13 497.613 374.479  16
   6   4 -13-472.481 319.916  18
   6  -4 -12 38817.8 1945.87  12
   6  -4 -12 33002.5 2111.86  16
   6   4 -12 36692.3 1981.35  18
   6  -4 -12 40394.3 2020.96  13
   6  -4 -11-266.141 400.828  13
   6   4 -11 236.089 352.823  13
   6   4 -11 493.237 401.858  18
   6  -4 -11-181.004 322.029  12
   6   4 -10 12425.1 1118.44  13
   6  -4 -10 9714.03 1054.33  12
   6   4 -10 11182.6 1225.44  18
   6  -4 -10 11430.4 1162.99  18
   6   4 -10 11633.0 1052.27  12
   6  -4 -10 13471.5 1203.12  13
   6  -4  -9 3226.72 619.361  13
   6   4  -9 3643.82 569.273  13
   6  -4  -9 3295.91 649.892  12
   6   4  -9 2666.43 556.716  12
   6   4  -9 2761.54 660.220  18
   6  -4  -9 2897.02 619.740  18
   6   4  -8 62669.2 2298.75  12
   6  -4  -8 63153.8 2328.68  12
   6  -4  -8 67416.6 2476.94  18
   6   4  -8 66090.3 2663.72  18
   6  -4  -8 67150.5 2326.22  13
   6  -4  -7 578.649 349.868  13
   6   4  -7 328.030 358.943  12
   6   4  -7 358.385 376.178  18
   6  -4  -7 438.465 305.077  12
   6  -4  -7 377.705 332.576  18
   6  -4  -6 67693.2 2131.88  18
   6  -4  -6 66073.9 2074.20  12
   6   4  -6 64188.8 2355.70  18
   6   4  -6 67508.9 2214.13  17
   6  -4  -5 768.098 323.221  12
   6  -4  -5 1239.11 363.828  18
   6   4  -5 868.965 338.254  17
   6   4  -5 1342.78 446.995  18
  -6   4   4 62131.3 2841.73   2
   6   4  -4 63905.5 3225.90   2
   6  -4  -4 58965.4 1678.91  12
  -6  -4   4 62722.0 2844.67   2
   6  -4  -4 60941.8 1719.32  18
  -6   4   4 60901.6 1574.30   3
   6  -4  -4 56992.1 2767.18   1
  -6   4   3 2171.08 542.053   2
   6   4  -3 1889.88 617.457   2
   6  -4  -3 2478.10 590.677   1
  -6   4   3 2389.86 345.604   3
  -6  -4   3 3084.98 660.171   2
  -6   4   2 269958. 5120.53   2
  -6   4   2 264165. 3067.87   3
  -6  -4   2 274238. 5580.20   2
   6   4  -2 279596. 6160.32   2
   6  -4  -2 256150. 4516.64   1
  -6  -4   1 194.019 293.974   2
   6  -4  -1-186.625 192.620   1
  -6   4   1 284.119 269.579   2
   6   4  -1-674.832 406.534   2
  -6  -4   1 140.898 226.069   3
   6   4   0 31720.4 1805.25   1
   6  -4   0 31159.6 824.429   1
  -6   4   0 35215.6 1194.90   5
   6   4   0 32500.9 2065.80   2
  -6   4   0 32407.1 1421.16   2
  -6   4  -1 2875.51 271.918   2
  -6   4  -1 2815.55 415.923   6
  -6   4  -1 3111.89 429.025   5
   6   4   1 2972.55 594.851   1
   6   4   1 3533.69 753.380   2
  -6  -4  -2 207159. 3265.78  14
  -6   4  -2 197541. 3401.89   6
   6   4   2 198992. 4418.95   1
   6   4   2 183919. 5206.52   2
  -6   4  -2 198016. 2987.17   7
  -6   4  -2 194700. 3276.92   5
  -6   4  -2 217867. 2914.46  20
  -6  -4  -2 211222. 2960.07  15
  -6   4  -3 10781.9 709.065  20
   6   4   3 11251.5 1339.35   2
  -6   4  -3 11157.2 829.234   7
  -6   4  -3 9477.45 863.559   6
  -6   4  -3 11604.3 902.617   5
   6   4   3 10560.2 1093.51   1
  -6  -4  -3 10678.1 853.339   4
  -6  -4  -3 10907.1 853.269   8
  -6  -4  -3 11614.1 731.742  13
  -6  -4  -4 2619.48 503.155   8
  -6   4  -4 2150.21 395.650  20
  -6  -4  -4 2700.07 442.572  13
  -6  -4  -4 2452.98 508.436   4
  -6   4  -4 2183.11 478.272   7
  -6   4  -4 2137.11 520.915   6
  -6   4  -4 1868.61 489.428   5
  -6  -4  -5 394.575 269.714  13
  -6  -4  -5 465.736 350.519   4
  -6   4  -5-262.207 439.796   6
  -6   4  -5-272.814 251.309  20
  -6   4  -5 132.921 287.978   7
  -6   4  -5-21.5142 373.414   5
  -6  -4  -6 113146. 3250.97   7
  -6   4  -6 110947. 3605.92   6
  -6   4  -6 116324. 3469.95   7
  -6   4  -6 114205. 3471.88   5
  -6   4  -6 113018. 3101.11  10
  -6  -4  -6 110246. 2921.86  13
  -6  -4  -7 1481.44 478.459  13
  -6   4  -7 2193.28 679.172   6
  -6  -4  -7 1584.16 542.178   7
  -6   4  -7 1884.41 523.831  10
  -6   4  -7 1925.66 652.531   5
  -6  -4  -8 4986.68 761.629  13
  -6   4  -8 6244.33 889.708  13
  -6  -4  -8 6744.77 950.038   7
  -6   4  -8 6556.64 1010.85   6
  -6   4  -8 7172.19 998.372   5
  -6   4  -8 6050.64 854.041  10
  -6  -4  -9 451.703 440.776  13
  -6   4  -9 701.286 423.778  13
  -6  -4  -9-530.037 529.667   6
  -6  -4  -9 565.047 399.239   7
  -6   4  -9-253.027 333.014  10
  -6   4  -9 1416.41 516.117   5
  -6  -4 -10 27955.4 2007.79   5
  -6  -4 -10 29634.5 1988.87   6
  -6   4 -10 30475.5 1917.18   5
  -6  -4 -10 29047.8 1806.79   7
  -6  -4 -10 27840.9 1600.46  13
  -6   4 -10 27591.3 1626.81  13
   6   6 -13 97.8298 251.317  18
   6  -6 -13-92.7950 334.420  16
   6  -6 -12 39388.5 2004.10  12
   6   6 -12 40613.5 2050.53  18
   6  -6 -12 38410.1 2291.11  16
   6  -6 -12 42506.3 2055.50  13
   6  -6 -11 156.455 316.556  13
   6   6 -11 649.640 348.892  13
   6   6 -11 84.7445 391.583  18
   6  -6 -11 179.661 366.452  12
   6   6 -10 7135.90 861.732  13
   6  -6 -10 5745.43 860.693  12
   6   6 -10 7162.28 815.497  12
   6   6 -10 6870.32 972.413  18
   6  -6 -10 7829.96 986.012  13
   6  -6  -9-142.775 388.595  13
   6  -6  -9 58.0944 357.830  12
   6   6  -9 305.753 402.458  18
  -6   6   9 957.064 319.686  19
   6   6  -9 97.9761 277.184  12
  -6   6   8 37828.4 1549.73  19
   6   6  -8 35246.1 2001.39  18
   6   6  -8 35762.6 1781.98  12
   6  -6  -8 35004.2 1798.53  12
   6  -6  -8 34783.6 1778.68  13
   6  -6  -7 314.783 315.232  13
   6  -6  -7 237.711 287.288  12
  -6   6   7-342.160 249.083  19
   6   6  -7 870.644 332.561  17
   6   6  -7 192.162 300.458  12
   6   6  -7-141.804 350.196  18
   6  -6  -6 44806.9 1771.15  12
  -6   6   6 43438.0 1546.13  19
   6   6  -6 44671.8 2024.25  18
   6   6  -6 44205.1 1777.10  17
  -6  -6   6 42776.3 1361.02   9
   6  -6  -6 44199.1 1670.32  13
   6  -6  -5-55.2389 233.746  12
  -6  -6   5 209.906 288.119  11
   6   6  -5 353.848 362.677  18
  -6   6   5-216.421 200.459  21
   6   6  -5-546.976 296.619  17
  -6  -6   5-49.1816 216.181   9
  -6   6   4 16849.2 872.778  21
  -6   6   4 16418.9 822.055   3
  -6  -6   4 15284.0 917.169  11
   6  -6  -4 15480.1 913.649  12
   6   6  -4 18059.8 1194.40  18
   6  -6  -4 14165.8 1398.33   1
  -6  -6   4 14808.1 827.735   8
  -6   6   3 12290.2 1260.26   2
  -6   6   3 12483.5 753.347  21
  -6   6   3 12310.7 684.034   3
  -6  -6   3 10764.3 1244.50   2
   6   6  -3 12141.7 1400.16   2
  -6  -6   3 10678.9 747.675  11
   6  -6  -3 8421.85 994.739   1
  -6   6   2 196400. 2677.81   3
   6  -6  -2 189664. 4053.40   1
   6   6  -1 3061.80 683.059   1
  -6   6   1 2092.08 501.791   2
   6   6  -1 2167.81 689.202   2
   6  -6  -1 2568.19 413.432   1
   6  -6   0 48915.7 1130.21   1
  -6   6   0 50858.3 1943.10   2
  -6  -6   0 55472.2 1714.73  14
   6   6   0 52926.7 2856.23   2
  -6   6   0 54875.9 1510.43  21
   6   6   0 53590.3 2592.65   1
  -6  -6   0 52484.8 1561.02  11
  -6   6  -1 7515.82 587.043  20
  -6   6  -1 7182.01 577.226  21
   6   6   1 7518.90 948.534   1
   6   6   1 7980.10 1204.33   2
  -6  -6  -1 7645.24 717.679  14
  -6   6  -1 6461.66 622.499   5
  -6  -6  -1 7998.52 620.472  15
  -6   6  -1 6699.43 460.659   2
  -6  -6  -1 7257.72 745.612   8
  -6   6  -2 267874. 3298.97  21
  -6   6  -2 266230. 3457.25  20
   6   6   2 250331. 6784.01   2
   6   6   2 282523. 5959.43   1
  -6   6  -2 252535. 3995.74   5
  -6  -6  -2 262274. 3578.68  15
  -6  -6  -2 262165. 4021.92  14
  -6  -6  -2 258758. 3606.28   9
  -6  -6  -2 242121. 3997.37   8
  -6  -6  -3-98.1484 227.090  13
  -6  -6  -3-72.6999 347.429   8
  -6  -6  -3 118.046 306.774   4
  -6   6  -3 357.403 190.830  21
  -6   6  -3 304.605 283.761  20
  -6  -6  -3-78.8125 307.122  14
  -6   6  -3 101.858 267.194   5
  -6   6  -4 10093.0 780.802  20
  -6   6  -4 9779.61 994.090   6
  -6   6  -4 10195.4 981.058   5
  -6  -6  -4 10688.7 815.205  13
  -6  -6  -4 8764.74 900.204   4
  -6  -6  -4 10706.7 923.015   8
  -6  -6  -5 433.549 367.931  13
  -6  -6  -5 98.0888 326.481   4
  -6   6  -5 27.9588 253.599  20
  -6   6  -5 214.641 377.164   5
  -6   6  -5 152.653 336.909   6
  -6   6  -6 111909. 3675.85   6
  -6   6  -6 114820. 3152.96  10
  -6   6  -6 118019. 3608.74   5
  -6   6  -6 118895. 2904.18  20
  -6  -6  -6 113939. 3000.83  13
  -6  -6  -7 1337.08 472.586  13
  -6  -6  -7 735.946 374.769   7
  -6   6  -7 1693.62 545.979  10
  -6   6  -7 1210.88 623.296   5
  -6  -6  -8 2908.66 599.313  13
  -6  -6  -8 3278.04 677.211   7
  -6   6  -8 2842.06 627.525  10
  -6   6  -8 3270.32 732.297   5
  -6  -6  -9-54.7109 319.013  13
  -6   6  -9-225.902 401.457  13
  -6  -6  -9 216.506 312.107   7
  -6   6  -9-793.365 373.852  10
  -6   6  -9-220.130 328.514   5
  -6  -6 -10 25910.9 1842.39   6
  -6  -6 -10 24519.0 1808.65   5
  -6   6 -10 24708.3 1666.59   5
  -6   6 -10 22094.1 1391.69  10
  -6  -6 -10 20675.9 1340.08  15
  -6  -6 -10 21296.7 1514.47   7
  -6  -6 -10 22520.8 1408.80  13
  -6   6 -10 22103.9 1425.41  13
   6  -8 -12 43801.4 2147.53  12
   6   8 -12 40530.0 1989.34  18
   6  -8 -12 43145.3 2367.95  16
   6  -8 -11-129.784 310.064  13
   6   8 -11 663.157 394.029  18
   6  -8 -11 113.934 484.826  16
   6  -8 -10 6450.75 931.608  13
   6   8 -10 7247.73 998.659  18
   6  -8 -10 6390.25 931.954  12
  -6   8  10 6842.48 717.517  19
   6  -8  -9 251.272 439.210  12
  -6   8   9 561.053 332.442  19
   6   8  -9-93.1207 243.912  12
   6   8  -9 88.8750 387.613  18
   6  -8  -8 36210.5 1906.22  12
  -6   8   8 39716.7 1660.83  19
   6   8  -8 38785.3 2113.67  18
   6   8  -8 36011.3 1803.37  12
   6  -8  -8 35430.2 1871.27  13
   6  -8  -7-761.687 389.125  13
   6  -8  -7-265.802 342.614  12
  -6   8   7-202.654 287.439  19
   6   8  -7 23.9856 359.153  18
   6  -8  -6 70003.2 2306.32  12
  -6   8   6 70102.6 2097.43  19
   6   8  -6 67836.0 2539.85  18
  -6  -8   6 69399.0 1892.98   9
   6  -8  -6 65092.7 2201.61  13
  -6   8   5 528.261 263.138  21
  -6  -8   5 504.376 325.645  11
  -6   8   5 550.861 266.116  19
   6   8  -5 1096.00 304.571  17
   6   8  -5 688.291 371.522  18
   6  -8  -5 456.478 308.755  12
  -6   8   4 43054.4 1490.24  21
   6  -8  -4 41639.3 1576.58  12
  -6   8   4 41548.2 1599.87  19
  -6   8   4 44578.5 1328.72   3
  -6  -8   4 40549.0 1532.93  11
   6   8  -4 44473.2 1877.88  18
  -6  -8   4 42092.0 1408.73  14
  -6  -8   4 43655.4 1519.64   8
   6  -8  -3 1211.10 470.429   1
  -6  -8   3 2239.75 439.396   8
  -6   8   3 1602.06 355.434  21
   6  -8  -3 1680.08 345.385  12
   6   8  -3 1398.23 406.931  18
  -6  -8   3 1559.77 351.706  11
  -6   8   3 1784.32 310.854   3
  -6   8   3 1593.48 452.902  19
  -6  -8   3 1942.61 398.210  14
  -6   8   2 172488. 3227.67  19
   6  -8  -2 176187. 4250.43   1
  -6  -8   2 181285. 3007.48  11
  -6   8   2 182585. 2980.43  21
  -6  -8   2 180977. 3258.56   8
  -6   8   2 180344. 2671.05   3
  -6   8   1 67.2473 260.444  21
  -6  -8   1-58.6169 349.310   8
   6  -8  -1 327.889 167.601   1
  -6   8   1 211.666 303.349   2
  -6  -8   1 366.157 227.432  11
  -6  -8   1 275.504 306.507  14
  -6   8   0 40508.7 1901.48   2
  -6  -8   0 42755.9 1510.98  11
  -6   8   0 43679.4 1458.46  21
  -6   8   0 41803.9 1401.97  20
  -6  -8   0 39581.7 1431.95  15
  -6  -8   0 42920.1 1669.66  14
  -6  -8   0 39918.6 1668.84   8
  -6  -8  -1 751.429 374.600   4
  -6  -8  -1 1004.84 470.643   8
  -6   8  -1 783.674 292.079  20
  -6  -8  -1 877.356 322.687  15
  -6  -8  -1 721.829 392.570  14
  -6   8  -1 435.178 295.384   5
  -6   8  -1 776.621 301.140  21
  -6   8  -2 267376. 3723.30  20
   6   8   2 263494. 3714.29  19
  -6   8  -2 262496. 3523.51  21
  -6   8  -2 263602. 4325.47   5
  -6  -8  -2 260580. 3878.51  15
  -6  -8  -2 270832. 4506.71  14
  -6  -8  -2 262232. 4538.44   4
  -6  -8  -2 272004. 3670.93  13
  -6  -8  -2 252302. 4433.36   8
  -6  -8  -3 1127.51 327.803  13
  -6  -8  -3 1272.23 477.709   8
  -6  -8  -3 1590.45 497.115   4
  -6   8  -3 1422.69 373.180  20
  -6  -8  -3 1694.11 424.123  15
  -6   8  -3 1478.04 468.446   5
  -6  -8  -3 1024.17 467.964  14
  -6  -8  -4 7082.66 888.905   4
  -6  -8  -4 7283.55 841.017   8
  -6   8  -4 6756.85 680.837  20
  -6  -8  -4 7965.84 882.107  14
  -6   8  -4 7302.51 874.350   5
  -6  -8  -4 7543.76 787.322  15
  -6  -8  -4 7015.20 712.004  13
  -6  -8  -5 564.930 296.417  13
  -6   8  -5 254.451 304.206  20
  -6  -8  -5 346.436 334.632  15
  -6   8  -5 397.042 337.161   5
  -6   8  -6 96135.0 2738.68  20
  -6   8  -6 100922. 3405.98   5
  -6  -8  -6 94096.6 2800.17  13
  -6  -8  -7-311.530 331.449  13
  -6   8  -7 702.964 390.278  20
  -6  -8  -7 1463.99 531.438   7
  -6  -8  -7 478.383 388.019  15
  -6   8  -7 131.849 376.733  10
  -6   8  -7 1104.52 602.682   5
  -6  -8  -8 4988.82 836.162   7
  -6   8  -8 5607.79 803.480  10
  -6  -8  -8 5999.20 823.708  15
  -6   8  -8 4956.29 845.976   5
  -6  -8  -8 7033.04 827.632  13
  -6  -8  -9 620.754 446.003  13
  -6   8  -9-202.171 357.372  13
  -6  -8  -9 437.201 340.713   7
   6   8   9-61.5541 404.484  19
  -6   8  -9 498.552 350.458  10
  -6  -8  -9 298.427 351.463  15
  -6   8  -9 430.483 310.038   5
  -6  -8 -10 22836.7 1702.77   6
   6   8  10 23101.6 1375.99  19
  -6   8 -10 22395.2 1507.02   5
  -6   8 -10 22873.1 1375.10  10
  -6  -8 -10 19937.1 1299.04  15
  -6  -8 -10 23177.6 1380.38  13
  -6   8 -10 22411.9 1398.97  13
  -6  -8 -10 22143.0 1500.08   7
   6 -10 -12 30560.8 1766.15  12
   6  10 -12 30874.8 1656.79  18
   6 -10 -12 31283.9 1929.38  16
   6 -10 -11 52.2527 420.696  12
   6  10 -11 174.202 364.261  18
   6 -10 -11 1020.06 630.871  16
   6 -10 -10 25367.5 1777.70  12
  -6  10  10 27031.6 1415.95  19
   6  10 -10 22171.7 1646.12  18
   6 -10 -10 24465.1 1947.65  16
   6  10  -9 3796.12 629.171  12
   6 -10  -9 3038.94 691.382  12
  -6  10   9 2556.74 471.616  19
   6  10  -9 3090.69 713.644  18
   6 -10  -8 64389.8 2629.59  12
   6  10  -8 64739.8 2436.35  12
  -6  10   8 66276.1 2249.19  19
   6  10  -8 64944.9 2738.67  18
   6  10  -7 13.7525 385.882  18
   6 -10  -7-161.805 349.715  12
  -6  10   7 184.005 340.295  19
   6 -10  -7-1014.13 980.125  14
  -6  10   6 70842.8 2271.83  19
   6  10  -6 67349.1 2587.51  18
   6 -10  -6 70475.1 2470.62  12
   6 -10  -5 646.950 342.663  12
  -6  10   5 363.963 323.426  19
   6  10  -5 86.2660 307.919  18
  -6 -10   5 159.031 253.875  11
  -6 -10   4 67207.5 2062.56  11
   6 -10  -4 67203.8 2165.79  12
   6  10  -4 67761.0 2376.99  18
  -6  10   4 67316.4 2206.27  19
  -6 -10   4 69234.5 1982.81  14
  -6 -10   3 25.5887 326.836   8
   6 -10  -3 66.7652 273.232  12
  -6  10   3-182.933 363.486  19
   6  10  -3-597.120 350.477  18
  -6 -10   3-157.397 249.072  11
  -6  10   3 146.844 183.270   3
  -6 -10   3-161.200 311.095  14
  -6 -10   2 129639. 3024.03   8
   6 -10  -2 130433. 2720.31  12
  -6  10   2 122840. 2657.80  21
  -6  10   2 126834. 2481.25  20
   6  10  -2 125345. 2985.32  18
  -6  10   2 115162. 2922.58  19
  -6 -10   2 125470. 2662.94  11
  -6 -10   2 129485. 2929.45  14
  -6  10   2 121362. 2291.74   3
  -6 -10   1 803.075 376.137   4
  -6 -10   1 501.823 420.485   8
  -6  10   1 958.357 343.013  21
  -6  10   1 752.816 303.608  20
  -6 -10   1 647.553 279.976  11
  -6 -10   1 963.424 382.871  14
  -6 -10   0 45761.9 1965.87   8
  -6  10   0 50277.5 1628.27  20
  -6 -10   0 46988.8 1677.05  11
  -6 -10   0 47194.6 1911.93  14
  -6 -10   0 44345.9 1842.56   4
  -6 -10  -1 906.137 505.198   8
  -6 -10  -1 973.738 456.985   4
  -6  10  -1 746.832 298.110  20
   6  10   1 1354.01 326.656  19
  -6 -10  -1 699.894 312.128  15
  -6 -10  -1 670.651 436.929  14
  -6 -10  -2 139501. 3614.83   8
   6  10   2 146476. 2909.04  19
  -6  10  -2 147093. 2969.67  20
  -6 -10  -2 142278. 3116.71  15
  -6 -10  -2 145973. 3619.92  14
  -6 -10  -2 143821. 3640.81   4
  -6  10  -3 203.365 252.913  20
   6  10   3 299.765 307.046  19
  -6 -10  -3 54.3569 410.196   4
  -6 -10  -3 3.82596 302.528  15
  -6 -10  -3 236.000 415.869  14
  -6  10  -3-72.4213 342.307   5
  -6 -10  -4 2178.05 600.609  14
  -6 -10  -4 1252.44 423.978  13
  -6 -10  -4 2201.40 616.584   4
  -6  10  -4 1575.61 442.712  20
   6  10   4 1603.87 476.193  19
  -6 -10  -4 1796.56 488.744  15
  -6  10  -4 1954.51 553.584   5
  -6 -10  -5 2.11370 287.282  13
   6  10   5 85.1768 371.047  19
  -6 -10  -5 465.092 434.301  14
  -6  10  -5 158.992 340.792  20
  -6 -10  -5 85.1152 322.468  15
  -6  10  -5 54.1930 367.900   5
   6  10   6 88528.0 2863.30  19
  -6  10  -6 90353.2 3272.80   5
  -6 -10  -6 92465.6 2969.86  15
  -6 -10  -6 87611.7 2766.65  13
  -6  10  -6 87621.5 2696.59  20
  -6 -10  -7 906.722 404.846  13
  -6  10  -7 904.842 436.011  20
   6  10   7 837.700 446.311  19
  -6 -10  -7 895.027 448.949  15
  -6  10  -7 1254.23 466.255  10
  -6  10  -7 1042.44 499.246   5
  -6 -10  -8 12783.3 1208.32   7
   6  10   8 12079.3 1120.64  19
  -6  10  -8 13549.4 1305.10   5
  -6  10  -8 12378.5 1131.40  10
  -6 -10  -8 12482.1 1136.51  15
  -6 -10  -8 11378.9 1065.82  13
  -6 -10  -9 1228.30 439.538  13
  -6  10  -9 264.325 392.193  13
  -6 -10  -9 1544.97 472.057   7
   6  10   9-623.998 374.266  19
  -6 -10  -9 617.700 343.201  15
  -6  10  -9-27.1700 292.629  10
  -6  10  -9 513.100 343.134   5
   6  12 -11 169.154 311.374  18
   6 -12 -11 465.788 429.970  12
   6 -12 -11 35.1873 445.469  16
   6 -12 -10 9632.17 1164.85  12
  -6  12  10 10472.3 904.787  19
   6 -12 -10 11570.9 1323.59  16
   6  12 -10 9867.35 1089.98  18
   6 -12  -9 949.204 519.367  12
  -6  12   9 1011.60 397.963  19
   6 -12  -9-488.945 508.262  16
   6  12  -9 388.318 447.001  18
   6 -12  -8 49281.7 2434.26  12
  -6  12   8 52920.0 2078.68  19
   6  12  -8 55390.3 2543.92  18
   6  12  -7 165.242 406.039  18
   6 -12  -7 437.926 473.813  12
  -6  12   7 391.031 360.830  19
   6 -12  -7 301.438 924.172  14
  -6  12   6 56507.2 2163.75  19
   6 -12  -6 54758.7 2339.46  12
   6  12  -6 54694.0 2378.60  18
   6 -12  -5 913.499 438.391  12
  -6  12   5 1456.74 477.415  19
   6  12  -5 716.730 401.801  18
   6 -12  -4 64441.8 2324.26  12
  -6  12   4 67838.7 1857.18  20
  -6  12   4 65857.9 2343.33  19
   6  12  -4 66914.0 2424.17  18
  -6 -12   4 66654.5 2108.88  14
  -6 -12   4 69785.5 2168.37  11
   6 -12  -3 317.309 304.517  12
  -6  12   3 497.975 234.844  20
   6  12  -3 139.521 262.032  18
  -6 -12   3 431.129 278.797  11
  -6  12   3-191.325 448.894  19
  -6 -12   3 45.3982 329.701  14
   6 -12  -2 116912. 2880.05  12
  -6  12   2 127638. 2648.28  20
  -6  12   2 122298. 2396.58   3
  -6  12   2 114041. 3181.50  19
   6  12  -2 123760. 3057.59  18
  -6 -12   2 115175. 2712.80  11
  -6 -12   2 117412. 3051.06  14
  -6 -12   2 127176. 2935.91   4
  -6 -12   1 513.059 392.971   4
   6 -12  -1 763.253 312.078  12
  -6  12   1 723.459 319.961  20
   6  12  -1 654.885 257.030  18
  -6 -12   1 342.887 265.003  11
  -6 -12   1 328.283 408.653  14
  -6  12   0 33544.3 1446.84  20
  -6 -12   0 34244.4 1518.98  11
  -6 -12   0 36383.4 1839.10  14
  -6 -12   0 31648.8 1694.16   4
  -6 -12  -1 555.369 429.177   4
  -6  12  -1 364.739 283.276  20
   6  12   1 774.140 263.877  19
  -6 -12  -1 713.662 446.545  14
  -6 -12  -2 100797. 3274.93   4
  -6  12  -2 100851. 2609.23  20
  -6 -12  -2 100376. 2820.69  15
  -6 -12  -2 101618. 3248.24  14
   6  12   2 104340. 2591.86  19
  -6  12  -3 288.842 337.874  20
  -6 -12  -3 197.094 460.693   4
   6  12   3 397.062 344.176  19
  -6 -12  -3 460.953 372.229  15
  -6 -12  -3 5.77573 406.950  14
  -6  12  -4 330.182 369.954  20
   6  12   4 951.438 394.327  19
  -6  12  -4 277.121 207.937  18
  -6 -12  -4 782.280 420.086  15
  -6 -12  -4 792.376 560.703  14
   6  12   5 831.541 412.457  19
  -6 -12  -5 1509.18 530.683  15
  -6  12  -5 1290.82 479.486  20
  -6 -12  -5 2134.72 608.565  14
  -6  12  -5 862.550 458.048   5
  -6  12  -6 99800.8 2923.33  20
   6  12   6 98805.1 3013.96  19
  -6  12  -6 104391. 3522.74   5
  -6 -12  -6 100118. 3173.32  15
  -6  12  -7-316.245 309.780  20
   6  12   7 96.0694 424.811  19
  -6 -12  -7 152.862 400.410  15
  -6  12  -7-272.682 354.018  10
  -6  12  -7 237.010 378.912   5
   6  12   8 1055.28 444.238  19
  -6 -12  -8 1602.24 451.622   7
  -6 -12  -8 1993.76 518.138  15
  -6  12  -8 1440.30 432.809  10
   6  12   9 748.246 342.183  19
  -6 -12  -9 1118.32 383.960   7
  -6 -12  -9-2.19966 269.060  15
  -6  12  -9 82.0087 229.281  10
   6 -14 -11-708.557 409.221  12
   6  14 -11 63.3576 255.774  18
   6 -14 -11-589.222 399.610  16
   6 -14 -10 5934.47 887.972  12
  -6  14  10 6844.68 730.768  19
   6  14 -10 6824.32 859.924  18
   6 -14 -10 6116.74 909.977  16
   6  14  -9-38.4973 331.203  18
   6 -14  -9 28.9630 429.556  12
  -6  14   9 709.818 346.611  19
   6 -14  -9-395.665 426.470  16
   6 -14  -8 38127.9 2206.67  12
   6  14  -8 37638.8 2040.74  18
  -6  14   8 37364.7 1775.99  19
   6 -14  -8 36233.3 2051.19  16
   6 -14  -7 127.628 475.743  12
  -6  14   7 761.975 446.251  19
   6  14  -7 1013.93 482.577  18
   6 -14  -7 5.61363 325.495  16
   6 -14  -7 1440.01 884.572  14
  -6 -14   7 600.247 324.161   9
   6 -14  -6 38721.7 2099.25  12
  -6  14   6 38499.3 1869.57  19
   6  14  -6 39821.6 2022.90  18
   6 -14  -6 39490.6 1955.76  16
  -6  14   5 397.972 402.086  19
   6  14  -5-198.418 309.702  18
   6 -14  -5 156.225 438.223  12
   6 -14  -5 153.990 1074.73  14
   6 -14  -4 35789.9 1885.99  12
  -6  14   4 36234.4 1867.04  19
   6  14  -4 36581.2 1831.56  18
  -6 -14   4 35251.5 1637.03  14
   6 -14  -3 724.566 366.353  12
  -6  14   3 280.946 391.435  19
   6  14  -3 1023.29 385.652  18
  -6 -14   3-71.4728 252.985  11
  -6  14   3 286.249 258.928  20
  -6 -14   3 649.990 408.867  14
   6 -14  -2 120981. 3172.60  12
  -6  14   2 117142. 2681.18  20
   6  14  -2 124522. 3169.78  18
  -6 -14   2 116818. 2881.08  11
  -6 -14   2 115448. 3221.99  14
  -6  14   1 102.108 285.265  20
   6  14  -1-230.317 305.361  18
  -6 -14   1 128.188 250.596  11
  -6 -14   1-87.3942 433.871  14
  -6 -14   1 236.095 366.773   4
  -6  14   0 19273.4 1176.96  20
  -6 -14   0 21471.2 1468.33   4
  -6 -14   0 20617.9 1261.23  11
  -6 -14   0 18184.8 1421.37  14
  -6 -14  -1 544.886 480.330   4
   6  14   1 590.170 264.975  19
  -6  14  -1 352.443 345.260  20
  -6 -14  -1 140.144 274.382  11
  -6 -14  -1 266.314 420.680  14
   6  14   2 86327.3 2462.31  19
  -6  14  -2 90014.6 2604.53  20
  -6 -14  -2 87208.7 3181.41  14
  -6  14  -3 284.563 334.722  20
   6  14   3 797.732 365.934  19
  -6 -14  -3 444.148 372.686  15
  -6 -14  -3 6.27737 508.710  14
  -6  14  -4 5876.07 806.443  20
   6  14   4 6380.54 803.205  19
  -6  14  -4 6741.89 736.457  18
  -6 -14  -4 5480.98 790.937  15
  -6 -14  -4 5621.43 948.070  14
   6  14   5-491.066 348.082  19
  -6  14  -5-42.7565 367.207  20
  -6 -14  -5-206.842 341.939  15
  -6 -14  -5 874.397 498.565  14
  -6  14  -6 65148.3 2368.21  20
   6  14   6 64898.4 2393.98  19
  -6 -14  -6 64091.4 2543.38  15
   6  14   7-528.377 380.889  19
  -6 -14  -7 693.347 388.423  15
  -6  14  -7-53.0729 334.779  10
  -6 -14  -8 700.919 333.851   7
   6  14   8-413.870 312.636  19
  -6 -14  -8 288.329 343.939  15
  -6  14  -8 1308.04 421.287  10
   6 -16 -10 4148.15 724.052  12
  -6  16  10 2880.96 443.610  19
   6  16 -10 3430.24 569.719  18
   6 -16 -10 4227.73 665.320  16
   6 -16  -9-441.362 417.474  12
  -6  16   9 939.869 337.170  19
   6  16  -9 301.921 327.343  18
   6 -16  -9 5.17455 269.841  16
   6 -16  -8 35433.1 2096.17  12
  -6  16   8 35582.7 1713.01  19
   6  16  -8 32868.1 1824.09  18
   6 -16  -8 35738.1 1896.35  16
  -6  16   7 348.247 363.943  19
   6  16  -7 550.975 344.819  18
   6 -16  -7 81.5936 446.544  12
   6 -16  -7 587.387 345.914  16
  -6 -16   7 611.393 336.611   9
   6 -16  -6 24123.1 1735.09  12
  -6  16   6 25658.0 1568.25  19
   6  16  -6 25380.7 1632.71  18
   6 -16  -5 716.904 481.829  12
   6  16  -5 535.800 339.979  18
  -6  16   5 462.688 363.987  19
   6 -16  -5 1176.42 1151.03  14
   6 -16  -4 30348.9 1858.17  12
  -6  16   4 32995.7 1854.10  19
   6  16  -4 30572.8 1687.01  18
  -6 -16   4 30603.0 1576.43  14
   6 -16  -4 31956.4 2970.42  14
   6 -16  -3 53.1038 376.511  12
   6  16  -3-111.734 269.159  18
  -6 -16   3 217.736 348.011  14
   6 -16  -3-75.9815 1075.60  14
  -6 -16   2 85439.1 2553.16  11
  -6  16   2 84278.2 2356.72  20
  -6 -16   2 80720.4 2859.97  14
   6 -16  -2 75929.3 4085.30  14
  -6  16   1 109.331 283.194  20
  -6 -16   1 409.131 311.530  11
  -6 -16   1-54.7186 439.759  14
   6 -16  -1-127.397 947.810  14
  -6  16   0 7295.46 782.907  20
  -6 -16   0 6145.84 742.389  11
  -6 -16   0 5477.73 902.851  14
   6 -16   0 6733.17 1305.00  14
  -6  16  -1 738.393 356.526  20
   6  16   1 1423.76 407.578  19
  -6 -16  -1 1440.01 636.026  14
   6 -16   1 853.091 835.392  14
  -6 -16  -1 1198.36 419.614  11
   6  16   2 90160.1 2574.40  19
  -6  16  -2 89910.1 2707.94  20
  -6 -16  -2 86458.1 2782.16  11
  -6 -16  -2 87844.3 3273.95  14
   6 -16   2 83539.0 3685.09  14
  -6  16  -3-22.1167 308.137  20
   6  16   3-250.999 343.865  19
  -6 -16  -3-481.338 392.847  11
  -6 -16  -3-122.957 501.059  14
  -6  16  -4 5198.13 762.439  20
   6  16   4 4155.09 660.724  19
  -6  16  -4 6267.86 722.281  18
  -6 -16  -4 4318.55 846.211  14
  -6  16  -5 373.333 371.116  20
   6  16   5 798.706 424.671  19
  -6  16  -5 376.964 218.983  18
  -6 -16  -5 417.883 401.302  14
   6  16   6 43628.9 1860.65  19
  -6  16  -6 47710.7 1975.61  20
  -6 -16  -6 47020.1 2118.61  15
  -6  16  -6 45483.2 1937.47  10
  -6 -16  -7 1089.02 394.458  15
   6  16   7 1140.91 342.685  19
  -6 -16  -7 1117.23 417.655   7
  -6 -16  -7 698.378 373.298  11
  -6  16  -7 1217.50 377.579  10
   6  18  -9-94.9663 232.528  18
  -6  18   9 315.349 285.774  19
  -6  18   8 25241.8 1374.08  19
   6  18  -8 27561.2 1519.41  18
  -6  18   7-254.259 336.475  19
   6  18  -7 37.1169 266.999  18
   6 -18  -7-272.509 635.241  14
  -6  18   6 24534.3 1517.31  19
   6  18  -6 24236.2 1497.10  18
   6 -18  -6 27208.0 2499.49  14
  -6  18   5 83.3650 361.701  19
   6  18  -5 616.523 346.290  18
   6  18  -4 35996.9 1789.98  18
  -6 -18   4 34778.6 1683.25  14
   6 -18  -4 36466.2 3034.39  14
   6  18  -3 2156.85 502.714  18
  -6 -18   3 1198.06 484.928  14
   6  18  -2 52555.7 2071.21  18
  -6 -18   2 48600.1 2236.74  14
   6 -18  -2 49045.7 3338.57  14
  -6  18   1-60.8759 349.612  20
  -6 -18   1 377.833 474.326  14
   6 -18  -1-155.270 774.300  14
  -6  18   0 10247.3 928.950  20
  -6 -18   0 11198.5 990.076  11
  -6 -18   0 10091.8 1177.44  14
   6 -18   0 10489.8 1573.23  14
  -6  18  -1 519.734 398.222  20
  -6 -18  -1-537.811 294.751  11
  -6 -18  -1-45.7342 497.483  14
  -6  18  -2 47403.6 2024.61  20
   6  18   2 43969.5 1813.43  19
  -6 -18  -2 46016.5 2013.33  11
  -6 -18  -2 43586.9 2309.32  14
  -6  18  -3 2493.57 577.189  20
   6  18   3 2011.99 470.717  19
  -6  18  -3 2448.80 488.031  18
  -6 -18  -3 2174.03 530.703  11
  -6 -18  -3 2703.12 695.891  14
  -6  18  -4 1075.47 417.488  20
   6  18   4 717.482 338.458  19
  -6  18  -4 906.884 336.007  18
  -6 -18  -4 1088.60 474.476  11
  -6 -18  -4 1174.73 550.549  14
   6  18   5 727.440 350.017  19
  -6  18  -5 1013.43 299.637  18
  -6  18  -5 192.721 287.459  20
  -6 -18  -5 174.088 356.843  11
  -6 -18  -6 40071.9 1823.43  11
   6  18   6 36602.2 1550.03  19
  -6  18  -6 38672.4 1625.85  10
   6  20  -7 568.038 272.906  18
   6 -20  -7-375.503 479.941  14
   6  20  -6 22122.4 1327.66  18
   6 -20  -6 25424.6 2102.71  14
  -6 -20   6 22159.3 1219.59   9
   6  20  -5-33.2956 261.450  18
   6 -20  -5 716.672 776.432  14
   6 -20  -4 27376.2 2364.88  14
   6  20  -4 25450.2 1434.13  18
   6  20  -3 1720.17 416.677  18
  -6 -20   3 960.111 385.317  14
   6 -20  -3 1241.88 869.677  14
   6  20  -2 62530.0 2147.74  18
  -6 -20   2 53899.0 2274.45  14
   6 -20  -2 58645.2 3354.04  14
  -6 -20   1 344.563 424.703  14
  -6  20   0 19361.7 1224.87  20
  -6 -20   0 16365.1 1369.89  14
   6 -20   0 15779.7 1702.57  14
  -6  20  -1 980.910 396.491  20
  -6 -20  -1 829.078 474.796  14
   6 -20   1 1737.92 667.518  14
  -6  20  -2 40666.3 1798.60  20
  -6 -20  -2 45112.9 1898.60  11
  -6 -20  -2 39672.8 2090.48  14
  -6  20  -3 114.598 290.726  20
  -6  20  -3-227.102 243.159  18
  -6 -20  -3-38.6590 280.662  11
  -6 -20  -3 241.784 359.830  14
  -6 -20  -4 633.385 354.580  11
  -6  20  -4 326.944 227.508  18
  -6 -20  -4 92.9285 339.538  14
   6  22  -5 660.909 237.845  18
   6 -22  -5-92.3068 501.373  14
  -6 -22   5 296.811 290.055   9
   6  22  -4 17120.5 1057.08  18
   6 -22  -4 20564.1 1768.23  14
   6  22  -3 678.144 219.521  18
  -6 -22   3 88.9711 235.286  14
   6 -22  -3-227.270 573.179  14
  -6 -22   2 43304.2 1846.82  14
   6 -22  -2 39464.0 2390.79  14
  -6 -22   1 79.8969 340.086  14
   6 -22  -1 503.338 541.459  14
  -6 -22   0 10461.1 1030.10  14
   6 -22   0 7791.49 1065.71  14
  -6 -22  -1-49.0012 317.869  14
   6 -22   1 460.764 405.097  14
  -6  22  -2 55600.6 1931.50  18
  -6 -22  -2 55623.9 2207.86  14
  -6 -22  -2 57152.0 2013.94   9
   7   1 -13 32590.8 1739.77  18
   7  -1 -13 36434.1 1889.26  16
   7  -1 -12 214.596 304.493  12
   7  -1 -12-181.920 358.473  18
   7   1 -12-277.364 413.751  18
   7   1 -11 8384.35 944.146  12
   7   1 -11 10894.4 1212.29  18
   7  -1 -11 10092.1 1136.03  18
   7  -1 -11 9497.37 1007.88  12
   7  -1 -10-218.277 334.105  12
   7   1 -10 17.6377 273.502  12
   7  -1 -10 675.349 472.675  18
   7   1 -10 168.906 449.207  18
   7   1  -9 83120.7 3108.14  18
   7  -1  -9 81119.7 3007.00  18
   7  -1  -9 77430.2 2719.40  12
   7   1  -9 83441.6 2792.52  12
   7   1  -8-9.12369 303.506  12
   7  -1  -8 128.698 348.938  12
   7  -1  -8 130.429 325.023  18
   7   1  -8 869.552 424.499  18
   7  -1  -7 67648.2 2310.55  12
   7   1  -7 66483.5 2331.97  12
   7   1  -7 66128.3 2478.74  18
   7  -1  -7 72985.7 2517.30  18
   7  -1  -6 1719.55 455.041  12
   7  -1  -6 1211.46 391.978  18
   7   1  -6 1607.30 482.912  18
   7  -1  -6 1333.78 447.874  17
   7   1  -6 1584.08 469.126  17
   7   1  -6 1431.40 458.299  12
   7   1  -5 208409. 3737.04  12
   7  -1  -5 223069. 3694.56  18
   7  -1  -5 216943. 3965.30  17
   7   1  -5 219072. 3963.54  17
   7  -1  -5 213851. 3643.62  12
   7   1  -5 217415. 3804.03  18
   7  -1  -4-303.094 410.041   2
   7   1  -4 91.7457 449.473   2
   7  -1  -4 242.465 276.042  12
  -7  -1   4 43.3080 223.515  11
  -7  -1   4-24.0297 161.845   2
   7  -1  -4-35.4710 331.356  17
   7   1  -4 30.4820 283.918  17
  -7   1   4 258.643 298.014   2
  -7   1   4 52.6490 249.186   3
   7   1  -3 180403. 5200.24   2
  -7  -1   3 195884. 4834.04   2
  -7   1   3 193288. 4762.10   2
  -7   1   3 187553. 2807.99   3
  -7  -1   3 180915. 2852.93   3
   7  -1  -3 196607. 5150.40   2
  -7   1   2 729.914 317.021   2
   7   1  -2 264.999 379.095   2
  -7   1   2 113.946 192.336   3
  -7  -1   2-59.7787 227.390   3
  -7  -1   2-330.516 269.089   2
   7   1  -1 59882.3 2678.39   2
  -7   1   1 62340.4 2366.00   2
  -7   1   1 60729.9 1554.63   3
  -7  -1   1 61228.3 2442.85   2
  -7  -1   1 68646.4 1612.92   3
   7  -1  -1 64095.7 2483.76   2
  -7  -1   0 454.899 312.364   2
  -7   1   0-138.147 255.105   3
  -7  -1   0-78.1352 231.476   3
   7   1   0 94.0962 296.517   2
   7   1   0 385.567 229.464   1
   7  -1   0 153.363 215.080   2
  -7   1   0-42.2386 165.145   2
   7   1   1 60281.2 2360.11   2
   7   1   1 60679.1 1995.84   1
  -7   1  -1 60375.2 1663.79   6
  -7  -1  -1 58701.1 1508.38   5
  -7   1  -1 60061.0 1596.19   5
   7  -1   1 58638.4 1350.23   1
  -7  -1  -1 57610.4 1517.28   3
  -7   1  -2 817.925 306.122   6
  -7  -1  -2 597.577 252.613   5
  -7   1  -2 291.747 284.250   5
  -7   1  -3 29663.0 1357.28   7
  -7   1  -3 31291.3 1521.50   6
  -7   1  -3 30417.5 1403.47   5
  -7  -1  -3 28354.0 1125.59  13
  -7   1  -4 313.444 260.435   4
  -7  -1  -4 280.614 223.670   4
  -7  -1  -4 751.369 326.131  13
  -7   1  -4 568.526 274.069  13
  -7   1  -4-18.0205 267.554   6
  -7   1  -4 277.201 259.174   7
  -7   1  -4 379.909 342.403   5
  -7   1  -5 139924. 3134.40  13
  -7  -1  -5 129253. 3330.71   7
  -7   1  -5 128453. 3352.93   7
  -7   1  -5 122440. 3553.40   6
  -7   1  -5 124558. 3380.17   5
  -7   1  -5 132222. 3057.81  10
  -7  -1  -5 148363. 3078.57   4
  -7  -1  -5 131932. 2979.34  13
  -7  -1  -6 114.250 300.444  13
  -7   1  -6-32.5702 332.428  13
  -7  -1  -6-497.812 389.661   7
  -7   1  -6-59.0530 346.808   7
  -7   1  -6-34.0726 361.114   6
  -7  -1  -6-68.8558 382.797   6
  -7   1  -6-30.5489 350.511   5
  -7   1  -6 657.341 350.945  10
  -7  -1  -7 831.619 472.075  13
  -7   1  -7 813.145 446.997  13
  -7   1  -7 356.512 408.287   6
  -7   1  -7 397.213 392.720   7
  -7  -1  -7 437.146 485.047   6
  -7  -1  -7-154.369 396.258   5
  -7   1  -7 283.881 387.693   5
  -7  -1  -7 233.071 410.176   7
  -7   1  -7 947.849 405.544  10
  -7  -1  -8 1296.05 514.674   7
  -7  -1  -8 1393.83 544.747  13
  -7   1  -8 2106.99 565.960  13
  -7   1  -8 1226.11 537.013   7
  -7  -1  -8 1842.19 654.028   6
  -7   1  -8 2068.43 678.508   6
  -7  -1  -8 1773.87 629.940   5
  -7   1  -8 1434.01 577.948   5
  -7   1  -8 1355.76 456.453  10
  -7  -1  -9 83840.5 3176.21   7
  -7  -1  -9 82606.6 3409.02   6
  -7   1  -9 84287.0 3377.78   6
  -7  -1  -9 81967.2 3354.12   5
  -7   1  -9 83399.1 3324.87   5
  -7  -1  -9 78321.9 2735.24  13
  -7   1  -9 78568.2 2757.49  13
  -7  -1 -10-924.138 378.332  13
  -7   1 -10 183.493 299.258  13
  -7  -1 -10 811.698 441.868   6
  -7   1 -10-135.358 337.943   6
  -7  -1 -10-392.212 384.097   5
  -7   1 -10 442.544 307.630   5
   7   3 -13 32479.4 1729.76  18
   7  -3 -13 31765.6 1822.46  16
   7  -3 -12-454.509 315.431  12
   7   3 -12-276.107 290.185  18
   7  -3 -11 4974.96 772.700  12
   7  -3 -11 5929.49 899.118  18
   7   3 -11 6658.85 964.176  18
   7   3 -11 6432.67 809.812  12
   7  -3 -10-38.4632 368.775  18
   7  -3 -10-547.570 410.764  12
   7   3 -10 181.842 325.197  12
   7   3 -10-9.56300 410.919  18
   7  -3  -9 57698.8 2367.98  12
   7   3  -9 59256.6 2368.32  12
   7  -3  -9 59139.2 2532.81  18
   7   3  -9 62834.0 2750.35  18
   7  -3  -8 228.148 368.763  12
   7   3  -8 351.103 325.220  12
   7   3  -8 494.394 472.051  18
   7  -3  -8 7.38767 329.109  18
   7  -3  -7 49418.5 1987.75  12
   7   3  -7 47599.3 2182.74  18
   7  -3  -7 51441.4 2077.36  18
   7   3  -7 47526.4 2018.54  12
   7   3  -7 50051.5 2075.12  17
   7   3  -6 50.5412 332.433  12
   7  -3  -6 277.219 289.535  18
   7   3  -6 244.848 339.157  18
   7  -3  -6 44.2300 234.299  12
   7   3  -6-80.4636 310.369  17
   7  -3  -5 170266. 3183.72  12
   7  -3  -5 169448. 3176.65  18
   7   3  -5 156284. 3446.60  18
   7   3  -5 164572. 3460.98  17
   7  -3  -5 168335. 3531.17  17
  -7  -3   5 178290. 2704.48   9
   7  -3  -4 12815.4 1419.07   1
   7   3  -4 14840.5 1671.90   2
  -7   3   4 16528.8 1506.91   2
  -7  -3   4 15842.9 1473.14   2
   7  -3  -4 13955.6 857.954  18
  -7  -3   4 14920.6 917.877  11
  -7   3   4 13961.8 820.455   3
   7  -3  -4 14234.0 881.304  12
   7  -3  -4 13817.5 996.266  17
   7  -3  -3 181059. 4618.10   1
   7   3  -3 189209. 5584.08   2
  -7   3   3 186419. 4768.20   2
  -7  -3   3 188737. 4905.39   2
  -7   3   3 181101. 2700.63   3
   7  -3  -2-438.708 308.755   1
  -7   3   2 92.6221 172.821   3
   7   3  -2 194.061 298.443   2
  -7   3   2 241.010 286.049   2
  -7  -3   2 123.726 281.298   3
  -7  -3   2 31.2567 326.441   2
   7  -3  -1 64986.2 2031.76   1
  -7  -3   1 65380.4 2697.06   2
  -7   3   1 66741.0 2472.13   2
  -7  -3   1 68424.4 1681.01   3
  -7   3   1 66556.4 1620.17   3
   7   3  -1 69237.8 3152.62   2
  -7   3   0 2921.77 395.901   5
   7   3   0 2184.58 524.360   1
  -7  -3   0 3371.53 399.983   3
   7   3   0 3033.61 738.306   2
   7  -3   0 3297.17 318.523   1
  -7   3   0 2956.75 458.292   2
   7   3   1 68870.0 3068.11   2
  -7  -3  -1 81192.3 1741.71   3
  -7   3  -1 75774.0 1934.62   6
   7   3   1 70668.1 2571.93   1
  -7  -3  -1 76250.8 1863.43  11
  -7   3  -1 71838.3 1878.72   5
  -7   3  -2 442.754 234.672   7
   7   3   2 1217.55 374.186   1
  -7   3  -2 861.789 337.526   6
  -7   3  -2 1140.07 285.936  21
  -7  -3  -2 1027.32 251.129   3
  -7   3  -2 1207.44 362.842   5
  -7  -3  -2 678.870 224.700  15
   7   3   2 1696.79 496.255   2
  -7   3  -2 1121.23 304.963  20
  -7   3  -3 34606.3 1482.69   7
  -7   3  -3 36827.6 1308.06  20
  -7  -3  -3 34930.8 1230.24   3
  -7   3  -3 33865.2 1619.22   6
  -7   3  -3 34929.4 1564.56   5
  -7  -3  -3 32977.4 1233.68  13
  -7  -3  -4 683.602 345.187   8
  -7  -3  -4 1341.62 345.625  13
  -7  -3  -4 776.944 361.340   4
  -7   3  -4 201.744 210.034  20
  -7   3  -4 545.344 326.847   7
  -7   3  -4 416.247 360.807   6
  -7   3  -4 625.114 367.862   5
  -7   3  -5 106849. 3117.22   7
  -7   3  -5 99220.6 3240.80   6
  -7   3  -5 96697.7 3039.61   5
  -7   3  -5 105480. 2823.67  10
  -7  -3  -5 110036. 2698.09  13
  -7  -3  -5 107468. 2832.43   4
  -7  -3  -6 159.052 323.506  13
  -7   3  -6-9.21168 293.586  13
  -7  -3  -6 44.3555 386.643   7
  -7   3  -6-243.282 392.687   6
  -7   3  -6 13.9542 309.166   7
  -7   3  -6 582.164 464.381   5
  -7   3  -6 275.996 320.333  10
  -7  -3  -7 726.697 425.276   7
  -7  -3  -7 967.275 387.650  13
  -7   3  -7-333.416 387.128  13
  -7   3  -7-3.13533 327.114   7
  -7   3  -7 220.279 459.362   6
  -7   3  -7 449.484 385.256   5
  -7   3  -7 66.9546 341.402  10
  -7  -3  -8-313.680 321.660  13
  -7   3  -8-115.366 333.826  13
  -7  -3  -8 820.367 475.965   7
  -7  -3  -8-434.423 499.236   6
  -7   3  -8-445.082 514.132   6
  -7  -3  -8-881.190 540.568   5
  -7   3  -8-354.060 457.467   5
  -7   3  -8-33.6188 317.077  10
  -7  -3  -9 51563.1 2469.94   7
  -7  -3  -9 53658.9 2731.37   5
  -7  -3  -9 53321.4 2769.29   6
  -7   3  -9 53860.5 2693.47   6
  -7   3  -9 54920.2 2658.32   5
  -7   3  -9 54726.6 2268.51  10
  -7  -3  -9 53164.0 2222.26  13
  -7   3  -9 50749.1 2232.80  13
  -7  -3 -10 174.716 252.016  13
  -7   3 -10-800.023 395.745  13
  -7  -3 -10-67.2222 219.383   7
  -7  -3 -10 407.639 458.997   6
  -7  -3 -10 398.397 361.658   5
  -7  -3 -10 212.268 246.344  15
  -7   3 -10 1049.84 441.428   5
   7   5 -13 34113.1 1725.60  18
   7  -5 -13 36700.6 1967.63  16
   7  -5 -12 718.654 446.286  12
   7   5 -12 1148.66 471.166  18
   7   5 -11 3286.17 764.932  18
   7  -5 -11 3898.89 686.029  12
   7   5 -11 3920.00 614.159  12
   7  -5 -10 901.404 484.623  12
   7   5 -10 1673.55 460.937  12
   7   5 -10 946.188 529.988  18
   7   5  -9 48793.5 2459.30  18
   7   5  -9 45626.0 2076.03  12
   7  -5  -9 46551.2 2180.85  12
   7  -5  -8-80.1306 396.470  12
   7   5  -8 97.5560 294.979  12
   7   5  -8 73.1685 424.875  18
   7  -5  -8-80.0812 331.578  18
   7  -5  -7 21050.0 1327.67  12
   7   5  -7 18645.1 1323.19  12
   7  -5  -7 19791.6 1310.30  18
   7   5  -7 22039.5 1534.83  18
   7   5  -7 20146.1 1301.59  17
  -7   5   6 545.985 224.668  21
   7   5  -6-36.7120 293.317  18
   7  -5  -6 169.647 272.869  12
   7  -5  -6 38.8326 262.586  18
   7   5  -6 188.942 278.459  17
  -7  -5   6-258.882 222.492   9
  -7   5   5 55379.1 1595.80  21
   7  -5  -5 53838.1 1813.17  12
  -7  -5   5 52487.5 1794.87  11
   7   5  -5 53096.2 1995.10  17
  -7  -5   5 55823.1 1613.84   9
   7   5  -5 52350.2 2107.28  18
  -7   5   4 2848.30 405.001  21
   7  -5  -4 3420.94 474.631  12
   7  -5  -4 2872.27 661.502   1
  -7   5   4 3060.59 436.445   3
   7   5  -4 3170.24 564.175  18
  -7  -5   4 3318.99 477.328  11
   7  -5  -4 3297.60 531.035  17
  -7  -5   4 2872.59 437.063   9
  -7   5   3 313986. 6373.60   2
   7   5  -3 309581. 7453.01   2
  -7   5   3 301038. 3461.07   3
  -7  -5   3 311894. 6653.34   2
  -7  -5   3 295725. 3911.22  11
  -7   5   3 299737. 3628.91  21
  -7  -5   3 302801. 3766.35   9
  -7   5   2 6804.38 909.365   2
  -7   5   2 7406.93 616.571  21
  -7  -5   2 6924.36 621.625  11
  -7  -5   2 7141.50 1022.21   2
  -7   5   2 5764.37 528.505   3
   7   5  -2 6940.61 1108.51   2
   7  -5  -2 7032.42 782.057   1
  -7  -5   2 7116.95 616.304   9
  -7   5   1 98822.8 3105.35   2
   7   5  -1 100290. 4067.23   2
  -7   5   1 100362. 2104.11  21
  -7  -5   1 99207.7 2168.91  11
   7  -5  -1 101808. 2389.25   1
  -7  -5   1 102263. 2268.63  14
  -7  -5   1 103316. 2226.35   9
   7   5   0 857.938 399.589   1
  -7  -5   0 442.869 223.824  11
  -7  -5   0 361.102 192.501  15
  -7   5   0 935.777 269.912   2
   7   5   0-163.277 386.443   2
  -7  -5   0 557.775 311.185  14
  -7  -5   0 530.981 250.305   3
  -7   5   0 914.367 277.959   5
  -7  -5   0 632.267 310.943   9
  -7   5   0 753.746 279.453  21
  -7   5  -1 144349. 2522.28  21
  -7   5  -1 144364. 2502.03  20
   7   5   1 141136. 4135.65   1
   7   5   1 139352. 4959.92   2
  -7  -5  -1 140035. 2321.98   3
  -7   5  -1 131965. 2707.83   5
  -7  -5  -1 143026. 2548.25  15
  -7  -5  -1 137255. 2797.63  14
  -7  -5  -1 146471. 2704.16   9
  -7   5  -2 1105.04 274.788  21
   7   5   2 1301.78 556.841   1
  -7   5  -2 826.353 293.702  20
  -7  -5  -2 1142.30 316.779  15
  -7   5  -2 1607.79 399.740   5
   7   5   2 2458.00 718.476   2
  -7  -5  -2 1326.91 327.563   9
  -7   5  -3 36239.6 1239.58  21
  -7   5  -3 34539.0 1684.67   6
  -7   5  -3 38860.0 1579.62   7
  -7   5  -3 37557.5 1699.18   5
  -7   5  -3 38742.3 1420.89  20
  -7  -5  -3 37185.8 1461.52  15
  -7  -5  -3 35644.0 1649.47   4
  -7  -5  -3 36090.4 1620.40   8
  -7  -5  -3 38516.5 1372.70  13
  -7  -5  -4 363.865 281.221  13
  -7  -5  -4 15.1086 334.792   8
  -7  -5  -4 117.431 302.360   4
  -7   5  -4 245.191 246.037  20
  -7   5  -4 339.511 303.621   7
  -7   5  -4-394.105 355.400   6
  -7   5  -4-77.0189 339.608   5
  -7  -5  -5 97418.5 2903.13   4
  -7   5  -5 102578. 3108.31   7
  -7   5  -5 101104. 2517.86  20
  -7   5  -5 100775. 3306.76   6
  -7   5  -5 99602.1 3148.94   5
  -7  -5  -5 99395.1 2591.39  13
  -7  -5  -6-34.9098 347.176  13
  -7  -5  -6 251.137 347.520   7
  -7   5  -6-85.8154 459.963   6
  -7   5  -6-116.219 394.605   5
  -7   5  -6 178.229 320.132  10
  -7  -5  -7 2445.04 548.104  13
  -7   5  -7 2438.61 669.044   6
  -7  -5  -7 2093.20 571.351   7
  -7   5  -7 1779.34 634.119   5
  -7   5  -7 2723.12 611.242  10
  -7  -5  -8 202.480 312.736  13
  -7   5  -8 324.649 390.068  13
  -7   5  -8 38.7710 314.709  10
  -7   5  -8 349.173 432.249   5
  -7  -5  -8 234.874 405.948   7
  -7  -5  -9 47949.6 2638.89   6
  -7  -5  -9 43024.1 2217.48   7
  -7  -5  -9 46446.3 2516.43   5
  -7   5  -9 43262.3 2302.21   5
  -7   5  -9 43195.8 2000.26  10
  -7  -5  -9 39203.5 1837.28  15
  -7  -5  -9 43565.1 1975.69  13
  -7   5  -9 38915.0 1961.02  13
  -7  -5 -10 1042.74 368.813  13
  -7   5 -10 718.584 355.706  13
  -7  -5 -10 614.328 332.251   7
  -7  -5 -10 1398.61 534.369   6
  -7  -5 -10 1380.32 516.983   5
  -7  -5 -10-40.2292 188.702  15
  -7   5 -10 1096.33 425.514   5
   7  -7 -13 37087.9 1758.13  12
   7   7 -13 35198.9 1693.94  18
   7  -7 -13 37555.5 1959.71  16
   7   7 -12 825.632 406.472  18
   7  -7 -12 160.488 271.449  12
   7  -7 -12-33.7822 479.731  16
   7   7 -11 3404.32 743.272  18
   7  -7 -11 3269.36 679.495  12
   7  -7 -10 218.473 434.415  12
   7   7 -10-100.099 258.686  12
   7   7 -10-505.203 485.123  18
   7   7  -9 43224.1 2026.25  12
   7   7  -9 44731.5 2372.79  18
   7  -7  -9 40289.0 2098.84  12
   7   7  -8-35.9788 405.265  18
   7  -7  -8-472.783 388.401  12
   7   7  -8-474.513 377.710  12
   7   7  -7 25413.7 1693.95  18
   7   7  -7 27662.8 1485.86  17
   7  -7  -7 27108.5 1546.78  12
  -7   7   6 162.248 222.999  21
   7  -7  -6 951.517 337.119  12
   7   7  -6 105.598 343.419  18
   7   7  -6 536.733 317.530  17
  -7  -7   6 984.647 319.034   9
   7  -7  -5 139537. 3016.33  12
  -7   7   5 137032. 2758.42  19
  -7  -7   5 138760. 2994.75  11
   7   7  -5 148069. 3696.50  18
  -7   7   5 149648. 2665.93   3
   7   7  -5 143988. 3255.86  17
  -7  -7   5 145788. 2762.57   9
  -7   7   5 148673. 2768.29  21
  -7  -7   5 143731. 2636.97   8
  -7  -7   4 2609.39 451.436   8
   7  -7  -4 2625.63 423.742  12
  -7   7   4 2261.95 396.959  21
   7   7  -4 3073.46 600.037  18
  -7  -7   4 2642.65 459.177  11
  -7   7   4 2320.17 404.223   3
   7  -7  -3 93304.8 2166.93  12
  -7   7   3 88066.4 3566.80   2
  -7   7   3 89446.3 2131.24  21
  -7  -7   3 85905.3 2218.66  11
  -7   7   3 87942.0 1937.58   3
   7   7  -3 89661.0 2627.12  18
   7  -7  -3 85927.4 3233.08   1
  -7  -7   3 91745.2 2172.75  14
  -7  -7   3 90831.5 2249.02   8
  -7  -7   2 1437.38 403.801   8
   7  -7  -2 1391.73 437.865   1
  -7   7   2 1564.49 352.747  21
  -7  -7   2 1284.78 338.680  11
  -7   7   2 633.991 297.346   2
  -7   7   2 1530.24 346.599   3
  -7  -7   2 1737.11 405.121  14
  -7   7   1 39161.5 2053.61   2
  -7   7   1 38914.8 1397.93  21
  -7  -7   1 37002.1 1411.04  11
  -7  -7   1 38928.9 1516.50  14
  -7  -7   1 36995.4 1530.13   8
  -7  -7   0 292.323 346.331   8
  -7   7   0 52.4237 242.472  21
  -7   7   0-17.1887 239.137  20
  -7  -7   0-25.8462 214.157  11
  -7  -7   0-163.895 257.320  15
  -7  -7   0 14.3919 326.987  14
  -7   7  -1 186395. 3026.14  21
  -7   7  -1 191953. 3100.54  20
  -7   7  -1 182417. 3441.34   5
  -7  -7  -1 187190. 3165.07  15
  -7  -7  -1 189122. 3542.88  14
  -7  -7  -1 185403. 3330.35   9
  -7  -7  -1 182958. 3629.16   8
  -7  -7  -2-765.849 265.385  13
  -7  -7  -2-50.1519 404.202   8
  -7  -7  -2-127.427 388.692   4
  -7   7  -2 20.2717 224.548  21
  -7   7  -2 197.899 234.227  20
  -7  -7  -2 24.2895 237.617  15
  -7  -7  -2 126.418 348.085  14
  -7   7  -2 126.820 240.817   5
  -7  -7  -2-402.490 295.893   9
  -7   7  -3 25347.2 1213.89  20
  -7   7  -3 28054.3 1170.30  21
  -7   7  -3 24771.9 1456.14   5
  -7  -7  -3 26110.1 1308.02  15
  -7  -7  -3 25301.5 1434.14  14
  -7  -7  -3 27799.2 1574.46   4
  -7  -7  -3 26964.9 1226.29  13
  -7  -7  -3 23873.7 1429.16   8
  -7  -7  -4 983.847 362.872  13
  -7  -7  -4 509.531 389.206   8
  -7   7  -4 686.895 313.777  20
  -7  -7  -4 1000.47 449.250   4
  -7  -7  -4 421.236 286.248  15
  -7   7  -4 239.953 379.296   5
  -7  -7  -5 89188.3 2969.80   4
  -7   7  -5 89924.6 2507.22  20
  -7   7  -5 89855.1 3104.46   5
  -7  -7  -5 89384.8 2671.69  15
  -7  -7  -5 91425.6 2578.35  13
  -7  -7  -6 110.556 312.534  13
  -7   7  -6 250.424 297.638  20
  -7  -7  -6-20.5414 308.735  15
  -7   7  -6-267.378 395.097   5
  -7   7  -6 90.4663 363.844  10
  -7  -7  -7 1259.97 446.234  13
  -7  -7  -7 734.987 456.767   7
  -7  -7  -7 1111.54 436.796  15
  -7   7  -7 649.520 372.812  10
  -7   7  -7 780.188 472.450   5
  -7  -7  -8-198.230 312.501  13
  -7   7  -8 161.265 359.604  13
  -7  -7  -8-23.9913 310.416   7
  -7  -7  -8 297.358 310.481  15
  -7   7  -8 314.252 329.088  10
  -7   7  -8 137.035 344.508   5
  -7   7  -9 43376.1 2042.93  13
  -7  -7  -9 47426.5 2289.47   7
  -7  -7  -9 46452.5 2445.10   5
  -7  -7  -9 50674.3 2668.42   6
  -7   7  -9 47937.8 2343.39   5
  -7   7  -9 45949.8 2029.27  10
  -7  -7  -9 42671.1 1937.17  15
  -7  -7  -9 46477.2 1992.72  13
   7   9 -12 605.264 377.138  18
   7  -9 -12 211.780 315.487  12
   7  -9 -12 330.601 377.450  16
   7  -9 -11 10415.2 1140.11  12
   7   9 -11 10812.8 1157.25  18
   7  -9 -11 11687.5 1358.18  16
   7  -9 -10 725.011 458.480  12
   7   9 -10 919.735 377.650  12
   7   9 -10 788.250 474.959  18
   7   9  -9 49180.3 2146.71  12
   7  -9  -9 44691.3 2272.98  12
   7   9  -9 49071.7 2478.78  18
  -7   9   8-5.33276 222.115  19
   7   9  -8 550.876 410.949  12
   7  -9  -8 299.379 374.346  12
   7   9  -8 188.056 448.834  18
  -7   9   7 26042.0 1329.67  19
   7   9  -7 23296.7 1651.65  18
   7  -9  -7 22307.3 1476.49  12
   7  -9  -6 392.785 378.154  12
  -7   9   6 293.103 333.243  19
   7   9  -6 679.988 483.478  18
   7   9  -6 417.746 255.141  17
  -7  -9   6 601.008 301.609   9
  -7  -9   5 63241.5 1893.00   8
  -7   9   5 61723.0 1927.84  21
  -7   9   5 63861.8 2061.77  19
  -7  -9   5 62575.2 2082.09  11
   7   9  -5 58837.8 2392.01  18
   7   9  -5 62841.4 2154.16  17
   7  -9  -5 61647.8 2134.09  12
  -7  -9   4 759.039 343.374   8
  -7   9   4 91.8169 293.805  19
   7   9  -4 220.091 314.710  18
  -7  -9   4 731.773 303.367  11
   7  -9  -4 10.1568 256.636  12
  -7   9   4 508.325 319.940  21
  -7   9   4 114.980 212.961   3
  -7  -9   4 23.0648 295.750  14
   7  -9  -3 128579. 2743.46  12
  -7   9   3 132562. 2423.69   3
   7   9  -3 130066. 3313.17  18
  -7  -9   3 123449. 2775.84  11
  -7   9   3 129436. 2744.16  21
  -7  -9   3 131720. 2801.75  14
  -7  -9   3 127616. 2864.13   8
   7  -9  -2 77.9505 191.879  12
  -7  -9   2-79.4680 317.693   8
  -7   9   2 23.5908 253.768  21
  -7   9   2-53.9825 224.963   3
  -7  -9   2-32.6813 228.183  11
  -7  -9   2-49.3748 275.405  14
  -7   9   1 42030.9 1495.29  20
  -7   9   1 40546.2 1536.65  21
  -7  -9   1 40670.0 1569.15  11
  -7  -9   1 41243.8 1690.86  14
  -7  -9   1 41205.9 1759.40   8
  -7  -9   0 305.719 365.837   8
  -7   9   0 354.652 271.633  21
  -7   9   0 199.579 249.614  20
  -7  -9   0 127.690 236.557  11
  -7  -9   0 380.092 367.817  14
  -7   9  -1 115193. 2570.57  20
  -7   9  -1 115473. 2558.08  21
  -7  -9  -1 113954. 2687.39  15
  -7  -9  -1 117100. 3032.83  14
  -7  -9  -1 119926. 3140.54   4
  -7  -9  -1 115934. 3143.58   8
  -7  -9  -2 1659.52 582.180   8
  -7  -9  -2 1720.64 518.481   4
  -7   9  -2 1476.11 393.812  20
   7   9   2 1022.88 337.420  19
  -7  -9  -2 1482.51 407.948  15
  -7  -9  -2 1401.93 480.707  14
  -7   9  -2 1184.88 403.389   5
  -7  -9  -2 1873.59 484.204   9
  -7  -9  -3 3616.12 524.598  13
  -7  -9  -3 3148.46 690.294   8
  -7  -9  -3 3133.29 667.112   4
  -7   9  -3 3773.66 542.866  20
   7   9   3 3436.29 542.974  19
  -7  -9  -3 4046.33 615.053  15
  -7  -9  -3 3295.49 663.346  14
  -7   9  -3 3237.15 624.025   5
  -7  -9  -4 115.792 319.284  13
  -7  -9  -4 95.4503 411.613   4
  -7  -9  -4-105.342 304.511  15
  -7  -9  -4 551.620 420.173  14
  -7   9  -4-388.552 422.077   5
  -7   9  -4 217.858 278.383  20
  -7   9  -5 93242.3 2656.80  20
  -7   9  -5 97357.6 3348.60   5
  -7  -9  -5 94759.5 2891.53  15
  -7  -9  -5 94100.9 2706.16  13
  -7  -9  -6-589.074 329.723  13
  -7   9  -6-225.995 330.036  20
  -7  -9  -6 70.8829 334.184  15
  -7   9  -6 492.526 381.164   5
  -7  -9  -7-839.908 392.864  13
  -7   9  -7 268.248 338.471  20
   7   9   7 209.261 395.871  19
  -7  -9  -7 293.902 312.663   7
  -7  -9  -7-42.7547 285.750  15
  -7   9  -7 155.036 371.027  10
  -7   9  -7-6.32509 493.807   5
  -7   9  -8-9.71972 276.184  10
  -7  -9  -8 132.772 274.900  13
  -7  -9  -8-98.9534 301.279   7
   7   9   8-550.824 401.518  19
  -7  -9  -8 594.382 359.597  15
  -7   9  -8 164.371 295.356   5
  -7   9  -9 42153.5 1930.75  13
  -7  -9  -9 48548.9 2238.29   7
   7   9   9 44862.0 1929.59  19
  -7   9  -9 46470.6 2207.90   5
  -7   9  -9 44174.3 1942.70  10
  -7  -9  -9 42574.6 1905.61  15
  -7  -9  -9 43104.0 1864.05  13
   7  11 -12 96.1741 244.040  18
   7 -11 -12 15.5292 306.188  12
   7 -11 -12 510.543 445.047  16
   7 -11 -11 6076.89 915.731  12
   7  11 -11 8006.56 950.391  18
   7 -11 -11 7814.48 1086.34  16
   7  11 -10 339.384 373.749  18
   7 -11 -10 881.239 495.635  12
   7 -11 -10 400.195 428.214  16
   7 -11  -9 37668.1 2131.28  12
  -7  11   9 43240.4 1766.39  19
   7  11  -9 42141.7 2253.98  18
   7  11  -9 44322.6 2006.57  12
   7 -11  -8 34.7364 384.401  12
  -7  11   8 815.957 325.050  19
   7  11  -8 244.441 488.776  18
   7 -11  -7 42178.1 2099.91  12
  -7  11   7 42011.7 1792.29  19
   7  11  -7 43781.1 2226.00  18
   7 -11  -7 49513.9 3471.37  14
  -7 -11   7 44048.2 1651.69   9
  -7  11   6 11.7688 327.214  19
   7  11  -6 240.437 398.997  18
   7 -11  -6 62.3695 344.859  12
  -7  11   5 102106. 2805.86  19
  -7 -11   5 101352. 2716.67  11
   7 -11  -5 97089.4 2869.19  12
   7  11  -5 97733.7 3138.60  18
   7 -11  -4 350.903 315.841  12
  -7  11   4-77.9865 339.504  19
  -7  11   4 117.506 252.803  20
   7  11  -4-369.676 357.073  18
  -7 -11   4 138.898 284.919  11
  -7 -11   4-28.3880 276.446  14
  -7 -11   3 93938.5 2649.03   8
   7 -11  -3 92506.9 2556.69  12
  -7  11   3 93195.1 2288.97  20
  -7  11   3 85984.2 2660.54  19
  -7  11   3 101467. 2167.47   3
   7  11  -3 97587.1 2937.04  18
  -7 -11   3 85770.5 2445.61  11
  -7 -11   3 91194.9 2545.59  14
  -7 -11   3 97455.5 2432.43   4
  -7 -11   2-3.59357 247.481   4
  -7 -11   2 557.374 388.747   8
   7 -11  -2 172.284 264.868  12
  -7  11   2 61.0470 267.036  20
   7  11  -2 671.380 321.817  18
  -7  11   2 324.256 238.863   3
  -7 -11   2 361.999 272.054  11
  -7 -11   2 902.586 411.523  14
  -7 -11   1 50137.3 2083.33   8
  -7  11   1 50041.2 1739.56  20
  -7 -11   1 47896.0 1794.42  11
  -7 -11   1 47140.1 1946.75  14
  -7 -11   1 49202.7 1952.48   4
  -7 -11   0 49.3433 389.338   8
  -7 -11   0 426.490 424.805   4
  -7  11   0-89.1116 237.197  20
  -7 -11   0 180.560 262.221  11
  -7 -11   0-573.468 379.006  14
  -7 -11  -1 85934.1 2912.09   8
  -7  11  -1 85578.8 2343.44  20
  -7 -11  -1 89763.0 2582.61  11
  -7 -11  -1 89740.9 2861.49  14
  -7 -11  -1 88742.1 2902.40   4
  -7  11  -2 270.864 306.666  20
   7  11   2 437.623 292.643  19
  -7 -11  -2 984.074 409.893  15
  -7 -11  -2 477.525 452.558  14
  -7 -11  -2 280.653 437.718   4
  -7 -11  -3 7956.00 1018.58   4
  -7  11  -3 7656.10 794.094  20
   7  11   3 7397.09 751.549  19
  -7 -11  -3 7434.72 848.303  15
  -7 -11  -3 7140.61 944.998  14
  -7 -11  -3 7567.43 847.927   9
  -7  11  -4 1282.51 425.554  20
   7  11   4 190.470 308.085  19
  -7 -11  -4 1188.08 447.704  15
  -7 -11  -4 742.589 446.977  14
  -7  11  -4 796.182 514.221   5
  -7  11  -5 69201.4 2376.81  20
   7  11   5 68444.1 2444.90  19
  -7  11  -5 74110.4 2967.12   5
  -7 -11  -5 73050.3 2644.08  15
  -7  11  -6 697.114 382.570  20
   7  11   6 73.4512 340.969  19
  -7 -11  -6-84.3258 308.084  15
  -7  11  -6 321.301 377.519   5
   7  11   7 2971.85 620.071  19
  -7 -11  -7 2704.69 623.068   7
  -7  11  -7 2858.00 557.124  20
  -7 -11  -7 2674.76 599.848  15
  -7  11  -7 2831.07 576.738  10
  -7  11  -7 2408.81 624.859   5
  -7 -11  -8 44.0648 324.247   7
   7  11   8 476.616 358.565  19
  -7 -11  -8 181.328 298.360  15
  -7  11  -8 362.825 337.171  10
  -7  11  -8-163.925 321.437   5
  -7  11  -9 49596.3 2004.23  13
   7  11   9 49818.6 1886.92  19
  -7 -11  -9 49814.0 2054.99  11
  -7  11  -9 51810.4 1969.79  10
  -7 -11  -9 51657.5 2027.50  15
   7  13 -11 6802.59 811.180  18
   7 -13 -11 5298.36 840.488  12
   7 -13 -11 7161.90 961.960  16
   7 -13 -10 144.003 482.653  12
   7  13 -10-26.7185 337.090  18
   7 -13 -10 319.403 422.955  16
   7 -13  -9 40167.0 2238.14  12
   7  13  -9 40913.3 1859.61  12
  -7  13   9 40220.2 1721.65  19
   7  13  -9 38586.4 2082.14  18
   7 -13  -9 38768.9 2219.60  16
   7 -13  -8-27.7541 442.082  12
  -7  13   8-30.4662 261.782  19
   7  13  -8-46.5984 346.542  18
   7 -13  -7 26213.0 1765.65  12
   7  13  -7 28700.5 1799.16  18
  -7  13   7 28081.5 1527.24  19
  -7 -13   7 30007.2 1443.37   9
  -7  13   6-10.8449 299.445  19
   7  13  -6 338.634 348.371  18
   7 -13  -6 549.104 422.152  12
   7 -13  -6 1368.72 1153.52  14
   7 -13  -5 51952.2 2271.65  12
  -7  13   5 57690.8 2239.00  19
   7  13  -5 52888.6 2326.32  18
  -7  13   4 50.1154 283.448  20
  -7  13   4 306.163 429.920  19
   7  13  -4-214.271 287.884  18
  -7 -13   4 313.856 298.965  11
   7 -13  -4 333.836 376.016  12
  -7 -13   4 305.660 284.221  14
   7 -13  -3 91373.4 2768.73  12
   7  13  -3 96646.5 2969.55  18
  -7 -13   3 86182.9 2558.03  11
  -7  13   3 88494.1 2326.31  20
  -7 -13   3 88544.4 2680.72  14
  -7  13   2-54.6131 234.504  20
  -7 -13   2 355.278 404.003   4
   7 -13  -2-314.725 292.161  12
   7  13  -2-222.123 320.072  18
  -7  13   2 11.5318 235.571   3
  -7 -13   2-111.117 298.656  11
  -7 -13   2-157.453 404.314  14
  -7 -13   1 46500.6 1869.27  11
  -7  13   1 45391.7 1752.93  20
  -7 -13   1 45941.8 2077.67  14
  -7 -13   1 46782.8 2019.14   4
  -7 -13   0 392.643 391.085   4
  -7  13   0 608.322 330.511  20
  -7 -13   0 52.5313 450.945  14
  -7 -13   0-82.0013 303.046  11
  -7 -13  -1 58882.7 2521.17   4
  -7 -13  -1 59275.7 2207.22  11
  -7  13  -1 58720.1 2072.60  20
  -7 -13  -1 59059.2 2472.59  14
  -7  13  -2 81.5973 318.188  20
   7  13   2 285.511 314.388  19
  -7 -13  -2 660.388 509.708   4
  -7 -13  -2 219.626 348.015  11
  -7 -13  -2 493.964 499.676  14
   7  13   3 6883.24 766.514  19
  -7  13  -3 7118.54 819.446  20
  -7 -13  -3 7267.28 892.915  15
  -7 -13  -3 6185.62 953.695  14
  -7 -13  -3 6395.22 842.940   9
  -7  13  -4 2662.80 538.549  20
   7  13   4 2424.63 532.583  19
  -7 -13  -4 2936.85 631.615  15
  -7 -13  -4 1525.15 631.164  14
  -7  13  -5 94692.0 2834.86  20
   7  13   5 98815.0 2892.18  19
  -7 -13  -5 98166.7 3138.98  15
  -7  13  -6 752.699 380.024  20
   7  13   6 804.425 375.893  19
  -7 -13  -6 680.549 398.342  15
  -7 -13  -7 457.811 339.128   7
   7  13   7 176.924 331.787  19
  -7 -13  -7 680.435 371.262  15
  -7  13  -7 1066.71 385.308  10
  -7 -13  -8-157.617 228.709   7
   7  13   8-39.7190 326.359  19
  -7 -13  -8 228.265 308.329  11
  -7 -13  -8 330.551 283.054  15
  -7  13  -8 159.709 269.732  10
   7 -15 -10-339.335 354.743  12
   7  15 -10-762.090 372.043  18
   7 -15 -10-375.580 373.508  16
   7 -15  -9 30521.8 1925.10  12
   7  15  -9 31574.8 1773.21  18
  -7  15   9 35170.6 1567.45  19
   7 -15  -9 30083.6 1808.87  16
   7 -15  -8-516.826 450.907  12
  -7  15   8-20.3453 211.306  19
   7  15  -8 166.744 375.816  18
   7 -15  -8 16.5004 342.175  16
   7 -15  -7 22258.0 1707.23  12
  -7  15   7 22702.6 1395.95  19
   7  15  -7 23516.0 1589.55  18
   7 -15  -7 23742.2 1571.78  16
   7 -15  -7 24536.1 2571.63  14
  -7 -15   7 22756.8 1279.26   9
   7 -15  -6 520.363 517.049  12
  -7  15   6 1012.07 432.699  19
   7  15  -6 1580.75 518.640  18
   7 -15  -5 43812.8 2192.53  12
   7  15  -5 45637.7 2147.13  18
  -7  15   5 46295.7 2105.44  19
   7 -15  -5 47265.6 3592.31  14
   7 -15  -4 1398.89 507.291  12
   7  15  -4 1858.97 456.310  18
  -7 -15   4 1919.51 468.750  14
  -7  15   3 69240.8 2118.53  20
   7 -15  -3 64705.1 2498.79  12
   7  15  -3 71386.8 2558.88  18
  -7 -15   3 71949.0 2394.80  11
  -7 -15   3 68440.0 2473.65  14
   7  15  -2 1078.97 384.236  18
  -7 -15   2 686.541 354.618  11
  -7 -15   2 199.669 374.709  14
  -7  15   2 378.089 273.256  20
  -7 -15   1 17818.6 1301.74   4
  -7  15   1 17428.7 1150.48  20
  -7 -15   1 17286.7 1208.66  11
  -7 -15   1 15971.3 1324.71  14
  -7  15   0 2507.41 508.378  20
  -7 -15   0 2504.81 531.261  11
  -7 -15   0 2484.12 671.827  14
  -7 -15  -1 90522.8 2814.04  11
  -7  15  -1 90775.3 2670.57  20
  -7 -15  -1 89959.2 3189.13  14
  -7  15  -2 2190.89 532.847  20
  -7 -15  -2 2327.05 579.094  11
  -7 -15  -2 2093.15 609.981  14
   7 -15   2 1487.09 678.755  14
   7  15   3 21231.1 1287.32  19
  -7 -15  -3 22013.8 1489.49  11
  -7  15  -3 22306.1 1398.04  20
  -7 -15  -3 20032.8 1596.60  14
  -7  15  -4-107.305 345.976  20
   7  15   4-680.779 347.175  19
  -7  15  -4 191.278 256.353  18
  -7 -15  -4 117.683 389.095  11
  -7 -15  -4 585.643 453.714  14
  -7  15  -5 54108.8 2160.99  20
   7  15   5 54775.6 2090.38  19
  -7 -15  -5 57174.7 2408.65  11
  -7 -15  -5 55896.7 2366.43  15
  -7  15  -6 207.246 304.038  20
   7  15   6-654.761 351.758  19
  -7 -15  -6 414.460 351.098  11
  -7 -15  -6 339.950 306.642  15
  -7  15  -6 250.598 297.699  10
  -7 -15  -7-259.741 241.967   7
   7  15   7-901.730 331.905  19
  -7 -15  -7-454.724 330.024  15
  -7  15  -7 68.3015 286.252  10
   7 -17  -9 27921.8 1741.12  12
  -7  17   9 27233.9 1311.95  19
   7  17  -9 29536.3 1558.11  18
   7 -17  -9 27809.0 1521.15  16
   7  17  -8-303.519 290.614  18
   7 -17  -8-567.130 412.278  12
   7  17  -8 72.6608 213.338  12
   7 -17  -7 16912.0 1448.77  12
  -7  17   7 17936.6 1235.66  19
   7  17  -7 17992.4 1325.80  18
   7 -17  -7 18288.3 2019.70  14
  -7 -17   7 18129.1 1118.84   9
   7 -17  -6 102.678 416.885  12
  -7  17   6 221.720 350.041  19
   7  17  -6 298.085 303.918  18
   7 -17  -6 506.975 925.921  14
   7 -17  -5 42549.4 2212.05  12
   7  17  -5 46434.0 2093.16  18
   7  17  -4 1329.37 443.481  18
  -7 -17   4 2211.09 483.269  14
  -7 -17   3 46004.0 2066.26  14
   7 -17  -3 45517.8 3355.05  14
  -7  17   2-75.2149 294.085  20
  -7 -17   2 566.696 352.557  11
  -7 -17   2-183.641 360.818  14
   7 -17  -2-205.986 954.585  14
  -7  17   1 42336.8 1798.16  20
  -7 -17   1 43754.9 1920.43  11
  -7 -17   1 41889.5 2130.73  14
  -7  17   0 1005.61 398.406  20
  -7 -17   0 634.401 301.885  11
  -7 -17   0 1371.13 604.393  14
   7 -17   0 416.414 788.282  14
  -7  17  -1 26879.7 1515.35  20
  -7 -17  -1 27700.7 1607.39  11
  -7 -17  -1 27915.4 1831.95  14
   7 -17   1 25454.9 2202.03  14
  -7  17  -2 343.166 352.362  20
  -7 -17  -2 483.475 332.255  11
  -7 -17  -2-63.5576 542.161  14
   7 -17   2 328.529 617.244  14
  -7  17  -3 10267.1 918.445  18
  -7  17  -3 12733.6 1085.68  20
  -7 -17  -3 11639.7 1095.10  11
  -7 -17  -3 11113.4 1185.15  14
  -7  17  -4-658.407 377.009  20
   7  17   4 864.035 347.332  19
  -7  17  -4 214.948 223.268  18
  -7 -17  -4 83.5999 332.143  11
  -7 -17  -4-434.252 427.189  14
  -7  17  -5 42900.9 1865.44  20
   7  17   5 43807.9 1732.54  19
  -7 -17  -5 44487.3 2025.30  11
   7  17   6 1362.56 365.650  19
  -7 -17  -6 541.468 363.443  11
  -7  17  -6 275.699 294.993  10
   7  19  -8 375.753 290.340  18
   7  19  -7 15075.8 1100.34  18
   7 -19  -7 14903.6 1669.57  14
   7  19  -6 532.614 301.155  18
   7 -19  -6 957.233 815.828  14
  -7 -19   6-373.855 306.114   9
   7  19  -5 43178.7 1894.56  18
   7 -19  -5 43556.7 3103.12  14
   7  19  -4 440.512 299.195  18
  -7 -19   4 911.239 341.325  14
   7 -19  -4 1615.90 962.737  14
   7  19  -3 39244.2 1762.42  18
  -7 -19   3 38247.1 1851.59  14
  -7 -19   2-112.662 390.960  14
  -7  19   1 19224.3 1216.42  20
  -7 -19   1 16238.7 1339.58  14
  -7  19   0 467.339 294.725  20
  -7 -19   0-351.142 349.584  11
  -7 -19   0 176.673 398.378  14
  -7  19  -1 54694.4 2106.86  20
  -7 -19  -1 57189.8 2206.37  11
  -7 -19  -1 52887.7 2420.79  14
   7 -19   1 53130.1 2917.01  14
  -7  19  -2 200.150 315.907  20
  -7 -19  -2-344.049 295.879  11
  -7 -19  -2 201.636 410.659  14
  -7 -19  -2 318.149 335.043   9
  -7  19  -3 7746.86 836.267  20
  -7  19  -3 8278.94 787.549  18
  -7 -19  -3 9189.07 922.366  11
  -7 -19  -3 7043.41 946.155  14
  -7  19  -4 452.658 310.218  20
  -7 -19  -4 162.999 302.304  11
  -7 -19  -4 860.573 438.941  14
  -7 -19  -5 41016.3 1763.67  11
  -7  19  -5 37738.9 1555.61  10
   7  21  -6 367.513 210.797  18
   7 -21  -6 776.016 555.923  14
  -7 -21   6 391.406 251.179   9
   7  21  -5 24843.1 1307.80  18
  -7 -21   5 23380.7 1274.23   9
   7  21  -4 2482.05 430.605  18
   7 -21  -4 1655.59 855.871  14
  -7 -21   3 30063.0 1514.19  14
   7 -21  -3 32819.5 2379.05  14
  -7 -21   2 305.713 334.642  14
   7 -21  -2-41.8623 658.391  14
  -7 -21   1 15289.4 1221.36  14
   7 -21  -1 17870.5 1712.53  14
  -7  21   0-53.0571 247.523  20
  -7 -21   0 393.903 359.405  14
  -7  21  -1 34188.9 1555.88  20
  -7 -21  -1 32169.0 1740.88  14
   7 -21   1 34725.8 2072.71  14
  -7 -21  -1 31206.8 1595.05   9
  -7  21  -2 1312.71 402.956  20
  -7  21  -2 1156.86 312.377  18
  -7 -21  -2 124.310 386.408  14
  -7 -21  -2 1031.67 335.903   9
  -7  21  -3 1356.34 308.529  18
  -7 -21  -3 1180.04 306.588  11
  -7 -21  -3 1964.99 476.584  14
   8   0 -12 5954.12 777.259  12
   8   0 -12 6502.57 932.876  18
   8   0 -11-251.805 328.054  12
   8   0 -11 1231.58 550.232  18
   8   0 -10 53119.4 2343.89  12
   8   0 -10 58998.4 2730.22  18
   8   0  -9 369.037 391.679  12
   8   0  -9-57.7119 427.190  18
   8   0  -8 28213.5 1649.37  12
   8   0  -8 28518.1 1775.75  18
   8   0  -7 406.939 360.755  12
   8   0  -7 14.5797 311.530  18
   8   0  -7 329.160 390.651  17
   8   0  -6 85855.8 2633.14  18
   8   0  -6 90833.9 2797.39  17
   8   0  -6 91480.9 2670.56  12
   8   0  -5 7.33639 260.000  12
   8   0  -5 26.0873 216.436  18
   8   0  -5 149.546 345.907  17
   8   0  -4 38913.9 1597.58  12
   8   0  -4 39415.1 1469.58  18
  -8   0   4 37812.9 1446.38   3
   8   0  -4 39806.8 1767.71  17
   8   0  -3 467.192 430.781   2
  -8   0   3-53.5080 246.188  11
  -8   0   3-118.982 282.976   2
  -8   0   3-42.9866 232.941   3
   8   0  -2 146083. 4539.83   2
  -8   0   2 141858. 4134.17   2
  -8   0   2 137504. 2482.22   3
   8   0  -1 145.671 345.985   2
  -8   0   1-95.0909 230.423   3
  -8   0   1 369.500 329.145   2
   8   0   0 116135. 3445.93   2
   8   0   0 114108. 2925.31   1
  -8   0   0 110394. 2240.62   3
  -8   0   0 120017. 3213.94   2
  -8   0   0 115776. 2053.97   5
  -8   0  -1 340.208 214.392   6
  -8   0  -1-111.882 222.493   3
  -8   0  -1 415.879 255.827   5
  -8   0  -2 16643.6 940.647   3
  -8   0  -2 15216.9 996.016   6
  -8   0  -2 16088.9 870.185  11
  -8   0  -2 16427.9 973.814   5
  -8   0  -3-37.9287 378.449   6
  -8   0  -3 48.8659 279.078   5
  -8   0  -4 85340.9 2610.21   7
  -8   0  -4 82975.3 2779.49   6
  -8   0  -4 84187.2 2583.83   5
  -8   0  -4 90050.4 2356.77   4
  -8   0  -4 88879.9 2269.97  13
  -8   0  -5 56.1616 301.884   7
  -8   0  -5-257.434 303.222  13
  -8   0  -5-53.7930 437.143   6
  -8   0  -5-146.489 310.774   5
  -8   0  -6 12084.2 1190.89   7
  -8   0  -6 12643.4 1314.83   6
  -8   0  -6 12383.1 1190.82   5
  -8   0  -6 12162.5 1017.06  13
  -8   0  -7 181.453 338.824  13
  -8   0  -7 282.506 362.745   7
  -8   0  -7-513.006 491.518   6
  -8   0  -7 601.759 416.039   5
  -8   0  -8 118550. 3806.92   7
  -8   0  -8 124081. 4172.80   6
  -8   0  -8 117068. 3854.55   5
  -8   0  -8 117356. 3273.42  13
  -8   0  -9-218.047 311.263  13
  -8   0  -9-163.018 439.126   6
  -8   0  -9-58.3018 388.295   5
  -8   0 -10 1636.97 393.326  13
   8   2 -13-204.648 364.190  18
   8  -2 -12 4664.02 730.987  12
   8   2 -12 3553.83 591.403  12
   8   2 -12 4395.91 794.665  18
   8  -2 -11 417.053 381.262  12
   8   2 -11 662.528 343.788  12
   8  -2 -11 395.665 405.384  18
   8   2 -11-307.320 450.130  18
   8   2 -10 41070.2 2047.96  12
   8  -2 -10 40509.4 2085.63  12
   8  -2 -10 42492.3 2319.25  18
   8   2 -10 46036.5 2470.76  18
   8  -2  -9-31.2471 362.411  12
   8   2  -9 314.584 362.112  12
   8  -2  -9 82.3008 373.622  18
   8   2  -9-78.6844 439.806  18
   8   2  -8 34190.3 1836.84  12
   8   2  -8 34671.8 2023.07  18
   8  -2  -8 37602.8 1984.78  18
   8  -2  -8 32752.9 1765.15  12
   8  -2  -7 388.582 360.563  12
   8   2  -7 182.813 344.024  12
   8  -2  -7 234.275 315.726  18
   8   2  -7 128.816 384.840  18
   8   2  -7 257.091 324.395  17
   8  -2  -6 104634. 2787.27  12
   8   2  -6 109112. 3008.14  12
   8  -2  -6 111825. 2899.03  18
   8   2  -6 104243. 3047.85  18
   8  -2  -6 108263. 3101.47  17
   8   2  -6 102972. 2942.93  17
   8   2  -5 3686.57 610.190  12
   8  -2  -5 3158.16 531.609  12
   8  -2  -5 3180.15 518.989  18
   8   2  -5 3231.60 534.236  18
   8  -2  -5 3131.82 592.813  17
   8   2  -5 3037.35 611.888  17
   8   2  -4 29383.2 1359.15  18
   8  -2  -4 29372.2 1320.36  12
   8  -2  -4 26682.6 1207.39  18
  -8  -2   4 28704.7 1294.67  11
  -8   2   4 27643.6 1209.23   3
   8  -2  -4 26333.8 1428.50  17
  -8  -2   4 29171.5 1187.71   9
   8  -2  -3 100.421 279.684   2
  -8  -2   3 676.139 298.682  11
   8   2  -3 1628.75 611.409   2
   8  -2  -3 570.697 333.664  17
  -8   2   3 1711.42 532.776   2
  -8   2   3 850.689 305.282   3
  -8  -2   3 1266.12 430.186   2
  -8  -2   3 1238.76 372.448   9
  -8  -2   3 919.943 314.111   3
   8   2  -2 132948. 4697.22   2
  -8   2   2 133031. 3992.21   2
  -8   2   2 129181. 2368.74   3
  -8  -2   2 134673. 4160.96   2
  -8  -2   2 126159. 2467.76   3
  -8  -2   2 130948. 2547.21  11
  -8  -2   2 134918. 2505.18   9
   8  -2  -2 128132. 3983.06   2
  -8   2   1 6302.56 817.085   2
  -8   2   1 5581.42 555.170   3
  -8  -2   1 5701.88 549.812   3
  -8  -2   1 6006.69 877.474   2
   8  -2  -1 4770.72 697.165   2
  -8  -2   1 6284.12 567.304  11
   8   2  -1 4179.99 731.745   2
  -8  -2   1 6499.73 596.274   9
   8  -2   0 67034.3 1761.51   1
   8   2   0 68742.9 3138.89   2
   8   2   0 70311.0 2674.04   1
  -8   2   0 69352.7 1796.12   3
  -8  -2   0 71663.6 1751.58   3
  -8   2   0 75584.2 2363.98   2
  -8  -2   0 75381.0 1878.51  11
  -8   2   0 71532.9 1764.24   5
  -8   2  -1 1069.39 309.475   6
  -8  -2  -1 839.721 286.720  11
  -8  -2  -1 863.043 296.881   3
   8   2   1 1028.59 417.836   2
  -8  -2  -1 1109.05 258.743   5
  -8   2  -1 645.149 291.893   5
   8   2   1 1051.06 322.771   1
  -8   2  -2 11100.9 791.482   7
  -8   2  -2 11403.3 744.432  21
  -8   2  -2 10872.8 711.574  20
  -8  -2  -2 10744.8 746.214   3
  -8   2  -2 10872.5 877.075   6
  -8  -2  -2 10960.2 775.914   5
  -8  -2  -2 11583.9 797.901  11
  -8   2  -2 10077.1 825.218   5
  -8  -2  -2 10321.3 681.301  15
  -8   2  -3 104.220 214.223  20
  -8   2  -3-102.646 317.737   6
  -8  -2  -3-168.824 206.357   3
  -8   2  -3 163.081 224.849   7
  -8  -2  -3 149.389 234.422   5
  -8   2  -3-1.86316 262.956   5
  -8  -2  -3 244.975 200.153  15
  -8   2  -4 136209. 2900.94  13
  -8   2  -4 129834. 3239.60   7
  -8   2  -4 122192. 3375.37   6
  -8  -2  -4 123017. 3088.08   5
  -8   2  -4 126364. 3234.10   5
  -8  -2  -4 124008. 2952.73   4
  -8  -2  -4 130341. 2716.61  13
  -8  -2  -5 810.243 368.134  13
  -8   2  -5 229.906 267.494  13
  -8   2  -5-52.4204 293.722   7
  -8  -2  -5 616.007 279.103   4
  -8  -2  -5 221.440 350.508   7
  -8   2  -5-386.336 394.095   6
  -8  -2  -5 113.842 270.527   5
  -8   2  -5-15.1288 323.352   5
  -8   2  -5 732.840 346.458  10
  -8   2  -6 6159.03 769.049  13
  -8  -2  -6 7298.04 893.377   7
  -8   2  -6 7313.26 952.005   7
  -8  -2  -6 6801.87 1001.72   6
  -8   2  -6 6377.57 949.146   6
  -8  -2  -6 6732.75 914.574   5
  -8   2  -6 7111.43 931.790   5
  -8   2  -6 6407.53 795.263  10
  -8  -2  -6 6991.89 786.320  13
  -8  -2  -7 798.440 386.565  13
  -8   2  -7-269.225 312.211  13
  -8   2  -7-151.860 386.452   7
  -8  -2  -7 512.488 570.886   6
  -8   2  -7 280.025 452.719   6
  -8  -2  -7-281.086 382.308   7
  -8  -2  -7 391.847 391.330   5
  -8   2  -7 838.369 422.991   5
  -8   2  -7-247.559 293.014  10
  -8  -2  -8 53632.8 2552.99   7
  -8  -2  -8 52852.4 2768.38   6
  -8   2  -8 54621.7 2734.47   6
  -8  -2  -8 51717.5 2585.41   5
  -8   2  -8 51783.9 2577.02   5
  -8   2  -8 54135.5 2260.09  10
  -8  -2  -8 54202.7 2189.71  13
  -8   2  -8 54387.5 2260.14  13
  -8  -2  -9 230.853 281.141  13
  -8   2  -9 299.426 298.511  13
  -8  -2  -9 470.023 356.902   7
  -8  -2  -9-402.025 434.793   6
  -8  -2  -9 143.256 323.538   5
  -8   2  -9-3.15047 348.989   5
  -8  -2 -10 947.963 318.583  13
  -8   2 -10-270.203 219.022  13
   8   4 -13 33.5583 264.735  18
   8  -4 -13-425.202 366.762  16
   8  -4 -12 2187.53 566.043  12
   8   4 -12 1900.29 587.817  18
   8  -4 -11 50.9369 321.725  12
   8   4 -11 291.348 273.443  12
   8   4 -11-148.164 388.907  18
   8  -4 -10 38060.8 2037.18  12
   8   4 -10 37375.2 1928.96  12
   8   4 -10 40810.1 2321.38  18
   8  -4  -9 109.172 378.343  12
   8   4  -9 409.665 322.882  12
   8  -4  -9 288.540 402.703  18
   8   4  -9 225.488 464.432  18
   8  -4  -8 17582.7 1310.04  12
   8   4  -8 17313.2 1349.37  12
   8  -4  -8 15925.3 1307.10  18
   8   4  -8 17364.8 1479.16  18
   8  -4  -7 1453.44 484.244  12
   8   4  -7 1325.90 479.613  12
   8  -4  -7 1224.35 437.313  18
   8   4  -7 1615.36 572.862  18
   8   4  -7 1163.95 438.741  17
   8  -4  -6 71718.1 2322.54  18
   8   4  -6 72782.4 2689.38  18
   8  -4  -6 74662.6 2351.38  12
   8   4  -6 70838.2 2446.63  17
  -8   4   6 75828.3 1912.77  21
  -8  -4   6 74528.6 1893.61   9
  -8   4   5 760.645 278.816  21
   8   4  -5 506.997 364.410  18
   8  -4  -5 813.732 343.278  12
   8  -4  -5 486.055 288.934  18
  -8  -4   5 517.683 301.803  11
   8  -4  -5 606.154 360.827  17
   8   4  -5 579.216 382.762  17
  -8  -4   5 499.138 243.189   9
  -8   4   5 1060.01 349.092   3
  -8   4   4 62044.6 1734.24  21
   8   4  -4 59966.6 2108.83  18
  -8   4   4 61269.8 1763.75   3
  -8  -4   4 61341.1 1922.66  11
   8  -4  -4 59800.6 2087.44  17
  -8  -4   4 64748.2 1794.85   9
   8  -4  -4 60848.9 3057.63   1
   8  -4  -4 61847.1 1873.41  12
  -8   4   3 3701.88 483.506  21
  -8   4   3 3561.21 445.499   3
  -8  -4   3 3661.31 526.621  11
   8  -4  -3 3896.88 574.977  17
  -8   4   3 4803.06 815.456   2
   8  -4  -3 3529.69 677.161   1
  -8  -4   3 4150.29 515.866   9
   8  -4  -3 3848.53 468.422  12
  -8   4   2 144254. 4200.27   2
  -8  -4   2 148758. 4633.08   2
  -8  -4   2 139961. 2709.75  11
  -8  -4   2 141811. 2651.59   9
   8  -4  -2 139639. 3574.04   1
   8  -4  -1 484.648 223.401   1
  -8   4   1 148.765 226.588  21
  -8   4   1 244.463 222.857   3
  -8  -4   1 313.424 234.329  11
   8   4  -1-100.540 430.198   2
  -8   4   1 578.265 309.181   2
  -8  -4   1 336.238 255.279   3
  -8  -4   1 464.094 346.857   9
   8   4   0 170896. 4672.49   1
  -8  -4   0 157498. 2678.70   3
  -8  -4   0 170112. 2975.26  11
  -8   4   0 159677. 2858.42   5
  -8   4   0 171396. 2861.11  21
  -8  -4   0 169010. 2945.61   9
   8   4   0 163123. 5422.82   2
  -8  -4  -1 4569.38 490.659   3
  -8   4  -1 4635.79 570.299   5
  -8  -4  -1 4831.16 550.822  11
  -8   4  -1 5168.77 539.943  21
  -8  -4  -1 5061.84 515.334  15
   8   4   1 4357.58 948.286   2
   8   4   1 6310.95 858.340   1
  -8  -4  -1 5006.55 565.305   9
  -8   4  -2 34579.0 1311.82  20
  -8  -4  -2 38391.1 1310.06   3
  -8   4  -2 34888.8 1578.06   6
  -8   4  -2 35514.2 1540.64   5
  -8   4  -2 35576.3 1310.23  21
  -8  -4  -2 37032.2 1387.44  15
  -8  -4  -3 1570.64 435.387   8
  -8   4  -3 2433.74 454.820   7
  -8   4  -3 1896.36 475.332   6
  -8   4  -3 2658.79 431.344  20
  -8  -4  -3 1915.30 390.320  15
  -8   4  -3 1656.10 438.718   5
  -8   4  -4 101515. 2882.07   7
  -8   4  -4 95855.5 3059.67   6
  -8   4  -4 93097.2 2882.06   5
  -8   4  -4 95644.2 2324.15  20
  -8  -4  -4 97344.4 2512.28  15
  -8  -4  -4 92765.0 2739.44   4
  -8  -4  -4 100081. 2716.98   8
  -8  -4  -4 97938.1 2379.11  13
  -8  -4  -5-231.519 271.175  13
  -8  -4  -5-447.236 329.520   4
  -8   4  -5 698.328 383.268   7
  -8   4  -5 165.990 385.918   6
  -8   4  -5 123.809 315.911   5
  -8  -4  -5 108.586 284.650  15
  -8   4  -6 5181.64 768.819  13
  -8  -4  -6 4615.60 786.515   7
  -8   4  -6 5133.51 773.312   7
  -8   4  -6 4537.46 821.500   6
  -8   4  -6 4932.40 749.727  10
  -8  -4  -6 5294.67 684.476  15
  -8   4  -6 4233.10 800.748   5
  -8  -4  -6 5603.45 725.884  13
  -8  -4  -7 172.630 331.413   7
  -8  -4  -7-42.1079 312.245  13
  -8   4  -7 460.938 406.275  13
  -8  -4  -7 800.814 497.904   6
  -8   4  -7 114.244 441.869   6
  -8  -4  -7-433.879 428.408   5
  -8  -4  -7-13.0114 250.386  15
  -8   4  -7 171.568 280.569  10
  -8   4  -7 144.494 398.089   5
  -8  -4  -8 58451.0 2648.23   7
  -8  -4  -8 57233.5 2933.62   6
  -8  -4  -8 56143.3 2688.74   5
  -8   4  -8 58097.7 2667.23   5
  -8   4  -8 56643.8 2317.46  10
  -8  -4  -8 56897.1 2165.40  15
  -8  -4  -8 55044.0 2198.24  13
  -8   4  -8 55107.7 2306.72  13
  -8  -4  -9 1355.67 416.013  13
  -8   4  -9 1405.29 425.398  13
  -8  -4  -9 1582.39 484.921   7
  -8  -4  -9 1368.62 603.517   6
  -8  -4  -9 1840.66 590.740   5
  -8   4  -9 2505.50 520.405  10
  -8  -4  -9 1583.77 384.150  15
  -8   4  -9 615.837 381.808   5
   8  -6 -13 114.969 197.713  12
   8   6 -13 176.065 249.075  18
   8  -6 -13 760.770 447.941  16
   8   6 -12 3305.08 656.796  18
   8  -6 -12 2723.56 615.180  12
   8  -6 -11-8.77791 315.365  12
   8   6 -11 582.007 302.868  12
   8   6 -11 28.4022 405.266  18
   8   6 -10 45618.6 2112.72  12
   8  -6 -10 46827.7 2319.53  12
   8   6 -10 50297.1 2549.77  18
   8  -6  -9 729.640 476.810  12
   8   6  -9 404.457 390.432  12
   8   6  -9 32.5517 509.274  18
   8   6  -8 10989.0 1097.19  12
   8  -6  -8 10291.5 1051.22  12
   8   6  -8 11514.0 1243.38  18
   8  -6  -7 235.203 333.229  12
   8   6  -7 255.856 355.965  12
   8   6  -7 376.639 425.426  18
   8   6  -7 11.1073 257.698  17
  -8   6   6 66929.0 1892.58  21
   8   6  -6 64784.7 2629.66  18
   8   6  -6 65341.9 2349.85  17
  -8  -6   6 65386.1 1853.77   9
   8  -6  -6 63404.9 2196.05  12
  -8   6   5 4359.24 533.873  21
   8  -6  -5 2954.26 503.408  12
   8   6  -5 4105.50 720.278  18
  -8  -6   5 3853.91 555.240  11
   8   6  -5 3594.78 637.287  17
  -8   6   5 3907.87 515.364   3
  -8  -6   5 3439.48 498.978   9
  -8  -6   5 3630.16 496.763   8
  -8   6   4 84954.0 2118.96  21
  -8   6   4 87309.6 2096.12   3
   8   6  -4 88332.8 2799.54  18
  -8  -6   4 84570.5 2319.03  11
   8  -6  -4 87674.0 2246.87  12
  -8  -6   4 87855.0 2177.52   9
  -8   6   3 335.053 275.493  21
   8  -6  -3 384.815 200.435  12
  -8  -6   3 136.356 228.576  11
   8  -6  -3 579.061 302.656  17
   8  -6  -3 178.820 278.380   1
  -8   6   3 375.019 227.521   3
  -8  -6   3 150.188 305.604   9
  -8   6   2 100482. 3649.12   2
  -8   6   2 97790.8 2261.47  21
  -8   6   2 93739.5 2145.83   3
  -8  -6   2 99784.6 2396.22  11
  -8  -6   2 96858.6 2316.65   9
  -8   6   1 2686.59 424.424   3
  -8   6   1 2936.02 431.583  21
  -8  -6   1 2270.58 430.408  11
  -8   6   1 2660.62 540.353   2
  -8  -6   1 2186.24 441.858   9
  -8   6   0 152963. 2827.84  21
  -8  -6   0 152020. 2993.15  11
  -8  -6   0 151483. 2969.24   9
  -8   6  -1 627.285 265.958  20
  -8   6  -1 566.707 281.631  21
  -8  -6  -1 495.075 282.760  11
  -8  -6  -1 680.359 300.175  15
  -8   6  -1 420.424 298.772   5
  -8  -6  -1 497.855 317.464   9
  -8   6  -2 17715.7 974.045  21
  -8   6  -2 16939.9 989.559  20
  -8   6  -2 17985.8 1182.55   5
  -8  -6  -2 16690.2 1020.88  15
  -8  -6  -2 15886.2 1017.33   9
  -8  -6  -2 15342.7 1155.78   8
  -8  -6  -3 14.9366 358.128   8
  -8  -6  -3 37.8209 341.609   4
  -8   6  -3 314.372 292.926  20
  -8   6  -3 160.409 212.495  21
  -8  -6  -3 8.51439 188.643  15
  -8   6  -3 465.452 381.535   5
  -8   6  -4 82706.2 2832.80   5
  -8  -6  -4 78482.0 2391.93  15
  -8   6  -4 76019.8 2198.26  20
  -8  -6  -4 82554.0 2261.23  13
  -8  -6  -4 75056.0 2655.39   4
  -8  -6  -4 77614.5 2549.74   8
  -8  -6  -5 445.425 256.585  13
  -8   6  -5 230.220 269.686  20
  -8  -6  -5-308.610 385.718   4
  -8  -6  -5 45.5935 279.064  15
  -8   6  -5 255.530 390.780   5
  -8  -6  -6 6679.54 917.753   7
  -8   6  -6 7655.46 776.296  20
  -8   6  -6 6215.73 918.307   5
  -8   6  -6 6010.48 793.102  10
  -8  -6  -6 6870.24 790.890  15
  -8  -6  -6 6192.47 734.271  13
  -8  -6  -7 337.739 294.313  13
  -8   6  -7 283.611 361.176  13
  -8  -6  -7-96.8587 334.734   7
  -8  -6  -7 150.032 269.288  15
  -8   6  -7 52.5228 295.494  10
  -8   6  -7 238.833 451.271   5
  -8   6  -8 58323.8 2374.26  13
  -8  -6  -8 61859.0 2681.16   7
  -8  -6  -8 64109.6 3105.49   6
  -8  -6  -8 65894.0 2813.82   5
  -8   6  -8 63863.9 2781.46   5
  -8   6  -8 61012.0 2402.18  10
  -8  -6  -8 58883.2 2263.06  15
  -8  -6  -8 63438.8 2323.45  13
  -8  -6  -9 252.590 277.998  13
  -8   6  -9 486.142 370.042  13
  -8  -6  -9 731.666 339.785   7
  -8  -6  -9 949.822 485.284   6
  -8  -6  -9 994.132 460.923   5
  -8   6  -9 559.312 314.448  10
  -8  -6  -9 924.698 297.817  15
  -8   6  -9-399.291 316.601   5
   8  -8 -12 2954.24 659.646  12
   8   8 -12 4589.55 704.043  18
   8  -8 -12 2775.14 661.563  16
   8  -8 -11 371.870 391.735  12
   8   8 -11 733.421 303.439  12
   8   8 -11 906.365 456.998  18
   8  -8 -10 37437.3 2122.29  12
   8   8 -10 37307.4 1866.01  12
   8   8 -10 36029.3 2147.41  18
   8   8  -9 126.366 400.998  18
   8  -8  -9 114.952 406.249  12
   8   8  -9 813.415 431.993  12
   8  -8  -8 14593.4 1264.83  12
   8   8  -8 14682.3 1266.87  12
   8   8  -8 15202.2 1424.23  18
   8  -8  -7 484.923 345.900  12
   8   8  -7 447.237 387.880  18
   8   8  -7-443.751 251.201  17
  -8  -8   7 449.394 265.058   9
   8  -8  -6 104728. 2922.98  12
   8   8  -6 102128. 3361.97  18
   8   8  -6 102064. 2905.69  17
  -8   8   6 105337. 2511.66  21
  -8  -8   6 106813. 2505.00   9
  -8   8   5 173.383 256.222  21
  -8  -8   5 398.535 335.365   8
   8  -8  -5 324.143 286.969  12
   8   8  -5-8.14033 369.944  18
  -8  -8   5 242.230 290.341  11
   8   8  -5-338.509 319.358  17
  -8   8   5 225.373 242.077   3
  -8  -8   5 81.2044 285.986   9
   8  -8  -4 19517.6 1129.41  12
  -8   8   4 19971.9 1118.81  21
  -8   8   4 19371.6 1010.87   3
   8   8  -4 20457.0 1473.24  18
  -8  -8   4 20698.3 1214.06  11
  -8  -8   4 18682.5 1108.84   9
  -8  -8   4 19235.8 1114.59   8
  -8  -8   3 309.090 299.470   8
  -8   8   3 730.067 325.694  21
   8  -8  -3 20.4814 171.510  12
   8   8  -3 917.385 385.057  18
  -8  -8   3 172.726 256.938  11
  -8   8   3 594.536 269.618   3
  -8  -8   3 577.146 329.557   9
  -8   8   2 44938.8 1561.21   3
  -8  -8   2 48899.7 1770.61  11
   8  -8  -2 46104.7 1512.34  12
  -8  -8   2 47483.9 1739.97  14
  -8   8   2 47164.2 1667.57  21
  -8  -8   2 48462.9 1848.45   8
  -8  -8   1-99.7705 358.307   8
  -8   8   1 176.582 237.000  21
  -8  -8   1 42.7314 242.168  11
  -8  -8   1 176.507 262.996  14
  -8  -8   1 42.9655 290.252   9
  -8   8   0 126224. 2713.45  21
  -8   8   0 131726. 2717.17  20
  -8  -8   0 131601. 2928.26  11
  -8  -8   0 134511. 3096.89  14
  -8  -8   0 130605. 2963.59   9
  -8  -8   0 126417. 3156.35   8
  -8  -8  -1 624.487 620.130   8
  -8   8  -1 136.236 259.021  21
  -8   8  -1 182.776 262.826  20
  -8  -8  -1 273.064 300.961  11
  -8  -8  -1 548.013 305.726  15
  -8  -8  -1 608.599 398.964  14
  -8  -8  -1 103.048 373.129   9
  -8  -8  -2 4243.42 716.731   8
  -8   8  -2 4526.47 585.374  20
  -8   8  -2 5643.18 604.737  21
  -8   8  -2 5869.68 772.326   5
  -8  -8  -2 4762.11 610.121  15
  -8  -8  -2 4805.93 707.912  14
  -8  -8  -2 4498.42 645.420   9
  -8  -8  -2 4917.04 745.350   4
  -8  -8  -3 264.212 432.701   8
  -8  -8  -3 45.4305 423.077   4
  -8   8  -3-463.054 321.254  20
  -8  -8  -3 330.197 305.180  15
  -8   8  -3-26.7752 286.459   5
  -8  -8  -4 82757.1 2793.54   8
  -8   8  -4 82276.0 2392.36  20
  -8   8  -4 86721.8 3020.09   5
  -8  -8  -4 87093.7 2659.61  15
  -8  -8  -4 89879.5 2458.62  13
  -8  -8  -4 88338.7 3019.75   4
  -8  -8  -5-214.261 280.572  13
  -8  -8  -5-136.261 372.145   4
  -8   8  -5-165.725 295.489  20
  -8  -8  -5 385.515 318.940  15
  -8   8  -5 311.124 384.369   5
  -8  -8  -6 3231.34 563.134  13
  -8   8  -6 3845.82 622.645  20
  -8  -8  -6 4056.99 685.783  15
  -8   8  -6 3748.48 639.169  10
  -8   8  -6 3893.54 755.143   5
  -8  -8  -7-4.38477 277.480  13
  -8  -8  -7 195.955 350.934   7
  -8  -8  -7-469.021 337.123  15
  -8   8  -7-126.035 279.599  10
  -8   8  -7 121.876 395.492   5
  -8   8  -8 58819.2 2360.80  13
  -8  -8  -8 67839.2 2738.81   7
   8   8   8 62808.2 2364.80  19
  -8   8  -8 64299.1 2711.70   5
  -8   8  -8 59282.9 2319.40  10
  -8  -8  -8 58279.5 2260.71  15
  -8  -8  -8 64199.7 2274.64  13
  -8  -8  -9 694.864 276.093  13
  -8   8  -9-434.932 275.800  13
  -8  -8  -9 300.771 315.378   7
   8   8   9-31.9700 294.407  19
  -8  -8  -9 1156.66 492.481   6
  -8  -8  -9 223.111 207.419  11
  -8   8  -9-290.529 249.118  10
  -8  -8  -9-180.177 215.307  15
  -8   8  -9 520.049 294.522   5
   8 -10 -12 4688.46 761.801  12
   8  10 -12 3936.15 644.280  18
   8 -10 -12 3644.58 726.825  16
   8 -10 -11 723.331 398.218  12
   8  10 -11 47.3241 311.829  18
   8 -10 -11 342.572 518.951  16
   8  10 -10 37824.4 1833.89  12
   8  10 -10 35153.3 2067.89  18
   8 -10 -10 36825.1 2118.65  12
   8 -10  -9 1223.31 542.024  12
   8  10  -9 1869.08 506.067  12
   8  10  -9 1575.59 598.026  18
   8 -10  -8 17096.9 1401.91  12
   8  10  -8 16297.6 1319.72  12
   8  10  -8 16894.8 1485.33  18
   8 -10  -7-211.818 347.063  12
   8  10  -7-590.678 491.473  18
  -8 -10   7-1.61146 279.862   9
  -8  10   6 76092.7 2281.88  19
   8  10  -6 68920.0 2801.68  18
   8  10  -6 69695.6 2368.04  17
   8 -10  -6 69973.3 2503.80  12
  -8 -10   6 70035.6 2153.12   9
  -8 -10   5 355.987 289.896   8
   8 -10  -5 630.764 347.315  12
  -8  10   5 965.357 400.874  19
   8  10  -5 1093.40 472.351  18
  -8 -10   5 819.997 376.392  11
   8  10  -5 299.398 293.179  17
  -8 -10   5 746.896 317.269   9
  -8  10   4 34202.2 1549.32  21
  -8  10   4 39087.7 1424.93   3
   8  10  -4 37607.9 2008.42  18
  -8 -10   4 35491.9 1649.92  11
   8 -10  -4 37519.7 1669.15  12
  -8  10   4 38481.7 1714.33  19
  -8 -10   4 36531.8 1615.42   8
  -8  10   3 4145.88 606.195  21
  -8  10   3 4523.72 525.538   3
   8  10  -3 4928.85 732.433  18
  -8 -10   3 3365.96 558.949  11
   8 -10  -3 5023.94 604.773  12
  -8 -10   3 4547.36 616.023  14
  -8 -10   3 5051.01 682.932   8
  -8  10   2 54394.8 1826.72  20
  -8 -10   2 54765.7 1970.49  11
  -8  10   2 50812.1 1695.43   3
  -8  10   2 55520.1 1929.30  21
  -8 -10   2 54700.3 2018.49  14
  -8 -10   2 57613.9 2147.13   8
  -8 -10   1 1437.86 511.695   8
  -8  10   1 1307.03 376.525  20
  -8  10   1 1260.92 417.896  21
  -8 -10   1 1717.57 432.075  11
  -8 -10   1 2075.55 488.087  14
  -8  10   0 72193.7 2151.27  20
  -8 -10   0 74073.7 2319.63  11
  -8  10   0 68536.8 2143.52  21
  -8 -10   0 74457.6 2478.17  14
  -8 -10   0 70397.8 2481.87   4
  -8 -10   0 74079.1 2580.67   8
  -8 -10  -1 29.5629 411.881   8
  -8 -10  -1 128.974 380.337   4
  -8  10  -1 124.108 277.169  20
  -8 -10  -1-446.397 330.001  11
  -8 -10  -1 9.12162 416.139  14
  -8 -10  -1 237.772 365.082   9
  -8 -10  -2 2014.07 630.792   8
  -8 -10  -2 1448.00 520.455   4
  -8 -10  -2 2248.40 503.674  11
  -8 -10  -2 2083.70 459.858  15
  -8 -10  -2 1553.82 502.990  14
  -8 -10  -2 1967.74 514.423   9
  -8  10  -2 1527.09 407.187  20
  -8  10  -3-106.173 314.394  20
  -8 -10  -3 329.245 433.794   8
  -8 -10  -3 79.2892 437.915   4
  -8 -10  -3 6.50282 308.322  15
   8  10   3-128.849 248.926  19
  -8 -10  -3 715.597 513.365  14
  -8  10  -3-391.666 456.228   5
  -8 -10  -4 69704.5 2860.73   4
  -8  10  -4 62957.9 2210.26  20
   8  10   4 67590.9 2292.42  19
  -8  10  -4 69102.6 2817.05   5
  -8  10  -5-631.934 333.118  20
   8  10   5-739.425 409.946  19
  -8 -10  -5-158.490 343.245  15
  -8  10  -5 67.0206 389.396   5
  -8  10  -6 567.285 331.648  20
   8  10   6 81.2066 414.250  19
  -8 -10  -6 109.487 334.111  15
  -8  10  -6 992.031 417.915  10
  -8  10  -6 559.267 387.884   5
  -8  10  -7-439.678 283.201  20
  -8 -10  -7-147.436 350.511   7
   8  10   7 155.722 315.509  19
  -8 -10  -7-418.211 355.019  15
  -8  10  -7 176.363 294.060  10
  -8  10  -7-257.004 349.409   5
  -8  10  -8 52995.5 2189.29  13
  -8 -10  -8 64985.6 2609.77   7
   8  10   8 57070.3 2137.61  19
  -8 -10  -8 56998.7 2279.32  11
  -8  10  -8 63269.7 2583.91   5
  -8  10  -8 56100.3 2166.72  10
  -8 -10  -8 56529.0 2188.39  15
   8 -12 -11 401.300 431.225  12
   8  12 -11 105.872 378.757  18
   8 -12 -11 1096.39 512.509  16
   8 -12 -10 31552.9 1967.71  12
   8  12 -10 34128.6 1647.92  12
   8  12 -10 35017.7 1971.47  18
   8 -12 -10 30165.6 2002.14  16
   8 -12  -9 146.807 435.496  12
   8  12  -9-26.6809 210.753  12
   8  12  -9 158.046 381.135  18
   8 -12  -8 14603.7 1348.90  12
   8  12  -8 13586.0 1303.98  18
   8 -12  -7 1722.86 582.778  12
  -8  12   7 2381.90 504.098  19
   8  12  -7 1810.63 553.846  18
  -8 -12   7 1879.44 444.511   9
   8 -12  -7 2196.22 1311.98  14
   8 -12  -6 45810.5 2156.61  12
  -8  12   6 48834.7 1952.13  19
   8  12  -6 42429.6 2208.76  18
  -8 -12   6 46634.2 1866.56   9
   8 -12  -5 2961.64 608.993  12
  -8  12   5 2862.25 573.032  19
   8  12  -5 3562.25 712.130  18
  -8 -12   5 3146.99 553.186  11
  -8  12   5 3320.83 498.487  20
   8 -12  -4 41940.6 1888.80  12
  -8  12   4 43329.5 1645.62  20
  -8  12   4 42751.8 1931.35  19
   8  12  -4 45634.2 2197.21  18
  -8 -12   4 43582.8 1872.53  11
  -8 -12   4 41413.7 1745.38  14
  -8 -12   3 2291.31 477.349   4
  -8 -12   3 1566.66 502.461   8
   8 -12  -3 1579.44 419.592  12
   8  12  -3 1947.97 488.336  18
  -8 -12   3 1715.92 438.963  11
  -8  12   3 2224.81 386.951   3
  -8  12   3 2156.20 453.542  20
  -8 -12   3 2026.02 525.643  14
  -8 -12   2 59870.8 2327.26   8
  -8  12   2 56745.0 1952.86  20
  -8  12   2 58862.8 1890.71   3
  -8 -12   2 57059.5 2103.73  11
  -8 -12   2 55931.1 2153.16  14
  -8 -12   2 60622.6 2188.42   4
  -8 -12   1 781.592 393.571   4
  -8 -12   1 509.786 504.822   8
  -8  12   1 960.828 375.120  20
  -8  12   1 736.784 303.845   3
  -8 -12   1 842.485 361.263  11
  -8 -12   1 642.893 433.303  14
  -8 -12   0 81374.1 2898.62   8
  -8  12   0 77456.9 2363.56  20
  -8 -12   0 74939.5 2452.68  11
  -8 -12   0 76081.0 2665.89  14
  -8 -12   0 77049.3 2719.06   4
  -8 -12  -1 646.837 456.954   4
  -8  12  -1 873.147 399.110  20
  -8 -12  -1 758.594 395.614  11
  -8 -12  -1 1001.52 505.991  14
  -8 -12  -1 946.708 481.602   9
  -8 -12  -2 8473.53 1063.42   4
  -8  12  -2 8044.25 829.352  20
  -8 -12  -2 9003.81 980.907  11
  -8 -12  -2 9739.21 1098.06  14
  -8 -12  -2 8577.70 981.342   9
  -8  12  -3 336.431 342.999  20
  -8 -12  -3 142.231 449.351   4
   8  12   3 707.809 319.661  19
  -8 -12  -3 660.701 412.800  11
  -8 -12  -3 422.692 330.261  15
  -8 -12  -3-355.576 546.206  14
  -8  12  -4 73550.0 2465.95  20
   8  12   4 73273.0 2368.45  19
  -8 -12  -4 71853.9 2655.74  15
  -8  12  -5 446.470 401.087  20
   8  12   5 274.123 272.613  19
  -8 -12  -5 679.083 398.214  15
  -8  12  -6 690.043 367.879  20
   8  12   6 1828.84 475.936  19
  -8 -12  -6 496.770 421.843  15
  -8  12  -6 1024.36 426.568  10
  -8 -12  -7 225.935 313.181   7
   8  12   7-93.6495 314.375  19
  -8 -12  -7 1150.19 423.020  11
  -8 -12  -7 736.368 383.127  15
  -8  12  -7 545.041 331.634  10
  -8  12  -8 42122.6 1832.75  13
  -8 -12  -8 45672.8 2085.41   7
   8  12   8 40723.9 1666.39  19
  -8 -12  -8 40673.4 1865.08  11
  -8  12  -8 45462.6 1855.55  10
  -8 -12  -8 43367.4 1864.86  15
   8 -14 -11-648.986 404.443  12
   8  14 -11-40.9456 254.317  18
   8 -14 -11-27.5571 307.239  16
   8 -14 -10 32600.1 1950.27  12
   8  14 -10 31071.8 1719.11  18
   8 -14 -10 29083.0 1795.81  16
   8  14  -9-169.104 253.034  12
   8  14  -9 314.006 319.555  18
   8 -14  -9 456.740 498.888  12
   8 -14  -9 810.801 459.631  16
   8 -14  -8 16846.2 1458.57  12
   8  14  -8 18146.5 1453.98  18
  -8  14   8 19297.6 1205.12  19
   8 -14  -8 18294.4 1451.79  16
   8 -14  -7 471.262 449.578  12
  -8  14   7 239.664 252.059  19
   8  14  -7 221.526 336.568  18
  -8 -14   7 420.188 307.026   9
   8 -14  -6 46602.9 2281.53  12
  -8  14   6 51743.8 2102.04  19
   8  14  -6 49600.2 2312.58  18
   8 -14  -6 50325.2 3725.14  14
  -8 -14   6 49994.8 1988.72   9
   8 -14  -5 702.463 451.665  12
  -8  14   5 438.398 371.778  19
  -8 -14   5 436.308 350.906  11
   8  14  -5 1067.39 463.386  18
   8 -14  -4 37044.8 1925.42  12
  -8  14   4 36591.5 1553.59  20
  -8 -14   4 37730.3 1770.23  11
   8  14  -4 38275.3 1997.69  18
  -8 -14   4 37899.2 1737.96  14
   8 -14  -3 3236.35 640.887  12
  -8  14   3 3438.28 545.399  20
   8  14  -3 4854.42 709.702  18
  -8 -14   3 3367.16 597.336  11
  -8 -14   3 3086.42 622.085  14
  -8  14   2 45808.3 1825.39  20
  -8 -14   2 46004.9 1969.76  11
  -8 -14   2 46318.9 2079.41  14
  -8 -14   2 50285.1 2046.95   4
  -8  14   1 1930.50 482.867  20
  -8  14   1 2231.61 435.808   3
  -8 -14   1 1746.48 507.940   4
  -8 -14   1 2082.69 513.727  11
  -8 -14   1 1548.90 573.054  14
  -8 -14   0 63530.2 2564.09   4
  -8  14   0 57732.1 2133.87  20
  -8 -14   0 61312.2 2330.07  11
  -8 -14   0 64420.9 2598.52  14
  -8  14  -1 1151.36 408.233  20
  -8 -14  -1 781.863 528.219   4
  -8 -14  -1 1167.06 476.785  11
  -8 -14  -1 1198.78 587.205  14
  -8 -14  -2 9853.82 1170.57   4
  -8  14  -2 12779.2 1065.67  20
  -8 -14  -2 9984.51 1025.28  11
  -8 -14  -2 9674.58 1116.71  14
  -8 -14  -2 10354.8 1065.89   9
  -8  14  -3 728.703 394.141  20
  -8 -14  -3 485.514 414.923  11
  -8 -14  -3-305.974 407.024  14
  -8  14  -4 66226.4 2379.64  20
   8  14   4 69401.6 2275.54  19
  -8 -14  -4 68607.7 2656.45  11
  -8  14  -5 45.3820 280.358  20
   8  14   5-441.797 337.719  19
  -8 -14  -5 73.2721 385.639  11
  -8 -14  -5 444.731 389.424  15
  -8  14  -6 479.888 340.042  20
   8  14   6 112.451 246.351  19
  -8 -14  -6 94.7448 319.926  11
  -8 -14  -6 195.113 333.720  15
  -8  14  -6 431.420 324.334  10
  -8 -14  -7 795.182 376.982  11
  -8  14  -7 507.740 295.736  10
  -8 -14  -7 717.919 304.842   7
   8 -16 -10 24538.9 1610.03  12
   8  16 -10 26535.7 1424.27  18
   8 -16 -10 22207.4 1382.89  16
   8 -16  -9-236.966 378.573  12
   8  16  -9-79.3102 314.868  18
   8 -16  -9-525.664 315.133  16
   8 -16  -8 15239.7 1364.32  12
  -8  16   8 17601.6 1128.03  19
   8  16  -8 15257.2 1243.08  18
   8 -16  -8 18292.4 1844.00  14
   8 -16  -7-33.1177 427.018  12
  -8  16   7 452.670 318.017  19
   8  16  -7 213.711 260.160  18
   8 -16  -7-180.724 819.446  14
  -8 -16   7 479.136 328.868   9
   8 -16  -6 45030.1 2269.31  12
  -8  16   6 43758.5 1955.53  19
   8  16  -6 47247.4 2172.01  18
  -8 -16   6 44143.6 1881.60   9
   8 -16  -5 433.174 413.505  12
   8  16  -5 92.7127 285.563  18
   8 -16  -5-152.557 1108.60  14
   8 -16  -4 33957.6 1904.15  12
   8  16  -4 37213.1 1893.51  18
  -8 -16   4 36043.0 1736.37  14
   8 -16  -4 31586.9 2856.90  14
  -8  16   3-548.294 306.890  20
  -8 -16   3 197.793 317.618  11
  -8 -16   3 348.660 366.946  14
  -8  16   2 68005.3 2241.24  20
  -8 -16   2 63642.8 2355.97  11
  -8 -16   2 59465.9 2425.93  14
  -8  16   1 2002.30 494.283  20
  -8 -16   1 1900.34 518.422  11
  -8 -16   1 1464.23 593.749  14
  -8  16   0 47573.4 1965.95  20
  -8 -16   0 46727.7 2059.42  11
  -8  16   0 49586.5 1913.09   3
  -8 -16   0 44489.2 2204.74  14
  -8 -16  -1 609.569 348.988  11
  -8  16  -1 649.268 411.756  20
  -8 -16  -1 494.718 478.234  14
  -8 -16  -1-38.9269 366.141   9
  -8  16  -2 29871.5 1623.18  20
  -8 -16  -2 29819.1 1704.41  11
  -8 -16  -2 28709.9 1847.36  14
   8 -16   2 30840.9 2300.27  14
  -8 -16  -2 27002.4 1656.79   9
  -8  16  -3 748.308 325.780  18
  -8 -16  -3 529.351 392.299  11
  -8  16  -3 1088.82 462.877  20
  -8  16  -4 48046.8 2016.08  20
  -8 -16  -4 49949.8 2202.54  11
  -8  16  -5 104.724 326.440  20
  -8 -16  -5 491.205 367.913  11
  -8 -16  -6 2246.70 514.144  11
  -8  16  -6 1603.45 386.671  10
   8  18  -8 9666.44 822.675  12
   8  18  -8 10605.0 929.207  18
   8  18  -7-639.293 320.765  18
   8 -18  -7-1146.35 732.542  14
  -8 -18   7-310.290 280.951   9
   8  18  -6 40424.5 1884.52  18
  -8 -18   6 37413.4 1673.60   9
   8  18  -5 909.768 362.376  18
  -8 -18   5 420.632 383.892   9
   8  18  -4 34731.9 1730.54  18
  -8 -18   3 1098.20 402.260  14
   8 -18  -3 1490.69 1070.29  14
  -8  18   2 39530.2 1679.88  20
  -8 -18   2 38168.1 1784.54  11
  -8 -18   2 36054.5 1886.87  14
   8 -18  -2 32837.5 2749.18  14
  -8  18   1-9.93049 284.547  20
  -8 -18   1 726.044 364.503  11
  -8 -18   1 71.3105 433.489  14
   8 -18  -1 31.2287 895.348  14
  -8  18   0 49494.0 1989.41  20
  -8 -18   0 53222.8 2160.16  11
  -8 -18   0 50467.4 2330.78  14
  -8  18  -1 247.555 316.529  20
  -8 -18  -1-51.1629 244.160  11
  -8 -18  -1 88.7902 407.039  14
   8 -18   1-656.267 721.430  14
  -8 -18  -1 265.270 370.288   9
  -8  18  -2 23309.2 1409.48  20
  -8 -18  -2 23085.3 1442.59  11
  -8 -18  -2 20998.9 1538.57  14
  -8 -18  -2 20388.7 1398.44   9
  -8  18  -3 2.11382 322.295  20
  -8  18  -3 61.4053 87.6813  18
  -8 -18  -3-148.242 324.275  11
  -8 -18  -3 527.085 430.525  14
  -8  18  -4 40904.5 1770.16  20
  -8 -18  -4 41071.0 1871.14  11
  -8  18  -5 148.597 272.374  20
  -8 -18  -5 4.09961 232.140  11
  -8  18  -5 20.9165 196.798  10
   8  20  -7 206.314 198.991  18
   8 -20  -7 1797.66 617.207  14
   8  20  -6 36751.2 1588.40  18
   8 -20  -6 39911.6 2606.25  14
  -8 -20   6 36573.7 1508.14   9
   8  20  -5 20.1767 102.972  18
   8 -20  -5 235.450 800.929  14
  -8 -20   5-196.529 330.749   9
  -8 -20   4 18480.1 1240.00   9
   8 -20  -3 533.223 728.967  14
  -8 -20   3 814.869 415.779   9
  -8 -20   2 21505.1 1384.56  14
   8 -20  -2 19239.4 1981.37  14
  -8  20   1 194.960 276.790  20
  -8 -20   1-128.516 383.781  14
  -8 -20   1-714.001 441.004   9
  -8  20   0 29948.5 1479.80  20
  -8 -20   0 30157.6 1543.14  11
  -8 -20   0 29040.0 1672.21  14
  -8 -20   0 27077.1 1555.68   9
  -8  20  -1-111.666 289.397  20
  -8 -20  -1-83.5280 281.440  11
  -8 -20  -1 827.756 481.092  14
  -8 -20  -1 81.9049 265.203   9
  -8  20  -2 3158.67 505.146  18
  -8 -20  -2 3885.79 588.016  11
  -8 -20  -2 2920.17 629.117  14
  -8 -20  -2 3314.26 560.937   9
  -8  20  -2 4761.90 639.285  20
  -8  20  -3 350.494 297.197  20
  -8 -20  -3 419.486 311.802  11
   8 -22  -3 412.228 563.328  14
  -8 -22   3 37.6705 261.857   9
   8 -22  -2 16856.8 1531.93  14
  -8 -22   2 15811.6 1082.45   9
   8 -22  -1-642.890 502.216  14
  -8 -22   1 665.382 363.581   9
   9  -1 -13-348.232 302.088  12
   9   1 -13 446.379 325.019  18
   9  -1 -12 205.065 282.083  12
   9   1 -12 276.317 304.209  12
   9  -1 -12-116.836 384.626  18
   9   1 -12 30.1408 402.198  18
   9  -1 -11 82106.8 2944.96  12
   9  -1 -11 89219.2 3358.45  18
   9   1 -11 87713.8 3362.41  18
   9   1 -11 80556.1 2860.52  12
   9  -1 -10 157.323 378.206  12
   9   1 -10-491.896 404.419  12
   9  -1 -10-423.879 461.838  18
   9   1 -10 275.348 451.313  18
   9  -1  -9 29956.4 1817.56  12
   9   1  -9 30830.9 1824.79  12
   9  -1  -9 31863.1 2014.82  18
   9   1  -9 32245.9 2057.40  18
   9  -1  -8 1884.35 554.300  12
   9   1  -8 1290.13 453.822  12
   9  -1  -8 1650.05 547.450  18
   9   1  -8 1816.48 633.404  18
   9  -1  -7 85555.9 2955.88  17
   9  -1  -7 79583.2 2703.35  12
   9   1  -7 82300.7 2799.66  12
   9  -1  -7 78783.4 2771.97  18
   9   1  -7 79208.8 2875.39  18
   9   1  -7 82248.5 2827.78  17
   9  -1  -6 707.169 401.176  12
   9  -1  -6 1326.35 439.886  18
   9   1  -6 1714.51 479.552  18
   9   1  -6 1061.44 414.982  12
   9  -1  -6 1064.71 404.049  17
   9   1  -6 1183.08 442.018  17
   9  -1  -5 32308.7 1566.17  12
   9   1  -5 34431.7 1695.36  12
   9  -1  -5 33804.8 1533.32  18
   9   1  -5 31653.9 1562.01  18
   9  -1  -5 32938.9 1734.36  17
   9   1  -5 33818.1 1772.26  17
   9  -1  -4 67.1056 236.837  12
   9   1  -4 173.480 309.171  12
   9  -1  -4 21.8939 249.189  18
   9   1  -4 397.853 314.278  18
  -9  -1   4 52.0805 261.685  11
   9  -1  -4-205.900 327.787  17
   9   1  -4-921.771 447.607  17
  -9   1   4 407.576 341.813   3
  -9   1   3 105476. 2371.09   3
  -9   1   3 108526. 2464.84  11
  -9  -1   3 108131. 2488.95  11
  -9  -1   3 104888. 2427.58   3
   9  -1  -3 111138. 3036.48  17
   9  -1  -3 108728. 2512.93  12
   9  -1  -2 1234.73 446.334   2
   9   1  -2 322.597 277.944   2
  -9   1   2 939.746 292.527  11
  -9  -1   2 637.973 289.392  11
  -9   1   2 583.327 301.343   3
  -9  -1   2 1140.71 353.504   3
  -9   1   2 689.802 316.951   2
  -9  -1   2 287.302 296.991   2
   9   1  -1 87716.5 3729.37   2
  -9   1   1 91117.8 2122.14   3
  -9   1   1 87549.3 3176.62   2
  -9  -1   1 87340.5 2104.23   3
  -9  -1   1 91168.6 3392.45   2
  -9   1   1 93081.0 2179.07  11
  -9  -1   1 91720.5 2217.21  11
   9  -1  -1 84349.9 3300.67   2
   9   1   0-54.5844 110.808   2
  -9   1   0 957.121 266.396  11
  -9   1   0 244.025 260.870   3
  -9  -1   0 273.017 225.043  11
  -9  -1   0 214.345 243.338   3
  -9   1   0 323.187 210.769   5
  -9   1  -1 28472.4 1272.18   3
  -9  -1  -1 27548.9 1228.72   3
  -9   1  -1 32944.6 1335.47   6
  -9  -1  -1 29696.8 1263.01  11
  -9  -1  -1 31630.4 1224.63   5
  -9   1  -1 31273.0 1294.61   5
  -9   1  -2-183.241 200.606   7
  -9   1  -2 364.105 212.763  20
  -9  -1  -2 189.317 241.345   6
  -9   1  -2 383.300 223.876   6
  -9   1  -2 128.405 288.996   3
  -9  -1  -2 36.0182 228.404   3
  -9  -1  -2 120.839 199.346  11
  -9  -1  -2 125.083 195.661   5
  -9   1  -2-109.495 228.140   5
  -9   1  -3 97675.9 2648.66   7
  -9  -1  -3 95054.3 2395.89   3
  -9  -1  -3 93430.6 2749.36   6
  -9   1  -3 95679.3 2808.55   6
  -9  -1  -3 97310.3 2368.58  11
  -9  -1  -3 91246.7 2497.21   5
  -9   1  -3 94160.0 2612.95   5
  -9   1  -4 1618.42 434.755   7
  -9  -1  -4 1487.42 442.639   4
  -9  -1  -4 1720.35 462.605   6
  -9   1  -4 1464.23 492.416   6
  -9  -1  -4 945.736 325.426   3
  -9  -1  -4 2150.88 505.974   5
  -9   1  -4 1048.96 408.974   5
  -9  -1  -4 1342.07 417.543   7
  -9   1  -5 2270.89 533.288   7
  -9  -1  -5 2433.33 624.607   6
  -9   1  -5 1970.27 622.886   6
  -9   1  -5 2333.06 471.102   3
  -9  -1  -5 1665.86 476.467   5
  -9   1  -5 1843.44 516.011   5
  -9  -1  -5 2301.85 566.168   7
  -9  -1  -6 3360.10 560.294  13
  -9   1  -6 3375.98 593.536  13
  -9  -1  -6 3391.10 670.213   7
  -9   1  -6 2844.95 660.147   7
  -9  -1  -6 2608.66 649.347   6
  -9   1  -6 3512.27 766.495   6
  -9  -1  -6 2665.26 631.479   5
  -9   1  -6 2530.63 592.628   5
  -9  -1  -7 69835.8 2895.21   7
  -9   1  -7 65301.4 2829.97   7
  -9  -1  -7 65986.3 3020.41   6
  -9   1  -7 68055.6 3023.28   6
  -9  -1  -7 68181.0 2822.90   5
  -9   1  -7 67612.9 2831.32   5
  -9  -1  -7 69496.4 2374.91  13
  -9   1  -7 72649.7 2470.37  13
  -9  -1  -8 460.629 295.899  13
  -9   1  -8 1360.35 374.055  13
  -9  -1  -8 882.721 429.492   7
  -9  -1  -8 1350.95 582.488   6
  -9   1  -8 13.8352 353.539   6
  -9  -1  -8 893.439 464.577   5
  -9   1  -8-169.708 390.284   5
  -9  -1  -9 2219.16 581.695   6
  -9   1  -9 1256.23 469.860   5
   9  -3 -13 128.894 221.147  12
   9   3 -13 521.491 361.603  18
   9  -3 -12-482.945 357.110  12
   9   3 -12 654.688 296.857  12
   9   3 -12 399.112 425.185  18
   9   3 -11 71095.3 2648.75  12
   9   3 -11 73553.7 3087.79  18
   9  -3 -11 67469.0 2707.36  12
   9  -3 -10 189.006 404.841  12
   9   3 -10 310.127 353.230  12
   9  -3 -10 582.759 458.655  18
   9   3 -10 442.170 474.356  18
   9  -3  -9 37359.1 2023.59  12
   9   3  -9 33437.2 1912.64  12
   9  -3  -9 34782.0 2057.14  18
   9   3  -9 35569.6 2179.97  18
   9  -3  -8 1294.38 474.579  12
   9   3  -8 1891.11 533.900  12
   9  -3  -8 1844.41 560.752  18
   9   3  -8 1582.28 638.217  18
   9  -3  -7 84033.7 2751.40  12
   9   3  -7 86396.5 2947.42  12
   9  -3  -7 79877.8 2735.87  18
   9   3  -7 80757.4 3026.49  18
   9   3  -7 83464.6 2806.22  17
  -9   3   6 434.176 260.200  21
   9  -3  -6 184.521 292.671  12
   9   3  -6 292.526 414.984  12
   9  -3  -6 392.141 334.526  18
   9   3  -6 537.328 341.642  18
   9  -3  -6 314.159 379.259  17
   9   3  -6 104.930 292.930  17
  -9  -3   5 44154.3 1729.66  11
   9  -3  -5 48914.3 1857.23  12
   9  -3  -5 46178.8 1763.39  18
   9   3  -5 43208.1 1941.19  18
   9  -3  -5 46349.1 2029.04  17
   9   3  -5 46767.6 2065.81  17
   9  -3  -4 1862.61 403.984  12
   9   3  -4 1112.12 372.276  18
  -9  -3   4 1506.22 409.749  11
   9  -3  -4 2000.25 506.818  17
  -9   3   4 1417.44 357.635   3
  -9  -3   4 2070.36 422.623   9
   9  -3  -3 106206. 3859.10   1
   9  -3  -3 113707. 2435.82  12
  -9   3   3 109333. 2394.63   3
  -9  -3   3 109586. 2578.64  11
   9  -3  -3 102542. 2842.61  17
  -9  -3   3 112827. 2457.54   9
   9  -3  -2 409.329 215.229   1
  -9   3   2 1026.19 294.733  11
   9  -3  -2 903.954 373.805  17
  -9   3   2 313.752 248.403   3
  -9   3   2-56.6687 112.212   2
  -9  -3   2 459.227 553.627   3
  -9  -3   2 443.790 314.446   9
  -9  -3   2 555.233 321.712  11
   9   3  -1 116863. 4144.92   1
   9   3  -1 123101. 4914.31   2
  -9   3   1 108092. 2424.69   3
  -9   3   1 119976. 3668.11   2
  -9  -3   1 114295. 2454.17   3
  -9  -3   1 117565. 2584.25  11
  -9  -3   1 116063. 2521.25   9
   9   3   0 1107.15 448.115   1
  -9   3   0 1082.66 321.548   3
  -9  -3   0 1023.43 326.548  11
   9   3   0 1973.00 658.138   2
  -9  -3   0 1406.83 359.996   3
  -9   3   0 838.886 268.088   5
  -9   3  -1 40313.8 1486.45  21
  -9  -3  -1 40776.9 1442.58   3
  -9  -3  -1 41605.6 1568.07  11
  -9   3  -1 40351.5 1562.78   5
  -9  -3  -1 40942.3 1395.93  15
  -9   3  -2-212.169 231.594  21
  -9   3  -2 292.080 267.332  20
  -9   3  -2 747.586 325.441   6
  -9  -3  -2 651.413 306.061  11
  -9  -3  -2 21.5996 187.542   3
  -9  -3  -2 260.990 189.570  15
  -9   3  -2 308.275 249.043   5
  -9   3  -3 123772. 3257.61   6
  -9   3  -3 131734. 3046.09   7
  -9   3  -3 123396. 2580.06  20
  -9  -3  -3 123893. 2864.25  11
  -9  -3  -3 124838. 2866.45   5
  -9   3  -3 121999. 3110.92   5
  -9  -3  -3 130053. 2726.51  15
  -9  -3  -4-52.1914 286.897   8
  -9  -3  -4 870.267 429.601   4
  -9   3  -4 222.301 275.880   7
  -9   3  -4-667.642 413.328   6
  -9  -3  -4 207.206 246.487  11
  -9  -3  -4-144.254 284.316   5
  -9  -3  -4 930.508 297.852  15
  -9   3  -4 631.721 359.807   5
  -9  -3  -5 16638.8 1357.47   7
  -9   3  -5 16766.5 1315.46   7
  -9   3  -5 16239.6 1395.81   6
  -9  -3  -5 16404.4 1249.40   5
  -9  -3  -5 17390.2 1156.53  11
  -9   3  -5 16656.2 1319.80   5
  -9   3  -5 16277.4 1172.86  10
  -9  -3  -5 18020.6 1128.76  15
  -9  -3  -5 18469.7 1276.16   4
  -9   3  -6-700.098 366.291  13
  -9  -3  -6 221.436 335.472   7
  -9   3  -6-86.3499 316.484   7
  -9  -3  -6-1171.19 609.488   6
  -9   3  -6 117.168 460.937   6
  -9  -3  -6-553.254 365.323   5
  -9  -3  -6 488.724 301.215  15
  -9   3  -6 31.9118 289.814   5
  -9   3  -6-472.930 336.088  10
  -9  -3  -7 55922.9 2827.46   6
  -9   3  -7 55733.9 2720.66   6
  -9  -3  -7 57349.7 2562.85   5
  -9   3  -7 50418.6 2455.07   5
  -9   3  -7 58670.4 2318.79  10
  -9  -3  -7 56461.3 2122.43  13
  -9   3  -7 57000.4 2216.79  13
  -9  -3  -7 56366.4 2603.45   7
  -9   3  -8 407.250 317.025  13
  -9  -3  -8 551.401 427.630   7
  -9  -3  -8 435.339 396.854   6
  -9  -3  -8 27.0181 288.636   5
  -9   3  -8 179.672 357.848   5
  -9  -3  -9 980.821 369.011   7
  -9  -3  -9 172.004 372.418   6
  -9  -3  -9 1237.00 417.005   5
  -9   3  -9 527.520 349.504   5
   9  -5 -13 463.611 320.490  12
   9   5 -13 799.561 357.369  18
   9  -5 -13 1242.45 457.566  16
   9  -5 -12 2009.60 573.342  12
   9   5 -12 2293.82 452.364  12
   9   5 -12 2070.50 549.069  18
   9  -5 -11 82631.7 3039.45  12
   9   5 -11 85936.4 2824.70  12
   9   5 -11 87669.2 3326.74  18
   9  -5 -10 395.684 429.002  12
   9   5 -10 308.349 350.685  12
   9   5 -10-484.235 458.538  18
   9  -5  -9 20993.9 1549.59  12
   9   5  -9 21556.9 1520.58  12
   9   5  -9 20692.6 1687.31  18
   9  -5  -8 446.387 425.537  12
   9   5  -8 648.068 454.572  12
   9   5  -8 622.395 452.299  18
   9   5  -8 630.914 374.896  17
   9  -5  -7 72703.1 2554.15  12
   9   5  -7 77825.5 2836.83  12
   9   5  -7 77680.3 3070.34  18
   9   5  -7 73171.6 2601.50  17
  -9   5   6 208.940 211.855  21
   9  -5  -6 136.300 267.110  12
   9   5  -6 221.967 479.986  18
   9   5  -6-96.1546 372.470  17
  -9  -5   6-1.44062 216.888   9
  -9   5   5 70777.2 1993.67  21
   9  -5  -5 73427.5 2256.71  12
   9   5  -5 71213.5 2679.54  18
  -9  -5   5 69263.0 2213.42  11
  -9   5   5 70661.5 2059.40   3
   9  -5  -5 71580.0 2504.90  17
   9   5  -5 70861.4 2548.66  17
  -9  -5   5 72321.5 2027.82   9
  -9   5   4 110.554 241.584  21
   9  -5  -4 14.0271 229.847  12
  -9  -5   4 528.953 310.009  11
   9  -5  -4 618.509 367.637  17
  -9   5   4 382.166 262.429   3
  -9  -5   4 77.7782 279.229   9
  -9   5   3 79266.9 2097.84  21
  -9   5   3 77852.6 2024.13   3
   9  -5  -3 83082.9 2073.67  12
  -9  -5   3 78718.8 2259.84  11
   9  -5  -3 79427.6 2398.49  17
  -9  -5   3 80641.0 2157.44   9
  -9   5   2 541.084 352.596  21
  -9  -5   2 523.306 318.547  11
   9  -5  -2 881.000 301.368  17
  -9   5   2 385.658 269.985   3
  -9   5   2 1058.66 467.637   2
  -9  -5   2 540.102 318.320   9
  -9   5   1 142410. 2832.74  21
  -9   5   1 136492. 2758.07   3
  -9  -5   1 135286. 2884.11  11
  -9  -5   1 130139. 2702.30   3
  -9  -5   1 136846. 2840.84   9
  -9   5   0 1158.23 334.608  21
  -9   5   0 1140.55 349.596   3
  -9  -5   0 1152.30 360.303  11
  -9  -5   0 1685.22 386.815   3
  -9  -5   0 1156.00 401.832   9
  -9   5  -1 42166.0 1555.76  21
  -9   5  -1 42208.3 1528.65  20
  -9  -5  -1 48012.2 1582.89   3
  -9  -5  -1 42792.2 1680.17  11
  -9   5  -1 43828.7 1726.47   5
  -9  -5  -1 44020.2 1580.24  15
  -9  -5  -1 40199.8 1610.23   9
  -9   5  -2-59.2302 260.122  20
  -9   5  -2 140.510 250.491  21
  -9  -5  -2 84.6541 301.299  11
  -9  -5  -2 67.2018 234.061  15
  -9   5  -2 229.573 278.633   5
  -9  -5  -3 99827.5 2719.17  11
  -9   5  -3 100347. 2938.56   5
  -9   5  -3 97402.5 2427.14  20
  -9  -5  -3 99059.6 2564.43  15
  -9  -5  -3 96985.1 2907.07   4
  -9  -5  -3 99058.0 2895.10   8
  -9  -5  -4-229.584 297.209   8
  -9  -5  -4 252.667 358.926   4
  -9  -5  -4-1.87666 286.617  15
  -9   5  -4 526.660 444.127   5
  -9   5  -4-682.137 315.950  20
  -9  -5  -5 16668.8 1273.19   4
  -9   5  -5 16900.7 1074.58  20
  -9  -5  -5 15182.0 1200.45   5
  -9   5  -5 16565.3 1355.60   5
  -9  -5  -5 16497.0 1156.97  15
  -9   5  -5 18109.8 1256.02  10
  -9   5  -6 107.334 326.394  13
  -9  -5  -6 45.0465 314.233   7
  -9  -5  -6-383.065 278.004  11
  -9  -5  -6 282.234 346.033   5
  -9  -5  -6 272.060 227.378  15
  -9   5  -6-272.702 293.090  10
  -9   5  -6 71.3130 368.250   5
  -9  -5  -7 64849.7 2775.16   7
  -9  -5  -7 62591.4 3042.57   6
  -9  -5  -7 66459.1 2435.69  11
  -9  -5  -7 67675.9 2716.00   5
  -9   5  -7 62230.7 2728.17   5
  -9   5  -7 63388.8 2423.35  10
  -9  -5  -7 62635.1 2253.03  15
  -9   5  -7 61985.7 2349.25  13
  -9   5  -8 184.369 242.964  13
  -9  -5  -8-526.594 431.837   6
  -9  -5  -8 111.724 295.547   7
  -9  -5  -8 319.036 356.898   5
  -9   5  -8-539.853 296.130  10
  -9  -5  -8-117.212 251.643  15
  -9   5  -8 623.044 400.439   5
  -9  -5  -9-5.45614 240.078   7
  -9   5  -9 42.6130 195.019   5
   9  -7 -12 137.529 401.414  12
   9   7 -12-10.8256 310.700  18
   9  -7 -11 55925.3 2535.89  12
   9   7 -11 57025.0 2243.44  12
   9   7 -11 59624.9 2683.59  18
   9   7 -10 3100.05 634.160  12
   9   7 -10 3728.45 784.426  18
   9  -7 -10 2915.39 675.208  12
   9  -7  -9 25084.6 1704.55  12
   9   7  -9 24546.4 1650.44  12
   9   7  -9 25081.4 1841.12  18
   9  -7  -8 76.6456 390.594  12
   9   7  -8 44.9822 393.712  12
   9   7  -8 55.0462 229.199  17
   9  -7  -7 72091.2 2585.23  12
   9   7  -7 78648.7 3148.13  18
   9   7  -7 71602.7 2563.24  17
  -9  -7   7 77806.0 2111.27   9
  -9   7   6 409.683 296.904  21
   9  -7  -6 932.358 380.828  12
   9   7  -6 1631.31 592.381  18
   9   7  -6 1065.12 462.831  17
  -9  -7   6 385.903 312.916   9
   9  -7  -5 47241.7 1854.35  12
  -9   7   5 48497.5 1726.35  21
   9   7  -5 49370.7 2371.77  18
  -9  -7   5 46027.9 1886.61  11
  -9   7   5 51036.1 1748.94   3
   9   7  -5 48047.1 2125.34  17
  -9  -7   5 48827.3 1745.74   9
  -9  -7   5 49135.8 1743.77   8
  -9  -7   4-234.082 318.545   8
  -9   7   4 74.9498 292.103  21
   9  -7  -4-90.4223 251.000  12
   9   7  -4 179.661 357.361  18
  -9  -7   4 256.153 296.051  11
  -9   7   4 126.680 253.955   3
  -9  -7   4 171.069 267.837   9
  -9   7   3 67852.2 2031.93  21
   9  -7  -3 74118.8 2223.28  17
  -9   7   3 69723.7 1959.51   3
  -9  -7   3 65574.3 2156.08  11
   9  -7  -3 69001.2 1949.12  12
  -9  -7   3 67409.3 2067.11   9
  -9   7   2 382.954 336.713  21
  -9  -7   2 602.385 345.683  11
  -9   7   2 222.892 273.672   3
  -9  -7   2 57.2177 261.843   9
  -9   7   1 69468.0 2066.84  21
  -9   7   1 68171.9 2040.91   3
  -9  -7   1 69426.3 2188.21  11
  -9  -7   1 68856.6 2131.52   9
  -9  -7   0 192.380 334.238   8
  -9   7   0 61.1551 265.866  20
  -9   7   0 165.161 243.767  21
  -9  -7   0 177.510 292.207  11
  -9  -7   0 385.999 356.646   9
  -9   7  -1 17623.0 1056.88  21
  -9   7  -1 17571.6 1066.43  20
  -9  -7  -1 18086.7 1167.09  11
  -9  -7  -1 17112.5 1069.14  15
  -9  -7  -1 18689.2 1177.98   9
  -9  -7  -1 17653.0 1277.04   8
  -9  -7  -2-274.627 412.786   8
  -9  -7  -2 331.815 367.260   4
  -9   7  -2 35.2919 254.904  21
  -9   7  -2-57.4940 268.572  20
  -9  -7  -2 289.249 342.443  11
  -9  -7  -2-180.785 276.590  15
  -9   7  -2 135.144 309.737   5
  -9  -7  -2 155.687 294.969   9
  -9   7  -3 88965.4 2235.98  21
  -9  -7  -3 80370.8 2586.03  11
  -9   7  -3 79104.7 2299.80  20
  -9   7  -3 78818.4 2745.04   5
  -9  -7  -3 82729.8 2486.59  15
  -9  -7  -3 82869.4 2859.12   4
  -9  -7  -3 76616.6 2681.13   8
  -9  -7  -4-965.438 454.716   8
  -9  -7  -4-220.577 391.451   4
  -9   7  -4 230.775 310.636  20
  -9  -7  -4-100.192 296.793  15
  -9   7  -4 43.3945 316.893   5
  -9  -7  -5 11930.6 1168.49   4
  -9   7  -5 10730.7 1140.50   5
  -9   7  -5 10372.6 894.582  20
  -9  -7  -5 11899.2 1034.01  15
  -9  -7  -6-606.959 428.645   7
  -9   7  -6-308.055 272.887  20
  -9  -7  -6 86.4595 249.118  11
  -9   7  -6 33.9738 314.874  10
  -9   7  -6-270.526 415.232   5
  -9   7  -7 65787.5 2439.23  13
  -9  -7  -7 67800.0 2817.12   7
  -9  -7  -7 69266.4 2534.37  11
  -9   7  -7 65951.7 2770.54   5
  -9   7  -7 67351.7 2479.77  10
  -9  -7  -7 66345.1 2369.47  15
  -9   7  -8-10.7792 295.585  13
  -9  -7  -8 199.879 360.458   7
   9   7   8-407.371 331.009  19
  -9  -7  -8 493.132 436.963   6
  -9  -7  -8-22.5170 268.331  11
  -9  -7  -8-16.4892 161.972  15
  -9   7  -8 28.8982 257.964  10
  -9   7  -8 664.474 324.214   5
   9  -9 -12 1071.33 439.594  12
   9   9 -12 881.706 376.882  18
   9  -9 -12 1377.60 525.660  16
   9   9 -11 62138.6 2234.85  12
   9   9 -11 62190.9 2653.26  18
   9  -9 -11 58869.8 2607.45  12
   9  -9 -10-561.824 426.389  12
   9   9 -10-144.888 342.874  12
   9   9 -10 495.736 406.036  18
   9   9  -9 17641.3 1396.68  12
   9   9  -9 17924.0 1553.71  18
   9  -9  -9 18750.8 1510.97  12
   9  -9  -8 906.224 496.319  12
   9   9  -8 606.117 477.485  12
   9   9  -8 974.841 518.555  18
   9   9  -7 95678.8 3484.49  18
   9   9  -7 100880. 2946.64  17
   9  -9  -7 98402.6 3113.35  12
  -9  -9   7 104200. 2545.69   9
   9  -9  -6 647.284 356.559  12
   9   9  -6 66.2030 271.741  17
  -9  -9   6 139.040 306.326   9
  -9   9   6-3.48651 259.747  21
   9  -9  -5 17821.5 1206.69  12
  -9   9   5 16484.2 1088.76  21
   9   9  -5 17152.9 1471.01  18
  -9  -9   5 15554.3 1164.68  11
  -9   9   5 18155.6 1071.96   3
  -9  -9   5 17347.6 1119.91   9
  -9  -9   5 17985.4 1115.14   8
  -9  -9   4 195.949 370.062   8
  -9   9   4-5.20607 309.685  21
   9  -9  -4-327.761 252.443  12
  -9  -9   4 16.1349 278.590  11
  -9   9   4-221.400 277.644   3
   9   9  -4-1112.04 429.693  18
  -9  -9   4 210.012 298.138   9
   9  -9  -3 39849.8 1586.58  12
  -9   9   3 39731.4 1510.50   3
  -9  -9   3 37575.9 1716.11  11
  -9   9   3 36139.0 1567.94  21
  -9  -9   3 37934.5 1645.86   9
  -9  -9   3 38825.4 1713.21   8
  -9  -9   2 451.482 408.916   8
  -9   9   2 239.344 342.268  21
  -9  -9   2 532.141 359.847  11
  -9   9   2 531.193 307.564   3
  -9  -9   2 401.564 367.612   9
  -9   9   1 68372.0 2103.69   3
  -9   9   1 69305.9 2131.96  20
  -9  -9   1 69219.9 2270.33  11
  -9   9   1 69445.0 2167.42  21
  -9  -9   1 70626.5 2335.77  14
  -9  -9   1 71039.1 2301.13   9
  -9  -9   1 70263.8 2440.89   8
  -9  -9   0 1962.04 565.874   8
  -9   9   0 1988.90 460.135  21
  -9   9   0 1949.97 460.921  20
  -9  -9   0 1893.23 506.373  11
  -9  -9   0 1879.52 499.680  14
  -9  -9   0 2019.43 500.477   9
  -9   9  -1 13693.7 988.551  21
  -9   9  -1 14064.9 1000.67  20
  -9  -9  -1 14448.3 1113.28  11
  -9  -9  -1 13549.1 1090.72   9
  -9  -9  -1 14004.0 1196.40   4
  -9  -9  -1 14326.4 1235.50   8
  -9  -9  -2 374.397 435.861   8
  -9  -9  -2 499.744 431.605   4
  -9   9  -2 611.028 315.072  21
  -9   9  -2 159.417 304.045  20
  -9  -9  -2 432.845 351.556  11
  -9  -9  -2 424.032 344.496  15
  -9  -9  -2 410.763 437.613   9
  -9  -9  -3 64719.8 2588.95   8
  -9   9  -3 69299.3 2255.45  20
  -9  -9  -3 68909.9 2501.72  11
  -9   9  -3 70190.4 2729.33   5
  -9  -9  -3 67310.1 2370.12  15
  -9  -9  -3 69923.1 2777.94   4
  -9  -9  -4 683.891 476.095   4
  -9   9  -4 256.831 312.911  20
   9   9   4 320.344 301.941  19
  -9  -9  -4 182.991 344.003  11
  -9  -9  -4 1052.68 406.379  15
  -9   9  -4 112.612 402.249   5
  -9   9  -5 5994.77 722.938  20
   9   9   5 6475.10 796.115  19
  -9  -9  -5 6830.10 881.163  11
  -9   9  -5 6266.35 920.590   5
  -9  -9  -5 6636.72 827.270  15
  -9   9  -6 210.626 262.954  20
   9   9   6-437.460 361.331  19
  -9  -9  -6-199.154 341.983  11
  -9  -9  -6 366.131 337.326  15
  -9   9  -6 476.047 326.647  10
  -9   9  -6 717.641 441.674   5
  -9   9  -7 57221.5 2250.21  13
  -9  -9  -7 69854.6 2809.27   7
   9   9   7 67268.9 2346.66  19
  -9  -9  -7 63280.1 2427.16  11
  -9   9  -7 68241.6 2778.95   5
  -9   9  -7 63732.7 2379.87  10
  -9  -9  -7 61974.6 2309.01  15
  -9  -9  -8-412.343 329.661   7
   9   9   8 529.930 332.986  19
  -9  -9  -8-220.771 209.674  11
  -9  -9  -8-257.633 225.640  15
  -9   9  -8 948.209 365.189  10
  -9   9  -8-454.607 337.841   5
   9 -11 -12-144.108 385.094  12
   9  11 -12 432.688 288.659  18
   9 -11 -12-452.473 348.388  16
   9 -11 -11 51452.7 2401.75  12
   9  11 -11 53042.2 2302.25  18
   9 -11 -11 47557.8 2431.72  16
   9 -11 -10 756.643 479.390  12
   9  11 -10 1389.29 452.362  12
   9  11 -10 1263.00 496.646  18
   9 -11  -9 5728.89 924.149  12
   9  11  -9 5907.09 852.537  12
   9  11  -9 6900.98 989.749  18
   9 -11  -8 550.868 410.632  12
   9  11  -8 456.315 388.822  12
   9  11  -8 133.784 435.809  18
   9 -11  -7 46951.6 2230.60  12
   9  11  -7 47748.8 2436.13  18
  -9 -11   7 50221.3 1855.87   9
   9 -11  -6 168.982 375.267  12
   9  11  -6-677.664 480.342  18
   9  11  -6 648.712 295.311  17
  -9 -11   6 105.621 354.548   9
  -9 -11   5 23296.6 1341.54   8
   9 -11  -5 22550.8 1429.79  12
  -9 -11   5 21779.7 1395.87  11
   9  11  -5 21356.8 1622.47  18
   9  11  -5 23253.3 1469.49  17
  -9 -11   5 21742.2 1314.93   9
  -9 -11   4 1100.24 417.345   8
  -9  11   4 1174.26 440.247  21
   9  11  -4 1708.05 530.185  18
  -9 -11   4 750.560 384.601  11
   9 -11  -4 423.716 284.849  12
  -9  11   4 917.441 310.871   3
  -9 -11   4 758.255 420.235   9
  -9 -11   3 46013.3 1993.66   8
   9 -11  -3 48407.5 1893.16  12
  -9  11   3 47567.4 1824.43  20
  -9  11   3 47168.3 1664.93   3
  -9  11   3 46430.2 1886.22  21
  -9 -11   3 42611.9 1895.87  11
  -9 -11   3 46864.5 1940.95   9
  -9 -11   2 2375.24 613.508   8
  -9  11   2 2216.71 474.244  20
  -9 -11   2 1718.87 457.554  11
  -9  11   2 2146.88 445.804   3
  -9 -11   2 2031.04 489.592  14
  -9 -11   2 1891.16 535.373   9
  -9  11   2 1887.30 505.188  21
  -9  11   1 49502.8 1947.59  21
  -9  11   1 51503.1 1906.39   3
  -9  11   1 50464.4 1916.85  20
  -9 -11   1 48930.1 2025.25  11
  -9 -11   1 50090.0 2100.82  14
  -9 -11   1 52061.9 2085.41   9
  -9 -11   1 49433.1 2104.82   4
  -9 -11   1 51740.2 2242.86   8
  -9 -11   0-55.0309 386.153   4
  -9 -11   0 82.2504 415.225   8
  -9  11   0 69.5372 304.729  20
  -9 -11   0 260.979 318.863  11
  -9 -11   0-889.491 487.797  14
  -9 -11   0-117.742 368.891   9
  -9 -11  -1 9344.82 1067.29   8
  -9 -11  -1 9090.05 932.165  11
  -9 -11  -1 9330.56 1008.24  14
  -9 -11  -1 8681.45 934.862   9
  -9 -11  -1 8001.67 1002.49   4
  -9  11  -1 8773.05 865.883  20
  -9 -11  -2-70.6754 454.630   8
  -9 -11  -2-183.260 432.572   4
  -9  11  -2 104.697 347.700  20
  -9 -11  -2 12.0166 326.920  11
  -9 -11  -2 254.942 384.190   9
  -9 -11  -3 75547.5 2993.22   4
  -9  11  -3 68884.1 2331.31  20
  -9 -11  -3 73210.6 2674.74  11
  -9 -11  -3 69732.0 2526.93  15
  -9 -11  -4-149.036 462.866   4
  -9  11  -4-334.136 342.564  20
  -9 -11  -4 70.2269 334.273  11
  -9 -11  -4 543.551 357.254  15
  -9  11  -5 5413.62 725.828  20
   9  11   5 5909.07 715.225  19
  -9 -11  -5 6149.74 843.644  11
  -9 -11  -5 5789.41 775.520  15
  -9  11  -6 182.372 274.745  20
   9  11   6 252.302 292.298  19
  -9 -11  -6 1352.36 460.866  11
  -9 -11  -6-64.7059 307.898  15
  -9  11  -6 1112.92 393.609  10
  -9 -11  -7 60167.4 2526.01   7
   9  11   7 57268.3 2024.10  19
  -9 -11  -7 53385.0 2204.20  11
  -9  11  -7 54256.5 2123.32  10
  -9 -11  -7 54230.3 2142.77  15
   9 -13 -11 38291.5 2017.04  12
   9  13 -11 37720.0 1791.42  18
   9 -13 -11 37980.4 1986.26  16
   9 -13 -10 1818.65 564.962  12
   9  13 -10 1063.58 339.825  12
   9  13 -10 896.512 413.515  18
   9 -13 -10 1392.83 569.485  16
   9 -13  -9 13052.7 1300.04  12
   9  13  -9 11277.3 1055.66  12
   9  13  -9 12534.9 1200.31  18
   9 -13  -8-521.870 492.801  12
   9  13  -8 97.5155 325.666  18
   9 -13  -7 51918.9 2432.39  12
   9  13  -7 49750.5 2417.15  18
   9 -13  -7 54109.1 3757.47  14
  -9 -13   7 50655.8 1905.40   9
   9 -13  -6 823.258 442.162  12
  -9  13   6 920.624 354.581  19
   9  13  -6 361.861 408.634  18
  -9 -13   6 1424.51 446.709   9
   9 -13  -5 20830.8 1454.45  12
  -9  13   5 21952.2 1218.53  20
  -9 -13   5 23281.8 1427.07  11
   9  13  -5 22397.9 1641.44  18
  -9 -13   5 21874.9 1372.11   9
   9 -13  -4 1349.13 456.784  12
   9  13  -4 1937.83 479.709  18
  -9 -13   4 1187.34 409.833  11
  -9  13   4 1682.73 391.647  20
  -9 -13   4 1208.52 467.894   9
   9 -13  -3 47344.2 1997.50  12
  -9  13   3 45655.9 1828.74  20
  -9 -13   3 45929.4 2016.06  11
  -9 -13   3 48542.5 2042.63  14
  -9 -13   3 52207.6 2010.65   4
  -9 -13   2-69.1721 284.797   4
  -9  13   2 179.655 282.105  20
  -9 -13   2 622.131 365.977  11
  -9  13   2-150.682 244.014   3
  -9 -13   2-695.540 397.589  14
  -9  13   1 44669.4 1873.53  20
  -9  13   1 44794.8 1817.52   3
  -9 -13   1 42333.9 1943.90  11
  -9 -13   1 43659.4 2072.22  14
  -9 -13   1 43744.0 2015.37   9
  -9 -13   1 46734.7 2120.61   4
  -9 -13   0 4625.18 774.168   4
  -9  13   0 6008.56 733.739  20
  -9 -13   0 5392.76 749.195  11
  -9 -13   0 4958.53 819.410  14
  -9 -13   0 5229.80 784.531   9
  -9 -13  -1 10847.3 1059.42  11
  -9 -13  -1 10416.9 1133.34  14
  -9 -13  -1 10304.8 1049.11   9
  -9  13  -1 11002.1 988.832  20
  -9 -13  -1 11420.8 1189.07   4
  -9  13  -2 93.0683 321.150  20
  -9 -13  -2 150.974 414.520   4
  -9 -13  -2-12.6497 338.818  11
  -9 -13  -2 520.427 499.141  14
  -9 -13  -2 873.941 478.490   9
  -9  13  -3 59204.0 2228.55  20
  -9 -13  -3 60035.7 2465.19  11
  -9  13  -4 277.028 344.290  20
  -9 -13  -4 468.761 336.176  11
  -9  13  -5 4160.46 631.897  20
  -9 -13  -5 4201.60 716.219  11
  -9  13  -6 299.376 289.771  20
  -9 -13  -6 623.876 403.653  11
  -9  13  -6 722.593 293.313  10
  -9 -13  -7 38276.7 1912.41   7
  -9 -13  -7 34979.3 1706.78  11
   9 -15 -10 499.262 408.773  12
   9  15 -10-106.880 291.046  18
   9 -15  -9 10898.4 1173.76  12
   9  15  -9 10059.1 927.354  12
   9  15  -9 11188.1 1017.39  18
   9 -15  -9 9332.63 982.833  16
   9 -15  -8 663.203 475.568  12
   9  15  -8 293.884 328.968  18
   9 -15  -8 15.2003 280.372  16
   9 -15  -8 15.6991 675.398  14
   9 -15  -7 44914.2 2281.52  12
   9  15  -7 46886.6 2217.88  18
  -9 -15   7 45366.5 1800.44   9
   9 -15  -6 499.716 430.755  12
   9  15  -6-691.673 318.131  18
  -9 -15   6 340.685 351.201   9
   9 -15  -6-147.067 895.657  14
   9 -15  -5 28991.2 1763.30  12
  -9 -15   5 32444.3 1636.66  11
   9  15  -5 31236.3 1821.91  18
  -9 -15   5 29467.0 1621.73   9
   9 -15  -4 1243.81 457.893  12
  -9  15   4-35.8932 256.385  20
  -9 -15   4 1343.18 422.317  11
  -9 -15   4 1044.16 478.215   9
  -9  15   3 73367.6 2329.51  20
  -9 -15   3 71317.2 2510.14  11
  -9 -15   3 68163.6 2483.02  14
  -9 -15   2 2451.81 507.004   4
  -9  15   2 1819.84 441.633  20
  -9 -15   2 2094.09 499.391  11
  -9 -15   2 2349.99 606.172  14
  -9 -15   1 62740.7 2470.73   4
  -9  15   1 57575.8 2168.26  20
  -9  15   1 60073.9 2091.13   3
  -9 -15   1 56810.4 2291.72  11
  -9 -15   1 58744.6 2457.40  14
  -9 -15   1 59919.4 2415.46   9
  -9 -15   0 340.052 386.348   4
  -9  15   0 253.790 338.893  20
  -9  15   0 288.458 294.864   3
  -9 -15   0 269.920 349.305  11
  -9 -15   0 490.998 476.069  14
  -9 -15   0 270.657 399.625   9
  -9 -15  -1 42774.2 2231.88   4
  -9 -15  -1 40214.1 1979.90  11
  -9  15  -1 41812.3 1889.44  20
  -9 -15  -1 42368.3 2173.92  14
  -9 -15  -1 39757.8 1989.69   9
  -9  15  -2-435.910 366.967  20
  -9 -15  -2-115.434 355.162  11
  -9 -15  -2-647.249 469.505  14
  -9 -15  -2-541.910 379.486   9
  -9  15  -3 50437.5 2077.63  20
  -9 -15  -3 49879.9 2251.21  11
  -9  15  -4 389.786 335.748  20
  -9 -15  -4 919.716 422.357  11
  -9  15  -5 4496.19 657.422  20
  -9 -15  -5 4107.46 686.928  11
  -9 -15  -6 2.17544 282.732  11
  -9  15  -6 406.837 284.819  10
   9 -17  -9 6650.02 891.767  12
   9  17  -9 8189.61 785.383  18
   9 -17  -8 943.480 464.209  12
   9  17  -8-67.8674 233.538  12
   9  17  -8 647.870 317.632  18
   9 -17  -7 32227.8 1880.05  12
   9  17  -7 34996.7 1755.37  18
  -9 -17   7 36994.7 1556.83   9
   9 -17  -6 1035.27 486.410  12
   9  17  -6 196.382 254.994  18
   9 -17  -6 1528.71 955.959  14
  -9 -17   6 1021.34 427.977   9
   9 -17  -5 26799.2 1689.26  12
   9  17  -5 31860.8 1713.34  18
   9 -17  -5 28392.4 2785.03  14
  -9 -17   5 28278.9 1573.19   9
   9 -17  -4 420.235 958.070  14
  -9 -17   4 60.6011 379.978   9
  -9 -17   3 45824.3 1978.89  11
  -9  17   3 43597.4 1756.28  20
   9 -17  -3 38935.6 3055.99  14
  -9 -17   3 45078.6 2068.87   9
  -9  17   2-101.572 338.221  20
  -9 -17   2-801.642 367.343  11
  -9 -17   2-991.783 454.977  14
  -9 -17   2 368.761 456.915   9
  -9  17   1 60348.4 2189.74  20
  -9 -17   1 60762.8 2368.64  11
  -9 -17   1 55664.1 2379.34  14
  -9 -17   1 58135.4 2375.63   9
  -9  17   0-326.891 335.369  20
  -9  17   0 927.269 329.917   3
  -9 -17   0 494.751 364.854  11
  -9 -17   0-115.594 476.022  14
   9 -17   0-381.533 776.383  14
  -9 -17   0-14.9277 398.866   9
  -9  17  -1 30374.5 1605.43  20
  -9  17  -1 29833.9 1542.39   3
  -9 -17  -1 29807.7 1684.62  11
  -9 -17  -1 28925.1 1783.15  14
   9 -17   1 27085.8 2265.89  14
  -9 -17  -1 29422.4 1681.96   9
  -9  17  -2 187.279 324.583  20
  -9  17  -2-72.8262 259.655   3
  -9 -17  -2-114.520 358.204  11
  -9 -17  -2 349.828 325.101   9
  -9  17  -3 47023.3 1972.14  20
  -9 -17  -3 48555.7 2111.31  11
  -9  17  -4-65.2990 296.328  20
  -9 -17  -4-125.062 276.943  11
  -9  17  -5 5447.11 658.991  20
  -9 -17  -5 5136.60 679.979  11
  -9  17  -5 5085.28 612.783  10
   9  19  -7 42268.6 1687.26  18
   9 -19  -7 40449.4 2596.74  14
  -9 -19   7 40002.9 1476.36   9
   9  19  -6-424.938 194.963  18
   9 -19  -6-187.571 700.156  14
  -9 -19   6-68.6975 285.498   9
  -9 -19   5 10427.6 928.940   9
   9 -19  -5 11202.4 1645.46  14
  -9 -19   4 102.617 361.103   9
   9 -19  -3 30412.7 2541.62  14
  -9 -19   3 29462.5 1615.44   9
  -9  19   2-797.295 321.944  20
  -9 -19   2-125.904 341.111   9
  -9  19   1 30164.2 1487.16  20
  -9 -19   1 30368.1 1583.94  11
  -9 -19   1 30596.7 1701.04  14
   9 -19  -1 27304.8 2292.39  14
  -9 -19   1 27904.7 1599.86   9
  -9  19   0 159.045 324.736  20
  -9 -19   0-4.37808 251.570  11
  -9 -19   0 337.911 416.427  14
   9 -19   0-823.157 611.974  14
  -9 -19   0 601.305 388.610   9
  -9  19  -1 11611.1 967.775  20
  -9 -19  -1 11985.9 1038.79  11
  -9 -19  -1 9258.01 924.613   9
   9 -19   1 10206.6 1303.13  14
  -9  19  -2-250.120 263.852  20
  -9 -19  -2 74.5056 248.838  11
  -9 -19  -2 108.761 312.051   9
  -9  19  -3 53437.0 1944.92  20
  -9 -19  -3 53348.3 2033.22  11
   9 -21  -4 1177.90 749.318  14
  -9 -21   4 379.953 276.270   9
   9 -21  -3 23810.2 1991.15  14
  -9 -21   3 23289.6 1305.43   9
   9 -21  -2-720.399 652.787  14
  -9 -21   2-203.586 298.779   9
   9 -21  -1 18610.2 1656.90  14
  -9 -21   1 17772.7 1167.10   9
  -9  21   0-459.115 252.921  20
   9 -21   0 316.610 476.562  14
  -9 -21   0-519.041 295.960   9
  10   0 -13-955.061 336.842  12
  10   0 -12 47729.9 2374.07  18
  10   0 -12 44782.5 2077.24  12
  10   0 -11 239.244 401.033  12
  10   0 -11 358.952 499.578  18
  10   0 -10 141.975 325.072  12
  10   0 -10 127.082 418.433  18
  10   0  -9 338.390 444.187  12
  10   0  -9 123.114 423.870  18
  10   0  -8 107170. 3368.42  12
  10   0  -8 101986. 3475.23  18
  10   0  -7-59.6120 418.762  12
  10   0  -7-32.8173 384.776  18
  10   0  -7-562.196 432.538  17
  10   0  -6 10439.9 1036.60  12
  10   0  -6 9068.66 944.799  18
  10   0  -6 9593.38 1061.48  17
  10   0  -5 781.154 425.451  12
  10   0  -5 221.969 269.581  18
  10   0  -5 171.044 425.040  17
  10   0  -4 99765.1 2763.04  12
  10   0  -4 101933. 2468.05  18
 -10   0   4 96017.2 2509.02  11
 -10   0   4 95160.9 2508.07   3
  10   0  -4 98680.5 3091.01  17
  10   0  -3-8.88644 253.507  12
 -10   0   3-260.376 237.752  11
 -10   0   3 145.687 271.234   3
  10   0  -2 86170.3 2257.35  12
 -10   0   2 82556.2 2193.00   3
 -10   0   2 88045.3 2308.63  11
 -10   0   1-86.8504 232.333  11
 -10   0   1-143.604 277.088   3
 -10   0   0 90157.0 2262.65   3
 -10   0   0 83882.7 2222.78  11
 -10   0  -1 196.333 179.506  11
 -10   0  -1 88.2025 248.867   3
 -10   0  -1-386.211 223.427   5
 -10   0  -2 106095. 2715.40   6
 -10   0  -2 104528. 2582.34   5
 -10   0  -3-627.420 261.380   7
 -10   0  -3-25.8705 255.788   3
 -10   0  -3-123.239 232.783   5
 -10   0  -4 21798.5 1449.01   7
 -10   0  -4 20780.7 1260.42   3
 -10   0  -4 20156.1 1423.02   6
 -10   0  -4 21205.1 1357.99   5
 -10   0  -4 22531.7 1286.98   4
 -10   0  -5-662.623 360.721   7
 -10   0  -5-490.848 371.192   6
 -10   0  -5-208.966 286.843   5
 -10   0  -6 57788.4 2599.00   7
 -10   0  -6 57084.8 2661.85   6
 -10   0  -6 55508.8 2418.94   5
 -10   0  -7-256.434 306.890   7
 -10   0  -7-813.989 466.147   6
 -10   0  -7 503.166 409.769   5
 -10   0  -8 5160.38 863.886   6
 -10   0  -8 5173.12 792.663   5
  10  -2 -13 487.116 277.135  12
  10   2 -13-214.554 167.094  12
  10   2 -13 398.416 406.602  18
  10   2 -12 46997.7 2066.46  12
  10   2 -12 51760.6 2456.39  18
  10  -2 -12 46416.1 2126.74  12
  10  -2 -11 316.104 347.179  12
  10   2 -11 108.231 304.946  12
  10  -2 -11 276.338 469.260  18
  10   2 -11-10.0613 372.248  18
  10  -2 -10 632.859 440.246  12
  10   2 -10-166.020 360.560  12
  10  -2 -10 184.307 514.029  18
  10   2 -10 498.242 525.907  18
  10  -2  -9-28.5968 386.272  12
  10   2  -9-225.490 439.199  12
  10  -2  -9 548.330 510.043  18
  10   2  -9 419.957 532.869  18
  10  -2  -8 100511. 3244.95  12
  10   2  -8 105029. 3395.37  12
  10  -2  -8 101197. 3378.65  18
  10   2  -8 92317.7 3446.37  18
  10   2  -8 104220. 3371.99  17
 -10   2   7 2709.97 458.809  21
  10  -2  -7 2786.31 585.580  12
  10   2  -7 3072.83 656.854  12
  10  -2  -7 2861.28 620.023  18
  10   2  -7 2235.94 614.173  18
  10  -2  -7 3370.07 676.867  17
  10   2  -7 2675.26 630.292  17
  10  -2  -6 14875.2 1180.68  12
  10   2  -6 16339.9 1315.71  12
  10  -2  -6 14731.0 1133.93  18
  10   2  -6 15149.5 1272.02  18
  10  -2  -6 15883.8 1300.94  17
  10   2  -6 15920.6 1327.80  17
  10  -2  -5 892.220 387.390  12
  10   2  -5 478.357 357.358  12
  10  -2  -5 530.264 330.112  18
  10   2  -5 929.498 396.015  18
  10  -2  -5 167.225 358.384  17
  10   2  -5 1058.77 454.094  17
  10  -2  -4 97519.7 2585.38  12
  10   2  -4 94640.3 2863.95  12
  10   2  -4 93621.6 2484.60  18
 -10  -2   4 99206.9 2601.78  11
 -10   2   4 93388.1 2436.92   3
  10  -2  -4 94794.3 2993.60  17
  10  -2  -3 370.865 227.127  12
 -10  -2   3 91.4771 251.619  11
  10  -2  -3 112.407 374.353  17
 -10   2   3 126.631 261.306   3
 -10  -2   3 36.6117 296.654   3
 -10   2   2 77409.3 2089.70   3
 -10   2   2 80761.1 2154.88  11
 -10  -2   2 76466.2 2169.65   3
 -10  -2   2 76201.3 2212.27  11
 -10   2   1 564.014 291.408  11
 -10  -2   1 1041.14 359.507  11
 -10   2   1 711.305 295.461   3
 -10  -2   1 499.873 296.281   3
 -10   2   0 38821.3 1580.58   3
 -10  -2   0 40584.5 1540.09   3
 -10  -2   0 42081.6 1619.77  11
 -10   2   0 41251.6 1489.50   5
 -10   2  -1 1149.78 386.576   3
 -10  -2  -1 821.250 280.928  11
 -10  -2  -1 1032.67 327.993   3
 -10   2  -1 956.132 304.122   5
 -10   2  -2 115945. 2594.22  21
 -10   2  -2 113245. 2792.37   3
 -10   2  -2 114149. 2478.22  20
 -10  -2  -2 121764. 2891.97   6
 -10  -2  -2 121980. 2696.64   3
 -10   2  -2 124613. 3010.57   6
 -10  -2  -2 115129. 2730.35  11
 -10   2  -2 113617. 2826.92   5
 -10   2  -3 473.746 287.791  20
 -10  -2  -3 345.243 282.190   6
 -10   2  -3 670.976 299.668   6
 -10   2  -3 120.393 270.159   3
 -10  -2  -3 321.700 258.833  11
 -10  -2  -3 544.661 327.733   3
 -10  -2  -3 75.2206 243.658   5
 -10   2  -3 35.7595 312.234   5
 -10  -2  -4 9846.92 997.918   7
 -10   2  -4 11648.9 1043.73   7
 -10  -2  -4 10800.2 1083.78   6
 -10   2  -4 10239.3 1068.23   6
 -10  -2  -4 10293.1 942.584   5
 -10   2  -4 10194.4 935.881   3
 -10   2  -4 10335.7 1018.53   5
 -10  -2  -4 12420.4 1039.43   4
 -10  -2  -5-222.804 251.875   4
 -10  -2  -5 440.686 422.452   7
 -10   2  -5 995.758 437.292   7
 -10  -2  -5 45.1243 313.039   6
 -10   2  -5-29.5736 306.866   6
 -10   2  -5 1285.18 416.540   3
 -10  -2  -5 585.717 338.043   5
 -10   2  -5 444.602 358.882   5
 -10  -2  -6 54223.2 2515.13   7
 -10   2  -6 58887.9 2583.02   7
 -10  -2  -6 53974.1 2626.71   6
 -10   2  -6 57063.4 2648.02   6
 -10  -2  -6 52854.1 2329.91   5
 -10   2  -6 54969.5 2456.43   5
 -10  -2  -7 144.524 311.136   7
 -10  -2  -7 124.168 385.248   6
 -10  -2  -7-344.093 376.084   5
 -10   2  -7 63.5362 354.766   5
 -10  -2  -8 3423.62 675.361   6
 -10  -2  -8 1467.84 440.750   5
 -10   2  -8 3092.82 626.084   5
  10  -4 -13 224.803 318.229  12
  10   4 -13 606.268 340.596  18
  10   4 -12 43616.1 1930.18  12
  10  -4 -12 42059.9 2082.93  12
  10   4 -12 46378.6 2286.35  18
  10  -4 -11 145.285 361.062  12
  10   4 -11 75.7076 301.134  12
  10   4 -11 33.0268 463.254  18
  10  -4 -10 1528.86 575.602  12
  10   4 -10 1346.51 500.410  12
  10   4 -10 1101.67 576.871  18
  10  -4  -9 241.512 370.911  12
  10   4  -9 600.589 447.703  12
  10   4  -9 189.732 497.590  18
  10  -4  -8 84072.9 2962.74  12
  10   4  -8 87732.0 3140.46  12
  10   4  -8 88666.1 3444.24  18
  10   4  -8 84409.1 2950.77  17
  10  -4  -7 133.900 371.899  12
  10   4  -7 112.499 411.444  12
  10   4  -7 174.344 413.261  18
 -10   4   7 50.4555 239.929  21
  10   4  -7 66.3111 423.154  17
 -10   4   6 36146.6 1474.88  21
  10  -4  -6 37705.1 1798.24  12
  10   4  -6 32839.6 1959.87  18
  10  -4  -6 38828.4 2032.33  17
  10   4  -6 37118.5 1959.95  17
  10   4  -6 37328.4 2000.66  12
 -10   4   5 2513.71 463.399  21
  10  -4  -5 1731.76 437.429  12
  10   4  -5 1769.97 493.072  18
 -10  -4   5 1968.83 464.510  11
  10  -4  -5 2646.92 633.226  17
  10   4  -5 2556.83 592.250  17
 -10  -4   5 1898.13 420.380   9
 -10   4   5 2138.49 459.637   3
 -10   4   4 92227.0 2357.48  21
 -10   4   4 91842.1 2391.77   3
  10  -4  -4 91686.0 2425.04  12
 -10  -4   4 91105.9 2555.51  11
  10  -4  -4 92658.2 2862.57  17
 -10  -4   4 92117.5 2383.11   9
 -10   4   3 437.487 260.291  21
  10  -4  -3 720.073 266.072  12
 -10  -4   3 888.048 367.624  11
  10  -4  -3 479.828 374.073  17
 -10   4   3 519.240 278.810   3
 -10  -4   3 531.433 340.046   9
 -10   4   2 85955.6 2287.03  21
 -10   4   2 88173.3 2281.07   3
 -10  -4   2 82915.6 2391.81  11
 -10  -4   2 83329.4 2313.25   3
  10  -4  -2 83456.3 2630.44  17
 -10  -4   2 85899.5 2318.39   9
 -10   4   1 691.065 361.734  21
 -10  -4   1 753.052 324.704  11
 -10   4   1 527.903 320.805   3
  10  -4  -1 443.853 306.393  17
 -10  -4   1 700.726 330.301   3
 -10  -4   1 788.432 356.941   9
 -10   4   0 64636.7 2005.91  21
 -10   4   0 67139.1 2099.17   3
 -10  -4   0 66472.7 1992.82   3
 -10  -4   0 66082.7 2097.79  11
 -10   4  -1 348.203 298.299  21
 -10   4  -1 232.225 241.141  20
 -10   4  -1 526.303 351.465   3
 -10  -4  -1 166.114 261.211  11
 -10  -4  -1 233.298 242.242   3
 -10   4  -1 48.5975 245.177   5
 -10   4  -2 119241. 2649.33  21
 -10   4  -2 113239. 2591.94  20
 -10  -4  -2 111735. 2826.93  11
 -10   4  -2 114530. 2993.67   5
 -10  -4  -3 537.502 426.097   8
 -10  -4  -3-34.5189 336.906   4
 -10   4  -3 274.055 548.083  20
 -10  -4  -3 433.220 338.792  11
 -10  -4  -3 723.465 270.828  15
 -10   4  -3 104.931 265.230   5
 -10   4  -4 21188.7 1165.05  20
 -10  -4  -4 21997.3 1326.36  11
 -10   4  -4 18160.2 1358.38   5
 -10  -4  -4 21134.1 1222.82  15
 -10  -4  -4 20070.2 1368.39   4
 -10  -4  -4 21497.6 1372.98   8
 -10  -4  -5 1224.17 448.223   7
 -10  -4  -5 1020.44 430.219   4
 -10  -4  -5 1794.16 552.049   6
 -10  -4  -5 1050.66 383.019  11
 -10  -4  -5 2116.93 452.971  15
 -10   4  -5 1873.84 529.900  10
 -10   4  -5 1052.77 443.566   5
 -10  -4  -6 64001.5 2753.88   7
 -10   4  -6 65129.9 2399.88   3
 -10  -4  -6 63662.0 2895.41   6
 -10  -4  -6 64354.1 2475.56   5
 -10   4  -6 60972.3 2601.41   5
 -10   4  -6 63798.8 2384.67  10
 -10  -4  -7 218.315 363.349   7
 -10  -4  -7 940.918 477.612   6
 -10   4  -7 217.331 351.307   5
 -10  -4  -8 1320.57 469.888   7
 -10  -4  -8 2035.79 595.297   6
 -10   4  -8 599.995 349.145   5
  10  -6 -12 37860.2 1977.13  12
  10   6 -12 36971.9 1706.64  12
  10   6 -12 36737.8 1997.70  18
  10  -6 -11 282.483 409.613  12
  10   6 -11 537.882 366.915  12
  10   6 -11 91.8548 437.425  18
  10  -6 -10 1908.95 584.479  12
  10   6 -10 1423.24 542.194  12
  10   6 -10 1714.87 621.286  18
  10  -6  -9 578.605 449.127  12
  10   6  -9 245.658 423.495  12
  10   6  -9 165.517 432.745  18
  10  -6  -8 92220.3 3125.29  12
  10   6  -8 94300.7 3298.28  12
  10   6  -8 100105. 3680.13  18
  10   6  -8 94526.2 3040.31  17
 -10   6   7 1677.49 406.963  21
  10  -6  -7 1912.00 541.275  12
  10   6  -7 1588.29 576.782  12
  10   6  -7 1821.71 613.227  18
  10   6  -7 1438.89 498.328  17
 -10   6   6 27799.9 1338.90  21
  10   6  -6 25360.3 1826.02  18
  10   6  -6 24650.0 1626.61  17
  10  -6  -6 27397.2 1545.12  12
 -10  -6   6 27037.5 1321.48   9
 -10  -6   6 29017.8 1345.89   8
 -10   6   5 184.945 289.588  21
  10  -6  -5-167.423 285.582  12
  10   6  -5 107.149 407.831  18
 -10  -6   5-58.7481 322.494  11
  10   6  -5 172.230 371.517  17
 -10   6   5 88.7367 294.576   3
 -10  -6   5-4.96844 307.317   9
 -10   6   4 81456.8 2281.98  21
  10  -6  -4 85312.8 2353.43  12
 -10   6   4 81825.2 2251.54   3
 -10  -6   4 83002.3 2512.69  11
  10  -6  -4 83878.4 2653.75  17
 -10  -6   4 83512.7 2314.61   9
 -10   6   3 113.672 304.428  21
  10  -6  -3-100.950 217.948  12
 -10  -6   3 438.704 335.159  11
  10  -6  -3-135.279 255.789  17
 -10   6   3-17.0715 278.793   3
 -10  -6   3-8.38373 337.470   9
 -10   6   2 53429.5 1868.70  21
 -10   6   2 56143.1 1888.91   3
 -10  -6   2 53586.3 1985.64  11
  10  -6  -2 56475.8 1993.87  17
 -10  -6   2 54162.8 1906.40   9
 -10   6   1 2032.24 454.784  21
 -10   6   1 1822.95 425.010   3
 -10  -6   1 2007.15 449.101  11
 -10  -6   1 1777.31 438.382   9
 -10   6   0 52562.7 1861.40  21
 -10   6   0 53392.6 1958.35   3
 -10  -6   0 54043.4 2001.88  11
 -10  -6   0 50662.1 1911.87   9
 -10   6  -1 82.5531 272.602  20
 -10   6  -1-141.346 275.119  21
 -10  -6  -1-19.6919 275.993  11
 -10  -6  -1 399.085 327.643   9
 -10   6  -2 90943.6 2446.21  20
 -10   6  -2 92331.3 2395.53  21
 -10  -6  -2 92313.7 2713.59  11
 -10   6  -2 91173.7 2805.41   5
 -10  -6  -2 92417.3 2533.59  15
 -10  -6  -2 87644.7 2859.79   8
 -10  -6  -3 384.974 397.906   8
 -10  -6  -3 216.203 361.809   4
 -10   6  -3 10.5025 271.696  20
 -10  -6  -3-71.6310 338.499  11
 -10  -6  -3-118.931 250.082  15
 -10   6  -3 605.607 331.762   5
 -10   6  -4 17204.7 1099.96  20
 -10  -6  -4 16349.8 1209.10  11
 -10   6  -4 16134.8 1326.04   5
 -10  -6  -4 17653.6 1199.67  15
 -10  -6  -4 17013.9 1362.32   4
 -10  -6  -4 18092.1 1318.89   8
 -10  -6  -5-316.305 332.910   4
 -10   6  -5 12.6577 217.391  20
 -10  -6  -5 730.021 362.647  11
 -10  -6  -5 369.252 291.598  15
 -10   6  -5 627.581 403.398   5
 -10  -6  -6 52682.0 2509.98   7
 -10  -6  -6 49941.5 2600.86   6
 -10  -6  -6 53953.4 2187.27  11
 -10   6  -6 51437.0 2423.28   5
 -10   6  -6 53804.2 2224.23  10
 -10  -6  -6 53458.9 2076.32  15
 -10  -6  -7 345.958 349.172   7
 -10  -6  -7 729.828 468.876   6
 -10   6  -7-163.488 246.279   3
 -10  -6  -7 187.929 241.284  15
 -10   6  -7-233.332 262.719  10
 -10   6  -7-8.57428 273.641   5
  10   6   8-197.258 253.856  19
 -10  -6  -8-266.765 289.249   7
 -10  -6  -8 1226.59 504.646   6
 -10   6  -8 1503.31 454.972   5
  10  -8 -12 40272.8 2018.58  12
  10   8 -12 38190.6 1617.34  12
  10   8 -12 40394.7 1989.75  18
  10  -8 -11 1250.10 519.742  12
  10   8 -11 1886.95 473.468  12
  10   8 -11 1924.22 590.183  18
  10  -8 -10 2118.50 613.906  12
  10   8 -10 1558.75 502.663  12
  10   8 -10 1733.22 621.846  18
  10  -8  -9-492.325 420.232  12
  10   8  -9 419.799 483.067  12
  10   8  -9 168.140 504.019  18
  10  -8  -8 92285.9 3149.06  12
  10   8  -8 95689.5 3325.05  12
  10   8  -8 95266.6 3595.71  18
  10   8  -8 94160.7 2948.45  17
 -10   8   7-69.7257 282.013  21
  10  -8  -7-32.8677 321.993  12
  10   8  -7-141.687 264.807  17
 -10  -8   7 53.6834 277.351   9
  10  -8  -6 11849.2 1059.85  12
  10   8  -6 15121.3 1482.77  18
 -10   8   6 13277.8 967.725  21
  10   8  -6 13176.8 1186.91  17
 -10  -8   6 14218.5 1022.56   9
 -10  -8   5 365.632 312.528   8
 -10   8   5 713.680 360.100  21
  10  -8  -5 85.0730 268.363  12
  10   8  -5-268.538 430.272  18
 -10  -8   5 457.283 334.627  11
 -10   8   5 542.963 322.576   3
 -10  -8   5 272.808 327.064   9
  10  -8  -4 54804.7 1945.07  12
 -10   8   4 50102.1 1875.34  21
 -10   8   4 52016.6 1818.71   3
 -10  -8   4 49092.1 2011.79  11
 -10  -8   4 50399.0 1890.25   9
 -10  -8   4 51253.7 1949.17   8
 -10  -8   3-119.736 347.824   8
 -10   8   3 263.066 311.639  21
  10  -8  -3 74.3504 216.691  12
 -10  -8   3 83.5055 338.471  11
 -10   8   3-90.3420 243.933   3
 -10  -8   3 245.859 374.928   9
 -10   8   2 38222.0 1653.60  21
 -10   8   2 36239.4 1585.81   3
 -10  -8   2 39212.6 1786.44  11
 -10  -8   2 38979.4 1699.41   9
 -10  -8   2 38871.6 1789.80   8
 -10  -8   1-200.153 377.808   8
 -10   8   1 181.601 312.518  21
 -10   8   1-84.8958 328.710   3
 -10  -8   1-313.891 325.072  11
 -10  -8   1-48.1924 355.247   9
 -10   8   0 43047.0 1744.31  21
 -10   8   0 43757.2 1759.06  20
 -10   8   0 42415.8 1773.21   3
 -10  -8   0 42127.8 1848.18  11
 -10  -8   0 42375.7 1833.17   9
 -10  -8   0 41626.6 1983.52   8
 -10  -8  -1 215.917 427.120   8
 -10   8  -1 340.914 295.470  21
 -10   8  -1 450.242 352.007  20
 -10  -8  -1 600.731 379.035  11
 -10  -8  -1 128.298 360.579   9
 -10   8  -2 76358.0 2255.65  21
 -10   8  -2 74348.0 2326.26  20
 -10  -8  -2 75487.9 2575.96  11
 -10  -8  -2 78237.6 2514.02   9
 -10  -8  -2 72481.7 2754.89   4
 -10  -8  -2 70192.4 2666.35   8
 -10  -8  -3 166.538 381.281   8
 -10  -8  -3 47.4621 447.346   4
 -10   8  -3-277.018 316.723  20
 -10  -8  -3 120.850 314.041  11
 -10  -8  -3 228.722 288.468  15
 -10   8  -3 217.539 340.996   5
 -10  -8  -4 10891.8 1173.69   4
 -10  -8  -4 11589.5 1092.81   8
 -10   8  -4 12261.8 974.303  20
 -10  -8  -4 10577.0 1028.90  11
 -10   8  -4 11655.9 1161.71   5
 -10  -8  -4 12653.5 1058.38  15
 -10   8  -5 220.469 277.945  20
 -10  -8  -5 44.6179 293.188  11
 -10  -8  -5-151.484 282.187  15
 -10   8  -5-85.0675 339.638   5
 -10  -8  -6 69454.5 2878.38   7
  10   8   6 68316.2 2327.41  19
 -10  -8  -6 64227.0 2426.21  11
 -10   8  -6 68698.0 2780.55   5
 -10   8  -6 62766.1 2394.84  10
 -10  -8  -6 64423.1 2327.92  15
  10   8   7-141.512 254.943  19
 -10  -8  -7 402.424 418.147   6
 -10   8  -7-321.705 315.315   3
 -10  -8  -7-869.435 455.876   7
 -10  -8  -7 140.720 284.308  11
 -10  -8  -7 854.076 347.594  15
 -10   8  -7 878.644 352.224  10
 -10   8  -7 513.571 359.884   5
 -10   8  -8 558.953 306.516  10
  10 -10 -12 44779.8 2099.46  12
  10  10 -12 44737.2 1939.08  18
  10 -10 -12 42496.5 2126.73  16
  10  10 -11-510.619 265.888  12
  10  10 -11-26.6730 316.506  18
  10 -10 -10-3.05673 388.178  12
  10  10 -10-142.149 321.440  12
  10  10 -10-677.571 410.347  18
  10 -10  -9 1414.62 544.503  12
  10  10  -9 1497.85 532.502  12
  10  10  -9 836.330 485.610  18
  10 -10  -8 75160.8 2902.00  12
  10  10  -8 74196.1 2932.17  12
  10  10  -8 77013.3 3179.06  18
  10 -10  -7 95.7478 388.287  12
  10  10  -7-6.89833 438.959  18
  10  10  -7 159.040 282.521  17
 -10 -10   7 273.376 318.859   9
 -10  10   6 11066.0 940.946  21
  10 -10  -6 10421.4 1041.18  12
 -10 -10   6 9880.49 986.740  11
  10  10  -6 11381.1 1308.11  18
  10  10  -6 11107.7 1079.82  17
 -10 -10   6 11972.6 989.904   9
 -10 -10   5 292.456 363.212   8
 -10  10   5 110.632 315.341  21
  10 -10  -5 24.2200 275.918  12
  10  10  -5 3.40265 407.118  18
 -10 -10   5-13.6145 327.007  11
 -10  10   5-137.805 253.785   3
 -10 -10   5-126.235 344.920   9
 -10  10   4 53141.7 2012.71  21
 -10  10   4 55909.9 1896.85   3
 -10 -10   4 53790.1 2174.67  11
  10 -10  -4 55032.2 2067.43  12
 -10 -10   4 54662.8 2050.56   9
 -10 -10   4 56237.9 2154.17   8
 -10 -10   3 545.910 404.598   8
 -10  10   3 406.908 370.801  21
 -10 -10   3-15.7018 296.446  11
 -10  10   3 20.0962 275.403   3
 -10 -10   3 114.594 335.093   9
 -10  10   2 42191.0 1809.24  21
 -10  10   2 41042.4 1757.39  20
 -10  10   2 37816.8 1658.14   3
 -10 -10   2 40978.2 1898.83  11
 -10 -10   2 39943.4 1808.55   9
 -10 -10   2 42234.6 1971.54   8
 -10 -10   1 243.008 426.319   8
 -10  10   1 188.950 288.953  21
 -10  10   1 486.866 363.103  20
 -10  10   1 361.852 281.122   3
 -10 -10   1 220.473 329.333  11
 -10 -10   1 764.614 448.355   9
 -10  10   0 30186.7 1538.11  21
 -10  10   0 29912.1 1543.46   3
 -10  10   0 29780.9 1522.58  20
 -10 -10   0 31343.4 1681.74  11
 -10 -10   0 29745.1 1614.53   9
 -10 -10   0 32522.0 1820.61   4
 -10 -10   0 29643.8 1769.33   8
 -10 -10  -1 148.864 475.990   8
 -10 -10  -1-139.494 471.860   4
 -10  10  -1 90.8902 326.800  21
 -10  10  -1-159.922 340.298  20
 -10 -10  -1 68.5475 307.817  11
 -10 -10  -1-169.154 317.566   9
 -10 -10  -2 73761.5 2864.03   8
 -10  10  -2 72673.6 2380.41  20
 -10 -10  -2 78245.7 2740.96  11
 -10 -10  -2 75815.1 2605.49   9
 -10 -10  -2 80376.8 3022.22   4
 -10 -10  -3 47.7218 479.959   8
 -10 -10  -3-9.02179 454.860   4
 -10  10  -3 62.8493 311.986  20
 -10 -10  -3-639.557 408.497  11
 -10 -10  -4 10875.8 1195.41   4
 -10  10  -4 10091.5 931.332  20
 -10 -10  -4 10429.6 1059.90  11
 -10 -10  -4 9529.99 972.057  15
 -10  10  -5 1245.26 392.382  20
 -10 -10  -5 1185.60 489.999  11
 -10 -10  -5 1379.49 451.102  15
 -10 -10  -6 66377.0 2761.04   7
 -10  10  -6 63377.8 2131.93  20
 -10 -10  -6 60964.4 2370.97  11
 -10 -10  -6 60779.3 2272.79  15
 -10  10  -6 63347.4 2371.13  10
 -10 -10  -7-149.176 250.924   7
 -10  10  -7-564.854 289.511   3
 -10 -10  -7-462.436 313.526  11
 -10 -10  -7-232.430 261.039  15
 -10  10  -7 351.207 262.535  10
  10 -12 -11-455.768 448.353  12
  10  12 -11 218.393 181.239  12
  10  12 -11 703.294 352.426  18
  10 -12 -11-270.720 398.413  16
  10 -12 -10 1431.75 508.968  12
  10  12 -10 537.656 373.141  12
  10  12 -10 486.597 368.141  18
  10 -12  -9 709.945 440.720  12
  10  12  -9 254.530 306.516  12
  10  12  -9 753.828 468.194  18
  10  12  -8 76487.8 2892.55  12
  10  12  -8 74228.4 2992.84  18
  10 -12  -8 73264.0 2900.84  12
  10  12  -7 5939.32 939.077  18
 -10 -12   7 5100.86 640.643   9
  10 -12  -7 5938.85 866.715  12
  10 -12  -6 5303.97 818.917  12
 -10  12   6 5423.99 655.200  20
  10  12  -6 5532.29 905.104  18
  10  12  -6 4979.85 694.965  17
 -10 -12   6 5578.09 699.722   9
  10 -12  -5 775.481 403.793  12
 -10  12   5 1084.53 365.915  20
  10  12  -5 936.073 503.025  18
 -10 -12   5 1063.64 398.697  11
  10  12  -5 2456.90 534.111  17
 -10 -12   5 906.286 407.348   9
 -10 -12   4 51069.8 2120.10   8
  10 -12  -4 51613.6 2113.85  12
 -10  12   4 48654.7 1914.98  20
 -10 -12   4 49576.8 2136.40  11
 -10 -12   4 49291.6 2039.78   9
 -10 -12   4 53100.4 1969.80   4
 -10 -12   3 113.206 291.666   4
 -10 -12   3 23.9441 432.213   8
 -10  12   3 358.588 305.265  20
 -10 -12   3 170.598 362.468  11
 -10  12   3-422.518 293.755   3
 -10 -12   3-187.247 403.428   9
 -10 -12   2 18772.7 1401.59   8
 -10  12   2 19777.7 1281.50  20
 -10  12   2 17553.9 1137.62   3
 -10 -12   2 18241.3 1341.67  11
 -10 -12   2 18804.6 1330.69   9
 -10 -12   2 19169.9 1328.62   4
 -10 -12   1 1513.25 510.163   4
 -10 -12   1 1959.22 620.462   8
 -10  12   1 2151.85 474.561  20
 -10  12   1 2139.44 504.434   3
 -10 -12   1 2126.44 552.330  11
 -10 -12   1 2092.65 562.740   9
 -10 -12   0 17875.6 1452.92   8
 -10  12   0 16854.8 1193.38   3
 -10  12   0 16112.1 1182.93  20
 -10 -12   0 18282.9 1345.76  11
 -10 -12   0 16464.9 1261.39   9
 -10 -12   0 17006.2 1387.10   4
 -10 -12  -1-98.3094 457.720   8
 -10 -12  -1 26.2646 450.490   4
 -10  12  -1 96.9376 380.245  20
 -10 -12  -1-180.350 476.673  11
 -10 -12  -1-267.772 468.286   9
 -10 -12  -2 58844.0 2661.52   4
 -10  12  -2 60583.6 2242.71  20
 -10 -12  -2 61267.7 2489.34  11
 -10 -12  -2 53006.4 2255.43   9
 -10 -12  -3-3.12485 493.329   4
 -10  12  -3-50.7397 324.140  20
 -10 -12  -3 308.530 332.923  11
 -10  12  -4 11837.5 998.230  20
 -10 -12  -4 12631.2 1169.71  11
 -10  12  -5-224.700 265.171  20
 -10 -12  -5-7.48835 275.696  11
 -10 -12  -6 44517.4 2196.08   7
 -10  12  -6 38666.9 1645.63  20
 -10 -12  -6 41182.1 1910.71  11
 -10  12  -6 41869.5 1854.20  10
  10 -14 -10 1543.23 514.460  12
  10  14 -10 681.608 268.202  12
  10  14 -10 221.020 291.837  18
  10 -14 -10 1396.58 510.897  16
  10 -14  -9 2760.99 635.413  12
  10  14  -9 2485.49 538.131  12
  10  14  -9 2741.88 588.161  18
  10 -14  -9 1341.73 470.470  16
  10 -14  -8 46375.8 2327.44  12
  10  14  -8 49301.9 2216.41  12
  10  14  -8 45991.4 2206.48  18
  10 -14  -7 621.029 466.486  12
  10  14  -7 426.835 297.283  18
  10 -14  -6 23228.7 1601.23  12
  10  14  -6 25847.1 1720.76  18
 -10 -14   6 24302.7 1419.33   9
  10 -14  -5-159.620 367.942  12
 -10  14   5 169.584 247.960  20
  10  14  -5-113.601 354.773  18
 -10 -14   5 127.646 302.237  11
 -10 -14   5 574.286 419.401   9
  10 -14  -4 65539.5 2462.12  12
 -10  14   4 64673.9 2191.40  20
 -10 -14   4 64317.3 2428.69  11
 -10 -14   4 69078.8 2482.73   9
 -10 -14   3 1248.55 419.799   4
 -10  14   3 738.813 365.601  20
 -10 -14   3 969.443 409.500  11
 -10 -14   3 1525.59 508.918   9
 -10  14   2 60172.9 2228.81  20
 -10 -14   2 55001.1 2292.64  11
 -10 -14   2 58346.5 2348.60   9
 -10 -14   2 61291.5 2345.39   4
 -10 -14   1 1233.44 523.581   4
 -10  14   1 1296.44 475.124  20
 -10 -14   1 1201.67 483.972  11
 -10  14   1 1059.39 426.987   3
 -10 -14   1 1566.78 577.659   9
 -10 -14   0 52281.5 2376.09   4
 -10  14   0 51372.3 2106.22  20
 -10  14   0 50413.3 2054.49   3
 -10 -14   0 52637.5 2278.93  11
 -10 -14   0 52837.1 2256.22   9
 -10 -14  -1 781.174 506.541   4
 -10  14  -1 485.705 357.922  20
 -10  14  -1 732.836 389.825   3
 -10 -14  -1 213.979 388.359  11
 -10 -14  -1 488.096 430.311   9
 -10 -14  -2 50271.3 2441.76   4
 -10  14  -2 48051.2 2034.44  20
 -10 -14  -2 49737.4 2252.68  11
 -10 -14  -2 43045.9 2010.33   9
 -10  14  -3 159.099 328.302  20
 -10 -14  -3-140.292 393.655  11
 -10  14  -4 15814.9 1146.10  20
 -10 -14  -4 16652.3 1292.69  11
 -10  14  -5 692.506 320.391  20
 -10 -14  -5 717.066 371.026  11
 -10  14  -6 23840.1 1242.55  20
 -10 -14  -6 26959.7 1486.22  11
 -10  14  -6 27180.7 1411.00  10
  10 -16  -9 931.276 457.976  12
  10  16  -9 1642.91 407.904  18
  10 -16  -8 36861.0 1997.54  12
  10  16  -8 35499.3 1737.67  12
  10  16  -8 39043.2 1849.84  18
  10 -16  -7 646.380 432.006  12
  10  16  -7 1072.98 418.361  18
 -10 -16   7 830.594 362.997   9
  10 -16  -7 1942.67 1021.05  14
  10 -16  -6 20317.0 1491.60  12
  10  16  -6 22411.7 1461.86  18
  10 -16  -6 20121.9 2426.39  14
 -10 -16   6 20242.9 1268.35   9
  10 -16  -5 212.609 364.784  12
 -10 -16   5 576.180 312.343  11
 -10 -16   5 78.8375 336.234   9
  10 -16  -5-113.884 975.541  14
 -10  16   4 41957.2 1704.60  20
 -10 -16   4 43752.8 1954.74  11
 -10 -16   4 39711.5 1911.96   9
 -10  16   3 277.188 274.718  20
 -10 -16   3 805.967 404.408  11
 -10 -16   3 542.754 415.365   9
 -10 -16   2 61351.5 2276.41   4
 -10  16   2 57056.2 2122.75  20
 -10 -16   2 53835.2 2253.19  11
 -10 -16   2 55903.6 2306.56   9
 -10 -16   1 386.695 368.303   4
 -10 -16   1 434.799 410.130  11
 -10  16   1 583.006 244.341   3
 -10  16   1 865.529 332.040  20
 -10 -16   1 834.346 457.076   9
 -10  16   0 34212.8 1712.44  20
 -10  16   0 32331.4 1600.68   3
 -10 -16   0 33927.6 1818.53  11
 -10 -16   0 32130.9 1756.99   9
 -10  16  -1 509.814 318.561  20
 -10  16  -1 846.186 359.997   3
 -10 -16  -1 564.415 400.620  11
 -10 -16  -1-452.431 398.038   9
 -10  16  -2 43355.1 1901.03   3
 -10  16  -2 44459.9 1927.54  20
 -10 -16  -2 47409.0 2136.85  11
 -10  16  -3 82.5980 295.177  20
 -10  16  -3-632.699 300.411   3
 -10 -16  -3 19.3889 304.081  11
 -10  16  -4 8503.95 819.947   3
 -10  16  -4 7711.21 765.970  20
 -10 -16  -4 8557.04 919.073  11
  10  18  -8 37872.0 1575.83  12
  10  18  -8 39967.7 1611.27  18
  10  18  -7-1403.64 320.153  18
 -10 -18   7-118.870 247.950   9
 -10 -18   6 10237.4 880.634   9
 -10 -18   5-154.630 353.106   9
  10 -18  -4 35634.6 2904.21  14
 -10 -18   4 37642.7 1768.35   9
 -10  18   3-198.551 270.838  20
 -10 -18   3 392.865 314.180  11
 -10 -18   3 226.199 369.778   9
 -10  18   2 32728.8 1537.91  20
 -10 -18   2 33745.8 1701.72  11
 -10 -18   2 32517.9 1709.53   9
 -10  18   1 429.585 318.468  20
 -10 -18   1 523.137 356.082  11
 -10 -18   1 336.566 387.393   9
  10 -18  -1 638.688 899.441  14
 -10  18   0 20396.6 1280.53  20
 -10 -18   0 19393.7 1342.14  11
  10 -18   0 17245.8 1847.29  14
 -10 -18   0 18542.8 1289.91   9
 -10  18  -1 510.046 316.192  20
 -10 -18  -1 916.004 384.632  11
 -10  18  -1 1362.50 354.611   3
 -10  18  -2 50107.6 1962.18  20
 -10  18  -2 52406.3 1929.35   3
 -10 -18  -2 50137.2 2062.86  11
 -10  18  -3 1.84353 276.000  20
 -10 -18  -3 64.7294 216.670  11
 -10 -20   5 502.018 290.857   9
  10 -20  -4 25671.5 2190.19  14
 -10 -20   4 27113.6 1399.95   9
 -10 -20   3-53.6891 334.085   9
 -10  20   2 21966.7 1141.46  20
 -10 -20   2 19948.7 1249.51   9
 -10  20   1 336.712 250.238  20
 -10 -20   1-785.745 262.132  11
 -10 -20   1 61.6265 339.232   9
  10 -20  -1 440.418 593.395  14
 -10  20   0 16118.2 1046.22  20
 -10 -20   0 16213.1 1130.72  11
 -10 -20   0 15796.6 1079.49   9
 -10  20  -1-32.1131 216.686  20
 -10 -20  -1 446.274 254.904  11
 -10 -20  -1-15.3039 179.734   9
  11  -1 -13 38305.7 1748.20  12
  11   1 -13 39511.1 1712.14  12
  11  -1 -12 86.5864 299.696  12
  11   1 -12 216.438 309.091  12
  11  -1 -11 85.9648 359.869  12
  11   1 -11 69.9994 331.816  12
  11  -1 -11-134.026 361.766  18
  11   1 -11 320.439 454.003  18
  11  -1 -10 69.0611 442.106  12
  11   1 -10 710.702 461.071  12
  11  -1 -10 48.7319 417.218  18
  11   1 -10 117.207 514.848  18
  11  -1  -9 84360.5 3153.97  12
  11   1  -9 87257.9 3198.85  12
  11  -1  -9 82143.7 3309.80  18
  11   1  -9 82517.4 3371.75  18
  11  -1  -8 996.423 491.822  12
  11   1  -8 812.901 491.242  12
  11  -1  -8 1712.21 588.273  18
  11   1  -8 1979.05 695.182  18
  11   1  -8 891.675 459.832  17
  11  -1  -7 7753.50 972.462  12
  11  -1  -7 7183.22 943.775  18
  11   1  -7 7342.37 981.325  18
  11  -1  -7 8107.03 1033.08  17
  11   1  -7 7217.65 942.348  17
  11   1  -7 7679.13 990.318  12
  11  -1  -6-27.5704 343.797  12
  11   1  -6-606.571 406.882  12
  11  -1  -6 303.049 340.229  18
  11   1  -6-310.032 312.902  18
  11  -1  -6 93.4111 450.182  17
  11   1  -6 299.434 399.090  17
  11  -1  -5 73884.5 2546.47  12
  11   1  -5 75550.4 2711.13  12
  11  -1  -5 74664.7 2381.98  18
  11   1  -5 73411.3 2437.51  18
  11  -1  -5 75224.1 2857.72  17
  11   1  -5 75393.4 2899.05  17
  11  -1  -4-67.0643 286.095  12
  11   1  -4-468.837 392.031  12
 -11  -1   4 520.681 347.415  11
  11  -1  -4 224.004 441.921  17
  11   1  -4-114.232 432.582  17
 -11   1   4 89.3499 282.959   3
  11  -1  -3 79732.1 2323.48  12
  11   1  -3 76437.7 2479.56  12
 -11   1   3 80160.8 2333.30  11
 -11   1   3 79963.2 2336.93   3
 -11  -1   3 77444.3 2345.13  11
 -11  -1   3 78735.1 2352.39   3
  11  -1  -3 79953.1 2926.86  17
  11   1  -2 1892.77 435.208  12
 -11   1   2 2365.23 464.221  11
 -11  -1   2 2181.84 488.035  11
 -11   1   2 2089.67 456.250   3
 -11  -1   2 1803.70 436.512   3
 -11   1   1 85196.5 2349.12   3
 -11  -1   1 83247.0 2337.04   3
 -11   1   1 86887.5 2361.06  11
 -11  -1   1 79683.6 2350.71  11
 -11   1   0 1984.55 405.478  11
 -11  -1   0 1645.27 403.800  11
 -11   1   0 2322.06 460.287   3
 -11  -1   0 2094.07 474.269   3
 -11  -1  -1 106648. 2662.15   3
 -11  -1  -1 111507. 2743.98  11
 -11   1  -1 115938. 2656.83   5
 -11   1  -2-36.4666 245.958  21
 -11   1  -2 225.300 245.424  20
 -11  -1  -2 223.354 211.164  11
 -11   1  -2-58.8143 311.971   3
 -11  -1  -2 527.543 306.300   3
 -11   1  -2-138.166 224.055   5
 -11  -1  -3 38617.3 1860.64   7
 -11   1  -3 36032.1 1709.21   3
 -11  -1  -3 40636.1 1699.42   3
 -11  -1  -3 37743.8 1807.64   6
 -11   1  -3 39763.4 1863.86   6
 -11   1  -3 37734.9 1753.58   5
 -11  -1  -4-107.071 319.921   7
 -11  -1  -4 443.141 307.031   4
 -11  -1  -4-54.2500 279.540   6
 -11   1  -4 508.840 352.121   6
 -11   1  -4 281.869 304.662   3
 -11  -1  -4 255.973 266.696   5
 -11   1  -4 229.306 325.148   5
 -11   1  -5 65847.9 2646.95   7
 -11  -1  -5 66350.1 2686.14   7
 -11  -1  -5 63220.0 2651.81   6
 -11   1  -5 65019.8 2665.30   6
 -11  -1  -5 66119.6 2449.21   5
 -11   1  -5 61785.3 2443.91   5
 -11  -1  -6 200.819 331.081   7
 -11   1  -6 306.542 355.757   7
 -11  -1  -6 24.6624 391.049   6
 -11   1  -6 54.4984 332.282   6
 -11  -1  -6 408.968 305.297   5
 -11   1  -6-329.359 291.016   5
 -11  -1  -7 14825.7 1320.27   7
 -11  -1  -7 13568.0 1326.45   6
 -11  -1  -7 12148.4 1064.41   5
 -11   1  -7 12523.8 1113.04   5
  11   3 -13 31240.4 1472.61  12
  11  -3 -13 32223.4 1615.71  12
  11   3 -13 35561.9 1813.15  18
  11  -3 -12-445.542 388.971  12
  11   3 -12 352.870 347.574  12
  11   3 -12-160.679 407.883  18
  11  -3 -11-558.140 431.238  12
  11   3 -11 524.882 428.487  12
  11   3 -11 423.750 478.030  18
  11  -3 -10-90.7023 384.027  12
  11   3 -10 91.4301 383.598  12
  11   3 -10 499.262 455.003  18
  11  -3  -9 66429.8 2786.25  12
  11   3  -9 66757.1 2827.75  12
  11   3  -9 70964.5 3165.18  18
  11  -3  -8 495.020 478.970  12
  11   3  -8-237.003 441.083  12
  11   3  -8-42.2962 461.344  18
  11   3  -8-479.793 439.572  17
 -11   3   7 19818.2 1122.89  21
  11  -3  -7 19353.7 1434.42  12
  11   3  -7 18728.0 1523.79  12
  11   3  -7 19249.4 1593.04  18
  11   3  -7 18216.9 1459.53  17
  11  -3  -6 2587.39 583.555  12
 -11   3   6 2154.00 442.850  21
  11   3  -6 2535.50 644.479  12
  11   3  -6 1405.25 527.742  18
  11  -3  -6 2306.68 653.122  17
  11   3  -6 2055.21 608.420  17
 -11   3   5 81626.6 2302.07  21
  11  -3  -5 84072.2 2603.72  12
  11   3  -5 80515.5 2919.97  12
  11   3  -5 74776.1 2627.12  18
 -11  -3   5 78735.4 2483.58  11
 -11   3   5 78989.7 2408.49   3
  11  -3  -5 79564.7 2891.62  17
  11   3  -5 80871.0 3019.92  17
  11  -3  -4-246.292 305.398  12
 -11  -3   4 155.431 325.234  11
  11  -3  -4 214.910 384.109  17
 -11   3   4-10.7377 322.065   3
  11  -3  -3 57313.9 1856.84  12
 -11   3   3 56649.8 1929.52   3
 -11  -3   3 57570.3 2085.65  11
  11  -3  -3 55069.3 2361.45  17
 -11  -3   2-173.552 282.282  11
  11  -3  -2 1015.05 471.663  17
 -11   3   2 184.012 296.094   3
 -11  -3   2 481.352 377.497   3
 -11   3   1 69818.2 2159.77   3
 -11  -3   1 66114.9 2115.73   3
 -11  -3   1 68170.8 2237.64  11
 -11   3   0 558.369 341.847  21
 -11  -3   0 294.051 331.833  11
 -11   3   0 342.631 319.761   3
 -11  -3   0 189.434 274.095   3
 -11   3  -1 87050.5 2412.55  21
 -11   3  -1 89901.6 2369.52  20
 -11   3  -1 87906.5 2603.75   3
 -11  -3  -1 93854.7 2498.82   3
 -11  -3  -1 87351.2 2527.63  11
 -11   3  -1 89355.4 2505.26   5
 -11   3  -2 217.345 287.657  21
 -11   3  -2 1.61748 273.275  20
 -11   3  -2 273.854 267.877   3
 -11  -3  -2-333.332 311.029  11
 -11  -3  -2 178.813 276.031   3
 -11   3  -2 315.249 260.919   5
 -11   3  -3 30731.2 1394.65  20
 -11   3  -3 30014.9 1605.18   3
 -11  -3  -3 29826.8 1509.24  11
 -11   3  -3 31273.0 1656.52   5
 -11  -3  -3 30777.5 1682.86   4
 -11  -3  -4 222.346 292.947   4
 -11  -3  -4 835.956 419.022   7
 -11  -3  -4 332.254 292.173   6
 -11   3  -4 264.373 329.632   3
 -11  -3  -4 567.174 294.505  11
 -11   3  -4-245.408 319.911   5
 -11  -3  -5 42068.1 1906.63   4
 -11  -3  -5 39449.7 2120.74   7
 -11   3  -5 41623.4 1917.61   3
 -11  -3  -5 40576.4 2140.35   6
 -11   3  -5 38097.5 1972.35   5
 -11  -3  -6 1676.88 520.832   7
 -11  -3  -6 2796.40 653.341   6
 -11   3  -6 1638.52 515.314   5
 -11  -3  -7 4776.43 779.724   7
 -11  -3  -7 4027.91 757.167   6
 -11   3  -7 3625.83 654.109   5
  11  -5 -12 89.3322 315.887  12
  11   5 -12-134.702 250.757  12
  11   5 -12 515.330 350.062  18
  11  -5 -11 682.879 439.364  12
  11   5 -11 490.793 369.688  12
  11   5 -11 286.663 440.237  18
  11  -5 -10 194.348 406.953  12
  11   5 -10 330.637 460.672  12
  11   5 -10 91.2552 504.266  18
  11  -5  -9 64558.5 2731.40  12
  11   5  -9 67554.0 2840.73  12
  11   5  -9 67835.9 3119.65  18
  11  -5  -8 1481.71 526.301  12
  11   5  -8 1426.48 497.785  12
  11   5  -8 1875.58 670.695  18
  11   5  -8-139.540 404.407  17
  11  -5  -7 15499.9 1281.91  12
  11   5  -7 16217.9 1440.22  12
  11   5  -7 16659.5 1565.80  18
  11   5  -7 16114.2 1381.65  17
 -11   5   7 17020.4 1065.51  21
 -11   5   6 122.925 275.310  21
  11  -5  -6 361.586 351.733  12
  11   5  -6 110.239 448.250  12
  11   5  -6-565.098 477.534  18
  11   5  -6-247.305 434.001  17
 -11   5   5 89588.7 2448.38  21
  11  -5  -5 86356.2 2605.88  12
  11   5  -5 78682.5 2935.26  18
 -11  -5   5 88613.7 2707.25  11
 -11   5   5 87483.8 2513.43   3
  11  -5  -5 90660.6 3031.00  17
  11   5  -5 89048.8 3198.36  17
 -11   5   4 938.042 425.442  21
  11  -5  -4 1128.25 369.529  12
 -11  -5   4 619.042 361.196  11
  11  -5  -4 606.597 359.258  17
 -11   5   4 655.418 349.802   3
 -11  -5   4 1390.86 434.232   9
 -11   5   3 42643.0 1726.01  21
 -11   5   3 41067.8 1676.24   3
 -11  -5   3 41473.3 1838.41  11
  11  -5  -3 39721.3 1889.47  17
 -11  -5   3 42479.1 1732.27   9
 -11   5   2 301.047 349.195  21
 -11  -5   2 220.271 325.995  11
  11  -5  -2-6.70126 231.851  17
 -11   5   2 640.048 352.995   3
 -11  -5   2 630.685 386.333   9
 -11   5   1 85842.7 2453.84  21
 -11   5   1 86419.7 2512.70   3
 -11  -5   1 88677.2 2635.10  11
 -11   5   0 308.892 310.130  21
 -11   5   0 439.461 375.726   3
 -11  -5   0 174.469 297.359  11
 -11  -5   0 715.444 343.650   3
 -11   5  -1 66313.5 2121.58  20
 -11   5  -1 69315.5 2376.19   3
 -11  -5  -1 75143.0 2221.61   3
 -11  -5  -1 66152.5 2287.66  11
 -11   5  -1 67841.7 2162.93  21
 -11  -5  -2-97.1872 406.721   8
 -11   5  -2 267.234 259.280  21
 -11   5  -2 24.6567 244.080  20
 -11   5  -2-15.3027 332.776   3
 -11  -5  -2-235.895 322.836  11
 -11   5  -2 234.303 295.915   5
 -11   5  -3 18745.4 1309.68   3
 -11   5  -3 19113.3 1159.32  20
 -11  -5  -3 18281.5 1268.48  11
 -11   5  -3 17781.8 1315.26   5
 -11  -5  -3 22723.0 1286.79  15
 -11  -5  -3 18800.7 1396.89   4
 -11  -5  -3 18497.5 1374.94   8
 -11  -5  -4 1736.28 602.096   8
 -11  -5  -4 1641.80 562.113   4
 -11   5  -4 1261.43 357.059  20
 -11  -5  -4-75.0969 312.668   6
 -11   5  -4 1744.89 469.030   3
 -11  -5  -4 2490.07 513.780  11
 -11   5  -4 1620.96 536.138   5
 -11  -5  -5 50438.2 2188.07   4
 -11  -5  -5 49006.5 2409.97   7
 -11   5  -5 48131.4 2114.90   3
 -11  -5  -5 47704.5 2353.93   6
 -11  -5  -5 48368.4 2045.27  11
 -11   5  -5 47063.2 2227.18   5
 -11   5  -5 48945.2 2072.19  10
 -11  -5  -6-149.752 339.587   7
 -11  -5  -6 1032.76 451.294   6
 -11   5  -6 308.255 264.380   3
 -11   5  -6 227.177 302.535   5
 -11  -5  -7 1555.54 445.661   7
 -11  -5  -7 2474.02 577.032   6
 -11   5  -7 2880.09 619.918   5
  11  -7 -12-302.963 342.062  12
  11   7 -12-419.381 257.341  12
  11   7 -12 221.705 348.784  18
  11  -7 -11 561.945 391.023  12
  11   7 -11 300.598 325.405  12
  11   7 -11 333.844 354.317  18
  11  -7 -10 24.3732 386.948  12
  11   7 -10 36.5150 324.982  12
  11   7 -10 813.062 466.616  18
  11  -7  -9 65570.5 2769.31  12
  11   7  -9 63793.6 2725.95  12
  11   7  -9 66395.8 3041.37  18
  11  -7  -8 564.392 396.149  12
  11   7  -8 18.6815 446.929  12
  11   7  -8 376.534 439.324  18
  11   7  -8 186.771 290.386  17
 -11   7   7 14519.2 1006.40  21
  11  -7  -7 14384.0 1243.42  12
  11   7  -7 16684.5 1473.26  12
  11   7  -7 16458.7 1594.42  18
  11   7  -7 15711.9 1328.69  17
 -11  -7   6-201.261 256.187   8
 -11   7   6 32.3920 301.820  21
  11  -7  -6-88.1616 306.387  12
  11   7  -6-371.142 380.139  17
 -11  -7   6 141.312 289.771   9
 -11   7   5 71567.6 2258.09  21
  11  -7  -5 77155.3 2473.70  12
  11   7  -5 72341.3 3001.85  18
 -11  -7   5 74594.5 2568.30  11
 -11   7   5 74496.1 2325.30   3
  11   7  -5 72835.7 2895.34  17
 -11  -7   5 71501.9 2288.73   9
 -11  -7   5 75485.2 2384.00   8
 -11   7   4 286.905 370.171  21
  11  -7  -4 852.874 319.105  12
 -11  -7   4 645.510 430.693  11
 -11   7   4 577.994 344.842   3
 -11  -7   4 600.114 350.272   9
 -11   7   3 37153.5 1657.34  21
 -11   7   3 34720.7 1564.55   3
 -11  -7   3 35168.7 1750.96  11
  11  -7  -3 37234.5 1733.84  17
 -11  -7   3 35381.8 1633.40   9
 -11   7   2-33.8948 299.433  21
 -11  -7   2 133.556 332.806  11
 -11   7   2 352.061 328.737   3
 -11  -7   2 73.4645 336.179   9
 -11   7   1 79223.9 2413.73  21
 -11   7   1 81109.7 2516.54   3
 -11  -7   1 77811.3 2561.71  11
 -11  -7   1 82353.6 2530.73   9
 -11  -7   0 21.7624 407.392   8
 -11   7   0 37.9237 248.796  21
 -11   7   0 567.667 355.272  20
 -11   7   0 175.784 324.262   3
 -11  -7   0 206.752 324.429  11
 -11  -7   0 535.151 390.489   9
 -11   7  -1 63929.4 2153.59  21
 -11   7  -1 65622.2 2366.24   3
 -11   7  -1 67282.5 2232.53  20
 -11  -7  -1 66744.3 2400.81  11
 -11  -7  -1 67412.3 2590.30   8
 -11  -7  -2 216.974 425.382   8
 -11  -7  -2-102.968 398.968   4
 -11   7  -2-540.251 303.090  21
 -11   7  -2 213.220 280.623  20
 -11   7  -2 139.400 321.281   3
 -11  -7  -2 171.367 280.020  11
 -11   7  -3 21433.9 1432.16   3
 -11   7  -3 21109.6 1251.33  20
 -11  -7  -3 23094.3 1467.55  11
 -11   7  -3 21292.3 1493.47   5
 -11  -7  -3 21541.9 1563.58   4
 -11  -7  -3 22285.8 1539.88   8
 -11  -7  -4-360.586 348.454   8
 -11  -7  -4-132.886 307.910   4
 -11   7  -4 433.056 315.218  20
 -11   7  -4 248.200 321.599   3
 -11  -7  -4-316.879 310.887  11
 -11  -7  -4-95.1330 194.969  15
 -11   7  -4-190.308 303.259   5
 -11  -7  -5 38439.4 1985.52   4
 -11  -7  -5 40897.6 2234.62   7
 -11   7  -5 37628.9 1896.91   3
 -11  -7  -5 40828.6 2168.92   6
 -11  -7  -5 37994.4 1867.15  11
 -11   7  -5 38709.8 2052.06   5
 -11  -7  -5 39720.0 1765.36  15
 -11   7  -5 38662.9 1865.11  10
 -11  -7  -6-349.977 416.313   7
 -11  -7  -6 259.419 203.141   6
 -11   7  -6 92.0586 281.796   3
 -11  -7  -6-297.323 273.543  11
 -11   7  -6 604.366 335.763  10
 -11   7  -6 590.215 374.884   5
 -11  -7  -7 2994.75 605.970   7
 -11   7  -7 2036.24 469.822   3
 -11   7  -7 2975.43 560.860   5
  11  -9 -12 184.960 351.117  12
  11   9 -12-52.2864 197.271  12
  11   9 -12-49.3814 311.244  18
  11  -9 -11-198.774 358.465  12
  11   9 -11 70.8015 279.740  12
  11   9 -11-73.3597 327.100  18
  11  -9 -10 627.852 459.932  12
  11   9 -10 657.977 397.746  12
  11   9 -10 158.856 353.788  18
  11  -9  -9 65802.9 2776.40  12
  11   9  -9 64462.4 2706.39  12
  11   9  -9 63652.8 2912.12  18
  11  -9  -8 450.111 437.126  12
  11   9  -8 441.560 444.111  12
  11   9  -8 1176.85 500.913  18
  11   9  -8-36.7892 255.689  17
 -11   9   7 3491.45 569.354  21
  11  -9  -7 2652.96 621.720  12
  11   9  -7 3707.79 840.577  18
  11   9  -7 3771.81 690.730  17
 -11  -9   7 2986.53 523.363   9
 -11  -9   6 1337.38 453.710   8
 -11   9   6 439.894 355.339  21
  11  -9  -6 875.222 398.837  12
  11   9  -6 910.747 612.434  18
 -11  -9   6 1192.44 476.135  11
  11   9  -6 882.130 450.616  17
 -11  -9   6 929.541 392.234   9
  11  -9  -5 54696.1 2149.83  12
 -11   9   5 54116.7 2049.80  21
 -11  -9   5 54591.9 2240.72  11
 -11   9   5 51849.1 1927.26   3
 -11  -9   5 53285.3 2028.42   9
 -11  -9   5 56467.7 2113.27   8
 -11  -9   4 129.780 351.043   8
  11  -9  -4-177.463 244.905  12
 -11   9   4-35.5900 333.704  21
 -11  -9   4 61.1155 328.501  11
 -11   9   4-25.6264 292.426   3
 -11  -9   4 219.512 356.373   9
 -11   9   3 25994.7 1457.65  21
 -11   9   3 29653.8 1466.72   3
 -11  -9   3 28278.6 1639.97  11
 -11  -9   3 25838.4 1469.22   9
 -11  -9   3 26629.4 1557.20   8
 -11  -9   2-162.597 391.517   8
 -11   9   2 30.1584 372.816  21
 -11  -9   2 150.426 358.189  11
 -11   9   2 319.698 340.187   3
 -11  -9   2-200.034 349.002   9
 -11   9   1 58166.9 2149.57  21
 -11   9   1 58007.5 2148.18  20
 -11   9   1 57510.0 2161.93   3
 -11  -9   1 59082.2 2323.47  11
 -11  -9   1 57457.1 2210.33   9
 -11  -9   1 55776.2 2354.59   8
 -11  -9   0-249.319 435.150   8
 -11   9   0 423.879 387.894  20
 -11   9   0 300.238 345.279   3
 -11   9   0 234.213 363.164  21
 -11  -9   0-261.547 362.168  11
 -11  -9   0 289.615 358.037   9
 -11   9  -1 60917.6 2159.23  21
 -11   9  -1 65475.6 2398.82   3
 -11   9  -1 61867.3 2225.61  20
 -11  -9  -1 62252.3 2423.55  11
 -11  -9  -1 60643.6 2339.53   9
 -11  -9  -1 59277.5 2552.27   4
 -11  -9  -1 59325.9 2528.10   8
 -11  -9  -2 742.191 555.471   8
 -11  -9  -2 630.001 483.549   4
 -11   9  -2 742.007 371.127  20
 -11   9  -2 210.585 353.786   3
 -11  -9  -2 873.465 386.104  11
 -11  -9  -3 14457.6 1288.25   8
 -11   9  -3 13408.0 1052.21  20
 -11  -9  -3 14112.6 1209.99  11
 -11  -9  -3 13464.5 1289.61   4
 -11  -9  -4 1322.58 505.571   4
 -11   9  -4 1403.10 395.048  20
 -11  -9  -4 1350.40 462.351  11
 -11   9  -5 64641.1 2173.17  20
 -11   9  -5 63159.7 2431.99   3
 -11  -9  -5 59678.0 2363.52  11
 -11   9  -5 58665.7 2304.52  10
 -11  -9  -6-65.8895 351.755   7
 -11   9  -6-242.763 275.057   3
 -11  -9  -6-106.627 229.629  11
 -11   9  -6-112.471 232.065  10
 -11  -9  -7 4779.58 649.690  11
 -11   9  -7 4694.40 617.735  10
  11 -11 -11 171.364 375.554  12
  11  11 -11 370.826 228.388  12
  11  11 -11-11.7199 271.503  18
  11 -11 -10-26.8066 364.158  12
  11  11 -10 114.450 275.332  12
  11  11 -10-225.308 382.217  18
  11 -11  -9 66743.5 2785.63  12
  11  11  -9 66579.1 2652.17  12
  11  11  -9 67178.7 2834.51  18
  11 -11  -8 904.413 432.819  12
  11  11  -8 917.955 464.821  12
  11  11  -8 1977.74 609.472  18
  11 -11  -7 4050.20 719.361  12
  11  11  -7 4081.72 849.539  18
  11  11  -7 3660.31 620.871  17
 -11 -11   7 3810.93 598.592   9
  11 -11  -6 825.789 411.831  12
  11  11  -6 496.637 478.355  18
  11  11  -6 1175.35 444.387  17
 -11 -11   6 885.245 366.210   9
 -11 -11   5 67654.2 2373.67   8
 -11  11   5 61278.9 2238.40  21
  11 -11  -5 64753.1 2419.26  12
 -11 -11   5 60495.3 2391.70  11
  11  11  -5 63695.8 2655.55  17
 -11 -11   5 63290.6 2270.31   9
 -11 -11   4 269.832 376.341   8
 -11  11   4 99.6581 383.609  21
  11 -11  -4 818.824 345.663  12
 -11  11   4-40.1968 286.136  20
 -11 -11   4 124.816 359.751  11
 -11  11   4 53.1579 261.519   3
 -11 -11   4 62.0761 338.473   9
 -11  11   3 14584.8 1149.95  21
 -11  11   3 14377.1 1116.17  20
 -11  11   3 15741.7 1101.94   3
 -11 -11   3 15558.7 1253.57  11
 -11 -11   3 13995.4 1151.07   9
 -11 -11   3 15007.0 1220.86   8
 -11 -11   2 436.014 442.709   8
 -11  11   2 548.322 364.912  21
 -11  11   2 820.321 405.326  20
 -11 -11   2 675.849 434.057  11
 -11  11   2 674.663 354.489   3
 -11 -11   2 820.274 446.278   9
 -11  11   1 36051.2 1791.47  21
 -11  11   1 40189.6 1844.76  20
 -11  11   1 36622.5 1770.00   3
 -11 -11   1 39715.7 1971.02  11
 -11 -11   1 38409.6 1867.41   9
 -11 -11   1 39314.2 1990.48   4
 -11 -11   1 42589.9 2113.66   8
 -11 -11   0 2.76751 407.078   8
 -11 -11   0 77.2996 392.934   4
 -11  11   0-74.8932 348.227  20
 -11  11   0 187.803 280.540   3
 -11 -11   0 286.421 371.682  11
 -11 -11   0 161.513 376.308   9
 -11 -11  -1 65124.9 2704.64   8
 -11  11  -1 61627.5 2283.49  20
 -11  11  -1 62669.6 2394.68   3
 -11 -11  -1 62224.6 2499.67  11
 -11 -11  -1 59357.5 2392.42   9
 -11 -11  -1 61616.4 2656.71   4
 -11 -11  -2 60.9956 497.042   8
 -11 -11  -2-319.569 407.170   4
 -11  11  -2 121.188 341.755  20
 -11  11  -2-355.225 349.049   3
 -11 -11  -2 294.964 384.906  11
 -11 -11  -3 25839.3 1776.50   4
 -11  11  -3 26101.0 1601.61   3
 -11  11  -3 25270.3 1450.21  20
 -11 -11  -3 27989.0 1690.34  11
 -11  11  -4-141.533 278.216  20
 -11  11  -4-50.9851 276.975   3
 -11 -11  -4-71.0658 304.504  11
 -11  11  -5 40698.3 1730.22  20
 -11  11  -5 40520.6 1919.11   3
 -11 -11  -5 37998.8 1867.93  11
 -11  11  -5 39725.7 1873.90  10
 -11 -11  -6 618.607 375.065   7
 -11  11  -6 1487.76 419.090  20
 -11  11  -6 411.797 325.289   3
 -11 -11  -6 1202.98 381.965  11
  11 -13 -10-448.097 402.961  12
  11  13 -10-570.236 314.801  12
  11  13 -10 103.212 285.868  18
  11 -13 -10 517.304 343.378  16
  11 -13  -9 44894.6 2273.57  12
  11  13  -9 46150.4 2074.55  12
  11  13  -9 48520.8 2213.73  18
  11 -13  -8 724.936 457.406  12
  11  13  -8 631.164 410.772  12
  11  13  -8 833.777 359.805  18
 -11 -13   8 1498.39 384.838   9
  11 -13  -7 9296.81 1048.89  12
  11  13  -7 10897.2 1177.39  18
 -11 -13   7 10031.9 893.956   9
  11 -13  -6 455.699 337.575  12
 -11  13   6-5.32020 216.838  20
  11  13  -6 557.806 420.632  18
 -11 -13   6 240.046 319.256   9
  11 -13  -5 64824.4 2501.05  12
 -11  13   5 62942.4 2168.46  20
 -11 -13   5 65043.1 2452.38  11
  11  13  -5 67235.6 2569.30  17
 -11 -13   5 62589.3 2322.37   9
 -11  13   4 2.01664 293.849  20
 -11 -13   4 481.717 452.303  11
 -11 -13   4-387.714 424.822   9
 -11 -13   3 39910.2 2003.86   8
 -11  13   3 39297.6 1796.47  20
 -11  13   3 42984.9 1744.46   3
 -11 -13   3 40113.9 1997.88  11
 -11 -13   3 39792.4 1909.76   9
 -11 -13   3 40049.2 1846.66   4
 -11 -13   2 2140.90 621.796   8
 -11 -13   2 1294.65 446.578   4
 -11  13   2 1204.64 446.094  20
 -11 -13   2 2368.00 602.638  11
 -11  13   2 1907.23 456.325   3
 -11 -13   2 2036.08 570.248   9
 -11 -13   1 73054.9 2812.96   8
 -11  13   1 70419.0 2456.95  20
 -11  13   1 66177.4 2324.33   3
 -11 -13   1 68674.4 2623.83  11
 -11 -13   1 66982.2 2512.11   9
 -11 -13   1 70797.1 2671.36   4
 -11 -13   0 352.449 403.042   4
 -11  13   0 178.892 384.021  20
 -11  13   0-149.764 280.073   3
 -11 -13   0 268.335 358.435  11
 -11 -13   0-86.8935 385.864   9
 -11 -13  -1 42888.5 2227.71   4
 -11  13  -1 43674.2 1960.19  20
 -11  13  -1 43627.6 1977.12   3
 -11 -13  -1 44994.9 2155.62  11
 -11 -13  -1 39890.6 1970.71   9
 -11 -13  -2 1091.92 528.600   4
 -11  13  -2-17.2669 314.691  20
 -11  13  -2-322.598 347.617   3
 -11 -13  -2-76.3964 340.636  11
 -11 -13  -2 259.313 350.701   9
 -11  13  -3 23503.4 1389.73  20
 -11  13  -3 23993.1 1478.17   3
 -11 -13  -3 22125.7 1503.52  11
 -11  13  -4 41.7851 264.676  20
 -11  13  -4 297.123 287.425   3
 -11 -13  -4 190.789 356.089  11
 -11  13  -5 32052.0 1487.32  20
 -11  13  -5 36525.2 1737.42   3
 -11 -13  -5 34007.1 1709.23  11
 -11  13  -5 33372.1 1646.39  10
  11 -15  -9 36087.9 1949.43  12
  11  15  -9 33301.3 1613.30  12
  11  15  -9 35023.9 1687.71  18
  11 -15  -8 306.381 392.388  12
  11  15  -8 519.560 330.212  12
  11  15  -8 1091.07 365.203  18
  11 -15  -8-253.353 702.858  14
  11 -15  -7 6274.76 884.654  12
  11  15  -7 9498.28 983.734  18
 -11 -15   7 7497.94 761.866   9
  11 -15  -7 7731.44 1589.21  14
  11 -15  -6 413.345 364.365  12
 -11 -15   6-137.390 310.524   9
  11 -15  -5 37545.7 1903.59  12
 -11  15   5 38173.8 1611.09  20
 -11 -15   5 38961.1 1823.12  11
 -11 -15   5 38388.8 1807.84   9
 -11  15   4-481.991 300.769  20
 -11 -15   4-293.649 365.181  11
 -11 -15   4 90.9745 358.976   9
 -11  15   3 34500.8 1665.57  20
 -11 -15   3 33073.1 1781.14  11
 -11 -15   3 35472.0 1808.87   9
 -11 -15   2 303.526 317.448   4
 -11  15   2 31.8021 314.504  20
 -11 -15   2 108.827 346.974  11
 -11  15   2-196.401 256.429   3
 -11 -15   2 418.584 418.095   9
 -11 -15   1 38906.0 1969.50   4
 -11  15   1 36770.2 1769.78  20
 -11  15   1 39464.8 1726.14   3
 -11 -15   1 39749.6 1998.90  11
 -11 -15   1 35894.5 1837.45   9
 -11 -15   0-216.097 366.152   4
 -11  15   0 710.412 409.985  20
 -11 -15   0-90.2816 362.134  11
 -11  15   0 125.469 248.674   3
 -11 -15   0 240.132 357.608   9
 -11 -15  -1 42912.6 2172.31   4
 -11  15  -1 42903.8 1895.55  20
 -11  15  -1 40920.5 1861.48   3
 -11 -15  -1 41414.4 2035.13  11
 -11 -15  -1 39623.5 1911.40   9
 -11  15  -2 10.5582 322.983  20
 -11  15  -2 2.20039 279.905   3
 -11 -15  -2 322.265 340.706  11
 -11  15  -3 21460.7 1296.07  20
 -11  15  -3 20361.4 1308.01   3
 -11 -15  -3 22933.7 1489.24  11
 -11  15  -4 124.065 241.845  20
 -11  15  -4 270.622 279.704   3
 -11 -15  -4 75.9580 264.429  11
  11  17  -8 154.922 217.930  12
  11 -17  -8 701.965 483.391  14
  11 -17  -7 6974.65 868.890  12
 -11 -17   7 7189.93 689.482   9
  11 -17  -6 230.020 408.739  12
 -11 -17   6-472.890 321.641   9
  11 -17  -5 40593.4 3174.07  14
 -11 -17   5 38345.2 1732.66   9
 -11  17   4-108.292 216.200  20
 -11 -17   4 589.748 288.841  11
 -11 -17   4 225.366 376.286   9
 -11  17   3 26926.3 1394.15  20
 -11 -17   3 29277.6 1598.95  11
 -11 -17   3 30372.6 1620.45   9
 -11  17   2 348.608 312.157  20
 -11 -17   2 457.080 366.152  11
 -11 -17   2 168.509 379.000   9
 -11  17   1 28888.8 1506.77  20
 -11 -17   1 28243.3 1622.20  11
 -11 -17   1 28218.3 1583.13   9
 -11  17   0 612.351 335.716  20
 -11 -17   0-47.9160 304.288  11
 -11  17   0 1291.96 346.155   3
 -11 -17   0 417.498 331.937   9
  11 -17   0 169.109 853.395  14
 -11  17  -1 37217.0 1714.51  20
 -11  17  -1 37146.6 1647.26   3
 -11 -17  -1 38248.4 1867.44  11
  11 -17   1 33719.1 2338.34  14
 -11 -17  -1 31868.8 1602.85   9
 -11  17  -2 281.406 303.363  20
 -11 -17  -2-133.558 321.418  11
 -11  17  -2-143.894 235.441   3
 -11  17  -3 12278.9 953.353  20
 -11 -17  -3 10680.8 956.065  11
 -11 -19   6 128.558 215.428   9
 -11 -19   5 31102.9 1434.47   9
 -11 -19   4-491.556 357.156   9
  11 -19  -4-524.056 783.325  14
 -11 -19   3 20563.6 1246.68   9
 -11 -19   2 606.370 278.833  11
 -11 -19   2 752.760 354.046   9
 -11 -19   1 26634.1 1417.75  11
 -11  19   1 24294.1 1284.49  20
 -11 -19   1 25251.2 1374.05   9
 -11  19   0 1025.03 346.800  20
 -11 -19   0 1212.75 387.426  11
 -11 -19   0 853.744 334.198   9
  11 -19   0 1836.41 713.859  14
 -11  19  -1 29231.2 1392.10  20
 -11 -19  -1 31252.4 1544.24  11
  12   0 -13-71.8560 265.682  12
  12   0 -12 1288.23 436.633  12
  12   0 -11 42.8353 361.280  12
  12   0 -11-509.997 427.494  18
  12   0 -10 58984.2 2657.51  12
  12   0 -10 60616.5 2910.58  18
  12   0  -9-659.531 510.886  12
  12   0  -9 439.769 440.780  18
 -12   0   8 1652.91 416.131  21
  12   0  -8 1763.44 591.599  12
  12   0  -8 1250.58 608.601  18
  12   0  -7-449.367 448.369  12
  12   0  -7 118.097 432.316  18
  12   0  -7 109.114 431.662  17
  12   0  -6 69735.8 2752.28  12
  12   0  -6 65735.5 2572.12  18
  12   0  -6 70696.7 2925.39  17
  12   0  -5 192.614 366.482  12
  12   0  -5-407.439 303.564  18
  12   0  -5-257.555 545.836  17
  12   0  -4 34677.4 1781.65  12
 -12   0   4 34992.6 1683.41   3
  12   0  -4 38487.9 2171.39  17
  12   0  -3-32.6309 302.169  12
 -12   0   3 165.977 285.020  11
 -12   0   3 15.7179 314.923   3
 -12   0   2 51215.4 1961.46   3
 -12   0   2 53099.1 1988.31  11
 -12   0   1 439.899 319.050  11
 -12   0   1 138.473 288.578   3
 -12   0   0 104299. 2771.88   3
 -12   0   0 111059. 2834.48  11
 -12   0  -1 293.597 256.733  20
 -12   0  -1 244.106 285.655   3
 -12   0  -2 72222.1 2248.73  21
 -12   0  -2 77114.2 2438.38   3
 -12   0  -3 156.731 278.044   3
  12  -2 -12 814.326 488.239  12
  12   2 -12 71.8849 206.927  12
  12   2 -12 936.324 459.867  18
  12  -2 -11-309.719 408.726  12
  12   2 -11 905.421 439.223  12
  12   2 -11 522.086 469.886  18
  12   2 -10 55656.7 2581.42  12
  12  -2 -10 55309.6 2572.47  12
  12   2 -10 57804.3 2864.51  18
  12  -2  -9 324.761 479.098  12
  12   2  -9-113.279 423.561  12
  12   2  -9-314.814 469.738  18
  12  -2  -8 2405.44 673.685  12
  12   2  -8 2232.42 646.603  12
  12   2  -8 2673.76 717.778  18
  12   2  -8 2047.89 661.781  17
 -12   2   7 2550.31 474.937  21
  12  -2  -7 1882.71 600.627  12
  12   2  -7 1197.39 569.274  12
  12   2  -7 870.463 543.444  18
  12  -2  -7 2164.29 630.386  17
  12   2  -7 2202.76 682.317  17
  12  -2  -6 72815.9 2686.78  12
  12   2  -6 73869.5 2937.73  12
  12   2  -6 66230.7 2675.48  18
  12  -2  -6 74571.0 2982.86  17
  12   2  -6 75566.4 3036.84  17
  12  -2  -5 106.940 375.935  12
  12   2  -5 170.130 441.525  12
  12  -2  -5-74.9618 430.045  17
  12   2  -5-929.857 530.183  17
  12  -2  -4 40968.0 1798.88  12
  12   2  -4 36840.2 1973.84  12
 -12  -2   4 38173.1 1769.86  11
 -12   2   4 37416.5 1720.51   3
  12  -2  -4 40595.8 2174.71  17
  12   2  -4 37880.7 2211.07  17
  12  -2  -3 787.584 331.172  12
  12   2  -3-380.428 347.952  12
 -12  -2   3 298.890 330.591  11
  12  -2  -3 182.407 356.693  17
 -12   2   3 495.163 395.777   3
 -12  -2   3 353.532 357.095   3
 -12   2   2 96092.0 2656.21   3
 -12  -2   2 96766.0 2772.21  11
 -12  -2   2 94976.6 2691.28   3
  12  -2  -2 95632.0 3336.03  17
 -12  -2   1 63.0746 282.708  11
 -12   2   1 77.5702 307.833   3
 -12  -2   1 114.652 271.206   3
 -12   2   0 49310.8 1934.38  21
 -12   2   0 56450.5 2072.45   3
 -12  -2   0 55451.2 2042.57   3
 -12  -2   0 52612.8 2036.04  11
 -12   2  -1 186.946 293.379  21
 -12   2  -1-37.6528 271.024  20
 -12  -2  -1 314.205 294.263  11
 -12   2  -1 70.8070 309.655   3
 -12  -2  -1 222.600 259.836   3
 -12   2  -2 36027.7 1583.97  21
 -12   2  -2 39217.8 1590.41  20
 -12   2  -2 35998.2 1727.81   3
 -12  -2  -2 37011.9 1669.35   3
 -12  -2  -2 37855.9 1713.51  11
 -12   2  -2 39077.2 1741.29   5
 -12  -2  -3 1481.58 477.386   4
 -12  -2  -3 2118.66 595.699   7
 -12   2  -3 1671.51 487.698   3
 -12   2  -3 1184.67 379.352   5
 -12  -2  -4 82321.1 2938.19   7
 -12   2  -4 74354.7 2504.34   3
 -12   2  -4 83585.8 2738.78   5
 -12  -2  -4 83461.0 2685.20   4
 -12  -2  -5 119.858 216.566   7
 -12   2  -5 722.307 373.610   5
 -12  -2  -6 11858.8 1163.11   7
 -12   2  -6 11704.7 1088.80   5
  12  -4 -12 847.375 420.294  12
  12   4 -12 300.024 294.370  12
  12   4 -12 874.130 441.413  18
  12  -4 -11 631.659 438.129  12
  12   4 -11 614.684 396.555  12
  12   4 -11 482.126 472.528  18
  12  -4 -10 48449.4 2429.25  12
  12   4 -10 48159.8 2376.68  12
  12   4 -10 48678.2 2623.94  18
  12  -4  -9 1084.16 575.330  12
  12   4  -9 649.752 474.371  12
  12   4  -9 772.764 605.377  18
  12  -4  -8 3519.15 732.607  12
  12   4  -8 4234.51 820.728  12
  12   4  -8 3231.30 789.772  18
  12   4  -8 4142.69 792.326  17
 -12   4   7 1669.06 415.665  21
  12  -4  -7 988.294 478.667  12
  12   4  -7 1409.03 598.984  12
  12   4  -7 1589.86 663.765  18
  12   4  -7 1606.70 575.906  17
 -12   4   6 94362.8 2568.16  21
  12  -4  -6 91849.0 2947.12  12
  12   4  -6 95654.7 3430.16  12
  12   4  -6 88037.0 3291.96  18
  12  -4  -6 97515.4 3393.53  17
  12   4  -6 92566.6 3370.09  17
 -12   4   5-196.423 303.796  21
  12  -4  -5-148.013 308.954  12
  12   4  -5-242.784 442.668  12
 -12  -4   5-2.21455 380.839  11
  12  -4  -5 429.911 414.438  17
  12   4  -5-328.358 391.317  17
 -12   4   5 502.650 319.373   3
  12  -4  -4 21693.8 1263.94  12
 -12   4   4 19415.4 1234.82  21
 -12  -4   4 19668.2 1339.14  11
 -12   4   4 22234.2 1335.59   3
  12  -4  -4 20264.6 1510.31  17
 -12   4   3 438.862 376.556  21
 -12  -4   3 108.856 324.155  11
  12  -4  -3 517.728 435.187  17
 -12   4   3 122.761 298.549   3
 -12   4   2 90621.4 2615.12  21
 -12   4   2 92534.2 2610.99   3
 -12  -4   2 88683.1 2725.79  11
  12  -4  -2 91661.3 3076.13  17
 -12   4   1 144.501 315.253  21
 -12  -4   1-65.0884 313.436  11
  12  -4  -1-88.7607 285.755  17
 -12   4   1 89.3479 314.030   3
 -12  -4   1 380.398 344.443   3
 -12   4   0 37512.1 1701.36  21
 -12   4   0 37985.4 1766.17   3
 -12  -4   0 40052.3 1833.86  11
 -12  -4   0 39489.8 1730.57   3
 -12   4  -1-412.580 302.093  21
 -12   4  -1 172.385 243.857  20
 -12  -4  -1 144.569 194.056  11
 -12   4  -1 96.7428 318.695   3
 -12  -4  -1 214.665 304.563   3
 -12   4  -2 48355.4 1826.44  21
 -12   4  -2 48431.4 1855.85  20
 -12   4  -2 48046.1 2095.44   3
 -12  -4  -2 49436.1 2043.08  11
 -12  -4  -3 436.847 423.393   8
 -12  -4  -3 74.2468 345.642   4
 -12   4  -3 587.326 311.747  20
 -12   4  -3 1062.40 445.143   3
 -12  -4  -3 925.229 346.966  11
 -12   4  -3 173.864 317.743   5
 -12  -4  -4 23140.7 1618.48   7
 -12   4  -4 20805.3 1404.85   3
 -12  -4  -4 23697.1 1407.33  11
 -12   4  -4 23598.1 1521.43   5
 -12  -4  -4 21457.9 1457.58   4
 -12  -4  -5 6611.95 778.903   4
 -12  -4  -5 5735.13 848.729   7
 -12   4  -5 6125.22 773.214   3
 -12   4  -5 6097.89 813.087   5
 -12  -4  -6 2138.22 519.570   7
 -12   4  -6 3675.97 616.401   5
  12  -6 -12-163.810 348.277  12
  12   6 -12-227.363 245.463  12
  12   6 -12 208.539 337.806  18
  12  -6 -11 474.640 399.559  12
  12   6 -11 678.027 364.277  12
  12   6 -11 723.874 466.643  18
  12  -6 -10 45235.7 2317.76  12
  12   6 -10 45713.9 2274.14  12
  12   6 -10 47330.1 2526.77  18
  12  -6  -9 385.586 414.891  12
  12   6  -9 405.768 487.119  12
  12   6  -9 146.061 462.277  18
  12  -6  -8 3825.38 733.579  12
  12   6  -8 3956.70 826.812  12
  12   6  -8 3987.77 842.458  18
  12   6  -8 4607.58 781.953  17
 -12   6   7 28.5307 268.267  21
  12  -6  -7 192.171 369.522  12
  12   6  -7 120.523 419.002  12
  12   6  -7 211.262 423.618  18
  12   6  -7 428.890 422.738  17
 -12   6   6 86423.7 2505.73  21
  12  -6  -6 90362.3 2903.97  12
  12   6  -6 93322.2 3438.64  12
  12   6  -6 86293.1 3420.62  18
  12   6  -6 84480.1 3198.55  17
 -12  -6   6 95692.1 2647.83   8
 -12   6   5 1346.01 421.976  21
  12  -6  -5 2011.53 445.108  12
 -12  -6   5 1963.30 543.835  11
  12   6  -5 1704.58 598.676  17
 -12   6   5 1680.20 478.083   3
 -12   6   4 20384.1 1276.67  21
  12  -6  -4 20081.6 1201.41  12
 -12   6   4 18650.8 1231.54   3
 -12  -6   4 19012.2 1357.95  11
  12  -6  -4 22120.4 1495.05  17
 -12   6   3 101.391 324.146  21
 -12  -6   3-192.106 386.156  11
  12  -6  -3 842.294 329.997  17
 -12   6   3-113.102 312.264   3
 -12  -6   3-319.374 392.499   9
 -12   6   2 103608. 2829.06  21
 -12   6   2 107387. 2858.78   3
 -12  -6   2 100060. 3010.29  11
 -12   6   1 100.645 334.407  21
 -12  -6   1 32.2580 351.404  11
 -12   6   1 465.347 334.198   3
 -12   6   0 33956.8 1640.28  20
 -12   6   0 32487.7 1602.96  21
 -12   6   0 33741.9 1716.98   3
 -12  -6   0 32962.7 1742.61  11
 -12  -6  -1-116.537 409.475   8
 -12   6  -1 33.0855 297.419  21
 -12   6  -1-25.4593 307.886  20
 -12   6  -1 184.291 351.630   3
 -12  -6  -1 128.023 304.771  11
 -12   6  -2 28143.9 1421.87  21
 -12   6  -2 27396.8 1447.31  20
 -12   6  -2 29488.4 1671.51   3
 -12  -6  -2 26749.8 1570.10  11
 -12  -6  -2 28218.7 1755.18   4
 -12  -6  -2 28380.8 1748.02   8
 -12  -6  -3 613.078 451.449   8
 -12  -6  -3 337.855 383.974   4
 -12   6  -3 213.833 212.630  20
 -12   6  -3 367.061 318.958   3
 -12  -6  -3 225.496 301.043  11
 -12   6  -4 42114.8 1708.27  20
 -12   6  -4 37871.0 1907.95   3
 -12  -6  -4 42651.3 1944.74  11
 -12   6  -4 39757.1 2003.43   5
 -12   6  -4 44092.8 1951.51  10
 -12  -6  -4 39604.4 2022.41   4
 -12  -6  -5 37.4128 287.270   7
 -12   6  -5 399.113 364.475   3
 -12  -6  -5 257.115 283.092  11
 -12   6  -5-408.843 352.693   5
 -12  -6  -6 7277.28 946.084   7
 -12   6  -6 6203.98 732.781   3
  12  -8 -12 1473.90 432.409  12
  12   8 -12 458.062 259.066  12
  12   8 -12 1124.41 351.452  18
  12  -8 -11 232.886 353.755  12
  12   8 -11 62.8653 267.839  12
  12   8 -11 277.078 367.956  18
  12  -8 -10 45073.4 2297.07  12
  12   8 -10 45416.0 2201.80  12
  12   8 -10 43459.5 2335.82  18
  12  -8  -9-15.0879 368.130  12
  12   8  -9-63.5252 404.441  12
  12   8  -9-35.5504 387.671  18
  12  -8  -8 1856.98 576.646  12
  12   8  -8 2710.41 690.471  12
  12   8  -8 3708.79 819.501  18
  12   8  -8 2519.93 570.052  17
 -12   8   7-68.3726 333.444  21
  12  -8  -7 272.942 294.656  12
  12   8  -7 731.107 521.405  12
  12   8  -7 795.995 536.985  18
  12   8  -7 906.261 406.706  17
 -12   8   6 78591.2 2438.53  21
  12  -8  -6 82226.2 2765.58  12
  12   8  -6 77202.1 3038.69  17
 -12  -8   6 81050.8 2472.91   9
 -12  -8   6 88102.5 2590.20   8
 -12  -8   5 918.970 411.788   8
  12  -8  -5 49.7095 270.272  12
 -12  -8   5 21.9268 323.272  11
 -12   8   5 301.648 376.859  21
  12   8  -5-811.164 521.752  17
 -12   8   5 809.829 377.891   3
 -12  -8   5 132.757 302.294   9
 -12   8   4 15102.4 1102.02   3
 -12  -8   4 15950.7 1270.51  11
 -12  -8   4 14369.0 1111.48   9
 -12  -8   4 15113.1 1191.09   8
 -12   8   4 15636.1 1163.32  21
 -12  -8   3-162.837 375.487   8
 -12   8   3 147.373 363.234  21
 -12  -8   3-12.2676 341.758  11
 -12   8   3-340.570 349.214   3
 -12  -8   3 146.070 401.202   9
 -12   8   2 75240.2 2514.55  21
 -12   8   2 83938.7 2561.63   3
 -12  -8   2 79149.5 2754.58  11
 -12  -8   2 77655.8 2546.64   9
 -12  -8   2 78100.2 2725.93   8
 -12  -8   1-61.0656 457.580   8
 -12   8   1 186.856 374.992  21
 -12   8   1 150.563 358.425  20
 -12  -8   1 152.912 363.108  11
 -12   8   1-12.9468 323.872   3
 -12  -8   1 325.276 393.263   9
 -12   8   0 37025.9 1748.59  21
 -12   8   0 36615.6 1748.67  20
 -12   8   0 38559.9 1862.47   3
 -12  -8   0 36178.5 1878.04  11
 -12  -8   0 40542.3 2076.61   8
 -12  -8  -1 226.564 499.750   8
 -12  -8  -1-207.454 478.861   4
 -12   8  -1 64.5785 317.334  21
 -12   8  -1-114.287 294.273  20
 -12   8  -1-14.4068 325.114   3
 -12  -8  -1-273.368 381.799  11
 -12   8  -2 23065.8 1303.33  21
 -12   8  -2 22887.1 1358.66  20
 -12   8  -2 24561.7 1558.90   3
 -12  -8  -2 22248.0 1487.15  11
 -12  -8  -2 23436.3 1670.63   4
 -12  -8  -2 22638.6 1618.26   8
 -12  -8  -3 464.718 377.761   8
 -12  -8  -3 979.996 479.960   4
 -12   8  -3-99.6736 238.974  20
 -12   8  -3-439.582 339.518   3
 -12  -8  -3 512.367 371.181  11
 -12  -8  -4 38098.7 2038.03   4
 -12   8  -4 38944.3 1690.60  20
 -12   8  -4 39959.0 1955.25   3
 -12  -8  -4 38949.0 1902.57  11
 -12  -8  -5 9.34962 267.719   7
 -12   8  -5 260.861 300.449   3
 -12  -8  -5-464.078 315.554  11
 -12   8  -5-8.92414 180.590  10
 -12  -8  -6 6588.74 873.028   7
 -12   8  -6 5676.93 736.020   3
 -12  -8  -6 6023.01 705.926  11
  12 -10 -11-95.8287 326.343  12
  12  10 -11 75.4011 267.042  12
  12  10 -11 768.724 373.112  18
  12 -10 -10 56196.8 2531.62  12
  12  10 -10 51873.2 2221.55  12
  12  10 -10 53615.6 2421.13  18
  12 -10  -9 1069.35 482.940  12
  12  10  -9 1185.35 501.942  12
  12  10  -9 712.237 477.309  18
  12 -10  -8 277.897 385.802  12
  12  10  -8 132.047 340.694  12
  12  10  -8-395.699 270.330  17
  12 -10  -7-837.573 403.430  12
  12  10  -7-221.161 303.111  17
 -12 -10   6 65035.8 2246.20   8
 -12  10   6 60348.8 2185.52  21
  12 -10  -6 59534.0 2395.85  12
  12  10  -6 59064.8 2558.52  17
 -12 -10   6 57423.3 2123.65   9
 -12 -10   5 15.6008 395.619   8
 -12  10   5 400.365 354.220  21
  12 -10  -5 320.999 275.989  12
 -12 -10   5 377.321 379.597  11
  12  10  -5 144.238 366.235  17
 -12  10   5 640.692 324.231   3
 -12 -10   5 96.8093 334.188   9
 -12  10   4 14647.1 1136.42  21
 -12  10   4 16228.7 1139.41   3
 -12 -10   4 14597.7 1241.20  11
 -12 -10   4 14781.6 1166.86   9
 -12 -10   4 15397.4 1231.30   8
 -12 -10   3-83.6401 451.229   8
 -12  10   3 58.9055 365.954  21
 -12  10   3 435.016 331.868  20
 -12 -10   3 189.722 398.993  11
 -12  10   3-24.2055 302.884   3
 -12 -10   3-764.037 451.049   9
 -12  10   2 80441.6 2631.17  21
 -12  10   2 83804.1 2683.04  20
 -12  10   2 86528.9 2629.03   3
 -12 -10   2 81230.9 2846.28  11
 -12 -10   2 83046.0 2719.28   9
 -12 -10   2 82077.1 2862.41   8
 -12 -10   1 499.741 471.821   8
 -12  10   1 204.913 418.823  21
 -12  10   1 319.157 366.213  20
 -12 -10   1 548.631 463.754  11
 -12  10   1 269.464 292.750   3
 -12 -10   1-145.516 385.040   9
 -12  10   0 38321.7 1814.10  21
 -12  10   0 37371.7 1806.59  20
 -12  10   0 37447.6 1872.48   3
 -12 -10   0 38897.9 2009.05  11
 -12 -10   0 38286.0 1908.28   9
 -12 -10   0 38181.1 2063.15   4
 -12 -10   0 37868.4 2059.37   8
 -12 -10  -1 533.046 502.861   8
 -12 -10  -1 88.4798 424.874   4
 -12  10  -1 427.399 398.093  20
 -12  10  -1-581.585 373.634   3
 -12 -10  -1 435.774 397.503  11
 -12 -10  -2 33255.9 1955.67   8
 -12  10  -2 31313.3 1623.41  20
 -12  10  -2 33165.0 1796.81   3
 -12 -10  -2 34162.5 1864.16  11
 -12 -10  -2 33205.5 1990.62   4
 -12 -10  -3 327.014 406.812   4
 -12  10  -3 140.575 293.724  20
 -12  10  -3 462.713 340.771   3
 -12 -10  -3 232.060 331.776  11
 -12  10  -4 41359.2 1748.59  20
 -12  10  -4 42799.5 1991.37   3
 -12 -10  -4 41407.6 1959.73  11
 -12 -10  -5-113.815 327.361   7
 -12  10  -5 586.249 262.182  20
 -12  10  -5 292.637 339.628   3
 -12 -10  -5 310.777 270.982  11
 -12 -10  -6 8739.32 853.239  11
 -12  10  -6 8039.55 793.250  10
  12 -12 -10 40756.3 2108.94  12
  12  12 -10 36528.5 1735.87  12
  12  12 -10 34708.8 1776.91  18
  12 -12  -9 482.853 410.177  12
  12  12  -9-22.9591 311.246  12
  12  12  -9-715.018 377.861  18
  12  12  -8 7170.34 943.963  12
  12 -12  -8 6102.01 852.710  12
  12  12  -8 6277.13 875.650  18
 -12  12   7 123.670 246.250  20
  12  12  -7-583.671 308.605  18
  12  12  -7-9.28894 263.738  17
 -12 -12   7 369.989 326.610   9
  12 -12  -6 70219.3 2646.17  12
 -12  12   6 69455.4 2261.28  20
  12  12  -6 74438.0 2714.69  17
 -12 -12   6 71395.8 2382.41   9
 -12 -12   5 110.940 329.610   8
  12 -12  -5 459.540 328.802  12
 -12  12   5 115.597 337.391  20
 -12 -12   5-86.7734 336.888  11
  12  12  -5-780.102 403.433  17
 -12 -12   5-197.504 397.052   9
 -12 -12   4 21225.2 1436.00   8
 -12  12   4 19845.8 1305.29  20
 -12  12   4 20284.2 1246.76   3
 -12 -12   4 18983.7 1401.85  11
 -12 -12   4 20045.5 1360.32   9
 -12 -12   4 18975.6 1253.48   4
 -12 -12   3 608.511 341.840   4
 -12 -12   3 193.712 378.372   8
 -12  12   3 564.199 380.142  20
 -12 -12   3 1254.36 482.989  11
 -12  12   3 362.762 297.685   3
 -12 -12   3 673.792 476.247   9
 -12 -12   2 57138.4 2447.37   8
 -12  12   2 51120.7 2125.79  20
 -12  12   2 55552.5 2103.68   3
 -12 -12   2 56455.2 2429.35  11
 -12 -12   2 54695.1 2249.60   9
 -12 -12   2 54941.7 2303.11   4
 -12 -12   1-82.6449 499.941   8
 -12 -12   1 678.788 465.554   4
 -12  12   1 182.160 353.748  20
 -12 -12   1 405.349 403.529  11
 -12  12   1-30.9216 231.784   3
 -12 -12   1-62.8304 383.358   9
 -12 -12   0 60608.8 2590.89   8
 -12  12   0 56727.0 2242.60  20
 -12  12   0 56651.5 2278.22   3
 -12 -12   0 58389.5 2487.50  11
 -12 -12   0 54559.3 2290.17   9
 -12 -12   0 58959.3 2546.91   4
 -12 -12  -1 533.282 511.532   8
 -12 -12  -1 346.984 395.136   4
 -12  12  -1 341.240 338.899  20
 -12  12  -1-278.234 315.609   3
 -12 -12  -1 79.9716 346.425  11
 -12 -12  -1 109.064 303.135   9
 -12 -12  -2 39836.0 2158.40   4
 -12  12  -2 36511.5 1742.42  20
 -12  12  -2 36656.3 1848.79   3
 -12 -12  -2 36752.8 1941.74  11
 -12 -12  -3 296.630 377.214   4
 -12  12  -3 174.373 294.661  20
 -12  12  -3-127.029 292.113   3
 -12 -12  -3 52.8450 331.295  11
 -12  12  -4 37616.5 1656.27  20
 -12  12  -4 39833.3 1862.46   3
 -12 -12  -4 38307.6 1861.33  11
 -12 -12  -5 1069.37 346.119   7
 -12  12  -5 1176.94 340.138  20
 -12  12  -5 134.565 272.427   3
 -12 -12  -5 382.721 315.895  11
 -12  12  -5 1646.75 402.216  10
  12 -14  -9-184.069 347.408  12
  12  14  -9-98.8973 212.473  12
  12  14  -9-341.020 250.960  18
  12 -14  -8 1020.17 476.306  12
  12  14  -8 1385.92 457.231  12
  12  14  -8 1688.96 429.593  18
  12 -14  -8 637.172 835.885  14
  12 -14  -7 169.813 358.763  12
 -12 -14   7-108.958 308.465   9
  12 -14  -6 41867.8 2055.58  12
 -12  14   6 43068.6 1690.34  20
 -12 -14   6 39535.0 1770.73   9
 -12  14   5 334.042 292.521  20
 -12 -14   5-205.278 319.381  11
  12  14  -5-522.863 315.505  17
 -12 -14   5-686.111 432.951   9
 -12  14   4 20136.4 1275.35  20
 -12 -14   4 19612.5 1400.13  11
 -12 -14   4 21944.2 1410.78   9
 -12 -14   3 597.757 317.650   4
 -12  14   3 74.4186 280.578  20
 -12 -14   3-38.1169 356.520  11
 -12  14   3 1008.98 342.204   3
 -12 -14   3 96.7595 401.123   9
 -12  14   2 61245.3 2277.34  20
 -12  14   2 66113.4 2224.25   3
 -12 -14   2 60610.0 2498.07  11
 -12 -14   2 60246.4 2334.86   9
 -12 -14   2 62518.2 2404.78   4
 -12 -14   1-372.614 324.862   4
 -12  14   1 664.701 382.543  20
 -12 -14   1-458.454 386.167  11
 -12  14   1 24.7544 217.932   3
 -12 -14   1 355.449 363.780   9
 -12 -14   0 25246.8 1656.99   4
 -12  14   0 27542.8 1558.57  20
 -12  14   0 24842.4 1449.11   3
 -12 -14   0 27900.9 1709.42  11
 -12 -14   0 24549.7 1534.28   9
 -12 -14  -1 556.103 404.586   4
 -12  14  -1-79.4674 307.641  20
 -12 -14  -1 26.0384 310.294  11
 -12  14  -1 20.3381 302.861   3
 -12 -14  -1 51.4719 317.477   9
 -12  14  -2 29431.3 1546.33  20
 -12  14  -2 31595.9 1646.42   3
 -12 -14  -2 30760.2 1743.12  11
 -12  14  -3-29.0640 284.191  20
 -12  14  -3-72.6958 248.719   3
 -12 -14  -3 30.6344 269.353  11
 -12  14  -4 30694.5 1450.85  20
 -12  14  -4 32511.9 1586.84   3
 -12 -14  -4 33206.5 1664.70  11
  12 -16  -8 3442.39 659.970  12
  12  16  -8 2184.34 454.106  12
  12 -16  -8 1261.42 779.375  14
  12 -16  -7 878.357 412.621  12
 -12 -16   7 1032.85 354.988   9
  12 -16  -6 49641.8 3521.85  14
 -12 -16   6 44635.3 1783.82   9
 -12  16   5 37.6594 227.548  20
 -12 -16   5-175.693 348.349   9
 -12  16   4 11448.9 915.078  20
 -12 -16   4 11717.0 1019.84  11
 -12 -16   4 13120.2 1072.01   9
 -12  16   3 154.482 296.876  20
 -12 -16   3 390.657 345.763  11
 -12 -16   3 386.993 357.430   9
 -12 -16   2 37720.4 1765.18   4
 -12  16   2 34762.8 1638.67  20
 -12 -16   2 36610.2 1846.51  11
 -12 -16   2 36518.9 1774.87   9
 -12 -16   1-356.051 351.811   4
 -12  16   1 217.297 333.106  20
 -12 -16   1 419.623 372.563  11
 -12  16   1 29.2682 166.391   3
 -12 -16   1 135.071 372.733   9
 -12  16   0 22943.4 1364.28  20
 -12  16   0 26185.5 1380.41   3
 -12 -16   0 23078.9 1496.98  11
 -12 -16   0 21159.8 1345.42   9
 -12  16  -1-153.337 257.353  20
 -12 -16  -1 21.3932 277.025  11
 -12  16  -1-427.952 249.095   3
 -12 -16  -1-499.904 338.341   9
  12 -16   1-546.156 521.685  14
 -12  16  -2 20549.8 1241.97  20
 -12  16  -2 20350.5 1215.73   3
 -12 -16  -2 22068.0 1403.36  11
  12 -18  -6 38528.2 2800.08  14
 -12 -18   6 31587.1 1377.03   9
 -12 -18   5 230.018 297.065   9
 -12 -18   4 14474.5 1024.23  11
  12 -18  -4 15324.0 1827.92  14
 -12 -18   4 12398.8 977.322   9
 -12  18   3 51.4454 251.231  20
 -12 -18   3 856.207 322.969  11
 -12 -18   3-145.992 306.260   9
  12 -18  -3-572.639 836.086  14
 -12  18   2 33903.9 1504.07  20
 -12 -18   2 33246.3 1618.42  11
  12 -18  -2 32910.9 2517.04  14
 -12 -18   2 32510.3 1572.04   9
 -12  18   1 536.847 283.649  20
 -12 -18   1 678.326 307.481  11
 -12 -18   1-220.529 258.851   9
  12 -18  -1-30.4042 682.570  14
 -12  18   0 20659.4 1196.17  20
 -12 -18   0 21366.5 1317.07  11
 -12 -18   0 18459.4 1152.31   9
  13  -1 -12 88.5706 311.697  12
  13   1 -12-234.288 293.506  12
  13  -1 -11 43840.6 2207.89  12
  13   1 -11 41051.1 2136.29  12
  13   1 -11 42331.7 2340.04  18
  13  -1 -10 197.644 455.386  12
  13   1 -10-49.1201 430.004  12
  13   1 -10 550.568 486.246  18
  13  -1  -9 712.846 518.620  12
  13   1  -9 677.300 477.639  12
  13   1  -9 204.975 479.021  18
 -13   1   8 676.563 296.315  21
  13  -1  -8-34.6376 369.311  12
  13   1  -8 203.923 401.467  12
  13   1  -8-787.442 474.097  18
  13   1  -8 211.255 428.710  17
 -13   1   7 74250.4 2285.84  21
  13  -1  -7 69918.2 2865.87  12
  13   1  -7 74430.4 3028.06  12
  13   1  -7 63889.9 2839.09  18
  13  -1  -7 80990.1 3238.69  17
  13   1  -7 74501.2 3095.24  17
  13  -1  -6 1180.53 455.483  12
  13   1  -6 400.707 487.142  12
  13   1  -6 599.311 371.912  18
  13  -1  -6 441.185 461.828  17
  13   1  -6 664.979 544.208  17
  13  -1  -5 18817.1 1398.56  12
  13   1  -5 18523.2 1472.72  12
  13  -1  -5 16587.4 1521.64  17
  13   1  -5 16884.6 1548.41  17
  13  -1  -4-400.509 350.282  12
  13   1  -4 348.404 356.246  12
 -13  -1   4-45.7944 307.232  11
  13  -1  -4-435.326 476.797  17
  13   1  -4-218.138 563.681  17
 -13   1   4 265.544 429.893   3
  13   1  -3 64604.6 2415.75  12
 -13  -1   3 63506.8 2316.46  11
 -13   1   3 65334.2 2337.73   3
 -13  -1   3 64304.6 2338.56   3
  13  -1  -3 66604.1 2956.30  17
 -13   1   2 282.636 262.575  11
 -13  -1   2 17.2041 255.069  11
 -13   1   2 316.967 386.682   3
 -13  -1   2 688.922 416.253   3
 -13   1   1 52453.9 2088.55   3
 -13   1   1 59780.0 2127.44  11
 -13  -1   1 50981.5 2065.37   3
 -13  -1   1 56860.4 2164.67  11
 -13   1   0 2517.35 512.083  21
 -13  -1   0 2289.05 485.769  11
 -13   1   0 2231.62 520.950   3
 -13  -1   0 1923.03 483.625   3
 -13   1  -1 60813.7 2182.92  21
 -13   1  -1 65456.3 2122.61  20
 -13   1  -1 65553.5 2341.91   3
 -13  -1  -1 67252.5 2341.36   3
 -13   1  -2-148.895 236.964  21
 -13  -1  -2 257.974 282.055  21
 -13   1  -2 282.772 333.607   3
 -13  -1  -2 333.024 342.201   3
 -13   1  -3 86154.2 2677.76   3
 -13  -1  -3 88858.1 2807.82   4
  13  -3 -12 124.544 349.903  12
  13   3 -12 313.889 314.170  12
  13   3 -12-91.2582 318.148  18
  13  -3 -11 36855.8 2028.60  12
  13   3 -11 38442.2 2008.09  12
  13   3 -11 35921.5 2137.84  18
  13  -3 -10-40.0121 312.959  12
  13   3 -10 504.932 447.978  12
  13   3 -10 1025.05 541.911  18
  13  -3  -9 811.549 533.000  12
  13   3  -9 1545.59 554.214  12
  13   3  -9 1571.47 668.486  18
 -13   3   8 2119.49 478.666  21
  13  -3  -8 1990.63 665.275  12
  13   3  -8 963.569 504.804  12
  13   3  -8 2733.96 766.615  18
  13   3  -8 1150.19 538.809  17
 -13   3   7 90648.7 2544.68  21
  13  -3  -7 89328.0 3148.18  12
  13   3  -7 94753.6 3492.61  12
  13   3  -7 81902.4 3326.44  18
  13   3  -7 88019.6 3366.78  17
 -13   3   6 101.123 347.847  21
  13  -3  -6-429.102 406.327  12
  13   3  -6 368.742 535.220  12
  13  -3  -6 403.150 422.480  17
  13   3  -6 328.234 506.977  17
 -13   3   5 19686.2 1274.46  21
  13  -3  -5 21238.4 1408.83  12
  13   3  -5 19819.5 1614.01  12
  13  -3  -5 18810.1 1551.51  17
  13   3  -5 19274.4 1641.21  17
 -13   3   4 169.813 332.886  21
  13  -3  -4 600.612 317.631  12
  13   3  -4 170.835 449.032  12
 -13  -3   4 531.255 359.934  11
  13  -3  -4 412.708 492.177  17
  13   3  -4 957.007 547.727  17
 -13   3   4 116.710 320.993   3
 -13   3   3 111768. 2991.01  21
  13   3  -3 110346. 3476.01  12
 -13   3   3 117298. 3098.02   3
 -13  -3   3 109062. 3119.15  11
  13  -3  -3 111331. 3659.83  17
 -13   3   2 1115.11 464.108  21
 -13  -3   2 587.027 375.678  11
  13  -3  -2 1343.17 513.458  17
 -13   3   2 872.220 412.665   3
 -13  -3   2 1039.69 426.892   3
 -13   3   1 25265.3 1467.52   3
 -13  -3   1 24525.3 1488.55  11
 -13  -3   1 25418.3 1491.32   3
  13  -3  -1 26198.4 1798.28  17
 -13   3   1 23524.0 1417.93  21
 -13   3   0 264.100 349.940  21
 -13  -3   0 101.568 265.812  11
 -13   3   0 220.473 320.335   3
 -13  -3   0 10.6510 313.553   3
 -13   3  -1 56977.5 2108.92  21
 -13   3  -1 60028.2 2097.32  20
 -13   3  -1 63154.8 2313.96   3
 -13  -3  -1 61711.5 2236.10   3
 -13  -3  -1 58510.9 2247.28  11
 -13   3  -2 122.786 240.705  21
 -13   3  -2-206.023 256.336  20
 -13  -3  -2-257.284 305.642  11
 -13   3  -2 113.049 336.445   3
 -13   3  -3 62550.5 2337.00   3
 -13  -3  -3 59251.9 2403.80   4
 -13  -3  -3 59428.9 2411.54   8
 -13  -3  -4 389.405 343.964   4
 -13   3  -4 863.939 355.615   3
 -13   3  -4 87.3564 218.985   5
 -13   3  -5 10422.5 944.230   5
  13  -5 -12 926.078 380.118  12
  13   5 -12 1182.11 388.213  12
  13   5 -12 1236.95 467.178  18
  13  -5 -11 40229.4 2119.87  12
  13   5 -11 38469.6 1949.69  12
  13   5 -11 39007.2 2133.85  18
  13  -5 -10-380.667 375.344  12
  13   5 -10-20.5342 372.680  12
  13   5 -10-477.169 445.654  18
  13  -5  -9 1364.23 446.164  12
  13   5  -9 1235.66 554.657  12
  13   5  -9 1408.69 604.945  18
 -13   5   8 899.527 332.411  21
  13  -5  -8 967.471 477.966  12
  13   5  -8 858.966 505.571  12
  13   5  -8 1828.52 645.624  18
  13   5  -8 1425.93 587.410  17
 -13   5   7 100815. 2689.65  21
  13  -5  -7 100597. 3285.10  12
  13   5  -7 105722. 3755.78  12
  13   5  -7 92457.4 3652.38  18
  13   5  -7 101860. 3586.85  17
 -13   5   6-161.556 329.952  21
  13  -5  -6 20.0574 311.067  12
  13   5  -6-964.947 554.024  12
  13   5  -6 317.175 441.701  17
 -13   5   5 7771.42 842.814  21
  13  -5  -5 7639.80 850.097  12
  13   5  -5 6069.32 972.998  12
 -13  -5   5 7432.10 885.206  11
 -13   5   5 7948.97 884.167   3
  13  -5  -5 9287.34 1088.20  17
  13   5  -5 8032.34 1114.92  17
 -13   5   4 1076.84 459.360  21
  13   5  -4 1333.36 616.891  12
 -13  -5   4 865.638 419.910  11
  13  -5  -4 1311.81 467.317  17
 -13   5   4 773.065 445.363   3
 -13   5   3 108387. 2994.27  21
 -13   5   3 107427. 2986.06   3
 -13  -5   3 103038. 3109.56  11
  13  -5  -3 105568. 3324.20  17
 -13   5   2 95.8792 383.262  21
 -13  -5   2 168.948 331.578  11
 -13   5   2 384.201 356.884   3
 -13   5   1 16733.4 1212.12  21
 -13   5   1 19729.7 1336.42   3
 -13  -5   1 17105.4 1300.46  11
 -13   5   0 323.650 365.709  21
 -13   5   0 265.445 329.627  20
 -13  -5   0-60.0746 323.321  11
 -13   5   0 208.886 323.038   3
 -13   5  -1 70282.7 2333.20  21
 -13   5  -1 65128.5 2263.34  20
 -13  -5  -1 69362.5 2512.25  11
 -13  -5  -1 68858.3 2705.68   8
 -13  -5  -2 2825.27 665.778   8
 -13  -5  -2 3312.85 673.485   4
 -13   5  -2 4181.67 561.626  21
 -13   5  -2 3773.96 575.200  20
 -13  -5  -2 3265.45 582.746  11
 -13   5  -2 3567.92 659.059   3
 -13   5  -3 29225.4 1445.59  20
 -13   5  -3 25845.7 1580.76   3
 -13  -5  -3 26145.3 1539.33  11
 -13  -5  -3 27413.4 1709.20   4
 -13  -5  -3 27637.3 1689.94   8
 -13  -5  -4 850.125 390.337   4
 -13  -5  -4 1139.79 406.408   7
 -13   5  -4 910.038 374.662   3
 -13  -5  -5 8065.91 964.222   7
 -13   5  -5 8618.37 845.803   3
  13  -7 -11 34727.0 1942.56  12
  13   7 -11 33973.5 1761.80  12
  13   7 -11 34613.5 1926.84  18
  13  -7 -10 232.908 403.738  12
  13   7 -10 631.967 432.039  12
  13   7 -10-533.552 404.846  18
  13  -7  -9 129.986 382.896  12
  13   7  -9-3.08180 389.166  12
  13   7  -9 87.5618 483.333  18
 -13   7   8 308.506 230.367  21
  13  -7  -8-332.767 359.793  12
  13   7  -8 385.517 415.340  12
  13   7  -8 278.489 409.242  18
  13   7  -8-75.1778 365.108  17
 -13   7   7 87236.6 2511.89  21
  13  -7  -7 88038.0 3030.42  12
  13   7  -7 85823.5 3365.52  12
  13   7  -7 84245.9 3503.17  18
  13   7  -7 83272.4 3159.26  17
 -13  -7   6 2357.44 525.827   8
 -13   7   6 1877.56 498.503  21
  13  -7  -6 1706.36 486.885  12
  13   7  -6 1845.14 736.654  12
  13   7  -6 1513.27 604.856  17
 -13   7   5 8229.70 877.395  21
 -13  -7   5 10305.9 1042.62  11
 -13   7   5 8110.58 872.656   3
  13   7  -5 9938.47 1213.18  17
  13  -7  -5 8777.93 874.745  12
 -13  -7   5 8428.25 912.968   8
 -13  -7   4 253.896 377.443   8
 -13   7   4 145.357 370.909  21
 -13  -7   4 5.06963 358.974  11
 -13   7   4 123.351 321.203   3
 -13   7   3 94349.7 2822.31  21
 -13   7   3 94662.7 2815.41   3
 -13  -7   3 93745.3 3054.42  11
 -13  -7   3 94097.3 2980.43   8
 -13  -7   2 179.088 429.191   8
 -13   7   2-48.0514 342.090  21
 -13  -7   2 212.309 392.687  11
 -13   7   2 10.8689 339.953   3
 -13   7   1 17623.4 1264.23  21
 -13   7   1 17216.5 1270.13  20
 -13   7   1 19304.1 1335.84   3
 -13  -7   1 17296.7 1346.68  11
 -13  -7   1 17168.4 1367.86   8
 -13  -7   0 620.913 471.761   8
 -13   7   0 162.784 329.539  21
 -13   7   0 235.503 318.412  20
 -13  -7   0 114.392 336.178  11
 -13   7   0 7.06664 291.289   3
 -13   7  -1 41479.6 1822.74  21
 -13   7  -1 39554.4 1818.56  20
 -13   7  -1 43487.7 2038.73   3
 -13  -7  -1 43732.0 2071.98  11
 -13  -7  -1 41753.6 2187.12   4
 -13  -7  -1 41363.5 2146.52   8
 -13  -7  -2-232.515 479.368   8
 -13  -7  -2 80.9483 359.717   4
 -13   7  -2-28.2589 248.474  21
 -13   7  -2 492.500 328.030  20
 -13  -7  -2 22.3154 275.627  11
 -13   7  -2-44.2728 350.022   3
 -13   7  -3 38115.7 1681.04  20
 -13   7  -3 36796.2 1888.72   3
 -13  -7  -3 36746.5 1845.15  11
 -13  -7  -3 38344.1 2067.25   4
 -13  -7  -3 36535.0 1935.11   8
 -13  -7  -4 858.465 380.525   4
 -13  -7  -4 1367.77 468.532   7
 -13  -7  -4 603.211 331.670  11
 -13   7  -4 337.278 299.438   3
 -13  -7  -5 8704.26 988.040   7
 -13   7  -5 9222.98 900.438   3
  13  -9 -11 35349.0 1921.63  12
  13   9 -11 35055.1 1689.19  12
  13   9 -11 36578.4 1827.60  18
  13  -9 -10-191.391 378.558  12
  13   9 -10-577.518 418.006  12
  13   9 -10-840.216 467.734  18
  13  -9  -9 856.206 480.577  12
  13   9  -9 950.332 472.653  12
  13   9  -9-134.636 420.960  18
  13  -9  -8-166.675 352.464  12
  13   9  -8 147.483 422.287  12
  13   9  -8-246.268 363.672  18
  13   9  -8 70.6132 283.937  17
 -13   9   7 69263.8 2263.57  21
  13   9  -7 72489.3 3063.96  12
  13  -9  -7 73808.9 2770.20  12
  13   9  -7 70057.3 2779.97  17
 -13  -9   6 290.919 295.289   8
 -13   9   6-280.902 377.855  21
  13  -9  -6 823.473 416.830  12
  13   9  -6 9.39114 282.122  17
 -13   9   5 13716.4 1106.21  21
  13  -9  -5 13734.8 1092.07  12
 -13  -9   5 13725.0 1226.53  11
 -13   9   5 13168.2 1070.92   3
  13   9  -5 12854.2 1319.19  17
 -13  -9   5 13384.9 1077.36   9
 -13  -9   5 12265.5 1105.09   8
 -13  -9   4 993.342 441.177   8
 -13   9   4 906.254 438.031  21
 -13  -9   4 1284.84 556.874  11
 -13   9   4 1165.22 450.309   3
 -13  -9   4 1080.55 461.950   9
 -13   9   3 109519. 3081.71  21
 -13   9   3 114677. 3082.87   3
 -13  -9   3 112473. 3408.78  11
 -13  -9   3 111578. 3101.20   9
 -13  -9   3 117698. 3380.12   8
 -13  -9   2 240.352 477.020   8
 -13   9   2 103.468 351.118  21
 -13   9   2-92.5780 386.301  20
 -13  -9   2-40.0821 372.030  11
 -13   9   2-188.960 335.619   3
 -13  -9   2 89.6952 430.425   9
 -13   9   1 17886.9 1279.85  21
 -13   9   1 14585.3 1188.51  20
 -13   9   1 18276.9 1301.66   3
 -13  -9   1 16533.1 1355.32  11
 -13  -9   1 15658.1 1327.82   8
 -13  -9   0-738.511 436.824   4
 -13  -9   0-47.6780 395.998   8
 -13   9   0-114.028 412.045  21
 -13   9   0-406.908 361.345  20
 -13  -9   0-359.782 381.908  11
 -13   9   0 462.904 415.533   3
 -13   9  -1 48292.4 1975.06  21
 -13   9  -1 46317.7 1992.09  20
 -13   9  -1 47670.6 2134.32   3
 -13  -9  -1 50421.0 2272.90  11
 -13  -9  -1 49577.7 2404.66   4
 -13  -9  -1 48226.4 2324.58   8
 -13  -9  -2-303.670 413.836   8
 -13  -9  -2 359.688 363.161   4
 -13   9  -2 12.5786 330.737  20
 -13  -9  -2 382.568 373.361  11
 -13   9  -2 232.178 318.506   3
 -13  -9  -3 38041.9 2065.20   4
 -13  -9  -3 38252.3 1976.61   8
 -13   9  -3 38144.5 1703.44  20
 -13   9  -3 36427.8 1857.80   3
 -13  -9  -3 35072.3 1822.49  11
 -13  -9  -4 340.951 377.457   4
 -13   9  -4 892.297 302.525  20
 -13  -9  -4 720.326 375.590  11
 -13   9  -4 819.767 353.719   3
 -13   9  -4 1185.77 338.197  10
 -13  -9  -5 13891.2 1249.77   7
 -13   9  -5 12098.5 1002.94   3
 -13  -9  -5 13183.8 1023.99  11
  13 -11 -10 52.3385 297.152  12
  13  11 -10 326.610 302.829  12
  13  11 -10 16.6631 310.225  18
  13 -11  -9 612.938 428.604  12
  13  11  -9 565.244 419.894  12
  13  11  -9 540.565 281.034  18
  13 -11  -8 1104.75 453.970  12
 -13  11   8-209.588 224.326  20
  13  11  -8-153.936 338.167  12
  13  11  -8 1395.69 458.350  18
  13  11  -8 69.1453 144.904  17
  13 -11  -7 61566.1 2508.53  12
  13  11  -7 59835.3 2692.69  12
 -13  11   7 56135.4 2018.23  20
  13  11  -7 57892.7 2364.42  17
  13 -11  -6 99.4256 288.428  12
 -13  11   6-312.148 266.313  20
  13  11  -6-232.314 383.321  17
 -13 -11   6 41.2795 340.500   9
 -13 -11   5 10337.3 996.711   8
 -13  11   5 9410.00 935.284  21
 -13  11   5 8943.72 911.372  20
 -13 -11   5 11093.4 1078.01  11
 -13  11   5 10443.1 912.350   3
  13  11  -5 10714.8 1153.66  17
 -13 -11   5 11274.1 1015.50   9
 -13 -11   4-110.301 347.799   8
 -13  11   4 40.4395 334.923  21
 -13  11   4 101.155 321.370  20
 -13 -11   4 60.4287 359.218  11
 -13  11   4-14.5791 279.647   3
 -13 -11   4-597.838 397.422   9
 -13  11   3 52624.7 2187.50  21
 -13  11   3 54518.7 2197.75  20
 -13  11   3 55327.8 2143.51   3
 -13 -11   3 55481.5 2401.90  11
 -13 -11   3 54261.1 2195.03   9
 -13 -11   3 57068.4 2389.70   8
 -13 -11   2 3381.13 682.884   4
 -13 -11   2 4224.35 795.260   8
 -13  11   2 3207.68 645.906  21
 -13  11   2 3264.02 620.459  20
 -13 -11   2 3787.54 740.951  11
 -13  11   2 3654.23 619.149   3
 -13 -11   2 2498.85 580.727   9
 -13  11   1 39585.4 1880.40  21
 -13  11   1 41390.9 1955.01  20
 -13  11   1 47415.1 2030.72   3
 -13 -11   1 42229.4 2136.05  11
 -13 -11   1 43341.1 2013.86   9
 -13 -11   1 44884.9 2188.80   4
 -13 -11   1 44929.1 2219.99   8
 -13 -11   0-479.305 455.376   8
 -13 -11   0 22.9601 353.754   4
 -13  11   0 171.649 331.840  20
 -13 -11   0-634.824 423.753  11
 -13  11   0-4.67188 268.667   3
 -13 -11  -1 47823.1 2311.92   8
 -13  11  -1 45299.8 1962.10  20
 -13  11  -1 45155.0 2046.83   3
 -13 -11  -1 47215.6 2206.45  11
 -13 -11  -1 44705.2 2279.57   4
 -13 -11  -2 236.579 370.147   4
 -13  11  -2 321.055 292.299  20
 -13 -11  -2 578.738 441.977  11
 -13  11  -2-2.40308 294.890   3
 -13 -11  -3 45547.2 2214.52   4
 -13  11  -3 42040.2 1779.40  20
 -13  11  -3 45772.8 2023.07   3
 -13 -11  -3 43516.5 2018.50  11
 -13  11  -4 866.773 322.555  20
 -13 -11  -4 422.071 299.906  11
 -13  11  -4 984.888 366.511   3
 -13  11  -4 1224.02 352.797  10
  13 -13  -9-370.147 379.779  12
  13  13  -9 591.762 332.657  12
  13 -13  -8 343.843 405.719  12
  13  13  -8 79.1376 269.552  12
  13 -13  -8-588.297 767.001  14
  13 -13  -7 48105.5 2198.91  12
  13  13  -7 44253.7 2191.30  12
 -13  13   7 44784.7 1676.85  20
 -13  13   6-235.180 251.754  20
  13  13  -6-333.505 251.663  17
 -13 -13   6-144.562 310.186   9
 -13  13   5 8007.11 807.138  20
 -13 -13   5 7816.86 912.864  11
  13  13  -5 7836.48 951.231  17
 -13 -13   5 8829.83 873.913   9
 -13 -13   4 627.331 296.417   4
 -13  13   4 826.598 363.698  20
 -13 -13   4 601.149 398.591  11
 -13  13   4 802.268 343.502   3
 -13 -13   4 1132.35 463.165   9
 -13  13   3 53310.3 2136.38  20
 -13  13   3 55154.7 2069.45   3
 -13 -13   3 52822.2 2308.72  11
 -13 -13   3 56013.8 2227.99   9
 -13 -13   3 55315.8 2197.02   4
 -13 -13   2 450.069 403.034   8
 -13 -13   2-327.886 318.273   4
 -13  13   2 51.2411 327.805  20
 -13 -13   2 95.6142 370.175  11
 -13  13   2-656.278 332.991   3
 -13 -13   2 83.5494 353.260   9
 -13  13   1 25171.9 1498.52  20
 -13  13   1 28186.8 1530.50   3
 -13 -13   1 26402.6 1677.90  11
 -13 -13   1 23715.9 1489.39   9
 -13 -13   1 27562.8 1683.94   4
 -13 -13   0 536.435 335.453   4
 -13  13   0-94.1758 333.249  20
 -13 -13   0-644.186 377.862  11
 -13  13   0 53.7957 291.758   3
 -13 -13  -1 42474.8 2144.49   4
 -13  13  -1 38930.8 1778.99  20
 -13  13  -1 41737.2 1879.45   3
 -13 -13  -1 42725.3 2067.94  11
 -13 -13  -2 501.238 362.614   4
 -13  13  -2-267.671 286.839  20
 -13 -13  -2 178.405 317.654  11
 -13  13  -2-130.091 285.553   3
 -13  13  -3 32140.9 1517.63  20
 -13  13  -3 35648.2 1685.40   3
 -13 -13  -3 34999.5 1750.21  11
  13 -15  -8-507.535 323.418  12
  13  15  -8 124.084 295.408  12
  13 -15  -7 50208.3 2141.47  12
  13  15  -7 51329.6 2176.84  12
  13 -15  -7 51413.4 3447.08  14
 -13 -15   6-210.643 317.425   9
 -13  15   5 5534.74 650.631  20
 -13 -15   5 5787.23 740.887  11
 -13 -15   5 5536.60 698.485   9
 -13  15   4 536.261 315.071  20
 -13 -15   4 379.773 322.994  11
  13  15  -4 442.017 311.183  17
 -13 -15   4 311.856 366.279   9
 -13  15   3 53808.8 2033.25  20
 -13 -15   3 54298.5 2236.84  11
 -13 -15   3 57382.0 2178.73   9
 -13 -15   2 81.8945 291.393   4
 -13  15   2 350.334 323.140  20
 -13 -15   2 500.005 352.257  11
 -13  15   2 288.435 219.335   3
 -13 -15   2-49.9778 367.860   9
 -13 -15   1 10102.1 980.762   4
 -13  15   1 11363.3 982.007  20
 -13  15   1 9672.46 864.926   3
 -13 -15   1 9952.91 1012.56  11
 -13 -15   1 8185.16 868.192   9
 -13 -15   0-119.345 293.846   4
 -13  15   0-66.6013 259.180  20
 -13 -15   0-61.3415 301.191  11
 -13  15   0 495.052 312.167   3
 -13  15  -1 31215.8 1511.80   3
 -13 -15  -1 30519.4 1675.93  11
 -13  15  -2 640.513 353.849  20
 -13 -15  -2 477.897 397.653  11
 -13  15  -2 416.637 244.135   3
 -13 -17   6-830.053 316.496   9
  13 -17  -6-1310.36 854.522  14
 -13 -17   5 3000.66 516.635   9
  13 -17  -5 2400.59 1035.14  14
 -13  17   4 875.386 295.408  20
 -13 -17   4 103.351 301.001  11
 -13 -17   4 222.974 279.001   9
  13 -17  -4 37.4029 709.804  14
 -13  17   3 35561.2 1523.02  20
 -13 -17   3 34461.0 1647.26  11
 -13 -17   3 36883.0 1644.38   9
 -13  17   2-10.4951 271.529  20
 -13 -17   2 607.073 378.220  11
 -13 -17   2-41.6880 305.436   9
 -13  17   1 10597.1 885.051  20
 -13 -17   1 9132.67 906.463  11
 -13 -17   1 8375.04 806.961   9
  13 -17  -1 9317.94 1364.79  14
 -13  17   0 174.962 266.832  20
 -13 -17   0-327.725 322.208  11
  13 -17   0-843.279 653.649  14
  14   0 -12 30744.5 1669.55  12
  14   0 -11 306.480 409.459  12
  14   0 -10 1450.17 563.147  12
  14   0  -9 925.396 527.000  12
 -14   0   8 50419.0 1839.26  21
  14   0  -8 47528.4 2475.77  12
  14   0  -8 52979.1 2682.61  17
  14   0  -7-80.1127 437.303  12
  14   0  -7-6.92071 437.961  17
  14   0  -6 2317.57 602.406  12
  14   0  -6 3099.74 797.382  17
  14   0  -5-834.025 453.704  12
  14   0  -5 258.332 520.281  17
  14   0  -4 52341.0 2259.64  12
  14   0  -4 49706.8 2661.81  17
  14   0  -3-1027.05 620.025  17
 -14   0   3 221.533 329.941   3
 -14   0   2 5754.83 743.973  11
 -14   0   2 6412.85 830.559   3
 -14   0   1 212.390 286.286  11
 -14   0   1-76.2663 323.272   3
 -14   0   0 43415.4 1944.03  21
 -14   0   0 42029.7 1949.27   3
 -14   0  -1 128.489 315.631  21
 -14   0  -1-47.8886 321.382   3
 -14   0  -2 56446.5 2218.74   3
  14  -2 -12 31491.5 1696.14  12
  14   2 -12 28879.9 1581.89  12
  14  -2 -11-60.8419 367.830  12
  14   2 -11 141.331 352.855  12
  14  -2 -10 422.682 375.632  12
  14   2 -10 465.992 405.029  12
  14   2 -10-110.622 419.810  18
  14  -2  -9-85.5171 432.323  12
  14   2  -9 540.973 463.834  12
 -14   2   8 72070.6 2179.97  21
  14  -2  -8 73012.0 2987.14  12
  14   2  -8 71028.0 3032.05  12
  14   2  -8 62717.1 3016.69  18
  14   2  -8 72026.2 3066.22  17
 -14   2   7 134.819 330.493  21
  14  -2  -7 284.669 393.869  12
  14   2  -7-791.015 477.648  12
  14   2  -7-934.508 452.534  18
  14  -2  -7 118.015 499.607  17
  14   2  -7 449.142 456.019  17
 -14   2   6 1447.18 471.685  21
  14  -2  -6 1965.77 560.827  12
  14   2  -6 2319.00 686.474  12
  14  -2  -6 1206.48 560.919  17
  14   2  -6 2058.83 679.452  17
 -14   2   5 730.880 425.190  21
  14  -2  -5 859.585 417.935  12
  14   2  -5 254.681 376.304  12
  14  -2  -5-99.9274 503.559  17
  14   2  -5 194.329 505.744  17
 -14   2   4 55290.9 2174.77  21
  14   2  -4 57527.8 2566.58  12
 -14  -2   4 54205.9 2230.29  11
 -14   2   4 58494.7 2318.82   3
  14  -2  -4 55250.5 2731.87  17
  14   2  -4 56898.3 2912.05  17
 -14   2   3 305.238 412.648  21
 -14  -2   3 403.258 346.492  11
  14  -2  -3-14.0281 494.319  17
 -14   2   3 322.597 368.858   3
 -14   2   2 6836.05 846.219  21
 -14   2   2 7153.79 874.029   3
 -14  -2   2 7786.25 877.505  11
 -14  -2   2 6795.33 860.444   3
  14  -2  -2 7421.53 1046.85  17
 -14   2   1 2412.25 561.322  21
 -14  -2   1 2676.85 558.100  11
  14  -2  -1 1556.85 624.701  17
 -14   2   1 3696.36 664.429   3
 -14  -2   1 2462.75 588.380   3
 -14   2   0 74670.5 2443.89  20
 -14   2   0 78756.6 2640.40   3
 -14  -2   0 83385.7 2676.52  11
 -14  -2   0 75642.3 2594.94   3
 -14   2  -1 808.982 369.865  21
 -14   2  -1 967.958 342.355  20
 -14   2  -1 454.929 321.554   3
 -14  -2  -1 563.694 387.450   3
 -14   2  -2 27437.6 1586.03   3
 -14  -2  -3 418.810 356.026   4
 -14   2  -3 760.448 351.238   3
  14  -4 -12 34279.9 1776.48  12
  14   4 -12 32639.7 1619.49  12
  14  -4 -11-376.879 377.399  12
  14   4 -11 611.189 384.920  12
  14   4 -11 664.186 409.427  18
  14  -4 -10 192.050 422.251  12
  14   4 -10 432.161 404.406  12
  14   4 -10-27.8217 366.992  18
  14  -4  -9 408.665 414.394  12
  14   4  -9 66.9479 394.386  12
  14   4  -9 98.5240 417.730  18
 -14   4   8 78368.2 2268.33  21
  14  -4  -8 72715.6 2924.61  12
  14   4  -8 74732.2 3139.68  12
  14   4  -8 69455.9 3206.23  18
  14   4  -8 73809.7 3039.24  17
 -14   4   7 142.384 303.884  21
  14  -4  -7 459.843 408.675  12
  14   4  -7-433.272 414.603  12
  14   4  -7 163.150 401.837  17
 -14   4   6 1957.82 508.991  21
  14  -4  -6 1394.91 483.631  12
  14   4  -6 2740.69 697.265  12
  14  -4  -6 2616.87 710.239  17
  14   4  -6 3024.92 774.163  17
 -14   4   5 154.488 378.346  21
  14  -4  -5 25.4443 232.930  12
  14   4  -5 3.50739 394.775  12
  14  -4  -5-274.327 412.695  17
  14   4  -5-352.711 476.317  17
 -14   4   4 86359.6 2713.22  21
  14   4  -4 84660.1 3340.48  12
 -14  -4   4 78328.5 2746.17  11
 -14   4   4 80860.3 2696.56   3
  14  -4  -4 78009.4 3081.53  17
  14   4  -4 86149.7 3567.98  17
 -14   4   3 4262.13 689.796  21
  14   4  -3 3042.83 787.304  12
 -14  -4   3 3072.48 614.926  11
  14  -4  -3 2825.50 658.199  17
 -14   4   3 3134.26 644.226   3
 -14   4   2 2330.66 584.374  21
 -14  -4   2 3327.16 701.362  11
  14  -4  -2 1830.39 550.551  17
 -14   4   2 3085.94 654.115   3
 -14   4   1-42.3563 332.607  21
 -14  -4   1 146.632 319.054  11
 -14   4   1-195.031 351.180   3
 -14   4   0 61389.8 2291.28  21
 -14   4   0 59731.0 2237.66  20
 -14   4   0 67768.5 2484.41   3
 -14  -4   0 60826.6 2381.81  11
 -14   4  -1 1326.36 442.500  21
 -14   4  -1 950.854 369.453  20
 -14  -4  -1 325.633 327.977  11
 -14   4  -1 722.944 421.455   3
 -14   4  -2 28428.4 1455.61  20
 -14   4  -2 28019.9 1602.66   3
 -14  -4  -2 26931.2 1553.84  11
 -14  -4  -2 26009.0 1675.35   4
 -14  -4  -2 25837.8 1672.14   8
 -14  -4  -3-67.6342 317.495   8
 -14  -4  -3-336.679 376.522   4
 -14   4  -3 345.149 274.878   3
 -14  -4  -4 27351.6 1557.34   4
 -14   4  -4 27082.1 1483.12   3
  14  -6 -11-583.971 375.228  12
  14   6 -11 135.142 313.798  12
  14   6 -11-27.1369 261.710  18
  14  -6 -10-149.507 322.167  12
  14   6 -10 127.571 366.858  12
  14   6 -10-910.714 487.749  18
  14  -6  -9-1225.51 517.928  12
  14   6  -9 166.715 418.747  12
  14   6  -9-497.701 503.415  18
 -14   6   8 85223.4 2354.49  21
  14  -6  -8 78093.8 2970.43  12
  14   6  -8 82617.8 3270.96  12
  14   6  -8 80545.7 3421.27  18
  14   6  -8 80098.0 3053.63  17
 -14   6   7-140.591 300.250  21
  14  -6  -7 327.948 343.492  12
  14   6  -7-511.567 498.390  12
  14   6  -7-95.1921 389.620  17
 -14  -6   6 1401.79 459.570   8
 -14   6   6 701.754 360.366  21
  14  -6  -6 451.853 371.528  12
  14   6  -6 830.685 543.984  12
  14   6  -6 1846.84 633.395  17
 -14   6   5 636.420 415.310  21
  14  -6  -5 765.551 346.736  12
  14   6  -5-186.231 460.932  12
 -14  -6   5-142.498 352.483  11
  14   6  -5-65.0359 490.483  17
 -14   6   5 721.153 374.044   3
 -14   6   4 83560.5 2708.97  21
  14   6  -4 85503.5 3554.86  12
 -14  -6   4 84952.0 2917.29  11
 -14   6   4 82794.2 2729.19   3
  14  -6  -4 88848.9 3106.10  17
 -14   6   3 290.759 412.316  21
  14   6  -3 269.543 445.148  12
 -14  -6   3 519.720 416.356  11
 -14   6   3 324.519 371.515   3
 -14   6   2 2476.87 605.334  21
 -14  -6   2 1129.17 479.515  11
 -14   6   2 2083.04 574.140   3
 -14  -6   1 292.200 470.059   8
 -14   6   1 408.447 385.764  21
 -14   6   1 435.812 360.902  20
 -14  -6   1 1065.87 486.574  11
 -14   6   1 550.324 401.430   3
 -14   6   0 68780.7 2409.28  21
 -14   6   0 68670.0 2425.69  20
 -14  -6   0 71776.5 2662.14  11
 -14  -6   0 74735.8 2858.04   8
 -14  -6  -1 1270.48 510.445   8
 -14  -6  -1 171.539 353.431   4
 -14   6  -1 1182.71 411.765  21
 -14   6  -1 1220.51 401.491  20
 -14  -6  -1 542.560 330.123  11
 -14   6  -1 1203.43 422.396   3
 -14   6  -2 14661.2 1041.65  21
 -14   6  -2 12886.3 1020.33  20
 -14   6  -2 14816.0 1199.50   3
 -14  -6  -2 14467.4 1195.77  11
 -14  -6  -2 14411.8 1274.72   4
 -14  -6  -2 13522.7 1261.30   8
 -14  -6  -3-727.782 388.173   8
 -14  -6  -3-154.074 333.342   4
 -14  -6  -3-263.288 277.465  11
 -14   6  -3 318.514 297.447   3
 -14  -6  -4 24190.9 1495.58   4
 -14   6  -4 25766.8 1451.84   3
  14  -8 -11-207.195 348.180  12
  14   8 -11 97.7569 342.812  12
  14   8 -11-79.4422 287.254  18
  14  -8 -10 67.8390 345.628  12
  14   8 -10-434.865 336.163  12
  14   8 -10 581.593 384.230  18
  14  -8  -9 186.011 373.418  12
  14   8  -9 130.908 354.697  12
  14   8  -9 395.956 417.504  18
 -14   8   8 65364.9 2040.65  21
  14  -8  -8 58375.1 2541.30  12
  14   8  -8 62298.6 2770.45  12
  14   8  -8 58163.3 2487.27  17
 -14   8   7 297.254 312.455  21
  14  -8  -7 88.2099 292.879  12
  14   8  -7 288.569 466.250  12
  14   8  -7 672.779 460.988  17
 -14  -8   6 5256.27 702.177   8
 -14   8   6 5243.77 727.138  21
  14  -8  -6 4691.83 726.249  12
  14   8  -6 4617.25 900.617  12
  14   8  -6 4695.55 828.716  17
 -14  -8   5 520.896 350.469   8
 -14   8   5 755.479 432.566  21
  14   8  -5 1076.71 632.486  12
 -14  -8   5 928.896 456.694  11
  14   8  -5-374.384 527.643  17
 -14   8   5 696.232 393.053   3
 -14   8   4 95784.6 2896.65  21
 -14  -8   4 96197.1 3152.55  11
 -14   8   4 94209.6 2887.88   3
 -14  -8   4 101302. 3103.09   8
 -14  -8   3 1464.14 531.616   8
 -14   8   3 1774.90 507.821  21
 -14  -8   3 1359.23 522.582  11
 -14   8   3 1201.15 427.162   3
 -14  -8   2 3626.71 670.842   8
 -14   8   2 3688.88 633.856  21
 -14   8   2 3232.04 644.249  20
 -14  -8   2 4087.80 725.419  11
 -14   8   2 4183.95 691.320   3
 -14  -8   1 1028.43 526.686   8
 -14   8   1 849.159 472.840  21
 -14   8   1 1246.90 479.360  20
 -14  -8   1 949.041 477.234  11
 -14   8   1 748.033 414.021   3
 -14   8   0 59711.1 2243.03  21
 -14   8   0 56777.6 2242.00  20
 -14   8   0 64943.4 2435.54   3
 -14  -8   0 59291.7 2464.21  11
 -14  -8   0 59494.4 2595.11   4
 -14  -8   0 58521.6 2559.41   8
 -14  -8  -1 775.819 506.777   8
 -14  -8  -1 435.255 417.411   4
 -14   8  -1 386.796 360.822  21
 -14   8  -1 387.082 308.823  20
 -14  -8  -1 95.7407 296.555  11
 -14   8  -1 229.686 290.163   3
 -14   8  -2 22152.7 1332.52  20
 -14   8  -2 23821.8 1482.96   3
 -14  -8  -2 21974.4 1462.85  11
 -14  -8  -2 24624.8 1683.60   4
 -14  -8  -2 23255.7 1583.62   8
 -14  -8  -3 1354.83 450.640   8
 -14  -8  -3 1388.96 463.520   4
 -14   8  -3 1788.80 420.827  20
 -14  -8  -3 1134.58 404.460  11
 -14   8  -3 1484.03 439.047   3
 -14   8  -4 33512.1 1623.76   3
 -14  -8  -4 30442.8 1572.23  11
  14 -10 -10-359.255 366.344  12
  14  10 -10-999.775 435.152  18
  14 -10  -9 739.973 538.971  12
  14  10  -9 366.039 360.836  12
  14 -10  -8 44295.9 2180.32  12
  14  10  -8 45984.0 2289.94  12
  14  10  -8 44549.8 2021.29  17
  14 -10  -7 177.019 293.088  12
  14  10  -7 3.19213 361.562  12
  14  10  -7 521.020 380.334  17
 -14 -10   6 4560.36 668.320   8
 -14  10   6 3702.98 616.883  21
  14 -10  -6 4151.96 677.974  12
  14  10  -6 3230.77 758.974  12
  14  10  -6 4174.33 753.484  17
 -14 -10   5 518.023 401.423   8
 -14  10   5 643.043 379.437  21
 -14 -10   5 66.8474 381.380  11
  14  10  -5 35.2899 392.401  17
 -14  10   5 630.104 320.744   3
 -14  10   4 40843.0 1905.81  21
 -14  10   4 40696.5 1906.16  20
 -14 -10   4 40314.3 2063.60  11
 -14  10   4 43355.0 1919.11   3
 -14 -10   4 46013.4 2096.20   8
 -14 -10   3 1504.54 545.667   8
 -14  10   3 1162.87 479.067  21
 -14  10   3 785.457 418.755  20
 -14 -10   3 864.231 478.116  11
 -14  10   3 709.541 387.212   3
 -14  10   2 20274.8 1378.92  21
 -14  10   2 19603.8 1360.80  20
 -14  10   2 19777.6 1334.41   3
 -14 -10   2 19528.6 1477.84  11
 -14 -10   2 18391.7 1408.42   8
 -14 -10   1 1026.77 485.359   4
 -14 -10   1 1020.74 500.770   8
 -14  10   1 927.264 417.731  21
 -14  10   1 1521.80 478.020  20
 -14 -10   1 725.788 435.676  11
 -14  10   1 1721.94 509.118   3
 -14  10   0 51967.6 2144.02  20
 -14  10   0 58292.6 2279.52   3
 -14 -10   0 55749.2 2408.34  11
 -14 -10   0 56110.7 2498.65   4
 -14 -10   0 56929.6 2482.17   8
 -14 -10  -1-341.503 431.902   8
 -14 -10  -1 1245.05 447.916   4
 -14  10  -1 369.711 379.710  20
 -14 -10  -1 273.150 390.013  11
 -14  10  -1 1319.07 460.306   3
 -14 -10  -2 23395.1 1571.28   8
 -14  10  -2 20506.8 1270.01  20
 -14  10  -2 24296.8 1423.36   3
 -14 -10  -2 24001.6 1522.92  11
 -14 -10  -2 23173.5 1602.91   4
 -14 -10  -3 119.235 288.613   4
 -14  10  -3-346.530 235.919  20
 -14 -10  -3 38.2535 260.200  11
 -14  10  -3 380.541 224.706   3
 -14 -10  -4 25972.9 1422.96  11
  14 -12  -9 44.1452 325.592  12
  14  12  -9 45.2994 282.431  12
  14 -12  -8 44041.0 2103.81  12
  14  12  -8 46894.4 2158.76  12
  14 -12  -7-147.716 298.515  12
 -14  12   7 321.132 262.600  20
  14  12  -7-240.402 359.148  12
  14  12  -7-373.616 295.126  17
 -14  12   6 2288.96 447.989  20
  14  12  -6 3132.35 613.240  17
 -14 -12   5-64.6367 376.827   8
 -14  12   5 325.660 379.138  20
 -14 -12   5 681.052 406.562  11
  14  12  -5 667.662 410.718  17
 -14 -12   4 51280.1 2176.10   8
 -14  12   4 48722.5 2016.54  20
 -14 -12   4 50216.5 2237.74  11
 -14  12   4 51285.3 2008.15   3
 -14 -12   4 52452.9 2084.28   4
 -14 -12   3-79.6244 281.138   4
 -14 -12   3 927.035 466.434   8
 -14  12   3 68.5214 312.757  20
 -14 -12   3 751.340 434.267  11
 -14  12   3 395.272 335.806   3
 -14 -12   2 8541.69 989.864   8
 -14  12   2 7511.92 863.023  20
 -14  12   2 8401.38 872.965   3
 -14 -12   2 10095.2 1073.75  11
 -14 -12   2 8704.97 984.413   4
 -14 -12   1-399.806 413.172   8
 -14 -12   1 21.0926 341.513   4
 -14  12   1 391.101 373.808  20
 -14 -12   1 666.629 443.336  11
 -14  12   1 777.591 368.984   3
 -14 -12   0 37854.4 2000.90   8
 -14  12   0 36547.7 1760.03  20
 -14  12   0 37719.6 1766.91   3
 -14 -12   0 38850.5 1989.28  11
 -14 -12   0 38271.8 2019.32   4
 -14 -12  -1 138.438 348.543   4
 -14  12  -1-119.038 278.529  20
 -14 -12  -1-416.634 367.348  11
 -14  12  -1 4.18531 229.834   3
 -14 -12  -2 26284.5 1642.94   4
 -14  12  -2 23768.3 1332.93  20
 -14 -12  -2 27374.7 1577.54  11
 -14  12  -3-190.885 202.004  20
 -14 -12  -3-191.657 256.549  11
 -14  12  -3 105.431 218.135   3
  14 -14  -8 39593.3 1904.97  12
  14  14  -8 43365.2 1897.49  12
  14 -14  -8 44626.8 2936.66  14
  14  14  -7 532.859 365.759  12
 -14  14   6 1329.41 346.117  20
  14  14  -6 1498.97 371.242  17
 -14  14   5-180.084 261.662  20
 -14 -14   5-307.732 321.107  11
  14  14  -5 608.695 320.798  17
 -14  14   4 39065.2 1706.08  20
 -14 -14   4 41305.4 1923.84  11
  14  14  -4 39811.0 1968.05  17
 -14 -14   4 42969.0 1843.34   9
 -14 -14   3 263.608 283.485   4
 -14  14   3-60.6365 297.996  20
 -14 -14   3-361.286 335.945  11
 -14  14   3-452.806 275.491   3
 -14  14   2 5073.41 692.577  20
 -14  14   2 6592.82 736.408   3
 -14 -14   2 6547.04 863.702  11
 -14 -14   2 6420.35 781.873   4
 -14 -14   1-129.675 289.866   4
 -14  14   1-425.714 306.927  20
 -14 -14   1 449.152 382.837  11
 -14  14   1-296.907 266.932   3
 -14 -14   0 33564.7 1778.62   4
 -14  14   0 30711.8 1538.34  20
 -14  14   0 33117.7 1554.15   3
 -14 -14   0 29267.9 1654.16  11
 -14  14  -1 139.568 263.170  20
 -14 -14  -1 52.4793 235.551  11
 -14  14  -1-358.584 263.862   3
  14  16  -6 711.478 340.087  12
  14 -16  -6-595.546 933.973  14
 -14  16   5-111.874 227.437  20
 -14  16   4 41022.2 1597.71  20
 -14 -16   4 42540.3 1780.20  11
  14  16  -4 43478.0 1791.24  17
 -14  16   3 502.567 325.641  20
 -14 -16   3 309.379 277.058  11
  14  16  -3 230.727 135.943  17
 -14  16   2 3880.25 564.825  20
 -14 -16   2 4154.58 642.171  11
 -14  16   1 1077.47 353.500  20
 -14 -16   1 680.142 334.571  11
  15  -1 -11 1580.03 513.058  12
  15   1 -11 1348.46 468.113  12
  15  -1 -10 240.481 315.196  12
  15   1 -10 72.9130 370.294  12
  15  -1  -9 55087.9 2580.86  12
  15   1  -9 54774.4 2626.43  12
 -15   1   8 159.088 250.629  21
 -15  -1   8 243.423 263.308  21
  15  -1  -8 493.658 439.720  12
  15   1  -8 1456.53 557.512  12
  15   1  -8 240.245 492.337  17
 -15   1   7 33.6594 301.918  21
  15  -1  -7 1085.58 556.895  12
  15   1  -7 170.051 394.601  12
  15  -1  -7 120.636 518.627  17
  15   1  -7 63.2848 446.924  17
 -15   1   6 6.34437 340.311  21
  15  -1  -6 91.9575 403.242  12
  15   1  -6-182.182 449.227  12
  15  -1  -6 279.670 501.253  17
  15   1  -6 83.7394 426.270  17
 -15   1   5 69253.6 2431.94  21
  15  -1  -5 64106.6 2578.22  12
  15   1  -5 64228.8 2751.20  12
  15  -1  -5 68977.8 3134.62  17
  15   1  -5 64883.4 3105.01  17
  15  -1  -4-123.764 378.359  17
  15   1  -4 477.719 605.308  17
 -15   1   3 17307.3 1273.57  21
 -15   1   3 17757.6 1340.73   3
  15  -1  -3 16246.1 1603.63  17
  15   1  -3 16827.6 1688.87  17
 -15   1   2 698.504 427.378  21
 -15  -1   2 655.281 376.256  11
  15  -1  -2 863.139 586.172  17
  15   1  -2 894.527 711.572  17
 -15   1   2 548.789 397.767   3
 -15  -1   2 1225.83 440.613   3
 -15   1   1 28985.6 1639.23  21
 -15  -1   1 32350.9 1669.67  11
 -15   1   1 30260.2 1707.14   3
 -15  -1   1 28854.1 1660.01   3
  15  -1  -1 27690.1 2097.89  17
 -15   1   0 1616.48 498.847  21
 -15  -1   0 1148.03 394.900  21
 -15   1   0 1422.20 431.700  20
  15  -1   0 1768.50 588.639  17
 -15   1   0 1394.59 454.211   3
 -15  -1   0 1228.67 471.564   3
 -15   1  -1 20053.3 1281.89  21
 -15  -1  -1 19427.1 1290.34  21
 -15   1  -1 18505.9 1322.58   3
 -15  -1  -1 20015.4 1355.17   3
 -15  -1  -2 148.024 370.751   4
 -15   1  -2 312.704 258.172   3
  15  -3 -11 962.521 446.715  12
  15   3 -11 1093.49 428.912  12
  15  -3 -10 29.0564 357.583  12
  15   3 -10 329.244 364.038  12
  15  -3  -9 59675.3 2652.25  12
  15   3  -9 60957.5 2721.22  12
 -15   3   8-223.685 258.182  21
  15  -3  -8 196.693 496.849  12
  15   3  -8-117.148 373.908  12
  15   3  -8-13.2588 433.037  17
 -15   3   7 1026.11 386.610  21
  15  -3  -7 35.4038 338.054  12
  15   3  -7 180.714 451.431  12
  15   3  -7-3.48354 367.444  17
 -15   3   6 459.756 410.984  21
  15  -3  -6-116.874 385.737  12
  15   3  -6 889.645 533.755  12
  15  -3  -6 491.223 524.720  17
  15   3  -6-3.64871 401.463  17
 -15   3   5 70896.3 2472.57  21
  15   3  -5 66402.0 2977.53  12
  15  -3  -5 68927.4 3048.83  17
  15   3  -5 67680.8 3163.54  17
 -15   3   4 798.943 458.896  21
  15   3  -4 1705.61 532.739  12
 -15  -3   4 1276.98 453.120  11
  15  -3  -4 739.154 453.960  17
  15   3  -4-158.303 452.674  17
 -15   3   4 1387.87 511.276   3
 -15   3   3 16332.7 1266.34  21
 -15  -3   3 15464.3 1242.37  11
 -15   3   3 16239.3 1289.54   3
  15  -3  -3 15719.9 1477.02  17
 -15   3   2 907.223 454.676  21
 -15  -3   2 165.794 219.934  11
  15  -3  -2 452.532 403.182  17
 -15   3   2 667.687 376.138   3
 -15   3   1 31428.5 1687.55  21
 -15   3   1 30899.4 1662.32  20
 -15   3   1 34928.7 1834.45   3
 -15  -3   1 34040.3 1798.07  11
 -15   3   0 321.397 329.543  21
 -15   3   0 795.598 371.337  20
 -15  -3   0-39.1465 187.689  11
 -15   3   0 336.471 351.644   3
 -15   3  -1 22717.7 1369.38  21
 -15  -3  -1 22206.2 1397.88  21
 -15   3  -1 23985.6 1377.63  20
 -15   3  -1 20599.1 1404.98   3
 -15  -3  -2 2233.12 577.268   8
 -15  -3  -2 2092.61 551.243   4
 -15   3  -2 1419.41 402.756   3
 -15   3  -3 37046.6 1736.75   3
 -15  -3  -3 36572.9 1819.12   4
  15  -5 -11 770.084 428.104  12
  15   5 -11 902.497 394.425  12
  15  -5 -10 297.696 383.739  12
  15   5 -10 24.3639 309.132  12
  15   5 -10 564.749 282.911  18
  15  -5  -9 65753.9 2742.59  12
  15   5  -9 67696.0 2812.59  12
 -15   5   8 503.219 306.103  21
  15  -5  -8 190.871 434.345  12
  15   5  -8 708.874 469.809  12
  15   5  -8 988.081 513.075  17
 -15   5   7 613.720 390.099  21
  15  -5  -7 241.914 377.056  12
  15   5  -7 652.007 504.470  12
  15   5  -7 946.522 483.558  17
 -15   5   6 1070.17 441.437  21
  15  -5  -6 977.724 423.775  12
  15   5  -6 1168.79 560.500  12
  15   5  -6 532.292 536.710  17
 -15   5   5 95362.4 2855.34  21
  15   5  -5 89482.2 3597.67  12
  15  -5  -5 95788.1 3471.44  17
  15   5  -5 89891.7 3637.82  17
 -15   5   4 902.172 451.107  21
  15   5  -4 1380.79 564.197  12
 -15  -5   4 462.206 447.643  11
  15  -5  -4 563.037 410.237  17
  15   5  -4 1214.99 588.033  17
 -15   5   4 1176.03 499.443   3
 -15   5   3 12420.8 1114.30  21
 -15  -5   3 13450.3 1172.20  11
 -15   5   3 12208.0 1123.66   3
  15  -5  -3 13070.4 1227.49  17
 -15   5   2 493.043 371.219  21
 -15  -5   2 197.663 333.909  11
 -15   5   2 526.574 408.092   3
 -15   5   1 41690.4 1924.04  21
 -15   5   1 40782.4 1923.33  20
 -15   5   1 47613.5 2133.89   3
 -15  -5   1 43100.6 2055.72  11
 -15  -5   0-665.181 466.475   8
 -15   5   0-183.642 338.421  21
 -15   5   0 156.797 330.265  20
 -15  -5   0-48.9347 256.968  11
 -15   5   0-793.830 423.770   3
 -15   5  -1 10921.8 940.633  21
 -15   5  -1 9014.00 879.613  20
 -15   5  -1 10826.8 1031.40   3
 -15  -5  -1 10760.7 1012.67  11
 -15  -5  -1 9389.11 1061.87   4
 -15  -5  -1 9995.84 1080.74   8
 -15  -5  -2-548.711 364.909   8
 -15  -5  -2 658.483 357.051   4
 -15   5  -2 211.093 273.291  20
 -15  -5  -2 197.065 259.062  11
 -15   5  -2 477.920 311.229   3
 -15   5  -3 19547.4 1281.30   3
 -15  -5  -3 18959.2 1366.10   4
  15  -7 -10-357.098 346.876  12
  15   7 -10 124.888 296.906  12
  15   7 -10 564.258 271.496  18
  15  -7  -9 62992.3 2624.04  12
  15   7  -9 62234.3 2630.79  12
 -15   7   8 379.974 208.718  21
  15  -7  -8-481.667 398.351  12
  15   7  -8 884.544 459.517  12
  15   7  -8 31.6469 318.936  17
 -15   7   7 341.135 302.730  21
  15  -7  -7 261.340 317.724  12
  15   7  -7 1140.67 605.100  12
  15   7  -7 864.622 433.161  17
 -15  -7   6-495.363 382.795   8
 -15   7   6 409.513 367.102  21
  15   7  -6 769.663 535.419  12
  15   7  -6 135.988 395.375  17
 -15   7   5 101510. 2933.12  21
  15   7  -5 94360.5 3762.86  12
 -15  -7   5 94370.2 3084.27  11
  15   7  -5 94449.6 3620.82  17
 -15  -7   5 101524. 3030.08   8
 -15  -7   4 232.572 383.903   8
 -15   7   4 427.382 360.695  21
  15   7  -4-251.142 471.380  12
 -15  -7   4-403.259 377.256  11
  15   7  -4 439.030 532.382  17
 -15   7   4 40.6270 374.946   3
 -15   7   3 12857.5 1141.81  21
  15   7  -3 11943.5 1411.71  12
 -15  -7   3 11903.3 1163.38  11
 -15   7   3 12336.8 1129.00   3
 -15  -7   3 13389.5 1227.89   8
 -15  -7   2 132.396 431.376   8
 -15   7   2 445.609 342.742  21
 -15   7   2 11.8993 320.938  20
 -15  -7   2 159.419 359.521  11
 -15   7   2 38.6457 313.903   3
 -15   7   1 40551.0 1882.70  21
 -15   7   1 41153.5 1944.35  20
 -15   7   1 46171.5 2078.06   3
 -15  -7   1 43356.2 2095.80  11
 -15  -7   1 43563.9 2171.96   8
 -15  -7   0-70.1843 396.509   8
 -15   7   0 562.514 404.336  21
 -15   7   0 207.582 308.917  20
 -15  -7   0 175.530 334.708  11
 -15   7   0 180.619 342.304   3
 -15   7  -1 23219.5 1334.79  21
 -15   7  -1 23432.8 1403.28  20
 -15   7  -1 25167.9 1522.74   3
 -15  -7  -1 21695.4 1434.24  11
 -15  -7  -1 23656.6 1645.74   4
 -15  -7  -1 23699.2 1618.66   8
 -15  -7  -2 765.658 406.253   4
 -15   7  -2-412.860 303.236  20
 -15  -7  -2 474.534 311.389  11
 -15   7  -2-59.4915 286.679   3
 -15  -7  -3 44971.9 2066.25   4
 -15   7  -3 47038.2 1925.16   3
 -15  -7  -3 44472.9 1869.26  11
  15  -9 -10 213.618 320.745  12
  15   9 -10-902.377 367.924  12
  15  -9  -9 39091.4 2023.79  12
  15   9  -9 37191.2 1949.44  12
  15  -9  -8-117.168 325.440  12
  15   9  -8 490.217 403.090  12
  15   9  -8 735.185 355.176  17
 -15   9   7 1373.03 375.684  21
  15  -9  -7 1915.54 516.572  12
  15   9  -7 992.581 571.168  12
  15   9  -7 1355.33 473.358  17
 -15  -9   6 314.498 336.013   8
 -15   9   6 327.586 292.903  21
  15   9  -6-298.907 408.208  12
  15   9  -6-490.217 424.747  17
 -15   9   5 49279.4 2049.31  21
  15   9  -5 50392.6 2716.07  12
 -15  -9   5 50979.1 2252.37  11
  15   9  -5 52664.5 2593.69  17
 -15  -9   5 51541.4 2149.62   8
 -15  -9   4 1869.09 535.138   8
 -15   9   4 1599.98 512.831  21
 -15   9   4 1859.31 504.272  20
  15   9  -4 1404.84 645.424  12
 -15  -9   4 1257.72 479.890  11
  15   9  -4 1264.82 541.637  17
 -15   9   4 2022.44 505.256   3
 -15   9   3 22491.2 1432.79  21
 -15   9   3 19521.2 1361.08  20
 -15   9   3 22415.9 1440.18   3
 -15  -9   3 22526.3 1572.34  11
 -15  -9   3 24340.2 1590.66   8
 -15  -9   2-310.225 447.157   8
 -15   9   2 283.449 389.493  21
 -15   9   2 53.4751 316.161  20
 -15  -9   2-193.126 297.473  11
 -15   9   2 189.596 375.393   3
 -15   9   1 39809.0 1858.33  21
 -15   9   1 41930.7 1932.19  20
 -15   9   1 47824.1 2090.85   3
 -15  -9   1 41746.7 2077.01  11
 -15  -9   1 44992.3 2219.62   4
 -15  -9   1 45155.8 2196.36   8
 -15  -9   0 762.259 476.719   8
 -15  -9   0 226.397 412.678   4
 -15   9   0 302.887 319.602  21
 -15   9   0 376.382 312.330  20
 -15  -9   0-236.452 351.934  11
 -15   9   0 139.405 323.928   3
 -15  -9  -1 15105.2 1273.48   8
 -15   9  -1 12611.7 1028.84  20
 -15   9  -1 15194.6 1171.93   3
 -15  -9  -1 13501.1 1162.08  11
 -15  -9  -1 12853.9 1235.76   4
 -15  -9  -2 701.503 381.789   8
 -15  -9  -2 917.836 420.031   4
 -15   9  -2 1315.77 365.464  20
 -15  -9  -2 620.511 336.911  11
 -15   9  -2 674.757 320.093   3
 -15  -9  -3 33885.6 1763.18   4
 -15   9  -3 30584.7 1391.68  20
 -15   9  -3 36146.5 1644.32   3
 -15  -9  -3 31003.4 1556.09  11
  15 -11  -9 37484.9 1893.57  12
  15  11  -9 38883.4 1843.19  12
  15 -11  -8 267.038 321.204  12
 -15  11   8 647.453 259.108  20
  15  11  -8 12.9353 299.660  12
  15  11  -8-408.409 255.272  17
 -15  11   7 622.992 287.135  20
  15  11  -7 172.283 217.766  17
 -15  11   6-664.314 334.029  20
  15  11  -6 314.681 387.055  12
  15  11  -6 40.2486 348.752  17
 -15 -11   5 55232.8 2169.11   8
  15  11  -5 54910.1 2709.04  12
 -15  11   5 52985.5 2057.83  20
 -15 -11   5 53532.2 2252.05  11
  15  11  -5 52364.6 2421.62  17
 -15 -11   4 114.826 267.588   4
 -15 -11   4 223.901 383.420   8
 -15  11   4 310.433 368.147  21
 -15  11   4 557.253 323.950  20
 -15 -11   4 560.086 351.241  11
  15  11  -4 306.911 346.298  17
 -15  11   4 1267.15 399.054   3
 -15 -11   3 11690.2 1092.91   8
 -15  11   3 11842.2 1044.74  21
 -15  11   3 10700.0 984.719  20
 -15 -11   3 10434.5 1066.35  11
 -15  11   3 12041.3 1030.38   3
 -15 -11   3 10964.3 1050.26   4
 -15 -11   2 299.331 341.827   4
 -15 -11   2-521.392 426.368   8
 -15  11   2 219.535 316.690  20
 -15 -11   2 458.380 366.795  11
 -15  11   2-129.302 289.831   3
 -15 -11   1 34130.0 1860.53   8
 -15  11   1 32840.1 1676.03  20
 -15  11   1 32416.2 1667.74   3
 -15 -11   1 32362.7 1807.83  11
 -15 -11   1 34112.8 1861.90   4
 -15 -11   0 2649.52 627.612   8
 -15 -11   0 2119.34 576.344   4
 -15  11   0 1926.86 472.598  20
 -15 -11   0 2026.00 510.758  11
 -15  11   0 2043.90 492.423   3
 -15 -11  -1 16656.6 1311.86   4
 -15  11  -1 15201.3 1092.43  20
 -15  11  -1 18348.4 1211.45   3
 -15 -11  -1 15773.3 1220.09  11
 -15 -11  -2 978.983 429.685   4
 -15  11  -2-15.9836 244.828  20
 -15 -11  -2 484.399 312.252  11
 -15  11  -2 697.827 318.363   3
  15  13  -8 51.5587 225.878  12
  15 -13  -8-1869.83 760.262  14
 -15  13   7 340.136 265.990  20
  15  13  -7-36.6142 282.971  12
 -15  13   6 259.351 257.261  20
  15  13  -6 54.2812 192.473  17
  15  13  -5 44378.2 2236.73  12
 -15  13   5 43433.3 1759.43  20
  15  13  -5 41593.3 1964.38  17
 -15 -13   4 983.031 352.024   4
 -15  13   4 48.6537 318.771  20
 -15 -13   4 409.459 352.172  11
  15  13  -4 36.5984 315.085  17
 -15  13   4 463.254 249.060   3
 -15  13   3 5915.02 721.240  20
 -15 -13   3 5005.77 720.603  11
 -15  13   3 5218.51 635.873   3
 -15 -13   3 5713.10 712.544   4
 -15 -13   2 1401.12 428.838   4
 -15  13   2 1466.72 437.896  20
 -15 -13   2 2241.67 551.559  11
 -15  13   2 1355.59 418.278   3
 -15  13   1 23852.4 1356.58  20
 -15  13   1 25543.4 1390.85   3
 -15 -13   1 28341.8 1616.37  11
 -15 -13   1 26399.5 1558.13   4
 -15 -13   0 129.169 322.446   4
 -15  13   0-236.977 270.728  20
 -15 -13   0 270.452 297.477  11
 -15  13   0 519.615 294.198   3
 -15  13  -1 10634.0 872.543  20
 -15 -13  -1 13103.6 1052.84  11
 -15  15   5 38201.9 1486.91  20
  15  15  -5 37778.1 1604.77  17
 -15 -15   4-158.402 233.340  11
  15  15  -4-348.955 211.359  17
 -15  15   3 3745.97 520.116  20
 -15 -15   3 3934.60 604.853  11
  15  15  -3 3623.21 612.005  17
 -15  15   2 429.697 306.554  20
 -15 -15   2 307.629 362.324  11
  16   0 -11 474.178 335.553  12
  16   0 -10 37768.5 2008.08  12
  16   0  -9-51.3445 380.861  12
 -16   0   8 3044.86 515.638  21
  16   0  -8 3306.39 706.238  12
 -16   0   7-265.606 280.696  21
  16   0  -7-1089.47 524.829  12
 -16   0   6 65552.5 2321.50  21
  16   0  -6 63702.7 2753.64  12
  16   0  -6 65501.4 3030.50  17
 -16   0   5-72.6618 390.442  21
  16   0  -5-94.3534 410.578  17
 -16   0   4 3817.26 666.092  21
  16   0  -4 3410.92 824.206  17
 -16   0   3-213.199 383.706  21
  16   0  -3 431.274 514.422  17
 -16   0   2 88280.4 2794.76  21
 -16   0   2 91631.0 2964.87   3
  16   0  -2 84470.3 3691.50  17
 -16   0   1 129.067 366.262  21
 -16   0   1 414.449 328.486  20
  16   0  -1-529.511 424.733  17
 -16   0   1 246.227 374.869   3
 -16   0   0 6729.38 813.057  21
 -16   0   0 8450.50 942.329   3
  16   0   0 7208.17 1186.29  17
 -16   0  -1 816.427 379.865  21
 -16   0  -1 429.286 304.122   3
 -16   0  -2 39012.2 1915.16   8
  16  -2 -11 21.6613 271.862  12
  16   2 -11 520.801 343.344  12
  16  -2 -10 39581.3 2052.47  12
  16   2 -10 38194.8 2006.78  12
  16  -2  -9-175.005 365.940  12
  16   2  -9 1186.96 533.189  12
 -16   2   8 4017.69 566.921  21
 -16  -2   8 3190.32 503.474  21
  16  -2  -8 2028.34 604.962  12
  16   2  -8 3721.92 782.231  12
  16   2  -8 4588.85 873.313  17
 -16   2   7 142.990 275.087  21
  16  -2  -7 470.732 386.777  12
  16   2  -7 664.070 480.525  12
  16   2  -7 327.053 463.657  17
 -16   2   6 74629.9 2470.37  21
  16  -2  -6 73195.9 2795.07  12
  16   2  -6 74141.0 3082.56  12
  16  -2  -6 72797.3 3164.28  17
  16   2  -6 69862.2 3157.25  17
 -16   2   5 312.833 412.771  21
  16   2  -5 423.329 428.542  12
  16  -2  -5 464.577 444.829  17
  16   2  -5 464.453 504.277  17
 -16   2   4 548.309 401.614  21
  16  -2  -4-398.032 436.796  17
  16   2  -4 1407.63 647.132  17
 -16   2   3 419.161 395.665  21
  16  -2  -3 717.695 513.220  17
  16   2  -3 635.680 604.334  17
 -16   2   3-231.573 370.471   3
 -16   2   2 54924.1 2219.99  21
 -16  -2   2 60220.6 2296.55  11
 -16   2   2 56973.7 2373.93   3
  16  -2  -2 53910.6 2761.64  17
  16   2  -2 55562.0 3114.44  17
 -16   2   1 293.236 334.414  21
 -16   2   1-41.1945 317.681  20
 -16  -2   1 479.193 344.210  11
 -16   2   1-12.4489 336.042   3
 -16   2   0 17410.7 1239.10  21
 -16  -2   0 15904.2 1204.73  21
 -16   2   0 18330.7 1239.18  20
 -16   2   0 16334.5 1267.34   3
 -16  -2  -1 963.597 474.750   8
 -16   2  -1 2159.77 466.755  21
 -16  -2  -1 1072.48 384.903  21
 -16   2  -1 2008.53 527.757   3
 -16   2  -2 44900.0 1916.55   3
 -16  -2  -2 45721.2 2047.55   4
 -16  -2  -2 42527.3 2004.90   8
  16  -4 -10 44196.5 2149.99  12
  16   4 -10 44189.1 2099.30  12
  16  -4  -9 177.378 314.914  12
  16   4  -9-5.88063 319.418  12
 -16   4   8 2999.60 502.897  21
  16  -4  -8 1845.56 503.694  12
  16   4  -8 3132.08 725.347  12
  16   4  -8 2589.07 635.951  17
 -16  -4   7 124.455 294.833   8
 -16   4   7 40.5357 262.954  21
  16  -4  -7 429.328 347.284  12
  16   4  -7 903.664 518.048  12
  16   4  -7-131.224 414.695  17
 -16   4   6 75011.0 2463.32  21
  16   4  -6 73481.8 3200.57  12
  16   4  -6 70016.5 3116.25  17
 -16   4   5 205.750 357.328  21
  16   4  -5 598.336 443.156  12
  16  -4  -5 151.508 464.930  17
  16   4  -5 1030.29 548.650  17
 -16   4   4 1258.79 463.504  21
  16  -4  -4 1584.50 559.015  17
  16   4  -4 1539.57 659.748  17
 -16   4   4 1872.11 522.451   3
 -16   4   3 312.177 367.885  21
 -16  -4   3 2.46119 335.586  11
  16  -4  -3-128.460 353.060  17
 -16   4   3 300.871 362.024   3
 -16   4   2 62759.8 2342.35  21
 -16   4   2 61013.5 2397.06  20
 -16  -4   2 61835.0 2387.96  11
 -16   4   1-129.551 345.312  21
 -16   4   1 32.5466 274.330  20
 -16  -4   1-281.145 302.549  11
 -16   4   1-130.915 377.229   3
 -16   4   0 12753.9 1051.54  21
 -16   4   0 12249.6 1031.29  20
 -16   4   0 14473.9 1183.22   3
 -16  -4   0 13456.2 1095.77  11
 -16  -4   0 13220.1 1204.48   8
 -16  -4  -1 918.852 452.591   8
 -16  -4  -1 492.429 397.115   4
 -16   4  -1 915.901 382.796  21
 -16  -4  -1 570.391 302.288  21
 -16   4  -1 1532.14 369.824  20
 -16   4  -1 990.252 402.491   3
 -16   4  -2 34286.4 1695.81   3
 -16  -4  -2 31100.0 1734.28   4
 -16  -4  -2 32014.0 1740.11   8
  16  -6 -10 38533.8 1958.63  12
  16   6 -10 39560.8 1906.42  12
  16  -6  -9-155.417 366.827  12
  16   6  -9-496.555 376.502  12
 -16   6   8 35.9503 240.645  21
  16  -6  -8-29.9458 284.792  12
  16   6  -8-65.5112 389.452  12
  16   6  -8 558.098 365.189  17
 -16   6   7 1139.44 392.951  21
  16  -6  -7 1819.84 494.468  12
  16   6  -7 1988.54 599.045  12
  16   6  -7 1335.92 533.955  17
 -16   6   6 74544.6 2432.42  21
  16   6  -6 71621.3 3181.94  12
  16   6  -6 73709.9 3103.85  17
 -16  -6   6 77917.5 2533.66   8
 -16  -6   5 249.283 324.520   8
 -16   6   5-502.226 310.929  21
  16   6  -5-92.2038 525.740  12
  16   6  -5-573.864 522.680  17
 -16   6   4 6616.67 805.437  21
  16   6  -4 7762.36 1113.27  12
 -16  -6   4 5607.59 821.753  11
 -16   6   4 5824.17 831.049   3
  16   6  -4 5699.73 1019.45  17
 -16  -6   4 6750.20 856.834   8
 -16  -6   3-20.7985 382.618   8
 -16   6   3 807.873 431.901  21
 -16  -6   3 1002.58 477.765  11
 -16   6   3 211.721 386.705   3
 -16   6   2 67047.8 2415.03  21
 -16   6   2 64249.1 2432.77  20
 -16  -6   2 66804.7 2539.32  11
 -16   6   2 71917.3 2613.45   3
 -16  -6   2 73873.6 2771.25   8
 -16  -6   1 770.615 482.882   8
 -16   6   1 190.195 323.597  21
 -16   6   1 152.429 337.058  20
 -16  -6   1 937.627 439.025  11
 -16   6   1 907.122 425.307   3
 -16   6   0 14264.2 1090.62  21
 -16   6   0 13858.2 1101.71  20
 -16   6   0 16713.0 1283.09   3
 -16  -6   0 15206.3 1179.36  11
 -16  -6   0 15885.6 1345.67   4
 -16  -6   0 15522.0 1306.12   8
 -16  -6  -1-215.796 374.544   8
 -16  -6  -1 120.884 314.274   4
 -16   6  -1-308.409 273.173  21
 -16   6  -1 486.729 280.566  20
 -16   6  -1 422.774 373.026   3
 -16   6  -2 31690.0 1612.50   3
 -16  -6  -2 32331.6 1775.76   4
 -16  -6  -2 32280.8 1727.05   8
  16  -8  -9 87.2783 234.798  12
  16   8  -9 671.048 332.465  12
  16  -8  -8 752.688 424.815  12
  16   8  -8 880.490 462.031  12
  16   8  -8 263.553 328.043  17
 -16   8   7 111.990 285.245  21
  16   8  -7-106.477 390.618  12
  16   8  -7 543.794 379.343  17
 -16   8   6 57323.3 2097.21  21
  16   8  -6 51095.6 2641.49  12
  16   8  -6 52612.8 2507.56  17
 -16  -8   6 57423.1 2125.10   8
 -16  -8   5-559.619 331.691   8
 -16   8   5-284.521 357.208  21
  16   8  -5 15.2420 441.347  12
  16   8  -5 799.760 424.656  17
 -16  -8   4 4239.73 715.651   8
 -16   8   4 5209.17 749.572  21
 -16   8   4 5143.19 710.826  20
  16   8  -4 2904.07 889.455  12
 -16   8   4 5182.89 745.464   3
 -16  -8   4 4337.30 717.719  11
  16   8  -4 3907.36 801.985  17
 -16  -8   3 637.230 463.014   8
 -16   8   3 1199.91 453.099  21
 -16   8   3-128.745 335.828  20
 -16  -8   3 245.326 352.180  11
 -16   8   3 63.8170 300.324   3
 -16   8   2 51739.7 2095.12  21
 -16   8   2 54168.0 2199.01  20
 -16   8   2 57354.3 2289.88   3
 -16  -8   2 52487.3 2270.15  11
 -16  -8   2 59914.7 2442.71   8
 -16  -8   1-360.820 346.282   4
 -16  -8   1 475.703 400.426   8
 -16   8   1 317.259 305.332  21
 -16   8   1-385.092 319.113  20
 -16  -8   1 254.083 306.076  11
 -16   8   1-394.938 326.263   3
 -16   8   0 20784.6 1272.75  21
 -16   8   0 18567.7 1253.52  20
 -16   8   0 21104.4 1387.16   3
 -16  -8   0 20580.8 1382.92  11
 -16  -8   0 21217.6 1528.55   4
 -16  -8   0 21413.6 1485.27   8
 -16  -8  -1-91.4031 322.767   8
 -16  -8  -1 258.825 206.391   4
 -16   8  -1 567.658 307.815  20
 -16  -8  -1 312.241 311.078  11
 -16   8  -1 390.596 291.379   3
 -16  -8  -2 47165.3 2079.90   4
 -16   8  -2 43628.6 1677.14  20
 -16   8  -2 50379.4 1953.33   3
 -16  -8  -2 44999.6 1836.07  11
 -16  10   8 1193.51 327.052  20
  16  10  -8 820.241 306.809  17
 -16  10   7-470.245 279.167  20
  16  10  -7-33.8294 186.105  17
 -16 -10   6 52028.4 1946.28   8
  16  10  -6 52423.4 2537.38  12
 -16  10   6 49927.9 1913.72  20
  16  10  -6 48546.4 2245.80  17
 -16 -10   5 1237.63 402.098   8
 -16  10   5 869.803 404.979  21
 -16  10   5 453.600 314.845  20
  16  10  -5-687.271 460.036  12
  16  10  -5-170.900 381.811  17
 -16  10   4 4462.28 670.738  21
 -16  10   4 4794.88 679.811  20
  16  10  -4 4458.37 871.257  12
 -16 -10   4 4504.71 695.427  11
  16  10  -4 4307.22 824.110  17
 -16  10   4 3815.28 611.885   3
 -16 -10   4 5858.78 769.043   8
 -16 -10   3 1019.78 358.450   4
 -16 -10   3 2303.20 583.165   8
 -16  10   3 1110.25 424.650  21
 -16  10   3 661.765 374.442  20
 -16 -10   3 629.671 389.024  11
 -16  10   3 1403.53 434.715   3
 -16  10   2 50750.4 2008.00  21
 -16  10   2 51451.7 2084.13  20
 -16  10   2 54514.6 2143.49   3
 -16 -10   2 52990.8 2250.81  11
 -16 -10   2 55176.3 2301.19   4
 -16 -10   2 56828.7 2323.00   8
 -16 -10   1-214.618 354.037   8
 -16 -10   1 527.968 324.692   4
 -16  10   1 249.774 327.078  20
 -16 -10   1-557.707 357.060  11
 -16  10   1 122.406 248.894   3
 -16 -10   0 13847.6 1163.00   8
 -16  10   0 11385.0 964.485  20
 -16  10   0 14032.5 1097.05   3
 -16 -10   0 12673.9 1047.08  11
 -16 -10   0 13910.9 1205.54   4
 -16 -10  -1 1252.97 371.175   4
 -16  10  -1 1151.58 391.608  20
 -16 -10  -1 1048.11 359.361  11
 -16  10  -1 1000.30 380.383   3
 -16  12   7-948.694 328.519  20
  16  12  -7-570.444 207.285  17
  16  12  -6 46502.8 2208.58  12
 -16  12   6 44663.4 1702.34  20
  16  12  -6 43387.5 1902.63  17
 -16  12   5 346.606 292.113  20
  16  12  -5-403.509 366.061  12
  16  12  -5 447.465 282.462  17
 -16 -12   4 1541.87 418.456   4
 -16  12   4 1246.86 415.914  20
  16  12  -4 2540.84 654.859  12
 -16 -12   4 1648.60 508.970  11
  16  12  -4 2003.76 532.021  17
 -16 -12   3-551.476 283.508   4
 -16  12   3 334.370 298.953  20
  16  12  -3-556.124 443.491  12
 -16 -12   3-154.045 313.429  11
  16  12  -3 407.022 400.456  17
 -16  12   3-247.193 255.835   3
 -16  12   2 48423.2 1897.86  20
 -16 -12   2 49047.5 2080.02  11
 -16  12   2 50511.5 1939.61   3
 -16 -12   2 50117.7 2057.01   4
 -16 -12   1-400.686 314.898   4
 -16  12   1 64.0060 327.727  20
 -16 -12   1 46.2754 324.651  11
 -16  12   1 433.569 262.522   3
 -16  12   0 7101.19 743.869  20
 -16 -12   0 6790.61 772.690  11
  16  14  -4 126.025 252.393  12
  16  14  -4-134.494 196.863  17
  17  -1 -10-558.271 387.468  12
  17   1 -10 276.109 324.150  12
  17  -1  -9 1769.22 572.676  12
  17   1  -9 2553.91 596.015  12
 -17   1   8 144.540 222.824  21
 -17  -1   8-482.920 270.452  21
  17  -1  -8-5.87447 270.282  12
 -17   1   7 52171.9 1942.72  21
 -17  -1   7 51345.7 1943.87  21
  17  -1  -7 48468.3 2354.95  12
  17   1  -7 52509.9 2524.46  12
  17  -1  -7 56042.3 2708.98  17
  17   1  -7 55066.1 2668.90  17
 -17   1   6 221.712 321.886  21
 -17  -1   6 107.175 317.891  21
  17   1  -6 376.668 404.741  12
  17  -1  -6 111.814 400.747  17
  17   1  -6-398.333 438.266  17
 -17   1   5-241.588 333.508  21
 -17  -1   5-205.434 301.885  21
  17  -1  -5-536.905 500.306  17
  17   1  -5-347.197 521.994  17
 -17   1   4 105.395 344.435  21
 -17  -1   4-320.162 327.267  21
  17  -1  -4-976.160 530.803  17
 -17   1   3 77672.6 2569.05  21
 -17  -1   3 78080.2 2586.42  21
  17  -1  -3 77763.7 3352.63  17
  17   1  -3 77853.6 3506.84  17
 -17   1   2-334.586 358.511  21
 -17  -1   2 434.738 404.957  21
  17  -1  -2 1150.69 534.505  17
  17   1  -2 1251.66 606.216  17
 -17   1   1 6378.62 777.015  21
 -17  -1   1 5190.01 736.848  21
 -17   1   1 5372.85 706.123  20
 -17   1   1 6188.07 815.496   3
  17   1  -1 6004.44 1124.53  17
 -17   1   0 1269.37 381.672  21
 -17  -1   0 716.432 332.751  21
  17   1   0 1341.21 679.468  17
 -17   1   0 1787.04 471.704   3
 -17   1  -1 46431.8 1923.26   3
 -17  -1  -1 43692.9 1999.94   4
 -17  -1  -1 49585.1 2171.59   8
  17  -3 -10-396.554 311.553  12
  17   3 -10-64.6378 271.816  12
  17  -3  -9 3049.82 615.133  12
  17   3  -9 2750.91 630.489  12
 -17   3   8 528.378 268.086  21
 -17  -3   8 40.7167 238.221  21
  17  -3  -8 241.970 331.548  12
  17   3  -8-217.864 383.707  12
  17   3  -8 176.007 422.249  17
 -17   3   7 54618.0 1967.53  21
  17  -3  -7 50245.9 2276.45  12
  17   3  -7 50362.6 2514.70  12
  17   3  -7 49458.8 2487.93  17
 -17   3   6 4.04135 249.330  21
  17   3  -6 133.465 173.383  12
  17   3  -6 355.218 417.534  17
 -17   3   5 289.605 371.697  21
  17  -3  -5-132.011 334.632  17
  17   3  -5 133.351 411.066  17
 -17   3   4 516.074 412.928  21
  17  -3  -4-670.519 508.672  17
  17   3  -4-552.954 513.482  17
 -17   3   3 60282.4 2273.44  21
  17  -3  -3 63181.4 2788.87  17
  17   3  -3 60288.7 3143.69  17
 -17   3   2 511.316 377.499  21
 -17   3   2-51.2170 336.547  20
  17   3  -2-515.297 569.841  17
 -17   3   2 848.073 381.070   3
 -17   3   1 6677.79 810.477  21
 -17  -3   1 6925.13 811.635  21
 -17   3   1 6372.38 766.825  20
 -17   3   1 9873.06 951.804   3
  17   3  -1 8093.31 1265.68  17
 -17  -3   0 913.566 430.904   8
 -17   3   0 108.993 266.219  21
 -17  -3   0-64.8948 265.535  21
  17   3   0-321.429 476.568  17
 -17   3   0 813.863 367.045   3
 -17   3  -1 38161.3 1767.20   3
  17   3   1 39158.6 2600.06  17
 -17  -3  -1 39305.4 1939.96   4
 -17  -3  -1 38441.7 1911.15   8
  17  -5  -9 748.157 284.817  12
  17   5  -9 1369.02 408.273  12
 -17   5   8-23.2501 231.036  21
  17  -5  -8-619.343 298.938  12
  17   5  -8-366.432 411.450  12
  17   5  -8 156.490 373.008  17
 -17   5   7 37794.3 1625.21  21
  17   5  -7 38467.3 2213.71  12
  17   5  -7 36595.9 2087.96  17
 -17  -5   6 1209.53 426.731   8
 -17   5   6 1499.78 454.354  21
  17   5  -6 944.389 527.948  12
  17   5  -6 1120.77 533.553  17
 -17  -5   5 1560.57 479.493   8
 -17   5   5 1705.63 464.481  21
  17   5  -5 1569.58 643.264  17
 -17  -5   4-99.5028 378.016   8
 -17   5   4-49.4238 332.012  21
  17   5  -4-3.81558 456.585  17
 -17   5   3 58144.3 2196.33  21
 -17   5   3 54413.5 2209.62  20
 -17  -5   3 55436.2 2225.70  11
 -17   5   3 62319.4 2422.03   3
  17   5  -3 57355.5 3018.02  17
 -17  -5   3 62088.0 2459.06   8
 -17  -5   2 495.836 392.596   8
 -17   5   2 51.1802 314.473  21
 -17   5   2 593.373 395.873  20
 -17  -5   2 372.997 290.569  11
  17   5  -2 139.669 518.969  17
 -17   5   2-81.5640 307.022   3
 -17   5   1 11523.8 986.574  21
 -17   5   1 9681.77 932.356  20
 -17  -5   1 11589.6 992.349  11
 -17   5   1 11485.0 1063.85   3
 -17  -5   1 12795.3 1163.51   8
 -17  -5   0 22.7390 409.787   8
 -17  -5   0-239.776 377.680   4
 -17   5   0-180.942 302.859  21
 -17  -5   0-250.580 264.537  21
 -17   5   0 785.853 325.320  20
 -17  -5   0-426.033 287.267  11
 -17   5   0 70.9266 276.334   3
 -17   5  -1 31337.6 1587.16   3
 -17  -5  -1 31333.9 1723.26   4
 -17  -5  -1 34494.3 1765.27   8
  17  -7  -9-295.932 289.673  12
  17   7  -9 1080.46 447.205  12
 -17   7   8 583.797 250.473  21
  17   7  -8 74.6937 352.166  12
  17   7  -8-288.806 322.817  17
 -17   7   7 38582.6 1599.19  21
  17   7  -7 38664.2 2157.37  12
  17   7  -7 38726.2 2044.35  17
 -17  -7   6 158.928 216.779   8
 -17   7   6 366.710 329.212  21
  17   7  -6 1235.39 508.608  12
  17   7  -6 393.449 461.635  17
 -17  -7   5-35.0760 290.772   8
 -17   7   5-151.697 293.413  21
  17   7  -5 501.869 477.531  12
  17   7  -5 269.481 406.150  17
 -17  -7   4 1003.85 424.176   8
 -17   7   4 582.312 405.109  21
 -17   7   4 917.138 401.524  20
  17   7  -4-270.906 459.263  17
 -17   7   3 47012.4 1952.22  21
 -17   7   3 41564.3 1886.62  20
 -17  -7   3 42575.5 1962.75  11
 -17   7   3 47955.9 2076.02   3
  17   7  -3 44534.8 2564.37  17
 -17  -7   3 51453.1 2196.64   8
 -17  -7   2-84.1710 328.471   8
 -17   7   2 361.853 313.537  21
 -17   7   2-61.4550 274.828  20
 -17  -7   2 166.545 327.208  11
 -17   7   2-176.485 281.759   3
 -17   7   1 8917.98 859.375  21
 -17   7   1 7983.05 837.029  20
 -17  -7   1 8672.62 891.195  11
 -17   7   1 10782.6 991.462   3
 -17  -7   1 11067.6 1081.35   4
 -17  -7   1 9601.30 1001.39   8
 -17  -7   0 820.711 385.275   8
 -17  -7   0 160.684 312.402   4
 -17   7   0-116.592 273.276  21
 -17   7   0 564.724 324.641  20
 -17  -7   0-567.075 304.947  11
 -17   7   0-474.141 319.908   3
 -17   7  -1 30187.7 1424.43  20
 -17   7  -1 36145.8 1649.07   3
 -17  -7  -1 30631.3 1464.47  11
 -17  -7  -1 34604.8 1777.01   4
 -17   9   8 314.500 241.630  20
  17   9  -8 477.519 357.312  12
  17   9  -8-327.037 259.770  17
  17   9  -7 38306.1 2039.50  12
 -17   9   7 34355.8 1489.13  20
  17   9  -7 35434.7 1778.13  17
 -17  -9   6 701.488 281.242   8
 -17   9   6 477.763 310.281  21
 -17   9   6 34.7813 232.964  20
  17   9  -6-13.1916 284.022  17
 -17  -9   5 2198.01 513.741   8
 -17   9   5 1608.57 463.303  21
 -17   9   5 1317.95 419.871  20
  17   9  -5 2668.57 672.323  12
  17   9  -5 1845.47 531.657  17
 -17  -9   4 63.4081 269.866   8
 -17   9   4 588.433 358.988  21
 -17   9   4 1213.12 396.057  20
  17   9  -4 24.7670 339.129  17
 -17   9   3 52048.8 1996.03  21
 -17   9   3 50207.8 2003.73  20
 -17  -9   3 53227.3 2155.49  11
 -17   9   3 51728.5 2064.95   3
  17   9  -3 53744.6 2603.83  17
 -17  -9   3 56039.3 2214.73   4
 -17  -9   3 57591.1 2239.84   8
 -17  -9   2 345.866 365.521   4
 -17  -9   2 11.5885 317.780   8
 -17   9   2 1.92896 295.916  21
 -17   9   2 34.6734 291.452  20
 -17  -9   2-676.861 339.079  11
 -17   9   2 382.909 332.339   3
 -17  -9   1 15354.5 1188.84   8
 -17   9   1 12040.6 970.749  20
 -17  -9   1 11384.4 993.201  11
 -17   9   1 14209.6 1074.86   3
 -17  -9   1 13430.2 1148.79   4
 -17  -9   0 534.277 351.244   8
 -17   9   0-174.078 261.543  20
 -17  -9   0 70.6123 179.543  11
 -17   9   0 160.692 240.496   3
 -17  11   6-366.926 257.979  20
  17  11  -6-177.621 322.955  12
  17  11  -6-358.562 275.253  17
 -17  11   5 483.351 270.004  20
  17  11  -5 98.1951 206.527  17
 -17 -11   4 3.93936 233.477   8
 -17  11   4 349.211 290.337  20
  17  11  -4 100.772 299.871  17
 -17 -11   3 63431.2 2227.30   8
 -17  11   3 57507.8 2009.04  20
 -17 -11   3 60827.1 2204.20  11
 -17  11   3 62365.9 2111.85   3
  17  11  -3 63649.8 2560.11  17
 -17 -11   3 64048.3 2215.93   4
 -17 -11   2-147.874 259.602   8
 -17  11   2 199.626 264.884  20
 -17 -11   2-49.1872 265.633  11
  17  11  -2 666.771 430.201  17
  18   0  -9-12.6563 289.443  12
 -18   0   8 55081.9 1772.46  21
  18   0  -8 54068.6 2390.21  12
 -18   0   7-436.852 280.394  21
 -18   0   6 533.878 315.794  21
  18   0  -6-231.216 419.407  17
 -18   0   5-172.910 276.133  21
  18   0  -5 765.543 467.850  17
 -18   0   4 85215.5 2573.65  21
  18   0  -4 80701.7 3335.22  17
 -18   0   3-91.9065 334.732  21
  18   0  -3-207.217 423.242  17
 -18   0   2 839.622 379.112  21
 -18   0   2 755.420 330.967  20
  18   0  -2 1186.85 486.154  17
 -18   0   1 199.523 282.258  21
 -18   0   0 55737.2 1961.03  21
  18  -2  -9-59.4467 307.913  12
  18   2  -9 489.184 380.945  12
 -18   2   8 47754.5 1646.04  21
 -18  -2   8 48249.7 1659.86  21
  18  -2  -8 44803.0 2108.56  12
  18   2  -8 47970.7 2264.91  12
 -18   2   7 492.631 301.571  21
 -18  -2   7-154.265 231.032  21
  18   2  -7-114.379 326.638  12
  18   2  -7-440.754 388.409  17
 -18   2   6 176.744 268.240  21
 -18  -2   6 337.728 276.471  21
  18   2  -6-222.661 367.488  17
 -18   2   5-174.719 294.716  21
 -18  -2   5-19.3997 236.995  21
  18  -2  -5-690.917 474.428  17
  18   2  -5 56.0049 345.449  17
 -18   2   4 74581.5 2405.35  21
 -18  -2   4 75239.9 2405.65  21
  18  -2  -4 78487.6 3158.86  17
  18   2  -4 74462.7 3274.11  17
 -18   2   3 512.792 322.583  21
 -18  -2   3 152.375 300.662  21
 -18   2   3 76.5013 285.813  20
  18  -2  -3 131.949 346.818  17
  18   2  -3 63.0649 455.158  17
 -18   2   2 1424.53 420.577  21
 -18  -2   2 1647.08 440.462  21
 -18   2   2 1668.49 470.254  20
  18   2  -2 701.496 580.117  17
 -18  -2   1-31.2989 342.027   8
 -18   2   1-357.982 292.153  21
 -18  -2   1-895.116 363.233  21
  18   2  -1 275.519 452.669  17
 -18   2   0 52931.5 1877.79  21
 -18  -2   0 52909.4 1904.52  21
 -18  -2   0 51521.9 2134.87   4
 -18  -2   0 59081.3 2280.86   8
 -18   4   8 37298.0 1421.48  21
 -18  -4   8 36188.7 1420.30  21
  18   4  -8 34414.5 1921.34  12
  18   4  -8 39100.0 1988.46  17
 -18   4   7 150.533 261.659  21
 -18  -4   7 995.965 348.836  21
  18   4  -7 600.738 390.510  12
  18   4  -7 796.513 414.445  17
 -18  -4   6 186.959 238.788   8
 -18   4   6 169.473 272.257  21
 -18  -4   5 251.593 265.652   8
 -18   4   5 273.296 286.875  21
  18   4  -5 354.587 433.416  17
 -18   4   4 54601.7 2030.49  21
  18   4  -4 50837.4 2700.14  17
 -18  -4   4 56313.5 2219.14   8
 -18  -4   3-379.431 336.414   8
 -18   4   3 144.720 325.851  21
 -18   4   3 326.931 293.839  20
  18   4  -3-568.167 499.345  17
 -18  -4   2 1400.03 468.196   8
 -18   4   2 1695.31 420.460  21
 -18  -4   2 1188.01 414.186  21
 -18   4   2 958.766 374.226  20
  18   4  -2 813.698 496.788  17
 -18  -4   1 439.866 350.839   8
 -18   4   1 23.9824 208.911  21
 -18  -4   1 630.900 306.947  21
 -18   4   1 30.8592 242.780  20
  18   4  -1 8.55745 350.234  17
 -18   4   1 197.049 272.144   3
 -18   4   0 33878.8 1480.19  21
 -18  -4   0 33509.3 1506.05  21
  18   4   0 32159.6 2286.73  17
 -18  -4   0 36824.9 1802.84   4
 -18  -4   0 39100.0 1827.41   8
 -18   6   8 29856.8 1232.74  21
 -18  -6   8 29595.0 1242.00  21
  18   6  -8 29051.3 1700.96  12
  18   6  -8 30014.7 1661.48  17
 -18   6   7 102.395 259.001  21
  18   6  -7-140.860 327.624  12
  18   6  -7 615.007 371.598  17
 -18  -6   6 1464.05 396.645   8
 -18   6   6 1531.51 401.836  21
  18   6  -6 1760.41 582.343  12
  18   6  -6 1303.14 473.409  17
 -18  -6   5 1568.14 442.125   8
 -18   6   5 776.044 330.544  21
 -18   6   5 1475.37 412.694  20
  18   6  -5 234.407 415.696  17
 -18   6   4 39388.6 1706.73  21
 -18   6   4 37840.2 1727.09  20
  18   6  -4 39207.2 2283.23  17
 -18  -6   4 44323.9 1924.89   8
 -18  -6   3 315.654 358.886   8
 -18   6   3 129.421 275.237  21
 -18   6   3 306.938 289.873  20
  18   6  -3 94.3464 444.483  17
 -18  -6   2 1305.02 472.726   8
 -18   6   2 2631.69 501.476  21
 -18   6   2 1390.61 385.714  20
  18   6  -2 1015.29 542.325  17
 -18   6   2 2781.77 519.301   3
 -18  -6   1 560.961 340.032   8
 -18  -6   1 118.861 314.093   4
 -18   6   1 213.201 259.779  21
 -18  -6   1 357.264 240.668  21
 -18   6   1 20.6785 225.254  20
 -18  -6   1 957.445 285.938  11
 -18   6   1 760.872 387.829   3
 -18   8   6 290.245 258.913  21
 -18   8   6 251.547 225.515  20
  18   8  -6-660.735 392.853  12
  18   8  -6-125.472 295.525  17
 -18  -8   5 785.481 338.932   8
 -18   8   5 448.284 292.952  21
 -18   8   5 802.435 344.461  20
  18   8  -5 1223.11 449.520  17
 -18   8   4 47070.0 1798.61  21
 -18   8   4 43219.4 1758.84  20
  18   8  -4 43157.9 2235.94  17
 -18  -8   4 47043.9 1916.51   8
 -18  -8   3-372.392 338.711   4
 -18  -8   3-442.297 320.797   8
 -18   8   3 14.2905 264.110  21
 -18   8   3-71.6971 269.225  20
  18   8  -3 142.361 371.194  17
 -18  -8   2 3416.46 583.812   8
 -18  -8   2 2514.69 515.094   4
 -18   8   2 2183.09 456.925  21
 -18   8   2 2637.57 489.087  20
 -18  -8   2 2467.48 475.760  11
 -18   8   2 3154.27 531.198   3
 -19   1   7 584.524 270.687  21
 -19  -1   7 129.097 280.439  21
 -19   1   6 255.945 261.313  21
 -19  -1   6 45.5167 208.192  21
  19   1  -6 184.071 318.010  17
 -19   1   5 66137.4 2085.68  21
 -19  -1   5 67828.6 2112.48  21
  19  -1  -5 68324.6 2827.89  17
  19   1  -5 67809.2 2857.32  17
 -19   1   4-227.823 313.663  21
 -19  -1   4-183.402 310.768  21
  19  -1  -4-244.959 321.738  17
  19   1  -4 668.853 424.173  17
 -19   1   3 417.709 348.255  21
 -19  -1   3 447.281 283.222  21
 -19   1   3-209.044 223.769  20
  19   1  -3-614.567 505.859  17
 -19   1   2 202.255 253.991  21
 -19  -1   2 40.0597 237.990  21
 -19   3   6 192.208 252.597  21
 -19  -3   6-104.756 220.564  21
  19   3  -6 203.206 350.459  17
 -19   3   5 50314.7 1809.56  21
 -19  -3   5 46629.0 1736.61  21
  19   3  -5 49591.1 2428.92  17
 -19  -3   5 52863.5 1971.63   8
 -19  -3   4 254.998 266.285   8
 -19   3   4 612.587 307.891  21
 -19  -3   4 88.1608 229.725  21
 -19   3   4-357.898 277.234  20
  19   3  -4 420.632 380.748  17
 -19  -3   3 559.759 319.265   8
 -19   3   3 88.2938 267.279  21
 -19  -3   3 254.311 228.864  21
 -19   3   3 368.839 289.339  20
  19   3  -3-411.528 364.905  17
 -19   3   2 52.0837 238.235  21
 -19  -3   2-32.4898 273.602  21
 -19   3   2 355.456 219.688  20
 -19   5   5 38868.7 1566.84  21
 -19  -5   5 35183.7 1474.77  21
 -19   5   5 33952.8 1499.63  20
  19   5  -5 35972.1 2014.25  17
 -19   5   4 695.452 304.171  21
 -19  -5   4 288.722 260.876  21
 -19   5   4 469.191 281.981  20
  19   5  -4 49.9321 378.636  17
 -19   5   3-79.4963 200.935  21
 -19  -5   3-144.751 243.167  21
 -19   5   3 609.561 296.580  20
  19   5  -3-402.782 369.093  17
   0   0   0    0.00    0.00   0

TITL th4 in C2/c
REM C2/c (#15 in standard setting)
CELL 1.54184  17.791370  22.194758  12.521438  90.0000 108.9129  90.0000
ZERR    8.00   0.000528   0.000581   0.000339   0.0000   0.0032   0.0000
LATT  7
SYMM -x, y,-z+1/2
SFAC C H O Th
UNIT 192.00 96.00 64.00 8.00
TREF
HKLF 4
END
;
_shelx_hkl_checksum              76142
_olex2_submission_special_instructions 'No special instructions were received'
_oxdiff_exptl_absorpt_empirical_details
;
Empirical correction (ABSPACK) includes:
- Absorption correction using spherical harmonics
- Frame scaling
;
_oxdiff_exptl_absorpt_empirical_full_max 2.897
_oxdiff_exptl_absorpt_empirical_full_min 0.694
loop_
_space_group_symop_operation_xyz
'x, y, z'
'-x, y, -z+1/2'
'x+1/2, y+1/2, z'
'-x+1/2, y+1/2, -z+1/2'
'-x, -y, -z'
'x, -y, z-1/2'
'-x+1/2, -y+1/2, -z'
'x+1/2, -y+1/2, z-1/2'
loop_
_atom_site_label
_atom_site_type_symbol
_atom_site_fract_x
_atom_site_fract_y
_atom_site_fract_z
_atom_site_U_iso_or_equiv
_atom_site_adp_type
_atom_site_occupancy
_atom_site_site_symmetry_order
_atom_site_calc_flag
_atom_site_refinement_flags_posn
Th1 Th 0.63612(2) 0.25040(2) 0.36452(2) 0.02368(8) Uani 1 1 d .
O1A O 0.5686(2) 0.30935(18) 0.2114(3) 0.0360(10) Uani 1 1 d .
O2A O 0.4544(2) 0.31704(17) 0.0707(3) 0.0363(10) Uani 1 1 d .
O3A O 0.7987(2) 0.65343(18) 0.0816(3) 0.0360(11) Uani 1 1 d .
O4A O 0.6991(2) 0.65307(17) -0.0818(3) 0.0306(10) Uani 1 1 d .
O1B O 0.5338(2) 0.18908(17) 0.3803(3) 0.0384(10) Uani 1 1 d .
O2B O 0.4030(2) 0.18418(18) 0.3014(3) 0.0419(10) Uani 1 1 d .
O1C O 0.68685(19) 0.24840(19) 0.5671(3) 0.0322(8) Uani 1 1 d .
O2C O 0.7695(2) 0.2413(2) 0.7404(3) 0.0425(11) Uani 1 1 d .
C1A C 0.5247(3) 0.3332(3) 0.1219(5) 0.0298(14) Uani 1 1 d .
C2A C 0.5593(3) 0.3838(3) 0.0741(5) 0.0376(15) Uani 1 1 d .
C3A C 0.5199(4) 0.4087(3) -0.0328(5) 0.0493(18) Uani 1 1 d .
H3A H 0.4730 0.3913 -0.0788 0.059 Uiso 1 1 calc R
C4A C 0.5499(4) 0.4580(3) -0.0694(5) 0.0531(19) Uani 1 1 d .
H4A H 0.5229 0.4738 -0.1402 0.064 Uiso 1 1 calc R
C5A C 0.6207(3) 0.4856(3) -0.0029(5) 0.0413(16) Uani 1 1 d .
C6A C 0.6492(4) 0.5403(3) -0.0330(5) 0.0436(16) Uani 1 1 d .
H6A H 0.6222 0.5579 -0.1022 0.052 Uiso 1 1 calc R
C7A C 0.7159(3) 0.5682(3) 0.0373(5) 0.0378(15) Uani 1 1 d .
C8A C 0.7583(4) 0.5408(3) 0.1420(6) 0.061(2) Uani 1 1 d .
H8A H 0.8039 0.5590 0.1896 0.073 Uiso 1 1 calc R
C9A C 0.7324(4) 0.4876(4) 0.1732(7) 0.072(3) Uani 1 1 d .
H9A H 0.7611 0.4696 0.2413 0.087 Uiso 1 1 calc R
C12A C 0.7401(4) 0.6289(2) 0.0090(6) 0.0340(15) Uani 1 1 d .
C1B C 0.4671(3) 0.1630(3) 0.3629(5) 0.0338(15) Uani 1 1 d .
C2B C 0.4663(3) 0.1035(3) 0.4155(5) 0.0411(16) Uani 1 1 d .
C3B C 0.5352(4) 0.0703(3) 0.4502(5) 0.0492(18) Uani 1 1 d .
H3B H 0.5818 0.0866 0.4441 0.059 Uiso 1 1 calc R
C4B C 0.5362(3) 0.0117(3) 0.4951(6) 0.0499(18) Uani 1 1 d .
C5B C 0.6055(4) -0.0240(3) 0.5281(6) 0.060(2) Uani 1 1 d .
H5B H 0.6520 -0.0096 0.5186 0.072 Uiso 1 1 calc R
C6B C 0.3953(4) 0.0801(3) 0.4258(6) 0.057(2) Uani 1 1 d .
H6B H 0.3489 0.1028 0.4014 0.068 Uiso 1 1 calc R
C1C C 0.7000(3) 0.2425(3) 0.6727(5) 0.0343(14) Uani 1 1 d .
C2C C 0.6324(3) 0.2394(3) 0.7184(5) 0.0412(17) Uani 1 1 d .
C3C C 0.5561(3) 0.2388(3) 0.6487(5) 0.0486(19) Uani 1 1 d .
H3C H 0.5458 0.2393 0.5710 0.058 Uiso 1 1 calc R
C4C C 0.4921(3) 0.2374(3) 0.6913(5) 0.0461(18) Uani 1 1 d .
C5C C 0.6489(4) 0.2385(4) 0.8365(6) 0.069(3) Uani 1 1 d .
H5C H 0.7011 0.2385 0.8846 0.083 Uiso 1 1 calc R
C6C C 0.5877(4) 0.2377(4) 0.8794(5) 0.077(3) Uani 1 1 d .
H6C H 0.5989 0.2372 0.9573 0.093 Uiso 1 1 calc R
C11A C 0.6294(4) 0.4090(3) 0.1380(6) 0.0490(18) Uani 1 1 d .
H11A H 0.6565 0.3919 0.2077 0.059 Uiso 1 1 calc R
C10A C 0.6621(4) 0.4596(3) 0.1026(6) 0.0482(17) Uani 1 1 d .
loop_
_atom_site_aniso_label
_atom_site_aniso_U_11
_atom_site_aniso_U_22
_atom_site_aniso_U_33
_atom_site_aniso_U_23
_atom_site_aniso_U_13
_atom_site_aniso_U_12
Th1 0.02065(11) 0.02124(12) 0.02835(11) -0.00085(11) 0.00683(8) 0.00090(10)
O1A 0.033(2) 0.035(2) 0.036(2) 0.0096(19) 0.0055(19) -0.0004(19)
O2A 0.027(2) 0.039(3) 0.043(2) 0.004(2) 0.0102(19) -0.0098(18)
O3A 0.028(2) 0.027(3) 0.045(3) 0.0022(19) 0.001(2) -0.0065(18)
O4A 0.029(2) 0.020(2) 0.039(3) 0.0074(18) 0.006(2) 0.0022(16)
O1B 0.026(2) 0.031(2) 0.058(3) 0.002(2) 0.0137(19) -0.0056(18)
O2B 0.041(2) 0.036(3) 0.043(2) 0.015(2) 0.006(2) 0.002(2)
O1C 0.035(2) 0.035(2) 0.031(2) 0.007(2) 0.0165(16) 0.006(2)
O2C 0.023(2) 0.065(3) 0.038(2) -0.003(2) 0.0078(18) -0.001(2)
C1A 0.035(4) 0.023(3) 0.033(3) 0.000(3) 0.012(3) 0.000(3)
C2A 0.040(4) 0.030(4) 0.034(3) 0.003(3) 0.001(3) -0.008(3)
C3A 0.050(4) 0.042(4) 0.044(4) 0.010(3) -0.002(3) -0.016(3)
C4A 0.056(4) 0.052(5) 0.040(4) 0.012(3) -0.001(3) -0.024(4)
C5A 0.035(4) 0.038(4) 0.041(4) 0.009(3) -0.001(3) -0.005(3)
C6A 0.046(4) 0.034(4) 0.046(4) 0.012(3) 0.007(3) -0.011(3)
C7A 0.034(3) 0.034(4) 0.043(4) 0.000(3) 0.010(3) -0.013(3)
C8A 0.056(4) 0.046(5) 0.059(4) 0.020(4) -0.012(4) -0.025(4)
C9A 0.052(5) 0.062(5) 0.078(6) 0.037(4) -0.011(4) -0.024(4)
C12A 0.032(4) 0.026(3) 0.045(4) -0.001(3) 0.014(3) -0.002(3)
C1B 0.026(3) 0.034(4) 0.040(4) 0.002(3) 0.010(3) 0.001(3)
C2B 0.037(4) 0.031(4) 0.050(4) 0.015(3) 0.006(3) -0.003(3)
C3B 0.033(4) 0.044(4) 0.066(4) 0.020(4) 0.011(3) -0.003(3)
C4B 0.037(4) 0.045(4) 0.064(4) 0.025(3) 0.011(3) -0.004(3)
C5B 0.038(4) 0.039(4) 0.104(6) 0.028(4) 0.024(4) 0.009(3)
C6B 0.045(4) 0.043(5) 0.086(5) 0.019(4) 0.025(4) 0.001(3)
C1C 0.034(3) 0.033(4) 0.041(3) -0.003(3) 0.018(3) -0.001(3)
C2C 0.025(3) 0.068(5) 0.033(3) -0.003(3) 0.012(3) -0.005(3)
C3C 0.038(4) 0.078(6) 0.033(3) -0.001(3) 0.015(3) -0.002(3)
C4C 0.027(3) 0.078(6) 0.035(3) 0.001(3) 0.013(3) 0.001(3)
C5C 0.031(4) 0.136(8) 0.036(3) -0.001(5) 0.007(3) -0.009(4)
C6C 0.030(4) 0.171(10) 0.032(4) 0.008(5) 0.012(3) 0.003(5)
C11A 0.048(4) 0.042(4) 0.051(4) 0.012(3) 0.008(3) -0.015(3)
C10A 0.044(4) 0.041(4) 0.052(4) 0.009(3) 0.005(3) -0.012(3)
loop_
_atom_type_symbol
_atom_type_description
_atom_type_scat_dispersion_real
_atom_type_scat_dispersion_imag
_atom_type_scat_source
C C 0.0181 0.0091 'International Tables Vol C Tables 4.2.6.8 and 6.1.1.4'
H H 0.0000 0.0000 'International Tables Vol C Tables 4.2.6.8 and 6.1.1.4'
O O 0.0492 0.0322 'International Tables Vol C Tables 4.2.6.8 and 6.1.1.4'
Th Th -4.1491 12.3296 'International Tables Vol C Tables 4.2.6.8 and 6.1.1.4'
loop_
_geom_angle_atom_site_label_1
_geom_angle_atom_site_label_2
_geom_angle_atom_site_label_3
_geom_angle
_geom_angle_site_symmetry_1
_geom_angle_site_symmetry_3
O1A Th1 O2A 73.65(13) . 2_655
O1A Th1 O3A 143.48(14) . 4_645
O1A Th1 O4A 78.32(13) . 6_566
O1A Th1 O1B 100.97(13) . .
O1A Th1 O2B 73.03(13) . 2_655
O1A Th1 O1C 143.44(14) . .
O1A Th1 O1C 116.73(12) . 7_656
O1A Th1 O2C 77.00(13) . 7_656
O1A Th1 C1C 96.20(14) . 7_656
O2A Th1 O1C 129.10(11) 2_655 7_656
O2A Th1 C1C 138.79(14) 2_655 7_656
O3A Th1 O2A 136.91(13) 4_645 2_655
O3A Th1 O2B 71.59(13) 4_645 2_655
O3A Th1 O1C 64.18(12) 4_645 7_656
O3A Th1 O2C 82.38(14) 4_645 7_656
O3A Th1 C1C 72.53(14) 4_645 7_656
O4A Th1 O2A 71.00(12) 6_566 2_655
O4A Th1 O3A 124.89(11) 6_566 4_645
O4A Th1 O2B 138.33(14) 6_566 2_655
O4A Th1 O1C 63.91(11) 6_566 7_656
O4A Th1 O2C 75.26(13) 6_566 7_656
O4A Th1 C1C 67.82(14) 6_566 7_656
O1B Th1 O2A 73.48(13) . 2_655
O1B Th1 O3A 77.04(13) . 4_645
O1B Th1 O4A 143.13(13) . 6_566
O1B Th1 O2B 73.00(14) . 2_655
O1B Th1 O1C 139.58(12) . 7_656
O1B Th1 O1C 86.33(13) . .
O1B Th1 O2C 141.12(14) . 7_656
O1B Th1 C1C 147.13(15) . 7_656
O2B Th1 O2A 126.27(12) 2_655 2_655
O2B Th1 O1C 103.39(12) 2_655 7_656
O2B Th1 C1C 85.73(14) 2_655 7_656
O1C Th1 O2A 74.34(12) . 2_655
O1C Th1 O3A 73.07(13) . 4_645
O1C Th1 O4A 74.95(13) . 6_566
O1C Th1 O2B 142.14(14) . 2_655
O1C Th1 O1C 72.35(12) . 7_656
O1C Th1 O2C 118.65(11) . 7_656
O1C Th1 C1C 96.31(13) . 7_656
O1C Th1 C1C 24.04(12) 7_656 7_656
O2C Th1 O2A 138.80(14) 7_656 2_655
O2C Th1 O2B 69.31(14) 7_656 2_655
O2C Th1 O1C 46.42(11) 7_656 7_656
O2C Th1 C1C 22.38(13) 7_656 7_656
C1A O1A Th1 169.9(4) . .
C1A O2A Th1 129.7(4) . 2_655
C12A O3A Th1 142.1(4) . 4_655
C12A O4A Th1 135.5(4) . 6_565
C1B O1B Th1 163.7(4) . .
C1B O2B Th1 134.6(4) . 2_655
Th1 O1C Th1 107.66(12) . 7_656
C1C O1C Th1 83.2(3) . 7_656
C1C O1C Th1 168.2(4) . .
C1C O2C Th1 109.5(3) . 7_656
O1A C1A O2A 124.2(5) . .
O1A C1A C2A 117.1(5) . .
O2A C1A C2A 118.7(5) . .
C3A C2A C1A 122.2(5) . .
C11A C2A C1A 119.3(5) . .
C11A C2A C3A 118.4(6) . .
C2A C3A H3A 119.8 . .
C4A C3A C2A 120.5(6) . .
C4A C3A H3A 119.8 . .
C3A C4A H4A 119.1 . .
C3A C4A C5A 121.7(6) . .
C5A C4A H4A 119.1 . .
C4A C5A C6A 123.2(6) . .
C4A C5A C10A 118.2(6) . .
C10A C5A C6A 118.5(5) . .
C5A C6A H6A 119.1 . .
C7A C6A C5A 121.7(6) . .
C7A C6A H6A 119.1 . .
C6A C7A C8A 119.3(6) . .
C6A C7A C12A 120.7(5) . .
C8A C7A C12A 119.8(5) . .
C7A C8A H8A 119.8 . .
C9A C8A C7A 120.4(6) . .
C9A C8A H8A 119.8 . .
C8A C9A H9A 119.7 . .
C8A C9A C10A 120.6(6) . .
C10A C9A H9A 119.7 . .
O3A C12A C7A 116.9(6) . .
O4A C12A O3A 124.8(5) . .
O4A C12A C7A 118.2(5) . .
O1B C1B C2B 118.2(5) . .
O2B C1B O1B 123.5(6) . .
O2B C1B C2B 118.3(5) . .
C3B C2B C1B 118.9(6) . .
C3B C2B C6B 120.5(6) . .
C6B C2B C1B 120.5(5) . .
C2B C3B H3B 119.5 . .
C2B C3B C4B 120.9(6) . .
C4B C3B H3B 119.5 . .
C3B C4B C4B 118.1(7) . 5_656
C5B C4B C3B 122.1(6) . .
C5B C4B C4B 119.8(7) . 5_656
C4B C5B H5B 119.8 . .
C6B C5B C4B 120.3(6) 5_656 .
C6B C5B H5B 119.8 5_656 .
C2B C6B H6B 119.9 . .
C5B C6B C2B 120.2(6) 5_656 .
C5B C6B H6B 119.9 5_656 .
O1C C1C Th1 72.8(3) . 7_656
O1C C1C C2C 120.2(5) . .
O2C C1C Th1 48.2(3) . 7_656
O2C C1C O1C 120.9(5) . .
O2C C1C C2C 118.8(5) . .
C2C C1C Th1 166.9(4) . 7_656
C3C C2C C1C 121.2(5) . .
C3C C2C C5C 119.9(5) . .
C5C C2C C1C 118.9(5) . .
C2C C3C H3C 119.3 . .
C2C C3C C4C 121.4(5) . .
C4C C3C H3C 119.3 . .
C3C C4C C6C 122.5(5) . 2_656
C4C C4C C3C 119.1(7) 2_656 .
C4C C4C C6C 118.5(7) 2_656 2_656
C2C C5C H5C 120.2 . .
C6C C5C C2C 119.5(6) . .
C6C C5C H5C 120.2 . .
C4C C6C H6C 119.2 2_656 .
C5C C6C C4C 121.6(6) . 2_656
C5C C6C H6C 119.2 . .
C2A C11A H11A 118.8 . .
C2A C11A C10A 122.5(6) . .
C10A C11A H11A 118.8 . .
C5A C10A C9A 119.5(6) . .
C11A C10A C5A 118.7(6) . .
C11A C10A C9A 121.7(6) . .
loop_
_geom_bond_atom_site_label_1
_geom_bond_atom_site_label_2
_geom_bond_distance
_geom_bond_site_symmetry_2
Th1 O1A 2.310(4) .
Th1 O2A 2.508(4) 2_655
Th1 O3A 2.434(4) 4_645
Th1 O4A 2.410(4) 6_566
Th1 O1B 2.333(4) .
Th1 O2B 2.455(4) 2_655
Th1 O1C 2.401(3) .
Th1 O1C 2.984(3) 7_656
Th1 O2C 2.451(4) 7_656
Th1 C1C 3.102(6) 7_656
O1A C1A 1.257(6) .
O2A Th1 2.508(4) 2_655
O2A C1A 1.258(6) .
O3A Th1 2.434(4) 4_655
O3A C12A 1.262(6) .
O4A Th1 2.410(4) 6_565
O4A C12A 1.255(7) .
O1B C1B 1.273(6) .
O2B Th1 2.455(4) 2_655
O2B C1B 1.242(6) .
O1C Th1 2.984(3) 7_656
O1C C1C 1.273(6) .
O2C Th1 2.451(4) 7_656
O2C C1C 1.253(6) .
C1A C2A 1.495(8) .
C2A C3A 1.408(8) .
C2A C11A 1.364(8) .
C3A H3A 0.9300 .
C3A C4A 1.360(8) .
C4A H4A 0.9300 .
C4A C5A 1.405(8) .
C5A C6A 1.414(8) .
C5A C10A 1.410(8) .
C6A H6A 0.9300 .
C6A C7A 1.373(8) .
C7A C8A 1.420(8) .
C7A C12A 1.493(8) .
C8A H8A 0.9300 .
C8A C9A 1.369(9) .
C9A H9A 0.9300 .
C9A C10A 1.419(8) .
C1B C2B 1.479(8) .
C2B C3B 1.374(8) .
C2B C6B 1.409(8) .
C3B H3B 0.9300 .
C3B C4B 1.415(8) .
C4B C4B 1.432(12) 5_656
C4B C5B 1.410(8) .
C5B H5B 0.9300 .
C5B C6B 1.374(9) 5_656
C6B C5B 1.374(9) 5_656
C6B H6B 0.9300 .
C1C Th1 3.102(6) 7_656
C1C C2C 1.492(8) .
C2C C3C 1.355(8) .
C2C C5C 1.411(9) .
C3C H3C 0.9300 .
C3C C4C 1.405(8) .
C4C C4C 1.404(11) 2_656
C4C C6C 1.409(8) 2_656
C5C H5C 0.9300 .
C5C C6C 1.361(10) .
C6C C4C 1.409(8) 2_656
C6C H6C 0.9300 .
C11A H11A 0.9300 .
C11A C10A 1.403(9) .
