#------------------------------------------------------------------------------
#$Date: 2019-11-26 04:11:10 +0200 (Tue, 26 Nov 2019) $
#$Revision: 242580 $
#$URL: file:///home/coder/svn-repositories/cod/cif/4/13/26/4132633.cif $
#------------------------------------------------------------------------------
#
# This file is available in the Crystallography Open Database (COD),
# http://www.crystallography.net/
#
# All data on this site have been placed in the public domain by the
# contributors.
#
data_4132633
loop_
_publ_author_name
'Lee, Seungkyu'
'B\"urgi, Hans-Beat'
'Alshmimri, Sultan A.'
'Yaghi, Omar M.'
_publ_section_title
;
 Impact of Disordered Guest-Framework Interactions on the Crystallography
 of Metal-Organic Frameworks.
;
_journal_issue                   28
_journal_name_full               'Journal of the American Chemical Society'
_journal_page_first              8958
_journal_page_last               8964
_journal_paper_doi               10.1021/jacs.8b05271
_journal_volume                  140
_journal_year                    2018
_chemical_formula_moiety         '0.5(C85.44 H50.72 O58.72 Zr12)'
_chemical_formula_sum            'C42.7 H25.4 O32.04 Zr6'
_chemical_formula_weight         1598.39
_chemical_name_systematic        UiO-66
_space_group_crystal_system      cubic
_space_group_IT_number           225
_space_group_name_Hall           '-F 4 2 3'
_space_group_name_H-M_alt        'F m -3 m'
_atom_sites_solution_hydrogens   mixed
_audit_creation_date             2018-04-24
_audit_creation_method
;
Olex2 1.2
(compiled 2017.08.10 svn.r3458 for OlexSys, GUI svn.r5381)
;
_cell_angle_alpha                90
_cell_angle_beta                 90
_cell_angle_gamma                90
_cell_formula_units_Z            4
_cell_length_a                   20.7123(12)
_cell_length_b                   20.7123(12)
_cell_length_c                   20.7123(12)
_cell_measurement_reflns_used    3088
_cell_measurement_temperature    100.15
_cell_measurement_theta_max      27.65
_cell_measurement_theta_min      2.853
_cell_volume                     8885.6(9)
_computing_cell_refinement       'SAINT V8.38A (?, 2016)'
_computing_data_reduction        'SAINT V8.38A (?, 2016)'
_computing_molecular_graphics    'Olex2 (Dolomanov et al., 2009)'
_computing_publication_material  'Olex2 (Dolomanov et al., 2009)'
_computing_structure_refinement  'ShelXL (Sheldrick, 2015)'
_diffrn_ambient_temperature      100.15
_diffrn_detector                 'CCD area detector'
_diffrn_detector_area_resol_mean 7.9
_diffrn_detector_type            'Bruker Photon2'
_diffrn_measured_fraction_theta_full 0.994
_diffrn_measured_fraction_theta_max 0.987
_diffrn_measurement_device       'three-circle diffractometer'
_diffrn_measurement_device_type  'Bruker SMART CCD 1K area detector'
_diffrn_measurement_method       '\f and \w scans'
_diffrn_radiation_probe          x-ray
_diffrn_radiation_type           synchrotron
_diffrn_radiation_wavelength     0.7288
_diffrn_reflns_av_R_equivalents  0.0621
_diffrn_reflns_av_unetI/netI     0.0303
_diffrn_reflns_Laue_measured_fraction_full 0.994
_diffrn_reflns_Laue_measured_fraction_max 0.987
_diffrn_reflns_limit_h_max       26
_diffrn_reflns_limit_h_min       -26
_diffrn_reflns_limit_k_max       21
_diffrn_reflns_limit_k_min       -21
_diffrn_reflns_limit_l_max       25
_diffrn_reflns_limit_l_min       -25
_diffrn_reflns_number            15224
_diffrn_reflns_point_group_measured_fraction_full 0.994
_diffrn_reflns_point_group_measured_fraction_max 0.987
_diffrn_reflns_theta_full        25.930
_diffrn_reflns_theta_max         29.076
_diffrn_reflns_theta_min         2.852
_diffrn_source                   synchrotron
_diffrn_standards_number         0
_exptl_absorpt_coefficient_mu    0.789
_exptl_absorpt_correction_T_max  0.6889
_exptl_absorpt_correction_T_min  0.5914
_exptl_absorpt_correction_type   multi-scan
_exptl_absorpt_process_details
;
SADABS-2016/2 (Bruker,2016/2) was used for absorption correction.
wR2(int) was 0.1806 before and 0.1005 after correction.
The Ratio of minimum to maximum transmission is 0.8585.
The \l/2 correction factor is Not present.
;
_exptl_crystal_colour            clear
_exptl_crystal_colour_lustre     clear
_exptl_crystal_density_diffrn    1.195
_exptl_crystal_description       'Truncated Octahedron'
_exptl_crystal_F_000             3112
_exptl_crystal_size_max          0.12
_exptl_crystal_size_mid          0.12
_exptl_crystal_size_min          0.12
_platon_squeeze_details
;
TITL shelx     F m -3 m     R = 0.03
CELL   20.7123   20.7123   20.7123     90.00     90.00     90.00
SPGR Fm-3m
# Solvent Accessible Volume =      4735
# Electrons Found in S.A.V. =       187
# Note: Atoms in Void are Labelled as Cxxx and Qxxx for all Others
C101 0.144 0.144 0.144 !       1.75 eA-3
Q102 0.592 0.498 0.094 !       0.53 eA-3
;
_refine_diff_density_max         0.402
_refine_diff_density_min         -0.432
_refine_diff_density_rms         0.067
_refine_ls_extinction_coef       0.00021(8)
_refine_ls_extinction_expression Fc^*^=kFc[1+0.001xFc^2^\l^3^/sin(2\q)]^-1/4^
_refine_ls_extinction_method     'SHELXL-2017/1 (Sheldrick 2017)'
_refine_ls_goodness_of_fit_ref   1.196
_refine_ls_hydrogen_treatment    mixed
_refine_ls_matrix_type           full
_refine_ls_number_parameters     32
_refine_ls_number_reflns         609
_refine_ls_number_restraints     1
_refine_ls_restrained_S_all      1.196
_refine_ls_R_factor_all          0.0223
_refine_ls_R_factor_gt           0.0214
_refine_ls_shift/su_max          0.000
_refine_ls_shift/su_mean         0.000
_refine_ls_structure_factor_coef Fsqd
_refine_ls_weighting_details
'w=1/[\s^2^(Fo^2^)+(0.0213P)^2^+23.4945P] where P=(Fo^2^+2Fc^2^)/3'
_refine_ls_weighting_scheme      calc
_refine_ls_wR_factor_gt          0.0569
_refine_ls_wR_factor_ref         0.0578
_reflns_Friedel_coverage         0.000
_reflns_number_gt                584
_reflns_number_total             609
_reflns_threshold_expression     'I > 2\s(I)'
_iucr_refine_instructions_details
;
TITL AN_100Kfinal_act in Fm-3m #225
    platon_sq.res
    created by SHELXL-2017/1 at 14:42:59 on 24-Apr-2018
REM reset to Fm-3m #225
CELL 0.7288 20.7123 20.7123 20.7123 90 90 90
ZERR 4 0.0012 0.0012 0.0012 0 0 0
LATT 4
SYMM -Y,+X,+Z
SYMM -X,-Y,+Z
SYMM +Y,-X,+Z
SYMM +X,-Z,+Y
SYMM +X,-Y,-Z
SYMM +X,+Z,-Y
SYMM +Z,+Y,-X
SYMM -X,+Y,-Z
SYMM -Z,+Y,+X
SYMM +Z,+X,+Y
SYMM +Y,+Z,+X
SYMM -Y,-Z,+X
SYMM +Z,-X,-Y
SYMM -Y,+Z,-X
SYMM -Z,-X,+Y
SYMM -Z,+X,-Y
SYMM +Y,-Z,-X
SYMM +Y,+X,-Z
SYMM -Y,-X,-Z
SYMM -X,+Z,+Y
SYMM -X,-Z,-Y
SYMM +Z,-Y,+X
SYMM -Z,-Y,-X
SFAC C H O Zr
DISP C 0.004 0.002 12.046
DISP H -0 0 0.625
DISP O 0.012 0.006 34.424
DISP Zr -2.441 0.61 2648.569
UNIT 170.8 101.6 128.16 24
DFIX 0.8 O2 H2

L.S. 5 0 1
PLAN  50
SIZE 0.12 0.12 0.12
TEMP -173
BOND
ABIN
fmap 2
acta
REM <olex2.extras>
REM <HklSrc "%.\\platon_sq.hkl">
REM </olex2.extras>

WGHT    0.021300   23.494499
EXTI    0.000213
FVAR       0.03912
ZR1   4    0.119407    0.000000    0.000000    10.12500    0.01571    0.00944 =
         0.00944    0.00000    0.00000    0.00000
PART 1
O3    3    0.170785   -0.093508    0.000000    10.44500    0.01386    0.01102 =
         0.02370    0.00000    0.00000    0.00445
PART 0
PART 2
O2    3    0.065694    0.065694    0.065694    10.08333    0.01824    0.01824 =
         0.01824    0.00180    0.00180    0.00180
PART 0
PART 1
C1    1    0.151545   -0.151545    0.000000    10.22250    0.01238    0.01238 =
         0.02141    0.00000    0.00000    0.00303
C2    1    0.202714   -0.202714    0.000000    10.22250    0.01517    0.01517 =
         0.03123    0.00000    0.00000    0.00611
C3    1    0.267119   -0.185432    0.000000    10.44500    0.01859    0.01240 =
         0.06969    0.00000    0.00000    0.00258
AFIX  43
H3    2    0.278982   -0.141127    0.000000    10.44500   -1.20000
AFIX   0
O1    3    0.049713    0.049713    0.049713    10.08333    0.02189    0.02189 =
         0.02189   -0.00657   -0.00657   -0.00657
PART 0
PART 2
H2    2    0.088445    0.088445    0.088445    10.08333   10.03000
HKLF 4




REM  AN_100Kfinal_act in Fm-3m #225
REM R1 =  0.0214 for     584 Fo > 4sig(Fo)  and  0.0223 for all     609 data
REM     32 parameters refined using      1 restraints

END  
     
WGHT      0.0213     23.4947 

REM Highest difference peak  0.402,  deepest hole -0.432,  1-sigma level  0.067
Q1    1   0.0907  0.0000  0.0907  10.25000  0.05    0.39
Q2    1   0.1553 -0.0871  0.0000  10.50000  0.05    0.37
Q3    1   0.0859  0.0000  0.0000  10.12500  0.05    0.32
Q4    1   0.2012 -0.0798  0.0000  10.50000  0.05    0.23
Q5    1   0.1802 -0.1802  0.0000  10.25000  0.05    0.23
Q6    1   0.2228 -0.0323  0.0000  10.50000  0.05    0.19
Q7    1   0.2838 -0.2044  0.0000  10.50000  0.05    0.19
Q8    1   0.2698 -0.1331 -0.0399  11.00000  0.05    0.18
Q9    1   0.0000  0.0153  0.0000  10.12500  0.05    0.17
Q10   1   0.1964 -0.2302  0.0000  10.50000  0.05    0.17
Q11   1   0.2106 -0.0373  0.0373  10.50000  0.05    0.14
Q12   1   0.2407 -0.1151  0.0000  10.50000  0.05    0.14
Q13   1   0.2187 -0.1975  0.0000  10.50000  0.05    0.14
Q14   1   0.2000 -0.0435 -0.0326  11.00000  0.05    0.14
Q15   1   0.2286 -0.1130 -0.0349  11.00000  0.05    0.13
Q16   1   0.2657 -0.1150  0.0589  11.00000  0.05    0.13
Q17   1   0.0489  0.0489  0.0000  10.25000  0.05    0.13
Q18   1   0.0000  0.0312  0.0312  10.25000  0.05    0.13
Q19   1   0.2373 -0.1181 -0.0155  11.00000  0.05    0.12
Q20   1   0.2189 -0.0980 -0.0300  11.00000  0.05    0.12
Q21   1   0.3003  0.0000  0.0000  10.12500  0.05    0.11
Q22   1   0.2706 -0.1634  0.0000  10.50000  0.05    0.11
Q23   1   0.4715  0.0000  0.0000  10.12500  0.05    0.10
Q24   1   0.3037 -0.0467  0.0000  10.50000  0.05    0.10
Q25   1   0.2121  0.0000  0.0000  10.12500  0.05    0.09
Q26   1   0.2504 -0.0746 -0.0746  10.50000  0.05    0.09
Q27   1   0.2500 -0.2500 -0.2500  10.04167  0.05    0.09
Q28   1   0.4492  0.0000  0.0000  10.12500  0.05    0.09
Q29   1   0.2479 -0.0798  0.0000  10.50000  0.05    0.08
Q30   1   0.1898 -0.1189 -0.0588  11.00000  0.05    0.08
Q31   1   0.2511 -0.1911 -0.0093  11.00000  0.05    0.08
Q32   1   0.2799 -0.0323  0.0000  10.50000  0.05    0.08
Q33   1   0.1339  0.1339  0.1339  10.16667  0.05    0.08
Q34   1   0.1278  0.0570  0.0850  11.00000  0.05    0.08
Q35   1   0.3173 -0.1079 -0.1079  10.50000  0.05    0.07
Q36   1   0.3703 -0.0970  0.0000  10.50000  0.05    0.07
Q37   1   0.0552  0.0000  0.0209  10.50000  0.05    0.07
Q38   1   0.1416  0.0720  0.0720  10.50000  0.05    0.07
Q39   1   0.2200 -0.2200 -0.0838  10.50000  0.05    0.07
Q40   1   0.4190 -0.0810  0.0000  10.25000  0.05    0.07
Q41   1   0.2256 -0.2114  0.0819  11.00000  0.05    0.06
Q42   1   0.1350  0.1350  0.0982  10.50000  0.05    0.06
Q43   1   0.3478 -0.1375  0.0000  10.50000  0.05    0.06
Q44   1   0.3845 -0.0649  0.0000  10.50000  0.05    0.06
Q45   1   0.3708 -0.0432  0.0000  10.50000  0.05    0.06
Q46   1   0.2833 -0.1336 -0.0858  11.00000  0.05    0.06
Q47   1   0.2690 -0.1994  0.1869  11.00000  0.05    0.06
Q48   1   0.3987  0.0000  0.0000  10.12500  0.05    0.05
Q49   1   0.3981 -0.0743  0.0000  10.50000  0.05    0.05
Q50   1   0.2420 -0.1445 -0.0713  11.00000  0.05    0.05

  REM The information below was added by Olex2.
  REM
  REM R1 = 0.0214 for 584 Fo > 4sig(Fo) and 0.0223 for all 15224 data
  REM n/a parameters refined using n/a restraints
  REM Highest difference peak 0.40, deepest hole -0.43
  REM Mean Shift 0, Max Shift 0.000.

  REM +++ Tabular Listing of Refinement Information +++
  REM R1_all = 0.0223
  REM R1_gt = 0.0214
  REM wR_ref = 0.0578
  REM GOOF = 1.196
  REM Shift_max = 0.000
  REM Shift_mean = 0
  REM Reflections_all = 15224
  REM Reflections_gt = 584
  REM Parameters = n/a
  REM Hole = -0.43
  REM Peak = 0.40
  REM Flack = n/a

  
;
_cod_data_source_file            UiO-66_Tswing_100K3.cif
_cod_data_source_block           UiO-66_Tswing_100K3
_cod_original_cell_volume        8885.6(15)
_cod_original_formula_sum        'C42.70 H25.40 O32.04 Zr6'
_cod_database_code               4132633
_shelx_shelxl_version_number     2017/1
_shelx_space_group_comment
;
The symmetry employed for this shelxl refinement is uniquely defined
by the following loop, which should always be used as a source of
symmetry information in preference to the above space-group names.
They are only intended as comments.
;
_shelx_estimated_absorpt_t_max   0.911
_shelx_estimated_absorpt_t_min   0.911
_olex2_refinement_description
;
1. Fixed Uiso
 At 1.2 times of:
  All C(H) groups
2. Restrained distances
 O2-H2
 0.8 with sigma of 0.02
3. Others
 Fixed Sof: O3(0.445) O2(0.08333) C1(0.2225) C2(0.2225) C3(0.445) H3(0.445)
 O1(0.08333) H2(0.08333)
 Fixed Uiso: H2(0.03)
4.a Aromatic/amide H refined with riding coordinates:
 C3(H3)
;
_shelx_fab_file
;
 0 2 2 62.30 0.00
 2 2 2 -55.05 0.00
 1 1 3 -9.15 0.00
 1 3 3 23.16 0.00
 3 3 3 -33.46 0.00
 0 0 4 -9.46 0.00
 0 2 4 -1.50 0.00
 2 2 4 2.70 0.00
 0 4 4 26.53 0.00
 2 4 4 1.62 0.00
 4 4 4 0.94 0.00
 1 1 5 4.56 0.00
 1 3 5 -4.49 0.00
 3 3 5 0.12 0.00
 1 5 5 -0.11 0.00
 3 5 5 -14.80 0.00
 5 5 5 -11.73 0.00
 0 2 6 -18.86 0.00
 2 2 6 5.27 0.00
 0 4 6 -17.96 0.00
 2 4 6 -3.41 0.00
 4 4 6 34.83 0.00
 0 6 6 25.34 0.00
 2 6 6 -9.44 0.00
 4 6 6 -12.90 0.00
 6 6 6 7.65 0.00
 1 1 7 3.60 0.00
 1 3 7 -2.75 0.00
 3 3 7 15.85 0.00
 1 5 7 4.80 0.00
 3 5 7 -3.71 0.00
 5 5 7 1.54 0.00
 1 7 7 3.42 0.00
 3 7 7 -9.83 0.00
 5 7 7 -0.50 0.00
 7 7 7 12.29 0.00
 0 0 8 16.27 0.00
 0 2 8 11.68 0.00
 2 2 8 -8.64 0.00
 0 4 8 -10.83 0.00
 2 4 8 5.68 0.00
 4 4 8 1.73 0.00
 0 6 8 -5.39 0.00
 2 6 8 6.19 0.00
 4 6 8 -4.52 0.00
 6 6 8 3.25 0.00
 0 8 8 23.21 0.00
 2 8 8 -4.88 0.00
 4 8 8 -1.22 0.00
 6 8 8 -1.49 0.00
 8 8 8 4.05 0.00
 1 1 9 -9.61 0.00
 1 3 9 1.59 0.00
 3 3 9 -7.17 0.00
 1 5 9 -0.26 0.00
 3 5 9 2.24 0.00
 5 5 9 -1.28 0.00
 1 7 9 -8.63 0.00
 3 7 9 5.82 0.00
 5 7 9 1.47 0.00
 7 7 9 -2.50 0.00
 1 9 9 0.71 0.00
 3 9 9 -2.13 0.00
 5 9 9 1.48 0.00
 7 9 9 -1.89 0.00
 9 9 9 -0.72 0.00
 0 0 10 -8.10 0.00
 0 2 10 -0.32 0.00
 2 2 10 3.75 0.00
 0 4 10 14.54 0.00
 2 4 10 -8.96 0.00
 4 4 10 -8.27 0.00
 0 6 10 -9.85 0.00
 2 6 10 3.69 0.00
 4 6 10 5.02 0.00
 6 6 10 -6.35 0.00
 0 8 10 -6.53 0.00
 2 8 10 4.32 0.00
 4 8 10 0.88 0.00
 6 8 10 -0.40 0.00
 8 8 10 -3.35 0.00
 0 10 10 11.06 0.00
 2 10 10 -5.05 0.00
 4 10 10 -4.75 0.00
 6 10 10 3.68 0.00
 8 10 10 4.39 0.00
 10 10 10 -4.84 0.00
 1 1 11 -4.01 0.00
 1 3 11 9.22 0.00
 3 3 11 -10.16 0.00
 1 5 11 1.38 0.00
 3 5 11 2.76 0.00
 5 5 11 -3.21 0.00
 1 7 11 -3.37 0.00
 3 7 11 3.57 0.00
 5 7 11 -0.24 0.00
 7 7 11 -3.63 0.00
 1 9 11 0.99 0.00
 3 9 11 -2.77 0.00
 5 9 11 1.69 0.00
 7 9 11 1.89 0.00
 9 9 11 -1.31 0.00
 1 11 11 1.69 0.00
 3 11 11 -2.92 0.00
 5 11 11 -2.32 0.00
 7 11 11 3.76 0.00
 9 11 11 1.08 0.00
 11 11 11 -5.98 0.00
 0 0 12 -0.17 0.00
 0 2 12 -0.43 0.00
 2 2 12 1.16 0.00
 0 4 12 -1.16 0.00
 2 4 12 3.23 0.00
 4 4 12 -5.90 0.00
 0 6 12 0.88 0.00
 2 6 12 -1.24 0.00
 4 6 12 5.84 0.00
 6 6 12 0.45 0.00
 0 8 12 -1.18 0.00
 2 8 12 0.79 0.00
 4 8 12 1.94 0.00
 6 8 12 -5.00 0.00
 8 8 12 2.55 0.00
 0 10 12 2.16 0.00
 2 10 12 -0.59 0.00
 4 10 12 -0.46 0.00
 6 10 12 1.24 0.00
 8 10 12 -0.51 0.00
 10 10 12 -0.62 0.00
 0 12 12 0.60 0.00
 2 12 12 1.11 0.00
 4 12 12 -4.58 0.00
 6 12 12 3.27 0.00
 8 12 12 -1.56 0.00
 10 12 12 -0.73 0.00
 12 12 12 0.78 0.00
 1 1 13 5.58 0.00
 1 3 13 -10.39 0.00
 3 3 13 13.32 0.00
 1 5 13 -0.05 0.00
 3 5 13 -3.99 0.00
 5 5 13 3.26 0.00
 1 7 13 3.68 0.00
 3 7 13 -5.79 0.00
 5 7 13 1.59 0.00
 7 7 13 3.10 0.00
 1 9 13 -0.86 0.00
 3 9 13 3.33 0.00
 5 9 13 -1.89 0.00
 7 9 13 -0.66 0.00
 9 9 13 1.37 0.00
 1 11 13 -2.07 0.00
 3 11 13 3.65 0.00
 5 11 13 0.87 0.00
 7 11 13 -3.52 0.00
 9 11 13 0.26 0.00
 11 11 13 2.43 0.00
 1 13 13 1.89 0.00
 3 13 13 -2.65 0.00
 5 13 13 0.77 0.00
 7 13 13 2.99 0.00
 9 13 13 2.26 0.00
 11 13 13 0.16 0.00
 13 13 13 -3.35 0.00
 0 0 14 7.26 0.00
 0 2 14 -1.02 0.00
 2 2 14 0.28 0.00
 0 4 14 -11.35 0.00
 2 4 14 3.18 0.00
 4 4 14 4.65 0.00
 0 6 14 8.14 0.00
 2 6 14 -3.13 0.00
 4 6 14 -6.18 0.00
 6 6 14 3.24 0.00
 0 8 14 4.00 0.00
 2 8 14 -2.99 0.00
 4 8 14 -3.40 0.00
 6 8 14 2.63 0.00
 8 8 14 0.33 0.00
 0 10 14 -8.11 0.00
 2 10 14 3.36 0.00
 4 10 14 3.73 0.00
 6 10 14 -2.48 0.00
 8 10 14 -0.52 0.00
 10 10 14 1.79 0.00
 0 12 14 -3.11 0.00
 2 12 14 -0.11 0.00
 4 12 14 2.62 0.00
 6 12 14 -2.39 0.00
 8 12 14 -1.19 0.00
 10 12 14 1.05 0.00
 12 12 14 -0.83 0.00
 0 14 14 6.08 0.00
 2 14 14 -1.69 0.00
 4 14 14 -5.41 0.00
 6 14 14 4.73 0.00
 8 14 14 -0.21 0.00
 10 14 14 -2.94 0.00
 12 14 14 0.66 0.00
 14 14 14 1.08 0.00
 1 1 15 -0.74 0.00
 1 3 15 0.15 0.00
 3 3 15 1.13 0.00
 1 5 15 -0.01 0.00
 3 5 15 3.57 0.00
 5 5 15 -2.04 0.00
 1 7 15 3.45 0.00
 3 7 15 -3.51 0.00
 5 7 15 -0.46 0.00
 7 7 15 3.12 0.00
 1 9 15 -0.37 0.00
 3 9 15 -0.64 0.00
 5 9 15 0.66 0.00
 7 9 15 -1.54 0.00
 9 9 15 -0.10 0.00
 1 11 15 -2.92 0.00
 3 11 15 3.84 0.00
 5 11 15 0.39 0.00
 7 11 15 -4.42 0.00
 9 11 15 0.12 0.00
 11 11 15 3.69 0.00
 1 13 15 2.41 0.00
 3 13 15 -2.97 0.00
 5 13 15 -1.83 0.00
 7 13 15 3.56 0.00
 9 13 15 -0.25 0.00
 11 13 15 -3.06 0.00
 13 13 15 1.90 0.00
 1 15 15 1.05 0.00
 3 15 15 -1.53 0.00
 5 15 15 -0.37 0.00
 7 15 15 2.08 0.00
 9 15 15 -0.50 0.00
 11 15 15 -1.09 0.00
 13 15 15 1.47 0.00
 15 15 15 -0.33 0.00
 0 0 16 -0.59 0.00
 0 2 16 1.95 0.00
 2 2 16 1.13 0.00
 0 4 16 3.59 0.00
 2 4 16 -1.91 0.00
 4 4 16 -0.56 0.00
 0 6 16 -2.75 0.00
 2 6 16 2.29 0.00
 4 6 16 1.08 0.00
 6 6 16 -1.00 0.00
 0 8 16 -2.57 0.00
 2 8 16 0.68 0.00
 4 8 16 -0.02 0.00
 6 8 16 0.92 0.00
 8 8 16 0.92 0.00
 0 10 16 1.98 0.00
 2 10 16 0.23 0.00
 4 10 16 -0.24 0.00
 6 10 16 0.93 0.00
 8 10 16 0.50 0.00
 10 10 16 1.36 0.00
 0 12 16 2.10 0.00
 2 12 16 0.13 0.00
 4 12 16 -0.10 0.00
 6 12 16 1.37 0.00
 8 12 16 -0.73 0.00
 10 12 16 -1.01 0.00
 12 12 16 1.19 0.00
 0 14 16 -1.98 0.00
 2 14 16 0.90 0.00
 4 14 16 2.59 0.00
 6 14 16 -0.77 0.00
 8 14 16 -0.90 0.00
 10 14 16 0.55 0.00
 12 14 16 0.37 0.00
 14 14 16 0.28 0.00
 0 16 16 0.97 0.00
 2 16 16 -1.53 0.00
 4 16 16 0.74 0.00
 6 16 16 -0.08 0.00
 8 16 16 0.71 0.00
 10 16 16 -1.27 0.00
 12 16 16 -1.16 0.00
 14 16 16 -1.17 0.00
 1 1 17 -5.62 0.00
 1 3 17 5.84 0.00
 3 3 17 -9.09 0.00
 1 5 17 -0.51 0.00
 3 5 17 -1.81 0.00
 5 5 17 0.92 0.00
 1 7 17 -4.80 0.00
 3 7 17 7.66 0.00
 5 7 17 0.08 0.00
 7 7 17 -4.50 0.00
 1 9 17 2.00 0.00
 3 9 17 -1.36 0.00
 5 9 17 0.44 0.00
 7 9 17 0.41 0.00
 9 9 17 -1.93 0.00
 1 11 17 2.49 0.00
 3 11 17 -6.01 0.00
 5 11 17 0.30 0.00
 7 11 17 4.40 0.00
 9 11 17 -0.14 0.00
 11 11 17 -3.84 0.00
 1 13 17 -2.95 0.00
 3 13 17 2.48 0.00
 5 13 17 -1.73 0.00
 7 13 17 -2.55 0.00
 9 13 17 0.54 0.00
 11 13 17 2.97 0.00
 13 13 17 -0.77 0.00
 1 15 17 -1.29 0.00
 3 15 17 2.69 0.00
 5 15 17 -0.89 0.00
 7 15 17 -2.12 0.00
 9 15 17 1.26 0.00
 11 15 17 3.12 0.00
 13 15 17 -3.42 0.00
 15 15 17 1.30 0.00
 1 17 17 2.02 0.00
 3 17 17 -1.91 0.00
 5 17 17 -1.14 0.00
 7 17 17 3.92 0.00
 9 17 17 -0.02 0.00
 11 17 17 -4.64 0.00
 13 17 17 3.34 0.00
 0 0 18 -4.87 0.00
 0 2 18 2.39 0.00
 2 2 18 -1.23 0.00
 0 4 18 4.42 0.00
 2 4 18 -2.33 0.00
 4 4 18 -2.68 0.00
 0 6 18 -4.99 0.00
 2 6 18 2.70 0.00
 4 6 18 2.96 0.00
 6 6 18 -3.04 0.00
 0 8 18 -4.72 0.00
 2 8 18 0.30 0.00
 4 8 18 1.72 0.00
 6 8 18 -2.15 0.00
 8 8 18 -1.98 0.00
 0 10 18 5.79 0.00
 2 10 18 -2.48 0.00
 4 10 18 -4.52 0.00
 6 10 18 2.16 0.00
 8 10 18 1.87 0.00
 10 10 18 -1.67 0.00
 0 12 18 0.05 0.00
 2 12 18 1.37 0.00
 4 12 18 -0.50 0.00
 6 12 18 0.63 0.00
 8 12 18 0.54 0.00
 10 12 18 -1.47 0.00
 12 12 18 -0.78 0.00
 0 14 18 -3.46 0.00
 2 14 18 -0.11 0.00
 4 14 18 4.35 0.00
 6 14 18 -2.09 0.00
 8 14 18 -1.51 0.00
 10 14 18 1.99 0.00
 12 14 18 0.47 0.00
 14 14 18 -0.43 0.00
 0 16 18 1.43 0.00
 2 16 18 -1.58 0.00
 4 16 18 -1.36 0.00
 6 16 18 0.37 0.00
 8 16 18 0.13 0.00
 10 16 18 0.34 0.00
 12 16 18 -0.73 0.00
 0 18 18 3.93 0.00
 2 18 18 -2.33 0.00
 4 18 18 -0.73 0.00
 6 18 18 -1.58 0.00
 8 18 18 0.37 0.00
 10 18 18 0.15 0.00
 1 1 19 0.63 0.00
 1 3 19 -1.38 0.00
 3 3 19 2.63 0.00
 1 5 19 -0.35 0.00
 3 5 19 -1.08 0.00
 5 5 19 -0.30 0.00
 1 7 19 0.28 0.00
 3 7 19 -1.24 0.00
 5 7 19 0.04 0.00
 7 7 19 -0.33 0.00
 1 9 19 1.31 0.00
 3 9 19 0.63 0.00
 5 9 19 -1.26 0.00
 7 9 19 0.60 0.00
 9 9 19 0.54 0.00
 1 11 19 -0.18 0.00
 3 11 19 0.54 0.00
 5 11 19 0.10 0.00
 7 11 19 1.14 0.00
 9 11 19 -1.61 0.00
 11 11 19 1.76 0.00
 1 13 19 -0.43 0.00
 3 13 19 -0.37 0.00
 5 13 19 0.58 0.00
 7 13 19 0.28 0.00
 9 13 19 0.08 0.00
 11 13 19 -0.34 0.00
 13 13 19 -3.04 0.00
 1 15 19 1.09 0.00
 3 15 19 1.16 0.00
 5 15 19 0.59 0.00
 7 15 19 0.14 0.00
 9 15 19 -0.42 0.00
 11 15 19 -1.84 0.00
 13 15 19 2.91 0.00
 1 17 19 0.04 0.00
 3 17 19 0.20 0.00
 5 17 19 1.02 0.00
 7 17 19 0.02 0.00
 9 17 19 -2.01 0.00
 1 19 19 -2.20 0.00
 3 19 19 4.52 0.00
 5 19 19 -2.63 0.00
 0 0 20 5.95 0.00
 0 2 20 -1.00 0.00
 2 2 20 1.09 0.00
 0 4 20 -3.52 0.00
 2 4 20 3.35 0.00
 4 4 20 2.99 0.00
 0 6 20 6.28 0.00
 2 6 20 -0.98 0.00
 4 6 20 -1.58 0.00
 6 6 20 2.57 0.00
 0 8 20 1.60 0.00
 2 8 20 -0.16 0.00
 4 8 20 -0.78 0.00
 6 8 20 2.89 0.00
 8 8 20 -0.73 0.00
 0 10 20 -4.21 0.00
 2 10 20 1.08 0.00
 4 10 20 2.23 0.00
 6 10 20 -2.00 0.00
 8 10 20 -0.17 0.00
 10 10 20 2.25 0.00
 0 12 20 1.37 0.00
 2 12 20 0.38 0.00
 4 12 20 1.20 0.00
 6 12 20 -1.46 0.00
 8 12 20 -0.42 0.00
 10 12 20 0.47 0.00
 12 12 20 -0.30 0.00
 0 14 20 2.77 0.00
 2 14 20 -1.45 0.00
 4 14 20 -2.56 0.00
 6 14 20 0.47 0.00
 8 14 20 1.24 0.00
 10 14 20 -1.14 0.00
 12 14 20 1.08 0.00
 0 16 20 -1.23 0.00
 2 16 20 -0.67 0.00
 4 16 20 2.57 0.00
 6 16 20 -0.37 0.00
 8 16 20 -0.55 0.00
 10 16 20 1.33 0.00
 0 18 20 2.57 0.00
 2 18 20 -0.24 0.00
 4 18 20 -1.38 0.00
 6 18 20 2.31 0.00
 1 1 21 1.43 0.00
 1 3 21 -4.15 0.00
 3 3 21 3.99 0.00
 1 5 21 -0.80 0.00
 3 5 21 -0.77 0.00
 5 5 21 -0.26 0.00
 1 7 21 2.52 0.00
 3 7 21 -5.14 0.00
 5 7 21 -1.09 0.00
 7 7 21 5.16 0.00
 1 9 21 -2.55 0.00
 3 9 21 2.23 0.00
 5 9 21 0.85 0.00
 7 9 21 -0.80 0.00
 9 9 21 -1.47 0.00
 1 11 21 -2.86 0.00
 3 11 21 3.43 0.00
 5 11 21 -0.21 0.00
 7 11 21 -2.95 0.00
 9 11 21 0.38 0.00
 11 11 21 2.93 0.00
 1 13 21 0.72 0.00
 3 13 21 -2.41 0.00
 5 13 21 -0.07 0.00
 7 13 21 1.36 0.00
 9 13 21 1.10 0.00
 11 13 21 -1.24 0.00
 1 15 21 2.04 0.00
 3 15 21 -1.79 0.00
 5 15 21 -1.12 0.00
 7 15 21 1.98 0.00
 9 15 21 -0.85 0.00
 1 17 21 -3.38 0.00
 3 17 21 1.31 0.00
 5 17 21 -1.47 0.00
 0 0 22 1.04 0.00
 0 2 22 -1.33 0.00
 2 2 22 1.78 0.00
 0 4 22 1.94 0.00
 2 4 22 -0.46 0.00
 4 4 22 1.73 0.00
 0 6 22 -1.02 0.00
 2 6 22 0.77 0.00
 4 6 22 -1.49 0.00
 6 6 22 1.06 0.00
 0 8 22 2.32 0.00
 2 8 22 0.43 0.00
 4 8 22 -0.56 0.00
 6 8 22 -2.75 0.00
 8 8 22 0.52 0.00
 0 10 22 -1.59 0.00
 2 10 22 0.02 0.00
 4 10 22 0.46 0.00
 6 10 22 0.62 0.00
 8 10 22 -1.04 0.00
 10 10 22 -0.24 0.00
 0 12 22 3.27 0.00
 2 12 22 -0.79 0.00
 4 12 22 0.62 0.00
 6 12 22 -0.89 0.00
 8 12 22 0.36 0.00
 10 12 22 -0.20 0.00
 0 14 22 -0.49 0.00
 2 14 22 -1.33 0.00
 4 14 22 -0.85 0.00
 6 14 22 0.44 0.00
 8 14 22 -0.28 0.00
 0 16 22 2.28 0.00
 2 16 22 1.73 0.00
 4 16 22 -0.94 0.00
 1 1 23 0.09 0.00
 1 3 23 0.04 0.00
 3 3 23 -3.33 0.00
 1 5 23 -2.23 0.00
 3 5 23 0.87 0.00
 5 5 23 1.49 0.00
 1 7 23 -1.19 0.00
 3 7 23 1.69 0.00
 5 7 23 0.97 0.00
 7 7 23 -0.44 0.00
 1 9 23 1.34 0.00
 3 9 23 -1.63 0.00
 5 9 23 -0.45 0.00
 7 9 23 0.75 0.00
 9 9 23 0.63 0.00
 1 11 23 0.79 0.00
 3 11 23 -1.00 0.00
 5 11 23 -0.10 0.00
 7 11 23 0.67 0.00
 9 11 23 1.12 0.00
 1 13 23 -1.56 0.00
 3 13 23 2.35 0.00
 5 13 23 1.14 0.00
 7 13 23 0.94 0.00
 1 15 23 -0.16 0.00
 3 15 23 2.16 0.00
 0 0 24 -5.98 0.00
 0 2 24 3.60 0.00
 2 2 24 -1.33 0.00
 0 4 24 4.23 0.00
 2 4 24 0.92 0.00
 4 4 24 -2.09 0.00
 0 6 24 -2.21 0.00
 2 6 24 1.74 0.00
 4 6 24 1.19 0.00
 6 6 24 -3.23 0.00
 0 8 24 0.56 0.00
 2 8 24 -0.08 0.00
 4 8 24 1.15 0.00
 6 8 24 0.61 0.00
 8 8 24 -0.41 0.00
 0 10 24 1.32 0.00
 2 10 24 -0.30 0.00
 4 10 24 -0.96 0.00
 6 10 24 0.60 0.00
 8 10 24 2.07 0.00
 0 12 24 0.76 0.00
 2 12 24 1.65 0.00
 4 12 24 -0.66 0.00
 6 12 24 -0.21 0.00
 1 1 25 -1.85 0.00
 1 3 25 1.48 0.00
 3 3 25 -0.92 0.00
 1 5 25 0.47 0.00
 3 5 25 -0.47 0.00
 5 5 25 -0.60 0.00
 1 7 25 -1.49 0.00
 3 7 25 0.23 0.00
 5 7 25 1.25 0.00
 7 7 25 -2.17 0.00
 1 9 25 -1.26 0.00
 3 9 25 -0.88 0.00
 5 9 25 0.36 0.00
 7 9 25 -0.88 0.00
 1 11 25 0.63 0.00
 3 11 25 -2.72 0.00
 0 0 26 7.38 0.00
 0 2 26 -2.47 0.00
 2 2 26 -1.22 0.00
 0 4 26 -3.09 0.00
 2 4 26 -0.31 0.00
 4 4 26 -1.40 0.00
 0 6 26 3.86 0.00
 2 6 26 -2.03 0.00
 4 6 26 0.27 0.00
 6 6 26 -1.20 0.00
 0 8 26 -3.32 0.00
 2 8 26 3.91 0.00
 4 8 26 1.48 0.00
 1 1 1 -26.14 0.00
 0 0 2 -75.06 0.00
 0 0 6 24.42 0.00
 16 16 16 1.75 0.00
 11 17 19 1.66 0.00
 7 19 19 0.12 0.00
 12 12 22 -0.55 0.00
 11 11 23 -1.92 0.00
 0 14 24 -1.33 0.00
 5 11 25 -0.67 0.00
 1 1 27 -0.17 0.00
 1 3 27 0.98 0.00
 3 3 27 2.75 0.00
 1 5 27 -0.12 0.00
 3 5 27 0.08 0.00
 0 0 0 0.00 0.00
# SQUEEZE RESULTS (Version = 91117)
# Note: Data are Listed for all Voids in the P1 Unit Cell
# i.e. Centre of Gravity, Solvent Accessible Volume,
# Recovered number of Electrons in the Void and
# Details about the Squeezed Material
;
_platon_squeeze_void_probe_radius 1.20
_olex2_submission_original_sample_id UiO-66_Tswing_100K3
_olex2_submission_special_instructions 'No special instructions were received'
loop_
_space_group_symop_operation_xyz
'x, y, z'
'-y, x, z'
'-x, -y, z'
'y, -x, z'
'x, -z, y'
'x, -y, -z'
'x, z, -y'
'z, y, -x'
'-x, y, -z'
'-z, y, x'
'z, x, y'
'y, z, x'
'-y, -z, x'
'z, -x, -y'
'-y, z, -x'
'-z, -x, y'
'-z, x, -y'
'y, -z, -x'
'y, x, -z'
'-y, -x, -z'
'-x, z, y'
'-x, -z, -y'
'z, -y, x'
'-z, -y, -x'
'x, y+1/2, z+1/2'
'-y, x+1/2, z+1/2'
'-x, -y+1/2, z+1/2'
'y, -x+1/2, z+1/2'
'x, -z+1/2, y+1/2'
'x, -y+1/2, -z+1/2'
'x, z+1/2, -y+1/2'
'z, y+1/2, -x+1/2'
'-x, y+1/2, -z+1/2'
'-z, y+1/2, x+1/2'
'z, x+1/2, y+1/2'
'y, z+1/2, x+1/2'
'-y, -z+1/2, x+1/2'
'z, -x+1/2, -y+1/2'
'-y, z+1/2, -x+1/2'
'-z, -x+1/2, y+1/2'
'-z, x+1/2, -y+1/2'
'y, -z+1/2, -x+1/2'
'y, x+1/2, -z+1/2'
'-y, -x+1/2, -z+1/2'
'-x, z+1/2, y+1/2'
'-x, -z+1/2, -y+1/2'
'z, -y+1/2, x+1/2'
'-z, -y+1/2, -x+1/2'
'x+1/2, y, z+1/2'
'-y+1/2, x, z+1/2'
'-x+1/2, -y, z+1/2'
'y+1/2, -x, z+1/2'
'x+1/2, -z, y+1/2'
'x+1/2, -y, -z+1/2'
'x+1/2, z, -y+1/2'
'z+1/2, y, -x+1/2'
'-x+1/2, y, -z+1/2'
'-z+1/2, y, x+1/2'
'z+1/2, x, y+1/2'
'y+1/2, z, x+1/2'
'-y+1/2, -z, x+1/2'
'z+1/2, -x, -y+1/2'
'-y+1/2, z, -x+1/2'
'-z+1/2, -x, y+1/2'
'-z+1/2, x, -y+1/2'
'y+1/2, -z, -x+1/2'
'y+1/2, x, -z+1/2'
'-y+1/2, -x, -z+1/2'
'-x+1/2, z, y+1/2'
'-x+1/2, -z, -y+1/2'
'z+1/2, -y, x+1/2'
'-z+1/2, -y, -x+1/2'
'x+1/2, y+1/2, z'
'-y+1/2, x+1/2, z'
'-x+1/2, -y+1/2, z'
'y+1/2, -x+1/2, z'
'x+1/2, -z+1/2, y'
'x+1/2, -y+1/2, -z'
'x+1/2, z+1/2, -y'
'z+1/2, y+1/2, -x'
'-x+1/2, y+1/2, -z'
'-z+1/2, y+1/2, x'
'z+1/2, x+1/2, y'
'y+1/2, z+1/2, x'
'-y+1/2, -z+1/2, x'
'z+1/2, -x+1/2, -y'
'-y+1/2, z+1/2, -x'
'-z+1/2, -x+1/2, y'
'-z+1/2, x+1/2, -y'
'y+1/2, -z+1/2, -x'
'y+1/2, x+1/2, -z'
'-y+1/2, -x+1/2, -z'
'-x+1/2, z+1/2, y'
'-x+1/2, -z+1/2, -y'
'z+1/2, -y+1/2, x'
'-z+1/2, -y+1/2, -x'
'-x, -y, -z'
'y, -x, -z'
'x, y, -z'
'-y, x, -z'
'-x, z, -y'
'-x, y, z'
'-x, -z, y'
'-z, -y, x'
'x, -y, z'
'z, -y, -x'
'-z, -x, -y'
'-y, -z, -x'
'y, z, -x'
'-z, x, y'
'y, -z, x'
'z, x, -y'
'z, -x, y'
'-y, z, x'
'-y, -x, z'
'y, x, z'
'x, -z, -y'
'x, z, y'
'-z, y, -x'
'z, y, x'
'-x, -y+1/2, -z+1/2'
'y, -x+1/2, -z+1/2'
'x, y+1/2, -z+1/2'
'-y, x+1/2, -z+1/2'
'-x, z+1/2, -y+1/2'
'-x, y+1/2, z+1/2'
'-x, -z+1/2, y+1/2'
'-z, -y+1/2, x+1/2'
'x, -y+1/2, z+1/2'
'z, -y+1/2, -x+1/2'
'-z, -x+1/2, -y+1/2'
'-y, -z+1/2, -x+1/2'
'y, z+1/2, -x+1/2'
'-z, x+1/2, y+1/2'
'y, -z+1/2, x+1/2'
'z, x+1/2, -y+1/2'
'z, -x+1/2, y+1/2'
'-y, z+1/2, x+1/2'
'-y, -x+1/2, z+1/2'
'y, x+1/2, z+1/2'
'x, -z+1/2, -y+1/2'
'x, z+1/2, y+1/2'
'-z, y+1/2, -x+1/2'
'z, y+1/2, x+1/2'
'-x+1/2, -y, -z+1/2'
'y+1/2, -x, -z+1/2'
'x+1/2, y, -z+1/2'
'-y+1/2, x, -z+1/2'
'-x+1/2, z, -y+1/2'
'-x+1/2, y, z+1/2'
'-x+1/2, -z, y+1/2'
'-z+1/2, -y, x+1/2'
'x+1/2, -y, z+1/2'
'z+1/2, -y, -x+1/2'
'-z+1/2, -x, -y+1/2'
'-y+1/2, -z, -x+1/2'
'y+1/2, z, -x+1/2'
'-z+1/2, x, y+1/2'
'y+1/2, -z, x+1/2'
'z+1/2, x, -y+1/2'
'z+1/2, -x, y+1/2'
'-y+1/2, z, x+1/2'
'-y+1/2, -x, z+1/2'
'y+1/2, x, z+1/2'
'x+1/2, -z, -y+1/2'
'x+1/2, z, y+1/2'
'-z+1/2, y, -x+1/2'
'z+1/2, y, x+1/2'
'-x+1/2, -y+1/2, -z'
'y+1/2, -x+1/2, -z'
'x+1/2, y+1/2, -z'
'-y+1/2, x+1/2, -z'
'-x+1/2, z+1/2, -y'
'-x+1/2, y+1/2, z'
'-x+1/2, -z+1/2, y'
'-z+1/2, -y+1/2, x'
'x+1/2, -y+1/2, z'
'z+1/2, -y+1/2, -x'
'-z+1/2, -x+1/2, -y'
'-y+1/2, -z+1/2, -x'
'y+1/2, z+1/2, -x'
'-z+1/2, x+1/2, y'
'y+1/2, -z+1/2, x'
'z+1/2, x+1/2, -y'
'z+1/2, -x+1/2, y'
'-y+1/2, z+1/2, x'
'-y+1/2, -x+1/2, z'
'y+1/2, x+1/2, z'
'x+1/2, -z+1/2, -y'
'x+1/2, z+1/2, y'
'-z+1/2, y+1/2, -x'
'z+1/2, y+1/2, x'
loop_
_atom_site_label
_atom_site_type_symbol
_atom_site_fract_x
_atom_site_fract_y
_atom_site_fract_z
_atom_site_U_iso_or_equiv
_atom_site_adp_type
_atom_site_occupancy
_atom_site_site_symmetry_order
_atom_site_calc_flag
_atom_site_refinement_flags_posn
_atom_site_refinement_flags_adp
_atom_site_refinement_flags_occupancy
_atom_site_disorder_assembly
_atom_site_disorder_group
Zr1 Zr 0.11941(2) 0.000000 0.000000 0.01153(16) Uani 1 8 d S T P . .
O3 O 0.17078(7) -0.09351(6) 0.000000 0.0162(3) Uani 0.89 2 d S T P A 1
O2 O 0.06569(18) 0.06569(18) 0.06569(18) 0.0182(12) Uani 0.5 6 d DS T P . 2
C1 C 0.15154(9) -0.15154(9) 0.000000 0.0154(5) Uani 0.89 4 d S T P A 1
C2 C 0.20271(10) -0.20271(10) 0.000000 0.0205(6) Uani 0.89 4 d S T P A 1
C3 C 0.26712(11) -0.18543(11) 0.000000 0.0336(6) Uani 0.89 2 d S T P A 1
H3 H 0.278982 -0.141127 0.000000 0.040 Uiso 0.89 2 calc RS T P A 1
O1 O 0.04971(17) 0.04971(17) 0.04971(17) 0.0219(14) Uani 0.5 6 d S T P . 1
H2 H 0.0884(6) 0.0884(6) 0.0884(6) 0.030 Uiso 0.5 6 d DS T P B 2
loop_
_atom_site_aniso_label
_atom_site_aniso_U_11
_atom_site_aniso_U_22
_atom_site_aniso_U_33
_atom_site_aniso_U_23
_atom_site_aniso_U_13
_atom_site_aniso_U_12
Zr1 0.0157(2) 0.00944(17) 0.00944(17) 0.000 0.000 0.000
O3 0.0139(7) 0.0110(7) 0.0237(7) 0.000 0.000 0.0044(5)
O2 0.0182(12) 0.0182(12) 0.0182(12) 0.0018(14) 0.0018(14) 0.0018(14)
C1 0.0124(8) 0.0124(8) 0.0214(14) 0.000 0.000 0.0030(10)
C2 0.0152(8) 0.0152(8) 0.0312(16) 0.000 0.000 0.0061(10)
C3 0.0186(11) 0.0124(10) 0.0697(18) 0.000 0.000 0.0026(9)
O1 0.0219(14) 0.0219(14) 0.0219(14) -0.0066(13) -0.0066(13) -0.0066(13)
loop_
_atom_type_symbol
_atom_type_description
_atom_type_scat_dispersion_real
_atom_type_scat_dispersion_imag
_atom_type_scat_source
C C 0.0040 0.0020 'International Tables Vol C Tables 4.2.6.8 and 6.1.1.4'
H H 0.0000 0.0000 'International Tables Vol C Tables 4.2.6.8 and 6.1.1.4'
O O 0.0120 0.0060 'International Tables Vol C Tables 4.2.6.8 and 6.1.1.4'
Zr Zr -2.4410 0.6100 'International Tables Vol C Tables 4.2.6.8 and 6.1.1.4'
loop_
_geom_angle_atom_site_label_1
_geom_angle_atom_site_label_2
_geom_angle_atom_site_label_3
_geom_angle
_geom_angle_site_symmetry_1
_geom_angle_site_symmetry_3
O3 Zr1 O3 76.59(3) . 7
O3 Zr1 O3 122.43(7) 7 5
O3 Zr1 O3 76.59(3) . 5
O3 Zr1 O3 122.43(7) . 6
O3 Zr1 O3 76.59(3) 7 6
O3 Zr1 O3 76.59(3) 6 5
O3 Zr1 O2 141.03(3) 5 4
O3 Zr1 O2 72.81(12) 7 4
O3 Zr1 O2 72.81(12) . 4
O3 Zr1 O2 141.03(3) 7 99
O3 Zr1 O2 141.03(3) 6 4
O3 Zr1 O2 72.81(12) 5 99
O3 Zr1 O2 141.04(3) . 99
O3 Zr1 O2 72.81(12) . 98
O3 Zr1 O2 72.81(12) 6 99
O3 Zr1 O2 141.03(3) 7 98
O3 Zr1 O2 141.03(3) 6 98
O3 Zr1 O2 72.81(12) 5 98
O2 Zr1 O2 75.49(14) 98 99
O2 Zr1 O2 75.49(14) 99 .
O2 Zr1 O2 75.49(14) 4 .
O2 Zr1 O2 119.9(3) 4 99
O2 Zr1 O2 119.9(3) 98 .
O2 Zr1 O2 75.49(14) 98 4
O1 Zr1 O3 84.19(13) 99 5
O1 Zr1 O3 141.18(3) 4 6
O1 Zr1 O3 141.18(3) 98 6
O1 Zr1 O3 141.18(3) . .
O1 Zr1 O3 141.18(3) 99 7
O1 Zr1 O3 84.19(13) 98 .
O1 Zr1 O3 141.18(3) . 5
O1 Zr1 O3 84.19(13) 4 .
O1 Zr1 O3 141.18(3) 4 5
O1 Zr1 O3 141.18(3) 99 .
O1 Zr1 O3 84.19(13) . 6
O1 Zr1 O3 84.19(13) 98 5
O1 Zr1 O3 84.19(13) 99 6
O1 Zr1 O3 141.18(3) 98 7
O1 Zr1 O3 84.19(13) 4 7
O1 Zr1 O3 84.19(13) . 7
O1 Zr1 O2 69.37(15) . 4
O1 Zr1 O2 105.2(3) . 98
O1 Zr1 O2 105.2(3) 99 4
O1 Zr1 O2 69.37(15) . 99
O1 Zr1 O2 69.37(15) 4 98
O1 Zr1 O2 69.37(15) 98 99
O1 Zr1 O2 69.37(15) 99 98
O1 Zr1 O2 69.37(15) 98 4
O1 Zr1 O2 14.71(14) 98 98
O1 Zr1 O2 14.71(14) 99 99
O1 Zr1 O2 14.71(14) 4 4
O1 Zr1 O2 105.2(3) 4 99
O1 Zr1 O1 60.29(19) 98 99
O1 Zr1 O1 60.29(19) . 99
O1 Zr1 O1 90.5(3) 4 99
O1 Zr1 O1 60.29(19) . 4
O1 Zr1 O1 60.29(19) 98 4
O1 Zr1 O1 90.5(3) . 98
C1 O3 Zr1 132.87(14) . .
Zr1 O2 Zr1 103.77(18) 104 2
Zr1 O2 Zr1 103.77(18) 104 .
Zr1 O2 Zr1 103.77(18) 2 .
O3 C1 O3 126.7(2) 115 .
O3 C1 C2 116.66(12) . .
O3 C1 C2 116.66(12) 115 .
C3 C2 C1 119.98(14) . .
C3 C2 C1 119.98(14) 115 .
C3 C2 C3 120.0(3) 115 .
C2 C3 C3 119.98(14) . 91_545
Zr1 O1 Zr1 117.06(9) 104 .
Zr1 O1 Zr1 117.06(9) 2 .
Zr1 O1 Zr1 117.06(9) 2 104
loop_
_geom_bond_atom_site_label_1
_geom_bond_atom_site_label_2
_geom_bond_distance
_geom_bond_site_symmetry_2
Zr1 O3 2.2099(13) .
Zr1 O3 2.2099(13) 6
Zr1 O3 2.2099(13) 7
Zr1 O3 2.2099(13) 5
Zr1 O2 2.223(3) 4
Zr1 O2 2.223(3) .
Zr1 O2 2.223(3) 99
Zr1 O2 2.223(3) 98
Zr1 O1 2.0504(11) .
Zr1 O1 2.0504(11) 4
Zr1 O1 2.0504(11) 99
Zr1 O1 2.0504(11) 98
O3 C1 1.2664(18) .
C1 C2 1.499(4) .
C2 C3 1.381(3) .
C2 C3 1.381(3) 115
C3 C3 1.390(4) 91_545
loop_
_platon_squeeze_void_nr
_platon_squeeze_void_average_x
_platon_squeeze_void_average_y
_platon_squeeze_void_average_z
_platon_squeeze_void_volume
_platon_squeeze_void_count_electrons
_platon_squeeze_void_content
1 -0.010 -0.007 0.423 4607 212 ' '
loop_
_refln_index_h
_refln_index_k
_refln_index_l
_refln_F_squared_meas
_refln_F_squared_sigma
-2 0 2 27.79 1.81
0 2 -2 23.33 1.73
2 -2 0 25.27 1.7
2 0 -2 23.85 1.78
2 0 2 23.77 1.71
-2 0 -2 22.67 1.71
-2 -2 0 25.87 1.72
2 2 -2 257.46 18.57
-2 -2 2 224 18.03
-1 1 3 23.26 2.02
-1 3 1 29.21 1.96
1 -3 1 29.66 1.93
1 -1 -3 25.47 2.02
1 -1 3 30.5 2.01
1 1 -3 28.14 2.05
1 3 1 30.15 1.95
3 -1 -1 28.5 2.03
3 -1 1 29.02 1.98
3 1 -1 26.58 2.02
-1 -3 1 30.63 1.98
-1 -1 3 29.7 2.07
-3 -1 -1 27.21 1.99
-3 -1 1 26.72 2.02
-3 1 1 30.03 2.02
-1 3 -3 87.05 6.18
-1 3 3 83.37 6.21
1 3 -3 89.52 6.25
3 -1 -3 101.98 6.33
3 1 -3 94.83 6.31
-3 -3 3 84.37 5.45
-3 3 3 72.08 5.4
3 3 -3 78.19 5.46
-4 0 0 581.97 40.25
-4 0 2 115.14 7.82
2 0 -4 103.9 7.84
0 2 4 113.96 7.81
-2 0 4 125.06 7.89
2 -2 -4 21.29 1.49
4 2 2 15.87 1.37
4 2 2 17.49 1.35
2 -4 2 18.74 1.32
4 -2 2 18.14 1.34
2 2 -4 19.02 1.52
2 2 4 18.11 1.38
2 4 -2 19.57 1.44
2 4 2 18.38 1.33
4 -2 -2 19.28 1.47
-4 -2 2 20.86 1.46
-2 -4 -2 18.71 1.33
-2 -4 2 18.89 1.4
-2 -2 -4 17.01 1.36
-2 -2 4 20.47 1.52
-2 2 -4 17.7 1.36
-2 2 4 17.15 1.49
-2 4 -2 19.05 1.3
-2 4 2 19.91 1.39
2 -4 -2 18.49 1.37
0 4 -4 131.01 8.93
4 0 -4 131.75 9.06
4 2 -4 226.17 15.4
-4 -4 4 314.22 25.73
4 -4 4 332.55 23.14
-5 -1 1 81.46 5.41
-5 1 -1 74.39 5.35
-5 1 1 84.01 5.41
-1 -1 -5 66.91 5.36
5 -1 -1 76.67 5.41
5 1 -1 80.09 5.43
-1 -1 5 88.44 5.49
-1 1 -5 77.87 5.39
-1 1 5 87.9 5.49
1 1 -5 66.13 5.41
-1 5 -3 77.36 5.05
-5 1 3 77.6 5.21
-1 -3 -5 67.1 5.09
-1 3 5 74.98 5.17
3 1 5 67.16 5.11
1 -3 5 74.29 5.14
1 3 -5 70.68 5.16
3 -1 -5 70.14 5.23
-1 -5 3 73.53 5.13
3 5 -1 67.91 5.1
-3 -1 5 79.74 5.27
5 1 -3 74.55 5.23
-5 -3 1 73.55 5.13
-3 1 -5 79.11 5.11
5 1 3 62.87 5.08
-5 3 1 80.79 5.12
5 -1 -3 67.93 5.21
-5 -3 -1 70.46 5.1
-3 1 5 73.82 5.24
3 -5 -1 80.02 5.07
-1 5 3 71.54 5.09
1 -5 3 75.54 5.08
1 5 -3 71.64 5.12
1 3 5 85.89 5.16
3 -1 5 77.12 5.12
3 1 -5 82.57 5.27
1 -3 -5 73.17 5.14
5 3 -1 70.58 5.16
-1 3 -5 69.62 5.11
-5 -1 3 79.99 5.23
-3 -5 1 72.16 5.08
-1 -3 5 80.31 5.23
5 3 3 79.73 6.55
3 -3 5 105.12 6.6
3 3 -5 99.78 6.74
3 5 -3 97.71 6.67
-3 5 3 88.41 6.58
3 -3 -5 86.4 6.65
-3 3 -5 96.37 6.56
-3 -3 5 93.91 6.71
-3 -5 3 102.28 6.64
5 -3 -3 108.37 6.71
5 3 -3 96.42 6.7
-5 -3 3 99.38 6.67
1 5 -5 108.14 8.06
-5 1 5 124.77 8.22
-5 -5 1 120.47 8.05
5 5 -1 116.82 8.08
5 -1 -5 109.55 8.17
5 1 -5 126.05 8.23
-3 -5 5 375.91 26.91
3 -5 5 268.59 23.87
5 5 -3 259.73 25.45
-5 -5 3 384.11 26.78
-5 -3 5 346.07 27.06
-5 5 -3 323.57 23.13
5 5 3 351.32 25.64
5 -5 5 935.64 66.08
-5 -5 5 1000 70.09
-6 0 -2 1.66 0.3
2 6 0 2 0.3
6 0 -2 1.85 0.38
6 0 2 1.63 0.32
0 6 -2 2.82 0.31
0 6 2 2.17 0.26
2 0 -6 2.01 0.41
6 2 0 1.58 0.37
0 -6 2 1.79 0.27
-6 0 2 1.73 0.34
0 -2 6 1.98 0.43
0 2 -6 2.54 0.41
-2 0 6 1.83 0.42
2 -6 2 14.98 1.15
6 2 -2 15.4 1.38
2 -2 -6 19.17 1.4
-2 -2 -6 17.95 1.28
-2 -2 6 15.42 1.43
-2 2 -6 15.71 1.26
-2 6 -2 16.36 1.12
-2 6 2 15.25 1.2
2 -6 -2 15 1.16
-6 -2 -2 18.36 1.26
2 2 -6 16.26 1.39
2 6 -2 16.39 1.28
2 6 2 17.03 1.19
6 -2 -2 14.83 1.33
6 -2 2 16.88 1.24
-6 2 2 14.7 1.28
6 2 2 14.37 1.25
0 -4 -6 16.92 1.23
4 0 -6 13 1.32
-4 0 -6 15.85 1.19
4 -6 0 14.24 1.12
-6 4 0 14.85 1.15
6 4 0 14.67 1.25
0 -4 6 14.14 1.26
0 4 6 14.93 1.25
-6 -4 0 14.09 1.18
-6 0 4 18.08 1.36
-4 0 6 15.02 1.36
4 6 -2 86.71 6.04
-2 4 6 103.44 6.14
-4 6 2 83.45 5.93
4 2 6 93.1 6.03
-2 -6 4 84.06 6.05
-6 -4 2 83.88 6.04
-6 2 4 96.44 6.12
6 2 -4 80.58 6.14
2 4 -6 88.73 6.1
2 -4 6 85.6 6.03
4 -2 -6 88.67 6.14
-4 2 -6 85.49 5.97
-2 6 -4 80.54 5.9
-4 -2 6 91.36 6.17
6 -4 -2 85.64 6.04
4 -2 6 91.76 6.01
-2 6 4 80.23 5.99
6 -4 2 87 5.95
6 2 4 89.18 5.99
4 2 -6 79.16 6.14
-2 -4 6 91.73 6.14
2 6 -4 86.33 6.05
2 -4 -6 96.65 6.07
6 -2 -4 79.84 6.1
2 4 6 85.25 6.01
-6 4 2 80.66 5.99
-4 -2 -6 72.13 5.95
-6 -2 4 88.36 6.12
2 -6 4 86.23 5.95
-4 -6 2 94.92 6.12
6 4 -2 83.52 6.08
6 -4 2 90.76 5.92
6 -4 -4 234.74 16
0 -6 -6 25.18 2.07
6 -6 0 28.2 2.09
0 6 -6 28.99 2.15
0 6 6 31.95 2.18
6 0 -6 30.44 2.35
-6 -6 0 27.11 2.09
-6 6 0 29.3 2.04
6 -6 2 30.56 2.18
6 2 -6 26.41 2.44
-2 -6 -6 32.75 2.26
-2 6 -6 30.63 2.25
2 -6 -6 31.18 2.29
2 -6 6 32.51 2.33
2 6 -6 30.66 2.37
6 -6 2 30.67 2.22
-6 6 2 30.16 2.26
-6 2 -6 32.01 2.26
-6 -6 2 31.42 2.32
-6 -4 6 386.21 30.05
-6 -6 4 320.8 28.65
-6 6 -4 374.01 25.75
-4 -6 6 386.1 29.89
4 -6 6 387.37 26.89
6 6 4 320.02 27.76
6 6 -4 305.09 29.16
6 -4 6 364.81 25.54
6 -6 6 493.05 35.41
-6 -6 6 509.92 39.87
1 7 1 433.46 29.41
-7 -1 -1 386.61 27.4
-7 1 -1 382.22 26.5
-7 -1 1 378.21 28.02
7 1 1 333 27.15
1 7 -1 375.83 29.09
-1 -7 1 338.06 28.4
1 -7 -3 0.16 0.1
3 -7 1 0.16 0.07
3 -7 1 0.1 0.07
7 1 -3 -0.05 0.28
3 7 -1 -0.03 0.15
1 3 -7 0.27 0.3
1 -3 7 0.44 0.27
7 -1 3 0.02 0.11
-7 1 3 0.27 0.2
3 -1 -7 -0.03 0.22
-3 7 1 0.16 0.07
-1 -3 -7 0.4 0.26
3 1 7 0.44 0.22
7 -3 -1 -0.04 0.18
-1 3 7 -0.38 0.24
1 7 3 0.07 0.14
7 3 1 0.25 0.23
-3 -1 7 0.18 0.34
-3 1 -7 0.09 0.19
-1 -7 3 -0.01 0.17
-1 7 -3 0.14 0.11
-7 -3 1 0.19 0.17
7 -1 3 0.25 0.13
7 1 3 0.06 0.16
7 3 -1 0.26 0.26
-7 -1 3 0.27 0.2
-3 1 7 -0.06 0.35
-1 -7 -3 0.16 0.1
3 -7 -1 0.25 0.1
7 1 3 0.24 0.15
-1 7 3 0.24 0.17
3 7 1 0.24 0.14
1 -7 3 0.21 0.15
1 7 -3 0.3 0.2
1 -3 -7 0.26 0.21
-3 -7 1 0.17 0.15
3 -1 7 0.27 0.26
3 1 -7 0.1 0.22
-1 -3 7 -0.04 0.3
-1 3 -7 0.48 0.27
7 -3 1 0.24 0.16
7 -1 -3 0.29 0.31
-7 -3 -1 0.08 0.17
-7 3 1 1.15 0.32
-3 -1 -7 0.27 0.17
1 3 7 0.02 0.17
3 -7 3 19.73 1.42
3 -7 -3 21.63 1.45
7 -3 3 20.83 1.51
7 -3 3 17.35 1.44
3 3 -7 17.49 1.61
3 -3 -7 21.1 1.64
-3 7 -3 20.25 1.37
-3 7 3 16.87 1.46
3 -3 7 20.19 1.55
-3 3 7 21.56 1.71
-3 -3 -7 16.84 1.47
-3 -3 7 18.92 1.71
-3 3 -7 18.42 1.49
-7 3 3 17.44 1.56
3 3 7 16.95 1.53
3 7 3 22.68 1.47
3 7 3 20.56 1.45
7 -3 -3 18.4 1.59
-3 -7 3 20.47 1.52
5 -7 1 11.88 0.93
5 -7 1 12.64 0.89
5 7 -1 11.09 1.05
-1 -5 -7 12.1 1.01
-5 1 -7 11.72 1.02
7 1 -5 10.48 1.21
-1 5 7 12.08 1.11
1 -7 -5 12.29 0.97
1 -5 7 12.69 1.12
5 -1 -7 12.39 1.21
1 7 5 10.85 0.99
-7 5 -1 11 0.95
-5 7 1 12.8 0.93
1 7 -5 11.53 1.05
-7 5 1 13.57 1.02
-5 -1 -7 11.81 1.01
7 -1 -5 14 1.23
5 -7 -1 12.93 1
-1 7 5 10.08 1.03
5 1 -7 11.89 1.21
7 -5 1 12.99 1.02
-5 -7 1 11.91 1
5 7 1 11.38 1.02
-1 5 -7 11.94 1.05
3 5 -7 60.2 4.59
3 7 5 60.76 4.26
5 -3 -7 69.3 4.49
5 -7 3 62.52 4.19
5 7 -3 61.42 4.39
7 -5 -3 67.45 4.43
7 -3 5 68 4.38
7 3 -5 62.06 4.51
-3 -7 5 63.82 4.39
-3 7 -5 62.06 4.2
-5 7 3 56.01 4.25
5 -7 3 60.81 4.18
3 -5 7 66.08 4.36
3 -7 -5 63.95 4.29
5 3 7 54.32 4.29
-3 -5 -7 51.58 4.24
7 5 3 64.13 4.3
-5 3 -7 60.06 4.27
7 -5 3 63.62 4.25
7 -3 -5 53.77 4.42
7 3 5 55.79 4.27
-3 7 5 53.94 4.31
7 -5 3 66.84 4.23
3 -7 5 58.87 4.26
-5 -3 -7 66.96 4.3
-7 -3 5 56.42 4.45
-5 -7 3 61.27 4.33
5 -7 -3 61.47 4.31
5 7 3 58.39 4.23
5 7 3 62.75 4.27
3 7 -5 59.22 4.39
-7 5 3 59.73 4.32
3 -5 -7 61.62 4.36
7 5 -3 58.8 4.42
-3 -7 -5 62.14 4.23
-3 5 -7 56.46 4.26
5 7 -5 242.65 24.16
5 -7 5 269.32 20.51
5 -5 7 273.52 20.94
7 5 5 324.37 22.91
-5 -7 5 312.09 24.52
-5 -5 7 229.1 23.37
-7 -5 5 258.8 23.53
7 7 1 425.47 32.26
-7 -7 1 478.45 34.98
-1 -7 7 364.77 31.76
1 -7 7 372.98 31.26
7 7 -1 386.52 32.27
-7 -3 -7 30.38 2.1
-7 3 -7 26.77 2.06
-7 3 7 21.89 2.22
-7 7 3 26.51 2.08
-3 -7 -7 25.03 2.04
-3 7 -7 28.47 2.06
3 -7 -7 24.58 2.12
7 -7 -3 28.41 2.18
7 -7 3 28.93 2.03
7 -7 3 27.52 2.01
7 -3 -7 24.05 2.25
7 3 -7 28.61 2.37
7 3 7 32.94 2.16
7 7 3 30.2 2.12
7 7 3 30.66 2.08
3 7 -7 28.65 2.25
-7 -5 7 5.77 0.79
-7 7 5 5.15 0.64
-5 -7 -7 4.53 0.5
-7 -7 5 3.82 0.64
-5 7 -7 4.88 0.5
5 -7 -7 5.75 0.69
5 7 -7 5.36 0.8
5 7 7 3.56 0.54
7 -7 5 4.98 0.49
7 -5 -7 3.38 0.69
7 -5 7 4.94 0.57
7 5 -7 4.74 0.75
7 5 7 4.51 0.55
-5 -7 7 5.09 0.72
7 7 -5 5.26 0.78
7 7 5 4.85 0.57
7 7 5 3.76 0.5
-7 -7 7 149.12 11.38
-7 7 7 188.63 11.45
7 7 -7 156.19 11.48
7 -7 -7 162.58 11.37
0 8 0 763.91 55.14
-8 2 0 32.3 2.51
8 2 0 34.74 2.6
0 8 2 36.62 2.41
2 0 -8 38.09 2.67
8 -2 0 34.29 2.59
2 8 0 31.69 2.45
8 0 2 34.63 2.56
0 8 -2 33.98 2.42
0 -8 2 35.01 2.41
-2 0 -8 33.19 2.55
-2 -8 0 35.04 2.42
0 2 -8 37.33 2.63
8 2 2 108.75 7.11
2 8 2 100.42 6.94
2 8 2 94.01 6.95
8 -2 -2 111.36 7.19
8 -2 2 105.03 7.07
-2 2 -8 100.27 7.08
2 8 -2 100.07 7.04
-8 2 2 114.5 7.14
2 -8 2 95.24 6.89
2 -2 -8 89.46 7.12
2 2 -8 105.69 7.21
8 2 -2 107.09 7.18
0 -4 -8 0.11 0.22
0 4 -8 -0.09 0.15
-4 0 -8 -0.07 0.2
-8 4 0 0.11 0.14
4 -8 0 0.05 0.05
4 8 0 -0.07 0.14
-4 -8 0 0.16 0.13
4 0 -8 -0.08 0.32
8 -4 0 0.26 0.2
8 4 0 0.07 0.15
0 -8 -4 0 0.1
0 -8 4 0.27 0.19
0 8 -4 -0.03 0.14
4 -8 0 0.05 0.1
8 0 -4 0.33 0.29
8 0 4 0.1 0.14
0 8 4 0.16 0.17
8 2 -4 -0.37 0.31
8 -2 4 0.02 0.11
-4 -2 8 0.38 0.41
4 -8 2 0.03 0.07
4 -8 2 0.08 0.09
8 4 2 0.12 0.24
2 -8 -4 0.19 0.13
-2 -4 -8 0 0.19
2 4 -8 -0.24 0.17
-4 8 2 0.04 0.11
8 -4 -2 0.32 0.24
4 8 -2 0.08 0.2
4 2 8 0.51 0.28
-4 2 -8 0.21 0.14
-2 -8 4 0.14 0.2
-2 8 -4 -0.05 0.09
2 8 4 -0.03 0.12
4 -2 -8 0.2 0.26
-2 4 -8 0.3 0.17
-2 8 4 0.2 0.19
4 8 2 0.11 0.13
4 2 -8 0.26 0.27
-4 -2 -8 -0.03 0.12
-8 -4 -2 0.19 0.23
8 -4 2 0 0.17
4 8 2 -0.03 0.11
8 -2 -4 0.23 0.32
8 2 4 0.14 0.14
8 2 4 0.05 0.13
-8 -2 4 -0.1 0.17
2 -4 -8 -0.11 0.22
2 -8 4 0.06 0.15
8 4 -2 0.12 0.27
-4 -8 2 0.04 0.16
2 8 -4 0.01 0.21
-8 4 2 0.04 0.14
4 -8 -2 0.19 0.13
-2 -8 -4 0.01 0.1
4 -8 4 65.07 4.28
-4 8 -4 64.46 4.22
8 4 4 63.58 4.34
4 8 4 65.83 4.31
8 -4 -4 64.83 4.54
8 -4 4 59.73 4.33
8 4 -4 60.09 4.53
-4 4 -8 63.36 4.35
-4 -8 4 61.8 4.39
-4 -4 -8 62.83 4.36
-4 -4 8 65.19 4.6
4 -4 -8 60.38 4.49
4 -8 -4 60.67 4.3
8 4 4 55.86 4.36
4 4 8 55.35 4.38
4 8 -4 56.59 4.44
4 4 -8 69.17 4.59
4 8 4 55.54 4.29
-6 -8 0 321.35 27.59
0 -6 8 358.54 28.4
6 8 0 303.42 27.66
8 6 0 361.3 28.17
0 -8 6 361.38 27.77
2 6 -8 211.71 13.67
6 8 -2 206.97 13.63
6 -2 -8 186.67 13.73
8 2 -6 215.95 13.8
-6 -2 8 206.67 13.79
8 -2 -6 223.27 13.8
2 8 -6 193.15 13.58
8 2 6 176.87 13.51
-8 -2 6 194.98 13.7
2 -6 -8 171.72 13.52
6 2 -8 206.44 13.8
2 -8 6 197.88 13.54
8 6 4 0.19 0.17
8 4 -6 -0.05 0.24
8 -6 -4 0.19 0.25
6 8 -4 0.32 0.34
8 6 4 0.28 0.2
-6 -4 8 0.12 0.25
6 4 8 0.2 0.18
8 -4 6 0.09 0.15
-8 -6 4 0.2 0.25
-6 4 -8 0.22 0.19
6 -8 4 0.02 0.1
6 -8 4 -0.06 0.1
4 6 -8 0.08 0.22
-4 8 -6 -0.02 0.11
-8 4 6 0.09 0.28
-6 8 4 0.01 0.17
4 -8 -6 -0.01 0.17
6 -4 -8 -0.02 0.26
8 4 6 -0.06 0.18
-6 -4 -8 0.23 0.18
8 4 6 0.05 0.15
-4 6 -8 -0.09 0.09
4 6 8 0.07 0.16
6 8 4 0 0.1
8 -4 -6 1.09 0.4
4 -8 6 0.1 0.16
4 8 -6 0.17 0.3
4 -6 -8 0.46 0.28
6 -4 8 -0.06 0.13
8 -6 4 0.18 0.15
-6 4 8 0 0.28
-4 -8 -6 0.09 0.13
8 6 -4 -0.07 0.2
-4 8 6 -0.23 0.18
-4 -6 8 -0.09 0.2
6 -8 -4 -0.08 0.21
6 4 -8 0.03 0.35
-8 6 4 0.16 0.22
-8 -4 6 -0.01 0.28
8 -6 6 18.2 1.36
8 6 -6 19.47 1.82
6 8 6 17.38 1.38
8 -6 -6 17.7 1.58
6 8 6 20.23 1.42
-6 8 6 15.68 1.48
6 -8 -6 18.82 1.5
6 -6 -8 14.84 1.5
6 6 -8 18.05 1.63
6 8 -6 14.8 1.54
-8 -6 6 16.24 1.53
-8 6 6 15.65 1.48
-6 -8 6 16.75 1.51
-6 -6 -8 13.37 1.33
-6 -6 8 18.2 1.77
-6 6 -8 17.96 1.36
-6 6 8 18.97 1.62
-6 8 -6 17.36 1.3
8 6 6 17.07 1.39
8 6 6 14.86 1.38
8 8 0 440.24 33.45
0 -8 8 387.59 32.73
-8 -8 0 384.09 32.07
8 -2 -8 303.99 21.51
8 2 -8 328.94 21.59
-8 -2 8 310.82 21.5
-4 -8 -8 23.85 1.81
-4 -8 8 24.81 2.04
-4 8 -8 26.24 1.81
-8 8 4 22.5 1.85
8 -4 -8 24.18 2.07
8 -4 8 23.2 1.85
8 4 -8 24 2.12
8 4 8 24.58 1.88
8 8 -4 23.18 2.03
8 8 4 22.68 1.84
8 8 4 20.26 1.78
4 8 8 28.89 1.95
8 -8 -4 22.94 1.94
8 -8 4 23.48 1.77
-8 -8 4 25.45 1.95
-8 -4 -8 19.96 1.79
-8 -4 8 26.89 2.11
-8 4 -8 21.5 1.79
4 -8 -8 22.88 1.89
4 8 -8 23.47 2.02
-8 6 -8 218.37 14.5
-6 -8 8 222.7 14.77
6 8 -8 227.1 14.84
8 -8 -6 190.84 14.66
8 8 -6 216.22 14.81
-8 -8 6 220.51 14.71
8 -6 -8 200.07 14.74
8 8 -8 219 15.48
8 -8 -8 229.91 15.36
-8 -8 8 228.92 15.38
-8 8 8 212.46 15.33
-1 -1 9 165.43 10.41
1 1 -9 152.83 10.32
1 -1 9 149.13 10.31
1 1 9 166.28 10.36
1 9 -1 141.15 10.1
9 -1 -1 146.75 10.29
9 1 -1 142.36 10.29
-1 -1 -9 135.89 10.23
9 1 1 146.23 10.25
9 3 1 0.79 0.29
-1 9 -3 0.62 0.14
1 -3 9 0.96 0.39
1 3 -9 0.79 0.3
3 1 9 0.78 0.28
9 -1 3 0.59 0.22
1 -9 -3 0.58 0.13
-1 -9 3 0.47 0.18
3 9 -1 0.5 0.23
-9 -3 1 0.61 0.28
-3 1 -9 0.75 0.26
-3 -1 9 0.35 0.4
9 -1 3 0.49 0.19
9 1 -3 1.19 0.41
3 -1 -9 0.79 0.37
-1 3 9 0.33 0.27
-1 -3 -9 0.51 0.3
1 9 3 0.55 0.17
-9 1 3 1.16 0.3
-1 9 3 0.79 0.19
-9 -1 3 0.74 0.26
9 3 -1 0.59 0.3
-3 -9 1 0.47 0.16
-1 -3 9 0.77 0.33
1 3 9 0.78 0.34
1 -3 -9 0.71 0.32
9 -3 1 0.76 0.22
1 9 -3 0.74 0.25
-1 3 -9 0.44 0.23
3 -1 9 0.48 0.29
3 1 -9 0.47 0.28
9 1 3 0.58 0.21
9 -1 -3 0.67 0.36
3 9 1 0.67 0.15
1 -9 3 0.98 0.18
-3 -1 -9 0.37 0.22
-3 1 9 0.87 0.35
-9 -3 -1 0.64 0.26
3 9 1 0.52 0.17
9 3 -3 0.52 0.31
3 9 3 0.23 0.15
-3 9 -3 0.33 0.09
9 3 3 0.16 0.16
3 -9 3 0.25 0.12
3 9 3 0.29 0.14
9 -3 3 0.45 0.17
-9 -3 3 0.92 0.28
3 -9 -3 0.45 0.14
3 -3 -9 0.31 0.23
-3 9 3 0.48 0.17
3 3 9 0.92 0.27
-3 -9 3 0.43 0.2
-3 -3 -9 0.38 0.21
-3 -3 9 0.18 0.25
-3 3 -9 0.71 0.29
-3 3 9 0.38 0.31
3 9 -3 0.35 0.21
3 -3 9 0.71 0.28
3 3 -9 0.56 0.29
-9 5 -1 63.48 4.64
1 9 5 69 4.65
9 -1 5 66.18 4.7
-1 5 9 76.53 4.88
-1 -9 5 67.61 4.73
1 -9 -5 62.09 4.57
-9 1 5 68.48 4.83
-1 9 -5 67.23 4.6
-5 9 1 68.96 4.52
-5 -1 9 69.7 4.96
-5 1 -9 61.14 4.67
9 1 -5 61.51 4.9
9 5 1 70.67 4.78
9 -1 5 71.06 4.68
-1 -5 -9 62.35 4.69
5 -9 1 66.18 4.5
5 1 9 57.8 4.72
1 5 -9 65.36 4.79
9 -5 -1 63.93 4.74
5 -9 1 67.55 4.55
5 9 -1 66.86 4.72
-9 -5 1 63.13 4.72
9 -1 -5 69.16 4.93
-9 -1 5 69 4.84
-1 -9 -5 60.9 4.57
-1 -5 9 67.1 4.88
1 9 -5 63 4.67
-1 9 5 62.22 4.66
-9 -5 -1 72.62 4.73
5 9 1 70.17 4.69
-9 5 1 65.36 4.68
-5 -1 -9 78.07 4.74
9 1 5 58.1 4.67
9 5 -1 70.92 4.84
-5 1 9 68.98 4.97
-1 5 -9 61.61 4.7
9 1 5 64.94 4.67
5 -1 9 67.2 4.76
5 1 -9 74.76 4.95
1 -9 5 66.54 4.69
5 -9 -1 61.77 4.57
9 -5 1 68.45 4.72
3 9 5 3.05 0.4
5 9 -3 2.37 0.49
-3 9 -5 2.71 0.31
-9 -5 3 2.95 0.55
5 -9 3 2.97 0.32
-5 3 -9 2.19 0.43
5 -3 -9 2.28 0.55
5 3 9 1.87 0.4
9 -5 -3 2.86 0.56
9 5 3 3.16 0.48
9 -3 5 2.84 0.39
-5 9 3 2.4 0.34
9 3 -5 2.79 0.61
5 -9 3 2.56 0.28
-9 3 5 1.99 0.46
-5 -3 9 2.68 0.61
-3 -5 -9 3.71 0.44
-3 5 9 2.43 0.59
9 5 3 2.92 0.38
3 -5 9 2.05 0.42
9 -3 5 3.03 0.39
-3 9 5 1.88 0.4
3 5 9 2.35 0.47
9 -5 3 1.48 0.32
-3 -9 -5 2.54 0.33
-5 3 9 2.19 0.53
3 -9 5 1.81 0.36
5 3 -9 2.73 0.59
-3 -5 9 2.7 0.57
-3 5 -9 2.29 0.38
-5 -3 -9 3.44 0.43
3 -5 -9 3.73 0.59
9 5 -3 1.87 0.45
5 9 3 3.03 0.39
3 9 -5 2.29 0.46
9 3 5 2.28 0.41
5 5 9 5.55 0.74
5 9 -5 7.71 0.89
5 9 5 7.28 0.69
-9 -5 5 7.58 0.82
-9 5 5 7.32 0.81
9 5 5 8.16 0.72
-5 -5 9 6.33 0.87
-5 5 -9 7.07 0.7
-5 5 9 7.72 0.98
-5 9 -5 6.27 0.58
-5 9 5 6.63 0.75
5 -9 -5 6.37 0.7
5 -9 5 6.61 0.65
5 -5 -9 5.46 0.84
5 -5 9 6.54 0.77
5 5 -9 6.3 0.87
9 5 5 8.81 0.78
9 5 -5 6.59 0.89
9 -5 -5 6.69 0.85
9 -5 5 6.35 0.68
9 -5 5 7.71 0.7
9 -7 -1 296.37 19.62
7 -1 -9 277.84 19.81
9 7 1 275.43 19.63
-1 -7 9 304.49 19.76
9 -1 -7 261.22 19.79
7 1 -9 271.42 19.8
-9 -1 7 310.28 19.8
9 -7 1 312.09 19.58
7 -9 3 58.57 4.1
9 7 3 51.42 4.13
9 3 -7 64.39 4.51
-3 7 9 62.13 4.41
7 3 9 69.03 4.29
9 -7 -3 63.88 4.35
-3 -7 -9 64.03 4.2
-7 9 3 55.48 4.13
3 9 7 66.87 4.38
7 -9 3 62.29 4.07
9 7 3 62.26 4.27
3 -9 -7 50.91 4.14
-3 9 -7 62.87 4.13
3 7 -9 60 4.35
7 -3 -9 49.89 4.35
9 -3 7 59.62 4.19
-9 -7 3 57.37 4.26
-9 3 7 62.99 4.41
-7 -3 9 63.63 4.5
-7 3 -9 55.61 4.17
7 9 -3 66.76 4.39
-9 -3 7 58.6 4.4
9 7 -3 57.43 4.36
9 3 7 61.16 4.22
7 -9 -3 58.16 4.21
-7 -3 -9 48.42 4.14
-3 -7 9 66.03 4.45
7 -3 9 63.86 4.4
-3 7 -9 56.07 4.17
-7 3 9 51.91 4.57
-3 -9 -7 50.04 4.1
-3 9 7 58.96 4.29
9 -7 3 57.94 4.17
7 9 3 51.08 4.11
7 9 3 54.93 4.19
3 -7 -9 51.68 4.21
7 3 -9 59.98 4.49
3 9 -7 61.6 4.32
3 7 9 66.59 4.31
9 3 7 55.62 4.19
5 -9 -7 17.84 1.52
-5 9 -7 16.49 1.39
9 7 5 16.24 1.45
-7 5 -9 17.81 1.47
-7 -5 9 22.27 1.82
9 -7 -5 17.74 1.66
-7 9 5 19.65 1.56
7 -9 5 19.62 1.42
-9 -7 5 19.69 1.64
-5 7 9 16.81 1.69
7 -5 -9 16.51 1.63
-9 5 7 19.23 1.69
5 9 7 18.38 1.5
-5 -7 -9 20.35 1.51
7 -9 5 20 1.44
7 9 -5 18.81 1.71
9 5 -7 14.98 1.71
7 5 9 18.16 1.56
9 7 5 15.71 1.49
9 -5 7 17.56 1.49
5 7 -9 15.7 1.64
-7 -9 5 19.77 1.59
5 9 -7 20.2 1.73
-7 5 9 19.08 1.73
9 5 7 19.51 1.54
-7 -5 -9 18.36 1.49
-5 7 -9 17.27 1.44
7 5 -9 19.17 1.77
9 5 7 21.66 1.55
5 7 9 23.08 1.64
7 -9 -5 20.61 1.59
-5 -7 9 18.93 1.73
-9 7 5 16.86 1.56
7 9 5 16.56 1.48
5 -7 -9 15.37 1.55
-9 -5 7 19.41 1.67
-5 -9 -7 18.31 1.44
-5 9 7 20.42 1.66
9 -7 5 18.83 1.48
9 7 -5 21.44 1.83
7 9 5 16.25 1.45
7 -5 9 17.15 1.54
9 -5 -7 16.29 1.69
-7 -7 -9 135.49 9.92
-7 -9 7 136.57 10.08
-9 7 7 139.89 10.1
-9 -7 7 139.8 10.12
-7 9 -7 142.94 9.85
-7 9 7 166.18 10.36
7 -9 -7 145.9 10.06
7 -7 -9 144.43 10.13
7 -7 9 147.85 10.14
7 7 -9 140.47 10.25
7 7 9 134.11 9.99
7 9 -7 156.38 10.29
7 9 7 122.27 9.92
9 -7 -7 142.71 10.18
9 -7 7 148.98 9.94
9 7 -7 160.86 10.33
9 7 7 156.67 10.02
9 7 7 155.21 10
-7 -7 9 138.67 10.18
-7 7 -9 137.95 9.9
-7 7 9 155.03 10.24
9 -1 -9 258.42 19.02
-1 9 -9 283.72 18.78
-1 9 9 310.39 18.92
-9 1 9 259.89 18.98
-9 -1 9 274.14 19.02
9 9 -1 273.88 18.88
9 1 -9 273.53 19.07
9 -9 3 91.09 6.31
9 -9 3 91.5 6.25
9 -3 -9 105.23 7.03
9 -3 9 86.08 6.38
9 3 -9 95.79 6.7
9 3 9 75.55 6.35
9 9 -3 99.23 6.6
9 9 3 96.69 6.43
9 9 3 95.27 6.32
3 -9 -9 93.64 6.39
3 9 -9 89.68 6.49
3 9 9 91.1 6.41
-3 9 9 93.27 6.54
-3 9 -9 89.82 6.31
-9 9 3 88.1 6.31
9 -9 -3 86.47 6.43
-9 -9 3 93.06 6.42
-9 -3 -9 89.11 6.33
-9 -3 9 95.27 6.65
-9 3 -9 84.07 6.31
-9 3 9 90.77 6.61
-3 -9 -9 85.01 6.3
-5 -9 -9 87.74 6.74
9 9 5 85.45 6.75
9 9 5 109.9 6.87
9 5 -9 96.94 7.13
9 5 9 113.04 6.91
9 9 -5 92.27 7.06
-5 9 -9 99.61 6.75
-5 9 9 108.22 7.07
5 -9 -9 96.58 6.88
5 9 -9 100.64 7.04
5 9 9 106.32 6.9
9 -9 -5 93.25 6.92
9 -9 5 99.72 6.74
9 -9 5 99.77 6.73
9 -5 -9 95.33 7.08
9 -5 9 91.58 6.82
-9 -9 5 95.17 6.91
-9 -5 -9 92.25 6.77
-9 -5 9 101.46 7.07
-9 5 -9 94.73 6.75
-9 5 9 91.12 7.02
-5 -9 9 93.22 6.99
-9 -9 7 148.76 10.36
9 -9 7 158.41 10.19
9 -7 -9 150.74 10.43
9 -7 9 149.35 10.24
9 7 -9 138.37 10.49
9 7 9 123.72 10.18
9 9 -7 153.86 10.53
9 9 7 172.1 10.29
9 9 7 123.94 10.15
9 -9 -7 151.55 10.38
9 -9 7 152.6 10.16
7 9 -9 150.29 10.51
7 9 9 164.18 10.28
-7 9 9 141.62 10.39
-9 -7 9 156.44 10.48
-9 7 -9 142.97 10.13
-9 7 9 131.34 10.35
-9 9 7 162.47 10.37
-7 -9 -9 141.84 10.15
-7 -9 9 147.37 10.41
-7 9 -9 142.03 10.11
7 -9 9 145.55 10.23
7 -9 -9 158.07 10.34
9 -9 9 159.49 11.51
-9 9 9 160.16 11.66
9 -9 -9 153.43 11.63
-9 -9 9 159.41 11.66
-9 9 -9 175.53 11.42
9 9 9 184.44 11.56
9 9 9 164.19 11.51
9 9 -9 178.68 11.87
0 10 0 852.05 62.33
-10 0 0 851.57 59.99
10 0 2 11.17 1
10 0 -2 11.38 1.07
-10 0 2 10.37 1
0 -2 -10 8.62 1
0 2 -10 11.16 1.06
-10 -2 0 9.54 0.94
-10 2 0 9.96 0.93
-2 0 -10 10.04 0.97
-2 0 10 13.34 1.21
0 -10 2 10.56 0.78
0 10 -2 10.42 0.81
0 10 2 10.15 0.8
2 0 -10 8.24 1.01
2 10 0 11.72 0.89
2 10 0 10.32 0.79
10 -2 0 10.57 1.03
0 2 10 12.16 1.19
2 2 -10 3.02 0.58
2 10 -2 3.78 0.47
2 10 2 3.67 0.36
-2 10 2 3.29 0.31
2 2 10 2.87 0.57
10 2 2 3.43 0.5
-10 2 -2 3.1 0.47
-10 2 2 3.6 0.5
-2 -10 2 3.7 0.38
2 -2 10 2.91 0.55
2 -2 -10 2.2 0.51
-10 -2 -2 3.15 0.45
-10 -2 2 3.2 0.5
-2 -2 -10 2.22 0.45
-2 2 -10 3.81 0.51
10 -2 2 3.75 0.52
10 2 -2 3.76 0.57
-2 2 10 4.15 0.65
-4 0 -10 18.38 1.39
-10 4 0 16 1.33
0 -10 4 15.3 1.27
0 10 -4 15.61 1.25
0 10 4 16.65 1.28
4 0 10 15.53 1.41
10 -4 0 16.72 1.4
10 0 4 17.5 1.33
10 4 0 16.16 1.45
0 -10 -4 16.94 1.2
-10 0 4 16.31 1.45
-4 -10 0 15.53 1.24
0 -4 -10 13.57 1.35
0 -4 10 17.2 1.55
0 4 10 14.88 1.44
4 10 0 15.2 1.31
10 0 -4 18.87 1.57
-10 -4 0 17.7 1.38
-4 -2 10 42.55 3.08
4 -10 2 36 2.52
-2 -4 -10 33.21 2.74
10 -4 -2 36.13 2.85
4 2 10 31.21 2.77
-10 2 4 35.82 2.84
-10 -4 2 38.07 2.82
4 10 -2 31.46 2.73
4 -10 2 36.93 2.52
-4 10 2 36.48 2.55
10 2 -4 38.13 2.94
-2 4 10 40.7 2.96
2 4 -10 39.67 2.89
2 10 4 35.98 2.65
4 -2 -10 29.98 2.83
2 -10 -4 33.49 2.58
-10 4 -2 39.29 2.72
-2 10 -4 36.73 2.56
10 -2 4 39.86 2.72
-2 -10 4 37.55 2.7
-4 -2 -10 44.27 2.8
2 -10 4 35.64 2.64
-10 4 2 35.66 2.75
-4 -10 2 41.2 2.78
4 10 2 34.83 2.62
-2 10 4 35.12 2.67
4 -2 10 41.61 2.86
4 2 -10 43.74 2.99
-10 -2 4 36.44 2.86
10 -2 -4 41.61 2.97
10 4 -2 35.45 2.85
2 -4 -10 43.67 2.9
10 2 4 38.9 2.72
4 -10 -2 37.03 2.54
-2 -4 10 36.4 2.97
-2 4 -10 35.91 2.77
4 10 2 39.54 2.69
-10 -4 -2 35.42 2.74
10 -4 2 36.08 2.76
10 2 4 30.59 2.71
2 10 -4 40.27 2.77
-4 4 -10 54.7 3.78
-10 -4 4 56.22 3.89
-10 4 4 52.18 3.84
-4 -4 10 48.13 3.99
10 4 4 55.65 3.81
10 4 4 47 3.7
10 -4 -4 58.76 4.02
10 -4 4 56.28 3.76
10 -4 4 53.2 3.7
10 4 -4 53.72 3.98
4 4 -10 47.58 3.91
4 4 10 46.33 3.8
-4 10 -4 53.11 3.56
-4 10 4 47.59 3.69
4 -10 -4 48.82 3.62
4 10 4 54.9 3.68
4 -10 4 56.82 3.65
4 -4 10 54.77 3.89
4 -4 -10 46.74 3.85
-4 -4 -10 44.02 3.7
4 10 -4 55.76 3.86
4 10 4 54.29 3.7
0 -6 -10 169.81 11.98
0 6 -10 174.01 12.03
10 -6 0 174.78 12.01
6 -10 0 169.48 11.82
10 6 0 178.73 12.08
6 10 0 166.96 11.97
6 0 -10 187.81 12.22
0 -10 6 183.34 11.99
-10 0 6 174.19 12.11
10 0 -6 163.83 12.19
0 -6 10 184.99 12.17
0 10 -6 178.57 11.92
-6 0 -10 157.79 11.93
0 6 10 194.95 12.13
-6 0 10 165.41 12.2
10 -6 -2 4.78 0.69
2 -6 10 4.47 0.73
-10 -6 2 5.35 0.68
2 6 -10 5.2 0.75
-6 -2 10 5.47 0.81
-6 2 -10 5.4 0.63
6 2 10 4.94 0.69
6 -10 2 5.59 0.47
6 10 -2 4.62 0.66
-2 -6 -10 5.04 0.62
6 -2 -10 5.88 0.86
2 10 6 6.15 0.62
6 -10 2 5 0.49
-10 2 6 4.96 0.71
10 -2 6 5.68 0.62
-6 10 2 5.25 0.49
10 2 -6 5.64 0.83
10 6 -2 6.42 0.76
6 -10 -2 5.67 0.57
-2 -6 10 5.38 0.78
10 2 6 4.86 0.6
-10 -6 -2 5.33 0.61
2 -10 6 5.24 0.65
10 -6 2 4.99 0.61
-6 2 10 3.5 0.71
2 -6 -10 5.89 0.67
-10 -2 6 5.24 0.73
-6 -2 -10 5.26 0.63
2 6 10 5.27 0.7
-2 6 -10 4.7 0.64
-2 -10 -6 5.77 0.54
-2 10 6 6.76 0.7
6 10 2 5.92 0.63
10 -2 -6 4.7 0.87
2 10 -6 4.18 0.63
6 -2 10 4.94 0.69
6 2 -10 4.68 0.77
10 2 6 6.19 0.63
6 -10 4 16.07 1.26
-6 10 4 16.93 1.33
4 -10 -6 15.76 1.32
4 10 6 17.81 1.47
6 -4 -10 13.19 1.47
6 4 10 20.14 1.52
10 -6 -4 14.81 1.51
-10 4 6 15.4 1.47
10 6 4 16.74 1.42
10 6 4 17.24 1.36
6 10 -4 17.68 1.55
-6 -4 10 16.5 1.66
-6 4 -10 16.88 1.37
10 -4 6 16.53 1.37
-4 10 -6 16.82 1.25
6 -10 4 15.68 1.24
10 -4 6 16.42 1.36
10 4 -6 17.88 1.66
4 -6 10 16.82 1.48
4 6 -10 15.29 1.55
-6 4 10 13.82 1.57
-10 -4 6 18.38 1.56
-4 -6 10 16.97 1.64
4 -6 -10 18.47 1.51
-6 -4 -10 17.84 1.4
-10 6 4 18.67 1.49
10 -4 -6 15.16 1.58
-4 10 6 17.14 1.43
6 4 -10 14.78 1.56
4 -10 6 16.29 1.35
10 4 6 15.88 1.41
10 4 6 16.28 1.37
6 -10 -4 15.76 1.34
4 6 10 17.89 1.48
6 10 4 14.55 1.32
6 10 4 18.12 1.35
10 -6 4 14.99 1.35
10 6 -4 15.85 1.55
4 10 -6 16.13 1.51
6 -4 10 16.7 1.45
6 -6 10 19.66 1.58
6 -6 -10 15.16 1.59
-6 10 -6 18.76 1.36
-6 10 6 19.41 1.57
-6 -6 -10 20.48 1.51
-6 6 -10 17.86 1.48
-6 6 10 19.34 1.73
10 -6 6 16.71 1.47
6 -10 -6 17.87 1.5
10 6 -6 17.04 1.76
10 6 6 17.75 1.53
10 6 6 19.31 1.52
6 10 6 16.82 1.46
10 -6 -6 18.55 1.74
-10 -6 6 16.34 1.6
10 -6 6 18.37 1.48
6 10 6 16 1.45
6 -10 6 18.7 1.46
-6 -6 10 18.48 1.76
-10 6 6 19.04 1.62
6 10 -6 16.67 1.68
6 6 -10 19.64 1.79
0 10 -8 270.5 17.9
8 0 -10 265.68 18.18
-8 0 10 253.9 18.18
0 8 10 234.88 17.95
10 0 -8 280.1 18.24
10 8 0 275.3 18.01
8 10 -2 93 5.9
10 2 -8 76.52 5.98
-8 2 -10 80.75 5.68
-2 8 10 83.94 5.87
10 -2 8 80.35 5.7
2 8 -10 80.18 5.8
-10 2 8 75.72 5.88
8 -10 2 81.6 5.54
-8 10 2 81.82 5.58
-10 -8 2 77.75 5.73
10 -8 -2 84.41 5.81
-8 -2 10 76.73 5.95
10 8 2 86.48 5.8
-2 10 -8 71.88 5.61
2 -10 -8 74.05 5.63
8 -2 -10 72.54 5.92
8 2 10 87.75 5.78
8 -10 2 83.9 5.62
2 10 8 75.52 5.7
-2 -8 -10 77.88 5.67
8 10 2 74.13 5.61
8 -10 -2 76.6 5.69
-2 -10 -8 72.86 5.61
-8 2 10 74.99 5.95
10 2 8 90.87 5.75
-10 -2 8 81.64 5.94
-2 8 -10 82.94 5.72
8 -2 10 82.92 5.75
-2 -8 10 84.48 5.95
2 10 -8 74.54 5.76
8 2 -10 92.63 6.07
10 -2 -8 94.82 6.11
-8 -2 -10 67.42 5.63
10 -8 2 79.45 5.7
2 -8 -10 87.19 5.76
-8 -10 2 81.05 5.71
-10 -8 -2 87.04 5.71
10 2 8 85.28 5.73
2 8 10 89.91 5.86
10 8 -2 79.4 5.85
-8 10 4 5.66 0.59
-4 -8 -10 3.96 0.52
8 4 10 5.11 0.66
10 -8 -4 4.87 0.71
10 4 -8 5.69 0.85
-4 10 -8 4.21 0.48
10 8 4 4.19 0.55
10 -4 8 4.3 0.58
8 -10 4 4.95 0.51
8 -10 4 4.26 0.48
-8 -4 10 5.15 0.94
4 8 -10 4.86 0.76
-10 4 8 6.13 0.77
4 -10 -8 3.77 0.53
8 10 -4 5.08 0.77
-10 -8 4 5.01 0.67
4 10 8 3.97 0.55
-8 4 -10 4.37 0.53
10 8 4 2.73 0.53
8 -4 -10 3.54 0.73
-4 8 10 3.56 0.7
-8 -10 4 4.54 0.62
-4 -8 10 4.69 0.74
8 4 -10 4.15 0.8
4 10 -8 3.85 0.74
-4 8 -10 4.61 0.56
-8 -4 -10 3.86 0.52
4 -8 -10 5.21 0.67
10 -4 -8 2.69 0.71
-10 -4 8 3.7 0.69
10 4 8 4.84 0.59
-8 4 10 3.65 0.73
8 -4 10 4.58 0.64
4 8 10 5.5 0.69
-4 -10 -8 5.33 0.55
4 -10 8 5.09 0.64
8 -10 -4 3.41 0.59
-10 8 4 4.2 0.58
10 4 8 4.63 0.61
8 10 4 5.65 0.57
10 8 -4 3.65 0.7
10 -8 4 4.46 0.55
-10 -8 6 57.46 4.23
6 10 8 48.3 4.03
10 -8 -6 52.78 4.23
8 -10 6 56.23 3.97
8 -6 -10 59.96 4.3
-8 6 -10 52.94 4
-6 -10 8 56.77 4.23
-6 10 -8 56.41 3.95
10 8 6 60.37 4.08
6 -8 10 52.95 4.13
6 8 -10 54.11 4.29
8 6 10 52.58 4.1
-10 6 8 55.31 4.24
-6 8 10 61.49 4.34
8 -10 6 55.69 4
8 10 -6 59.9 4.34
-6 -8 -10 62.67 4.06
6 -10 -8 54.56 4.1
10 -6 8 51.29 4.01
10 -6 8 55.06 4.06
10 6 -8 51.27 4.32
10 8 6 59.65 4.11
8 10 6 58.4 4.05
10 6 8 61.34 4.12
8 10 6 50.65 4.05
-6 -8 10 59.03 4.32
10 6 8 49.26 4.04
8 -6 10 57 4.13
-10 -6 8 57.83 4.26
6 -10 8 52.43 4.06
6 10 -8 53.61 4.28
-6 8 -10 58.75 4.03
6 -8 -10 56.97 4.19
-10 8 6 64.23 4.21
-8 -6 -10 59.97 4.06
-8 -10 6 57.41 4.18
-8 6 10 52.96 4.3
-6 10 8 49.18 4.15
10 -6 -8 58.13 4.34
8 6 -10 50.24 4.31
10 -8 6 58.18 4.02
10 8 -6 52.79 4.31
8 -10 -6 61.89 4.17
10 -8 6 57.82 4.04
6 8 10 58.59 4.14
-10 -8 8 85.01 6.31
-10 8 8 79.58 6.27
-8 -10 8 87.33 6.3
-8 -8 -10 101.4 6.16
-8 -8 10 85.63 6.37
-8 8 -10 86.09 6.07
-8 8 10 78.74 6.36
-8 10 -8 86.95 6.03
-8 10 8 96.63 6.33
8 -10 -8 85.46 6.24
8 -10 8 79.27 6.11
8 -8 -10 89.56 6.33
8 -8 10 85.67 6.19
8 8 -10 84.61 6.45
8 8 10 77.43 6.15
8 10 -8 83.65 6.41
8 10 8 86.47 6.15
8 10 8 90.82 6.17
10 -8 -8 91.53 6.42
10 -8 8 92.34 6.13
10 -8 8 93.18 6.17
10 8 -8 81.74 6.44
10 8 8 100.07 6.23
10 8 8 77.35 6.13
-10 -10 0 271.79 18.32
-10 0 10 259.28 18.57
0 -10 10 263.29 18.49
0 10 -10 280.33 18.35
10 0 -10 291.71 18.7
10 10 0 250.76 18.41
-10 2 -10 15.28 1.22
-10 -2 10 15.77 1.52
-10 -2 -10 14.16 1.23
-10 -10 2 14.25 1.26
-2 -10 10 15.58 1.46
-2 10 -10 15.53 1.26
-2 10 10 11.24 1.31
2 -10 -10 11.66 1.19
2 -10 10 15.05 1.42
2 10 -10 13.36 1.29
2 10 10 13.45 1.33
10 -10 -2 13.31 1.3
10 -10 2 13.39 1.21
10 -10 2 14.41 1.12
10 -2 -10 13.57 1.49
10 2 -10 11.24 1.46
10 2 10 16.33 1.33
10 10 -2 11.78 1.33
10 10 2 11.78 1.26
-10 2 10 14.87 1.47
-10 10 2 14.21 1.16
-2 -10 -10 15.05 1.22
-10 4 10 1.02 0.41
-10 4 -10 1.4 0.3
4 -10 10 1.1 0.38
4 10 -10 2.28 0.56
4 10 10 2.06 0.47
10 -10 -4 0.86 0.39
10 -10 4 1.14 0.3
10 -10 4 2.3 0.32
10 -4 -10 1.83 0.58
10 -4 10 1.23 0.32
10 4 -10 1.37 0.56
10 4 10 1.61 0.41
10 10 -4 1.72 0.51
10 10 4 1.68 0.43
10 10 4 1.47 0.35
-10 -4 10 2.43 0.61
4 -10 -10 1.18 0.35
-10 -10 4 1.99 0.44
-10 -4 -10 1.71 0.34
-4 10 10 1.58 0.46
-4 -10 -10 1.84 0.37
-4 -10 10 1.19 0.45
-4 10 -10 1.83 0.35
6 10 -10 12.79 1.36
-6 10 10 12.1 1.34
6 -10 -10 15.09 1.31
6 -10 10 13.88 1.26
-6 -10 10 12.16 1.35
-6 10 -10 12.36 1.1
-10 10 6 12.71 1.22
-6 -10 -10 13.01 1.13
-10 -10 6 12.78 1.27
-10 -6 10 13.92 1.41
-10 6 -10 12.4 1.11
-10 6 10 12.44 1.38
10 10 6 11.93 1.17
10 10 6 13.04 1.16
10 6 10 11.65 1.18
10 10 -6 12.84 1.45
10 -6 10 11.64 1.18
10 6 -10 11.29 1.56
10 -10 6 15.13 1.15
10 -10 6 12.92 1.12
10 -6 -10 12.72 1.39
10 -10 -6 11.36 1.29
6 10 10 13.32 1.24
10 10 8 40.02 3.22
10 10 -8 43.33 3.56
10 8 10 39.32 3.22
10 -8 10 43.34 3.26
10 8 -10 45.66 3.6
10 8 10 43.52 3.24
10 -10 8 41.52 3.2
10 -8 -10 42.91 3.44
10 -10 -8 44.53 3.38
10 -10 8 39.26 3.13
8 10 -10 44.11 3.52
8 10 10 46.01 3.28
-10 -10 8 42.74 3.36
-10 -8 10 43 3.41
-10 8 -10 44.74 3.15
-10 8 10 42.71 3.43
-10 10 8 37.81 3.29
-8 -10 10 43.11 3.44
-8 10 -10 41.29 3.11
-8 10 10 45.12 3.47
8 -10 -10 43.04 3.33
8 -10 10 43.83 3.28
10 10 8 46.18 3.24
10 10 10 32.4 2.76
10 10 10 41.97 2.85
10 -10 -10 35.37 2.93
10 -10 10 31.99 2.91
10 10 -10 39.78 3.17
-10 -10 10 36.9 2.97
-10 10 10 32.94 2.9
-1 -1 11 190.51 13.27
-1 1 -11 174.85 13.12
1 -1 -11 203.99 13.19
1 -1 11 199.37 13.26
1 1 -11 176.67 13.18
1 1 11 220.85 13.29
11 -1 -1 177.21 13.17
11 -1 1 191.38 13.16
11 1 -1 190.13 13.2
11 1 1 193.56 13.18
1 -3 11 42.25 3.17
11 -3 -1 40.25 3.09
-11 1 3 41.18 3.07
1 11 3 39.8 2.87
-1 -11 3 42.06 2.87
3 1 11 44.92 3.17
-11 -3 1 38.39 3.02
-11 3 -1 37.33 2.98
3 -1 -11 44.66 3.18
-3 -1 11 39.05 3.23
-3 1 -11 42.45 3.04
3 11 -1 39.65 2.96
1 11 3 43.51 2.86
11 3 1 40.42 3.09
-1 11 -3 39.11 2.79
11 -1 3 39.17 3.04
11 1 -3 38.96 3.17
-1 3 11 37.39 3.15
1 3 -11 40.15 3.11
-1 -3 -11 32.85 3
-11 -3 -1 42.5 3.03
-11 3 1 39.71 3.01
11 -3 1 43.74 3.09
-3 -11 1 38.49 2.86
3 11 1 42.45 2.85
11 -1 -3 37.47 3.13
11 1 3 40.95 3.06
-1 3 -11 40.24 3.06
1 -11 3 38.61 2.8
-11 -1 3 43.58 3.1
-3 1 11 45.72 3.29
1 3 11 47.79 3.2
1 -3 -11 41.11 3.08
3 11 1 40.18 2.93
-1 11 3 43.11 2.87
-3 -1 -11 42.32 3.04
3 -1 11 38.2 3.13
3 1 -11 42.97 3.17
-1 -3 11 37.1 3.16
1 11 -3 41.29 2.91
-3 -3 11 333.93 21.13
3 3 -11 282.5 20.95
-5 -1 11 0.1 0.32
-5 1 -11 0.12 0.18
5 11 -1 -0.08 0.17
1 -5 11 -0.04 0.21
5 1 11 0.01 0.18
-11 -5 1 -0.05 0.13
-11 5 -1 -0.02 0.16
11 1 -5 -0.26 0.32
1 11 5 0.13 0.16
5 -1 -11 -0.07 0.21
-1 -11 5 0.15 0.18
11 -5 -1 0.07 0.15
1 -11 -5 0.2 0.12
-1 11 -5 0.02 0.11
-11 1 5 0.29 0.28
-1 -5 -11 -0.14 0.13
11 -1 5 0.32 0.23
11 5 1 -0.05 0.19
-1 5 11 0.29 0.33
11 -1 5 0.17 0.19
1 5 -11 0.07 0.23
11 1 5 0.13 0.17
1 5 11 0.2 0.27
-1 5 -11 -0.15 0.2
5 11 1 0.05 0.12
11 -5 1 -0.11 0.18
5 -11 -1 0.18 0.06
-11 -1 5 0.42 0.23
1 -5 -11 -0.08 0.22
-1 -5 11 -0.11 0.21
-5 -1 -11 0.12 0.21
11 -1 -5 0.07 0.29
5 11 1 0.05 0.15
-11 -5 -1 -0.04 0.13
-1 11 5 0.3 0.2
11 5 -1 -0.12 0.27
1 -11 5 0.16 0.13
1 11 -5 -0.12 0.16
5 -1 11 0.14 0.19
5 1 -11 0.28 0.28
11 1 5 0.01 0.19
-11 5 1 0.06 0.19
-1 -11 -5 0.28 0.13
5 -11 -1 0.17 0.04
-5 1 11 0.25 0.29
3 -5 11 196.69 13.19
11 -3 5 196.67 13.02
5 11 -3 189.88 13.15
3 5 -11 204.2 13.23
5 -3 -11 163.81 13.17
-5 -3 11 181.99 13.3
5 3 11 171.26 13.11
11 -5 -3 186.27 13.2
11 -3 5 185.4 13.04
11 5 3 200.38 13.14
-11 -5 3 202.9 13.16
-11 3 5 202.26 13.19
-3 5 11 167.48 13.24
11 3 -5 202.67 13.33
-3 11 5 198.28 13.03
5 -3 11 196.22 13.15
11 -5 3 186.09 13.06
3 -5 -11 178.8 13.15
-5 3 11 182.34 13.31
-11 -3 5 196.27 13.22
3 11 -5 211.4 13.14
11 5 -3 197.89 13.26
11 3 5 209.18 13.1
11 -3 -5 180.87 13.27
3 -11 5 191.32 12.96
5 3 -11 180.28 13.25
-5 -5 11 230.1 16.12
-5 11 5 212.11 15.77
5 -5 -11 237.75 15.99
5 5 -11 228.52 16.07
-11 5 5 216.08 15.89
-5 5 11 215.23 16.06
5 11 -5 256.09 16.03
11 5 -5 247.1 16.13
5 -11 5 249.33 15.74
7 -11 1 93.85 6.45
7 11 -1 104.38 6.7
11 -1 7 94.56 6.57
1 -11 -7 102.99 6.49
-11 1 7 86.68 6.71
7 -11 1 92.91 6.36
1 -7 11 88.35 6.72
11 -7 -1 89.9 6.65
1 7 -11 88.72 6.66
-1 11 -7 91.44 6.49
11 7 1 104.64 6.73
-7 1 -11 86.6 6.55
-7 11 1 88.66 6.37
-11 7 -1 89.51 6.51
-7 -1 11 92.84 6.88
-1 7 11 78.98 6.68
7 -1 -11 106.78 6.88
11 1 -7 81.22 6.79
11 -1 7 101.98 6.62
7 1 11 83.07 6.62
-1 -11 7 90.55 6.64
-11 -1 7 93.94 6.75
7 11 1 90.16 6.61
11 1 7 99.57 6.62
-1 7 -11 89.87 6.61
7 -1 11 89.94 6.64
1 11 -7 93.67 6.56
7 1 -11 91.63 6.82
-1 -7 11 94.28 6.82
-7 -1 -11 105.26 6.61
11 1 7 89.91 6.56
-11 7 1 100.39 6.55
11 -1 -7 99.29 6.89
7 -11 -1 86.88 6.45
1 7 11 88.5 6.69
-1 11 7 94.12 6.6
1 -7 -11 101.4 6.64
1 -11 7 104.98 6.66
-7 1 11 92.65 6.85
-1 -11 -7 102.45 6.49
11 -7 1 100.18 6.63
11 7 -1 90.67 6.72
-11 -7 -1 96.19 6.59
-11 3 7 28.49 2.38
7 -11 3 28.99 2.1
7 -3 -11 33.81 2.52
-7 3 -11 26.61 2.21
-7 -3 11 26.7 2.48
-3 7 11 32.31 2.53
11 -7 -3 26.52 2.36
11 -3 7 27.44 2.21
7 3 11 30.89 2.34
-3 -7 -11 27.17 2.22
-3 11 -7 29.2 2.12
11 7 3 33.25 2.25
7 11 -3 28.73 2.37
3 11 7 33.21 2.28
11 3 -7 24.9 2.47
3 -7 11 31.28 2.41
-7 11 3 29.15 2.12
3 -11 -7 30.26 2.17
7 -11 3 29.25 2.08
3 7 -11 26.82 2.37
11 -3 7 27.95 2.24
11 3 7 23.79 2.19
-3 -7 11 28.15 2.5
3 7 11 28.53 2.34
7 3 -11 31.15 2.53
-11 -3 7 26.7 2.37
-7 -3 -11 30.83 2.25
-3 -11 -7 30.32 2.15
11 3 7 27.57 2.26
11 -7 3 28.27 2.24
7 11 3 30.86 2.27
3 -11 7 30.46 2.28
3 11 -7 27.93 2.31
3 -7 -11 31.18 2.34
7 -11 -3 25.94 2.15
7 11 3 31.39 2.18
-3 11 7 33.19 2.35
11 -3 -7 24.07 2.43
11 7 -3 30.92 2.46
-11 7 3 26.58 2.23
-3 7 -11 27.7 2.24
-7 -5 11 41.45 3.3
5 11 7 37.69 2.92
7 -5 -11 45.15 3.2
5 -7 11 38 3.05
-5 7 11 38.3 3.18
11 7 5 41.96 2.94
-7 11 5 38.77 2.91
-5 -7 -11 43.38 2.97
5 -11 -7 43.75 2.94
-5 -11 7 37.67 3.04
7 11 -5 36.99 3.11
11 5 -7 39.86 3.25
7 -11 5 39.3 2.85
-7 5 -11 39.76 2.94
11 -7 -5 39.6 3.16
7 5 11 38.62 3.04
-11 5 7 36.66 3.08
5 7 -11 39.44 3.18
-5 11 -7 37.82 2.8
7 -11 5 39.39 2.81
11 -5 7 38.39 2.92
11 -5 7 40.26 2.96
7 -5 11 39.75 3.03
7 11 5 41.02 2.94
5 11 -7 40.29 3.14
-7 5 11 40.04 3.24
11 -7 5 39.31 2.94
11 -7 5 38.16 2.89
11 7 -5 39.81 3.21
5 -11 7 35.87 2.93
-11 -5 7 37.62 3.1
5 -7 -11 33.83 3.02
-5 -7 11 41.15 3.24
5 7 11 33.42 2.99
11 5 7 43.57 2.99
7 11 5 37.25 2.89
11 -5 -7 45.96 3.3
7 -11 -5 43.01 2.97
7 5 -11 38.55 3.21
-11 7 5 37.16 3.02
-7 -11 5 36.91 2.99
-5 7 -11 37.54 2.92
-5 11 7 42.66 3.05
-7 -5 -11 44.37 2.98
11 5 7 41.61 3.01
7 11 -7 11.33 1.21
7 -11 -7 9.33 1
11 -7 7 10.47 0.99
-11 7 7 9.52 1.09
-7 -11 7 9.49 1.07
11 7 7 12.43 1.05
7 -7 11 10.18 1.07
-7 7 -11 9.31 0.95
11 -7 7 9.66 0.96
11 7 -7 10.18 1.29
7 11 7 9.42 0.96
-7 7 11 10.98 1.25
-7 -7 -11 13.83 1.05
7 7 11 8.8 1.01
7 7 -11 9.72 1.2
7 -11 7 9.76 0.97
7 -7 -11 10.34 1.15
-11 -7 7 11.16 1.14
7 11 7 9.79 0.96
11 -7 -7 9.59 1.15
-7 -7 11 11.62 1.28
11 -9 -1 81.99 5.46
9 11 -1 70.17 5.44
9 1 11 74.32 5.41
11 9 1 71.57 5.46
-1 9 11 78.64 5.54
9 -11 1 72.51 5.29
11 -1 9 76.99 5.37
-11 1 9 75.09 5.59
-9 -11 -1 74.54 5.31
1 -11 -9 71.69 5.27
9 -11 1 73.16 5.16
1 -9 11 73.52 5.54
11 -1 9 80.82 5.38
11 1 -9 61.55 5.6
-1 -11 9 80.53 5.51
-1 11 -9 74.53 5.32
-9 1 -11 85.81 5.37
1 11 9 75.49 5.42
-1 -9 -11 80.1 5.35
9 -1 -11 61.64 5.57
1 9 -11 76.7 5.45
-9 -1 11 83.51 5.7
-11 -9 1 75.17 5.36
-9 -11 1 78.59 5.36
-1 -11 -9 68.47 5.25
-1 -9 11 83.46 5.64
-1 9 -11 76.55 5.39
1 -11 9 70.14 5.45
11 -1 -9 74.43 5.66
11 -9 1 72.51 5.36
1 11 -9 81.82 5.42
9 1 -11 63.93 5.57
-11 -1 9 76.48 5.61
-9 1 11 73.29 5.62
11 9 -1 74.93 5.5
9 -1 11 73.68 5.4
-1 11 9 66.69 5.4
9 11 1 67.61 5.4
-11 9 1 75.98 5.3
-11 -9 -1 75.75 5.36
1 9 11 68.51 5.44
9 -11 -1 80.24 5.35
-9 -1 -11 80.65 5.35
1 -9 -11 85.37 5.39
11 1 9 80.48 5.39
11 9 3 10.55 1.03
9 -3 -11 11.15 1.32
-9 3 -11 10.37 1.04
9 3 11 10.58 1.12
11 3 -9 11.75 1.45
11 -3 9 11.57 1.11
11 -3 9 11.36 1.09
-3 -11 9 10.92 1.21
-11 -9 3 12.5 1.18
-3 9 11 15.84 1.44
9 -11 3 12.56 1.06
9 -11 3 12.53 0.98
9 11 -3 11.76 1.27
-9 -3 11 13.99 1.4
3 -9 11 12.28 1.25
11 9 3 13.05 1.21
3 11 9 14.45 1.2
-3 11 -9 11.45 1.04
3 -11 -9 11.52 1.08
-3 -9 -11 12.48 1.1
11 -9 -3 11.42 1.22
-11 3 9 12.81 1.31
3 9 -11 10.49 1.17
-9 -3 -11 10.53 1.06
-9 -11 3 11.33 1.12
3 -11 9 12.19 1.21
11 3 9 11.06 1.11
-11 -3 9 11.07 1.26
-11 9 3 13.15 1.12
11 -9 3 12.14 1.02
3 11 -9 11.74 1.22
9 -3 11 12.82 1.2
11 3 9 10.89 1.09
9 11 3 11.54 1.14
9 11 3 11.69 1.05
11 -3 -9 12.05 1.4
-3 -11 -9 11.73 1.04
-9 3 11 12.79 1.38
9 3 -11 11.86 1.42
-3 -9 11 10.83 1.29
-3 9 -11 11.57 1.08
11 -9 3 11.21 1.09
3 -9 -11 11.77 1.15
11 9 -3 13.01 1.33
9 -11 -3 13.23 1.16
-3 11 9 13.19 1.27
3 9 11 14.22 1.28
-9 -5 11 2.46 0.69
11 9 5 2.39 0.48
11 9 5 2.03 0.4
-9 5 -11 2.22 0.42
-11 -9 5 2 0.45
-11 5 9 1.74 0.48
11 5 -9 1.58 0.55
5 -11 -9 2.25 0.46
9 11 -5 2.22 0.65
-5 -11 9 1.92 0.49
-5 11 -9 1.6 0.33
9 5 11 2.96 0.55
11 -9 -5 1.47 0.48
11 -5 9 2.14 0.42
11 -5 9 2.4 0.46
5 -9 11 2.93 0.59
9 -5 -11 1.52 0.52
5 11 9 2.3 0.49
-5 9 11 2.83 0.64
-5 -9 -11 2.14 0.4
5 9 -11 3.3 0.62
9 11 5 1.82 0.38
11 -5 -9 1.74 0.6
5 -9 -11 1.99 0.44
-5 11 9 1.77 0.47
9 11 5 1.27 0.33
5 -11 9 2.74 0.53
5 11 -9 1.89 0.5
-9 -5 -11 2.68 0.41
-11 9 5 1.77 0.4
-5 9 -11 1.63 0.38
-5 -11 -9 2.31 0.37
11 -9 5 2.4 0.37
11 9 -5 2.27 0.59
11 5 9 1.94 0.44
11 5 9 2.47 0.47
11 -9 5 1.73 0.39
-11 -5 9 2.17 0.5
-9 5 11 3.46 0.76
-9 -11 5 1.75 0.43
5 9 11 1.86 0.42
9 -11 -5 2.14 0.46
9 5 -11 1.79 0.54
-5 -9 11 3.15 0.71
9 -5 11 1.07 0.39
9 -7 -11 13.62 1.31
-11 -9 7 10.67 1.2
7 -9 11 11.9 1.18
-7 9 11 13.47 1.34
7 9 -11 10.7 1.3
11 -7 9 10.46 1.03
-11 7 9 9.45 1.16
7 11 9 9.59 0.99
9 11 -7 10.58 1.26
11 9 7 9.21 1.03
9 7 11 12.16 1.14
11 -9 -7 10.51 1.24
9 -11 7 10.29 1.01
7 11 9 9.52 1.05
-7 -11 9 12.02 1.22
-7 11 -9 11.59 0.96
-9 11 7 11.18 1.11
-7 -9 -11 10.49 1.01
11 9 7 12.39 1.09
9 -11 7 11.57 0.99
7 -11 -9 11.44 1.13
11 -7 9 11.15 1.07
11 7 -9 11.7 1.37
-9 -7 11 13.16 1.35
-9 7 -11 11.26 1.02
9 -11 -7 11.28 1.15
9 11 7 10.94 1.07
-11 -7 9 9.57 1.16
11 -7 -9 11.36 1.32
-9 7 11 8.23 1.19
9 11 7 9.9 1
7 -9 -11 11.75 1.2
11 7 9 12.08 1.13
11 7 9 9.6 1.03
-11 9 7 11.5 1.15
-7 11 9 8.96 1.17
-7 -9 11 10.49 1.26
-7 9 -11 10.16 0.99
7 11 -9 11.72 1.28
9 -7 11 9.87 1.1
9 7 -11 11.29 1.32
-9 -7 -11 12.49 1.05
7 9 11 10.86 1.13
11 -9 7 10.87 1.02
11 -9 7 9.99 1.01
11 9 -7 10.26 1.29
-9 -11 7 12.27 1.22
9 9 11 11.86 1.29
9 11 -9 15.13 1.61
9 11 9 13.08 1.26
9 11 9 15.74 1.32
11 -9 -9 14.22 1.49
11 -9 9 14.46 1.26
11 -9 9 13.4 1.27
11 9 -9 12.23 1.51
11 9 9 15.52 1.33
11 9 9 12.87 1.26
-9 11 9 15.16 1.43
9 -11 -9 15.23 1.62
9 -11 9 13.49 1.28
9 -9 -11 13.7 1.46
9 -9 11 14.56 1.36
9 9 -11 13.72 1.59
-11 -9 9 14.73 1.47
-11 9 9 14.79 1.44
-9 -11 9 12.74 1.39
-9 -9 11 12.58 1.46
-9 9 -11 14.92 1.22
-9 9 11 12.3 1.45
11 -1 -11 65.89 5.57
11 1 -11 68.86 5.62
11 1 11 70.43 5.34
11 11 -1 70.77 5.43
11 11 1 83.25 5.47
1 -11 11 69.17 5.45
11 -1 11 74.19 5.35
1 11 11 74.63 5.41
11 -11 -1 72.46 5.37
11 -11 1 71.17 5.3
11 -11 1 75.25 5.14
-1 -11 -11 77.87 5.26
-1 -11 11 76.34 5.52
-1 11 -11 76.2 5.32
-1 11 11 74.12 5.46
1 -11 -11 70.53 5.26
-11 -11 1 78.82 5.33
-11 -1 -11 77.6 5.29
-11 -1 11 81.72 5.62
-11 1 -11 73.19 5.26
-11 1 11 70.16 5.54
1 11 -11 72.11 5.37
-11 -11 -1 75.45 5.28
-3 11 -11 55.68 3.94
-11 -11 3 52.04 3.99
-11 -3 11 53.01 4.22
11 3 -11 57.1 4.37
11 3 11 56.99 4.04
11 11 -3 49.44 4.16
11 11 3 55.08 3.92
-11 3 -11 60.18 3.97
-11 3 11 53.24 4.24
-11 11 3 53.86 3.91
-3 -11 -11 61.05 3.97
11 11 3 50.18 4.04
3 -11 11 51.1 4.11
3 11 -11 52.03 4.08
3 11 11 50.25 4.06
-3 11 11 60.34 4.22
-3 -11 11 52.06 4.19
11 -11 -3 57.17 4.12
11 -11 3 52.58 3.94
11 -11 3 53.19 3.84
11 -3 -11 54.35 4.32
11 -3 11 53.48 4.01
3 -11 -11 50.99 3.96
11 11 5 26.26 2.39
11 5 -11 32.3 2.74
11 5 11 27.54 2.39
11 11 -5 32.42 2.7
11 -5 11 31.97 2.42
11 -11 5 31.8 2.34
11 -11 5 27.4 2.25
11 -5 -11 33.14 2.73
5 -11 -11 29.65 2.39
5 -11 11 33 2.52
5 11 -11 32.17 2.59
5 11 11 27.31 2.41
-11 -11 5 28.52 2.43
-11 -5 11 28.55 2.59
-11 5 -11 28.92 2.3
-11 5 11 29.08 2.6
-11 11 5 31.32 2.37
-5 -11 -11 27.33 2.29
-5 -11 11 29.53 2.58
-5 11 11 35.31 2.67
11 -11 -5 30.88 2.53
11 11 5 33.2 2.37
-11 11 7 0.55 0.26
-11 7 11 0.1 0.35
11 11 7 0.38 0.27
-11 -7 11 0.26 0.27
-7 -11 -11 0.16 0.21
-7 -11 11 0.02 0.28
-7 11 -11 0.44 0.21
7 -11 -11 0.21 0.27
7 -11 11 0.79 0.33
7 11 -11 0.65 0.44
7 11 11 0.33 0.3
11 -11 -7 0.57 0.34
11 -11 7 0.41 0.21
11 -11 7 0.38 0.22
11 -7 -11 0.43 0.33
11 -7 11 0.33 0.26
11 7 -11 0.64 0.41
11 7 11 0.22 0.18
11 7 11 0.49 0.25
11 11 -7 0.69 0.46
11 11 7 0.29 0.23
-11 -11 7 0.68 0.33
-11 9 11 -0.14 0.24
-9 -11 11 0.48 0.36
-9 11 -11 0.53 0.21
-9 11 11 0.14 0.3
-11 11 9 0.55 0.31
-11 -11 9 0.39 0.28
-11 -9 11 0.68 0.36
11 11 9 0.32 0.21
11 11 9 0.2 0.27
11 9 11 0.02 0.21
9 -11 -11 -0.04 0.23
9 -11 11 0.17 0.24
9 11 -11 0.89 0.5
9 11 11 0.03 0.19
9 11 11 0.41 0.28
11 -11 -9 0.11 0.29
11 -11 9 0.16 0.17
11 -11 9 0.16 0.22
11 -9 -11 0.12 0.35
11 -9 11 0.26 0.26
11 9 -11 0.36 0.43
11 9 11 0.08 0.21
11 11 -9 0.62 0.4
11 -11 -11 1.64 0.56
-11 -11 11 1.33 0.49
-11 11 11 1.16 0.46
11 11 11 1.28 0.39
11 -11 11 1.68 0.39
11 -11 11 1.39 0.44
11 11 -11 2.23 0.75
11 11 11 2.12 0.46
-12 0 0 502.35 38.08
0 12 0 542.46 41.55
0 12 -2 1.28 0.18
0 12 2 1.33 0.19
2 0 12 0.83 0.32
12 -2 0 0.2 0.29
12 2 0 1.16 0.34
0 2 -12 1.42 0.37
0 2 12 1.48 0.44
2 12 0 1.22 0.27
-12 0 -2 1.13 0.32
-12 0 2 1.21 0.35
0 -2 -12 1.2 0.33
0 -2 12 1.12 0.38
-12 -2 0 1.12 0.31
-12 2 0 0.92 0.28
-2 0 -12 1.29 0.36
-2 0 12 0.95 0.43
12 0 -2 1.28 0.39
12 0 2 1.1 0.33
0 12 2 1.13 0.19
2 0 -12 1.37 0.43
-12 -2 -2 14.68 1.3
-12 -2 2 13.87 1.36
-2 -12 2 14.5 1.14
-2 -2 -12 14.91 1.33
-2 -2 12 12.63 1.52
-2 2 -12 16.08 1.39
-2 2 12 14.57 1.52
2 -2 -12 16.92 1.45
2 -2 12 15.83 1.45
2 2 -12 15.71 1.45
2 12 -2 15.03 1.26
2 12 2 16.11 1.19
2 12 2 14.83 1.15
12 2 2 16.55 1.4
-12 2 -2 14.61 1.29
-12 2 2 15.69 1.36
0 -4 12 67.4 5.13
0 4 12 61.4 5.08
-12 -4 0 62.98 4.93
-12 4 0 72.58 4.95
-4 0 -12 73.24 4.97
-4 0 12 78.63 5.29
0 12 4 71.81 4.82
4 0 -12 59.05 5.03
4 0 12 76.1 5.12
12 -4 0 73.9 5.06
12 4 0 63.12 5.02
0 12 -4 66.82 4.77
-12 0 4 71.1 5.06
0 -4 -12 65.08 4.97
12 0 4 66.35 4.88
4 12 0 71.77 4.9
12 0 -4 75.61 5.19
12 0 4 70.98 4.99
0 -12 4 70.2 4.78
12 4 2 233.48 16.54
-4 -2 12 275.85 16.85
2 -4 12 241.05 16.7
12 2 -4 252.78 16.72
-2 4 12 226.39 16.65
4 -2 -12 220.4 16.59
4 12 -2 230.95 16.49
12 4 -2 228.17 16.6
-2 -4 12 238.79 16.74
-2 4 -12 244.78 16.53
4 -2 12 255.99 16.64
2 4 12 242.56 16.63
-4 2 12 260.1 16.79
2 12 -4 237.16 16.43
12 -2 -4 229.14 16.68
4 2 -12 257.02 16.68
4 12 4 659.08 45.42
4 12 -4 644.98 46.47
-12 -4 4 529.05 43.03
12 4 4 537.38 41.21
-4 12 -4 524.82 42.6
-4 -12 4 450.15 42.97
6 0 -12 14.55 1.49
6 -12 0 15.12 1.02
0 6 -12 14.91 1.38
0 6 12 16.11 1.53
0 -12 6 15.32 1.28
0 -12 -6 15.42 1.16
6 12 0 14.81 1.32
12 0 -6 14.52 1.53
12 0 6 13.83 1.31
-6 0 12 13.49 1.51
6 0 12 16.71 1.42
6 -12 0 14.35 1.01
-12 -6 0 14.28 1.31
-12 6 0 14.93 1.28
-6 0 -12 15.6 1.3
12 0 6 16.02 1.3
12 6 0 15.05 1.41
-12 0 6 15.26 1.43
12 -6 0 13.67 1.34
0 -6 12 13.77 1.49
0 12 6 15.07 1.27
0 12 -6 14.65 1.22
0 -6 -12 13.57 1.32
-2 12 -6 31.3 2.26
-2 -6 -12 27.98 2.41
-2 -12 6 33.67 2.45
6 -12 2 36.33 2.22
2 -12 -6 31.49 2.27
2 6 -12 31.21 2.55
12 -6 -2 33.64 2.59
-6 -2 12 34.35 2.75
-6 2 -12 28.69 2.4
-2 6 12 29.44 2.59
-12 2 6 34.98 2.6
2 -6 12 33.37 2.63
12 -2 6 34.05 2.42
12 2 -6 33.33 2.76
-12 -6 2 34.02 2.51
12 -2 6 30.69 2.43
6 -2 -12 35.84 2.71
2 12 6 30.71 2.37
12 6 2 28.84 2.5
6 2 12 35.11 2.56
6 -12 2 30.76 2.18
6 12 -2 28.67 2.47
6 12 2 35.39 2.46
12 6 -2 32.68 2.59
6 -12 -2 29.91 2.21
12 2 6 27.91 2.41
12 2 6 30.64 2.4
-6 -2 -12 30.2 2.41
-6 2 12 26.79 2.63
2 -12 6 28.93 2.36
2 12 -6 35.09 2.46
6 12 2 32.2 2.34
12 -2 -6 29.24 2.69
6 -2 12 29.76 2.51
-2 -6 12 32.68 2.7
-2 -12 -6 28.09 2.27
12 -6 2 31.89 2.48
-2 6 -12 29.8 2.46
-12 -2 6 34.13 2.59
2 -6 -12 33.01 2.51
6 2 -12 31.55 2.67
2 6 12 26.97 2.52
-12 -6 -2 31.55 2.43
-2 12 6 34.14 2.44
-12 6 2 33.67 2.45
12 4 -6 267.76 18.26
12 -6 -4 269.1 18.16
6 12 -4 284.19 18.09
-6 -4 12 271.98 18.24
-4 6 12 280.04 18.24
4 6 -12 259.86 18.13
-12 -6 4 271.39 18.03
12 6 4 249.34 17.98
6 -4 -12 240.1 18.07
4 6 12 234.9 17.99
-12 6 4 265.07 17.97
12 -4 -6 290.33 18.24
-6 4 12 260.34 18.23
-4 12 6 246.76 17.88
4 12 -6 253.87 18
6 4 -12 247.4 18.14
12 6 -4 255.07 18.15
-12 -4 6 289.41 18.14
-4 6 -12 270.28 17.93
6 -12 6 125.4 8.83
6 -6 -12 129.61 9.09
6 -6 12 134.48 9.08
6 6 -12 112.14 9.11
-6 -6 -12 146.12 8.97
-6 -6 12 122.19 9.22
-6 6 -12 121.91 8.89
-6 6 12 132.9 9.26
12 -6 6 124.99 8.91
12 -6 6 128.84 8.89
12 6 -6 126.33 9.26
12 6 6 123.93 8.96
6 12 6 130.48 8.89
12 -6 -6 131.54 9.2
-6 12 6 133.8 8.93
12 6 6 147.64 8.96
-12 -6 6 123.8 9.06
-12 6 6 111.02 8.98
-6 -12 6 123.46 8.97
6 12 -6 131.36 9.13
6 12 6 137.03 8.91
12 -8 0 73.79 5.18
12 8 0 65.26 5.19
-8 -12 0 73.1 5.05
0 -12 -8 63.68 4.96
8 -12 0 68.91 4.85
12 0 8 64.66 5.08
0 -12 8 76.42 5.19
0 12 -8 73.11 5.05
-12 0 8 74.06 5.29
8 12 0 63.42 5.13
0 -8 -12 80.27 5.14
0 -8 12 72.29 5.33
0 8 -12 71.05 5.16
0 8 12 77.19 5.33
8 -12 0 67.14 4.96
-12 -8 0 69.82 5.11
-8 0 12 72.62 5.42
8 0 12 70.53 5.18
12 0 8 73.55 5.1
-8 0 -12 74.33 5.1
8 0 -12 79.04 5.41
-12 8 0 72.99 5.04
12 0 -8 64.19 5.34
-2 -8 -12 3.84 0.58
-2 8 12 4.6 0.73
-12 2 8 5.98 0.77
-8 -2 12 5.58 0.88
-8 12 2 4.16 0.44
8 12 -2 4.38 0.71
8 -12 2 5.03 0.45
-2 -12 8 4.47 0.66
-2 12 -8 4.95 0.53
12 -2 8 3.99 0.6
12 -2 8 4.99 0.6
12 2 -8 6.34 0.91
8 -12 2 4.54 0.51
12 -8 -2 4.06 0.64
-12 -8 2 5.01 0.66
2 12 8 4.22 0.61
8 2 12 2.9 0.58
2 -8 12 3.04 0.66
2 8 -12 5.04 0.74
12 8 2 4.3 0.65
8 -2 -12 6.41 0.94
2 -12 -8 4.47 0.52
8 12 2 5.19 0.67
8 -2 12 4.53 0.69
12 8 -2 6.46 0.81
-12 -8 -2 5.23 0.63
12 2 8 4.11 0.58
-12 8 2 4.91 0.59
8 -12 -2 4.93 0.57
2 -8 -12 4.76 0.67
8 2 -12 5.77 0.86
-2 -12 -8 5.21 0.54
-12 -2 8 4.25 0.71
12 -8 2 5.46 0.55
-8 -12 2 4.37 0.54
-8 -2 -12 4.94 0.59
2 8 12 5.96 0.81
2 -12 8 4.06 0.64
2 12 -8 4.94 0.68
-8 2 12 3.23 0.74
-2 8 -12 4.05 0.63
-2 -8 12 4.12 0.83
12 -2 -8 2.9 0.72
12 -8 2 4.57 0.64
8 12 2 4.43 0.53
12 2 8 5.21 0.62
8 -12 4 65.81 4.62
-4 8 12 65.86 5.03
12 8 4 65.29 4.72
-8 12 4 63.68 4.65
-4 -12 8 68.8 4.88
-4 12 -8 70.29 4.63
4 8 -12 67.25 5
-12 -8 4 67.28 4.86
12 -4 8 70.04 4.77
4 12 8 63.12 4.77
8 -4 -12 67.01 5.01
8 -12 4 64.19 4.62
4 -12 -8 55.16 4.66
-8 -4 12 65.39 5.09
8 12 -4 61.97 4.95
12 -8 -4 66.7 4.97
-12 4 8 72.53 4.99
8 4 12 65.38 4.85
12 -4 8 67.2 4.78
-8 4 -12 67.98 4.76
12 4 -8 69.23 5.13
4 -8 12 66.87 4.95
-4 -8 -12 78.52 4.82
12 8 4 54.35 4.78
-8 -4 -12 72.19 4.78
4 12 -8 63.56 4.86
12 -8 4 68.1 4.79
4 -8 -12 63.62 4.83
12 4 8 66.33 4.78
-12 -4 8 68.93 4.98
-4 8 -12 72.76 4.79
12 8 -4 61.29 4.98
-8 -12 4 67.63 4.78
12 4 8 67.69 4.81
12 -8 4 71.04 4.71
8 4 -12 62.94 5.03
4 8 12 63.21 4.86
8 -12 -4 68.1 4.73
-12 8 4 71.94 4.82
8 -4 12 73.8 4.9
8 12 4 53.75 4.73
-4 -8 12 69.75 5.06
8 12 4 61.72 4.69
-4 -12 -8 66.45 4.67
-8 4 12 60.77 5.03
12 -4 -8 63.73 5.07
8 -6 -12 0.3 0.3
-8 6 -12 0.27 0.18
6 12 8 0.21 0.19
8 6 12 -0.04 0.17
12 -6 8 0.4 0.23
12 6 -8 0.19 0.36
8 -12 6 0.18 0.16
-8 -6 12 0.6 0.33
-6 -8 -12 0.48 0.22
6 12 8 0.52 0.26
-6 8 12 0.63 0.38
-6 -12 8 0.32 0.25
-12 -8 6 0.25 0.23
8 12 -6 0.31 0.34
6 8 -12 0.18 0.38
12 8 6 0.4 0.19
12 -6 8 0.4 0.21
12 -8 -6 0.2 0.34
-6 12 -8 0.35 0.14
6 -8 12 0.16 0.27
-12 6 8 0.13 0.22
12 8 6 0.11 0.23
8 -12 6 0.36 0.14
-6 12 8 0.38 0.3
6 12 -8 0.38 0.39
6 -12 8 0.17 0.21
6 -8 -12 0.3 0.29
12 6 8 0.2 0.18
-6 -8 12 -0.16 0.16
-12 8 6 0.26 0.23
8 12 6 0.22 0.18
12 -6 -8 0.36 0.41
-8 -12 6 0.33 0.26
8 -12 -6 0.15 0.22
12 8 -6 0.73 0.41
12 6 8 0.14 0.16
8 -6 12 0.15 0.26
-12 -6 8 0.12 0.25
12 -8 6 0.25 0.21
12 -8 6 0.37 0.18
8 12 6 0.21 0.18
6 8 12 0.64 0.3
8 6 -12 0.4 0.42
-8 6 12 0.53 0.4
-6 8 -12 0.17 0.19
-8 -6 -12 0.16 0.16
12 -8 8 24.73 1.97
8 12 -8 24.07 2.24
8 12 8 20.4 1.92
8 8 -12 24.67 2.28
8 8 12 21.88 2.03
-8 -8 -12 24.13 1.95
-12 -8 8 25.47 2.15
12 8 -8 26.35 2.37
8 -12 8 24.86 1.87
8 -12 8 26.65 2.01
8 -8 -12 24.4 2.14
8 -8 12 24.86 2.1
12 8 8 22.89 1.99
12 8 8 25.22 2.01
-8 8 -12 24.11 1.93
-12 8 8 30.06 2.2
-8 -8 12 25.87 2.25
8 12 8 24.53 1.98
-8 12 8 20.19 1.99
-8 -12 8 23.27 2.06
12 -8 -8 27.02 2.28
8 -12 -8 21.17 1.98
12 -8 8 23.54 1.96
-8 8 12 29.93 2.36
0 12 -10 57.93 4.06
-12 0 10 62.77 4.38
12 0 10 52.21 4.06
-10 0 -12 60.79 4.06
-10 0 12 54.86 4.35
-10 -12 0 54.59 4.03
0 -10 12 51.79 4.25
0 10 -12 54.8 4.09
0 10 12 51.68 4.2
10 12 0 47.32 4.12
10 0 -12 50.02 4.35
10 0 12 54.35 4.11
12 -10 0 57.12 4.13
-12 -10 0 57.89 4.08
0 12 10 56.3 4.18
12 10 0 54.63 4.21
10 -12 0 57.14 4.06
10 -12 0 53.62 3.85
12 0 10 59.18 4.09
0 -12 -10 60.52 4
0 -12 10 50.58 4.16
12 0 -10 67.53 4.52
0 -10 -12 48.06 3.99
2 12 10 11.33 1.1
12 -10 -2 10.76 1.13
10 -12 2 9.77 0.81
-10 12 2 9.79 0.84
-2 -12 10 8.08 1.07
-2 10 12 9.91 1.16
10 2 12 7.92 0.96
-10 -2 12 8.17 1.12
-10 2 -12 8.1 0.89
2 10 -12 9.07 1.08
-2 12 -10 9.62 1.01
-12 -10 2 10.52 1
10 -2 -12 10.51 1.3
-2 -10 -12 7.87 0.89
10 -12 2 9.53 0.93
12 -2 10 11.4 1
12 -2 10 9.27 0.96
12 10 2 8.74 1.04
10 12 -2 7.97 1.07
-12 2 10 8.4 1.11
2 -12 -10 8.5 0.89
12 2 -10 8.82 1.21
2 -10 12 9.2 1.15
-10 -12 2 9.33 0.95
10 -12 -2 9.59 0.99
2 12 -10 10.32 1.07
-2 10 -12 8.67 0.93
-2 -12 -10 8.98 0.88
2 -10 -12 11.15 1.01
-2 12 10 8.17 1.03
12 -10 2 9.42 0.98
12 -10 2 9.64 0.85
2 -12 10 9.09 1.06
2 10 12 8.78 1.06
-12 -2 10 8.54 1.08
10 -2 12 10.57 1.05
12 10 -2 8.98 1.09
-2 -10 12 9.43 1.17
10 2 -12 10.4 1.26
10 12 2 11.44 1.08
-10 -2 -12 8.6 0.9
-10 2 12 10.64 1.26
10 12 2 9.27 0.89
12 2 10 9.61 0.97
12 2 10 8.92 0.96
12 -4 10 91.96 6.6
10 -12 4 90.03 6.5
12 -4 10 95.37 6.63
-12 4 10 106.52 6.92
-12 -10 4 89.13 6.65
-4 -10 -12 81.33 6.52
4 12 10 93.54 6.65
10 -4 -12 81.67 6.79
10 4 12 103.65 6.71
-4 -12 10 84.63 6.72
10 -12 4 86.59 6.44
10 12 -4 96.33 6.86
-4 12 -10 93.29 6.49
12 10 4 91.07 6.67
12 10 4 100.87 6.57
4 -10 12 92.25 6.75
12 4 -10 93.8 6.97
-10 -4 12 92.82 6.88
-10 4 -12 96.59 6.57
12 -10 -4 107.43 6.84
4 -12 -10 101.03 6.6
-4 10 12 105.38 6.91
4 10 -12 102.33 6.82
4 10 12 88.43 6.69
10 -12 -4 88.48 6.63
12 4 10 103.04 6.66
4 -12 10 92.41 6.69
-12 -4 10 99.08 6.84
10 -4 12 83.89 6.63
10 4 -12 92.65 6.94
4 -10 -12 107.93 6.71
10 12 4 83.24 6.61
4 12 -10 99.53 6.77
12 -4 -10 84.93 6.88
-4 -10 12 89.95 6.86
-4 12 10 102.2 6.84
-4 10 -12 88.48 6.54
-12 10 4 98.44 6.69
-10 -4 -12 79.87 6.51
12 4 10 94.01 6.63
-4 -12 -10 85.56 6.49
-10 -12 4 93.1 6.63
10 12 4 83.67 6.5
12 10 -4 95.2 6.86
-10 4 12 98.19 6.93
10 -6 -12 18.22 1.79
10 6 12 19.65 1.66
12 -10 -6 16.35 1.71
-6 10 12 16.34 1.77
6 -10 12 17.19 1.64
12 -6 10 17.67 1.57
6 -12 -10 16.52 1.55
-10 6 -12 19.07 1.53
-12 6 10 14.58 1.7
12 10 6 16.34 1.58
12 10 6 18.18 1.56
-6 -12 10 18.33 1.74
6 10 -12 19.41 1.79
-6 -10 -12 16.37 1.5
-10 -6 12 17.78 1.78
10 -12 6 18.89 1.49
10 -12 6 17.72 1.49
-12 -10 6 18.59 1.66
12 -6 10 19.79 1.59
6 12 10 19.18 1.64
12 6 -10 17.97 1.89
-10 12 6 15.86 1.53
-6 12 -10 16.1 1.44
10 12 -6 16.33 1.78
10 -6 12 20.3 1.68
-6 12 10 17.55 1.7
12 -10 6 18.29 1.51
-10 -6 -12 22.12 1.59
6 12 -10 18.63 1.78
6 -12 10 17.54 1.62
-10 -12 6 17.93 1.62
12 6 10 19.93 1.62
-6 -10 12 17.78 1.8
-6 10 -12 16.64 1.5
12 -10 6 16.74 1.53
6 -10 -12 17.32 1.65
12 10 -6 16.51 1.79
12 6 10 16.03 1.55
-10 6 12 19.29 1.85
-6 -12 -10 19.69 1.52
10 12 6 20.14 1.64
10 12 6 20.35 1.58
12 -6 -10 18.93 1.87
-12 10 6 16.97 1.59
6 10 12 21.6 1.71
10 -12 -6 19.12 1.66
-12 -6 10 20.32 1.79
-8 12 -10 0.35 0.19
10 -12 8 0.09 0.21
10 12 -8 -0.29 0.21
10 -12 8 0.12 0.19
-8 -12 10 0.24 0.24
8 -10 12 -0.15 0.24
12 -8 10 0.13 0.21
12 8 -10 0.35 0.53
12 10 8 0.23 0.2
-8 10 12 0.35 0.36
10 8 12 0.16 0.19
8 12 10 -0.14 0.18
10 -8 -12 0.57 0.36
12 10 8 0.52 0.27
-12 -10 8 0.11 0.28
8 10 -12 0.08 0.39
-12 8 10 0.23 0.29
-10 8 -12 0.03 0.15
-10 12 8 0.43 0.3
-8 -10 -12 0.37 0.23
8 12 10 0.13 0.21
8 -12 -10 0.35 0.28
-10 -8 12 -0.11 0.21
12 -8 10 0.21 0.23
12 8 10 -0.09 0.22
12 -10 8 -0.09 0.15
12 10 -8 0.32 0.47
10 12 8 0.24 0.19
10 8 -12 0.33 0.48
8 12 -10 -0.38 0.3
12 -10 8 0.06 0.15
8 10 12 0.28 0.28
12 8 10 0.04 0.17
-10 8 12 0.26 0.36
-12 -8 10 0.19 0.28
-10 -12 8 0.31 0.32
10 12 8 -0.21 0.17
12 -8 -10 0.36 0.4
-8 -10 12 0.64 0.39
-8 12 10 0.08 0.32
8 -10 -12 -0.02 0.27
8 -12 10 -0.06 0.2
-12 10 8 0.16 0.23
10 -12 -8 -0.02 0.23
10 -8 12 0.09 0.26
12 -10 10 1.37 0.4
12 10 -10 3 0.75
12 10 10 1.84 0.46
12 10 10 1.97 0.45
10 -12 -10 2.22 0.55
10 -12 10 1.47 0.35
10 -12 10 1.55 0.43
10 -10 -12 1.62 0.51
10 -10 12 2.31 0.54
10 10 -12 2.42 0.69
10 10 12 1.24 0.38
10 10 12 1.95 0.45
10 12 -10 2.9 0.71
10 12 10 1.91 0.47
10 12 10 1.98 0.48
12 -10 -10 2.62 0.67
12 -10 10 1.66 0.42
-10 10 12 1.26 0.52
-10 12 10 1.11 0.41
-12 -10 10 1.7 0.52
-12 10 10 1.27 0.46
-10 -12 10 0.98 0.38
-10 -10 12 2.12 0.54
-10 10 -12 1.37 0.35
12 12 0 15.84 1.47
-12 0 12 13.95 1.52
0 -12 -12 16.61 1.31
0 -12 12 14.09 1.52
12 -12 0 14.53 1.16
12 0 -12 13.76 1.58
12 0 12 16.16 1.39
-12 -12 0 14.18 1.31
0 12 12 10.24 1.35
12 -12 0 15.71 1.4
0 12 -12 10.22 1.39
12 -2 12 34.17 2.55
12 -12 2 31.86 2.32
12 2 12 29.22 2.49
2 12 -12 26.28 2.5
2 12 12 32.79 2.62
12 12 2 33.18 2.42
-12 -2 12 32.08 2.75
-12 2 -12 32.32 2.43
-12 2 12 28.42 2.67
12 2 -12 28.74 2.8
12 12 2 30.42 2.57
-12 -12 2 32.01 2.5
-2 -12 -12 32.65 2.42
12 -12 -2 28.5 2.53
12 -12 2 30.52 2.49
12 12 -2 31.83 2.67
-2 -12 12 28.89 2.66
-2 12 -12 33.12 2.45
-2 12 12 25.21 2.73
2 -12 -12 32.78 2.46
2 -12 12 37.03 2.75
-12 12 2 32.02 2.36
12 -12 -4 222.58 17.55
12 -12 4 261.05 17.48
12 -4 -12 266.68 17.88
4 12 12 223.76 17.54
12 12 4 256.78 17.58
-12 12 4 259.89 17.42
-4 -12 12 232.42 17.67
-4 12 -12 254.94 17.41
-4 12 12 264.98 17.75
4 -12 -12 233.75 17.8
4 -12 12 269.69 17.7
4 12 -12 258.89 17.63
12 4 -12 280.75 17.96
12 4 12 276.45 17.58
12 12 -4 248.32 17.74
-12 -12 4 252.23 17.52
-12 -4 12 270.43 17.82
-12 4 12 275.4 17.81
-6 -12 -12 82.01 5.41
-6 -12 12 75.47 5.68
-6 12 -12 72.37 5.35
-6 12 12 84.36 5.77
6 -12 -12 78.76 5.5
6 -12 12 81.61 5.64
6 12 -12 75.82 5.68
6 12 12 77.63 5.57
12 -12 -6 81.65 5.68
12 -12 6 78.21 5.43
12 12 6 62.25 5.45
-12 6 12 79.55 5.75
-12 12 6 79.44 5.48
-12 -12 6 71.05 5.51
-12 -6 12 73.31 5.68
12 -12 6 73.09 5.36
12 -6 -12 79.03 5.77
12 -6 12 74.42 5.52
12 6 -12 69.04 5.8
12 6 12 76.36 5.51
12 12 -6 74.29 5.78
12 12 6 66.59 5.39
12 12 -8 9.47 1.23
-12 -12 8 8.81 1.05
-12 -8 12 8.67 1.12
-12 8 12 8.55 1.15
-12 12 8 8.2 0.96
-8 -12 12 6.99 1.06
-8 12 -12 8.16 0.83
-8 12 12 7.77 1.12
8 -12 -12 8.5 1.03
8 -12 12 7.43 0.98
8 12 -12 9.99 1.25
8 12 12 9.14 1.04
12 -12 -8 6.88 1
12 -12 8 7.33 0.85
12 -12 8 9.3 0.95
12 -8 -12 6.61 1.1
12 -8 12 9.67 1.02
12 8 -12 10.14 1.31
12 8 12 7.15 0.91
12 8 12 8.84 1
12 12 8 7.92 0.95
12 12 8 8.74 0.93
12 10 12 39.62 2.79
12 10 12 35.17 2.79
12 12 -10 37.76 3.15
12 12 10 31.51 2.69
12 10 -12 27.21 2.98
12 -12 -10 33.47 2.89
12 -12 10 32.35 2.65
12 -12 10 33.44 2.74
12 -10 -12 33.91 2.93
12 -10 12 33.33 2.68
12 -10 12 34.17 2.8
10 -12 12 35.54 2.85
10 12 -12 32.59 3.06
10 12 12 35.67 2.75
10 12 12 30.64 2.73
-12 -12 10 33.78 2.89
-12 -10 12 38 3
-12 10 12 36.16 2.95
-12 12 10 39.68 2.91
-10 -12 12 34.77 2.9
-10 12 12 38.17 2.99
10 -12 -12 30.45 2.81
12 12 12 47.14 3.86
12 -12 -12 49.16 4.02
12 -12 12 54.56 3.85
12 -12 12 52.03 3.96
-12 12 12 52.76 4.1
12 12 12 49.61 3.88
-12 -12 12 49.68 4.03
12 12 -12 52.82 4.26
-13 1 -1 52.58 3.98
-13 -1 -1 54.56 4
-13 -1 1 55.14 4.02
13 1 -1 53.25 4.13
13 1 1 54.44 4.1
1 13 1 52.44 3.8
1 13 1 54.07 3.76
13 -1 -1 57.15 4.15
13 -1 1 53.63 4.1
1 13 -1 54.67 3.81
1 13 -1 54.26 3.74
-13 1 1 56.12 4.02
-1 -1 -13 59.22 4.09
-1 -1 13 55.63 4.22
-1 1 -13 56.63 4.08
-1 1 13 57.22 4.23
1 -1 -13 48.03 4.04
1 -1 13 61.49 4.24
1 1 -13 55.03 4.1
1 1 13 55.74 4.21
13 -3 -1 58.73 4.66
1 13 3 60.37 4.39
-13 1 3 62.67 4.63
-1 -3 -13 71.69 4.67
-3 -1 13 68.27 4.89
3 1 13 63.8 4.74
-1 3 13 61.67 4.77
13 3 1 65.77 4.7
1 -3 13 63.19 4.77
1 3 -13 67.64 4.7
-13 3 -1 63.48 4.56
3 13 -1 61.37 4.51
13 1 -3 72.53 4.84
3 -1 -13 69.67 4.77
-3 1 -13 61.69 4.58
13 -1 3 66.39 4.66
1 13 3 64.27 4.39
-13 -3 1 67.22 4.61
-1 -13 3 64.74 4.35
3 13 1 60.28 4.46
13 -1 -3 64.01 4.77
-3 1 13 62.71 4.83
1 3 13 70.63 4.79
-1 13 3 67.03 4.34
-1 13 3 52.88 4.39
1 13 -3 62.1 4.41
-3 -1 -13 57.2 4.56
-13 -1 3 59.66 4.62
3 13 1 62.82 4.38
3 -1 13 64.18 4.74
-1 -3 13 65.16 4.82
-1 3 -13 58.59 4.61
13 -3 1 60.9 4.65
13 3 -1 71.55 4.77
1 -3 -13 70.37 4.69
13 1 3 55.98 4.6
-13 -3 -1 59.44 4.57
-13 3 1 62.91 4.56
3 1 -13 59.46 4.71
3 -3 -13 161.96 11.47
-3 3 13 158.08 11.59
-3 -3 13 143.69 11.54
-13 3 3 159.97 11.37
3 13 -3 163.66 11.3
-3 3 -13 156.11 11.34
13 3 -3 171.17 11.55
13 3 3 163.92 11.41
-13 -3 3 172.47 11.42
13 -3 -3 177.86 11.57
13 -3 3 162.1 11.38
3 -3 13 173 11.51
3 3 -13 166.24 11.5
3 3 13 173.58 11.52
1 13 5 66.38 4.14
-1 -5 -13 69.29 4.38
1 13 5 58.35 4.2
5 -1 -13 50.76 4.39
-13 -5 1 59.38 4.31
-13 5 -1 57.21 4.26
-5 -1 13 63.21 4.64
-5 1 -13 64.73 4.32
5 1 13 53.15 4.36
-1 -13 5 59.51 4.17
1 -13 -5 57.12 4.06
13 5 1 56.35 4.4
13 -1 5 61.22 4.25
-1 5 13 64.88 4.54
13 1 -5 56.87 4.51
1 5 -13 56.37 4.39
13 -5 -1 65.85 4.47
-13 1 5 56.59 4.38
1 -5 13 58.17 4.49
5 13 -1 53.11 4.27
13 -1 5 60.2 4.33
-1 13 -5 60.28 4.08
5 1 -13 47.78 4.39
1 5 13 69.2 4.54
5 13 1 52.92 4.22
-1 5 -13 55.52 4.34
-13 5 1 60.93 4.28
-5 -1 -13 67.29 4.33
5 -1 13 60.14 4.43
13 -1 -5 60.73 4.56
13 1 5 57.84 4.32
5 13 1 62.12 4.14
-5 1 13 65.74 4.66
1 13 -5 58.56 4.18
-13 -5 -1 53.21 4.26
1 -5 -13 51.73 4.31
-13 -1 5 58.96 4.41
13 1 5 57.74 4.24
-5 -13 1 59.71 4.17
1 -13 5 53.43 4.16
-1 -5 13 63.22 4.58
13 5 -1 58.37 4.45
13 -5 1 62.59 4.38
3 5 -13 271.21 17.39
-5 3 -13 235.26 17.16
3 -5 13 244.38 17.37
-3 5 13 277.06 17.54
5 -3 -13 238.25 17.33
13 -5 -3 251.12 17.37
-13 -5 3 257.04 17.28
-5 -3 13 249.49 17.52
13 3 -5 241.65 17.43
13 5 -3 258.3 17.42
-3 5 -13 260.17 17.22
-3 -5 13 288.76 17.61
13 -3 -5 272.81 17.53
5 3 -13 241.48 17.4
13 -5 3 242.37 17.22
3 13 -5 244.76 17.2
-5 3 13 217.68 17.4
13 5 -5 381.1 26.4
-5 -5 13 406.92 26.47
-5 5 13 401.13 26.45
13 -5 -5 354.89 26.34
-1 7 13 20.05 1.8
1 -13 -7 19.36 1.46
-13 7 -1 17.11 1.53
-1 -7 -13 16.56 1.57
13 -1 7 20.99 1.65
-1 -13 7 17.69 1.57
13 1 -7 21.14 1.92
7 -13 1 17.5 1.3
13 7 1 16.02 1.68
7 1 13 20.01 1.71
-7 -1 13 17.78 1.84
7 -1 -13 19.78 1.81
-13 1 7 17.93 1.72
13 -1 7 18.39 1.57
1 -7 13 18.26 1.79
1 7 -13 19.75 1.73
-7 1 -13 17.83 1.57
-1 13 -7 19.15 1.48
-13 -7 1 20.49 1.63
7 -13 1 18.79 1.33
13 -7 -1 19.01 1.72
7 13 -1 18.61 1.67
-1 -7 13 20.01 1.86
7 -1 13 20.25 1.7
1 -13 7 19.56 1.61
-7 -13 1 17.76 1.51
-1 13 7 18.8 1.6
1 -7 -13 18 1.62
13 1 7 20.11 1.65
13 1 7 18.1 1.57
-7 -1 -13 20.19 1.6
7 -13 -1 18.41 1.31
-7 1 13 18.66 1.89
-1 -13 -7 19.99 1.46
-13 7 1 20.61 1.59
13 -7 1 19.79 1.68
13 7 -1 21.17 1.82
7 -13 -1 19.21 1.35
-13 -1 7 17.46 1.7
7 1 -13 22.37 1.9
7 13 1 16.88 1.59
7 13 1 20.99 1.5
13 -1 -7 16.79 1.79
-1 7 -13 19.8 1.68
1 7 13 16.75 1.72
-13 -7 -1 17.42 1.58
-13 3 7 33.83 2.7
13 -3 7 34.93 2.54
-3 -13 7 38.03 2.6
-3 13 -7 34.11 2.37
-7 3 -13 36.54 2.57
3 13 7 34.84 2.54
13 7 3 33.7 2.64
13 7 3 35.07 2.52
-3 7 13 27.27 2.72
13 -3 7 31.8 2.55
3 -13 -7 30.03 2.39
7 13 -3 33.22 2.71
-7 13 3 31.86 2.32
7 3 13 29.57 2.61
3 -7 13 33.08 2.74
3 7 -13 34.65 2.74
13 -7 -3 31.11 2.69
-13 -7 3 33.07 2.62
-7 -3 13 35.96 2.9
13 3 -7 29.44 2.82
-3 -7 -13 32.02 2.53
7 -13 3 31.96 2.34
7 -13 3 32.88 2.33
7 -3 -13 37.56 2.84
3 13 -7 33.08 2.6
13 -3 -7 29.88 2.77
3 -7 -13 32.08 2.6
13 -7 3 35.33 2.49
-3 13 7 37.23 2.61
3 -13 7 30.69 2.51
7 -3 13 30 2.62
-3 7 -13 35.87 2.6
7 3 -13 37.05 2.85
-7 -13 3 33 2.5
13 -7 3 32.5 2.6
13 3 7 29.63 2.51
7 13 3 32.48 2.54
-7 -3 -13 27.57 2.5
-13 7 3 33.58 2.58
7 13 3 34.94 2.47
13 3 7 34.67 2.59
-3 -7 13 29.43 2.77
3 7 13 29.85 2.68
7 -13 -3 33.99 2.38
-13 -3 7 36.53 2.75
13 -5 7 67.18 4.83
-5 -7 -13 64.89 4.82
5 -7 13 75.5 5.04
-13 5 7 68.06 4.97
7 5 13 65.55 4.95
-7 13 5 65.53 4.71
5 13 7 66.47 4.77
-13 -7 5 64.44 4.92
7 -5 -13 70.48 5.04
7 -13 5 66.08 4.65
13 -5 7 64.12 4.8
13 7 5 72.56 4.95
-5 -13 7 67.55 4.89
-5 13 -7 65.63 4.63
7 -13 5 64.69 4.68
7 13 -5 58.61 4.96
5 13 7 71.74 4.82
13 -7 -5 68.16 5.07
13 5 -7 66.49 5.16
13 7 5 64.08 4.79
5 -13 -7 70.16 4.74
-5 7 13 70.05 5.14
-7 -5 13 65.98 5.16
-7 5 -13 68.42 4.83
5 7 -13 70.78 5.1
-5 -7 13 74.11 5.2
7 -13 -5 71.53 4.74
-7 -13 5 66.41 4.84
-5 13 7 62.18 4.84
13 -5 -7 69.04 5.15
13 -7 5 63.06 4.85
13 5 7 73.34 4.9
13 5 7 58.86 4.79
5 13 -7 63.74 4.97
5 -13 7 64.48 4.78
5 7 13 72.26 5
5 -7 -13 66.56 4.98
7 13 5 69.72 4.78
7 5 -13 62.48 5.06
-7 -5 -13 68.73 4.84
-13 7 5 64.98 4.9
7 -5 13 64.5 4.95
-5 7 -13 65.49 4.82
7 13 5 74.52 4.85
-7 5 13 63.24 5.12
-13 -5 7 66.31 5.01
13 -7 5 65.83 4.78
-7 -7 13 17.51 1.87
-7 -7 -13 20.42 1.59
7 -13 7 19.25 1.43
7 -7 -13 17.03 1.68
-7 7 13 17.33 1.83
13 -7 7 19.16 1.54
-7 -13 7 16.89 1.62
7 7 13 15.82 1.64
7 13 -7 17.26 1.75
13 -7 -7 16.52 1.82
13 -7 7 18.2 1.56
-7 7 -13 17.29 1.53
13 7 -7 20.46 1.96
7 -13 -7 20.03 1.55
13 7 7 16.06 1.53
7 13 7 21.08 1.59
7 13 7 19.4 1.56
7 -7 13 18.72 1.7
7 7 -13 19.89 1.84
-13 -7 7 15.46 1.65
7 -13 7 17.74 1.51
-13 7 7 21.18 1.72
13 7 7 15.22 1.54
-9 1 -13 14.09 1.28
9 -13 1 14.16 1.09
9 13 -1 15.96 1.48
-13 -9 1 16.36 1.37
13 1 -9 12.6 1.54
13 -1 9 15.34 1.31
-1 -9 -13 13.88 1.28
-1 13 -9 13.88 1.23
13 -1 9 15.56 1.34
13 9 1 13.04 1.38
-13 1 9 15.4 1.48
-1 9 13 13.51 1.47
1 -9 13 15.7 1.58
9 -13 1 14.41 1.21
1 9 -13 13.81 1.37
9 -1 -13 11.81 1.51
-9 -1 13 15.7 1.69
9 1 13 15.27 1.41
13 -9 -1 12.41 1.37
-1 -13 9 12.3 1.49
-1 -13 -9 15.4 1.22
1 -9 -13 15.97 1.34
-1 13 9 11.82 1.32
9 1 -13 17.22 1.62
-13 9 1 14.27 1.26
9 -13 -1 14.78 1.23
-13 -9 -1 13.42 1.29
-1 -9 13 16.19 1.61
13 1 9 14.41 1.32
-9 -13 1 13.2 1.25
13 -1 -9 11.99 1.52
1 -13 9 13.21 1.37
13 -9 1 16.55 1.41
9 13 1 15.2 1.23
1 13 -9 15.54 1.34
1 9 13 16.14 1.48
9 -1 13 13.1 1.38
13 1 9 14.62 1.33
-9 1 13 17.14 1.67
13 9 -1 14.56 1.45
-1 9 -13 15.85 1.38
-9 -1 -13 15.4 1.31
-13 -1 9 15.05 1.49
9 13 1 12.42 1.32
9 -13 -1 13.45 1.07
3 9 -13 15.41 1.44
-3 13 -9 13.13 1.11
13 3 -9 11.56 1.45
3 -13 -9 14.24 1.17
3 -9 13 12.56 1.39
-13 3 9 12.9 1.36
9 3 13 12.35 1.29
9 -3 -13 14 1.46
-9 3 -13 13.43 1.2
13 9 3 14.12 1.33
9 13 -3 9.85 1.3
13 9 3 14.48 1.21
-3 -9 -13 10.09 1.15
3 13 9 13.51 1.25
-9 -3 13 12.01 1.44
13 -9 -3 13.87 1.41
9 -13 3 12.92 1.11
9 -13 3 13.11 1.05
-3 -13 9 12.13 1.29
-3 9 13 12.69 1.46
13 -3 9 12.82 1.22
-13 -9 3 13.11 1.28
-9 13 3 12.17 1.04
13 -3 9 12.61 1.22
13 3 9 13.1 1.23
9 3 -13 15.88 1.56
13 -9 3 13.28 1.3
13 -9 3 14.21 1.16
3 -9 -13 14.68 1.33
-13 9 3 14.4 1.23
-9 -3 -13 11.52 1.16
-9 3 13 12.12 1.51
3 -13 9 13.96 1.32
-3 13 9 15.83 1.4
13 3 9 13.09 1.25
3 9 13 15.29 1.41
9 13 3 13.07 1.28
-13 -3 9 13.12 1.38
-3 -13 -9 12.42 1.12
-9 -13 3 13.53 1.21
9 13 3 15.31 1.19
-3 -9 13 12.28 1.42
-3 9 -13 12.3 1.22
13 9 -3 12.25 1.38
9 -13 -3 13.92 1.18
9 -3 13 14.92 1.35
13 -3 -9 13.19 1.56
5 13 9 14.86 1.4
9 -13 5 15.23 1.26
5 9 -13 16.06 1.62
-13 -9 5 14.76 1.46
5 -13 -9 14.83 1.32
13 -9 -5 13.15 1.52
5 -9 13 14.97 1.55
13 -5 9 14.42 1.36
9 13 -5 14.99 1.59
9 -5 -13 13.75 1.56
13 9 5 16.31 1.46
13 9 5 13.22 1.3
-9 13 5 14.37 1.28
-5 -9 -13 14.87 1.36
-9 -5 13 16.23 1.69
-9 5 -13 16.79 1.38
9 -13 5 14.63 1.25
-5 -13 9 15.02 1.47
-5 13 -9 15.44 1.24
9 5 13 17.46 1.51
-13 5 9 15.06 1.51
13 5 -9 15.91 1.75
13 -5 9 13.03 1.33
-5 9 13 19.46 1.75
5 -13 9 13.48 1.39
-13 9 5 16.31 1.43
13 -9 5 14.37 1.3
9 5 -13 16.77 1.67
5 13 -9 16.04 1.54
13 5 9 17 1.44
13 5 9 17.88 1.43
-13 -5 9 16.17 1.55
-9 -13 5 15.17 1.41
9 13 5 13.66 1.31
13 -5 -9 16.08 1.66
9 13 5 13.52 1.36
-5 13 9 15.48 1.49
13 9 -5 16.72 1.65
5 -9 -13 18.43 1.51
9 -5 13 15.78 1.48
-5 9 -13 16.75 1.37
13 -9 5 14.79 1.38
-5 -9 13 15.19 1.65
-9 -5 -13 16.39 1.38
5 9 13 13.29 1.43
9 -13 -5 16.38 1.38
-9 5 13 15.24 1.63
13 9 7 14.14 1.39
-7 -9 -13 18.21 1.39
9 7 13 17.13 1.5
9 -13 7 13.4 1.22
7 13 9 16.38 1.38
7 13 9 16.24 1.4
7 -13 -9 17.51 1.4
-9 -7 13 15.09 1.6
13 9 7 13.14 1.33
13 7 -9 12.61 1.65
-7 9 13 12.8 1.58
9 -13 7 14.01 1.3
13 -9 -7 15.74 1.63
13 -7 9 17 1.4
-13 7 9 15.49 1.51
-9 13 7 14.97 1.36
-7 -13 9 14.21 1.45
9 13 -7 13.56 1.6
-13 -9 7 16.32 1.53
9 -7 -13 14.32 1.54
13 -7 9 13.58 1.34
-9 7 -13 14.1 1.3
7 -9 13 14.12 1.48
7 9 -13 13.68 1.59
-7 13 -9 14.68 1.21
13 9 -7 16.46 1.75
9 -7 13 13.82 1.42
7 -13 9 16.76 1.44
7 9 13 12.23 1.39
7 -9 -13 16.92 1.55
-9 7 13 14.37 1.64
-13 -7 9 16.51 1.7
9 13 7 16.77 1.38
-9 -13 7 14.77 1.43
-9 -7 -13 13.74 1.31
-7 -9 13 17.13 1.65
9 -13 -7 16.12 1.39
13 7 9 11.63 1.33
13 7 9 16.2 1.42
13 -9 7 17.73 1.41
-7 13 9 13.65 1.44
7 13 -9 18.37 1.66
-7 9 -13 15.32 1.32
9 13 7 13.83 1.34
13 -7 -9 13.53 1.62
9 7 -13 14.01 1.59
-13 9 7 14.91 1.46
13 -9 7 15.43 1.34
9 -13 -9 19.23 1.62
-13 -9 9 15.91 1.65
9 -13 9 15.71 1.51
-9 -13 9 17.55 1.64
9 -9 13 16.5 1.64
9 13 9 18.53 1.54
9 13 9 15.86 1.51
-9 9 13 17.92 1.83
-9 13 9 16.11 1.58
9 -9 -13 15.42 1.64
13 9 9 18.59 1.56
9 9 -13 19.09 1.87
9 -13 9 16.5 1.41
13 -9 -9 13.9 1.71
9 9 13 17.98 1.63
9 13 -9 13.76 1.71
-13 9 9 17.98 1.68
-9 -9 -13 15.09 1.44
-9 9 -13 17.45 1.46
13 9 -9 16.68 1.87
13 9 9 19.61 1.58
-9 -9 13 16.68 1.72
-11 -1 13 5.4 0.85
11 -1 -13 3.44 0.84
13 11 1 3.78 0.7
1 -13 -11 4.56 0.56
11 13 -1 3.48 0.72
13 1 -11 3.33 0.86
1 13 11 3.16 0.67
-11 1 -13 2.46 0.51
-13 1 11 3.1 0.75
-1 -13 11 3.1 0.69
1 11 -13 5.22 0.73
-1 13 -11 4.47 0.6
13 -11 -1 3.9 0.72
-1 -11 -13 2.88 0.55
11 -13 1 4.7 0.62
-13 -11 1 4.96 0.66
11 -13 1 4.89 0.47
11 1 13 3.57 0.59
-1 11 13 3.71 0.78
1 -11 13 3.91 0.78
-1 -13 -11 4.84 0.58
-13 -11 -1 4.26 0.57
-13 -1 11 3.46 0.76
-13 11 1 4.15 0.55
-11 -1 -13 4.46 0.57
11 -1 13 3.1 0.61
11 1 -13 5.37 0.96
13 -1 -11 5.49 1
-1 11 -13 4.48 0.65
-11 1 13 3.82 0.79
1 -11 -13 4.41 0.59
-1 -11 13 3.8 0.8
11 -13 -1 3.9 0.62
13 1 11 3.7 0.57
1 -13 11 5.63 0.85
1 13 -11 3.71 0.61
-11 -13 1 3.67 0.58
13 -11 1 4.34 0.7
13 -11 1 4.06 0.5
13 11 -1 3.61 0.7
11 -13 -1 4.4 0.45
-1 13 11 4.56 0.74
1 11 13 4.32 0.81
11 13 1 3.73 0.71
13 1 11 3.04 0.6
3 -13 -11 164.94 12.24
3 13 11 174.39 12.47
13 -3 11 193.07 12.36
13 -3 11 188.34 12.38
13 3 -11 164.82 12.64
3 -11 13 183.25 12.58
3 11 -13 176.46 12.46
-11 -3 13 180.21 12.64
-11 3 -13 173.64 12.26
13 11 3 199.26 12.29
13 -11 -3 183.9 12.51
11 13 -3 172.33 12.52
11 -13 3 178.12 12.25
-3 -13 11 183.36 12.54
13 11 3 162.13 12.4
-3 -11 -13 181.05 12.28
-13 -11 3 178.15 12.34
-3 13 -11 171.9 12.22
11 -3 -13 157.68 12.55
11 3 13 185.74 12.4
-13 3 11 167.68 12.56
-3 11 13 161.89 12.52
11 -13 3 184.27 12.15
-3 -11 13 177.73 12.6
-11 -3 -13 173.45 12.26
-13 -3 11 179.95 12.55
11 13 3 162.71 12.22
-11 -13 3 177.08 12.3
-3 11 -13 165.99 12.37
13 3 11 200.64 12.4
-3 13 11 182.35 12.53
11 -3 13 185.01 12.43
-11 3 13 185.2 12.66
13 -3 -11 167.48 12.65
11 -13 -3 188.42 12.39
11 13 3 180.35 12.42
3 13 -11 180.59 12.42
13 -11 3 188.67 12.37
13 -11 3 177.25 12.19
13 11 -3 164.15 12.53
11 3 -13 184.06 12.73
13 3 11 181.56 12.36
3 -13 11 167.09 12.44
3 -11 -13 188.86 12.36
3 11 13 198.38 12.54
-13 11 3 192.43 12.26
-3 -13 -11 168.65 12.21
-5 -13 11 194.53 12.82
-11 -5 13 177.31 12.81
5 -13 -11 172.63 12.5
-5 -11 -13 195.96 12.51
13 11 5 199.15 12.52
5 13 11 177.62 12.59
-13 -11 5 179.41 12.62
11 -5 -13 192.72 12.87
5 -11 13 178.48 12.71
-5 13 -11 181.12 12.41
-5 11 13 152.36 12.71
-13 5 11 156.92 12.7
13 -11 -5 171.23 12.71
5 11 -13 193.64 12.78
13 -5 11 181.15 12.53
11 -13 5 182.87 12.46
11 -13 5 175.83 12.39
11 13 -5 182.14 12.84
11 5 13 179.91 12.6
-11 5 -13 184.21 12.47
-11 13 5 174.68 12.44
13 11 5 207.54 12.7
13 -5 11 181.99 12.56
13 5 -11 192.02 12.97
5 11 13 157.68 12.58
-11 -5 -13 161.52 12.45
11 -5 13 194.97 12.66
13 5 11 200.25 12.61
-5 -13 -11 187.39 12.45
-13 -5 11 183.39 12.77
-5 11 -13 169.43 12.44
-11 -13 5 190.2 12.61
13 -11 5 177.67 12.53
5 -13 11 169.15 12.62
-5 -11 13 192.25 12.86
13 11 -5 181.85 12.86
-11 5 13 171.18 12.81
5 13 -11 185.17 12.71
13 5 11 181.24 12.57
13 -11 5 177.74 12.42
-13 11 5 175.64 12.52
5 -11 -13 164.12 12.54
-5 13 11 195.61 12.79
11 13 5 208.33 12.67
11 13 5 183.69 12.49
13 -5 -11 182.98 12.89
11 5 -13 185.33 12.94
11 -13 -5 179.96 12.59
13 -7 11 25.03 2.16
7 -13 -11 26.4 2.16
7 13 11 28.44 2.25
-7 13 -11 25.1 2.01
-13 7 11 23.91 2.3
11 -13 7 27.43 2.12
13 7 -11 25.08 2.47
11 13 -7 22.44 2.38
-11 13 7 27.65 2.19
-7 -11 -13 30.1 2.14
7 -11 13 26.55 2.3
-7 11 13 23.08 2.35
-11 7 -13 26.62 2.09
11 -7 -13 26.22 2.42
13 -7 11 27.06 2.16
-13 -11 7 28.08 2.29
11 -13 7 25.92 2.07
13 -11 -7 28.51 2.41
13 11 7 22.42 2.08
-11 -7 13 24.95 2.36
11 7 13 25.87 2.2
-7 -13 11 27.06 2.33
7 11 -13 24.88 2.38
13 11 -7 26.4 2.49
13 7 11 22.4 2.11
-11 7 13 27.02 2.4
7 -13 11 26.72 2.26
7 13 -11 28.99 3.03
-7 13 11 30.52 2.42
11 7 -13 26.69 2.55
11 -7 13 25.98 2.23
13 -11 7 27.95 2.12
-7 -11 13 23.66 2.33
-7 11 -13 26.36 2.08
13 7 11 24.79 2.32
7 11 13 25.58 2.25
11 -13 -7 25.86 2.24
11 13 7 26.21 2.13
13 -7 -11 25.97 2.44
-11 -13 7 24.41 2.21
13 -11 7 23.97 2.11
-13 -7 11 26.97 2.38
-13 11 7 29.92 2.26
11 13 7 30.17 2.24
11 9 13 20.4 1.8
11 9 13 22.26 1.91
13 -9 11 19.96 1.85
13 9 -11 20.59 2.14
13 11 9 20.47 1.84
13 11 9 18.56 1.78
11 -13 9 20.73 1.82
11 -13 9 21.13 1.75
9 -13 -11 19.97 1.89
-11 -9 13 22.35 2.08
-11 9 -13 21.59 1.74
-9 -13 11 20.82 1.98
11 13 -9 24.3 2.23
13 -9 11 22.73 1.83
9 13 11 22.81 1.84
9 13 11 21.81 1.88
11 -9 -13 21.43 2.07
-13 -11 9 24.64 2.04
13 -11 -9 22.24 2.06
-13 9 11 24.47 2.07
9 -11 13 20.66 1.94
-11 13 9 22.74 1.93
-9 11 13 22.63 2.13
9 11 -13 20.52 2.1
9 -11 -13 21.52 1.98
-11 9 13 20.93 2.04
9 13 -11 19.9 2.1
9 11 13 22.36 1.94
11 -13 -9 17.62 1.86
-9 13 11 24.57 2.04
11 13 9 18.82 1.8
-13 11 9 22.56 1.95
13 -9 -11 21.61 2.08
11 -9 13 20.5 2.04
11 9 -13 20.22 2.14
13 9 11 19.03 1.81
13 9 11 17.66 1.79
-13 -9 11 21.72 2
13 -11 9 18.76 1.75
13 -11 9 22.96 1.85
13 11 -9 21.85 2.23
-9 -11 13 20.41 2.04
-9 11 -13 20.3 1.73
11 13 9 24.64 1.9
-11 -13 9 21.45 1.94
9 -13 11 20.38 1.89
-11 11 13 58.28 4.73
-11 13 11 53.53 4.61
11 -13 -11 65.41 4.67
11 -13 11 60.57 4.43
-11 -13 11 57.95 4.64
-11 -11 13 61.77 4.74
11 -11 13 59.78 4.64
11 11 -13 65.38 4.96
11 11 13 66.61 4.55
11 11 13 65.12 4.61
11 13 -11 57.32 4.83
11 13 11 55.54 4.5
13 -11 -11 60.2 4.74
13 -11 11 60.59 4.48
13 -11 11 61.62 4.57
13 11 -11 60.66 4.89
13 11 11 63.7 4.57
13 11 11 64.81 4.55
-13 11 11 65.33 4.7
11 -11 -13 57.41 4.65
-13 -11 11 57.01 4.64
11 -13 11 56.53 4.55
1 13 13 2.84 0.66
13 -13 1 2.37 0.57
13 -13 1 3.27 0.43
13 -1 -13 3.08 0.74
13 -13 -1 2.8 0.64
1 -13 13 2.88 0.69
1 13 -13 3.68 0.67
1 -13 -13 3.33 0.54
-1 13 13 2.88 0.68
-1 -13 -13 2.68 0.5
-1 -13 13 2.45 0.7
-1 13 -13 2.67 0.55
-13 -13 1 2.62 0.52
-13 -1 13 3.3 0.73
-13 1 13 3.2 0.8
13 1 13 3.86 0.59
13 13 -1 2.65 0.7
13 13 1 2.57 0.62
13 -1 13 3.52 0.66
13 1 -13 3.22 0.76
3 -13 -13 132.29 8.64
3 -13 13 123.57 8.89
3 13 -13 117.81 8.75
3 13 13 120.58 8.79
13 3 -13 123.46 9.03
13 3 13 118.17 8.63
13 3 13 135.98 8.74
13 13 -3 116.05 8.87
13 13 3 108.46 8.73
13 13 3 109.53 8.53
-3 13 -13 116.54 8.57
-3 13 13 119.58 8.89
13 -13 -3 113.38 8.73
13 -13 3 128.12 8.66
13 -13 3 127.06 8.5
13 -3 -13 137.35 9.1
13 -3 13 127.99 8.71
-13 -13 3 123.88 8.66
-13 -3 13 122.5 8.94
-13 3 13 124.33 8.93
-13 13 3 125.57 8.53
-3 -13 -13 137.92 8.63
-3 -13 13 118.9 8.92
13 5 13 188.91 11.83
-13 -13 5 180.74 11.84
13 13 5 167.72 11.72
13 -13 5 174.54 11.66
13 -5 -13 156.78 12.04
13 -5 13 157.6 11.81
13 5 -13 150.85 12.08
13 13 -5 185.03 12.22
13 13 5 183.55 11.91
13 -13 -5 169.69 11.93
13 -13 5 167.34 11.76
-13 -5 13 168.89 12.03
13 5 13 181.68 11.85
5 13 -13 166.62 11.92
-5 13 13 162.34 12.03
5 -13 -13 179.43 11.81
5 -13 13 175.24 11.99
-5 -13 13 159.64 11.97
-5 13 -13 172.52 11.68
-13 13 5 170.07 11.7
-5 -13 -13 154.7 11.65
-13 5 13 155.22 11.99
13 13 7 13.08 1.23
13 13 -7 12.51 1.56
13 13 7 11.39 1.28
13 7 -13 12.9 1.64
13 7 13 14.93 1.48
13 -7 -13 15.71 1.62
13 -7 13 13.73 1.24
13 -7 13 13.48 1.32
13 -13 7 13.53 1.21
-7 13 13 11.6 1.42
13 -13 -7 12.04 1.38
13 -13 7 11.82 1.2
7 -13 -13 13.13 1.31
7 -13 13 10.5 1.32
7 13 -13 12.13 1.45
7 13 13 11.84 1.28
-13 -13 7 11.8 1.28
-13 -7 13 11.94 1.39
-13 7 13 10.1 1.38
-13 13 7 12.29 1.22
-7 -13 -13 13.26 1.2
-7 -13 13 14.36 1.5
-7 13 -13 11.98 1.15
13 9 13 11.59 1.28
13 9 13 16.09 1.41
13 13 -9 10.13 1.48
13 13 9 14.88 1.38
13 13 9 13.04 1.29
9 -13 13 14.38 1.44
9 13 -13 14.08 1.54
9 13 13 14.29 1.3
9 13 13 11.64 1.31
13 -13 -9 11.57 1.43
13 -13 9 13.74 1.27
-13 -13 9 12.89 1.36
-13 -9 13 10.57 1.4
-13 9 13 14.44 1.55
-13 13 9 12.24 1.33
-9 13 -13 13.07 1.17
-9 13 13 14.26 1.53
9 -13 -13 15.66 1.45
13 -9 13 9.92 1.27
13 -13 9 12.03 1.27
13 -9 -13 13.77 1.6
13 -9 13 12.8 1.27
13 9 -13 11.78 1.55
11 -13 13 110.61 7.48
-11 13 13 105.84 7.77
11 -13 -13 97.01 7.65
-13 -11 13 109.84 7.79
-13 11 13 100.19 7.75
-13 13 11 111.64 7.72
-13 -13 11 101.25 7.69
13 11 13 101.75 7.58
13 13 -11 105.04 7.94
13 13 11 117.36 7.6
13 13 11 100.18 7.55
13 -11 13 105.73 7.64
13 11 -13 107 7.96
13 11 13 98.55 7.53
13 -11 13 99.83 7.5
13 -11 -13 112.74 7.87
13 -13 11 112.82 7.52
13 -13 11 107.81 7.61
11 13 13 118.78 7.69
11 -13 13 108.77 7.7
11 13 -13 111.37 7.94
11 13 13 85.92 7.45
13 -13 -11 103.73 7.76
13 -13 -13 56.27 4.31
13 13 13 45.05 4.06
13 13 13 58.75 4.19
13 13 -13 61.68 4.61
13 -13 13 57.37 4.28
-13 13 13 52.01 4.25
13 -13 13 50.6 4.05
0 0 14 263.79 17.21
14 0 0 233.68 17.04
0 14 2 0.57 0.13
2 0 -14 1.05 0.36
2 0 14 0.54 0.33
14 -2 0 1.09 0.4
-14 0 -2 0.38 0.22
-14 0 2 0.36 0.29
0 -2 -14 0.68 0.31
0 -2 14 1 0.39
0 2 -14 0.63 0.28
0 2 14 0.66 0.35
2 14 0 0.4 0.21
2 14 0 0.6 0.14
14 0 -2 0.77 0.34
14 0 2 0.16 0.22
-14 2 0 0.6 0.25
14 2 0 1.09 0.34
-2 0 -14 0.57 0.26
-2 0 14 0.56 0.39
0 14 2 0.43 0.11
-14 -2 0 0.39 0.21
-2 2 -14 0.48 0.3
-2 -2 14 0.36 0.35
2 2 -14 1.22 0.44
2 2 14 0.33 0.35
-14 -2 -2 0.37 0.22
-14 -2 2 0.79 0.32
2 14 -2 0.41 0.2
2 14 2 0.7 0.19
2 14 2 0.63 0.16
14 -2 -2 0.6 0.33
2 -2 14 0.44 0.32
-14 2 -2 0.72 0.27
14 -2 2 0.7 0.27
14 2 -2 1.04 0.37
14 2 2 0.13 0.22
-14 2 2 0.3 0.22
-2 -2 -14 0.65 0.3
-2 2 14 0.05 0.34
2 -2 -14 0.62 0.29
0 -4 -14 39.2 3.15
-4 0 -14 37.66 3.08
0 14 4 44.34 2.98
4 0 -14 36.12 3.21
0 14 4 38.83 2.87
-14 -4 0 40.04 3.12
-14 4 0 42.49 3.11
4 0 14 43.42 3.29
0 4 -14 39.55 3.16
0 4 14 39.29 3.28
4 14 0 42.1 3.19
4 14 0 47.97 2.94
14 0 -4 45.3 3.37
14 0 4 41.82 3.17
14 0 4 44.24 3.07
-14 0 4 38.45 3.16
-4 0 14 39.16 3.36
0 -14 4 40.06 2.86
0 14 -4 39.17 2.86
14 4 0 43.47 3.26
0 -4 14 38.57 3.31
14 -4 0 43.55 3.25
2 14 4 79.62 5.45
14 4 2 71.11 5.67
14 -4 -2 75.49 5.74
-4 2 -14 85.47 5.64
2 4 -14 72.8 5.71
2 -4 14 83.23 5.81
-2 -4 -14 67.05 5.56
-2 4 14 84.36 5.91
14 -2 4 82.1 5.54
14 2 -4 84.64 5.88
-4 -2 14 83.74 5.93
-14 -4 2 82.7 5.66
4 2 14 87.8 5.83
-2 -14 4 78.3 5.42
14 -2 4 74.2 5.63
2 14 4 72.18 5.41
4 -2 -14 65.13 5.68
-14 2 4 76.99 5.66
-14 4 -2 81.42 5.57
4 14 -2 72.12 5.56
-4 -2 -14 71.3 5.57
-4 -14 2 82.29 5.48
-2 14 4 75.72 5.31
-2 14 4 83.54 5.4
2 14 -4 75.32 5.48
-2 4 -14 87.98 5.69
-2 -4 14 78.14 5.89
4 -2 14 73.09 5.73
4 2 -14 80.6 5.78
14 4 -2 71.16 5.72
-4 2 14 79.79 5.92
-14 -4 -2 80.21 5.61
2 -4 -14 85.53 5.71
2 4 14 81.53 5.79
-14 4 2 76.68 5.6
4 14 2 80.52 5.44
14 -2 -4 82.15 5.83
14 -4 2 77.59 5.68
14 2 4 74.53 5.64
14 2 4 80.13 5.54
-14 -2 4 77.66 5.68
14 -4 4 174.4 12.7
4 14 -4 203.78 12.74
14 -4 -4 166.82 12.84
14 -4 4 208.93 12.64
14 4 -4 165.82 12.86
14 4 4 167.62 12.71
14 4 4 194.75 12.63
-4 4 14 190.02 13.01
4 4 -14 178.75 12.83
4 4 14 206.34 12.91
-4 -4 14 188.58 13.01
-4 14 4 184.72 12.4
4 -4 14 185.85 12.84
-14 -4 4 187.12 12.77
-14 4 4 192.47 12.75
-4 -4 -14 160.24 12.62
-4 4 -14 174.19 12.66
6 0 14 10.63 1.19
0 -14 -6 11.43 0.89
14 -6 0 10.98 1.14
14 6 0 13.06 1.25
-6 0 14 11.03 1.33
-14 6 0 10.19 1.03
-6 0 -14 9.54 1.02
0 -6 -14 9.77 1.09
0 -6 14 8.88 1.2
0 -14 6 11.28 0.97
0 14 -6 11.98 0.94
0 14 6 11.29 1.04
6 0 -14 11.98 1.27
-14 0 6 13.46 1.27
6 14 0 11.34 1.13
14 0 -6 10.63 1.3
0 6 -14 10.56 1.11
0 6 14 9.36 1.16
-14 -6 0 10.27 1.07
14 0 6 9.35 0.99
14 0 6 12.11 1.12
6 2 14 3.88 0.63
2 14 6 3.99 0.59
14 -2 6 2.69 0.55
-14 -6 2 3.72 0.55
6 -2 -14 4.09 0.79
-2 -14 6 3.31 0.47
-2 14 -6 3.1 0.35
-2 6 14 2.41 0.6
14 -6 -2 2.71 0.62
2 -6 14 2.58 0.62
2 6 -14 2.71 0.61
2 14 6 3.6 0.44
2 -14 -6 4 0.39
-2 -6 -14 4.61 0.59
14 -2 6 3.87 0.5
14 2 -6 2.63 0.73
-6 -2 14 4.1 0.85
14 6 2 2.55 0.57
-14 2 6 3.97 0.62
-6 2 -14 3.34 0.51
2 14 -6 4.05 0.56
2 6 14 3.46 0.66
14 2 6 3.86 0.58
14 6 -2 3.19 0.68
14 -2 -6 3.6 0.72
-14 6 2 4.3 0.58
6 -2 14 2.85 0.63
2 -14 6 4.03 0.47
-14 -2 6 3.07 0.59
-6 -14 2 3.64 0.47
6 14 2 2.84 0.47
-6 2 14 3.26 0.78
-6 -2 -14 3.77 0.54
14 2 6 3.51 0.51
6 14 2 3.75 0.56
14 -6 2 3.4 0.56
-2 -6 14 2.7 0.67
-2 6 -14 2.81 0.56
-2 14 6 3.58 0.51
6 2 -14 3.11 0.67
2 -6 -14 3.59 0.59
-14 -6 -2 3.41 0.55
6 -14 4 74.66 5.17
6 14 -4 80.91 5.68
-6 14 4 76.12 5.24
-4 -6 -14 62.33 5.41
14 6 4 82.51 5.46
14 -4 6 80.08 5.54
-14 -6 4 77.86 5.58
14 4 -6 71.53 5.77
4 14 6 76.04 5.42
4 -14 -6 80.76 5.28
4 -6 14 70.36 5.63
4 6 -14 76.95 5.66
6 -4 -14 80.98 5.7
-4 6 14 80.51 5.84
-4 14 -6 73.07 5.21
-6 4 -14 68.9 5.44
14 6 4 66.42 5.52
6 -14 4 68.84 5.17
14 -6 -4 74.37 5.73
14 -4 6 72.13 5.43
6 4 14 87.26 5.68
-6 -4 14 79.04 5.83
4 14 6 78.27 5.39
-14 4 6 72.62 5.58
-4 -14 6 85 5.49
4 -6 -14 70.51 5.55
-6 -4 -14 78.49 5.49
6 14 4 79.46 5.71
-6 -14 4 69.8 5.4
6 -14 -4 77.34 5.23
-6 4 14 72.76 5.79
-4 -6 14 81.09 5.86
4 -14 6 71.83 5.33
14 -4 -6 75.78 5.77
14 4 6 80.95 5.47
4 6 14 72.49 5.63
-4 6 -14 80.57 5.51
14 -6 4 77.96 5.42
14 -6 4 74.54 5.52
-4 14 6 85.2 5.45
14 6 -4 84.15 5.81
-14 -4 6 77.44 5.64
6 14 4 85.42 5.52
6 4 -14 75.18 5.72
-14 6 4 84.81 5.58
14 4 6 77.06 5.54
6 -4 14 79.79 5.67
4 14 -6 74.49 5.55
6 14 -6 11.78 1.26
-6 6 -14 10.26 1.03
14 -6 -6 12.51 1.37
6 6 -14 10.72 1.31
6 -14 -6 11.66 0.94
-6 -6 -14 14.91 1.16
-6 -6 14 11.95 1.39
14 -6 6 10.04 1
14 6 -6 11.62 1.36
6 -6 -14 11.17 1.21
6 -6 14 11.48 1.24
-14 -6 6 11.78 1.19
-14 6 6 10.57 1.16
14 6 6 9.74 1.03
6 -14 6 9.37 0.94
14 -6 6 9.79 1.05
6 6 14 10.55 1.16
-6 6 14 11.65 1.41
14 6 6 9.79 1.09
-6 14 6 9.34 0.97
6 -14 6 10.4 0.86
14 -8 0 30.85 2.59
0 -14 -8 30.65 2.32
-8 0 -14 32.21 2.47
0 -14 8 33.04 2.48
0 8 14 26.4 2.58
8 -14 0 31.05 2.17
0 -8 14 32.27 2.73
-14 8 0 33.18 2.45
-14 0 8 31.51 2.63
0 -8 -14 30.51 2.47
8 -14 0 30.95 2.15
8 14 0 31.8 2.54
-8 0 14 29.88 2.75
14 0 8 28.13 2.43
0 14 -8 32.75 2.38
8 0 -14 29.6 2.69
8 0 14 34.26 2.62
14 0 -8 26.92 2.7
-14 -8 0 34.14 2.53
14 8 0 35.13 2.68
14 0 8 36.67 2.56
0 8 -14 30.91 2.54
2 14 8 8.64 0.94
-2 -14 8 8.05 0.93
14 8 2 8.75 1.01
-14 -8 2 8.34 0.91
-2 14 -8 8.59 0.77
2 -14 -8 8.91 0.79
-8 -2 14 10.04 1.23
2 -8 14 8.67 1.11
14 -2 8 9.24 0.96
14 2 -8 6.9 1.07
14 -8 -2 9.14 1.06
-2 8 14 10.08 1.18
2 8 -14 8.14 1.03
8 -2 -14 8.37 1.08
14 -2 8 8.81 0.9
8 2 14 7.91 0.97
-8 2 -14 8.09 0.9
8 -14 2 9.25 0.69
8 -14 2 8.63 0.65
8 14 -2 9.23 1.04
-14 2 8 10.02 1.09
-2 -8 -14 7.14 0.88
14 2 8 8.2 0.88
2 14 -8 8.4 0.9
-14 -8 -2 7.08 0.85
-14 8 2 9.02 0.89
8 -14 -2 8.54 0.7
8 14 2 8.23 0.81
2 8 14 8.81 1.07
8 -14 -2 8 0.63
-8 2 14 7.06 1.08
2 -8 -14 8.92 0.98
-2 -8 14 8.03 1.13
8 -2 14 9.61 1.01
-14 -2 8 8.73 1.07
-2 -14 -8 7.92 0.76
-8 -14 2 7.14 0.82
8 2 -14 7.99 1.15
-8 -2 -14 7.09 0.87
-2 8 -14 6.69 0.87
14 -8 2 7.57 0.93
14 -8 2 8.54 0.82
14 8 -2 6.79 1.05
14 -2 -8 8.8 1.22
14 2 8 8.66 0.95
8 14 2 10.04 0.98
2 -14 8 9 0.93
14 8 4 7.99 0.97
4 -8 14 10.35 1.22
4 -14 -8 10.68 0.95
-4 14 -8 9.98 0.88
8 4 14 13.62 1.24
14 -4 8 11.18 1.07
14 -4 8 8.81 0.99
14 4 -8 10.65 1.32
8 -4 -14 10.58 1.32
8 -14 4 10.98 0.89
-4 8 14 10.9 1.34
-8 -4 14 11.73 1.37
-8 4 -14 11.41 1.06
4 8 -14 8.75 1.13
-4 -14 8 11.44 1.12
8 14 -4 13.62 1.48
-8 14 4 11.96 0.91
14 8 4 10.29 1.12
-14 -8 4 10.47 1.14
-4 -8 -14 9.15 1.03
-14 4 8 11.72 1.22
4 14 8 11.14 1.08
8 -14 4 11.14 0.9
14 -8 -4 11.13 1.25
4 14 8 11.38 1
4 -14 8 9.42 1.05
14 -4 -8 10.63 1.32
-8 -14 4 10.3 1.03
4 14 -8 11.3 1.16
14 -8 4 9.63 1.09
14 -8 4 9.46 0.97
14 8 -4 9.99 1.25
4 8 14 9.98 1.19
8 4 -14 14.14 1.45
14 4 8 10.75 1.1
8 14 4 10.42 0.99
-8 -4 -14 10.71 1.05
-4 -8 14 11.13 1.31
-4 8 -14 10.89 1.09
4 -8 -14 11.7 1.17
-14 -4 8 11.55 1.23
8 -14 -4 10.57 0.93
8 -4 14 13.22 1.25
14 4 8 10.95 1.08
-14 8 4 12.6 1.13
-8 4 14 8.04 1.25
8 14 4 10.11 1.06
6 14 8 28.04 2.3
-8 6 -14 28.75 2.29
14 8 6 31.77 2.33
-14 -8 6 28.32 2.4
8 -6 -14 29.88 2.53
-6 -14 8 26.64 2.34
14 8 6 26.79 2.36
6 14 8 33.77 2.32
8 -14 6 27.19 2.19
-6 14 -8 31.4 2.13
8 6 14 31.11 2.46
-14 6 8 26.02 2.41
8 14 -6 28.05 2.57
-6 8 14 30.84 2.66
14 -6 8 28.87 2.32
6 -8 14 27.66 2.46
-6 -8 -14 24.73 2.26
-8 -6 14 27.53 2.6
14 6 -8 27.78 2.6
14 -8 -6 26.98 2.54
8 -14 6 30.67 2.16
6 -14 -8 27.84 2.22
-8 14 6 28.46 2.22
14 -6 8 30.48 2.31
6 8 -14 30.93 2.57
8 6 -14 27.73 2.58
6 -14 8 31.5 2.32
14 -6 -8 28.71 2.64
8 14 6 25.31 2.33
8 -6 14 30.68 2.49
8 -14 -6 29.8 2.25
14 6 8 27.75 2.29
14 8 -6 29.31 2.69
-14 -6 8 29.37 2.5
-8 -14 6 27.5 2.34
8 14 6 32.6 2.35
-14 8 6 29.11 2.39
-6 -8 14 25.84 2.55
6 -8 -14 32.54 2.52
-8 -6 -14 34.52 2.35
-6 8 -14 28.45 2.27
6 8 14 26.95 2.4
-8 6 14 25.88 2.55
6 14 -8 29.16 2.52
14 6 8 26.21 2.31
14 -8 6 29.25 2.27
14 -8 6 30.77 2.38
8 8 -14 58.83 4.91
14 8 -8 69.73 5.09
-8 -8 -14 55.47 4.58
14 8 8 69.33 4.75
8 -8 14 67.58 4.86
8 -8 -14 75.7 4.94
8 -14 -8 62.3 4.61
-8 8 -14 66.08 4.63
8 8 14 61.51 4.76
-14 -8 8 67.16 4.85
-14 8 8 61.6 4.78
-8 -14 8 64.95 4.76
-8 -8 14 64.93 4.97
-8 8 14 57.8 4.9
-8 14 8 63.87 4.69
8 -14 8 64.62 4.51
8 -14 8 57.52 4.6
14 -8 -8 66.55 4.99
14 8 8 69.13 4.69
14 -8 8 63.62 4.64
8 14 8 55.46 4.75
8 14 -8 62.31 4.9
14 -8 8 63.41 4.66
10 0 -14 15.73 1.63
14 0 10 13.82 1.3
0 14 10 13.75 1.36
0 -10 -14 12.88 1.27
14 0 10 13.11 1.3
0 -10 14 10.88 1.45
0 10 -14 15.42 1.4
-14 -10 0 15.33 1.33
-14 0 10 12.21 1.4
-10 0 -14 13.96 1.25
14 0 -10 12.54 1.55
-10 0 14 13.13 1.53
14 -10 0 13.88 1.39
14 10 0 15.63 1.47
0 10 14 11.3 1.38
10 -14 0 12.66 1.18
10 -14 0 12.61 1.04
-14 10 0 13.12 1.19
0 -14 -10 12.46 1.16
0 -14 10 15.34 1.43
0 14 -10 13.88 1.25
10 14 0 17.89 1.49
-10 -14 0 14.42 1.24
10 0 14 14.65 1.4
10 -14 2 4.56 0.49
14 10 2 6.51 0.88
10 -2 -14 5.19 0.99
2 14 10 6 0.77
-10 2 -14 6.32 0.7
10 -14 2 5.48 0.61
2 -14 -10 4.78 0.59
14 -2 10 5.58 0.72
-14 2 10 4.24 0.83
-10 -2 14 4.81 0.98
-2 -14 10 5.07 0.75
-2 14 -10 3.76 0.55
10 14 -2 4.11 0.81
2 -10 14 4.39 0.9
-14 -10 2 5.01 0.69
14 -10 -2 4.91 0.88
-2 -10 -14 5.09 0.67
-2 10 14 5.59 0.9
14 2 -10 4.63 1.01
14 -2 10 5.88 0.7
2 10 -14 4.56 0.73
10 2 14 5.27 0.75
10 -2 14 4.87 0.73
14 10 -2 3.85 0.78
10 2 -14 4.05 0.89
14 2 10 4.47 0.67
14 -10 2 4.99 0.73
10 14 2 6.44 0.8
2 10 14 4.68 0.75
10 -14 -2 4.59 0.61
-14 -2 10 3.94 0.79
-10 -2 -14 5.4 0.65
14 2 10 4 0.64
-10 -14 2 5.74 0.68
14 -2 -10 4.49 1.02
2 -14 10 5.63 0.79
-2 10 -14 5.53 0.68
-14 10 2 4.85 0.63
2 -10 -14 5.78 0.7
2 14 -10 4.31 0.68
10 14 2 5.95 0.64
14 -10 2 4.8 0.58
-2 -10 14 5.48 0.88
-2 14 10 3.82 0.76
-10 2 14 3.62 0.97
-2 -14 -10 4.84 0.59
14 4 -10 31.48 2.8
4 -14 -10 31.64 2.34
4 14 10 28.92 2.44
-14 4 10 27.97 2.56
4 -10 14 28.79 2.58
14 10 4 24.21 2.42
14 10 4 28.32 2.34
10 -14 4 32.25 2.27
-4 14 -10 30.98 2.27
14 -4 10 33.96 2.47
10 14 -4 35.08 2.77
10 -4 -14 28.99 2.67
10 -14 4 30.42 2.29
-4 10 14 33.96 2.76
10 4 14 28.54 2.5
14 -10 -4 31.43 2.65
-4 -10 -14 27.3 2.35
-14 -10 4 30.72 2.47
14 -4 10 28.54 2.4
-4 -14 10 29.21 2.52
4 10 -14 31.95 2.59
-10 -4 14 27.01 2.64
-10 4 -14 29.19 2.36
-10 14 4 30.54 2.25
14 -10 4 32.7 2.49
4 -14 10 30.71 2.51
4 -10 -14 29.57 2.47
-4 14 10 29.33 2.54
10 14 4 34.4 2.52
10 14 4 28.89 2.34
14 -4 -10 34.32 2.83
4 10 14 25.57 2.49
10 -14 -4 30.62 2.37
-14 10 4 32.71 2.43
-10 -14 4 29.99 2.39
10 4 -14 28.32 2.67
14 4 10 31.7 2.46
-4 10 -14 31.1 2.4
-14 -4 10 32.59 2.64
4 14 -10 29.12 2.53
-10 4 14 29.34 2.72
-4 -14 -10 28.37 2.29
14 -10 4 30.75 2.33
14 4 10 32.39 2.43
-4 -10 14 29.32 2.66
10 -4 14 29.97 2.51
14 10 -4 32.11 2.72
-10 -4 -14 28.97 2.37
-6 10 14 0.45 0.38
14 -6 10 0.05 0.22
14 10 6 -0.11 0.17
10 -14 6 0.44 0.21
14 6 -10 0.02 0.34
-14 6 10 -0.42 0.14
-6 -14 10 0.24 0.27
-6 14 -10 0.11 0.13
6 -10 14 -0.13 0.18
-14 -10 6 0.12 0.2
14 10 6 0.11 0.16
6 14 10 0.27 0.21
-6 -10 -14 0.02 0.13
10 -14 6 0.11 0.17
6 10 -14 0.25 0.39
14 -6 10 0.55 0.24
10 -6 -14 0.04 0.38
10 6 14 -0.03 0.27
14 -10 -6 -0.32 0.3
-10 6 -14 0.26 0.2
6 -14 -10 0.08 0.18
6 14 10 0.17 0.24
-10 -14 6 0.36 0.27
10 6 -14 0.37 0.4
-14 10 6 0.38 0.26
14 -10 6 0.03 0.17
-6 -10 14 -0.12 0.29
14 -10 6 0.51 0.28
14 6 10 0.36 0.29
6 10 14 0.36 0.28
10 -14 -6 0.45 0.27
14 -6 -10 -0.18 0.38
6 14 -10 0.2 0.31
6 -14 10 0.23 0.27
-14 -6 10 0.2 0.25
14 10 -6 0.26 0.45
-10 6 14 0.09 0.28
-6 10 -14 0.4 0.26
6 -10 -14 0.2 0.29
-6 14 10 0.01 0.29
10 14 6 0.12 0.16
-10 -6 -14 0.3 0.25
10 14 6 -0.04 0.21
10 -6 14 0.22 0.28
14 6 10 -0.07 0.2
8 10 -14 9.39 1.17
8 14 10 7.04 0.9
10 -14 8 8.46 0.83
-14 -10 8 8.25 1.04
14 -8 10 9.55 0.97
-10 -8 14 7.72 1.08
-10 8 -14 9.66 0.91
-10 14 8 10.26 0.99
10 -8 -14 9.66 1.13
-8 -10 -14 8 0.86
14 -10 -8 9.27 1.22
8 -10 14 7.99 1.05
14 10 8 9.77 1.01
10 8 14 10.03 1.06
8 14 10 6.82 0.86
-8 -14 10 10 1.07
10 -14 8 8.8 0.93
10 14 -8 8.57 1.21
-8 10 14 5.93 1.13
14 -8 10 9.1 0.97
-14 8 10 8.95 1.09
14 8 -10 7.36 1.17
14 10 8 8.38 0.93
8 -14 -10 7.18 0.9
14 8 10 9.23 0.95
14 -8 -10 8.03 1.15
10 14 8 7.8 0.92
-10 -8 -14 8.44 0.88
14 -10 8 8.76 0.93
14 8 10 8.54 0.96
8 -14 10 7.15 0.95
14 -10 8 9.45 0.96
-14 -8 10 6.23 0.96
-8 -10 14 8.17 1.16
-10 -14 8 8.42 1.11
8 10 14 6.64 0.95
10 8 -14 7.06 1.12
-8 14 10 7.28 1
14 10 -8 7.53 1.22
-10 8 14 9.07 1.25
10 -14 -8 9.86 1.01
-8 10 -14 7.42 0.84
-14 10 8 8.5 1.04
10 -8 14 7.45 0.97
8 14 -10 7.01 1.12
8 -10 -14 5.97 0.98
14 10 10 0.56 0.3
-10 -10 14 0.67 0.39
10 -14 10 1.03 0.37
10 14 10 0.34 0.29
-10 10 -14 0.55 0.26
-14 -10 10 0.18 0.24
10 14 -10 0.19 0.32
-10 -14 10 0.63 0.35
10 10 14 0.35 0.33
-10 14 10 0.43 0.31
-10 10 14 0.23 0.35
14 -10 10 0.53 0.28
14 -10 10 0.41 0.27
14 10 -10 0.33 0.46
14 -10 -10 0.78 0.45
14 10 10 0.72 0.29
-14 10 10 1.07 0.42
10 -14 -10 0.76 0.35
10 -14 10 0.37 0.22
10 14 10 0.03 0.25
10 10 -14 0.35 0.4
10 -10 -14 0.79 0.37
10 -10 14 0.42 0.37
0 -12 -14 3.69 0.52
14 12 0 3.97 0.77
14 -12 0 2.91 0.43
12 0 14 2.08 0.5
0 14 12 2.87 0.68
0 -12 14 2.87 0.73
0 12 -14 3.29 0.63
0 12 14 2.51 0.66
12 -14 0 2.95 0.56
12 -14 0 2.91 0.39
12 14 0 2.89 0.61
14 0 -12 3.4 0.81
14 0 12 3.72 0.56
14 0 12 3.06 0.61
-14 0 12 2.8 0.71
-12 -14 0 2.79 0.53
-12 0 14 1.93 0.63
0 -14 -12 2.39 0.47
14 -12 0 3.69 0.69
0 14 -12 2.61 0.52
0 -14 12 2.51 0.61
-14 -12 0 3.1 0.51
12 0 -14 2.5 0.72
-12 0 -14 2.41 0.48
2 12 -14 59.76 4.5
-2 -14 12 58.8 4.59
-2 14 -12 58.08 4.32
-14 -12 2 61.92 4.43
-12 2 -14 55.56 4.32
14 12 2 52.74 4.29
14 2 -12 57.54 4.74
2 -12 14 55.42 4.62
-12 -2 14 59.38 4.7
14 12 2 65.09 4.59
12 -14 2 62.64 4.39
12 -2 -14 53.5 4.67
2 14 12 55.94 4.49
14 -2 12 62.17 4.46
-14 2 12 64.19 4.67
-2 12 14 67.26 4.76
12 -14 2 57.68 4.19
2 -14 -12 59.92 4.33
14 -2 12 65.3 4.46
12 2 14 63.27 4.5
14 -12 -2 58.21 4.55
12 14 -2 53.3 4.57
-2 -12 -14 52.44 4.31
14 -12 2 56.38 4.46
-12 -14 2 61.14 4.41
-2 12 -14 63.89 4.41
2 12 14 62.29 4.6
12 -2 14 63.89 4.54
12 14 2 67.15 4.58
-12 2 14 66.22 4.79
-14 -2 12 61.06 4.63
12 14 2 56.92 4.3
14 -2 -12 53.67 4.73
-14 12 2 62.39 4.32
12 2 -14 55.56 4.73
14 -12 2 58.52 4.26
2 -14 12 57.53 4.58
12 -14 -2 57.66 4.41
-2 14 12 51.88 4.54
14 12 -2 68.92 4.73
14 2 12 61.07 4.43
2 14 -12 58.54 4.47
-12 -2 -14 58.83 4.35
-2 -14 -12 63.09 4.33
14 2 12 57.9 4.42
-4 -12 -14 224.76 14.7
4 -14 -12 214.1 14.68
-4 -14 12 211.06 14.93
-4 14 -12 221.59 14.62
14 -4 12 197.31 14.71
12 -14 4 217.17 14.68
4 14 12 228.04 14.9
-4 12 14 206.34 15
4 12 -14 231.3 15.09
-12 14 4 225.54 14.6
-14 -12 4 216.51 14.76
14 -12 -4 227.44 15
12 -4 -14 196.57 15
14 4 -12 234.22 15.21
14 12 4 223.7 14.9
14 12 4 188 14.63
12 -14 4 215.15 14.57
14 -4 12 210.07 14.76
4 -12 14 209 14.98
12 14 -4 219.41 15.07
-12 -4 14 210.81 15.03
-14 4 12 213.17 14.96
12 4 14 206.63 14.78
-12 4 -14 208.1 14.66
-4 -14 -12 199.84 14.61
14 12 -4 207.22 15.02
14 4 12 234.58 14.81
-4 12 -14 227.56 14.71
4 14 -12 216.75 14.86
-14 12 4 211.08 14.66
-12 -4 -14 185.95 14.63
12 -4 14 224.57 14.85
12 4 -14 196.13 15.07
-14 -4 12 220.68 14.99
14 -12 4 212.37 14.76
14 -12 4 224.32 14.63
12 14 4 208.89 14.65
14 -4 -12 234.16 15.18
-4 14 12 185.1 14.87
-12 4 14 199.05 15.01
12 14 4 192.89 14.79
4 -12 -14 242.12 14.82
-4 -12 14 219.37 15.09
-12 -14 4 213.35 14.73
4 -14 12 211.68 14.92
4 12 14 200.63 14.88
14 4 12 233.77 14.8
12 -14 -4 222.51 14.82
-6 14 -12 69.38 4.95
6 12 -14 66.32 5.28
12 -6 -14 74.11 5.42
12 -14 6 70.17 5.03
12 -14 6 74.73 5.01
-12 14 6 73.31 5.03
12 6 14 72.76 5.16
14 12 6 56.64 4.97
-14 6 12 66.31 5.25
14 -6 12 68.44 5.1
14 6 -12 69.22 5.47
14 12 6 75.8 5.22
-6 -12 -14 73.61 5.04
-12 6 -14 68.83 5
6 14 12 70.28 5.16
14 -6 12 68.22 5.08
-6 -14 12 68.73 5.27
6 -14 -12 69.08 5.07
14 -12 -6 79.35 5.41
-12 -6 14 62.35 5.28
-6 12 14 60.89 5.29
6 -12 14 70.22 5.29
-14 -12 6 71.5 5.18
14 -12 6 68.17 4.99
14 6 12 76.25 5.14
14 12 -6 61.75 5.37
6 -14 12 69.76 5.23
-14 -6 12 70.97 5.33
14 -6 -12 64.37 5.4
12 14 6 70.58 5.16
-6 -14 -12 71.68 4.99
-6 -12 14 67.15 5.32
6 12 14 72.48 5.22
6 -12 -14 61.95 5.09
-6 14 12 76.17 5.34
12 -14 -6 63.7 5.11
12 14 6 70.44 5.04
-6 12 -14 66.64 4.99
14 -12 6 67.52 5.08
-12 6 14 66.15 5.35
-12 -14 6 70.53 5.15
12 -6 14 68.81 5.17
14 6 12 77.15 5.15
-14 12 6 70.77 5.09
6 14 -12 71.38 5.29
12 8 14 12.32 1.35
14 12 8 10.26 1.31
12 8 14 12.19 1.3
8 -12 14 14.38 1.55
-14 -12 8 12.81 1.41
-8 12 14 16.4 1.68
12 -14 8 16.05 1.34
12 -14 8 15.58 1.34
12 14 -8 13.95 1.62
14 12 8 11.18 1.27
-8 14 -12 14.74 1.22
-14 8 12 13.53 1.47
-12 14 8 13.62 1.35
-8 -12 -14 15.42 1.31
12 -8 -14 13.03 1.56
8 -14 -12 13.44 1.36
-12 -8 14 16.33 1.64
-12 8 -14 14.43 1.6
8 14 12 12.01 1.28
-8 -14 12 13.03 1.46
8 14 12 14.74 1.44
8 12 -14 14.59 1.62
14 -8 12 14.21 1.89
14 8 -12 17.24 1.83
14 -12 -8 11.92 1.5
-8 -12 14 13.36 1.55
14 8 12 11.83 1.3
12 14 8 15.3 1.52
14 -8 -12 14.25 1.59
14 8 12 13.28 1.36
-14 12 8 14.71 1.42
8 -14 12 15.91 1.52
8 14 -12 13.41 1.57
-12 8 14 15.32 1.64
-14 -8 12 13.85 1.54
-8 14 12 13.96 1.51
12 8 -14 13.44 1.64
14 -12 8 14.6 1.36
12 -14 -8 11.53 1.4
14 -12 8 14.77 1.33
8 -12 -14 14.12 1.43
12 14 8 15.8 1.44
12 -8 14 13.78 1.42
8 12 14 16.24 1.49
-8 12 -14 12.2 1.23
14 12 -8 12.15 1.58
12 10 14 42.15 3.43
12 -10 -14 43.49 3.58
10 -12 14 46.21 3.56
10 12 -14 46.38 3.7
10 14 12 52.24 3.45
14 -12 -10 43.5 3.6
10 14 12 50.53 3.52
12 -14 10 44.34 3.3
12 -14 10 40.79 3.4
12 14 -10 40.85 3.7
-12 -10 14 40.72 3.54
-10 -14 12 40.97 3.51
14 -10 12 39.4 3.33
14 -10 12 44.18 3.45
-12 14 10 40.75 3.42
-10 12 14 38.76 3.56
12 10 14 39.45 3.34
-14 -12 10 43.91 3.52
10 -14 -12 47.8 3.53
14 12 10 38.13 3.34
14 12 10 40.42 3.36
14 10 -12 47.6 3.81
-14 10 12 44.57 3.56
14 -10 -12 42.75 3.63
-12 -14 10 41.08 3.49
10 12 14 35.24 3.28
-10 -12 14 43.34 3.59
-10 12 -14 43.2 3.26
12 10 -14 46.81 3.83
10 14 -12 45.61 3.71
14 -12 10 44.32 3.35
14 12 -10 41.36 3.77
10 -14 12 46.57 3.3
10 -14 12 43.19 3.48
-12 10 14 48.2 3.69
-14 -10 12 44.83 3.56
14 -12 10 42.78 3.39
12 14 10 46.75 3.42
-14 12 10 47.89 3.53
-10 14 12 47.01 3.59
12 -10 14 46.76 3.52
10 12 14 44.17 3.48
10 -12 -14 41.7 3.51
14 10 12 41.24 3.39
14 10 12 45.98 3.43
12 -14 -10 43.22 3.48
14 -12 12 107.91 7.46
14 -12 -12 100.61 7.6
14 -12 12 101.64 7.36
12 14 12 90.67 7.36
12 14 12 90.17 7.33
12 12 14 98.93 7.37
12 12 14 110.71 7.51
12 14 -12 109.92 7.83
12 -12 14 107.78 7.34
12 -12 14 103.79 7.55
12 12 -14 108.1 7.79
-14 -12 12 102.71 7.58
-14 12 12 94.91 7.49
-12 -14 12 106.11 7.59
-12 -12 14 99.85 7.59
-12 12 14 95.22 7.58
-12 14 12 96.8 7.48
12 -14 -12 101.55 7.52
12 -14 12 108.69 7.34
12 -14 12 102.19 7.49
12 -12 -14 111.34 7.63
14 12 12 116.77 7.48
14 12 12 101.35 7.38
14 12 -12 105.94 7.81
14 -14 0 3.03 0.41
14 0 -14 2.33 0.74
14 0 14 1.66 0.46
14 0 14 3.07 0.59
14 14 0 2.2 0.58
14 -14 0 2.72 0.63
0 14 -14 2.81 0.58
-14 -14 0 2.72 0.54
-14 0 14 1.94 0.6
0 -14 -14 2.68 0.52
0 -14 14 2.42 0.69
0 14 14 2.53 0.68
14 -2 -14 7.04 1.26
-14 -14 2 8.1 0.91
-14 -2 14 6.7 1.04
-14 2 14 6.51 1.07
-2 -14 -14 6.02 0.79
-2 -14 14 7.21 1.1
-2 14 -14 6.95 0.84
-2 14 14 7.37 1.1
2 -14 -14 7.17 0.86
2 -14 14 7.47 1.1
2 14 -14 7.8 0.96
2 14 14 7.43 1.07
14 -14 -2 7.25 1
14 -14 2 7.14 0.92
14 -14 2 7.64 0.77
14 14 2 8.68 0.86
14 -2 14 7.42 0.89
14 -2 14 8.18 0.97
14 2 -14 8.76 1.23
14 2 14 5.99 0.85
14 2 14 7.57 0.92
14 14 -2 7.95 1.12
14 14 2 10.24 1.14
4 -14 -14 70.62 4.98
-14 -14 4 63.75 4.97
-14 -4 14 70 5.26
-14 4 14 75.1 5.35
-14 14 4 67.8 4.88
-4 -14 -14 67.25 4.89
-4 -14 14 62.84 5.2
-4 14 -14 69.11 4.91
-4 14 14 62.93 5.22
14 4 14 76.64 5.1
14 14 -4 72.65 5.36
4 -14 14 65.04 5.23
4 14 -14 64.76 5.11
4 14 14 62.25 5.11
14 -14 -4 64.78 5.13
14 -14 4 70.88 5.02
14 -14 4 71.65 4.87
14 -4 -14 62.93 5.28
14 -4 14 71.19 4.99
14 -4 14 72.08 5.1
14 4 -14 57.49 5.26
14 4 14 63.12 4.97
14 14 4 66.61 4.92
14 14 4 73.76 5.19
6 14 14 6.58 0.89
6 14 -14 6.44 0.94
-14 -14 6 6.16 0.8
-14 -6 14 6.43 0.99
-14 6 14 4.42 0.92
-14 14 6 5.03 0.74
-6 -14 -14 4.58 0.67
-6 -14 14 4.75 0.94
-6 14 -14 6.28 0.73
-6 14 14 4.82 0.96
6 -14 -14 7.25 0.86
6 -14 14 5.53 1.02
14 -6 14 6.21 0.87
14 6 -14 7.37 1.14
14 6 14 6.18 0.78
14 6 14 4.62 0.79
14 14 6 4.22 0.8
14 14 6 5.34 0.71
14 -14 -6 6.92 0.94
14 -14 6 7.32 0.86
14 -14 6 6 0.72
14 -6 -14 5.82 1.09
14 -6 14 6.61 0.8
-14 -8 14 -0.09 0.32
-14 8 14 -0.14 0.47
-14 14 8 0.13 0.23
-8 -14 14 -0.37 0.25
-8 14 -14 -0.17 0.12
-8 14 14 0.14 0.35
8 -14 -14 -0.21 0.23
8 -14 14 -0.09 0.31
8 14 -14 -0.21 0.38
8 14 14 -0.07 0.23
14 -14 -8 0.72 0.39
14 -14 8 -0.01 0.18
14 -14 8 0.09 0.25
14 -8 -14 -0.35 0.36
14 -8 14 0.43 0.23
14 -8 14 0.21 0.26
14 8 -14 0.25 0.42
14 8 14 0.02 0.26
14 8 14 0.06 0.28
14 14 -8 0.34 0.42
14 14 8 -0.12 0.28
14 -10 14 7.68 1.06
14 10 -14 10.92 1.48
14 10 14 10.94 1.13
14 10 14 7.68 1.05
10 14 14 9.78 1.17
14 -14 -10 9.1 1.24
14 -14 10 9.66 1.06
14 -14 10 9.77 1.15
14 -10 -14 10.17 1.27
14 -10 14 9.19 1.04
-14 -14 10 8.28 1.09
-14 -10 14 8.12 1.14
-14 10 14 7.78 1.13
-14 14 10 10.87 1.18
-10 -14 14 7.98 1.17
-10 14 -14 9.16 0.94
-10 14 14 10.38 1.28
10 -14 -14 9.38 1.14
10 -14 14 9.91 1.24
10 14 -14 8.08 1.29
10 14 14 8.26 1
14 14 10 8.65 1.05
14 14 -10 9.74 1.37
14 14 10 9.3 1.26
14 14 12 64.21 4.91
14 14 12 76.59 5.02
12 -14 -14 68.93 5.11
12 -14 14 57.2 4.96
12 14 -14 72.3 5.33
12 14 14 65.33 4.93
14 12 14 60.32 4.92
14 14 -12 62.92 5.31
14 12 14 60.69 4.89
14 -14 12 65.18 5.02
14 -12 -14 72.84 5.21
14 -12 14 63.29 4.87
14 -12 14 62.18 5.02
14 12 -14 69.82 5.41
-12 14 14 60.69 5.1
-12 -14 14 64.39 5.09
12 14 14 62.06 4.97
14 -14 -12 76.09 5.2
14 -14 12 66.06 4.87
-14 -14 12 65.92 5.08
-14 -12 14 72.45 5.16
-14 12 14 67.91 5.13
-14 14 12 59.79 5.29
-14 -14 14 6.23 0.97
14 -14 -14 5.64 1.09
14 -14 14 7.15 0.92
14 -14 14 6.85 1.03
14 14 -14 8.26 1.42
14 14 14 7.1 0.91
14 14 14 6.09 0.9
-14 14 14 7.16 1.04
15 -1 -1 135.78 8.58
15 1 -1 127.46 8.54
15 1 1 118.72 8.49
1 1 15 105.82 8.51
1 15 -1 123.27 8.07
-15 -1 -1 123.96 8.37
-15 -1 1 110.25 8.33
-15 1 -1 108.99 8.31
1 1 -15 129.19 8.48
1 -1 -15 99.7 8.37
1 15 1 114.46 8.1
1 15 1 119.23 8.06
-15 1 1 110.35 8.32
1 15 -1 120.19 8.03
-1 -1 -15 126.53 8.44
-1 -1 15 121.04 8.63
-1 1 -15 132.83 8.47
1 -1 15 125.05 8.61
1 -3 15 0.32 0.38
1 15 3 0.34 0.14
-15 -3 1 -0.04 0.18
-15 3 -1 0.11 0.15
-3 -1 15 0.43 0.38
-3 1 -15 -0.09 0.24
3 1 15 -0.05 0.31
-1 3 15 0.25 0.29
1 15 3 0.1 0.13
3 -1 -15 0.08 0.23
1 3 -15 0.16 0.23
-1 -3 -15 -0.27 0.22
3 15 -1 0.25 0.19
3 15 -1 0.09 0.09
15 -3 -1 -0.14 0.25
-15 1 3 0.08 0.24
15 3 1 0.3 0.32
3 1 -15 0.02 0.24
15 -3 1 0.24 0.3
1 15 -3 0.03 0.11
-3 1 15 -0.16 0.39
3 -1 15 0.38 0.31
-15 3 1 0.12 0.15
1 -3 -15 -0.03 0.18
-1 -3 15 0.09 0.31
-15 -3 -1 0.14 0.16
-3 -1 -15 0.14 0.2
3 15 1 0.27 0.19
3 15 1 -0.1 0.09
15 -1 -3 -0.17 0.19
15 1 3 0.23 0.2
15 3 -1 -0.03 0.2
-15 -1 3 -0.09 0.15
1 3 15 0.29 0.3
-1 3 -15 0.08 0.26
-15 -3 3 15.63 1.46
3 15 -3 14.54 1.33
3 15 3 14.48 1.26
-15 3 3 15.82 1.43
-3 -15 3 14.74 1.2
-3 -3 -15 15.37 1.4
-3 -3 15 14.22 1.59
-3 3 15 16.94 1.74
15 3 3 16.72 1.49
15 -3 -3 16.84 1.63
15 -3 3 14.23 1.44
15 -3 3 15.96 1.34
15 3 -3 13.84 1.56
3 -3 15 14.47 1.55
3 15 3 16.19 1.24
3 3 15 13.22 1.48
3 3 -15 17.07 1.56
3 -3 -15 17.55 1.52
15 -1 5 1.48 0.35
15 1 -5 1.4 0.59
-5 -1 15 2.98 0.79
-1 5 15 2.12 0.58
1 5 -15 2.59 0.58
1 -5 15 1.75 0.6
15 -1 5 1.33 0.42
-1 -15 5 1.93 0.3
-15 1 5 1.85 0.44
-1 -5 -15 2 0.47
-15 -5 1 1.44 0.43
-15 5 -1 1.63 0.42
15 -5 -1 2.43 0.58
5 15 -1 1.82 0.44
-5 1 -15 1.03 0.34
1 15 5 2.05 0.3
-1 15 -5 1.72 0.21
5 -1 -15 1.29 0.51
1 15 5 2.31 0.4
5 1 15 3.04 0.67
15 5 1 1.26 0.45
-15 5 1 1.75 0.41
1 -15 5 2.12 0.24
-1 15 5 1.34 0.33
1 -5 -15 1.49 0.45
15 1 5 1.75 0.46
5 15 1 1.99 0.39
-5 1 15 1.82 0.64
-5 -1 -15 2.02 0.45
15 -5 1 1.38 0.44
15 5 -1 2.51 0.6
-15 -5 -1 1.88 0.47
-1 15 5 2.17 0.26
5 -1 15 2.55 0.6
-15 -1 5 2.12 0.47
15 -1 -5 1.44 0.53
-1 -5 15 2.01 0.67
-1 5 -15 1.13 0.39
1 5 15 1.59 0.6
5 1 -15 1.04 0.43
1 15 -5 1.76 0.33
15 1 5 1.73 0.38
3 5 -15 18.5 1.65
3 -5 15 15.2 1.6
15 -3 5 17.48 1.39
-15 3 5 15.98 1.48
-3 -5 -15 18.2 1.46
-5 -3 15 15.27 1.74
5 3 15 12.66 1.48
15 3 -5 16.81 1.67
-5 3 -15 16.82 1.45
-15 -5 3 15.06 1.46
-3 5 15 12.98 1.58
3 15 5 14.77 1.28
5 -3 -15 12.36 1.5
5 15 -3 16.61 1.48
15 -3 5 15.56 1.46
15 -5 -3 17.59 1.63
15 5 3 15.9 1.5
-3 -15 5 17.01 1.31
-3 15 5 15.04 1.23
-15 5 3 18.69 1.49
-5 -3 -15 14.79 1.38
3 15 -5 16.08 1.38
15 3 5 15.24 1.46
-5 -15 3 15.09 1.29
5 -3 15 14.36 1.52
-15 -3 5 15.39 1.48
3 -5 -15 13.36 1.44
15 -3 -5 17.75 1.76
15 3 5 14.52 1.35
3 5 15 13.65 1.55
15 -5 3 16.34 1.35
-5 3 15 16.18 1.69
15 -5 3 16.18 1.5
5 15 3 13.02 1.31
15 5 -3 16.73 1.66
5 3 -15 15.9 1.6
-3 5 -15 18.28 1.48
-3 -5 15 17.2 1.71
5 15 -5 24.51 2.13
5 5 15 23.63 2.22
-5 15 5 25.13 1.84
5 -15 -5 25.72 1.79
5 -5 15 26.6 2.24
-5 5 15 28.05 2.44
-15 5 5 24.51 2.12
-5 -15 5 25.16 1.99
15 5 5 27.08 2.19
15 5 5 24.15 2.02
5 15 5 20.42 1.94
5 5 -15 24.44 2.22
-15 -5 5 24.66 2.14
5 -5 -15 33.3 2.38
-5 -5 -15 26.43 2.07
-5 5 -15 23.35 2.04
5 15 5 25.41 1.98
15 -5 5 27.64 2.04
15 5 -5 23.47 2.29
15 -5 -5 25.79 2.34
15 -5 5 24.86 2.1
7 1 15 41.33 3.13
15 -7 -1 37.84 3.13
7 -1 -15 38.4 3.17
-15 1 7 38.98 3.11
1 7 -15 38.2 3.07
1 -7 15 39.14 3.23
1 -15 -7 40.06 2.77
15 -1 7 37.39 2.93
15 7 1 36.11 3.08
-1 -7 -15 41.17 3.01
15 1 -7 44.33 3.38
-1 7 15 40.82 3.24
15 -1 7 39.52 3.03
-15 -7 1 37.79 2.99
-1 15 -7 37.94 2.77
-7 -1 15 39.47 3.31
-7 1 -15 41.62 2.99
7 15 -1 37.01 3.04
-1 -15 7 39.19 2.89
-15 7 -1 37.85 2.91
-1 -7 15 37.76 3.25
15 7 -1 37.61 3.14
-15 -1 7 37.88 3.1
1 15 -7 37.59 2.88
7 15 1 32.51 2.94
7 15 1 41.25 2.85
-15 -7 -1 36.65 2.96
15 1 7 40.83 3.04
7 -1 15 42.54 3.16
-15 7 1 41.28 2.98
-7 -1 -15 32.47 2.91
1 -15 7 37.29 2.85
-7 1 15 41.92 3.37
1 -7 -15 31.71 2.95
7 1 -15 33.37 3.14
-1 15 7 38.19 2.94
1 7 15 42.52 3.27
-7 -15 1 37.66 2.85
15 -7 1 40.16 3.1
15 -1 -7 40.57 3.3
15 1 7 46.62 3.02
-1 7 -15 39.24 3.04
-15 -7 3 0.2 0.19
-3 -15 7 0.07 0.18
3 -15 -7 0.09 0.12
15 -3 7 -0.05 0.2
15 3 -7 0.04 0.28
7 15 -3 -0.09 0.23
3 -7 15 -0.05 0.19
-7 3 -15 0.21 0.21
15 7 3 0 0.13
15 -7 -3 -0.05 0.29
15 -3 7 -0.15 0.12
-3 7 15 -0.19 0.24
15 7 3 0.31 0.24
-15 3 7 -0.12 0.18
-3 15 -7 0.14 0.1
7 3 15 0.39 0.32
-7 -3 15 -0.08 0.38
3 15 7 -0.14 0.15
7 -3 -15 0.11 0.24
-3 -7 -15 0 0.15
3 7 -15 -0.12 0.29
3 15 7 0.1 0.14
3 7 15 -0.42 0.24
-7 3 15 0.65 0.44
3 15 -7 -0.09 0.21
15 3 7 -0.06 0.17
15 -7 3 0.4 0.29
-7 -3 -15 -0.1 0.14
7 15 3 0.2 0.21
15 -7 3 -0.02 0.13
-7 -15 3 0.31 0.19
7 3 -15 -0.1 0.26
-15 -3 7 0.08 0.23
-3 7 -15 0.06 0.22
7 -3 15 0.2 0.29
3 -15 7 0.14 0.17
7 15 3 -0.06 0.13
15 3 7 0.35 0.26
-15 7 3 0.12 0.18
15 -3 -7 0.13 0.25
-3 -7 15 -0.07 0.28
15 7 -3 0.14 0.29
3 -7 -15 -0.02 0.18
-3 15 7 -0.05 0.19
7 -15 5 0.21 0.13
5 -15 -7 0.3 0.15
7 5 15 0.39 0.28
-15 -7 5 0.11 0.2
15 -7 -5 0.24 0.34
-7 -5 15 0.11 0.33
-7 5 -15 0.49 0.25
7 -5 -15 -0.25 0.29
-5 -15 7 0.12 0.19
7 -15 5 0.12 0.09
15 7 5 0.08 0.17
7 15 -5 0.04 0.33
15 -5 7 0.28 0.25
15 -5 7 0.42 0.21
15 5 -7 0.56 0.37
-15 5 7 0.41 0.33
15 7 5 -0.08 0.18
-7 15 5 0.21 0.14
5 15 7 0.36 0.21
-5 7 15 0.04 0.36
5 -7 15 0.32 0.32
5 7 -15 -0.08 0.22
-5 -7 -15 0.1 0.17
5 15 7 0.16 0.18
7 -5 15 -0.03 0.21
-7 5 15 0.36 0.34
7 -15 -5 0.2 0.12
-7 -15 5 0.17 0.18
5 7 15 0.18 0.24
5 15 -7 0.11 0.31
15 -7 5 0.21 0.17
-5 7 -15 0.24 0.23
-15 -5 7 -0.23 0.24
5 -15 7 0.19 0.1
-7 -5 -15 0.11 0.17
-5 15 7 0.21 0.22
7 5 -15 -0.09 0.37
15 -5 -7 0.04 0.39
5 -15 7 0.54 0.24
-5 -7 15 0.53 0.41
15 5 7 0.05 0.19
15 5 7 0 0.19
5 -7 -15 0.49 0.3
7 15 5 0.27 0.21
15 -7 5 0 0.16
15 7 -5 0.35 0.43
-15 7 5 0.34 0.28
7 15 5 0.11 0.16
15 7 7 58.2 4.29
15 7 7 57.55 4.18
7 15 -7 54.04 4.38
15 7 -7 62.51 4.93
7 15 7 64.84 4.2
-15 7 7 58.59 4.32
-7 -15 7 47.65 4.15
7 7 15 51.22 4.28
-7 7 -15 58.58 4.19
-7 -7 -15 47.99 4.12
-7 7 15 58.23 4.56
-7 15 7 59.1 4.12
7 -15 -7 53.32 4.03
7 -15 7 55.76 3.96
15 -7 7 57.31 4.16
-15 -7 7 57.86 4.34
7 -7 15 56.63 4.37
7 7 -15 57.32 4.47
7 -15 7 58.18 4.11
7 -7 -15 55.24 4.37
-7 -7 15 60.33 4.6
15 -7 7 56.49 4.23
7 15 7 59.96 4.18
15 -7 -7 58.9 4.54
15 -1 9 51.49 4.09
9 -15 1 53.82 3.77
-1 15 -9 57.43 3.99
1 15 9 56.29 4.17
9 -15 1 55.08 3.78
-15 1 9 54.81 4.29
15 1 -9 56.89 4.49
9 -1 -15 54.31 4.36
-1 -9 -15 61.83 4.16
-9 -1 15 53.69 4.47
9 1 15 61.46 4.31
15 -9 -1 51.45 4.43
1 -9 15 62.47 4.48
15 9 1 55.92 4.29
1 9 -15 53.44 4.19
-9 1 -15 48.03 4.05
15 -1 9 59.14 4.18
1 -15 -9 52.89 3.96
-1 9 15 61.28 4.45
-15 -9 1 55.07 4.15
-1 -15 9 52.25 4.13
9 15 -1 45.15 4.16
15 1 9 63.09 4.17
-1 9 -15 57.39 4.19
1 15 -9 61.16 4.09
-1 15 9 58.34 4.2
9 15 1 51.97 3.99
1 -15 9 55.98 4.15
-15 -1 9 53.46 4.27
1 9 15 50.51 4.3
9 -15 -1 54.2 3.78
1 -9 -15 58.42 4.17
15 9 -1 60.65 4.36
-9 -15 1 54.54 4.05
9 1 -15 60.15 4.47
-1 -15 -9 58.72 3.98
15 1 9 48.26 4.1
-15 -9 -1 52.46 4.11
-1 -9 15 61.7 4.48
9 -15 -1 55.47 3.82
9 15 1 55 4.2
9 -1 15 51.01 4.19
-15 9 1 59.7 4.11
-9 -1 -15 61.8 4.14
-9 1 15 56.94 4.49
15 -1 -9 56.76 4.5
-15 -9 3 8.94 0.97
9 -15 3 8.63 0.75
-3 -15 9 7.92 0.97
15 -3 9 9.12 0.96
9 3 15 8.42 1.07
15 3 -9 11.86 1.37
3 -9 15 6.8 1.04
15 -9 -3 7.25 1.59
-9 3 -15 8.65 0.92
-3 -9 -15 9.85 0.98
9 -3 -15 8.58 1.16
-3 15 -9 9.27 0.8
15 9 3 9.58 0.94
3 -15 -9 9.4 0.84
-9 -3 15 9.63 1.25
-15 3 9 9.35 1.12
9 -15 3 9.77 0.73
15 9 3 10.8 1.12
15 -3 9 10.63 1
3 9 -15 10.26 1.13
3 15 9 8.12 0.98
-3 9 15 8.64 1.22
9 15 -3 8 1.12
-3 9 -15 7.62 0.91
-3 -9 15 7.8 1.13
3 -9 -15 8.61 0.99
-9 3 15 8.4 1.25
-9 -3 -15 8.64 0.92
-15 -3 9 9.05 1.08
-3 15 9 7.69 1
9 3 -15 7.56 1.2
15 3 9 7.71 0.93
15 -9 3 8.78 1.07
9 15 3 8.27 1
-9 -15 3 9.69 0.94
9 15 3 8.66 0.88
15 -3 -9 9.61 1.26
-15 9 3 8.87 0.93
15 -9 3 8.91 0.91
15 9 -3 7.79 1.1
9 -3 15 9.15 1.05
3 9 15 8.99 1.1
9 -15 -3 8.12 0.76
15 3 9 7.56 0.91
3 15 -9 8.53 0.98
3 -15 9 8.89 0.98
9 15 -5 33.12 2.75
15 -5 9 30.5 2.47
15 -5 9 29.11 2.45
-15 -9 5 31.33 2.56
5 9 -15 29.95 2.66
5 -9 15 31.67 2.69
-9 -5 15 32.96 2.82
9 5 15 34.71 2.64
-15 5 9 30.26 2.61
5 -15 -9 33.41 2.38
9 -15 5 30.43 2.29
15 5 -9 29.53 2.79
-5 -15 9 31.82 2.55
-9 5 -15 32.58 2.46
15 9 5 27.37 2.53
15 9 5 31.8 2.45
-5 -9 -15 26.01 2.4
-5 15 -9 30.44 2.26
9 -15 5 29.03 2.28
9 -5 -15 29.18 2.66
-9 15 5 31.16 2.3
5 15 9 31.79 2.51
5 15 9 30.42 2.41
-5 9 15 30.57 2.77
15 5 9 33.9 2.54
9 15 5 30.99 2.41
9 15 5 39.19 2.61
15 -5 -9 31.52 2.84
5 -9 -15 34.56 2.61
9 -5 15 32.66 2.64
-5 9 -15 31.79 2.47
9 -15 -5 31.22 2.35
15 -9 5 30.77 2.41
5 -15 9 29.1 2.47
5 15 -9 33.66 2.65
15 5 9 31.23 2.48
-9 5 15 34.03 2.87
15 -9 5 31.89 2.54
15 9 -5 28.71 2.72
-15 -5 9 32.39 2.68
-9 -15 5 27.93 2.44
5 9 15 31.38 2.67
-5 -9 15 24.96 2.68
9 5 -15 32.18 2.77
-15 9 5 30.88 2.52
-5 15 9 30.39 2.54
-9 -5 -15 28.9 2.42
7 -15 -9 89.01 5.8
-15 -9 7 82.94 5.99
9 -15 7 78.76 5.75
-15 7 9 83.82 6.01
-9 -7 15 87.44 6.24
15 -7 9 81.62 5.85
-9 7 -15 82.44 5.81
9 15 -7 84.58 6.16
-7 9 15 81.1 6.18
15 -7 9 87.5 5.88
9 7 15 71.55 5.92
7 9 -15 87.32 6.17
7 15 9 72.83 5.83
7 -9 15 84.68 6.06
9 -7 -15 82.73 6.07
15 9 7 78.29 5.93
15 9 7 86.17 5.86
9 -15 7 80.02 5.68
15 -9 -7 81.55 6.2
7 15 9 81.77 5.83
-7 -15 9 86.46 5.97
-7 -9 -15 76.41 5.79
9 7 -15 84.94 6.18
7 -9 -15 86.21 6.04
-7 -9 15 83.3 6.21
9 15 7 70.29 5.81
9 15 7 76.7 5.8
15 -7 -9 77.23 6.16
15 -9 7 80.21 5.88
7 9 15 76.63 5.96
9 -15 -7 85.77 5.78
15 9 -7 79.78 6.21
-7 9 -15 75.37 5.79
7 -15 9 79.81 5.66
9 -7 15 79.04 6.01
15 7 9 68.44 5.79
15 7 9 80.66 5.88
-7 15 9 82.65 5.9
-15 9 7 93.03 6
-15 -7 9 74.46 5.98
-9 7 15 78.6 6.19
-9 -7 -15 88.54 5.84
-9 -15 7 78.15 5.88
15 -9 7 82.12 5.8
7 -15 9 81.91 5.86
7 15 -9 88.88 6.13
15 9 9 129.97 8.66
9 15 -9 118.69 8.93
9 15 9 135.55 8.66
15 9 9 128.07 8.72
9 9 -15 112.41 8.88
15 9 -9 122.44 9.04
-15 9 9 113.98 8.76
-9 9 -15 112.88 8.57
15 -9 9 116.34 8.63
9 15 9 130.62 8.67
15 -9 -9 121.56 8.98
-9 9 15 103.55 8.89
9 -15 -9 127.95 8.62
15 -9 9 128.48 8.66
9 -9 15 127.38 8.87
9 -15 9 132.51 8.69
9 9 15 111.52 8.72
-15 -9 9 133.52 8.86
9 -15 9 116.1 8.48
-9 -9 15 115.23 8.92
9 -9 -15 127.82 8.86
-9 15 9 123.79 8.65
-9 -9 -15 129.15 8.6
-9 -15 9 120.59 8.74
1 -11 15 4.61 0.93
1 11 -15 3.64 0.72
-1 -11 -15 6.17 0.73
15 -1 11 4.92 0.69
-1 11 15 4.19 0.85
-15 -11 1 5.71 0.7
-1 -15 11 3.83 0.77
11 -15 1 4.62 0.61
15 -11 -1 5.56 0.86
-15 1 11 3.62 0.75
11 -15 1 5.47 0.5
11 15 -1 4.96 0.9
15 11 1 5.42 0.8
-11 1 -15 5.62 0.68
-1 15 -11 5.87 0.66
15 -1 11 3.77 0.63
15 1 -11 4.88 1.01
1 15 11 3.19 0.74
11 -1 -15 5.44 0.99
11 1 15 5.02 0.79
1 -15 -11 5.71 0.63
-11 -1 15 3.53 0.79
-15 -1 11 4.29 0.84
1 -11 -15 4.5 0.68
1 15 -11 3.97 0.63
11 -15 -1 5.42 0.64
15 1 11 4.71 0.7
15 1 11 4.79 0.67
1 11 15 3.93 0.79
1 -15 11 4.76 0.77
-15 -11 -1 5.58 0.7
-11 -15 1 5.12 0.66
-11 -1 -15 5.79 0.68
15 11 -1 4.98 0.8
11 15 1 5.12 0.81
11 -1 15 5.32 0.76
11 1 -15 4.85 0.99
-1 15 11 3.85 0.76
11 15 1 5.25 0.62
15 -11 1 5.74 0.8
-1 -15 -11 4.44 0.59
-15 11 1 4.87 0.61
-1 -11 15 5.41 0.98
15 -11 1 4.31 0.56
11 -15 -1 4.33 0.46
-11 1 15 5.06 0.99
15 -1 -11 2.32 0.9
15 11 3 35.47 2.54
3 -11 15 29.13 2.81
11 15 -3 31.18 2.78
-3 -15 11 35.06 2.73
-15 3 11 36.25 2.85
11 3 15 33.7 2.69
15 3 -11 32.12 2.98
-3 15 -11 30.78 2.43
-15 -11 3 33.03 2.6
-3 11 15 31.4 2.84
3 15 11 31.03 2.65
11 -3 -15 30.77 2.82
11 -15 3 32.41 2.37
-11 15 3 30.83 2.34
-3 -11 -15 38.45 2.61
-11 3 -15 32.98 2.53
3 -15 -11 31.72 2.47
15 11 3 28.99 2.67
15 -3 11 33.7 2.61
-11 -3 15 30.86 2.82
3 11 -15 35.78 2.76
15 -3 11 30.1 2.55
15 -11 -3 26.29 2.67
11 -15 3 34.5 2.49
-11 -15 3 34.62 2.59
15 11 -3 31.34 2.81
15 3 11 31.78 2.59
3 -15 11 29.08 2.66
3 15 -11 31.57 2.63
15 -11 3 29.95 2.62
-15 11 3 31.63 2.52
-15 -3 11 35.92 2.82
-11 -3 -15 37.64 2.58
-11 3 15 31.6 2.86
15 -3 -11 26.59 2.82
3 -11 -15 38.14 2.66
-3 -11 15 31.49 2.85
3 11 15 34.46 2.77
11 15 3 33.77 2.51
15 -11 3 31.16 2.46
11 -15 -3 30.81 2.48
11 3 -15 26.96 2.79
-3 11 -15 29.63 2.53
11 -3 15 30.13 2.64
11 15 3 26.66 2.6
-3 15 11 33.91 2.75
15 3 11 32.56 2.61
-3 -15 -11 34.62 2.47
-5 -15 11 15.59 1.55
-15 -11 5 14.43 1.45
-15 5 11 15.37 1.62
-5 11 15 12.56 1.62
-5 -11 -15 13.14 1.35
15 11 5 16.85 1.41
15 11 5 14.87 1.5
15 -11 -5 13.87 1.63
15 -5 11 15.97 1.47
5 11 -15 16.64 1.65
5 -11 15 16.9 1.68
11 15 -5 16.56 1.72
5 -15 -11 16.02 1.38
15 5 -11 14.13 1.74
-11 -5 15 14.75 1.66
-11 5 -15 14.81 1.37
15 -5 11 15.19 1.45
11 -5 -15 14.91 1.68
11 -15 5 14.62 1.32
11 5 15 17.21 1.58
11 -15 5 15.73 1.3
5 15 11 15.21 1.48
-5 15 -11 14.82 1.28
15 -5 -11 18.2 1.83
11 -15 -5 15.29 1.4
-15 11 5 16.84 1.46
15 5 11 13.91 1.42
15 5 11 14.55 1.44
5 -11 -15 16.56 1.55
15 11 -5 16.49 1.77
5 11 15 15.13 1.6
-5 15 11 17.92 1.63
5 15 -11 12.4 1.5
15 -11 5 13.86 1.46
-5 -11 15 17.13 1.78
11 15 5 14.48 1.37
-11 -15 5 14.54 1.42
11 15 5 17.16 1.53
-5 11 -15 15.21 1.38
-11 -5 -15 17.13 1.42
-15 -5 11 14.02 1.57
11 -5 15 14.99 1.5
11 5 -15 12.73 1.61
5 -15 11 17.76 1.6
-11 5 15 12.54 1.6
15 -11 5 15.39 1.35
-11 15 7 -0.14 0.17
-15 -11 7 0.12 0.22
11 -7 -15 0.55 0.46
11 -15 7 0.05 0.19
-7 11 15 -0.11 0.36
15 -11 -7 0.31 0.36
15 -7 11 0.02 0.2
15 -7 11 0.15 0.2
15 11 7 -0.06 0.21
11 -15 7 0.17 0.22
-7 -11 -15 -0.08 0.19
7 -11 15 -0.13 0.23
-11 -7 15 -0.08 0.25
-11 7 -15 0.1 0.15
-7 -15 11 -0.24 0.18
-7 15 -11 0.1 0.13
15 11 7 0.29 0.27
7 15 11 0.25 0.24
-15 7 11 0.01 0.25
11 15 -7 0.43 0.47
7 11 -15 0.19 0.38
15 7 -11 0.22 0.39
11 7 15 0.56 0.34
7 -15 -11 0.28 0.24
7 15 11 -0.12 0.16
15 -7 -11 0.17 0.34
15 11 -7 0.29 0.46
-7 15 11 -0.1 0.24
-11 -7 -15 0.15 0.26
-11 -15 7 0.14 0.19
11 7 -15 -0.04 0.31
11 15 7 -0.54 0.17
11 -15 -7 0.26 0.27
-7 11 -15 -0.01 0.18
15 7 11 0.36 0.27
15 7 11 0.08 0.2
-7 -11 15 0.14 0.3
7 -15 11 -0.01 0.27
7 15 -11 -0.15 0.31
-15 11 7 0.33 0.25
11 -7 15 0.3 0.27
15 -11 7 0.43 0.25
11 15 7 0.41 0.26
7 -11 -15 0.48 0.33
15 -11 7 0.48 0.25
-11 7 15 0.5 0.46
7 11 15 0.61 0.37
9 -11 15 6.8 0.99
-11 15 9 7.5 0.9
15 -11 -9 8.67 1.19
9 11 -15 6.52 1.04
15 -9 11 7.09 0.87
15 9 -11 6.29 1.2
11 9 15 5.41 0.84
-15 -11 9 7.6 0.99
-9 -11 -15 6.27 0.77
9 -15 -11 6.58 0.86
11 -15 9 6.1 0.74
11 -9 -15 7.52 1.01
-9 -15 11 5.64 0.89
-11 9 -15 6.72 0.79
9 15 11 7.5 0.86
15 -9 11 7.14 0.86
11 -15 9 6.88 0.87
-9 11 15 8.43 1.17
15 11 9 7.01 0.84
11 15 -9 8.2 1.15
9 15 11 6.16 0.87
-15 9 11 6.4 0.97
-11 -9 15 6.44 0.99
15 11 9 6.14 0.85
-11 -15 9 7.67 0.95
15 -11 9 7.63 0.89
15 11 -9 6.47 1.22
9 -11 -15 5.81 0.96
-9 11 -15 6.09 0.75
-9 -11 15 5.13 1.01
11 15 9 6.03 0.81
-15 -9 11 7.34 0.98
-15 11 9 8.83 0.97
9 15 -11 5.77 1.07
15 9 11 7.38 0.9
9 11 15 8.36 1.03
15 -9 -11 4.96 1.06
11 9 -15 7.38 1.25
9 -15 11 6.83 0.76
9 -15 11 7.96 0.95
15 9 11 8.23 0.94
11 -15 -9 6.2 0.87
11 -9 15 6.62 0.95
-11 9 15 6.26 1.22
15 -11 9 7.05 0.85
11 15 9 6.95 0.87
-9 15 11 5.6 0.91
-11 11 15 1.9 0.65
15 -11 -11 2.64 0.71
11 -15 -11 1.89 0.51
11 -11 -15 2.11 0.61
15 11 11 1.56 0.46
11 -11 15 1.29 0.51
11 15 11 1.15 0.42
11 11 -15 2.63 0.72
11 -15 11 2.31 0.46
11 11 15 1.25 0.45
11 15 -11 2.97 0.81
15 -11 11 1.74 0.49
11 15 11 2.41 0.51
-15 11 11 1.37 0.49
-11 -15 11 1.87 0.55
-11 -11 15 1.56 0.57
-11 11 -15 1.54 0.4
15 11 -11 1.91 0.77
-11 15 11 2.06 0.55
11 11 15 1.82 0.49
15 -11 11 1.26 0.42
-15 -11 11 2.14 0.59
11 -15 11 1.72 0.52
15 11 11 1.7 0.45
-13 -1 15 1.71 0.62
-1 13 15 0.75 0.46
-15 -13 1 1.32 0.4
13 15 -1 1.28 0.54
13 -15 1 1.14 0.28
1 15 13 1.3 0.49
13 -1 -15 1.58 0.61
-15 1 13 1.19 0.45
15 1 -13 0.64 0.5
15 -1 13 0.98 0.4
15 -13 -1 1.06 0.43
15 -13 -1 1.51 0.34
15 -1 13 1.82 0.46
-1 15 -13 1.44 0.4
15 13 1 1.94 0.55
1 -15 -13 1.35 0.35
1 -13 15 0.59 0.45
-13 1 -15 0.73 0.31
13 -15 1 1.17 0.39
-1 -13 -15 1.3 0.39
1 13 -15 0.79 0.35
-1 -15 13 1.32 0.55
13 1 15 1.61 0.49
1 -13 -15 1.35 0.37
-1 15 13 1.3 0.49
1 13 15 1.05 0.49
13 -15 -1 1.71 0.47
13 -15 -1 1.36 0.29
13 -1 15 1.28 0.45
1 15 -13 1.04 0.43
15 13 -1 0.93 0.46
-13 1 15 0.7 0.4
-13 -1 -15 1.11 0.34
-15 -1 13 0.92 0.41
-13 -15 1 1.47 0.39
1 -15 13 1.1 0.46
13 15 1 1.24 0.49
13 15 1 1.56 0.38
-1 13 -15 1.28 0.41
-1 -13 15 1.12 0.52
13 1 -15 1.1 0.53
15 1 13 1.09 0.36
15 1 13 1.2 0.45
15 -13 1 1.81 0.52
15 -13 1 1.37 0.33
-1 -15 -13 1.44 0.38
15 13 3 66.61 4.69
13 -3 -15 52.68 4.94
-13 15 3 66.81 4.56
-3 -13 -15 63.01 4.68
-13 -3 15 62.52 5.01
13 -15 3 66.63 4.73
15 13 3 68.75 4.92
3 -15 -13 59.47 4.64
3 13 -15 59.08 4.83
13 3 15 60.82 4.8
15 -13 -3 60.88 4.92
-3 13 15 72.29 5.14
13 -15 3 67.04 4.57
-15 3 13 70.85 5.02
-13 3 -15 70.97 4.71
15 -3 13 59.19 4.71
15 -3 13 68.54 4.8
15 3 -13 76.24 5.3
13 15 -3 55.39 4.93
-3 -15 13 71.69 5
3 15 13 65.23 4.88
-15 -13 3 67.5 4.8
3 -13 15 62.6 5.01
-3 15 -13 62.63 4.63
13 15 3 73.29 4.95
15 3 13 59.65 4.75
-13 3 15 59.57 5.01
-15 -3 13 61.33 4.93
-3 -13 15 62.65 5.02
3 15 -13 66.54 4.85
13 -3 15 66.55 4.85
15 -13 3 65.32 4.61
15 13 -3 67.49 5.05
13 15 3 58.95 4.62
-3 -15 -13 62.68 4.63
-13 -15 3 63.81 4.73
3 -15 13 61.17 4.94
13 3 -15 57.6 5.03
3 13 15 72.38 4.99
15 -3 -13 52.95 5
-3 13 -15 60.88 4.68
3 -13 -15 59.38 4.7
15 3 13 53.92 4.68
-3 15 13 76.14 5.08
13 -15 -3 66.85 4.81
-15 13 3 67.65 4.66
15 -13 3 62.45 4.81
15 -13 -5 63.43 5.23
-13 5 -15 65.8 4.97
15 13 5 73.96 5.24
13 5 15 80.74 5.22
5 -13 15 65.64 5.3
5 13 -15 66.91 5.21
13 -15 5 66.87 5
13 15 -5 74.74 5.46
5 15 13 62.95 5.15
13 -5 -15 66.9 5.33
15 -5 13 66.52 5.05
-13 15 5 70.1 4.92
15 5 -13 77.58 5.55
-5 13 15 69.06 5.4
15 13 5 60.72 4.95
-15 -13 5 65.23 5.06
15 -5 13 66.77 5.08
13 -15 5 69.94 4.94
5 -15 -13 66.37 4.99
-15 5 13 75.79 5.33
-13 -5 15 64.33 5.31
-5 15 -13 68.15 4.93
-5 -15 13 68.68 5.26
-5 -13 15 64.81 5.29
15 5 13 71.28 5.11
-13 5 15 63.84 5.32
-5 -15 -13 69.57 4.95
13 -15 -5 71.98 5.13
13 -5 15 64.49 5.14
-5 15 13 68.45 5.3
13 15 5 70.2 5.19
13 15 5 71.98 5.02
-5 13 -15 72.94 4.99
5 -15 13 72.89 5.31
5 15 -13 67.9 5.18
5 13 15 76.97 5.32
-15 13 5 70.33 5
15 -5 -13 56.73 5.31
-15 -5 13 66.74 5.27
13 5 -15 75.57 5.49
-13 -15 5 68.12 5.05
15 -13 5 69.56 5.09
5 -13 -15 65.41 5.06
15 13 -5 67.5 5.43
15 -13 5 69.56 4.96
15 -7 13 5.6 0.76
13 15 -7 6.15 1.17
15 7 -13 6.27 1.17
7 -13 15 6.52 0.99
7 15 13 4.94 0.7
15 -7 13 6.47 0.83
-7 -13 -15 5.83 0.7
-15 -13 7 5.25 0.78
15 13 7 5.18 0.8
-7 -15 13 5.69 0.89
-7 15 -13 5.94 0.68
-7 13 15 4.31 0.94
-15 7 13 6.8 0.97
-13 -7 15 6.38 1.01
7 13 -15 6.25 1.01
15 13 7 4.75 0.72
13 -7 -15 5.32 1.02
13 -15 7 6.31 0.77
7 -15 -13 5.39 0.77
15 -13 -7 4.38 0.98
-13 15 7 6.27 0.75
13 -15 7 5.35 0.73
7 15 13 6.94 0.91
13 7 15 7.71 0.93
13 -7 15 5.87 0.87
15 7 13 6.98 0.87
13 -15 -7 5.19 0.84
7 -15 13 4.89 0.93
-15 -7 13 5.8 0.89
-15 13 7 5.5 0.77
-13 -15 7 5.1 0.8
13 7 -15 5.57 1.08
7 13 15 4.89 0.83
13 15 7 5.89 0.82
-7 15 13 5.04 1
15 -13 7 6.32 0.77
15 13 -7 6.04 1.12
7 15 -13 5.36 1
13 15 7 4.96 0.72
15 -7 -13 5.7 1.09
-7 13 -15 6.26 0.73
15 -13 7 5.46 0.81
7 -13 -15 6.07 0.87
15 7 13 4.43 0.75
-13 7 15 3.51 0.84
-7 -13 15 4.23 0.93
15 9 -13 0.81 0.59
15 -9 13 0.5 0.3
15 -9 13 0.7 0.4
15 -13 -9 0.7 0.41
-9 -15 13 0.54 0.35
13 -15 9 0.06 0.24
15 13 9 0.28 0.25
9 15 13 0.48 0.31
13 -9 -15 0.48 0.41
9 13 -15 -0.17 0.42
9 -15 -13 0.63 0.36
13 9 15 0.56 0.3
15 13 9 0.41 0.35
9 15 13 0.69 0.31
13 15 -9 0.87 0.49
-9 13 15 0.58 0.44
13 -15 9 0.78 0.33
-15 -13 9 0.05 0.26
-13 -9 15 0.87 0.42
13 9 15 0.6 0.31
-15 9 13 0.52 0.34
9 -13 15 0.28 0.34
13 15 9 0.38 0.27
-9 -13 15 0.57 0.43
9 -15 13 0.42 0.42
15 -13 9 0.49 0.28
-9 15 13 0.71 0.41
9 13 15 0.43 0.4
15 9 13 0.28 0.2
9 -13 -15 -0.21 0.28
15 -13 9 0.51 0.29
-13 -15 9 0.34 0.29
13 15 9 0.32 0.28
-15 13 9 0.62 0.33
15 -9 -13 0.54 0.39
-15 -9 13 0.25 0.37
13 -15 -9 0.66 0.37
-13 9 15 0.64 0.39
15 9 13 0.44 0.28
-9 13 -15 0.74 0.31
13 9 -15 0.5 0.52
9 15 -13 0.22 0.45
13 -9 15 0.25 0.26
15 13 -9 1.65 0.64
15 11 -13 51.68 4.36
-13 -11 15 50.16 4.12
11 13 -15 54.44 4.29
-11 -15 13 45.2 4
15 -11 13 49.94 3.9
11 -15 -13 45.13 3.91
15 13 11 56 3.95
-15 -13 11 52.17 4.06
15 -13 -11 49.77 4.13
11 15 13 58.02 3.98
11 15 13 43.39 3.9
13 -11 -15 54.21 4.15
13 -15 11 54.6 4.04
15 13 11 53.17 3.97
-15 11 13 51.15 4.08
13 11 15 49.52 3.89
13 11 15 51.03 3.99
13 -15 11 48.47 3.82
15 -11 13 48.02 3.96
11 -13 15 50.74 4.08
13 15 -11 50.28 4.31
-13 15 11 48.11 3.96
-11 13 15 57.11 4.26
-15 -11 13 50.11 4.08
15 11 13 55.1 3.98
-13 11 15 52.79 4.19
11 -15 13 52.69 3.85
11 -13 -15 47.78 4.05
-11 15 13 54.14 4.22
-13 -15 11 50.31 4.03
-15 13 11 46.17 3.99
15 -13 11 51.16 3.9
15 -13 11 48.69 3.94
15 13 -11 50.63 4.29
13 -11 15 53.29 4.1
13 11 -15 49.44 4.22
13 15 11 42.55 3.85
11 15 -13 49 4.18
-11 -13 15 49.56 4.11
11 13 15 59.1 3.98
13 -15 -11 50.84 4.09
11 -15 13 47.48 4.03
13 -11 15 52.92 3.88
15 11 13 54.16 3.96
15 -11 -13 53.81 4.22
13 15 11 47.84 3.9
15 13 13 50.75 3.64
13 15 13 38.9 3.52
15 -13 -13 43.55 3.78
15 -13 13 36.48 3.92
15 -13 13 49.91 3.7
15 13 -13 43.11 3.93
15 13 13 38.77 3.48
-15 -13 13 47.93 4.6
13 13 15 51.1 3.61
13 15 -13 45.11 3.95
13 15 13 36.08 3.44
-13 -15 13 49.21 3.76
-13 -13 15 45.61 3.76
-13 13 15 41.8 3.75
-13 15 13 48.31 3.76
13 -15 -13 48.75 3.76
13 -15 13 51.15 3.57
13 -15 13 43.28 3.69
13 -13 -15 47.47 3.79
13 -13 15 51.57 3.71
13 13 -15 48.14 3.96
-15 13 13 41.84 3.69
15 1 15 61.38 4.19
1 -15 -15 56.81 4.08
15 15 -1 52.14 4.36
15 15 1 61.5 4.4
15 -1 15 49.71 4.08
15 -1 15 50.69 4.15
-15 -1 15 57.43 4.41
-15 1 15 52.77 4.39
1 15 15 45.35 4.25
15 1 15 60.19 4.22
15 1 -15 48.14 4.42
15 15 1 54.17 4.03
-1 -15 -15 54.44 4.05
-1 -15 15 54.26 4.41
-1 15 -15 51.59 4.07
-1 15 15 63.87 4.52
-15 -15 1 56.48 4.11
1 -15 15 52.93 4.39
1 15 -15 57.1 4.19
15 -1 -15 51.3 4.44
15 3 15 5.13 0.71
3 15 -15 4.3 0.81
3 15 15 4.42 0.9
15 -15 3 4.74 0.95
15 3 -15 6.89 1.2
15 -3 -15 5.07 1.02
15 -3 15 5.92 0.75
15 -3 15 4.33 0.83
15 15 3 3.25 0.77
-15 -15 3 6.37 0.8
-3 15 -15 5.24 0.69
-3 15 15 3.3 0.87
3 -15 -15 5.29 0.73
3 -15 15 4.76 1.03
15 -15 3 5.01 0.63
15 15 3 5.72 0.71
-15 -3 15 6.2 0.93
-15 3 15 3.25 0.8
-3 -15 -15 4.01 0.64
-3 -15 15 5.31 0.98
15 15 -3 7.22 1.1
15 3 15 4.79 0.74
15 -5 15 7.98 1.02
15 5 15 9.4 1.01
15 15 -5 8.23 1.27
15 15 5 6.28 1
15 15 5 7.73 0.9
-5 15 15 6.36 1.2
5 -15 -15 7.25 0.9
15 5 -15 7.07 1.33
15 5 15 6.45 0.92
15 -5 -15 7.78 1.16
15 -5 15 7.37 0.92
-15 -15 5 7.72 0.91
-15 -5 15 8.88 1.16
-15 5 15 6.56 1.09
-15 15 5 6.87 0.84
-5 -15 -15 7.25 0.83
-5 -15 15 7.95 1.13
-5 15 -15 7.91 0.86
15 -15 5 6.09 0.93
15 -15 5 8.06 0.87
5 -15 15 6.94 1.12
5 15 -15 6.67 1.01
5 15 15 9.68 1.17
15 -15 -5 7.87 1.11
-15 -15 7 23.47 2.14
-15 -7 15 24.26 2.31
-7 15 15 31.36 2.54
7 -15 -15 25.41 2.15
7 -15 15 25.93 2.43
7 15 -15 25.54 2.33
7 15 15 23.57 2.26
15 -15 -7 25.35 2.3
15 -15 7 24.85 2.15
15 -15 7 22.62 2.04
15 -7 -15 21.15 2.34
15 -7 15 27.06 2.15
15 -7 15 24.66 2.23
15 7 -15 24.02 2.5
15 7 15 24.96 2.11
15 7 15 24.73 2.16
15 15 -7 25.34 2.47
15 15 7 25.1 2.21
15 15 7 21.58 2.04
-15 15 7 23.23 2.05
-7 -15 15 21.23 2.25
-7 15 -15 24.72 2.01
-15 7 15 22.84 2.28
-9 -15 15 56.42 4.68
-9 15 -15 57.66 4.35
-9 15 15 76.05 5.19
-15 15 9 61.35 4.54
-15 -15 9 57.56 4.59
-15 -9 15 53.65 4.66
-15 9 15 62.1 4.74
9 15 15 58.27 4.61
15 -15 -9 56.61 4.65
15 -15 9 59.04 4.52
15 -15 9 56.88 4.49
15 -9 -15 57.13 4.74
15 -9 15 54.4 4.46
15 -9 15 60.16 4.61
15 9 -15 53.83 4.84
15 15 9 63.81 4.53
15 9 15 59.67 4.56
15 15 -9 62.25 4.98
15 15 9 61.24 4.61
9 15 15 68.5 4.55
15 9 15 61.24 4.53
9 -15 15 59.9 4.77
9 15 -15 66.67 4.87
9 -15 -15 53.93 4.53
11 15 15 0.6 0.35
11 15 -15 0.49 0.51
11 15 15 0.35 0.33
11 -15 15 1.22 0.43
11 -15 15 0.92 0.47
-11 -15 15 1.18 0.48
-11 15 15 0.86 0.48
11 -15 -15 0.91 0.49
-15 15 11 0.75 0.4
15 15 -11 1.13 0.59
15 15 11 0.86 0.41
15 15 11 1.47 0.45
15 11 15 1.21 0.43
-15 -15 11 1.64 0.5
-15 -11 15 1.05 0.42
-15 11 15 0.9 0.48
15 11 15 1.26 0.46
15 -15 -11 1.42 0.59
15 -15 11 1.13 0.37
15 -15 11 0.26 0.38
15 -11 -15 0.31 0.47
15 -11 15 0.94 0.37
15 -11 15 0.21 0.36
15 11 -15 1.75 0.7
-13 -15 15 3.21 0.78
-15 -15 13 2.2 0.63
-15 -13 15 2.08 0.61
-15 13 15 1.9 0.56
-15 15 13 1.86 0.64
13 -15 15 1.38 0.44
13 15 -15 2.04 0.69
13 15 15 1.47 0.47
13 15 15 1.82 0.57
15 -15 -13 1.02 0.52
15 -13 -15 1.58 0.64
15 -13 15 1.45 0.49
15 -13 15 1.07 0.54
15 13 -15 1.62 0.7
15 13 15 1.52 0.59
15 15 -13 2.2 0.81
-13 15 15 2.82 0.67
13 -15 -15 1.35 0.59
15 15 13 1.29 0.45
15 15 13 1.48 0.54
-15 -15 15 55.97 4.74
15 15 -15 58.64 5
15 15 15 66.63 4.67
15 15 15 59.51 4.71
0 0 16 428.94 28.64
16 0 0 408.11 28.49
-2 0 16 76.46 5.9
-2 0 -16 77.94 5.62
-16 2 0 69.76 5.55
-16 0 2 78.84 5.6
2 0 -16 82.52 5.72
2 0 16 84.43 5.87
16 -2 0 70.54 5.69
16 2 0 76.77 5.73
2 16 0 73.69 5.37
2 16 0 78.16 5.29
0 -2 -16 76.68 5.65
-16 -2 0 75.1 5.58
0 2 -16 76.45 5.67
0 2 16 89.33 5.94
-16 0 -2 73.73 5.55
0 -2 16 89.73 5.93
16 0 2 71.82 5.68
16 0 -2 82.15 5.84
-2 2 16 60.2 4.57
2 -2 16 60.94 4.49
2 16 -2 55.87 4.03
-16 -2 2 59.31 4.27
2 -2 -16 63.67 4.38
2 16 -2 56.64 3.94
2 2 -16 52.83 4.32
2 2 16 64.65 4.55
-2 2 -16 54.44 4.25
-16 2 -2 59.72 4.22
-16 2 2 54.52 4.23
-2 -2 -16 53.38 4.25
-2 -2 16 59.21 4.56
-16 -2 -2 57.73 4.24
2 16 2 58.38 4.06
2 16 2 56.4 4
16 -2 -2 55.79 4.43
16 2 2 58.17 4.38
16 -2 2 53.93 4.34
16 2 -2 59.16 4.46
4 0 -16 15.34 1.64
4 0 16 17.22 1.67
-16 0 4 15.59 1.54
0 -4 -16 13.65 1.48
0 4 16 13.3 1.62
4 16 0 18.34 1.48
4 16 0 17.41 1.31
16 0 -4 17.58 1.77
16 0 4 17.57 1.59
16 0 4 14.74 1.41
0 16 4 17.75 1.32
-16 -4 0 16.76 1.52
-16 4 0 18.04 1.52
-4 0 -16 19.48 1.56
-4 0 16 19.59 1.85
0 16 -4 16.78 1.18
0 16 4 16.77 1.26
16 4 0 15.16 1.61
0 -4 16 15 1.73
0 4 -16 17.4 1.59
16 -4 0 20.95 1.73
16 -4 -2 2.9 0.65
4 16 -2 4.18 0.58
-2 -16 4 2.87 0.35
16 -2 4 2.69 0.57
16 -2 4 3.39 0.48
-4 2 -16 2.35 0.49
4 -2 -16 3.11 0.67
-16 -4 2 2.62 0.57
2 -4 16 3.3 0.77
2 16 4 3.47 0.42
16 4 2 3.34 0.69
2 16 4 3.23 0.42
-16 2 4 2.22 0.51
-2 -4 -16 4.23 0.65
16 2 -4 2.69 0.71
4 2 16 2.68 0.68
-4 -2 16 2.53 0.67
16 -4 2 3.37 0.66
-16 -4 -2 2.25 0.53
16 2 4 2.59 0.59
16 2 4 2.06 0.45
-16 4 2 2.66 0.52
-4 -2 -16 3 0.58
16 -2 -4 4 0.76
4 -2 16 3.88 0.77
4 2 -16 3.38 0.69
-2 -4 16 2.43 0.7
-4 2 16 3.17 0.77
-2 4 -16 2.87 0.57
2 -4 -16 2.61 0.58
2 16 -4 3.5 0.46
2 4 16 4.06 0.8
4 16 2 3.06 0.49
4 16 2 3.82 0.43
16 4 -2 3.06 0.69
-16 -2 4 2.36 0.57
4 4 -16 1 0.46
-4 -16 4 0.75 0.23
4 16 4 0.97 0.29
16 -4 -4 1.65 0.54
-4 -4 -16 1.06 0.36
-4 -4 16 1.09 0.48
-4 4 -16 1.96 0.45
4 4 16 0.8 0.4
4 16 -4 1.34 0.37
-4 4 16 0.94 0.48
4 -4 -16 1.03 0.37
4 -4 16 0.87 0.41
16 -4 4 0.91 0.37
16 -4 4 1.5 0.36
16 4 -4 1.99 0.6
16 4 4 0.79 0.33
16 4 4 1.13 0.36
-16 4 4 0.46 0.26
-16 -4 4 1.42 0.46
0 6 16 19.14 1.89
-16 0 6 16.04 1.66
6 16 0 20.41 1.69
6 16 0 17.96 1.46
6 0 -16 20.31 1.84
-6 0 -16 19.45 1.62
-6 0 16 19.51 1.96
0 -16 6 19.38 1.44
0 16 -6 19.27 1.42
0 16 6 17.04 1.42
0 16 6 18.81 1.55
6 0 16 17.07 1.75
16 -6 0 18.48 1.75
16 6 0 17.19 1.75
-16 6 0 20.14 1.64
16 0 -6 14.15 1.83
16 0 6 18.18 1.69
16 0 6 17.38 1.57
0 -6 16 18.83 1.94
0 -6 -16 19.28 1.68
0 6 -16 21.49 1.78
-16 -6 0 19.8 1.67
2 6 -16 0.51 0.38
16 -6 -2 1.87 0.53
2 -6 16 1.23 0.52
16 -2 6 0.46 0.26
2 16 6 0.61 0.31
6 -2 -16 0.99 0.51
16 2 -6 0.28 0.36
-16 -6 2 1.22 0.34
-6 -2 16 1.63 0.56
6 16 -2 0.82 0.37
-6 2 -16 1.48 0.39
-2 -16 6 0.84 0.25
-16 2 6 1.05 0.37
2 16 6 1.08 0.27
16 6 2 1.21 0.42
6 2 16 0.94 0.4
-2 6 16 1.19 0.55
-2 -6 -16 1.17 0.37
-2 16 -6 0.98 0.14
16 -2 6 1 0.3
-6 2 16 1.49 0.53
16 -2 -6 1.67 0.55
-16 -6 -2 0.75 0.28
6 16 2 0.92 0.24
6 16 2 1.71 0.4
-2 16 6 1.87 0.37
16 2 6 0.99 0.36
16 -6 2 0.57 0.32
-16 6 2 1.31 0.37
2 6 16 0.9 0.46
6 2 -16 1.17 0.53
6 -2 16 0.51 0.36
-16 -2 6 0.97 0.41
-6 -16 2 1.2 0.28
2 16 -6 0.92 0.29
-6 -2 -16 0.85 0.37
-2 -6 16 0.89 0.46
-2 6 -16 1.45 0.41
2 -6 -16 1.4 0.44
16 2 6 0.77 0.33
16 6 -2 1.5 0.48
2 -16 6 0.82 0.17
-4 -6 -16 11.49 1.08
-6 4 -16 10.95 1.06
-6 -4 16 10.62 1.34
-16 4 6 11.66 1.19
16 4 -6 10.35 1.4
16 6 4 12.85 1.22
6 16 -4 11.06 1.21
4 -6 16 9.15 1.18
16 -6 -4 9.73 1.27
4 16 6 11.53 1
16 6 4 9.72 0.99
6 4 16 10.81 1.23
-4 6 16 9.2 1.27
-4 -16 6 11.76 1.02
16 -4 6 10.49 1.1
4 6 -16 10.73 1.22
4 16 6 10.82 1.02
-16 -6 4 8.86 1.09
4 -16 -6 10.12 0.8
6 -4 -16 8.2 1.14
16 -4 6 10.8 1.03
-4 16 6 8.08 0.87
6 4 -16 9.03 1.18
16 6 -4 8.49 1.25
4 6 16 12.33 1.29
16 -6 4 10.73 1.01
6 16 4 8.21 0.97
6 16 4 11.35 0.99
16 -4 -6 12.95 1.41
4 -16 6 10.15 0.73
4 -16 6 9.95 0.73
4 16 -6 10.35 1.09
16 4 6 11.09 1.06
6 -4 16 9.72 1.19
16 4 6 10.46 1.16
-16 -4 6 10.52 1.17
-6 -16 4 11.09 0.97
-16 6 4 9.58 1.05
-6 -4 -16 13.64 1.14
-4 -6 16 9.32 1.27
-4 6 -16 10.38 1.09
-6 4 16 9.18 1.36
4 -6 -16 10.44 1.17
16 -6 4 9.67 1.12
6 6 16 18.34 1.82
6 16 6 17.72 1.56
-6 6 -16 19.1 1.63
-16 -6 6 20.67 1.77
-16 6 6 19.14 1.73
-6 -6 16 16.42 1.89
6 6 -16 19.41 1.88
6 -16 6 18.08 1.33
6 -6 16 18.19 1.78
16 -6 6 18.2 1.69
16 -6 6 21.62 1.65
16 6 -6 19.85 2.02
16 6 6 18 1.72
16 6 6 16.55 1.56
6 -6 -16 19.08 1.81
-6 -16 6 17.29 1.58
-6 6 16 15.8 1.86
-6 16 6 18.11 1.44
16 -6 -6 19.7 1.91
6 16 -6 19.48 1.8
6 16 6 21.33 1.64
6 -16 -6 18.38 1.38
6 -16 6 18.11 1.31
-16 0 8 140.59 9.9
0 8 -16 149.44 9.86
0 8 16 147.81 10.05
8 16 0 141.45 9.59
0 -16 8 139.83 9.64
16 0 -8 123.38 10.01
16 0 8 141.1 9.79
0 -8 16 139.7 10.07
0 -8 -16 125.35 9.71
-16 -8 0 144.4 9.77
8 16 0 132.72 9.81
0 -16 -8 132.93 9.52
-8 0 16 135.69 10.08
0 16 -8 141.48 9.57
8 0 -16 154.83 10.07
8 0 16 137.38 9.87
16 8 0 133.54 9.91
16 -8 0 146.66 9.95
-16 8 0 142.85 9.71
-8 0 -16 140.51 9.72
16 0 8 138.6 9.72
8 16 -2 123.61 8.08
2 -16 -8 111.77 7.65
-2 16 -8 111.14 7.62
8 -2 -16 96.98 8.01
2 16 8 120.05 7.75
-16 -8 2 111.98 7.9
-8 -2 16 116.44 8.28
16 -8 -2 105.72 8.04
-2 8 16 121.26 8.23
-16 2 8 111.02 8.02
-2 -16 8 103.74 7.8
16 -2 8 107.84 7.9
16 -2 8 107.52 7.83
16 2 -8 96.83 8.13
2 8 -16 114.84 7.99
2 16 8 111.3 7.86
8 2 16 114.33 8.02
-8 2 -16 121.99 7.88
2 -8 16 123.48 8.21
-2 -8 -16 126.53 7.93
16 8 2 114.48 8.06
-8 -2 -16 109.1 7.84
8 -2 16 99.19 8.03
2 -16 8 115.09 7.76
16 -2 -8 96.23 8.12
-16 8 2 116.61 7.88
16 2 8 114.56 7.93
-2 16 8 119.72 8.04
2 8 16 106.54 8.07
16 -8 2 121.61 8.04
-16 -2 8 114.59 8.05
16 8 -2 107.81 8.12
8 16 2 126.83 7.98
16 2 8 102.1 7.82
-8 -16 2 104.72 7.75
2 16 -8 107.9 7.81
-2 -8 16 114.45 8.24
-2 8 -16 115.64 7.92
16 -8 2 113.43 7.77
2 -8 -16 99.33 7.89
8 2 -16 92.71 8.05
-8 2 16 104.22 8.18
8 16 2 115.46 7.75
16 -4 8 48.15 3.59
4 16 8 47.74 3.59
4 16 8 51.5 3.54
-8 -4 16 48.65 3.97
8 16 -4 50.04 3.81
-4 -8 -16 49.12 3.59
-4 16 -8 46.42 3.32
16 -4 8 49.52 3.66
4 -8 16 45.31 3.82
16 8 4 51.62 3.57
4 8 -16 43.29 3.74
16 -8 -4 48.59 3.88
8 -4 -16 45.93 3.78
-16 -8 4 47.55 3.66
16 8 4 45.31 3.71
8 4 16 53.13 3.79
-16 4 8 50.6 3.77
-8 4 -16 46.07 3.56
-4 8 16 45.01 3.89
-4 -16 8 47.94 3.6
16 4 -8 52.75 4.02
4 -16 -8 49.29 3.4
-4 -8 16 49.88 3.95
16 4 8 43.37 3.56
8 -16 -4 47.04 3.26
8 16 4 43.88 3.6
8 16 4 42.86 3.48
16 -4 -8 39.27 3.81
-4 8 -16 50.24 3.63
4 -8 -16 50.29 3.71
-4 16 8 53.28 3.63
4 -16 8 46.12 3.5
-16 -4 8 48.47 3.78
-8 -16 4 51.85 3.56
16 4 8 49.06 3.68
4 8 16 51.15 3.85
8 -4 16 49.27 3.79
16 -8 4 45.95 3.51
-8 4 16 50.48 4
8 4 -16 39.72 3.77
-8 -4 -16 40.23 3.53
16 -8 4 47.23 3.69
4 16 -8 48.08 3.65
16 8 -4 46.06 3.88
-16 8 4 48.99 3.62
-16 -8 6 75.84 5.75
6 8 -16 75.8 5.87
8 16 -6 72.15 5.85
6 -16 -8 84.63 5.51
16 8 6 81.76 5.79
-6 -8 -16 64.23 5.57
8 -16 6 79.11 5.41
8 -16 6 81.36 5.47
-8 -6 16 74.06 6.03
-8 16 6 83.27 5.48
6 16 8 83.22 5.69
-6 8 16 75.37 6.03
16 -6 8 78.39 5.65
6 -8 16 88.27 6
16 8 6 85.5 5.67
-16 6 8 75.5 5.79
8 -6 -16 79.64 5.89
16 -6 8 77.04 5.71
-6 -16 8 76.2 5.69
16 6 -8 69.6 5.96
-8 6 -16 79.33 5.65
16 -8 -6 71.66 5.93
6 16 8 88.26 5.65
6 16 -8 77.93 5.81
16 -6 -8 73.1 5.98
16 6 8 81.3 5.76
-6 -8 16 82.07 6.08
8 -6 16 69.67 5.8
6 -8 -16 75.79 5.77
-6 16 8 82 5.64
-6 8 -16 77.99 5.63
6 -16 8 80.94 5.43
-8 -6 -16 65.72 5.58
6 -16 8 69.83 5.55
-8 -16 6 85.17 5.7
6 8 16 87.53 5.94
8 -16 -6 82.2 5.46
16 6 8 88.06 5.71
-8 6 16 73.97 6
8 16 6 76.04 5.6
16 8 -6 76.19 6.03
-16 -6 8 76.21 5.81
16 -8 6 81.44 5.75
16 -8 6 78.86 5.63
8 16 6 86.67 5.72
8 6 -16 70.28 5.9
-16 8 6 79.81 5.8
8 -16 -8 288.62 18.6
16 8 8 283.35 18.83
-8 -8 -16 236.78 18.62
16 8 -8 272.8 19.13
-8 8 16 287.89 19.14
-8 -16 8 253.78 18.73
16 -8 8 279 18.72
8 -8 -16 286.25 18.95
8 -8 16 266.34 18.92
8 8 -16 280.99 19.05
8 8 16 271.29 18.87
8 16 -8 255.66 18.94
8 16 8 270.89 18.7
-8 -8 16 282.45 19.12
16 8 8 313.91 18.78
-8 8 -16 278.56 18.69
8 -16 8 266.3 18.65
-16 -8 8 271.2 18.86
8 16 8 269.82 18.71
16 -8 -8 270 19.09
16 -8 8 262.98 18.92
16 0 10 93.85 6.89
0 -10 -16 93.1 6.87
-16 0 10 85.63 7
0 -16 -10 94.67 6.71
16 -10 0 93.53 7.04
10 0 16 96.1 7
-16 -10 0 99.31 6.91
-10 0 -16 95.82 6.84
0 -16 10 101.97 6.95
16 10 0 88.89 7.03
10 0 -16 96.74 7.17
0 16 -10 92.85 6.77
0 16 10 94.99 6.96
0 -10 16 97.41 7.21
0 10 -16 100.72 6.98
0 10 16 107.01 7.22
10 16 0 99.42 7.05
10 16 0 97.64 6.76
-10 0 16 104.58 7.35
16 0 10 105.29 6.9
16 0 -10 87.75 7.22
-10 -2 16 27 2.59
16 2 -10 26.89 2.61
-10 2 -16 26.88 2.21
2 16 10 25.8 2.29
2 -16 -10 28.55 2.12
-16 -10 2 27.12 2.29
16 -2 10 29.49 2.3
-2 -10 -16 26.82 2.23
10 16 -2 30.12 2.5
16 10 2 26.28 2.38
10 -16 2 28.89 1.9
-2 16 -10 27.98 2.1
16 -2 10 29.88 2.28
2 -10 16 26.92 2.55
10 -2 -16 28.11 2.51
-2 10 16 25.08 2.51
-2 -16 10 24.75 2.28
10 2 16 30.26 2.44
-16 2 10 26.42 2.39
10 -16 2 25.66 1.88
16 -10 -2 27.08 2.46
2 10 -16 29.43 2.4
16 -2 -10 22.62 2.55
10 -16 -2 26.95 1.97
-10 -2 -16 31.96 2.28
-16 -2 10 25.24 2.38
2 -10 -16 27.78 2.28
-2 -16 -10 26.8 2.11
16 10 -2 28.82 2.51
-2 -10 16 28.19 2.62
10 16 2 28.31 2.37
16 2 10 26.03 2.24
-2 16 10 25.64 2.34
10 -16 -2 26.81 1.92
2 -16 10 28.65 2.34
-10 -16 2 29.21 2.23
-16 10 2 30.15 2.26
2 10 16 29.78 2.53
16 2 10 28 2.29
16 -10 2 27.63 2.16
-2 10 -16 27 2.27
10 16 2 28.98 2.18
10 -2 16 25.4 2.34
2 16 -10 26.26 2.24
10 2 -16 26.22 2.55
16 -10 2 26.08 2.34
10 -4 -16 15.12 1.63
4 10 -16 14.03 1.47
10 16 -4 11.99 1.48
4 -16 -10 14.05 1.19
10 4 16 13.49 1.4
16 -10 -4 12.1 1.48
16 4 -10 12.07 1.65
10 -16 4 12.46 1.06
-10 16 4 14.16 1.07
-4 16 -10 12.44 1.11
16 -4 10 13.11 1.31
-16 -10 4 12.72 1.32
16 10 4 14.68 1.27
-16 4 10 14.8 1.46
-10 4 -16 13.31 1.26
-4 -16 10 14.05 1.37
16 -4 10 13.61 1.3
4 16 10 13.87 1.23
4 16 10 11.5 1.31
-4 -10 -16 16.93 1.35
-10 -4 16 14.18 1.57
4 -10 16 10.94 1.41
-4 10 16 11.31 1.47
10 -16 4 12.29 1.09
16 10 4 15.84 1.48
-16 10 4 12.85 1.27
10 16 4 13.6 1.24
-10 4 16 16.96 1.71
16 4 10 13.51 1.32
10 4 -16 16.33 1.71
-16 -4 10 14.19 1.48
-4 -10 16 11.66 1.54
16 10 -4 16.13 1.67
10 16 4 13.34 1.38
-10 -4 -16 14.67 1.29
-10 -16 4 13.77 1.28
16 4 10 14.99 1.33
-4 16 10 12.36 1.36
16 -10 4 14.09 1.25
4 -16 10 11.88 1.31
4 16 -10 13.29 1.36
10 -4 16 12.81 1.41
16 -10 4 13.67 1.39
-4 10 -16 14.57 1.34
4 -10 -16 11.94 1.31
4 10 16 10.43 1.36
16 -4 -10 14.05 1.7
10 -16 -4 13.56 1.13
10 16 -6 14.21 1.66
-16 6 10 16.12 1.57
10 6 16 14.5 1.5
6 16 10 16.36 1.41
6 16 10 14.27 1.44
-6 -16 10 17.48 1.56
-6 16 -10 14.58 1.21
-16 -10 6 14.82 1.48
6 -16 -10 17.72 1.37
16 -10 -6 14.28 1.7
-6 -10 -16 18.65 1.45
6 10 -16 16.24 1.62
-10 -6 16 16.58 1.77
-10 6 -16 15.8 1.38
16 6 -10 14.17 1.8
-10 16 6 15.29 1.27
16 10 6 17.29 1.43
10 -6 -16 13.34 1.55
-6 10 16 16.6 1.8
16 10 6 13.29 1.48
10 -16 6 15.94 1.28
16 -6 10 15.75 1.43
16 -6 10 15.52 1.44
10 -16 6 15.51 1.3
6 -10 16 14.5 1.59
10 16 6 14.21 1.45
-6 10 -16 14.64 1.38
6 16 -10 14.94 1.56
16 -10 6 14.45 1.37
-10 6 16 16.63 1.77
6 -16 10 15.6 1.49
-16 -6 10 15.4 1.58
-16 10 6 12.82 1.4
-10 -6 -16 12.44 1.34
10 -6 16 13.45 1.51
16 6 10 12.17 1.37
-10 -16 6 14.09 1.41
6 10 16 16.37 1.63
10 -16 -6 16.81 1.34
16 -6 -10 12.89 1.69
10 16 6 16.42 1.4
-6 -10 16 16.31 1.79
-6 16 10 15.27 1.51
16 6 10 11.31 1.33
10 6 -16 14.15 1.71
16 10 -6 16.14 1.77
6 -10 -16 15.94 1.51
16 -10 6 13.95 1.46
8 10 -16 131.78 9.47
16 -8 10 128.36 9.16
-10 8 -16 135.35 9.1
8 16 10 114.1 9.14
-10 16 8 130.47 9.09
10 -16 8 123.54 9.09
-8 -16 10 117.23 9.23
-10 -8 16 135.99 9.52
10 16 -8 126.55 9.45
-16 -10 8 124.81 9.25
16 8 -10 138.51 9.65
-16 8 10 130.98 9.33
16 -8 10 124.6 9.14
10 8 16 147.79 9.36
16 -10 -8 129.19 9.49
8 -16 -10 139.96 9.11
16 10 8 133.06 9.27
16 10 8 124.71 9.11
10 -16 8 123.62 8.98
10 -8 -16 119.09 9.32
-8 10 16 134.3 9.53
-8 -10 -16 130.28 9.09
8 16 10 133.43 9.16
8 -10 16 144.28 9.43
16 -10 8 126.26 9.19
-8 10 -16 122.96 9.07
-10 -16 8 129.78 9.21
8 -16 10 125.09 9.18
16 10 -8 139.21 9.61
10 8 -16 126.35 9.46
-10 -8 -16 148.5 9.14
10 -8 16 126.34 9.33
-8 16 10 119.11 9.17
16 8 10 142.18 9.2
-16 10 8 131.17 9.24
-8 -10 16 138.24 9.54
16 8 10 138 9.22
16 -10 8 118.68 9.08
8 -16 10 126.15 8.97
10 -16 -8 128.59 9.07
-16 -8 10 136.26 9.36
8 16 -10 138.06 9.45
8 10 16 106.37 9.19
10 16 8 136.92 9.21
-10 8 16 138.46 9.61
10 16 8 127.85 9.13
16 -10 10 79.28 5.75
10 10 -16 77.04 6.04
10 16 -10 85.41 6.14
-10 -10 -16 79.68 5.67
-10 -10 16 73.36 6
-10 10 -16 78.33 5.66
10 -16 10 76.69 5.76
10 -10 -16 78.7 5.94
-10 -16 10 79.16 5.87
16 10 -10 73.77 6.14
10 -10 16 76.28 5.93
-16 10 10 73.29 5.84
16 10 10 75.79 5.7
-10 10 16 74.37 6.09
10 -16 -10 83.48 5.74
10 -16 10 81.92 5.6
16 -10 10 78.23 5.76
16 10 10 90.36 5.88
10 10 16 71.74 5.83
10 16 10 75.23 5.74
10 16 10 80.53 5.75
-16 -10 10 81.49 5.91
16 -10 -10 85.77 6.18
-12 0 -16 9.81 1.1
12 -16 0 12.51 1.11
0 12 16 10.12 1.36
0 16 -12 12.45 1.16
-16 -12 0 10.49 1.14
12 0 -16 13.4 1.5
12 0 16 10.41 1.22
-12 0 16 11.59 1.47
16 12 0 12.4 1.38
0 12 -16 12.08 1.23
12 16 0 10.85 1.32
12 16 0 12.32 1.11
16 -12 0 12.41 1.35
16 -12 0 12.26 1.07
0 -12 -16 9.39 1.42
-16 0 12 9.73 1.3
12 -16 0 11.14 0.93
0 -12 16 8.91 1.38
0 16 12 10.01 1.25
0 -16 -12 12.09 1.1
0 -16 12 10.64 1.27
16 0 12 15.43 1.57
16 0 -12 12.76 1.52
12 -2 -16 0.83 0.51
16 -2 12 0.69 0.3
2 16 12 0.76 0.39
-2 12 16 0.21 0.42
2 -16 -12 1.28 0.35
2 -12 16 0.59 0.5
2 12 -16 0.75 0.39
16 12 2 0.39 0.27
-2 -16 12 0.58 0.39
12 -16 2 0.97 0.31
-16 2 12 1.1 0.41
-2 -12 -16 1.01 0.34
16 12 2 0.87 0.4
12 -16 2 0.75 0.21
12 16 -2 1.05 0.45
16 -2 12 0.93 0.34
16 2 -12 0.53 0.48
12 2 16 0.7 0.33
16 -12 -2 1.12 0.48
-16 -12 2 0.72 0.3
-12 2 -16 0.9 0.31
-2 16 -12 1.07 0.32
-12 -2 16 0.88 0.53
16 -12 2 0.89 0.29
-2 -12 16 0.53 0.47
16 2 12 0.9 0.32
12 -2 16 0.72 0.38
-12 2 16 0.14 0.43
2 12 16 0.47 0.58
-2 16 12 1.2 0.5
16 -12 2 0.7 0.41
-16 12 2 0.99 0.33
-12 -2 -16 0.71 0.33
-16 -2 12 0.58 0.42
12 -16 -2 1.03 0.31
12 16 2 0.8 0.36
12 16 2 0.56 0.26
-2 -16 -12 0.98 0.3
-12 -16 2 0.78 0.31
12 2 -16 0.7 0.45
2 -16 12 0.22 0.35
2 16 -12 0.67 0.33
16 -2 -12 1.09 0.66
2 -12 -16 0.75 0.34
16 12 -2 1.09 0.54
-2 12 -16 0.89 0.34
12 -16 -2 0.88 0.2
16 2 12 0.72 0.37
12 -4 -16 38.62 3.32
16 -12 -4 39.2 3.31
4 12 -16 42.25 3.26
4 16 12 37.61 3.15
-16 4 12 37.83 3.25
16 -4 12 38.45 3.07
16 -4 12 37.79 3.07
12 16 -4 41.29 3.41
12 4 16 39.85 3.18
-16 -12 4 41.09 3.08
4 -12 16 40.91 3.39
-4 -16 12 38.07 3.2
-4 16 -12 39.97 2.91
-4 12 16 39.69 3.37
-12 -4 16 37.7 3.33
-12 4 -16 37.69 2.97
16 4 -12 36.29 3.43
-4 -12 -16 36.91 2.99
4 -16 -12 39.84 2.97
16 12 4 39.05 3.22
16 12 4 36.84 2.98
4 -12 -16 34.65 3.03
4 12 16 41.03 3.28
-4 12 -16 39.9 3.03
16 -12 4 39.4 3.14
16 -12 4 38.72 2.96
-12 -4 -16 36.46 2.97
-12 4 16 42.67 3.44
-4 -16 -12 36.15 2.91
16 4 12 43.25 3.12
-4 16 12 40.22 3.27
12 -4 16 37.08 3.14
12 4 -16 34.23 3.28
4 16 -12 40.6 3.17
-4 -12 16 39.65 3.39
12 -16 -4 35.79 2.96
4 -16 12 39.52 3.23
16 4 12 37.26 3.07
-12 -16 4 38.8 3.06
12 16 4 41.31 3.21
16 -4 -12 41.28 3.49
-16 12 4 43.51 3.05
12 16 4 35.81 2.97
-16 -4 12 36.56 3.21
16 12 -4 44.93 3.45
16 6 -12 23.52 2.25
-12 16 6 19.04 1.63
6 16 12 20.48 1.76
16 12 6 21.6 1.78
-16 6 12 21.32 1.98
12 -6 -16 24.33 2.18
6 -16 -12 22.22 1.76
-6 -12 -16 19.98 1.73
16 12 6 21.15 1.9
-6 -16 12 20.46 1.92
-6 16 -12 19.63 1.62
-12 6 -16 18.75 1.7
6 12 -16 24.22 2.06
6 -12 16 21 2.04
12 -16 6 19.84 1.7
12 -16 6 18.19 1.67
12 16 -6 17.4 2.02
-16 -12 6 19.85 1.85
12 6 16 18.1 1.85
16 -12 -6 19.28 2.02
16 -6 12 20.45 1.82
16 -6 12 19.83 1.81
-6 12 16 19.01 2.04
6 16 12 19.62 1.85
6 12 16 19.8 1.97
16 -6 -12 17.44 2.04
16 6 12 18.8 1.8
16 -12 6 19.51 1.72
-12 -16 6 20.07 1.8
12 -6 16 19.15 1.87
12 6 -16 20.13 2.06
-16 12 6 22.03 1.83
6 -16 12 21.88 1.97
6 16 -12 22.58 2.04
16 6 12 18.27 1.77
-12 6 16 19.12 2.04
-12 -6 -16 22.74 1.77
-16 -6 12 18.17 1.89
-6 12 -16 18.17 1.71
-6 16 12 21.03 1.98
12 16 6 20.04 1.74
6 -12 -16 19.46 1.85
16 -12 6 20.59 1.87
16 12 -6 21.04 2.18
-12 16 8 12.81 1.25
16 -12 -8 12.43 1.54
8 -12 16 15.96 1.59
16 12 8 14.65 1.43
8 16 12 13.53 1.31
16 -8 12 10.82 1.26
16 -8 12 12.52 1.32
16 8 -12 11.83 1.66
-12 8 -16 13.27 1.25
12 -16 8 13.28 1.25
12 -16 8 13.38 1.3
12 16 -8 18.27 1.83
-8 12 16 9.49 1.45
-12 -8 16 15.13 1.58
-16 -12 8 12.41 1.34
16 12 8 11.49 1.24
12 -8 -16 13.77 1.55
-8 -16 12 14.65 1.47
-8 -12 -16 13.96 1.25
8 -16 -12 12.12 1.27
8 16 12 10.96 1.32
-16 8 12 12.8 1.43
12 8 16 11.32 1.36
-16 12 8 13.76 1.37
-8 12 -16 11.7 1.22
12 -16 -8 12.66 1.33
-12 8 16 14.85 1.6
16 8 12 12.36 1.29
8 16 -12 12.55 1.5
12 8 -16 12.22 1.54
12 -8 16 14.88 1.49
16 8 12 15.62 1.38
12 16 8 13.52 1.32
-16 -8 12 13.52 1.47
16 -12 8 13.05 1.34
12 16 8 11.64 1.33
16 12 -8 10.98 1.61
16 -8 -12 12.06 1.6
-8 -12 16 12.67 1.51
-12 -16 8 14.37 1.4
8 12 16 11.07 1.34
-8 16 12 13.4 1.44
16 -12 8 13.98 1.31
8 -12 -16 12.54 1.38
10 16 12 0.43 0.31
12 10 16 0.06 0.23
-12 -10 16 -0.22 0.3
12 -16 10 0.03 0.18
16 12 10 0.27 0.26
16 -10 12 0.05 0.22
-16 -12 10 -0.13 0.27
-12 10 -16 0.03 0.2
12 10 16 0.7 0.41
16 12 10 0.46 0.28
-10 12 16 0.25 0.39
12 -10 -16 0.36 0.34
10 -12 16 -0.24 0.15
10 12 -16 0.24 0.39
10 16 12 0.59 0.36
-16 10 12 0.31 0.3
16 10 -12 0.18 0.41
12 -16 10 -0.02 0.31
12 16 -10 -0.08 0.38
10 -16 -12 0.32 0.33
-10 -16 12 0.85 0.39
16 -10 12 0.27 0.3
16 -12 -10 0.92 0.5
-12 16 10 0.44 0.29
10 -16 12 -0.36 0.28
16 -10 -12 1.12 0.5
-10 -12 16 0.84 0.45
16 12 -10 0.42 0.54
-10 12 -16 0.65 0.28
-10 16 12 0.21 0.33
10 16 -12 0.03 0.37
10 -16 12 0.29 0.24
10 -12 -16 1.18 0.49
12 -10 16 0.44 0.32
-16 12 10 0.55 0.33
10 12 16 0.22 0.35
12 -16 -10 0.37 0.32
16 -12 10 0.44 0.3
-12 -16 10 0.52 0.35
16 10 12 0.37 0.3
-12 10 16 0.13 0.28
12 16 10 0.15 0.28
16 -12 10 0.23 0.25
16 10 12 0.34 0.24
-16 -10 12 0.54 0.4
12 10 -16 -0.01 0.49
12 16 10 0.83 0.35
16 12 12 20.23 1.75
12 16 12 19.37 1.73
-12 -16 12 18.05 1.79
12 -16 12 19.56 1.83
-16 -12 12 16.28 1.73
-12 16 12 18.91 1.79
12 12 -16 18.74 2.02
12 12 16 17.66 1.63
12 12 16 17.09 1.76
12 16 -12 15.45 1.97
12 16 12 12.78 1.55
16 12 12 14.88 1.6
16 -12 -12 14.8 1.83
16 -12 12 18.63 1.68
16 -12 12 18.94 1.76
12 -12 -16 15.94 1.79
12 -16 12 16.46 1.55
-12 12 16 18.88 1.9
16 12 -12 20.15 2.13
12 -16 -12 17.3 1.72
-12 -12 16 17.52 1.84
-16 12 12 15.39 1.72
12 -12 16 19.06 1.86
14 0 -16 30.52 2.8
16 -14 0 32.81 2.35
14 -16 0 30.6 2.52
14 -16 0 30.61 2.27
-16 0 14 29.65 2.69
0 -14 -16 29.56 2.43
16 0 -14 25.61 2.78
16 0 14 32.66 2.52
16 0 14 26.18 2.46
16 14 0 26.71 2.67
16 -14 0 25.86 2.57
0 14 -16 30.84 2.52
0 14 16 30.7 2.74
14 0 16 28.46 2.56
14 16 0 29.49 2.69
14 16 0 32.46 2.42
0 -16 14 32.13 2.76
0 16 14 27.29 2.63
-14 0 16 30.74 2.75
0 16 -14 31.12 2.48
0 -14 16 35.48 2.89
0 -16 -14 31.57 2.42
16 -14 -2 7.37 1.16
-2 14 16 8.51 1.24
-2 16 -14 9.31 0.97
14 -16 2 8.38 1.02
2 16 14 8.02 1.13
-2 -16 14 7.51 1.14
-16 2 14 7.9 1.11
2 14 -16 8.17 1.05
-2 -14 -16 7.67 0.94
14 -16 2 9.15 0.85
14 -2 -16 7.44 1.33
-14 -2 16 9.94 1.24
-16 -14 2 7.97 0.98
16 14 2 10.54 1.25
2 -16 -14 9.44 0.96
16 -2 14 8.07 0.98
16 -2 14 8.69 1.03
16 2 -14 9.73 1.43
16 14 2 7.38 0.88
14 2 16 8.74 1.06
14 16 -2 9.62 1.27
2 -14 16 8.8 1.27
2 14 16 9.25 1.23
14 16 2 9.35 1.14
14 16 2 8.82 0.93
16 2 14 7.51 0.97
-2 14 -16 10.11 1.03
2 16 -14 7.65 1
16 -2 -14 9.67 1.32
-2 16 14 8.33 1.2
-14 -16 2 8.59 0.98
14 -16 -2 7.82 0.79
14 -16 -2 9.56 1.08
14 2 -16 7.33 1.2
-14 2 16 10.73 1.33
-2 -16 -14 7.95 0.91
2 -16 14 9.22 1.2
16 -14 2 8.65 1.12
16 -14 2 8.97 0.9
16 2 14 8.12 1
14 -2 16 8.44 1.09
2 -14 -16 8.97 0.99
-2 -14 16 9.31 1.29
-16 -2 14 9.95 1.25
16 14 -2 9.04 1.21
-4 14 16 0.12 0.38
4 -14 16 0.6 0.42
16 14 4 1.27 0.34
-16 4 14 1.95 0.63
-14 16 4 1.3 0.32
14 16 -4 1.96 0.65
16 -4 14 1.28 0.44
4 14 -16 1.85 0.55
16 14 4 2.03 0.57
4 16 14 0.99 0.5
14 -16 4 0.83 0.3
-4 -16 14 1.84 0.6
16 4 -14 2.46 0.78
16 -4 14 0.94 0.35
4 -16 -14 1.11 0.36
-4 16 -14 1.57 0.36
14 4 16 1.34 0.43
16 -14 -4 1.14 0.49
14 -4 -16 1.66 0.67
-14 -4 16 1.64 0.62
14 -16 4 1 0.41
14 4 16 1.83 0.46
-16 -14 4 1.78 0.46
-4 -14 -16 1.79 0.43
14 16 4 0.85 0.32
16 14 -4 1.31 0.55
-4 -14 16 1.01 0.49
-4 14 -16 1.52 0.41
4 16 -14 0.76 0.39
-16 14 4 1.15 0.43
-14 4 16 0.46 0.43
16 -4 -14 2.08 0.7
14 -4 16 1.79 0.51
16 4 14 1.41 0.48
16 -14 4 1.2 0.47
14 16 4 1.42 0.52
4 -16 14 1.84 0.6
16 4 14 0.87 0.39
4 -14 -16 1.52 0.45
4 14 16 2.23 0.58
14 -16 -4 0.9 0.43
14 4 -16 0.23 0.51
-16 -4 14 1.55 0.55
-4 16 14 2.3 0.7
-14 -16 4 1.5 0.42
-4 -16 -14 0.76 0.3
16 -14 4 1.14 0.35
6 -16 -14 -0.34 0.16
14 -16 6 -0.16 0.2
16 14 6 0.66 0.38
16 14 6 0 0.17
14 -6 -16 -0.26 0.27
14 16 -6 -0.7 0.32
14 6 16 -0.12 0.22
14 6 16 -0.16 0.28
-16 6 14 -0.08 0.32
6 14 -16 -0.06 0.24
-14 -6 16 0.31 0.29
-6 -14 -16 -0.08 0.23
16 -6 14 0.2 0.26
-6 16 -14 0.2 0.2
-14 16 6 -0.04 0.18
14 -16 6 0.21 0.23
6 16 14 0.11 0.34
16 -14 -6 -0.31 0.31
-6 -16 14 -0.02 0.29
-6 14 16 -0.46 0.27
16 -6 14 0.16 0.21
6 -14 16 -0.11 0.34
-16 -14 6 -0.24 0.18
16 6 -14 0.19 0.46
6 -14 -16 0.16 0.25
-14 -16 6 0.17 0.22
16 6 14 0.14 0.26
-6 16 14 -0.08 0.24
14 -16 -6 0.14 0.28
-16 -6 14 -0.3 0.16
14 16 6 -0.1 0.21
14 16 6 -0.26 0.2
16 -6 -14 0.66 0.54
6 14 16 0.16 0.35
-14 6 16 0.45 0.45
-6 14 -16 -0.04 0.19
-6 -14 16 0.08 0.3
16 14 -6 0.15 0.49
14 -6 16 0.05 0.23
14 6 -16 0.44 0.49
16 6 14 -0.2 0.18
6 16 -14 0.7 0.41
14 -16 8 30.48 2.75
14 -16 8 38.93 2.81
-8 14 16 32.92 3.09
14 8 16 30.96 2.74
8 16 14 39.48 2.97
14 -8 -16 34.97 3.08
16 -8 14 34.03 2.79
16 -8 14 37.41 2.9
16 8 -14 36.65 3.23
-14 -8 16 35.34 3.01
14 8 16 41.64 2.98
-16 8 14 30.92 2.94
8 16 14 31.45 2.74
8 -14 16 36.36 3.06
8 14 -16 35.32 3.01
14 16 -8 31.87 3.14
-16 -14 8 33.52 2.84
-8 -16 14 35.31 2.99
16 14 8 32.72 3.04
-8 16 -14 34.65 2.63
-14 16 8 34.51 2.77
-8 -14 -16 30.9 2.67
16 14 8 30.32 2.95
-8 14 -16 35.55 2.7
16 -14 8 33.2 2.77
14 8 -16 34.71 3.16
14 16 8 33.5 2.87
16 8 14 30.22 2.77
16 14 -8 36.19 3.25
-14 -16 8 35.54 2.87
-8 16 14 28.7 2.91
8 -16 14 32.29 3
-8 -14 16 37.94 3.09
8 -14 -16 33.83 2.87
14 16 8 37.02 2.8
16 -8 -14 32.86 3.07
14 -8 16 37.62 2.8
14 -8 16 35.31 2.91
8 14 16 32.63 2.93
14 -16 -8 29.89 2.81
-16 -8 14 34.59 2.96
16 -14 8 35.71 2.87
-14 8 16 34.1 3.07
16 8 14 32.95 2.79
-16 14 8 38.09 2.87
8 16 -14 38.44 3.13
-14 16 10 7.82 1.01
16 -10 14 9.65 1.08
14 -16 10 9.29 1.22
14 -10 -16 7.5 1.2
10 16 14 7.88 1.1
10 14 -16 9 1.33
10 16 14 10.46 1.11
14 -16 10 8.72 1.03
-10 -16 14 7.51 1.12
-14 -10 16 9.8 1.28
-16 -14 10 7.92 1.1
14 16 -10 7.94 1.44
10 -16 -14 10.08 1.17
16 -10 14 7.04 1.03
-10 14 16 9.38 1.29
-16 10 14 6.96 1.07
14 10 16 10.31 1.08
14 10 16 7.92 1.09
16 -14 -10 8 1.28
16 14 10 8.6 1.04
16 10 -14 9.05 1.42
16 14 10 8.45 1.1
10 16 -14 10.04 1.35
14 -10 16 5.79 1.03
14 16 10 8.57 1.05
16 -10 -14 9.53 1.3
-16 14 10 9.98 1.15
16 -14 10 8.94 1.07
-14 10 16 6.9 1.17
16 10 14 10.4 1.09
16 10 14 8.57 1.08
14 -16 -10 9.4 1.19
16 -14 10 7.81 1.06
10 14 16 11.36 1.25
10 -14 -16 9.53 1.14
14 16 10 9.72 1.16
10 -16 14 9.02 0.97
-16 -10 14 8.2 1.19
14 -10 16 8.65 0.99
-14 -16 10 7.34 1.02
16 14 -10 11.33 1.56
-10 -14 16 9.73 1.26
-10 14 -16 9.34 0.96
-10 16 14 7.56 1.12
10 -16 14 9.22 1.24
14 10 -16 7.86 1.26
10 14 16 7.5 0.99
12 -16 -14 8.28 1.18
-12 14 16 9.63 1.33
12 16 14 9.29 1.1
12 16 14 8.19 1.11
14 -12 -16 9.89 1.35
12 14 -16 10.04 1.37
-12 -16 14 11.32 1.33
16 14 12 8.58 1.08
14 12 16 10.38 1.17
14 12 16 10.73 1.25
16 -14 -12 8.71 1.33
-14 -12 16 8.74 1.2
16 12 -14 10.13 1.56
-16 -14 12 12 1.28
12 -14 16 8.89 1.07
-16 12 14 9.56 1.24
16 14 12 10.39 1.18
12 -14 16 9.75 1.31
14 16 -12 7.73 1.5
14 -12 16 6.83 1.26
-14 -16 12 9.59 1.17
16 -14 12 9.95 1.16
14 -12 16 9.45 1.12
16 -14 12 8.78 1.15
12 14 16 9.01 1.16
14 -16 -12 12.96 1.66
-14 12 16 9.39 1.3
14 16 12 9.99 1.19
14 16 12 10.77 1.18
16 -12 -14 10.34 1.41
14 12 -16 8.22 1.35
16 12 14 11.27 1.19
16 12 14 10.13 1.17
-12 16 14 9.22 1.21
12 -14 -16 8.16 1.33
12 16 -14 9.09 1.31
12 14 16 10.76 1.14
-16 -12 14 9.31 1.21
-12 -14 16 8.03 1.17
-16 14 12 9.09 1.19
16 14 -12 8.17 1.51
-14 -16 14 1.91 0.62
-16 14 14 2.5 0.64
-16 -14 14 1.4 0.54
14 -14 -16 2.01 0.68
14 -14 16 1.84 0.52
14 14 -16 0.48 0.66
14 14 16 1.55 0.51
14 14 16 1.88 0.57
14 16 -14 1.4 0.68
14 16 14 2.78 0.63
14 16 14 2.71 0.65
16 -14 -14 2.02 0.7
16 14 -14 1.73 0.73
16 14 14 2.87 0.63
16 14 14 1.56 0.49
-14 14 16 2.6 0.72
-14 -14 16 1.42 0.62
16 16 0 97.39 7.49
16 0 -16 112.82 8.04
16 0 16 99.44 7.59
0 -16 -16 110.09 7.57
-16 0 16 99.29 7.84
16 -16 0 119.69 7.85
16 0 16 101.04 7.68
0 16 -16 104.62 7.61
16 -16 0 111.81 7.45
16 16 0 110.69 7.94
0 -16 16 99.63 7.91
0 16 16 111.87 7.95
16 2 16 77.94 5.6
16 -2 16 74.65 5.67
16 2 -16 87.69 6.08
16 -2 16 65.98 5.51
16 -2 -16 72.05 5.9
16 -16 -2 74.24 5.37
16 -16 2 80.86 5.75
16 -16 2 77.06 5.42
-2 -16 16 71.43 5.84
-2 16 16 72.47 5.89
2 -16 -16 77.85 5.54
16 16 2 72.91 5.77
16 16 2 81.11 5.53
-16 2 16 77.61 5.84
-2 -16 -16 72.2 5.47
2 -16 16 71.72 5.87
2 16 -16 74.79 5.63
2 16 16 83.23 5.92
16 -16 -2 78.58 5.75
16 2 16 77.65 5.66
16 16 -2 73.15 5.88
-16 -16 2 78.71 5.59
-16 -2 16 70.36 5.76
16 16 4 27.6 2.54
16 16 4 26.4 2.29
-16 4 16 31.57 2.65
-4 -16 -16 29.24 2.3
4 -16 16 28.45 2.71
4 16 -16 28.24 2.49
4 16 16 26.86 2.54
16 -16 -4 28.1 2.56
16 -16 4 25.88 2.44
16 -16 4 28.51 2.26
16 -4 -16 31.48 2.74
16 -4 16 26.25 2.34
16 -4 16 25.7 2.4
-4 -16 16 26.86 2.59
-4 16 -16 26.3 2.26
-4 16 16 30.5 2.76
4 -16 -16 29.38 2.36
-16 -16 4 29.78 2.41
-16 -4 16 26.48 2.58
16 4 16 25.68 2.33
16 4 16 29.56 2.46
16 16 -4 24.91 2.68
16 4 -16 33.31 2.92
6 16 -16 5.93 1.1
16 16 6 7.18 1.08
16 16 6 8.42 0.96
6 -16 16 8.98 1.29
-6 -16 16 9.18 1.22
-6 16 -16 7.7 0.9
-6 16 16 7.98 1.19
-16 6 16 6.38 1.08
-6 -16 -16 6.72 0.87
-16 -16 6 5.57 0.85
-16 -6 16 9.66 1.19
6 16 16 8.39 1.16
16 -16 -6 9.5 1.2
16 -6 -16 8.23 1.28
16 6 -16 9.14 1.36
16 6 16 7.78 0.99
16 6 16 8.22 1.04
16 16 -6 6.52 1.29
-16 8 16 123.37 8.98
-8 -16 16 116.54 8.94
-16 -16 8 126.28 8.81
-16 -8 16 121.95 8.97
16 -8 16 122.64 8.87
16 8 -16 131.94 9.27
16 8 16 136.83 8.81
16 8 16 127.34 8.82
16 16 -8 121.9 9.19
16 16 8 113.08 8.83
16 16 8 129.12 8.72
8 16 16 103.94 8.63
8 16 16 130.95 9.01
16 -8 -16 133.85 9.14
16 -8 16 123.23 8.74
8 -16 16 126.53 9.14
8 16 -16 116.9 8.93
8 -16 -16 118.95 8.75
-8 16 16 106.59 9.01
-8 16 -16 123.76 8.61
16 10 -16 68.02 5.52
16 10 16 66.08 5.11
-16 -16 10 65.87 5.19
-10 -16 16 71.42 5.38
-16 10 16 61.58 5.29
10 16 -16 69.52 5.45
-10 16 16 66.73 5.39
10 -16 -16 69.2 5.21
16 10 16 69.2 5.19
16 16 -10 64.52 5.53
16 16 10 65.39 5.2
16 16 10 72.44 5.15
10 16 16 71.97 5.15
10 16 16 66.37 5.25
16 -10 -16 69.05 5.46
16 -10 16 72.26 5.16
16 -10 16 66.45 5.24
-16 -10 16 71.83 5.35
12 16 16 2.79 0.74
16 -12 16 3.81 0.75
12 16 16 1.09 0.54
-12 -16 16 2.42 0.66
12 16 -16 1.51 0.76
-16 -16 12 2.1 0.62
-16 -12 16 1.38 0.65
-16 12 16 1.41 0.61
16 16 12 3.23 0.66
16 -12 16 3.18 0.77
16 12 -16 1.51 1.39
16 12 16 2.41 0.6
16 12 16 2.41 0.66
16 16 -12 3.08 1.07
16 16 12 4.38 0.81
16 14 -16 29.81 2.82
16 14 16 31.41 2.49
16 16 -14 27.02 2.89
16 16 14 34.98 2.6
16 16 14 23.59 2.37
-16 -14 16 28.63 2.58
-14 -16 16 26.37 2.56
14 16 -16 26.43 2.72
14 16 16 24.35 2.37
14 16 16 25.16 2.46
-16 -16 14 27.5 2.53
-1 -1 17 225.28 14.75
-1 1 17 200.39 14.65
1 -1 -17 236.04 14.54
1 -1 17 206.56 14.65
1 1 -17 223.99 14.51
1 1 17 212.23 14.66
17 -1 -1 214.2 14.57
17 -1 1 222.62 14.57
17 1 -1 217.91 14.58
17 1 1 200.36 14.49
-17 1 -1 205.63 14.37
-17 1 1 211.85 14.41
-1 -1 -17 179.64 14.36
-17 -1 1 200.05 14.38
-17 -1 -1 216.71 14.4
-1 1 -17 174.1 14.36
3 1 17 48.94 4.29
3 17 -1 56.52 3.86
1 3 -17 48.8 4.18
1 17 3 54.7 3.87
3 17 -1 56.04 4
-3 -1 17 55.33 4.48
1 -3 17 59.19 4.44
-1 3 17 61.92 4.49
17 -1 3 64.11 4.12
-17 1 3 56.46 4.18
-1 -3 -17 59.48 4.2
-17 3 -1 53.13 4.11
1 17 3 55.6 3.88
17 3 1 53.48 4.25
-17 -3 1 55.69 4.17
-3 1 -17 53.09 4.14
3 -1 -17 51.48 4.22
17 1 -3 55.43 4.37
17 -1 3 58.93 4.28
17 -3 -1 65.38 4.41
3 17 1 60.11 4.02
-17 -1 3 56.02 4.18
17 -3 1 53.64 4.26
17 3 -1 48.83 4.25
-3 -1 -17 44.78 4.08
-3 1 17 62.21 4.55
3 -1 17 60.25 4.45
3 1 -17 54.11 4.25
-17 -3 -1 53.07 4.13
1 -3 -17 53.85 4.2
-1 -3 17 53.36 4.44
-17 3 1 58.45 4.18
-1 3 -17 50.01 4.17
3 17 1 58.04 3.89
17 -1 -3 57.55 4.38
1 3 17 60.6 4.43
17 1 3 55.24 4.26
-17 3 3 30.58 2.44
3 3 -17 27.04 2.51
-3 -3 17 30.6 2.72
-3 3 -17 26.85 2.39
-3 3 17 34.41 2.83
17 -3 -3 28.85 2.6
17 -3 3 34.09 2.58
17 -3 3 30.75 2.34
17 3 -3 26.65 2.6
3 -3 -17 24.7 2.42
-3 -3 -17 29.54 2.41
-17 -3 3 29.83 2.44
3 17 -3 29.69 2.27
3 17 3 29.24 2.26
3 17 3 31.41 2.23
3 3 17 32.25 2.63
17 3 3 31.57 2.56
5 17 -1 -0.1 0.19
5 -1 -17 0.05 0.32
17 -5 -1 0.1 0.26
-5 1 -17 0.06 0.15
1 -5 17 -0.26 0.22
17 1 -5 0.18 0.39
17 -1 5 0.15 0.16
-1 -17 5 0.02 0.08
-1 5 17 0.18 0.26
-17 -5 1 0.17 0.27
1 17 5 0.01 0.11
1 17 5 0.27 0.19
-5 -1 17 -0.15 0.35
-17 1 5 0.02 0.17
5 1 17 -0.13 0.22
17 -1 5 0.06 0.16
17 5 1 -0.31 0.17
-17 5 -1 0.43 0.22
1 5 -17 0.36 0.37
5 1 -17 -0.07 0.24
-1 -5 17 0.44 0.45
-5 1 17 0.18 0.37
17 -1 -5 0.26 0.34
17 -5 1 0.06 0.29
-17 -1 5 -0.09 0.16
-1 5 -17 0.19 0.2
-1 17 5 0.15 0.14
1 -5 -17 0.14 0.28
1 5 17 0.44 0.41
-1 17 5 0.04 0.08
-17 -5 -1 0.39 0.23
1 17 -5 0.24 0.12
17 5 -1 0.16 0.29
5 -1 17 -0.17 0.28
-17 5 1 0.01 0.18
-5 -1 -17 -0.2 0.16
17 1 5 -0.11 0.22
17 1 5 0.24 0.24
5 17 1 -0.05 0.16
-3 -5 -17 7.03 0.9
17 5 3 8.88 1.03
3 -5 17 5.63 0.97
3 5 -17 8.07 1.02
17 -3 5 6.63 0.93
-3 -17 5 7.56 0.73
17 -3 5 8.85 0.89
3 17 5 7.49 0.78
3 17 5 9.17 0.93
-17 -5 3 8.49 0.96
5 3 17 7.29 1.02
17 -5 -3 8.84 1.14
-5 -3 17 7.19 1.14
-5 3 -17 7.4 0.91
5 17 -3 8.79 0.98
17 5 3 8.9 0.88
-17 3 5 7.42 0.93
5 -3 -17 8.18 1.11
-3 5 17 6.69 1.08
17 3 -5 8.3 1.15
-3 5 -17 7.35 0.89
-5 3 17 8.66 1.18
17 -3 -5 7.89 1.2
-17 -3 5 9.9 1.03
3 17 -5 8.42 0.86
3 -5 -17 10.11 1.09
17 3 5 7.52 0.96
17 3 5 7.23 0.84
-17 5 3 9.09 0.95
-5 -17 3 7.77 0.76
17 -5 3 7.92 0.83
17 5 -3 7.89 1.15
-3 -5 17 7.63 1.13
17 -5 3 8.59 1.05
5 17 3 8.4 0.87
-5 -3 -17 6.62 0.84
5 -3 17 7.53 1.06
5 3 -17 7.34 1.03
17 5 -5 113.39 8.76
-5 5 17 118.77 8.84
17 -5 5 118.02 8.56
5 -5 -17 129.74 8.65
5 -5 17 125.06 8.75
5 5 -17 123.28 8.72
17 -5 5 121.8 8.42
5 17 -5 113.09 8.51
-5 -17 5 130.05 8.35
-5 -5 -17 107.57 8.43
-5 -5 17 122.68 8.88
-5 5 -17 119.51 8.48
5 17 5 118.46 8.36
17 -5 -5 118.52 8.82
5 5 17 110.75 8.65
-17 -5 5 122.81 8.59
-17 5 5 128.93 8.6
5 17 5 127.07 8.42
17 5 5 118.69 8.43
17 5 5 120.71 8.6
-17 -7 1 92.67 6.46
17 7 1 89.55 6.6
-1 -7 -17 81.35 6.4
7 17 -1 89.3 6.24
-17 1 7 83.17 6.5
-1 17 -7 87.59 6.12
1 -7 17 94.11 6.8
7 17 -1 95.5 6.54
-7 1 -17 76.97 6.35
1 7 -17 92.42 6.54
17 -1 7 90.92 6.51
17 -1 7 97.44 6.42
17 1 -7 90.45 6.8
17 -7 -1 81.61 6.58
-1 -17 7 90.88 6.25
-1 7 17 99.29 6.77
1 17 7 90.82 6.24
7 -1 -17 102.4 6.72
7 1 17 94.96 6.65
-7 -1 17 84.81 6.75
-7 -1 -17 83.78 6.38
7 17 1 84.96 6.25
-17 7 1 95.17 6.43
1 17 -7 85.5 6.22
1 -7 -17 91.93 6.47
17 7 -1 84.81 6.6
17 -1 -7 89.97 6.79
17 1 7 88.45 6.38
17 1 7 83.77 6.48
-1 -7 17 87.77 6.75
-1 7 -17 97.6 6.53
7 -1 17 86.34 6.61
7 17 1 94.53 6.5
-7 1 17 95.68 6.84
1 7 17 83.45 6.63
17 -7 1 93.6 6.6
-1 17 7 87.29 6.18
-1 17 7 94.45 6.38
1 -17 7 91.2 6.18
7 1 -17 82.9 6.59
-17 -1 7 82.98 6.5
-17 -7 -1 97.35 6.46
-17 -7 3 36.68 3
-7 3 -17 43.93 3.04
7 17 -3 34.97 3.09
3 17 7 33.06 2.82
-3 -7 -17 32.27 2.93
-7 -3 17 41.44 3.41
17 -3 7 38.42 3.08
17 -3 7 43.15 3.01
17 -7 -3 38.79 3.25
3 7 -17 39.28 3.15
7 3 17 37.36 3.17
17 7 3 42.35 3.2
17 7 3 38.5 2.94
3 -7 17 35.44 3.2
-3 -17 7 40.89 2.91
17 3 -7 43.74 3.43
3 17 7 42.29 3
-17 3 7 40.89 3.13
-3 7 17 41.09 3.35
-17 -3 7 40.2 3.13
3 7 17 32.94 3.11
17 3 7 43.94 3.02
17 -7 3 39.75 2.93
17 -3 -7 34.58 3.25
7 3 -17 38.85 3.21
-3 -7 17 41.79 3.4
3 17 -7 35.3 2.91
-3 7 -17 39.24 3.03
3 -7 -17 35.92 3.07
-7 -3 -17 36.32 2.96
-7 3 17 42.42 3.4
17 3 7 36.68 3.08
17 7 -3 37.41 3.23
-17 7 3 36.68 2.97
-3 17 7 41.75 2.91
3 -17 7 36.98 2.69
17 -7 3 37.65 3.09
7 17 3 34.44 2.96
7 17 3 40.94 2.89
7 -3 17 40.92 3.23
-7 -17 3 35.8 2.87
17 7 5 0.36 0.22
17 7 5 0.46 0.37
-5 -17 7 0.65 0.27
-7 5 -17 0.64 0.32
-5 -7 -17 0.44 0.28
-5 7 17 1 0.49
7 -5 -17 0.49 0.46
-17 -7 5 0.89 0.39
5 17 7 1.38 0.37
-17 5 7 0.97 0.39
7 17 -5 0.88 0.41
-7 -5 17 0.7 0.48
5 -17 -7 0.79 0.18
17 -5 7 0.96 0.34
17 5 -7 1 0.6
5 7 -17 0.82 0.42
5 17 7 0.5 0.24
17 -7 -5 0.98 0.52
7 5 17 0.05 0.35
17 -5 7 0.91 0.33
5 -7 17 0.35 0.4
17 5 7 0.66 0.37
-7 -5 -17 0.74 0.32
5 -17 7 0.75 0.12
5 7 17 0.51 0.42
-7 5 17 1.06 0.59
17 -7 5 0.51 0.32
7 -5 17 0.59 0.35
5 -17 7 1.14 0.16
-17 7 5 0.9 0.35
-5 17 7 0.79 0.24
17 -7 5 0.66 0.28
17 7 -5 0.32 0.46
-5 -7 17 1.08 0.51
7 17 5 0.53 0.28
7 17 5 0.86 0.29
17 -5 -7 0.37 0.44
5 -7 -17 0.96 0.37
-5 7 -17 1.06 0.37
5 17 -7 -0.17 0.28
-17 -5 7 0.77 0.33
7 5 -17 0.59 0.38
-7 -17 5 0.66 0.27
17 5 7 0.81 0.28
-7 7 17 97.98 7.53
7 -17 -7 100.68 6.9
17 7 7 96.87 7.26
7 -7 -17 113.18 7.43
7 -7 17 94.6 7.34
17 -7 7 94.21 7.11
17 7 -7 121.19 7.72
7 -17 7 96.96 6.83
-17 -7 7 103.38 7.3
7 17 7 106.94 7.15
17 -7 -7 106.46 7.57
-17 7 7 99.54 7.26
-7 -17 7 99.14 7.14
7 -17 7 103.77 6.89
7 7 -17 116.14 7.5
-7 17 7 102.59 6.98
17 -7 7 97.18 7.23
-7 -7 -17 102.68 7.15
-7 -7 17 88.49 7.46
-7 7 -17 96.34 7.13
17 7 7 87.07 7.09
7 17 -7 88.17 7.29
7 7 17 112.07 7.45
7 17 7 98.98 7.15
9 17 -1 143.21 9.73
-17 1 9 135.97 10.02
17 9 1 136.71 10.06
9 -1 -17 148.68 10.15
17 -1 9 152.73 9.89
17 1 -9 157.28 10.35
-9 -1 17 135.62 10.24
17 -9 -1 138.52 10.09
17 -1 9 130.8 9.89
1 17 9 141.88 9.89
-1 17 -9 142.93 9.67
-1 9 17 130.56 10.11
1 -9 17 132.76 10.16
1 9 -17 139.43 9.97
-17 -9 1 139.17 9.89
1 -17 -9 135.81 9.64
9 1 17 139.13 10.01
9 17 -1 152.42 10.07
-9 1 -17 127.16 9.8
-1 -17 9 134.55 9.8
-1 -9 -17 158.37 9.92
1 -17 9 145.06 9.81
17 1 9 132.78 9.9
-17 9 1 145.11 9.85
-9 -1 -17 133.26 9.82
-1 17 9 145.08 9.94
1 9 17 137.4 10.13
17 -1 -9 153.15 10.32
17 9 -1 140.38 10.11
-17 -1 9 140.05 10.03
9 17 1 150.53 10.05
17 1 9 141.4 9.86
-9 1 17 138.72 10.25
1 17 -9 141.68 9.76
9 1 -17 166.72 10.32
9 -1 17 151.97 10.08
9 17 1 147.07 9.74
17 -9 1 134.62 10.03
-17 -9 -1 134.71 9.84
-1 9 -17 132.81 9.91
1 -9 -17 138.31 9.88
17 -9 1 140.28 9.76
-1 -9 17 125.91 10.15
-17 3 9 88.75 6.54
-9 3 -17 79.35 6.31
17 -3 9 87.23 6.36
-3 9 17 94.46 6.79
-3 17 -9 89.11 6.12
3 -17 -9 81.8 6.14
9 -3 -17 108.15 6.75
17 -9 -3 87.24 6.68
-17 -9 3 89 6.41
3 9 -17 78.27 6.48
3 -9 17 85.43 6.64
-9 -3 17 84.81 6.74
3 17 9 88.87 6.27
17 9 3 80.72 6.52
-3 -9 -17 100.06 6.4
3 17 9 95.98 6.45
-3 -17 9 82.44 6.33
9 17 -3 96.27 6.66
17 3 -9 87.84 6.76
17 9 3 82.71 6.29
9 3 17 83.37 6.5
17 -3 9 89.1 6.43
-9 -17 3 90.48 6.32
17 -9 3 82.53 6.47
3 -17 9 83.72 6.26
-9 3 17 83.57 6.73
17 -9 3 86.6 6.28
3 -9 -17 97.08 6.5
9 17 3 93.3 6.29
17 3 9 88.39 6.44
-9 -3 -17 101.94 6.41
9 17 3 99.47 6.52
-3 9 -17 93.96 6.42
9 -3 17 87.1 6.57
9 3 -17 80.38 6.63
3 9 17 75.08 6.51
-17 -3 9 94.05 6.59
17 -3 -9 93.43 6.83
17 9 -3 94.21 6.7
-17 9 3 90.94 6.38
3 17 -9 93.74 6.4
17 3 9 89 6.37
-3 -9 17 84.41 6.73
5 -9 17 26.84 2.45
17 5 -9 31.1 2.66
5 17 9 28.48 2.26
5 -17 -9 26.58 2.02
9 17 -5 26.34 2.45
17 -9 -5 24.03 2.43
-5 -9 -17 31.88 2.25
9 5 17 27.66 2.36
17 9 5 30.02 2.39
-5 9 17 23.53 2.49
9 -5 -17 23.58 2.36
5 17 9 22.43 2.1
5 9 -17 28.71 2.45
-9 -5 17 23.87 2.51
-17 -9 5 26.49 2.26
17 9 5 22.46 2.11
-5 -17 9 30.47 2.3
17 -5 9 26.24 2.24
-17 5 9 24.06 2.31
-9 5 -17 26.61 2.18
17 -5 9 27.41 2.19
-9 5 17 27.93 2.57
5 9 17 31.25 2.49
9 17 5 26.32 2.14
-17 -5 9 26.42 2.35
17 9 -5 22.79 2.42
5 -9 -17 29.97 2.38
-9 -5 -17 25.05 2.15
9 -5 17 24.06 2.34
9 5 -17 26.6 2.48
17 5 9 28.56 2.29
17 5 9 24.49 2.17
17 -5 -9 29.84 2.64
9 17 5 30.06 2.32
9 -17 -5 25.06 1.9
5 -17 9 27.62 2.15
5 17 -9 28.6 2.34
-17 9 5 26.34 2.23
-5 9 -17 26.51 2.21
-5 -9 17 26.51 2.55
-9 -17 5 25.27 2.15
17 -9 5 23.56 2.26
17 -9 5 29.06 2.19
9 -7 -17 172.17 11.82
7 9 -17 172 11.84
-17 -9 7 170.4 11.7
17 -7 9 163.31 11.63
-7 -17 9 173.19 11.66
7 -17 -9 166.03 11.4
-7 -9 -17 190.54 11.59
7 17 9 159 11.58
9 -17 7 170.67 11.33
9 -17 7 173.73 11.4
9 17 -7 164.53 11.85
9 7 17 171.51 11.76
7 -9 17 152.36 11.8
17 -7 9 160.78 11.55
7 17 9 183.86 11.58
17 9 7 185.86 11.61
-17 7 9 176.99 11.78
17 7 -9 175.39 12.05
-7 9 17 177.07 12.03
-9 -7 17 173.5 11.98
-9 7 -17 153.42 11.51
-9 17 7 167.33 11.39
17 9 7 150.2 11.64
17 -9 -7 157.38 11.92
17 7 9 145.25 11.6
7 -9 -17 159.14 11.69
9 -7 17 164.6 11.79
7 9 17 175.54 11.84
-7 -9 17 161.26 11.98
17 -9 7 170.52 11.67
17 -9 7 165.41 11.54
-17 9 7 171.15 11.68
-9 7 17 175.8 12.03
17 -7 -9 158.76 11.94
-17 -7 9 170.19 11.74
9 17 7 150.11 11.57
-9 -17 7 181.46 11.64
9 7 -17 143.97 11.79
7 17 -9 155.87 11.73
17 9 -7 181.39 12.08
9 17 7 159.16 11.53
17 7 9 141.52 11.51
9 17 9 230.02 16.43
9 9 -17 253.89 16.82
-9 -17 9 256.83 16.55
9 17 9 227.34 16.43
9 9 17 269.23 16.69
-17 -9 9 246.32 16.6
9 17 -9 248.1 16.8
17 -9 -9 227.08 16.79
9 -9 17 247.45 16.69
9 -9 -17 234.6 16.64
-9 17 9 247.07 16.41
9 -17 -9 247.37 16.34
17 -9 9 235.9 16.52
-9 -9 -17 234.84 16.38
-9 -9 17 246.41 16.81
9 -17 9 232.82 16.24
-9 9 -17 239.85 16.39
-9 9 17 225.26 16.83
17 9 -9 234.37 16.87
17 9 9 223.2 16.51
17 9 9 236.31 16.44
-17 9 9 220.43 16.53
17 -9 9 247.88 16.45
9 -17 9 226.3 16.41
1 11 -17 39.65 3.07
-1 11 17 40.55 3.27
-11 -1 17 37.73 3.26
17 -1 11 36.11 2.93
17 -1 11 38.51 2.94
-1 -11 -17 38.83 2.93
17 11 1 36.35 3.1
1 17 11 37.75 3.05
-17 -11 1 36.36 2.93
-11 1 -17 31.08 2.82
17 1 -11 38.88 3.35
11 -1 -17 39.08 3.22
-17 1 11 34.07 3.04
1 -11 17 37.48 3.26
-1 17 -11 38.54 2.8
1 -17 -11 37.31 2.76
11 1 17 34.87 3
11 17 -1 38.18 3.14
-1 -17 11 39.92 3.02
17 -11 -1 37.5 3.15
-1 11 -17 38.82 2.98
17 -1 -11 43.01 3.41
11 -1 17 34.28 3.17
11 1 -17 38.47 3.23
-1 -17 -11 37.56 2.77
17 1 11 36.81 2.91
17 -11 1 34.54 3.05
1 17 -11 37.32 2.87
-17 -1 11 37.02 3.09
11 17 1 32.93 3.02
17 11 -1 38.39 3.2
1 -11 -17 39.77 2.97
17 1 11 33.37 2.9
-11 1 17 32.77 3.17
1 11 17 34.05 3.14
17 -11 1 34.52 2.78
-1 17 11 41.49 3.12
11 17 1 37.32 2.82
-1 -11 17 34.54 3.49
-11 -1 -17 38 2.88
-17 11 1 35.32 2.84
1 -17 11 35.22 2.95
3 17 11 0.16 0.3
-3 11 17 0.22 0.47
11 -3 -17 0.37 0.36
17 -3 11 0.29 0.25
-3 17 -11 0.11 0.17
3 11 -17 0.46 0.37
3 -17 -11 0.36 0.2
-11 -3 17 -0.18 0.37
17 11 3 0.07 0.29
17 -11 -3 0.05 0.31
17 -3 11 0.44 0.23
-17 3 11 -0.12 0.26
3 -11 17 1.05 0.5
-17 -11 3 0.21 0.2
11 17 -3 -0.57 0.19
-11 3 -17 0.33 0.27
17 11 3 0.12 0.17
-3 -17 11 -0.11 0.22
-3 -11 -17 0.21 0.23
17 3 -11 -0.34 0.32
11 3 17 0.34 0.3
3 17 -11 -0.04 0.25
3 -17 11 -0.15 0.22
11 -3 17 0.17 0.24
-11 3 17 -0.19 0.21
11 -17 -3 0.13 0.11
11 -17 -3 0.08 0.08
11 17 3 0.52 0.35
11 3 -17 -0.23 0.46
-3 17 11 -0.36 0.27
-11 -3 -17 -0.06 0.16
17 3 11 0.42 0.29
-11 -17 3 0.39 0.24
11 17 3 0 0.15
-3 -11 17 0.02 0.4
3 11 17 0.29 0.42
-17 11 3 -0.14 0.15
3 -11 -17 0.12 0.22
17 -3 -11 0.06 0.31
17 3 11 0.22 0.2
17 11 -3 -0.77 0.29
-17 -3 11 0.02 0.24
17 -11 3 0.09 0.31
-3 11 -17 -0.11 0.22
17 -11 3 -0.06 0.15
11 5 17 15.98 1.5
5 17 11 11.15 1.19
-5 11 17 11.31 1.54
-11 -5 17 12.36 1.49
5 -11 17 10.79 1.46
17 -11 -5 14.07 1.6
11 -5 -17 11.49 1.42
-11 5 -17 13.94 1.27
-5 -11 -17 11.99 1.24
-17 5 11 14.04 1.44
17 5 -11 15.41 1.73
-17 -11 5 13.08 1.31
-5 -17 11 13.05 1.36
5 -17 -11 12.53 1.16
17 -5 11 11.93 1.27
-5 17 -11 12.4 1.11
5 11 -17 10.71 1.39
17 11 5 11.56 1.19
17 11 5 11.42 1.34
11 -17 5 13.5 1.09
11 -17 5 11.36 1.04
11 17 -5 13.17 1.56
17 -5 11 12.07 1.27
5 17 11 10.29 1.28
-11 17 5 12.23 1.04
-5 11 -17 12.76 1.25
11 17 5 14.48 1.41
11 5 -17 11.12 1.47
17 -5 -11 12.62 1.55
5 11 17 13.23 1.49
-17 -5 11 14.81 1.53
11 -5 17 13.81 1.43
-11 -5 -17 14.89 1.27
5 -11 -17 13.4 1.37
17 11 -5 10.62 1.52
11 -17 -5 13 1.11
-5 -11 17 11.61 1.5
17 5 11 13.72 1.29
5 17 -11 11.33 1.32
-11 5 17 14.41 1.64
17 -11 5 12.7 1.37
17 5 11 13.16 1.29
-17 11 5 13.75 1.27
17 -11 5 14.6 1.25
-5 17 11 13.73 1.41
-11 -17 5 9.65 1.18
11 17 5 11.08 1.19
-17 -11 7 22.21 2.09
-11 -7 17 23.48 2.33
17 -7 11 25.57 2.07
-7 -11 -17 24.81 1.99
17 11 7 25.8 2.17
17 11 7 22.47 1.99
11 -7 -17 23.39 2.25
-7 11 17 21.98 2.32
-17 7 11 26.54 2.32
11 7 17 24.73 2.19
17 -11 -7 22.64 2.31
11 -17 7 24.95 1.9
11 -17 7 22.55 1.91
7 -11 17 21.92 2.25
7 11 -17 22.65 2.24
-11 7 -17 22.7 1.96
7 17 11 24.06 2.09
-7 -17 11 23.86 2.14
17 -7 11 24.28 2.06
11 17 -7 20.34 2.27
7 17 11 26.12 2.05
17 -7 -11 25.28 2.46
11 -7 17 21.7 2.15
11 17 7 23.58 2.01
11 7 -17 23.75 2.32
17 -11 7 24.89 2.02
17 11 -7 23.64 2.43
11 -17 -7 24.3 1.94
-17 -7 11 21.15 2.12
-11 7 17 21.07 2.27
-11 -17 7 23.12 2.04
-7 17 11 23.28 2.11
7 -17 11 26.23 2.16
7 17 -11 24 2.23
-7 -11 17 22.92 2.32
17 7 11 22.83 2.03
17 7 11 18.8 1.97
11 17 7 25.01 2.13
-17 11 7 22.39 2.07
7 11 17 22.78 2.22
7 -11 -17 27.08 2.19
17 -11 7 22.33 2.09
-7 11 -17 23.4 1.99
-11 -7 -17 25.3 2
-9 -17 11 61.24 4.47
-11 9 -17 56.34 4.23
11 17 -9 56.47 4.67
17 -9 11 55.29 4.32
-9 -11 -17 60.14 4.25
-17 9 11 56.26 4.49
11 -17 9 57.12 4.19
11 -17 9 54.44 4.28
-9 11 17 51.04 4.6
9 -11 17 69.67 4.73
9 11 -17 51.6 4.54
17 9 -11 56.26 4.77
-17 -11 9 57 4.42
17 11 9 50.67 4.34
9 17 11 63.34 4.35
9 17 11 59.32 4.4
11 -9 -17 56.95 4.52
-11 17 9 56.83 4.27
-11 -9 17 62.26 4.67
11 9 17 49.91 4.37
17 -11 -9 58.62 4.69
9 -17 -11 56.56 4.26
17 -9 11 56.37 4.32
17 11 9 57.75 4.3
11 9 -17 57.44 4.66
17 -11 9 53.94 4.34
17 -11 9 54.71 4.29
-11 -9 -17 66.56 4.31
-9 -11 17 59.95 4.65
-9 11 -17 58.36 4.25
-9 17 11 59.8 4.4
9 -11 -17 62.38 4.49
17 9 11 66.19 4.44
11 -17 -9 58.02 4.26
17 -9 -11 56.41 4.69
9 -17 11 63.8 4.49
11 -9 17 57.29 4.52
17 9 11 63.64 4.36
9 11 17 58.07 4.48
9 17 -11 59.37 4.6
17 11 -9 48.24 4.61
9 -17 11 55.02 4.15
-11 9 17 51.59 4.58
-17 11 9 49.38 4.32
-17 -9 11 55.22 4.45
11 17 9 51.39 4.32
-11 -17 9 54.56 4.37
11 17 9 52.75 4.28
11 17 11 7.95 1.04
11 17 11 11 1.17
-11 11 -17 10.77 1.02
17 -11 11 8.78 1.09
-17 11 11 9.76 1.18
17 11 11 8.94 1.09
-11 11 17 8.47 1.22
11 -17 11 9.31 0.97
11 -17 11 10.27 1.2
11 -11 -17 9.53 1.26
11 -11 17 10.28 1.27
11 11 -17 8.38 1.33
11 11 17 8.6 1.11
-11 17 11 8.76 1.07
11 -17 -11 8.88 1.05
17 -11 -11 8.54 1.33
-11 -17 11 6.35 1.02
-11 -11 17 8.45 1.26
17 11 -11 7.75 1.49
17 11 11 8.36 1.02
-17 -11 11 10.14 1.21
17 -11 11 8.96 1.09
11 17 -11 11.39 1.48
13 -1 -17 10.98 1.38
-1 13 17 10.7 1.38
17 1 -13 13.85 1.67
17 -13 -1 9.38 0.98
17 13 1 10.36 1.05
-17 1 13 9.19 1.26
13 -17 1 10.02 1.01
13 -17 1 11.08 0.89
1 -17 -13 10.25 1.04
-17 -13 1 11.03 1.13
1 17 13 7.39 1.17
-13 1 -17 12.52 1.15
13 1 17 11.81 1.29
-1 17 -13 9.99 1.04
1 -13 17 10.24 1.37
1 13 -17 10.25 1.2
17 -1 13 11.35 1.2
17 -13 -1 9.94 1.31
-13 -1 17 9.43 1.3
-1 -13 -17 10.62 1.12
17 13 1 9.26 1.23
17 -1 13 13.1 1.22
-1 -17 13 12.11 1.31
13 17 -1 11.43 1.36
1 13 17 11.43 1.35
17 -13 1 10.85 1.03
1 -13 -17 10.23 1.1
-13 -1 -17 9.22 1.03
17 -1 -13 8.88 1.37
-1 -17 -13 9.86 1.03
-17 -1 13 9.33 1.23
17 1 13 8.11 1.08
17 -13 1 10.26 1.26
-1 17 13 11.11 1.35
13 -17 -1 9.53 0.98
13 -17 -1 10.17 0.86
17 13 -1 10.07 1.3
-1 -13 17 11.4 1.45
17 1 13 9.68 1.14
13 -1 17 10.65 1.21
13 1 -17 13.67 1.57
13 17 1 12.31 1.39
-1 13 -17 9.63 1.11
13 17 1 11.62 1.08
1 -17 13 7.98 1.24
1 17 -13 11.85 1.18
13 17 -3 0.78 0.5
17 -3 13 0.78 0.32
-3 -13 -17 0.74 0.36
3 17 13 0.81 0.45
3 -13 17 1.77 0.62
3 -17 -13 1.17 0.37
-3 13 17 0.98 0.52
-17 -13 3 0.91 0.38
17 -3 13 0.79 0.38
-3 -17 13 0.95 0.45
17 3 -13 0.86 0.54
13 3 17 1.15 0.43
13 -17 3 0.82 0.33
17 13 3 1.58 0.52
17 13 3 0.56 0.31
-13 3 -17 0.93 0.36
13 -17 3 1.25 0.28
-13 -3 17 1.02 0.44
17 -13 -3 1.08 0.52
3 13 -17 1.3 0.44
-17 3 13 0.28 0.34
13 -3 -17 1.1 0.58
-3 17 -13 0.87 0.31
3 17 -13 2.34 0.56
-13 -3 -17 1.02 0.32
17 -3 -13 0.79 0.58
13 -3 17 1.63 0.49
-17 13 3 1.15 0.34
-13 -17 3 1.79 0.44
13 17 3 1.13 0.38
-17 -3 13 1.25 0.47
3 13 17 1.45 0.57
3 -13 -17 0.91 0.39
13 17 3 1.5 0.52
17 -13 3 1.43 0.5
-3 17 13 0.78 0.43
-3 -17 -13 1.08 0.33
17 -13 3 0.96 0.32
17 3 13 0.97 0.38
13 -17 -3 1 0.35
17 3 13 1.1 0.38
-3 13 -17 0.93 0.36
17 13 -3 1.49 0.59
-13 3 17 0.71 0.5
13 3 -17 2.44 0.76
13 -17 -3 0.88 0.22
-3 -13 17 1.13 0.51
17 13 5 46.24 3.33
-17 -13 5 41.29 3.34
17 -5 13 37.77 3.31
17 5 -13 40.11 3.72
-5 13 17 43.32 3.73
13 -17 5 39.35 3.16
-5 17 -13 43.37 3.19
5 -17 -13 47.86 3.43
-13 5 -17 43.93 3.28
13 5 17 38.99 3.42
13 17 -5 45.1 3.71
5 17 13 47.65 3.33
-5 -17 13 44.09 3.5
13 -5 -17 42.26 3.65
17 13 5 42.06 3.49
17 -5 13 37.61 3.32
5 13 -17 42.04 3.51
-13 -5 17 44.82 3.67
-5 -13 -17 43.29 3.28
5 17 13 42.82 3.49
13 -17 5 43.96 3.27
5 -13 17 44.52 3.72
-17 5 13 43.12 3.55
17 -13 -5 49.37 3.74
13 17 5 41.95 3.29
5 13 17 49.49 3.64
17 -13 5 42.53 3.26
-17 -5 13 37.84 3.45
-5 17 13 50.45 3.66
-13 -17 5 40.6 3.34
-5 13 -17 41.24 3.26
-13 5 17 46.19 3.72
5 -13 -17 37.4 3.31
-13 -5 -17 46.9 3.31
13 17 5 44.59 3.53
-5 -13 17 43.98 3.69
17 5 13 37.49 3.31
13 -5 17 44.4 3.49
17 -13 5 46.33 3.5
5 -17 13 40.9 3.53
17 13 -5 35.94 3.61
5 17 -13 40.79 3.45
17 -5 -13 41.05 3.72
13 5 -17 47.77 3.76
17 5 13 36.42 3.29
13 -17 -5 45.01 3.28
-17 13 5 43.5 3.31
13 -17 7 5.3 0.73
-13 7 -17 7.25 0.8
7 13 -17 5.15 1.02
17 13 7 5.88 0.93
17 13 7 5.74 0.77
-7 13 17 5.26 1.09
17 -13 -7 5.88 1.13
7 -13 17 3.95 0.95
-17 -13 7 4.66 0.75
-7 17 -13 5.91 0.65
-17 7 13 5.05 0.98
13 17 -7 5.64 1.19
-7 -17 13 4.63 0.9
17 -7 13 6.12 0.81
17 -7 13 4.18 0.8
17 7 -13 5.58 1.17
-13 -7 17 3.8 0.9
7 17 13 5.63 0.77
-13 17 7 5.21 0.66
13 7 17 6.39 0.94
13 -17 7 6.74 0.79
7 -17 -13 5.44 0.72
13 -7 -17 5.63 1.1
7 17 13 5.99 0.9
-7 -13 -17 5.34 0.75
17 -7 -13 6.51 1.41
13 7 -17 4.94 1.06
17 7 13 4.23 0.71
-7 -13 17 4.63 1.01
13 17 7 5.84 0.88
-7 13 -17 4.53 0.7
-13 -17 7 7.46 0.85
13 17 7 6.64 0.81
13 -17 -7 4.64 0.77
17 -13 7 6.82 0.93
7 -17 13 4.84 0.95
7 17 -13 6.36 1.07
17 -13 7 7.11 0.82
17 7 13 3.18 0.68
-17 13 7 5.06 0.76
7 -13 -17 6.33 0.89
-13 7 17 4.16 0.95
7 13 17 3.93 0.87
-7 17 13 4.51 0.92
17 13 -7 5.5 1.16
17 13 9 20.91 1.84
-13 9 -17 19.58 1.76
9 -13 17 18.79 2.06
13 -9 -17 20.72 2.08
17 -9 13 21.23 1.85
-17 -13 9 21.26 1.95
-13 -9 17 20.76 2.08
17 13 9 21.31 1.95
-9 -13 -17 19.55 1.77
9 -17 -13 19.69 1.83
13 9 17 22.31 1.86
13 9 17 17.21 1.87
17 -13 -9 21.62 2.16
17 -9 13 17.81 1.85
9 13 -17 20.89 2.12
9 17 13 18.78 1.83
-9 13 17 19.92 2.17
-17 9 13 17.32 1.92
-9 -17 13 21.55 2.01
9 17 13 21.01 1.96
17 9 -13 21.28 2.24
13 17 -9 20.56 2.21
9 -17 13 21.56 2.08
-13 -17 9 20.86 1.94
-17 -9 13 18.6 1.96
13 -9 17 21.45 2.06
17 -13 9 19.25 2.25
17 -13 9 21.08 1.86
17 13 -9 19.21 2.17
-9 13 -17 22.78 1.8
13 17 9 16.37 1.84
9 -13 -17 21.82 1.98
9 17 -13 18.2 2.05
13 17 9 17.31 1.79
17 -9 -13 24.34 2.29
13 9 -17 22.32 2.25
9 13 17 23.33 2.07
13 -17 -9 22.38 1.94
-13 9 17 21.43 2.12
17 9 13 23.03 1.91
-9 17 13 21.36 2.03
-9 -13 17 21.04 2.14
17 9 13 16.55 1.8
9 -17 13 21.61 1.76
11 17 13 2.4 0.59
13 11 17 2.04 0.53
-13 -11 17 2.42 0.68
17 13 11 2.22 0.65
-17 -13 11 2.59 0.64
13 -11 -17 2.36 0.72
11 17 13 2.56 0.67
11 -13 17 3.28 0.88
11 13 -17 3.18 0.87
-11 13 17 1.71 0.64
17 13 11 2.5 0.61
-11 -17 13 2.76 0.73
17 -11 13 2.29 0.59
13 11 17 2.35 0.65
11 -17 -13 3.57 0.96
17 -11 13 2.54 0.65
-17 11 13 1.69 0.56
13 17 -11 2.7 0.84
17 11 -13 3.92 1.06
17 -13 -11 1.97 0.77
13 -11 17 1.88 0.62
11 13 17 2.41 0.66
17 -13 11 1.29 0.52
-17 -11 13 1.34 0.5
17 11 13 2.95 0.66
11 -13 -17 3.01 0.76
-11 -13 17 2.89 0.74
13 11 -17 2.43 0.74
11 17 -13 2.99 0.82
-13 11 17 3.58 0.82
17 13 -11 1.37 0.77
17 -11 -13 2.52 0.81
13 17 11 2.19 0.62
-17 13 11 2.2 0.6
17 -13 11 3.13 0.68
-11 13 -17 3.18 0.81
11 13 17 2.81 0.58
13 17 11 3.3 0.67
-13 -17 11 2.6 0.65
17 11 13 2.9 0.67
17 13 13 4.38 0.83
13 17 13 4.83 0.86
-13 -17 13 4.57 0.93
-13 13 17 4.01 0.95
17 13 13 4.84 0.75
17 13 -13 5.37 1.22
13 13 17 4.32 0.86
13 17 -13 6.15 1.16
-13 -13 17 3.53 0.87
13 13 17 5.23 0.84
-17 13 13 4.85 0.93
13 13 -17 4.51 1.11
13 -13 -17 4.74 0.97
13 -13 17 6.03 0.78
13 -13 17 4.1 0.93
17 -13 13 3.69 0.82
-17 -13 13 3.7 0.86
13 17 13 5.14 0.93
17 -13 -13 4.48 0.98
17 -13 13 5.75 0.95
17 -15 -1 54.34 3.97
17 -1 15 54.57 4.17
1 15 -17 53.83 4.17
-1 -15 -17 58.63 4.11
15 1 17 55.6 4.12
-1 17 -15 52.76 4.06
17 1 -15 60.7 4.62
1 -15 17 54.62 4.48
1 -17 -15 55.02 4.05
-1 15 17 48.36 4.41
15 -1 -17 53.88 4.45
17 -1 15 58.85 4.18
-15 -1 17 51.77 4.39
17 15 1 47.77 4.28
1 17 15 58.44 4.42
15 1 17 49.76 4.17
17 -15 -1 63.61 4.46
15 17 -1 58.4 4.48
-17 1 15 54.8 4.36
-17 -15 1 54.42 4.11
17 15 1 49.35 4.01
-17 -1 15 57.11 4.41
-1 -15 17 52.53 4.46
1 -15 -17 48.78 4.04
17 1 15 60.53 4.2
1 15 17 55.96 4.44
17 -1 -15 59.28 4.61
15 17 1 55.87 4.42
15 17 1 50.36 4.01
17 -15 1 52.06 4.31
17 -15 1 54.27 3.99
17 15 -1 51.48 4.38
1 -17 15 54.98 4.42
1 17 -15 46.99 4.22
-15 1 17 51.59 4.4
-1 -17 -15 51.29 4.01
-1 15 -17 48.51 4.08
-1 17 15 53.84 4.45
17 1 15 56.92 4.21
15 1 -17 61.56 4.54
15 -1 17 56.15 4.26
15 -1 17 53.92 4.1
-3 15 17 19.74 2.06
-17 3 15 18.94 1.96
17 15 3 20.98 1.97
17 15 3 19.29 1.71
-15 -3 17 17.5 1.94
17 -3 15 15.89 1.72
15 3 17 16.8 1.8
3 -15 17 17.45 2.03
3 15 -17 17.43 1.79
17 -3 15 18.48 1.8
17 3 -15 19.42 2.12
-3 -17 15 16.39 1.89
15 3 17 18.38 1.72
-17 -15 3 21.49 1.81
-3 17 -15 19.5 1.67
-3 -15 -17 19.1 1.7
15 17 -3 20.26 2.11
3 17 15 18.79 1.97
15 -3 -17 22.18 2.11
17 -15 -3 20.43 2.02
15 -3 17 18.3 1.71
15 3 -17 20.27 2.07
-3 15 -17 19.74 1.74
-15 3 17 17.38 1.93
3 -15 -17 22.43 1.81
17 3 15 17.09 1.76
15 17 3 16.3 1.64
17 -3 -15 21.47 2.16
15 -3 17 20.45 1.88
-17 -3 15 20.02 1.96
17 -15 3 18.41 1.64
-15 -17 3 19.73 1.77
17 -15 3 19.83 1.93
-3 17 15 22.81 2.12
3 -17 15 19.52 2.02
3 17 -15 19.62 1.83
-3 -17 -15 20.91 1.7
-3 -15 17 18.92 2.02
15 17 3 19.44 1.96
17 15 -3 17.7 2.03
3 15 17 18.72 1.99
17 3 15 17.52 1.73
15 17 -5 0.05 0.45
17 -5 15 0.39 0.33
-17 -15 5 0.03 0.2
-17 5 15 0.07 0.24
17 -5 15 0.03 0.23
17 -15 -5 -0.91 0.28
17 15 5 -0.18 0.27
15 -5 -17 -0.11 0.31
5 17 15 0.61 0.36
-5 -15 -17 0.11 0.24
-5 17 -15 -0.14 0.14
-5 15 17 0.08 0.41
5 -15 17 0.24 0.4
-5 -17 15 -0.06 0.24
17 15 5 -0.19 0.14
15 5 17 0.03 0.25
5 -17 -15 0.21 0.24
17 5 -15 0.03 0.4
5 15 -17 0.12 0.34
-15 -5 17 -0.03 0.34
15 5 17 -0.13 0.23
15 -5 17 0.02 0.19
17 15 -5 -0.34 0.44
15 5 -17 -0.24 0.46
-5 17 15 -0.36 0.33
17 5 15 0.21 0.23
5 -17 15 -0.43 0.3
17 -15 5 -0.17 0.21
5 15 17 -0.27 0.18
15 17 5 0.68 0.39
-15 5 17 -0.4 0.29
-5 -17 -15 -0.19 0.16
-5 -15 17 -0.54 0.27
5 17 -15 -0.02 0.34
-17 -5 15 0.61 0.35
-15 -17 5 0.1 0.26
17 -5 -15 -0.44 0.26
-17 15 5 -0.01 0.19
15 17 5 0.39 0.28
15 -5 17 -0.09 0.2
17 5 15 0.14 0.18
17 -15 5 0.26 0.32
-17 -15 7 25.7 2.38
17 15 7 23.77 2.44
17 7 -15 33.08 2.89
7 17 15 28.82 2.58
17 -7 15 24.02 2.34
17 -7 15 29.42 2.49
-7 17 -15 27.41 2.24
7 17 15 32.47 2.45
15 7 17 27.65 2.4
-7 15 17 26.87 2.75
15 17 -7 26.4 2.73
-17 7 15 31.61 2.68
-7 -15 -17 28.66 2.31
-7 -17 15 29.15 2.59
17 15 7 25.4 2.33
7 -17 -15 30.25 2.42
-15 -7 17 30.61 2.68
17 -15 -7 25.2 2.56
7 -15 17 29.07 2.73
7 15 -17 27.73 2.59
15 -7 -17 29.48 2.76
17 7 15 30.94 2.47
-7 17 15 26.89 2.65
-15 7 17 25.14 2.59
17 -15 7 29.84 2.42
15 17 7 30.79 2.4
-15 -17 7 28.73 2.41
7 17 -15 24.43 2.5
-7 15 -17 28.74 2.32
17 7 15 28.49 2.43
15 17 7 29.39 2.56
15 -7 17 26.73 2.35
15 -7 17 25.85 2.46
15 7 -17 31.13 2.83
-17 -7 15 29.16 2.57
7 -15 -17 30.47 2.46
17 -15 7 29.38 2.51
17 -7 -15 26.7 2.69
17 15 -7 25.31 2.68
7 -17 15 28.02 2.69
-17 15 7 28.77 2.36
-7 -15 17 27.85 2.65
7 15 17 27.62 2.6
15 9 17 81.55 5.6
-9 -17 15 75.11 5.78
9 -17 -15 81.44 5.62
17 9 -15 70.63 5.94
9 17 15 80.01 5.59
9 17 15 82.56 5.76
15 -9 -17 72.57 5.82
9 -15 17 66.17 5.78
-9 15 17 84.32 6.02
17 15 9 61.4 5.56
17 15 9 71.77 5.51
-17 -15 9 80.73 5.68
17 -15 -9 71.28 5.8
15 9 17 79.15 5.69
17 -9 15 75.35 5.59
17 -9 15 70.35 5.63
9 15 -17 77.11 5.81
15 17 -9 66.66 5.91
-15 -9 17 76.58 5.82
-17 9 15 71.4 5.75
-15 -17 9 75.83 5.63
-15 9 17 76.69 5.89
15 -9 17 77.29 5.57
17 9 15 66.9 5.51
17 9 15 80.8 5.65
9 17 -15 80.72 5.9
15 9 -17 67.33 5.83
-9 -15 17 73.88 5.82
-9 15 -17 77.31 5.46
17 15 -9 72.81 6.01
-17 -9 15 71.34 5.72
9 15 17 84.88 5.85
15 17 9 72.08 5.54
17 -9 -15 77.78 5.93
15 -9 17 72.54 5.68
9 15 17 67.91 5.48
9 -15 -17 83.03 5.7
11 17 15 6.08 0.98
15 -11 -17 8.04 1.11
15 17 -11 6.09 1.29
-15 -11 17 5.83 0.97
17 15 11 7.2 0.98
-17 11 15 5.1 1.05
11 17 15 5.38 0.85
15 11 17 7.23 1.03
17 -11 15 5.31 1.1
17 -11 15 5.02 1.18
17 15 11 5.22 0.86
-17 -15 11 5.48 0.87
-11 15 17 5 1.1
15 11 17 7.2 0.95
-11 -17 15 6.85 1.03
11 15 -17 8.01 1.18
17 11 -15 7.26 1.37
17 -11 -15 5.63 1.2
-15 -17 11 7.16 0.97
17 11 15 5.52 0.92
11 15 17 6.83 0.94
11 -15 -17 5.83 1.05
15 -11 17 5.6 0.87
15 17 11 6.42 0.94
11 15 17 6.61 1.02
17 11 15 7.84 0.94
15 17 11 7.08 1.02
-17 -11 15 7.96 1.11
11 17 -15 6.5 1.23
-11 -15 17 4.63 1.02
15 -11 17 6.13 1
15 11 -17 6.54 1.31
-15 11 17 4.61 1.05
17 15 -11 7.1 1.42
17 15 13 -0.41 0.35
15 13 17 0.06 0.25
13 17 15 -0.33 0.25
13 17 15 -0.3 0.19
15 17 -13 0.37 0.68
13 15 -17 -0.6 0.33
-17 -15 13 -0.01 0.33
-15 -13 17 -0.19 0.34
17 13 -15 0.62 0.6
15 13 17 -0.09 0.3
-17 13 15 0.31 0.33
17 15 13 0.07 0.29
15 -13 -17 -0.22 0.45
15 13 -17 -0.59 0.43
15 -13 17 0.09 0.32
13 15 17 -0.24 0.32
15 -13 17 0.84 0.38
-15 -17 13 0.34 0.35
15 17 13 0.07 0.3
13 15 17 -0.13 0.34
17 15 -13 -0.18 0.71
-17 -13 15 0.38 0.32
17 13 15 -0.33 0.18
15 17 13 0.43 0.34
17 -13 -15 -0.8 0.36
17 15 -15 38.65 3.7
15 17 15 35.88 3.27
15 17 15 40.24 3.29
-15 -17 15 40.25 3.35
15 15 -17 45.26 3.78
15 15 17 38.84 3.22
15 17 -15 36.61 3.58
-17 1 17 95.58 6.77
-1 -17 -17 103.31 6.56
-1 -17 17 88.4 6.81
-17 -1 17 80.22 6.63
1 17 -17 96.98 6.54
1 17 17 79.06 6.68
17 -1 -17 101.97 6.92
17 -1 17 84.43 6.44
17 -1 17 79.08 6.48
17 1 -17 76.01 6.69
17 17 -1 92.76 6.84
17 17 -1 98.89 6.41
17 17 1 94.83 6.82
17 17 1 80.22 6.33
1 -17 17 92.06 6.86
-1 17 -17 88.69 6.43
-1 17 17 80.1 6.74
1 -17 -17 82.7 6.36
-3 -17 17 52.82 4.47
-3 17 -17 52.61 4.1
-3 17 17 46.9 4.45
3 -17 -17 57.52 4.17
3 -17 17 51.79 4.51
3 17 -17 56.59 4.3
17 -3 -17 61.39 4.62
17 -3 17 54.42 4.19
17 -3 17 51.23 4.26
17 3 -17 54.22 4.54
-17 -3 17 50.87 4.36
-17 3 17 53.62 4.41
-3 -17 -17 53.01 4.09
-17 -17 3 49.14 4.13
17 17 -3 62.29 4.66
17 17 3 51.49 4.36
17 17 3 57.91 4.14
17 3 17 61.68 4.24
17 3 17 57.4 4.3
17 5 17 -0.05 0.2
17 5 17 0.38 0.24
17 17 -5 0.9 0.54
17 17 5 -0.18 0.34
17 17 5 0.15 0.27
5 -17 17 -0.28 0.42
17 -5 17 -0.41 0.26
17 5 -17 0.04 0.35
5 17 17 0.33 0.4
17 -5 -17 0.02 0.46
17 -5 17 -0.03 0.19
-17 -17 5 -0.06 0.26
-17 -5 17 0.02 0.31
-17 5 17 0.24 0.35
-5 -17 -17 -0.35 0.19
-5 -17 17 0.19 0.28
-5 17 17 0.2 0.43
5 -17 -17 0.42 0.3
5 17 -17 0.04 0.31
-17 -17 7 55.13 4.2
17 17 7 64.45 4.22
17 -7 17 55.96 4.31
17 7 -17 46.28 4.41
17 7 17 44.3 4.07
17 7 17 58.61 4.28
17 17 -7 55.68 4.64
17 17 7 62.43 4.46
7 17 -17 47.94 4.31
7 17 17 55.66 4.42
17 -7 -17 56.87 4.51
17 -7 17 49.57 4.11
-17 7 17 54.97 4.42
-7 -17 17 50.32 4.36
7 -17 -17 50.63 4.14
-17 -7 17 57.22 4.42
17 17 9 94.98 7.82
17 17 9 121.46 8.14
17 -9 17 109.61 8.03
-17 -17 9 111.03 7.94
-17 -9 17 129.08 8.25
-17 9 17 122.59 8.24
-9 -17 17 102.05 8.09
9 17 -17 109.54 8.15
17 17 -9 105.87 8.36
9 17 17 102.92 8.08
17 -9 -17 115.7 8.29
17 -9 17 110.05 7.91
17 9 17 98.68 7.84
17 9 -17 110.76 8.29
9 17 17 103.65 7.86
11 17 -17 19.95 2.23
11 17 17 25.5 2.06
-17 11 17 18.54 2.23
-17 -17 11 20.18 1.99
17 11 -17 20.43 2.28
17 -11 17 22.82 2.04
17 17 -11 18.65 2.35
17 17 11 24.88 2.14
17 17 11 18.96 1.95
17 -11 -17 19.03 2.16
13 17 17 7.65 1.11
-13 -17 17 6.4 1.41
13 17 -17 5.95 1.39
17 17 13 7.69 1.14
18 0 0 373.33 25.31
0 0 18 364.17 25.37
-18 0 -2 98.59 6.51
0 -2 -18 106.15 6.66
0 -2 18 93.75 6.82
-18 -2 0 82.45 6.46
-18 2 0 90.47 6.49
-2 0 -18 75.19 6.46
-2 0 18 99.71 6.93
2 0 -18 87.31 6.59
2 0 18 86.64 6.73
18 -2 0 81.55 6.61
18 2 0 93.09 6.7
2 18 0 87.84 6.15
0 2 -18 100.39 6.63
-18 0 2 88.6 6.5
0 2 18 95.08 6.81
18 0 -2 90.32 6.75
2 -2 -18 53.39 4.62
18 2 -2 53.65 4.74
2 -2 18 64.36 4.87
-18 -2 -2 65.94 4.59
-18 -2 2 62.44 4.59
-18 2 2 63.09 4.59
-2 -2 -18 61.96 4.61
-2 -2 18 57.48 4.86
18 2 2 68.5 4.78
-2 2 18 61.95 4.93
2 18 2 59.99 4.29
18 -2 -2 64.16 4.84
18 -2 2 64.37 4.73
2 2 18 72.32 4.92
2 18 -2 58.56 4.23
2 18 -2 60.28 4.21
2 18 2 63.27 4.34
-2 2 -18 69.38 4.67
2 2 -18 58.03 4.65
4 18 0 0.62 0.18
18 4 0 0.94 0.44
4 18 0 0.56 0.26
-18 -4 0 0.5 0.31
-18 4 0 0.41 0.29
-4 0 -18 0.36 0.3
4 0 -18 0.27 0.31
4 0 18 0 0.34
18 -4 0 0.84 0.43
18 0 -4 0.42 0.34
18 0 4 0.4 0.46
-4 0 18 0.56 0.41
-18 0 4 0.19 0.27
0 -4 -18 0.02 0.27
0 -4 18 0.84 0.44
0 4 -18 0.88 0.36
0 4 18 1.15 0.45
4 18 -2 3.24 0.37
-4 2 -18 2.14 0.55
2 18 4 2.98 0.4
-4 -2 18 2.7 0.77
4 2 18 2.51 0.65
18 -4 -2 2.54 0.65
4 -2 -18 3.69 0.7
18 -2 4 3.7 0.53
18 4 2 3.72 0.73
18 -2 4 3.5 0.69
-18 2 4 3.28 0.62
-2 -4 -18 3.51 0.64
18 2 -4 2.75 0.71
-2 4 18 3.58 0.93
-18 -4 2 3.51 0.66
2 -4 18 3.56 0.81
2 4 -18 1.59 0.49
4 18 -2 3.56 0.53
2 18 4 3.05 0.44
4 18 2 2.99 0.47
4 18 2 2.28 0.38
18 -2 -4 2.94 0.74
2 18 -4 2.97 0.37
-4 2 18 3.61 0.92
18 2 4 3.14 0.68
18 2 4 1.93 0.43
-2 4 -18 2.49 0.6
2 4 18 2.51 0.65
2 18 -4 3.12 0.3
18 4 -2 2.07 0.67
4 2 -18 3.37 0.74
-18 -4 -2 3.74 0.54
2 -4 -18 2.61 0.61
-18 4 2 2.77 0.53
4 -2 18 2.71 0.72
18 -4 2 2.63 0.65
-18 -2 4 2.39 0.53
-4 -2 -18 2.44 0.53
18 -4 4 79.2 5.94
-4 -4 -18 81.71 5.84
18 -4 4 70.74 5.71
18 4 -4 72.58 6.05
18 4 4 80.5 5.98
18 4 4 80.99 5.76
4 -4 18 88.31 6.14
4 4 -18 77.48 6
-4 4 18 80.19 6.18
4 4 18 78.42 6.04
4 18 -4 78.47 5.75
-18 -4 4 79.12 5.87
4 -4 -18 88.62 5.99
4 18 4 85.68 5.74
-4 -18 4 83.39 5.61
-4 -4 18 86.77 6.28
-4 4 -18 81.03 5.85
18 -4 -4 76.12 6.07
-18 4 4 82.41 5.88
-18 -6 0 33.26 2.66
18 0 6 30.49 2.57
18 0 6 35.94 2.78
-6 0 -18 38.04 2.67
0 6 -18 30.14 2.69
0 6 18 36.27 2.97
0 -6 -18 32.98 2.68
18 0 -6 28.16 2.91
-6 0 18 27.38 2.89
6 18 0 31.61 2.45
0 -18 6 33.72 2.31
0 18 -6 31.56 2.3
6 0 -18 34.89 2.88
6 0 18 30.56 2.81
18 -6 0 32.84 2.84
-18 0 6 35.71 2.77
-18 6 0 37.21 2.69
0 18 6 34.76 2.42
18 6 0 35.55 2.87
0 -6 18 30.89 2.94
0 18 6 32.32 2.51
6 18 0 34.79 2.7
6 18 -2 6.92 0.66
-6 2 -18 6.54 0.81
-18 2 6 5.56 0.85
-6 -2 18 7.25 1.16
-2 -6 -18 7.06 0.84
18 -2 6 6.51 0.89
6 18 -2 5.88 0.86
6 2 18 7.18 0.98
2 18 6 5.41 0.71
18 2 -6 5.41 1.06
2 6 -18 6.94 0.96
18 -2 6 6.22 0.76
2 18 6 5.73 0.66
-2 -18 6 6.5 0.62
18 -6 -2 6.18 1
-18 -6 2 6.53 0.86
-2 6 18 7.01 1.07
6 -2 -18 8.84 1.13
18 6 2 5.44 0.88
2 -6 18 5.66 1.04
2 -6 -18 8.22 0.94
-2 18 6 6.45 0.62
18 2 6 7.43 0.92
18 2 6 7.45 0.82
-18 -2 6 6.45 0.88
18 -6 2 7.19 0.98
18 -6 2 6.68 0.77
-6 2 18 6.46 1.06
-6 -2 -18 7.51 0.84
-2 -6 18 7 1.15
-2 6 -18 5.18 0.82
18 6 -2 7.22 1.04
2 6 18 6.78 1.04
2 18 -6 6.54 0.68
-18 6 2 7.55 0.87
6 -2 18 6.82 0.97
6 18 2 5.47 0.79
6 18 2 7.04 0.7
18 -2 -6 6.67 1.07
-2 18 6 6.29 0.55
6 2 -18 6.72 0.99
-18 -6 4 32 2.73
-4 -6 -18 31.53 2.67
18 4 -6 35.46 3.1
18 6 4 29.17 2.6
-6 4 -18 37.49 2.74
18 -6 -4 29.2 2.94
-4 -18 6 32.28 2.54
18 -4 6 34.22 2.81
4 6 -18 28.62 2.81
6 4 18 33.76 2.91
6 18 -4 33.58 2.79
18 -4 6 36.36 2.7
-4 6 18 31.68 3
-18 4 6 37.47 2.83
18 6 4 36.54 2.89
6 -4 -18 33.55 2.89
4 18 6 35.8 2.65
4 18 6 38.35 2.66
4 -6 18 36.85 3.02
-6 -4 18 36.06 3.12
6 18 4 31.88 2.66
6 4 -18 35.4 2.94
18 -4 -6 29.06 2.96
-18 -4 6 33.04 2.8
-6 -18 4 35.79 2.59
4 6 18 30.92 2.86
-6 4 18 35.24 3.13
-4 6 -18 31.31 2.69
6 18 4 36.42 2.62
-18 6 4 32.48 2.71
-6 -4 -18 31.11 2.67
18 -6 4 36.26 2.88
-4 -6 18 37.64 3.14
4 -6 -18 40.35 2.93
6 -4 18 35.39 2.93
18 6 -4 28.56 2.89
18 4 6 36.06 2.86
18 4 6 32.73 2.66
18 -6 4 39.45 2.7
4 18 -6 35.91 2.69
6 18 -6 7.44 0.98
6 6 -18 5.77 1.02
18 6 -6 5.76 1.13
-6 6 18 5.62 1.12
18 -6 6 6.6 0.87
6 6 18 7.39 1
6 18 6 6.85 0.79
18 -6 -6 5.84 1.16
-18 -6 6 5.62 0.82
6 18 6 5.17 0.75
18 -6 6 7.16 0.79
-6 -6 -18 8.02 0.86
-6 -6 18 7.96 1.2
18 6 6 4.83 0.81
-6 -18 6 5.82 0.72
6 -6 -18 7.21 0.94
-18 6 6 7.62 0.9
6 -6 18 4.91 0.98
18 6 6 5.55 0.73
-6 6 -18 6.82 0.8
-8 0 18 100.1 7.72
8 0 -18 105.18 7.62
8 0 18 99.49 7.57
8 18 0 94.64 7.44
18 0 -8 126.22 7.91
0 8 18 101.27 7.67
0 8 -18 106.14 7.48
-8 0 -18 96.71 7.32
18 -8 0 100.17 7.57
18 8 0 103.66 7.59
0 18 -8 102.25 7.12
0 18 8 108.03 7.18
18 0 8 110.36 7.5
18 0 8 101.93 7.35
8 18 0 109.12 7.22
0 -8 -18 97.51 7.37
0 -8 18 106.47 7.78
0 -18 8 101.81 7.18
-18 8 0 102.06 7.33
-18 0 8 101.74 7.5
18 -8 -2 67.7 5.5
8 2 18 81.8 5.59
-2 -18 8 72.47 5.16
18 2 -8 79.32 5.73
18 8 2 78.22 5.5
8 18 -2 67.8 5.42
-2 -8 -18 63.48 5.24
18 -2 8 78.85 5.29
-2 18 -8 79.22 5
2 -8 18 74.24 5.65
18 -2 8 68.07 5.34
2 18 8 75.97 5.28
-18 2 8 68.37 5.38
2 8 -18 71.61 5.38
8 -2 -18 74.09 5.52
-2 8 18 71.18 5.65
-8 -2 18 73.18 5.68
-8 2 -18 80.17 5.3
2 18 8 66 5.11
18 -8 2 72.39 5.44
8 18 2 77.25 5.17
-18 8 2 64.69 5.23
8 -2 18 71.44 5.49
2 -18 8 70.44 5.02
18 2 8 77.36 5.41
18 -2 -8 79.6 5.72
18 8 -2 62.75 5.46
8 2 -18 86.23 5.63
2 8 18 67.94 5.51
-8 2 18 71.31 5.67
8 18 2 63.19 5.27
-2 18 8 75.25 5.25
-2 8 -18 70.96 5.3
18 2 8 67.78 5.23
18 -8 2 71.1 5.19
2 18 -8 74.18 5.16
-2 -8 18 76.6 5.71
-18 -2 8 70.55 5.39
-8 -2 -18 61.6 5.2
2 -8 -18 72.72 5.33
8 18 -4 2 0.58
8 -4 -18 1.37 0.5
4 8 -18 1.4 0.51
18 -8 -4 2.85 0.77
8 4 18 1.36 0.55
4 18 8 1.62 0.38
-18 4 8 1.01 0.44
-4 -18 8 1.86 0.43
18 -4 8 1.15 0.44
-8 -4 18 1.58 0.68
-4 -8 -18 1.79 0.47
18 8 4 1.24 0.49
18 8 4 1.55 0.4
-4 8 18 2.34 0.7
4 -8 18 1.14 0.48
-18 -8 4 1.29 0.45
18 -4 8 1.69 0.43
4 18 8 1.7 0.48
4 -18 -8 1.85 0.26
-8 4 -18 1.06 0.42
18 4 -8 2.13 0.74
-18 -4 8 1.96 0.53
4 18 -8 1.55 0.44
4 -8 -18 1.46 0.47
18 -4 -8 1.62 0.6
8 4 -18 2.15 0.69
-8 -4 -18 1.37 0.39
-8 -18 4 1.37 0.36
-4 -8 18 1.87 0.65
18 4 8 0.91 0.41
18 -8 4 1.43 0.5
4 8 18 1.32 0.51
18 8 -4 1.09 0.49
8 18 4 2.51 0.58
8 18 4 1.2 0.36
-4 8 -18 1.4 0.47
18 -8 4 1.69 0.42
8 -4 18 1.25 0.46
-8 4 18 1.32 0.52
18 4 8 1.42 0.39
-18 8 4 1.9 0.48
-18 6 8 44.74 3.58
8 -6 -18 43.25 3.66
-8 6 -18 47.5 3.47
-18 -8 6 46.7 3.58
6 18 8 45.96 3.44
-6 -18 8 43.85 3.44
18 8 6 53.55 3.71
18 8 6 40.77 3.39
-8 -6 18 39.51 3.78
-6 8 18 45.67 3.88
18 -8 -6 43.45 3.81
6 -8 18 38.15 3.62
6 8 -18 45.54 3.69
8 18 -6 41.89 3.64
6 -18 -8 46.63 3.2
8 6 18 44.87 3.69
18 -6 8 42.63 3.43
18 6 -8 45.84 3.89
6 18 8 41.85 3.44
18 -6 8 44.94 3.56
-8 18 6 43.9 3.09
-6 -8 -18 52.2 3.52
-18 8 6 46.06 3.55
-8 6 18 44.3 3.82
6 -18 8 45.67 3.11
-6 -8 18 50.83 3.94
6 18 -8 45.33 3.6
-18 -6 8 43.17 3.57
18 8 -6 48.03 3.9
8 -18 -6 43.94 3.07
8 -6 18 44.81 3.67
-6 18 8 43.25 3.29
6 -8 -18 49.98 3.64
8 6 -18 48.84 3.75
6 8 18 48.93 3.73
-8 -6 -18 44.68 3.44
6 -18 8 45.32 3.14
8 18 6 40.61 3.45
8 18 6 44.78 3.42
18 -6 -8 40.78 3.8
-8 -18 6 49.17 3.44
18 -8 6 43.19 3.57
18 -8 6 42.7 3.41
18 6 8 47.99 3.61
18 6 8 44.63 3.45
-6 8 -18 50.09 3.49
8 18 8 134.32 10.52
8 18 8 140.73 10.51
18 -8 -8 137.89 10.9
18 -8 8 143 10.61
18 -8 8 154 10.51
8 18 -8 136.61 10.75
-8 8 18 150.23 10.96
-8 18 8 158.38 10.37
18 8 8 161.32 10.56
-8 -18 8 152.14 10.57
-8 -8 -18 168.91 10.55
-8 -8 18 148.42 10.96
18 8 8 176.02 10.76
-18 -8 8 147.4 10.66
-18 8 8 161.87 10.69
8 8 -18 138.42 10.74
8 8 18 156.56 10.8
8 -8 18 145.31 10.75
-8 8 -18 161.75 10.54
8 -18 -8 160.14 10.3
8 -18 8 136.95 10.21
8 -8 -18 140.65 10.69
18 8 -8 164.21 11.04
8 -18 8 141.89 10.26
-18 -10 0 86.77 6.48
10 18 0 80.02 6.61
10 18 0 89.09 6.36
0 -10 -18 94.03 6.52
0 -10 18 88.31 6.85
18 0 10 88.78 6.48
0 10 18 91.96 6.82
-18 0 10 85.09 6.63
-10 0 -18 78.42 6.4
10 0 18 93.71 6.68
18 -10 0 87.97 6.72
18 10 0 87.7 6.69
-10 0 18 85.62 6.87
0 10 -18 85.87 6.54
0 18 10 98.29 6.62
10 0 -18 104.21 6.88
0 -18 10 93.77 6.46
18 0 -10 108.37 7.14
18 0 10 93.11 6.56
-2 -18 10 24.36 1.95
10 -2 -18 23.4 2.16
2 18 10 22.81 1.83
-2 18 -10 21.17 1.7
-10 2 -18 20.8 1.86
-18 -10 2 22.5 1.96
2 -10 18 24.04 2.3
2 18 10 21.02 2.01
-18 2 10 24.95 2.12
-2 -10 -18 20.45 1.88
18 2 -10 20.4 2.23
-2 10 18 20.68 2.2
-10 -2 18 23.2 2.35
18 10 2 21.29 2.11
2 10 -18 22.68 2.04
10 2 18 22.81 2.09
10 18 -2 25.72 2.24
18 -2 10 22.58 1.98
18 -2 10 24.81 1.94
18 10 2 20.1 1.83
18 -10 -2 22.55 2.19
2 -18 -10 21.51 1.73
2 -10 -18 18.63 1.9
10 18 2 27.05 2.13
-18 10 2 20.7 1.88
-10 -2 -18 21.44 1.87
-10 2 18 22.43 2.3
-2 -10 18 22.23 2.3
18 -10 2 20.43 1.82
18 10 -2 21.64 2.16
-2 18 10 25.62 2.13
10 2 -18 18.43 2.09
2 10 18 24.19 2.24
18 -10 2 22.09 2.08
-18 -2 10 20.48 2.03
2 18 -10 22.24 1.86
18 2 10 22.6 1.98
18 2 10 24.87 1.96
10 -2 18 23.29 2.1
10 18 2 21.97 1.83
18 -2 -10 21.42 2.34
-4 -10 -18 0.03 0.22
-4 18 -10 0 0.11
18 10 4 0.13 0.19
4 10 -18 -0.12 0.35
-18 4 10 -0.11 0.23
-4 10 18 0.35 0.42
10 18 -4 0.53 0.45
18 -10 -4 -0.14 0.32
4 18 10 0.1 0.19
4 18 10 0.58 0.32
18 -4 10 0.87 0.36
18 -4 10 0.26 0.24
18 4 -10 0.77 0.59
10 4 18 -0.01 0.21
10 -4 -18 0.09 0.28
-10 -4 18 -0.15 0.23
-4 -18 10 0.33 0.26
4 -10 18 -0.06 0.26
18 10 4 -0.12 0.22
-10 4 -18 0.04 0.22
-18 -10 4 0.12 0.19
-10 4 18 0.53 0.41
18 4 10 0.02 0.17
18 -10 4 0.12 0.31
-18 10 4 0.11 0.23
-18 -4 10 0.21 0.25
18 -10 4 0.16 0.2
-4 -10 18 0.4 0.39
18 10 -4 0.31 0.32
4 -18 10 0.04 0.2
4 18 -10 -0.01 0.19
10 18 4 0.15 0.21
18 -4 -10 0.2 0.52
4 10 18 -0.12 0.21
10 -4 18 -0.2 0.21
10 4 -18 -0.19 0.47
18 4 10 -0.08 0.27
10 18 4 0.31 0.29
-4 10 -18 0.53 0.29
-10 -4 -18 0.47 0.29
4 -10 -18 0.04 0.21
-4 18 10 0.15 0.23
-10 -18 4 -0.21 0.15
-18 -10 6 14.46 1.46
-10 18 6 13.18 1.1
-6 -10 -18 12.64 1.31
18 -6 10 13.2 1.36
18 10 6 11.86 1.29
18 -10 -6 14.15 1.73
-6 -18 10 12.96 1.41
18 10 6 16.51 1.56
6 18 10 14.02 1.33
-10 6 -18 14.72 1.35
10 -6 -18 16.39 1.68
10 18 -6 15.39 1.69
-10 -6 18 13.73 1.63
6 18 10 14.42 1.44
6 10 -18 14.18 1.6
18 -6 10 14.65 1.44
-18 6 10 15.43 1.54
18 6 -10 13.09 1.75
6 -18 -10 14.8 1.24
-6 10 18 13.29 1.72
6 -10 18 15.07 1.67
10 6 18 13.24 1.5
-10 -6 -18 12.13 1.29
6 -10 -18 14.33 1.51
-6 -10 18 13.96 1.71
10 6 -18 14.91 1.67
6 10 18 17.46 1.69
10 -18 -6 13.98 1.11
6 18 -10 14.94 1.55
18 -10 6 12.22 1.3
10 18 6 15.39 1.4
18 -6 -10 12.91 1.7
10 -6 18 14.38 1.6
6 -18 10 15.93 1.38
-6 10 -18 14.81 1.39
18 6 10 12.78 1.43
18 -10 6 14.51 1.51
-10 6 18 14.01 1.66
-18 -6 10 14.57 1.52
10 18 6 13.95 1.45
-10 -18 6 14.35 1.35
-18 10 6 14.41 1.42
18 6 10 14.09 1.37
6 -18 10 16.21 1.21
18 10 -6 13.98 1.71
-6 18 10 14.79 1.42
-18 8 10 74.78 6.13
8 10 -18 78.62 6.24
18 -10 -8 84.19 6.43
8 18 10 77.87 6.07
18 -8 10 84.71 6.05
18 8 -10 93.11 6.56
-10 8 -18 78.46 5.95
8 18 10 92.96 6.08
10 -8 -18 83.32 6.28
18 -8 10 83.91 6.12
10 8 18 72.77 6.12
-10 -8 18 93.15 6.47
-8 -10 -18 95.04 6.04
18 10 8 79.56 5.99
-8 -18 10 86.84 6.13
-8 10 18 78.75 6.37
10 -18 8 80.34 5.87
8 -18 -10 88.05 5.9
10 18 -8 78.67 6.34
18 10 8 75.81 6.11
8 -10 18 77.77 6.27
-18 -10 8 85.54 6.17
8 18 -10 79.66 6.24
-18 10 8 82.62 6.12
10 -8 18 79.86 6.31
-18 -8 10 80.64 6.16
10 18 8 89.59 6.14
-8 10 -18 87.88 6.02
10 8 -18 89.46 6.43
8 -18 10 75.82 5.98
18 8 10 88.61 6.06
18 -10 8 79.38 6
8 10 18 86.71 6.29
8 -18 10 75.36 5.77
-8 -10 18 95.6 6.5
18 10 -8 88.23 6.49
-10 8 18 81.07 6.43
10 -18 -8 82.92 5.84
-10 -18 8 84.99 6.08
8 -10 -18 80.93 6.15
-8 18 10 82.48 6
18 -8 -10 80.56 6.42
18 8 10 84.6 6.13
18 -10 8 84.04 6.13
-10 -8 -18 74.41 5.93
10 18 8 84.47 6.04
18 -10 -10 53.91 4.86
10 18 -10 65.78 4.95
10 18 10 62.3 4.61
18 10 -10 66.6 5.07
18 10 10 62.43 4.68
-10 -10 18 64.31 4.92
-10 10 -18 65.56 4.51
-10 10 18 64.44 5.02
10 -18 -10 58.71 4.43
10 -10 -18 55 4.68
10 -10 18 63.04 4.8
10 10 -18 59.39 4.85
10 10 18 57.32 4.68
18 -10 10 56.79 4.59
-18 -10 10 64.05 4.71
18 10 10 58.22 4.53
-18 10 10 63.2 4.69
-10 -10 -18 57.76 4.45
10 18 10 56.93 4.57
18 -10 10 55.15 4.52
-10 -18 10 63.61 4.67
0 -12 18 16.03 1.89
18 0 12 18.85 1.6
-12 0 -18 15.85 1.47
12 18 0 17.4 1.46
-12 0 18 15.26 1.76
0 -18 12 15.44 1.61
0 18 -12 17.49 1.47
12 0 -18 17.87 1.83
12 0 18 17.88 1.68
18 -12 0 18.12 1.78
18 -12 0 17.47 1.45
0 12 -18 16.78 1.62
-18 0 12 16.53 1.71
18 0 12 13.28 1.48
0 12 18 12.97 1.71
-18 -12 0 15.44 1.5
18 12 0 16.41 1.74
0 -18 -12 15.11 1.38
12 18 0 16.37 1.75
0 -12 -18 15.04 1.49
2 -12 18 0.12 0.29
18 -12 -2 0.08 0.35
12 18 -2 -0.36 0.3
18 12 2 -0.13 0.12
-12 2 -18 0.27 0.2
-2 -12 -18 0.24 0.28
-12 -2 18 -0.08 0.24
2 12 -18 0 0.3
2 18 12 0.09 0.32
12 -2 -18 -0.03 0.4
18 -2 12 0.14 0.26
18 -2 12 -0.04 0.16
18 2 -12 -0.12 0.37
-2 12 18 0.23 0.43
12 2 18 -0.14 0.18
-18 2 12 0.28 0.33
-18 -12 2 0.15 0.23
-2 18 -12 0.33 0.19
18 12 2 0.04 0.23
2 -18 12 -0.07 0.21
12 18 2 0.47 0.35
-2 18 12 -0.35 0.23
-12 2 18 -0.21 0.33
-18 12 2 -0.19 0.18
12 2 -18 0.3 0.34
-2 12 -18 -0.33 0.18
18 2 12 0.25 0.32
-18 -2 12 0.33 0.3
2 12 18 -0.42 0.32
12 -2 18 -0.02 0.26
-12 -2 -18 -0.01 0.18
12 18 2 -0.33 0.18
18 -2 -12 0.27 0.4
18 12 -2 0 0.43
18 -12 2 -0.1 0.24
18 -12 2 0.25 0.21
-2 -12 18 -0.24 0.37
18 2 12 -0.01 0.19
2 -12 -18 0.55 0.35
2 18 -12 -0.24 0.18
-18 4 12 63.08 4.55
4 12 -18 55.8 4.41
-12 -4 18 53.61 4.58
-18 -12 4 53.14 4.29
18 -4 12 55.11 4.28
-4 -12 -18 62.4 4.28
4 -12 18 61.7 4.71
-12 4 -18 53.98 4.19
-4 12 18 55.23 4.62
18 12 4 61.78 4.25
-4 -18 12 63.1 4.43
4 18 12 54.44 4.37
18 4 -12 48.4 4.57
-4 18 -12 59.29 4.09
4 -18 -12 56.37 4.13
12 -4 -18 57.89 4.57
12 18 -4 50.89 4.52
4 18 12 60.15 4.24
18 12 4 57.45 4.45
12 4 18 58 4.43
18 -4 12 58.37 4.31
18 -12 -4 62.53 4.67
4 -18 12 54.98 4.36
-18 12 4 55.37 4.24
-12 -18 4 55.3 4.24
4 12 18 60.67 4.55
18 12 -4 63.75 4.72
12 -18 -4 55.29 3.9
-12 -4 -18 46.93 4.13
-12 4 18 55.04 4.59
18 -4 -12 60.46 4.71
12 -4 18 53.75 4.4
12 -18 -4 56.13 3.96
4 18 -12 70.14 5.14
18 4 12 53.59 4.27
18 4 12 53.43 4.26
-18 -4 12 54.21 4.45
4 -12 -18 61.12 4.34
12 4 -18 53.81 4.54
-4 18 12 57.64 4.46
-4 12 -18 54.82 4.25
18 -12 4 56.37 4.44
18 -12 4 59.94 4.22
12 18 4 55.89 4.21
-4 -12 18 58.03 4.67
12 18 4 47.21 4.32
6 -12 18 6.95 1.06
18 12 6 5.08 0.79
-12 6 -18 7.91 0.88
-6 12 18 9.23 1.29
-18 -12 6 6.48 0.88
-18 6 12 5.94 0.99
-6 -18 12 7.14 0.97
12 6 18 8.17 1.02
6 18 12 7.78 0.89
6 18 12 8.73 1.06
18 -12 -6 5.8 1.2
6 12 -18 6.45 1.06
-12 -6 18 7.96 1.12
-6 -12 -18 6.88 0.85
18 -6 12 7.9 0.92
6 -18 -12 5.97 0.76
18 6 -12 6.91 1.28
12 18 -6 5.38 1.13
18 12 6 8.31 1.04
12 -6 -18 6.54 1.08
-6 18 -12 6.98 0.7
18 -6 12 6.95 1.02
-18 -6 12 5.76 1.05
-6 -12 18 8.01 1.13
6 18 -12 6.64 0.98
12 6 -18 5.8 1.14
6 -12 -18 6.3 0.95
6 -18 12 7.6 1.03
12 -6 18 6.85 1
6 12 18 5.88 1.23
-6 12 -18 7.13 0.86
12 18 6 6.98 0.97
12 18 6 6.76 0.84
18 -12 6 6.45 0.82
18 12 -6 6.42 1.26
-12 6 18 7.71 1.13
-6 18 12 6.55 1
18 6 12 6.56 0.86
18 6 12 7.33 0.92
-12 -18 6 5.29 0.82
-12 -6 -18 4.97 0.78
18 -12 6 8.16 1.05
-18 12 6 5.43 0.82
18 -6 -12 6.18 1.26
-18 -12 8 11.44 1.33
-12 8 -18 12.55 1.23
18 -8 12 11.79 1.31
18 -12 -8 14.93 1.72
18 12 8 12.2 1.42
8 18 12 14.63 1.37
-8 12 18 11.77 1.58
-12 -8 18 10.91 1.49
18 12 8 13.97 1.32
-8 -18 12 12.66 1.43
-18 8 12 10.87 1.41
18 -8 12 12.03 1.33
12 8 18 14.18 1.49
8 -12 18 12.27 1.5
8 12 -18 11.72 1.46
8 18 12 13.11 1.41
12 18 -8 12.8 1.64
8 -18 -12 13.36 1.26
-8 -12 -18 12.68 1.27
18 8 -12 11.74 1.68
12 -8 -18 13.59 1.6
12 -8 18 12.54 1.49
-12 -8 -18 14.27 1.29
12 18 8 11.79 1.37
-12 -18 8 12.18 1.32
-8 -12 18 12 1.55
-18 -8 12 12.89 1.47
8 18 -12 13.45 1.53
-12 8 18 12.69 1.59
8 -12 -18 12.66 1.39
-8 18 12 14.01 1.43
18 8 12 12.59 1.31
8 12 18 11.34 1.46
12 8 -18 11.95 1.54
18 -12 8 14.6 1.47
18 -12 8 14.63 1.35
18 12 -8 13.37 1.64
-18 12 8 11.73 1.33
18 -8 -12 14.61 1.79
-8 12 -18 11.85 1.25
12 18 8 12.76 1.32
18 8 12 11.71 1.35
18 10 -12 2.97 0.87
10 18 12 2.14 0.59
12 -10 -18 1.75 0.59
-10 12 18 1.11 0.52
12 18 -10 1.62 0.73
12 10 18 1.89 0.57
10 12 -18 3.05 0.77
-10 -12 -18 2.46 0.53
10 18 12 1.34 0.48
-12 -10 18 2.42 0.71
-10 -18 12 1.5 0.51
18 -12 -10 2.76 0.84
10 -12 18 1.18 0.64
-12 10 -18 1.82 0.46
18 12 10 1.36 0.54
18 12 10 1.69 0.46
18 -10 12 2.32 0.61
-18 -12 10 2.19 0.59
18 -10 12 2.73 0.61
-18 10 12 1.9 0.56
-18 -10 12 2.02 0.63
18 12 -10 2.93 0.92
-10 12 -18 1.95 0.48
18 -12 10 1.7 0.6
18 10 12 1.72 0.57
-10 -12 18 1.75 0.6
-18 12 10 1.47 0.49
-12 10 18 2.17 0.68
12 18 10 1.69 0.51
10 12 18 1.54 0.6
12 10 -18 2.59 0.83
12 18 10 1.71 0.5
-12 -18 10 1.83 0.5
12 -10 18 2.01 0.64
10 -12 -18 1.43 0.58
18 -12 10 3.51 1
10 18 -12 1.38 0.67
18 -10 -12 2.1 0.8
18 10 12 1.68 0.52
-18 -12 12 6.18 0.88
-18 12 12 3.98 0.89
18 12 -12 5.82 1.2
12 -12 18 5.55 1.08
18 -12 12 5.21 0.85
18 -12 12 5.49 0.86
12 12 18 3.88 0.86
18 12 12 6.93 0.97
12 18 12 5.45 0.89
-12 12 18 3.94 0.95
12 12 -18 6.09 1.2
12 12 18 5.24 0.76
18 12 12 6.49 0.83
-12 -18 12 5.74 1.22
-12 -12 18 5.56 1.09
-12 12 -18 4.96 0.73
18 -12 -12 5.82 1.17
12 -12 -18 6.08 1.09
12 18 12 3.6 0.81
0 18 -14 13.71 1.28
0 -14 -18 13.03 1.31
18 0 14 14.99 1.4
18 0 14 12.31 1.31
0 14 18 14.27 1.64
14 18 0 11.53 1.49
-14 0 -18 11.31 1.23
-14 0 18 13.44 1.61
0 -14 18 11.28 1.6
0 14 -18 11.81 1.33
0 -18 14 12.6 1.46
-18 0 14 12.95 1.46
0 -18 -14 11.37 1.2
18 14 0 13.63 1.56
0 18 14 13.17 1.54
14 0 -18 12.88 1.58
14 0 18 12.59 1.39
18 -14 0 14.77 1.61
18 -14 0 13.23 1.22
14 18 0 12.43 1.22
18 0 -14 12.28 1.88
14 -2 -18 1.63 0.72
18 2 -14 1.69 0.7
-2 18 -14 0.89 0.3
14 18 -2 1.91 0.63
-2 -18 14 0.71 0.45
18 -14 -2 0.64 0.29
-2 -14 -18 1.02 0.39
2 -14 18 1.38 0.65
-18 -14 2 0.66 0.34
-18 2 14 0.36 0.4
18 14 2 -0.03 0.24
2 -18 -14 0.76 0.35
-14 2 -18 1.16 0.39
14 2 18 0.96 0.4
2 18 14 1.87 0.58
18 -14 -2 0.02 0.46
-2 14 18 0.77 0.46
-14 -2 18 0.61 0.46
18 -2 14 0.52 0.36
18 -2 14 0.09 0.3
2 14 -18 1.01 0.45
18 14 2 0.97 0.48
18 14 -2 0.85 0.56
-14 2 18 0.43 0.38
18 2 14 1.2 0.41
2 14 18 1.3 0.54
2 -18 14 0.74 0.41
-18 -2 14 0.72 0.47
14 2 -18 0.88 0.48
2 -14 -18 0.27 0.29
-2 -14 18 1.61 0.64
18 -14 2 0.82 0.46
-2 14 -18 0.63 0.32
-2 18 14 0.96 0.48
18 -14 2 0.7 0.3
-2 -18 -14 1.17 0.35
14 18 2 1.5 0.53
14 18 2 0.57 0.3
18 -2 -14 -0.6 0.45
2 18 -14 0.8 0.37
18 2 14 0.68 0.39
14 -2 18 0.6 0.36
18 14 4 21.59 2.09
-4 -18 14 22.69 2.13
14 4 18 21.89 2.06
18 14 4 23.38 2.19
-14 4 -18 20.78 1.88
-4 14 18 21.47 2.27
14 18 -4 22.57 2.32
-18 4 14 20.96 2.11
14 -4 -18 19.94 2.23
-4 18 -14 22.66 1.83
18 -4 14 24.02 2.04
4 -18 -14 24.48 1.92
4 14 -18 22.18 2.09
-14 -4 18 24.2 2.28
4 -14 18 21.67 2.29
18 -4 14 20.67 1.95
18 -14 -4 21.83 2.24
-4 -14 -18 20.27 1.88
-18 -14 4 21.41 1.96
18 4 -14 20.31 2.35
-4 -14 18 23.58 2.36
14 -4 18 18.22 2.01
-14 4 18 23.44 2.28
4 -14 -18 20.8 1.95
14 4 -18 23.23 2.35
4 -18 14 23.27 2.18
14 18 4 20.98 1.88
18 -4 -14 25.48 2.46
18 -14 4 22.69 1.87
4 14 18 23.53 2.25
4 18 -14 20.33 2
-4 14 -18 22.14 1.93
-18 -4 14 21.47 2.13
-4 18 14 22.09 2.19
-18 14 4 22.96 1.92
18 4 14 21.11 1.96
-14 -18 4 22.84 1.97
18 -14 4 22.47 2.13
14 18 4 20.13 2.09
18 4 14 21.24 1.97
14 6 18 0.75 0.43
18 -6 14 1.29 0.43
-6 -18 14 0.65 0.43
18 14 6 0.05 0.5
-18 -14 6 1.18 0.46
6 18 14 1.23 0.39
14 -6 -18 0.99 0.65
6 14 -18 0.47 0.44
-14 6 -18 1.05 0.36
-18 6 14 1.13 0.52
18 -6 14 0.84 0.39
14 6 18 0.33 0.27
-6 14 18 0.45 0.48
6 -14 18 0.5 0.45
6 -18 -14 1.38 0.41
18 -14 -6 0.38 0.54
18 6 -14 0.49 0.67
-6 -14 -18 0.95 0.33
14 18 -6 1.73 0.75
14 18 6 0.3 0.37
6 18 -14 1.55 0.54
14 -6 18 1.44 0.56
18 -14 6 1.16 0.47
6 14 18 1.4 0.53
-18 14 6 1.2 0.42
-18 -6 14 1.21 0.49
18 14 -6 1.2 0.54
-14 -18 6 1.29 0.41
14 6 -18 1.14 0.57
-6 -14 18 1.04 0.48
-6 14 -18 1.32 0.42
14 18 6 0.55 0.3
6 -14 -18 1.12 0.45
18 6 14 0.62 0.33
18 -14 6 0.67 0.28
18 6 14 1.69 0.49
-6 18 14 1.66 0.53
-14 6 18 0.64 0.41
18 -6 -14 2.12 0.8
18 14 8 11.61 1.65
18 -14 -8 10.87 1.61
8 18 14 15.26 1.45
8 18 14 13.52 1.87
14 -8 -18 14.02 1.64
18 -8 14 14.84 1.49
-8 -14 -18 12.44 1.29
14 8 18 16.03 1.57
8 14 -18 11.37 1.55
-18 -14 8 13.78 1.43
-18 8 14 14.11 1.54
-8 14 18 11.59 1.63
18 -8 14 15.83 1.47
18 14 8 13.4 1.37
18 8 -14 12.68 1.81
-14 -8 18 16.02 1.67
14 18 -8 12.22 1.71
-8 -18 14 15.71 1.58
8 -14 18 11.42 1.61
14 8 18 15.26 1.43
-18 -8 14 15.57 1.64
-8 -14 18 15.27 1.68
-8 14 -18 14.85 1.37
18 -14 8 13.44 1.41
18 -8 -14 10.7 1.62
14 18 8 12.29 1.48
-14 -18 8 13.82 1.42
-18 14 8 14.04 1.42
18 14 -8 15.14 1.87
8 -14 -18 12.04 1.45
18 -14 8 14.9 1.54
-14 8 18 16.13 1.74
14 18 8 12.57 1.38
8 18 -14 13.93 1.61
14 -8 18 12.18 1.53
18 8 14 13.5 1.42
18 8 14 15.35 1.46
14 8 -18 13.63 1.75
8 14 18 14.12 1.63
18 -10 14 2.28 0.66
14 10 18 3.46 0.68
-10 -18 14 2.25 0.65
18 -14 -10 2.25 0.77
14 10 18 2.2 0.65
-18 10 14 1.37 0.56
14 -10 -18 2.45 0.81
10 -14 18 1.78 0.69
18 14 10 2 0.6
18 14 10 4.14 0.74
14 18 -10 2.3 0.86
-10 14 18 2.53 0.78
18 10 -14 2.73 0.89
-18 -14 10 3.14 0.72
-14 -10 18 3.37 0.81
10 14 -18 2.18 0.78
18 -10 14 2.74 0.64
10 18 14 2.03 0.57
10 18 -14 2.02 0.75
14 10 -18 2.29 0.79
-18 -10 14 2.72 0.7
-10 -14 18 2.76 0.79
-14 10 18 1.62 0.64
18 10 14 2.68 0.66
18 14 -10 3.6 1.01
-18 14 10 2.81 0.7
10 14 18 2.34 0.72
-14 -18 10 1.59 0.55
-10 14 -18 2.41 0.54
18 -14 10 3.36 0.69
14 -10 18 3.72 0.57
14 -10 18 1.98 0.66
18 -10 -14 3.49 0.87
18 10 14 3.01 0.64
14 18 10 2.52 0.65
14 18 10 1.44 0.57
18 -12 14 11.15 1.34
14 12 18 11.61 1.27
-12 14 18 9.75 1.42
-18 12 14 11.42 1.38
12 14 -18 13.73 1.59
-12 -18 14 9.26 1.3
18 12 -14 13.68 1.69
18 -12 14 12.1 1.32
14 12 18 11.45 1.37
-14 -12 18 8.91 1.28
12 18 14 10.93 1.32
18 14 12 8.61 1.17
12 -14 18 8.99 1.96
18 14 12 8.42 1.25
-18 -14 12 10.26 1.3
14 -12 -18 11.03 1.43
14 18 -12 9.64 1.62
12 14 18 11.92 1.4
12 -14 -18 11.34 1.4
14 -12 18 10.95 1.19
14 18 12 10.02 1.36
18 12 14 12.14 1.32
12 14 18 9.53 1.16
14 18 12 13.42 1.38
12 18 -14 9.38 1.49
-18 -12 14 9.02 1.23
14 -12 18 10.84 1.42
-14 -18 12 8.65 1.19
-12 -14 18 12.55 1.43
18 14 -12 10.29 1.76
18 12 14 9.95 1.18
18 -12 -14 11.62 1.52
14 12 -18 11.09 1.62
14 14 18 1.53 0.55
14 14 -18 1.05 0.69
14 -14 -18 1.19 0.61
14 18 14 0.33 0.52
14 18 -14 0.14 0.68
18 14 -14 0.18 0.72
18 14 14 1.14 0.53
14 18 14 1.96 0.62
-14 -14 18 2.56 0.7
16 0 18 61.72 5.11
0 -18 16 77.37 5.55
0 -18 -16 64.83 5.06
16 18 0 76.24 5.13
18 0 -16 68.15 5.58
18 0 16 73.03 5.22
18 0 16 69.69 5.23
18 16 0 65.66 5.07
16 18 0 76.65 5.57
0 16 -18 69.93 5.2
16 0 18 64.76 5.26
16 0 -18 69.85 5.53
0 18 16 64.68 5.51
18 16 0 72.94 5.53
-18 0 16 72.45 5.45
0 -16 -18 63.53 5.09
0 -16 18 72.83 5.61
0 18 -16 69.93 5.16
0 16 18 71.62 5.58
-18 -16 2 44.95 3.32
18 2 -16 38.46 3.72
2 -16 18 36.81 3.58
16 18 -2 40.45 3.64
-2 -16 -18 38.03 3.22
-18 2 16 39.6 3.49
18 -2 16 44.33 3.42
18 -2 16 39.86 3.3
2 -18 -16 44.45 3.27
-16 -2 18 46.93 3.66
16 2 18 36.55 3.25
2 18 16 41.16 3.58
18 16 2 41.46 3.52
18 16 2 47.4 3.29
16 -2 -18 47.97 3.73
-2 -18 16 45.14 3.64
16 2 18 46.28 3.48
-18 -2 16 40.28 3.5
16 -2 18 41.2 3.42
18 2 16 44.33 3.35
18 2 16 37.91 3.32
16 2 -18 33.13 3.49
16 18 2 44.14 3.26
16 -2 18 41.28 3.29
-2 16 -18 41.93 3.3
2 16 18 43.53 3.65
2 -18 16 48.97 3.92
2 18 -16 40.49 3.33
18 16 -2 40.51 3.59
-16 2 18 39.18 3.54
-2 -18 -16 39.69 3.2
16 18 2 36.99 3.51
18 -2 -16 42.86 3.71
2 -16 -18 41.25 3.28
-2 18 16 39.49 3.6
4 18 16 2.71 0.74
4 16 -18 2.84 0.68
16 18 -4 0.75 0.61
18 -4 16 1.7 0.52
4 -18 -16 2.38 0.55
16 4 18 0.93 0.46
-4 -18 16 3.46 0.79
-18 -16 4 1.61 0.48
18 -4 16 1.85 0.53
-4 -16 -18 1.38 0.42
18 16 4 2.04 0.51
18 16 4 2.15 0.62
16 4 18 2.61 0.63
-4 16 18 1.88 0.75
-16 -4 18 2.42 0.7
-18 4 16 2.38 0.67
18 4 -16 2.63 0.85
16 -4 -18 2.42 0.77
4 -16 18 1.13 0.66
4 -16 -18 2.04 0.55
18 4 16 1.78 0.51
-18 -4 16 1.64 0.55
16 -4 18 2.89 0.6
-4 -18 -16 2.56 0.52
-16 4 18 2.94 0.75
-16 -18 4 1.36 0.44
18 4 16 1.47 0.48
18 16 -4 2.72 0.87
16 4 -18 2.24 0.84
-4 18 16 0.52 0.45
4 16 18 1.28 0.6
4 18 -16 2.16 0.61
16 18 4 2.1 0.69
16 -4 18 1.37 0.51
-4 16 -18 2.03 0.5
16 18 4 1.91 0.5
18 -4 -16 0.65 0.72
-4 -16 18 2.65 0.73
-18 -16 6 3.94 0.77
-16 -6 18 3.79 0.84
6 18 16 3.54 0.83
16 6 18 3.15 0.73
6 -16 18 2.64 0.84
6 16 -18 4.16 0.9
18 16 6 3.71 0.82
16 18 -6 3.52 1.05
-18 6 16 3.45 0.83
18 6 -16 4.46 1.1
18 -6 16 3.03 0.67
18 -6 16 2.8 0.7
-6 -16 -18 3.62 0.57
-6 -18 16 3.29 0.81
-6 16 18 3.25 0.89
18 16 6 3.36 0.66
16 6 18 4 0.83
16 -6 -18 3.85 1
6 18 16 2.82 0.63
-6 -16 18 3.61 0.86
6 18 -16 3.67 0.83
16 -6 18 3.3 0.67
18 6 16 2.96 0.69
16 6 -18 3.73 1.08
6 -16 -18 4.9 0.84
-6 16 -18 3.02 0.63
18 16 -6 4.31 1.02
6 16 18 3.71 0.86
-16 6 18 3.24 1.04
18 6 16 3.64 0.74
-16 -18 6 4.39 0.7
16 18 6 4.1 0.88
16 18 6 2.57 0.61
16 -6 18 2.93 0.72
-18 -6 16 3.45 0.81
-18 -16 8 70.49 5.36
16 8 18 72.86 5.35
-18 8 16 67.98 5.54
-16 -8 18 68.15 5.55
18 16 8 85.81 5.66
8 16 -18 77.17 5.65
18 16 8 65.55 5.28
16 8 18 59.95 5.36
-8 -18 16 77.85 5.64
18 -8 16 70.29 5.46
8 18 16 63.21 5.29
8 18 16 67.24 5.55
16 -8 -18 67.09 5.6
-8 16 18 79.55 5.88
16 18 -8 65.41 5.77
18 8 -16 71.75 5.84
18 -8 16 68.43 5.37
8 -16 -18 72.32 5.4
18 16 -8 75.3 5.87
16 18 8 71.89 5.34
18 -8 -16 77.94 5.79
16 18 8 60.42 5.42
8 18 -16 78.25 5.66
16 8 -18 67.71 5.65
18 8 16 81.41 5.44
18 8 16 76.9 5.43
-16 8 18 65.59 5.56
-18 -8 16 79.17 5.62
16 -8 18 72.15 5.36
8 16 18 75.92 5.64
16 -8 18 66.78 5.46
-8 -16 18 74.89 5.71
-16 -18 8 75.72 5.4
16 18 -10 42.8 4.45
-10 -18 16 40.35 3.43
10 18 16 34.53 3.19
18 10 -16 39.95 3.68
10 16 -18 38.29 3.49
18 16 10 48.43 3.48
10 18 16 42.03 3.46
16 -10 -18 36.94 3.43
-18 -16 10 39.76 3.29
-18 10 16 39.96 3.42
18 16 10 35.8 3.2
18 -10 16 40.15 3.3
16 10 18 44.81 3.3
16 18 10 35.77 3.21
16 18 10 43.73 3.42
-16 10 18 42.07 3.52
10 16 18 33.92 3.15
10 18 -16 37.51 3.44
-10 -16 18 42.34 3.51
18 -10 -16 43.29 3.62
16 10 -18 33.27 3.52
16 -10 18 42.31 3.28
16 -10 18 39.56 3.45
18 10 16 42.95 3.26
10 16 18 39.96 3.46
18 16 -10 46.26 3.81
-18 12 16 0.33 0.38
18 16 12 0.4 0.49
-18 -16 12 1.27 0.47
16 18 -12 -0.83 0.32
12 18 16 0.84 0.42
16 -12 -18 1 0.57
12 18 16 0.39 0.34
12 18 -16 0.18 0.63
16 -12 18 1.48 0.5
18 16 -12 0.19 0.66
-16 -18 12 1.04 0.36
18 -12 -16 -0.12 0.5
12 16 18 0.24 0.4
12 16 18 1.46 0.55
-16 12 18 1.13 0.5
16 18 12 0.06 0.5
16 18 12 1.37 0.47
-12 -16 18 1.69 0.59
-18 0 18 64.47 5.07
18 0 18 68.58 4.92
18 18 0 69.94 5.22
18 18 0 58.06 4.65
18 0 -18 70.02 5.2
18 0 18 60.54 4.75
0 -18 -18 59.63 4.68
0 18 18 56.16 5.12
18 -2 18 30.22 2.56
-18 2 18 30.72 2.78
18 18 2 28.59 2.48
18 -2 -18 33.32 3.04
18 18 -2 29.81 2.94
18 18 2 35.64 2.97
18 -2 18 28.96 2.66
18 2 -18 28.92 2.87
18 2 18 29.42 2.57
2 18 18 34.47 3
-2 -18 -18 27.63 2.47
-4 -18 -18 1.25 0.4
-18 -18 4 0.8 0.41
-18 4 18 1.15 0.51
18 18 4 0.62 0.34
18 18 4 1.61 0.63
18 4 18 0.79 0.37
18 18 -4 -0.39 0.48
18 -4 18 0.65 0.38
4 18 18 0.84 0.56
18 -4 -18 1.15 0.61
18 -4 18 0.5 0.42
18 4 -18 0.05 0.68
18 18 6 1.18 0.57
18 -6 18 1.62 0.56
18 18 -6 1.29 0.77
18 -6 18 2.21 0.57
18 -6 -18 0.75 0.78
-18 -18 6 1.74 0.55
-18 6 18 1.25 0.6
6 18 18 1.36 0.64
18 18 6 1.59 0.49
8 18 18 40.6 3.42
18 -8 -18 41.94 3.74
18 -8 18 47.15 3.52
18 -8 18 42.96 3.59
18 18 -8 40.19 4.16
18 18 8 42.89 3.44
-18 8 18 46.82 3.75
8 18 18 37.85 3.6
18 -10 18 27.98 2.98
18 -10 18 20.97 2.06
18 -10 -18 25.15 2.46
10 18 18 22.59 2.3
-18 -18 10 20.28 2.04
-18 10 18 17.98 2.23
10 18 18 24.37 2.12
18 18 10 20.74 2.02
18 18 -10 21.36 2.55
18 18 10 24.78 2.75
-19 1 1 118.74 8.3
1 1 19 121.8 8.63
19 -1 -1 124.56 8.56
19 -1 1 122.08 8.49
19 1 -1 109.43 8.47
19 1 1 108.25 8.43
-19 -1 -1 126.11 8.32
-19 -1 1 108.29 8.27
-19 1 -1 104.17 8.23
-1 1 -19 138.04 8.43
-1 1 19 121.58 8.68
1 -1 -19 113.15 8.35
1 -1 19 117.77 8.58
-1 -1 -19 108.1 8.29
-1 -1 19 117.87 8.67
1 1 -19 117.88 8.4
-19 3 -1 3.15 0.59
-1 -3 -19 3.31 0.63
19 -1 3 3.64 0.74
19 1 -3 3.76 0.8
19 3 1 4.4 0.81
3 19 -1 3.52 0.35
3 -1 -19 3.52 0.69
1 -3 19 3.72 0.86
-1 3 19 3.49 0.82
3 1 19 3.14 0.73
19 -3 -1 4.06 0.87
-19 1 3 2.44 0.6
3 19 -1 3.43 0.42
-3 -1 19 2.96 0.8
1 3 -19 4.09 0.74
-19 -3 1 2.94 0.61
-3 1 -19 2.48 0.58
19 -1 3 3.31 0.51
19 -3 1 3.39 0.77
-1 3 -19 1.43 0.59
3 -1 19 2.27 0.65
-19 -1 3 3.85 0.59
3 1 -19 3.12 0.67
1 -3 -19 3.38 0.74
-1 -3 19 4.19 0.93
-19 -3 -1 3.97 0.59
19 3 -1 3.38 0.75
-19 3 1 4.39 0.61
3 19 1 3.37 0.45
3 19 1 3.39 0.38
-3 1 19 3.32 0.94
19 -1 -3 3.2 0.8
19 1 3 2.26 0.51
1 3 19 2.3 0.7
19 1 3 2.9 0.68
-3 -1 -19 2.24 0.57
3 3 19 82 6.45
-3 -3 -19 95.29 6.25
-3 -3 19 80.28 6.53
-19 -3 3 84.72 6.2
-19 3 3 82.51 6.18
3 -3 19 83.2 6.46
3 3 -19 82.18 6.3
3 -3 -19 87.21 6.31
19 -3 3 85.98 6.11
3 19 -3 78.92 5.94
3 19 -3 85.02 5.86
3 19 3 85.17 6.01
3 19 3 83.35 5.95
19 -3 -3 95.69 6.55
19 -3 3 87.97 6.35
-3 3 -19 94.88 6.27
-3 3 19 83.66 6.57
19 3 3 79.98 6.1
19 3 3 89.05 6.39
19 3 -3 92.85 6.53
5 19 -1 2.72 0.35
1 19 5 1.52 0.32
19 -1 5 2.1 0.47
-5 1 -19 2.1 0.51
19 -5 -1 1.94 0.62
19 1 -5 1.31 0.58
-1 -5 -19 2.04 0.49
19 5 1 2.07 0.63
1 5 -19 1.8 0.5
5 19 -1 1.99 0.47
5 -1 -19 2.3 0.59
19 -1 5 1.36 0.48
-5 -1 19 1.87 0.66
-1 5 19 1.45 0.57
5 1 19 2.82 0.71
-19 -5 1 1.55 0.42
-19 5 -1 1.91 0.45
1 -5 19 1.51 0.56
-19 1 5 2.17 0.53
-5 -1 -19 1.58 0.47
-19 -5 -1 1.74 0.44
5 19 1 1.56 0.44
-1 5 -19 1.92 0.52
-19 -1 5 2.23 0.52
5 -1 19 1.71 0.54
5 1 -19 2.08 0.66
19 5 -1 1.86 0.64
-5 1 19 0.93 0.56
19 -5 1 1.85 0.55
19 1 5 2.87 0.67
19 -1 -5 2.06 0.66
1 -5 -19 1.87 0.53
-19 5 1 2.13 0.46
-1 -5 19 2.71 0.78
19 1 5 1.51 0.39
1 5 19 0.69 0.45
3 5 -19 65.8 4.67
-19 3 5 58.06 4.52
5 19 -3 63.28 4.49
19 -3 5 63.62 4.44
19 3 -5 56.89 4.77
19 5 3 61.68 4.67
5 3 19 67.74 4.78
3 19 5 58.4 4.32
-5 3 -19 65.56 4.52
3 -5 19 56.33 4.74
-3 -19 5 58.36 4.2
19 -5 -3 54.15 4.68
-3 -5 -19 66.45 4.53
-5 -3 19 56.79 4.84
3 19 5 62.27 4.36
5 -3 -19 68.09 4.68
19 5 3 59.37 4.41
-3 5 19 57.85 4.81
19 -3 5 61.4 4.63
-19 -5 3 58.92 4.49
3 -5 -19 59.16 4.58
19 3 5 55.17 4.58
3 5 19 60.36 4.81
-19 5 3 61.65 4.49
-5 -3 -19 58.16 4.45
5 19 3 60.27 4.44
19 -3 -5 61.93 4.86
-5 3 19 57.72 5.12
5 -3 19 60.67 4.77
19 -5 3 56.19 4.38
-3 5 -19 58.53 4.5
-19 -3 5 57.89 4.54
-3 -5 19 61.55 4.87
3 19 -5 60.18 4.3
5 3 -19 54.44 4.63
19 -5 3 63.89 4.66
19 3 5 57.7 4.41
19 5 -3 59.2 4.75
5 19 -5 48.29 3.59
5 19 5 44.95 3.52
5 19 5 50.86 3.51
-19 5 5 46.63 3.62
-5 -19 5 49.69 3.42
-5 -5 19 44 3.93
-5 5 -19 48.82 3.6
-5 5 19 45.5 3.95
19 -5 -5 44.66 3.91
19 -5 5 45.6 3.69
5 5 19 50.66 3.86
19 5 -5 42.12 3.85
19 5 5 42.21 3.67
19 5 5 38.87 3.46
5 -5 -19 45.76 3.68
19 -5 5 53.76 3.58
5 -5 19 52.6 3.93
-19 -5 5 42.73 3.6
5 5 -19 48.37 3.79
19 -1 7 32.52 2.77
19 1 -7 38.66 3.13
-7 -1 19 38.93 3.14
19 7 1 34.93 2.91
-19 -7 1 33.1 2.68
19 -7 -1 29.25 2.81
7 19 -1 33.93 2.49
-19 1 7 34.36 2.78
-1 -7 -19 31.2 2.66
7 1 19 28.97 2.8
-1 7 19 31.19 2.93
7 19 -1 32.25 2.76
1 -7 19 32.38 2.98
1 7 -19 35.5 2.8
7 -1 -19 35.2 2.9
19 -1 7 32.4 2.62
-7 1 -19 30.36 2.62
-19 -1 7 34.62 2.79
7 19 1 32.02 2.71
1 7 19 32.18 2.92
-1 -7 19 36.91 3.09
19 1 7 31.49 2.75
-1 19 7 34.56 2.54
-19 7 1 33.26 2.66
-7 -1 -19 29.39 2.61
-1 7 -19 33.74 2.75
-7 1 19 32.89 3.04
-1 19 7 33.17 2.4
1 19 -7 33.49 2.39
-19 -7 -1 32.7 2.66
7 -1 19 35.33 2.93
7 1 -19 38.61 2.96
7 19 1 34.53 2.52
19 -1 -7 30.09 2.98
19 -7 1 37.22 2.98
19 7 -1 36.6 2.96
19 1 7 30.36 2.6
1 -7 -19 27.75 2.63
7 3 19 11.54 1.41
3 -7 19 12.57 1.56
19 -7 -3 14.38 1.6
-3 -19 7 12.1 1.1
3 7 -19 11.17 1.39
7 19 -3 9.73 1.33
-7 3 -19 11.7 1.24
-19 -7 3 15.22 1.38
19 3 -7 15.54 1.75
19 -3 7 15.08 1.31
-3 7 19 14.64 1.63
7 -3 -19 13.48 1.48
19 7 3 13.77 1.45
19 7 3 14.35 1.27
-7 -3 19 13.16 1.64
-19 3 7 12.54 1.34
-3 -7 -19 12.2 1.3
3 19 7 11.84 1.16
3 19 7 13.01 1.27
19 -3 7 14.95 1.43
19 7 -3 12.8 1.51
3 7 19 12.87 1.54
7 3 -19 12.65 1.47
-7 -3 -19 9.8 1.19
-19 -3 7 14.16 1.41
-7 3 19 14.24 1.64
-3 -7 19 12.56 1.65
-3 19 7 12.21 1.01
7 19 3 13.07 1.18
19 -3 -7 12.84 1.57
7 -3 19 12.34 1.46
-19 7 3 12.2 1.29
19 3 7 14.43 1.44
-3 19 7 12.96 0.97
-3 7 -19 14.23 1.36
19 3 7 13.91 1.28
3 -7 -19 12.34 1.34
7 19 3 12.72 1.29
7 -5 -19 4.55 0.84
-19 -7 5 4.79 0.72
-7 5 -19 3.88 0.6
5 -7 19 3.58 0.85
-19 5 7 2.26 0.63
-7 -5 19 3.02 0.87
19 7 5 3.48 0.74
7 5 19 4.48 0.84
19 -7 -5 3.41 1.03
-5 -7 -19 2.83 0.59
5 19 7 3.6 0.59
19 -5 7 3.66 0.71
-5 7 19 3.4 0.83
5 7 -19 4.74 0.87
19 -5 7 3.4 0.55
7 19 -5 4.06 0.79
5 19 7 4.7 0.64
19 7 5 3.82 0.61
-5 -19 7 4.02 0.56
19 5 -7 4.65 1.05
-19 7 5 3.25 0.65
-19 -5 7 4.75 0.76
5 19 -7 3.33 0.66
-7 -19 5 3.83 0.55
19 -7 5 3.34 0.73
-5 -7 19 4.04 0.92
-5 7 -19 3.91 0.62
7 19 5 2.71 0.61
19 7 -5 3.22 0.84
7 5 -19 3.83 0.87
7 19 5 4.31 0.58
5 7 19 3.27 0.78
-7 -5 -19 3.53 0.65
19 5 7 3.6 0.71
19 5 7 4.44 0.62
7 -5 19 4.61 0.94
-7 5 19 2.97 0.86
19 -5 -7 5.47 1.03
19 -7 5 3 0.59
5 -7 -19 4.24 0.8
-7 -7 19 19.11 2.08
7 -7 19 16.07 1.91
7 7 -19 18.2 1.94
7 7 19 17.61 1.89
19 7 -7 16.84 1.99
7 19 7 20.3 1.74
7 19 7 22.12 1.76
19 -7 7 16.81 1.77
19 7 7 17.52 1.78
19 7 7 20.79 1.73
-7 7 19 15.88 1.93
7 -7 -19 18.23 1.81
-19 -7 7 18.25 1.77
-7 7 -19 17.77 1.68
-7 -19 7 18.04 1.63
7 19 -7 19.57 1.88
-7 -7 -19 21.74 1.75
-19 7 7 20.53 1.82
19 -7 7 19.68 1.7
19 -9 -1 36.54 3.33
19 9 1 38.31 3.33
-1 9 19 38.08 3.43
9 -1 -19 37.03 3.3
-1 19 -9 40.83 2.85
9 19 -1 37 2.96
-1 -9 -19 42.65 3.17
19 -1 9 41.25 3.23
19 1 -9 31.4 3.35
1 19 9 40.75 3.16
19 -1 9 35.08 3.06
-9 -1 19 43.68 3.6
-19 1 9 39 3.25
1 9 -19 42.29 3.27
1 -9 19 41.2 3.53
9 19 -1 42.27 3.37
-19 -9 1 44.74 3.19
9 1 19 42.68 3.36
1 19 9 42.27 2.99
-1 -19 9 41.72 3.01
19 9 -1 44.15 3.46
-1 9 -19 37.45 3.15
-1 -9 19 39.21 3.47
1 -9 -19 42.86 3.18
19 -1 -9 38.71 3.51
-1 19 9 39.97 2.93
1 -19 9 40.09 2.93
1 19 -9 39.76 2.95
19 -9 1 41.73 3.06
19 1 9 38.02 3.19
19 1 9 41.23 3.12
-9 1 19 38.84 3.51
9 -1 19 38.3 3.32
9 1 -19 35.5 3.28
-19 -1 9 39.81 3.26
1 9 19 34.81 3.35
-19 9 1 42.52 3.13
-9 -1 -19 36.43 3.07
19 -9 1 37.07 3.31
9 19 1 40.06 3.01
9 19 1 42.76 3.29
-19 -9 -1 38.25 3.09
-3 -19 9 1.4 0.39
9 -3 -19 1.74 0.56
3 19 9 1.44 0.56
3 9 -19 1.42 0.48
19 9 3 1.31 0.37
-3 9 19 1.91 0.69
9 19 -3 2.27 0.64
-19 3 9 1.79 0.57
9 3 19 0.59 0.39
19 9 3 1.54 0.53
19 -3 9 1.8 0.51
19 -3 9 2.14 0.5
19 -9 -3 2.59 0.71
-19 -9 3 1.05 0.39
19 3 -9 2.03 0.72
3 -9 19 1.69 0.66
-9 -3 19 1.59 0.57
-9 3 -19 2.02 0.49
-3 -9 -19 1.66 0.44
3 -9 -19 1.95 0.51
9 19 3 0.84 0.41
-19 9 3 1.16 0.38
3 19 -9 1.62 0.42
19 3 9 1.49 0.5
19 3 9 1.84 0.46
9 19 3 1.3 0.38
19 9 -3 2.16 0.63
3 9 19 1.71 0.63
-9 -3 -19 1.75 0.43
-3 9 -19 2.2 0.55
9 3 -19 1.48 0.54
-3 -9 19 1.75 0.63
19 -3 -9 0.87 0.55
9 -3 19 1.29 0.49
19 -9 3 0.89 0.33
-9 3 19 1.34 0.58
-19 -3 9 2.01 0.59
-3 19 9 2.57 0.52
3 -19 9 1.95 0.3
19 -9 3 1.71 0.56
19 -5 9 3.68 0.74
19 9 5 4.28 0.63
-5 9 19 3.55 0.89
5 19 9 3.52 0.79
19 9 5 3.41 0.75
-5 -9 -19 2.14 0.51
5 -9 19 3.92 0.9
9 5 19 3.68 0.82
19 -9 -5 2.81 0.79
-9 5 -19 3.6 0.64
5 9 -19 2.65 0.76
-19 -9 5 3.01 0.61
-19 5 9 2.28 0.6
19 -5 9 3.82 0.59
-9 -5 19 3.42 0.84
5 19 9 3.08 0.5
19 5 -9 3.94 0.96
9 -5 -19 2.53 0.68
9 19 -5 2.81 0.79
5 -19 -9 3.22 0.39
19 -9 5 2.57 0.54
-5 -9 19 2.82 0.78
9 19 5 3.34 0.71
9 5 -19 2.55 0.86
19 -9 5 2.61 0.67
-19 -5 9 4.06 0.77
-5 19 9 3.45 0.53
-9 -19 5 2.85 0.55
5 9 19 2.82 0.75
5 -19 9 3.09 0.3
5 -19 9 3.17 0.33
5 19 -9 3.66 0.7
9 19 5 2.61 0.54
5 -9 -19 3.42 0.73
-9 5 19 3.07 0.79
9 -5 19 3.29 0.76
19 5 9 3.65 0.66
19 -5 -9 1.78 0.71
-19 9 5 3.09 0.6
-9 -5 -19 4.1 0.59
19 9 -5 2.7 0.84
19 5 9 3.84 0.71
-5 9 -19 2.08 0.62
19 9 7 37.48 2.77
-19 -9 7 33.74 2.84
19 7 -9 36.75 3.23
19 -9 -7 30.26 3.05
-9 -7 19 30.71 3.03
-9 7 -19 33.33 2.72
19 -7 9 38.38 2.8
-19 7 9 29.96 2.81
9 7 19 32.98 2.96
19 9 7 38.88 2.96
7 -9 19 34.74 3.05
7 9 -19 34.04 2.98
7 -19 -9 34.21 2.5
9 -7 -19 34.48 2.99
7 19 9 27.95 2.69
7 19 9 32.99 2.79
-7 -9 -19 33.22 2.71
19 -7 9 34.1 2.85
-7 9 19 34.8 3.16
9 19 -7 31.75 2.97
-7 19 9 42.81 2.77
19 7 9 36.44 2.77
7 -9 -19 36.79 2.9
7 9 19 37.4 3.03
9 19 7 30.08 2.76
19 9 -7 38.65 3.26
-9 -7 -19 37.15 2.74
19 7 9 32.61 2.82
9 7 -19 34.56 3.03
-9 7 19 36.72 3.17
-19 9 7 30.63 2.77
-7 9 -19 34.53 2.75
-19 -7 9 32.75 2.85
19 -9 7 33.41 2.88
19 -7 -9 35.76 3.2
-9 -19 7 29.74 2.67
-7 -9 19 37.06 3.22
19 -9 7 32.68 2.71
9 -7 19 32.5 2.94
7 19 -9 33.08 2.9
9 19 7 35.09 2.76
9 -9 19 59.1 4.51
-19 9 9 59.63 4.32
19 9 9 66.17 4.26
-9 9 19 54.16 4.58
19 9 9 47.39 4.22
19 -9 9 55.77 4.19
19 9 -9 47.19 4.48
9 19 -9 57.48 4.47
9 19 9 62.36 4.42
19 -9 -9 55.74 4.58
19 -9 9 54.82 4.28
-9 -9 -19 48.46 4.08
9 9 19 50.48 4.35
9 19 9 49.11 4.18
-19 -9 9 54.43 4.28
9 9 -19 55.53 4.43
-9 -9 19 58.3 4.58
-9 9 -19 56.97 4.15
1 19 11 2.36 0.63
11 -1 -19 1.31 0.64
-1 19 -11 1.92 0.38
19 -1 11 1.86 0.52
19 11 1 2.67 0.65
11 19 -1 2.28 0.45
19 1 -11 2.73 0.79
-19 1 11 2.69 0.68
-11 -1 19 1.91 0.62
19 -11 -1 1.77 0.7
11 1 19 1.42 0.54
19 -1 11 1.97 0.48
-19 -11 1 2.47 0.52
1 11 -19 3.26 0.68
1 -19 -11 2.12 0.4
11 19 -1 2.29 0.68
1 -11 19 1.73 0.67
1 19 11 2.23 0.47
-1 -19 11 4.08 0.61
-11 1 -19 2.17 0.5
-1 11 19 2.75 0.75
-1 -11 -19 2.2 0.51
11 -1 19 2.77 0.71
-11 1 19 1.75 0.68
11 19 1 2.4 0.5
-19 -1 11 1.7 0.54
-1 19 11 2.42 0.64
1 11 19 2.33 0.71
1 -19 11 2.44 0.55
-11 -1 -19 2.41 0.5
11 19 1 1.81 0.6
-1 -11 19 2.46 0.76
19 -1 -11 3.06 0.86
11 1 -19 2.83 0.76
1 -11 -19 1.29 0.48
1 19 -11 2.11 0.45
19 1 11 1.15 0.46
19 -11 1 1.87 0.45
19 11 -1 1.13 0.58
-1 11 -19 1.68 0.46
19 -11 1 2.62 0.72
19 -11 -3 60.15 4.92
11 3 19 64.12 4.78
19 3 -11 64.25 5.07
-3 -19 11 62.41 4.62
-19 3 11 62.12 4.77
-19 -11 3 58.36 4.59
11 -3 -19 54.6 4.75
-11 3 -19 58.51 4.51
19 11 3 69.13 4.57
19 -3 11 54.9 4.54
3 11 -19 65.56 4.75
19 11 3 57.27 4.74
-3 19 -11 60.6 4.33
19 -3 11 61.36 4.64
3 -19 -11 58.84 4.37
-3 11 19 62.02 5.01
3 -11 19 65.12 5.01
3 19 11 55.27 4.46
3 19 11 57.75 4.68
-3 -11 -19 68.77 4.62
11 19 -3 59.71 4.87
-11 -3 19 65.68 5.01
11 -3 19 56.13 4.76
-19 11 3 63.01 4.58
19 11 -3 65.22 4.96
3 11 19 58.15 4.85
11 3 -19 57.78 4.87
19 3 11 57.75 4.62
3 -19 11 61.49 4.53
-11 -3 -19 60.26 4.53
19 3 11 57.97 4.55
19 -11 3 68.2 4.84
19 -11 3 59.91 4.5
11 19 3 54.64 4.67
11 19 3 62.3 4.52
3 -11 -19 67.81 4.69
19 -3 -11 74.01 5.17
-19 -3 11 58.12 4.73
-11 3 19 60.06 4.99
3 19 -11 64.78 4.59
-3 11 -19 68.39 4.66
-3 19 11 56.2 4.65
-3 -11 19 64.88 5.02
5 -11 19 21.6 2.32
-5 -11 -19 22.4 2.02
19 -5 11 21.03 2.08
11 19 -5 19.05 2.27
19 11 5 23.74 2.23
-11 5 -19 25.13 2.03
-5 11 19 22.12 2.36
5 -19 -11 24.38 1.89
-19 -11 5 24.92 2.09
19 -5 11 24.13 2.07
11 5 19 22.81 2.17
19 -11 -5 21.84 2.35
-19 5 11 23.47 2.2
5 11 -19 24.51 2.3
-5 -19 11 25.04 2.13
19 5 -11 26.23 2.53
5 19 11 27.19 2.09
5 19 11 22.75 2.15
19 11 5 26.3 2.05
-11 -5 19 21.79 2.3
11 -5 -19 23.46 2.3
-11 5 19 23.07 2.43
19 5 11 20.94 2.09
11 19 5 23.97 2.01
11 19 5 23.89 2.18
19 -11 5 24.59 2.24
19 -11 5 22.78 2
19 11 -5 25.67 2.43
-5 11 -19 25.14 2.07
19 5 11 20.66 1.98
5 -11 -19 20.97 2.09
5 11 19 26.03 2.34
-19 11 5 22.56 2.03
-11 -5 -19 25.97 2.05
11 -5 19 26.17 2.32
-11 -19 5 25.78 2.06
5 19 -11 23.87 2.14
11 5 -19 21.81 2.29
-19 -5 11 25.6 2.23
19 -5 -11 22.35 2.43
-5 19 11 23.32 2.13
19 -11 -7 -0.21 0.26
7 19 11 0.01 0.26
7 19 11 -0.15 0.18
-7 -19 11 -0.05 0.25
19 7 -11 -0.02 0.37
-19 7 11 0.21 0.24
11 -7 -19 -0.45 0.23
11 7 19 0.14 0.28
-11 -7 19 -0.16 0.2
-7 11 19 0.68 0.48
-19 -11 7 0.09 0.27
7 -11 19 0.08 0.35
7 11 -19 0.43 0.53
19 -7 11 -0.26 0.16
19 11 7 0.63 0.4
19 -7 11 0.25 0.29
-7 11 -19 -0.1 0.24
7 11 19 0.32 0.28
11 19 7 -0.14 0.18
-11 -19 7 -0.03 0.22
7 -11 -19 0.84 0.43
19 7 11 0.04 0.24
11 -7 19 0.09 0.25
11 7 -19 0.2 0.32
-7 -11 19 0.12 0.44
-19 -7 11 -0.39 0.12
19 -7 -11 -0.23 0.37
-11 7 19 -0.33 0.21
19 -11 7 -0.22 0.29
19 -11 7 0.1 0.23
19 11 -7 0.64 0.56
11 19 7 -0.24 0.26
-11 -7 -19 -0.04 0.23
19 7 11 -0.16 0.31
7 19 -11 -0.8 0.3
-19 11 7 0.04 0.26
19 9 -11 3.06 0.97
19 -9 11 2.41 0.58
-19 -11 9 2.64 0.68
11 19 -9 2.8 0.81
-9 -11 -19 2.62 0.53
19 11 9 2.33 0.66
19 11 9 2.68 0.56
-19 9 11 1.96 0.62
19 -9 11 1.96 0.56
-11 -9 19 2.49 0.74
19 -11 -9 2.11 0.79
11 9 19 2.13 0.64
9 19 11 3.49 0.72
11 -9 -19 2.08 0.65
-9 -19 11 2.56 0.61
-9 11 19 2.57 0.79
9 11 -19 2.96 0.8
9 19 11 1.89 0.52
-11 9 -19 1.9 0.5
9 -11 19 2.15 0.68
11 9 -19 2.49 0.77
-11 -9 -19 2.92 0.6
-19 11 9 3.14 0.68
19 -9 -11 3.7 0.99
19 -11 9 3.1 0.7
19 -11 9 2.83 0.62
11 -9 19 2.11 0.68
-19 -9 11 3.31 0.74
9 19 -11 2.44 0.72
-11 -19 9 2.91 0.65
19 11 -9 2.21 0.79
9 11 19 2.7 0.68
-11 9 19 3.08 0.88
19 9 11 2.3 0.6
11 19 9 2.74 0.66
9 -11 -19 3.24 0.76
19 9 11 3.33 0.64
-9 11 -19 3.28 0.64
-9 -11 19 3.02 0.83
11 -11 -19 1.83 0.65
-11 -11 19 1.23 0.56
-11 11 -19 2.55 0.56
19 -11 11 1.47 0.54
-11 -19 11 2.14 0.61
19 11 11 1.69 0.56
19 11 11 1.83 0.49
-11 -11 -19 2.03 0.48
11 19 11 3.2 0.69
11 19 11 1.48 0.57
19 -11 -11 2.16 0.76
19 11 -11 2.49 0.98
11 11 -19 2.73 0.8
11 11 19 2.99 0.71
-11 11 19 2.12 0.66
-19 -11 11 1.54 0.51
19 -11 11 2.46 0.62
11 19 -11 2.01 0.73
-19 11 11 2.31 0.63
11 -11 19 1.76 0.62
-19 -13 1 0.17 0.29
19 -1 13 0.1 0.28
1 -13 19 0.75 0.51
-1 -19 13 -0.3 0.23
19 -1 13 -0.01 0.24
1 13 -19 -0.15 0.29
19 13 1 0.24 0.21
-1 13 19 -0.28 0.42
13 19 -1 0.4 0.45
13 1 19 0.57 0.4
-13 -1 19 0.2 0.42
19 13 1 0.12 0.27
-1 19 -13 -0.2 0.14
13 19 -1 0.06 0.19
19 1 -13 0.5 0.59
19 -13 -1 0.18 0.21
-19 1 13 0.47 0.39
-13 1 -19 0.36 0.22
13 -1 -19 -0.36 0.47
-1 -13 -19 -0.2 0.23
1 19 13 0.43 0.4
1 -19 -13 0.09 0.22
19 -13 -1 -0.83 0.31
-1 -19 -13 0.13 0.18
19 1 13 -0.1 0.16
-19 -1 13 0.48 0.27
13 -1 19 0.64 0.42
1 -13 -19 0.14 0.31
-1 -13 19 1.06 0.56
-1 13 -19 1.01 0.41
19 13 -1 -0.5 0.36
-13 1 19 0.19 0.34
1 -19 13 0.16 0.35
1 13 19 -0.18 0.35
13 19 1 0.21 0.22
19 -1 -13 0.54 0.52
-13 -1 -19 0.58 0.32
13 19 1 0.14 0.35
1 19 -13 0.28 0.25
13 1 -19 -0.15 0.36
19 1 13 0.23 0.32
19 -13 1 0.43 0.41
19 -13 1 0.05 0.21
-1 19 13 0.02 0.42
13 -3 -19 67.54 5.45
-3 -19 13 74.13 5.35
3 19 13 65.93 5.1
-3 13 19 66.45 5.54
13 3 19 65.66 5.29
3 -13 19 69.91 5.59
3 19 13 69.66 5.39
19 -3 13 69.92 5.24
19 -3 13 64.46 5.18
-19 -13 3 74.59 5.24
-13 3 -19 66.76 5.09
-19 3 13 68.14 5.4
19 3 -13 76.49 5.72
3 13 -19 69.66 5.31
-13 -3 19 67.31 5.5
13 19 -3 75.66 5.63
19 13 3 76.65 5.17
19 -13 -3 73.43 5.59
-3 -13 -19 74.3 5.18
3 -19 -13 70.46 5.05
19 13 3 70.28 5.42
19 13 -3 71.52 5.54
13 -3 19 68.89 5.33
-19 -3 13 73.03 5.44
-19 13 3 68.87 5.15
-13 -19 3 67.85 5.14
13 3 -19 64.29 5.45
13 19 3 72.69 5.15
3 -13 -19 65.29 5.19
19 -13 3 68.08 5.41
19 -13 3 73.76 5.14
3 13 19 65.15 5.42
-13 3 19 77.46 5.62
13 19 3 66.52 5.35
-13 -3 -19 65.89 5.09
3 19 -13 76.61 5.25
19 3 13 64.15 5.18
19 3 13 77.04 5.25
-3 -13 19 69.13 5.58
19 -3 -13 67.77 5.6
-3 19 13 68.31 5.42
-3 13 -19 71.05 5.19
-5 -13 -19 41.52 3.38
13 -5 -19 46.88 3.75
5 19 13 40.51 3.41
19 13 5 50.77 3.48
19 -5 13 44.84 3.51
19 -5 13 47 3.55
19 5 -13 52.22 4.06
13 5 19 43.6 3.59
5 13 -19 46.55 3.68
-19 -13 5 45.04 3.53
5 19 13 45.08 3.64
-5 13 19 47.82 3.95
5 -13 19 43.2 3.83
-19 5 13 42.75 3.66
19 -13 -5 41.89 3.8
-13 -5 19 43.44 3.75
19 13 5 38.1 3.56
13 19 -5 43.4 3.84
-13 5 -19 43.81 3.39
-5 -19 13 48.12 3.65
-5 -13 19 39.13 3.77
-5 13 -19 40.67 3.38
5 -13 -19 41.82 3.49
-19 13 5 45.3 3.47
-13 -5 -19 41.08 3.37
-13 -19 5 46.96 3.49
5 19 -13 44.59 3.6
13 -5 19 44.38 3.66
19 -13 5 43.74 3.64
-19 -5 13 39.38 3.58
13 19 5 45.07 3.66
19 5 13 45.45 3.52
13 19 5 43.79 3.43
19 -5 -13 49.82 3.96
19 13 -5 50.9 4.02
-13 5 19 44.34 3.83
13 5 -19 46.71 3.8
5 13 19 43.08 3.7
19 5 13 39.63 3.44
19 -13 5 46.7 3.43
-19 7 13 0.5 0.41
19 -13 -7 -0.11 0.53
13 -7 -19 0.79 0.56
7 19 13 0.86 0.43
-7 -13 -19 0.68 0.32
19 -7 13 0.43 0.3
-19 -13 7 1.1 0.38
7 13 -19 1.76 0.62
-7 -19 13 1.2 0.43
19 13 7 -0.05 0.35
-13 7 -19 0.37 0.23
7 19 13 1.14 0.38
-7 13 19 0.11 0.32
19 -7 13 0.92 0.42
7 -13 19 0.49 0.43
19 13 7 0.79 0.33
-13 -7 19 1.06 0.5
13 19 -7 0.51 0.58
13 7 19 0.71 0.37
13 19 7 1.17 0.6
7 13 19 1.22 0.49
-19 -7 13 0.5 0.35
19 -7 -13 -0.3 0.53
19 13 -7 1.14 0.54
-7 13 -19 0.69 0.35
7 -13 -19 1.22 0.5
19 7 13 0.65 0.33
-7 -13 19 0.95 0.45
19 -13 7 1.53 0.52
19 -13 7 0.74 0.35
-19 13 7 0.73 0.38
13 19 7 1.38 0.48
7 19 -13 -0.21 0.39
19 7 13 0.75 0.41
-13 7 19 0.49 0.51
13 -7 19 0.6 0.42
13 7 -19 1.08 0.5
19 -9 13 -0.17 0.29
9 13 -19 -0.23 0.39
-13 -9 19 0.26 0.38
-19 9 13 0.1 0.23
9 -13 19 -0.52 0.36
19 13 9 0.05 0.24
19 -13 -9 -0.03 0.49
-9 -13 -19 0.19 0.21
19 -9 13 0.16 0.24
19 9 -13 -0.7 0.26
19 13 9 -0.24 0.31
-9 13 19 -0.56 0.32
13 9 19 0.44 0.39
-13 9 -19 0.16 0.26
9 19 13 0.13 0.29
-9 -19 13 -0.6 0.18
13 19 -9 -0.28 0.45
9 19 13 -0.18 0.22
-19 -13 9 0.39 0.3
13 -9 -19 -0.35 0.42
-13 9 19 0.14 0.46
-9 -13 19 0.67 0.44
19 -13 9 0.04 0.21
9 13 19 -0.15 0.24
-19 13 9 0.37 0.32
13 -9 19 0.13 0.35
19 -9 -13 0.51 0.55
19 -13 9 0.16 0.3
19 13 -9 0.22 0.62
9 -13 -19 0.55 0.37
13 19 9 0.25 0.44
13 19 9 0.49 0.33
-19 -9 13 0.29 0.26
9 19 -13 0.5 0.5
13 9 -19 0.07 0.35
19 9 13 0.09 0.3
-13 -19 9 -0.51 0.21
19 9 13 0.01 0.24
11 -13 19 27.21 2.57
19 11 -13 32.51 2.9
-19 -13 11 21.77 2.58
19 -11 13 26.64 2.34
19 -13 -11 24.34 2.55
13 11 19 29.46 2.46
11 13 -19 26.12 2.49
19 13 11 23.94 2.3
-13 -11 19 28.79 2.53
-11 -19 13 23.62 2.32
19 -11 13 23.87 2.29
-13 11 -19 26.29 2.17
19 13 11 25.85 2.25
13 19 -11 21.64 2.57
11 19 13 25.06 2.35
13 -11 -19 23.62 2.41
11 19 13 28.3 2.34
-19 13 11 28.2 2.39
13 -11 19 26.64 2.5
11 13 19 22.35 2.35
-11 -13 19 25.34 2.5
19 11 13 27.47 2.35
19 11 13 22.4 2.21
11 19 -13 23.72 2.52
-13 11 19 21.43 2.44
19 -11 -13 25.06 2.56
13 11 -19 25.3 2.53
13 19 11 25.45 2.35
-13 -19 11 26.07 2.33
13 19 11 25.73 2.3
-11 13 -19 26.04 2.16
-19 -11 13 27.56 2.39
11 -13 -19 27.2 2.39
19 -13 11 24.18 2.32
13 -13 -19 28.16 2.56
13 13 19 23.75 2.33
19 13 13 30.82 2.55
13 19 13 31.28 2.57
-13 -13 19 28.93 2.66
13 13 -19 24.26 2.62
19 13 -13 20.01 2.72
13 19 -13 27.08 2.76
13 19 13 32.96 2.63
-13 13 19 29.03 2.71
1 15 -19 10.29 1.18
15 -1 -19 9.42 1.28
-15 -1 19 7.85 1.19
1 -19 -15 7.05 0.9
15 19 -1 9.02 1.14
-19 1 15 8.8 1.19
-1 15 19 7.79 1.42
1 19 15 9.27 1.29
19 -1 15 6.78 1
1 -15 19 7.19 1.35
-1 -15 -19 8.7 1.01
15 1 19 8.76 1.12
19 -1 15 8.42 1.09
19 1 -15 8.72 1.48
19 15 1 9.81 1.02
19 15 1 8.83 1.25
15 19 -1 10 1.39
15 -1 19 10.96 1.2
1 15 19 7.35 1.24
-1 -15 19 9.04 1.33
19 15 -1 8.86 1.35
-1 15 -19 8.4 1.06
1 -15 -19 7.15 0.95
-1 -19 -15 10.27 1
15 19 1 8.41 1.24
-19 -1 15 8.22 1.12
15 1 -19 9.16 1.31
-15 1 19 9.67 1.27
19 1 15 8.04 1.07
19 -1 -15 8.75 1.35
15 19 1 6.91 0.94
19 1 15 9.25 1.09
3 -15 19 12.61 1.55
-15 -3 19 10.73 1.38
19 -3 15 11.21 1.22
-3 -19 15 11.98 1.62
19 15 3 13.56 1.43
15 -3 -19 8.94 1.46
-3 -15 -19 10.53 1.11
-19 3 15 8.45 1.26
3 15 -19 10.74 1.29
19 15 3 10.63 1.13
-3 15 19 10.07 1.42
3 19 15 10.91 1.42
15 19 -3 9.27 1.62
-19 -15 3 9.48 1.12
19 -3 15 9.24 1.17
15 3 19 8.65 1.08
15 3 19 11.83 1.29
19 3 -15 9.69 1.46
3 -15 -19 10.12 1.16
-19 -3 15 10.55 1.29
-3 15 -19 11.71 1.2
3 15 19 7.25 1.4
-15 3 19 10.69 1.36
15 19 3 10.56 1.37
15 -3 19 7.11 1.17
19 15 -3 7.78 1.49
19 3 15 9.89 1.15
19 3 15 11.7 1.22
-3 -15 19 9.65 1.44
15 19 3 11.31 1.35
19 -3 -15 9.24 1.55
15 3 -19 9.94 1.41
15 19 -5 2.61 1.03
-5 15 19 2.16 1.04
19 15 5 2.27 0.7
19 -5 15 1.77 0.55
19 -5 15 1.77 0.54
5 -15 19 3.18 0.88
-15 -5 19 1.69 0.63
-5 -19 15 3.16 0.79
19 15 5 1.76 0.46
-19 -15 5 1.34 0.46
5 19 15 1.6 0.49
5 19 15 2.3 0.69
15 -5 -19 1 0.67
15 5 19 1.23 0.41
15 5 19 1.6 0.51
-19 5 15 2.8 0.7
19 5 -15 1.39 0.78
5 15 -19 1.66 0.63
-5 -15 -19 2.07 0.48
-5 15 -19 2.33 0.55
-19 -5 15 2.8 0.71
5 19 -15 2.29 0.78
19 5 15 1.3 0.45
15 -5 19 1.63 0.59
15 19 5 2.63 0.71
19 -5 -15 2.6 0.89
5 15 19 1.76 0.65
-5 -15 19 1.21 0.61
19 15 -5 3.1 0.9
19 5 15 1.43 0.47
-15 5 19 1.86 0.65
15 5 -19 1.1 0.72
5 -15 -19 2.03 0.55
-15 -7 19 2.45 0.71
19 -7 15 2.22 0.61
-7 -19 15 3.78 1
15 -7 -19 3.35 0.84
-19 7 15 3.08 0.75
19 -7 15 3.49 0.78
7 -15 19 2.29 0.79
7 15 -19 2.9 0.76
15 19 -7 3.19 1.03
15 7 19 1.94 0.62
-7 -15 -19 3.66 0.65
19 15 7 3.36 0.78
19 15 7 3.8 0.6
-7 15 19 3.72 0.97
7 19 15 3.39 0.72
7 19 15 2.59 0.74
-19 -15 7 3.6 0.7
19 7 -15 2.98 0.96
15 7 -19 1.01 0.76
7 15 19 3.94 0.89
15 19 7 2.94 0.79
15 19 7 2.51 0.61
19 -7 -15 4.14 1.07
15 -7 19 1.96 0.62
-7 -15 19 3.36 0.85
-7 15 -19 4.02 0.7
7 19 -15 2.82 1.22
7 -15 -19 1.85 0.6
-15 -19 7 2.91 0.64
-15 7 19 2.59 0.85
19 7 15 3.29 0.67
19 7 15 2.29 0.58
15 -7 19 3.52 0.67
19 15 -7 2.85 0.95
19 15 9 11.96 1.46
9 15 -19 17.58 1.81
19 -9 15 11.9 1.41
-19 9 15 14.81 1.58
19 15 9 16.45 1.46
19 -9 15 12.68 1.47
9 19 15 14.72 1.62
15 9 19 12.01 1.36
-9 15 19 17.54 1.88
-15 -9 19 13.32 1.8
-19 -15 9 13.95 1.43
9 19 15 14.91 1.48
15 -9 -19 11.2 1.57
19 9 -15 14.9 1.83
15 19 -9 11.8 1.74
15 19 9 14.78 1.44
15 19 9 10.41 1.45
15 -9 19 12.34 1.33
-15 9 19 13.17 1.65
19 15 -9 14.6 1.83
19 -9 -15 16.58 1.87
15 -9 19 11.98 1.53
9 15 19 10.2 1.5
9 -15 -19 12 1.47
19 9 15 11.94 1.41
15 9 -19 12.21 1.63
-15 -19 9 10.99 1.35
-9 -15 19 13.86 1.62
19 15 11 3.55 0.86
15 19 -11 1.98 1.01
-19 11 15 4.27 0.89
11 19 15 2.19 0.61
11 19 15 1.83 0.61
19 15 11 1.6 0.62
11 15 -19 3.02 0.88
-19 -15 11 5.16 0.8
19 -11 15 3.85 0.79
15 -11 -19 2.86 0.81
15 -11 19 2.99 0.66
11 15 19 3.06 0.73
19 -11 -15 4.5 1.04
-15 11 19 3.01 0.8
15 19 11 3 0.82
11 15 19 4.52 0.94
19 15 -11 1.68 0.87
15 11 -19 3.24 1.08
-11 -15 19 2.04 0.74
15 19 11 1.93 0.59
13 15 -19 9.25 1.62
15 -13 -19 10.08 1.38
13 19 15 7.8 1.3
15 19 13 10.22 1.31
17 1 19 44.66 3.39
19 -1 17 40.21 3.43
19 17 1 42.09 3.7
-1 -17 -19 44.25 3.34
19 -1 17 45.49 3.44
19 1 -17 43.26 3.81
-19 1 17 43.92 3.61
19 17 1 37.42 3.24
17 -1 -19 36.25 3.58
-1 17 19 45.69 3.87
17 1 19 48.67 3.95
1 17 -19 39.96 3.37
17 19 -1 43.2 3.29
17 19 -1 46.73 3.81
1 17 19 38.04 3.67
17 19 1 44.44 3.32
19 1 17 38.44 3.35
19 17 -1 38.94 3.64
1 -17 -19 48.62 3.4
19 -1 -17 44.36 3.82
19 17 -1 43.02 3.29
-1 -17 19 37.73 3.7
17 -1 19 39.11 3.43
19 1 17 40.57 3.45
17 1 -19 41.54 3.68
17 -1 19 43.18 3.38
-17 1 19 36.97 3.51
-19 3 17 2.83 0.78
-3 17 19 1.51 0.74
19 -3 17 1.4 0.54
-3 -17 -19 1.66 0.48
-19 -17 3 2.06 0.52
17 -3 -19 1.66 0.77
19 -3 17 2.97 0.68
19 17 3 1.65 0.67
17 19 -3 3.73 1.02
19 17 3 1.75 0.5
19 3 -17 1.71 0.75
17 3 19 1.83 0.58
3 17 -19 2.01 0.66
17 19 3 1.97 0.76
19 3 17 2.51 0.6
17 -3 19 1.65 0.59
17 -3 19 1.68 0.52
3 17 19 1.89 0.72
19 17 -3 3.01 0.89
-3 -17 19 3.75 0.85
-17 3 19 2.46 0.72
17 19 3 3.62 0.66
19 -3 -17 2.66 0.86
3 -17 -19 1.91 0.56
17 3 -19 1.46 0.62
19 -5 17 0.6 0.37
19 -5 17 0.26 0.3
-5 -17 -19 1.02 0.38
19 17 5 0.66 0.32
17 -5 -19 1.35 0.77
17 19 -5 0.14 0.59
-19 5 17 0.24 0.43
19 17 5 0.36 0.32
5 17 -19 0.61 0.46
-19 -17 5 0.21 0.3
-17 -19 5 0.84 0.31
17 5 -19 0.48 0.67
19 -5 -17 -0.4 0.45
19 17 -5 0.2 0.57
17 -5 19 -0.1 0.3
17 19 5 0.43 0.46
17 -5 19 0.39 0.38
5 17 19 0.33 0.48
17 19 5 0.3 0.31
-5 -17 19 0.35 0.33
-17 5 19 0.62 0.33
-19 -17 7 17.02 1.71
7 17 -19 16.43 1.91
-19 7 17 18.11 1.89
17 -7 -19 21.04 2.19
19 -7 17 20.46 1.91
19 -7 17 17.99 1.77
19 17 7 18.56 1.73
19 17 7 19.64 2.01
17 19 -7 18.7 2.28
7 17 19 18.58 1.99
17 -7 19 16.81 1.72
19 -7 -17 15.46 2.03
19 17 -7 20.43 2.27
17 19 7 13.86 1.8
17 19 7 17.73 1.7
-17 7 19 17.78 1.93
17 -7 19 14.79 1.76
19 17 9 32.5 3.15
17 19 -9 33.36 3.43
-19 9 17 40.24 3.25
-19 -17 9 33.82 2.96
9 17 -19 36.49 3.28
17 -9 -19 35.97 3.3
19 -9 17 35.39 3
19 17 9 33.87 2.96
17 19 9 33.39 3.17
19 -9 -17 34.31 3.32
-9 -17 19 34.15 3.21
17 19 9 38.2 3.03
-17 9 19 29.31 3.09
-17 -19 9 36.07 3.02
17 -9 19 37.14 3.03
17 -9 19 41.89 3.29
19 17 -9 38.22 3.55
9 17 19 35.62 3.25
9 17 19 45.16 3.11
19 19 -1 6.91 1.43
19 19 -1 5.49 0.83
19 19 1 10.47 1.41
19 19 1 6.11 0.89
19 19 -3 14.44 2.03
19 19 3 18.63 2.1
19 19 3 19.65 1.76
19 19 5 7.99 1.04
19 19 -5 8.26 1.64
19 19 5 8.64 1.47
0 0 -20 137.98 10.43
-20 0 0 155.76 10.43
20 0 0 155.27 10.63
0 0 20 144.8 10.72
20 0 -2 1.09 0.48
0 2 20 0.54 0.42
0 2 -20 0.38 0.29
-20 0 2 1.12 0.38
0 -2 -20 0.11 0.33
0 -2 20 0.58 0.44
20 2 0 0.82 0.49
2 0 20 -0.3 0.23
20 -2 0 0.62 0.37
-2 0 20 0.43 0.4
2 0 -20 0.25 0.39
-20 -2 0 0.34 0.25
-20 2 0 0.71 0.31
-2 0 -20 0.6 0.37
20 0 2 0.64 0.37
2 2 20 14.47 1.74
20 -2 -2 14.36 1.66
20 -2 2 14.82 1.61
2 2 -20 15.17 1.6
-2 2 20 15.35 1.77
2 -2 -20 13.17 1.51
2 -2 20 18.38 1.86
-2 -2 20 16.42 1.88
-2 2 -20 16.05 1.53
20 2 -2 14.58 1.72
-20 -2 2 16.82 1.55
-20 2 2 16.49 1.52
-2 -2 -20 17.94 1.57
20 2 2 19.22 1.74
4 0 20 11.06 1.47
20 -4 0 13.9 1.51
4 0 -20 10.07 1.31
0 -4 -20 13.11 1.29
0 -4 20 11.71 1.48
20 0 4 12.46 1.38
-20 0 4 12.11 1.23
4 20 0 11.56 0.97
20 0 -4 11.84 1.45
20 0 4 11.35 1.15
0 4 -20 12.48 1.35
0 4 20 12.21 1.52
-4 0 -20 12.02 1.25
20 4 0 13.32 1.48
-20 -4 0 10.87 1.22
-20 4 0 12.96 1.24
-4 0 20 10.71 1.54
20 4 2 70.9 5.35
4 20 -2 69.79 4.97
4 20 -2 73.83 4.86
2 -4 20 64.13 5.42
-20 -4 2 65.6 5.16
20 -2 4 73.21 5.37
-4 -2 20 73.1 5.59
2 4 -20 79.35 5.35
-2 4 20 72.66 5.57
2 20 4 68.32 4.87
4 -2 -20 65.48 5.23
-2 -4 -20 74.08 5.21
20 -2 4 63 5.05
4 2 20 73.12 5.51
20 -4 -2 65.44 5.39
2 20 4 68.79 4.87
-20 2 4 72.48 5.2
20 2 -4 60.9 5.37
20 -4 2 66.08 5.06
-20 4 2 78.02 5.23
4 2 -20 70.75 5.32
20 2 4 72.39 5.37
20 2 4 63.12 5.05
4 20 2 70.99 4.92
-2 4 -20 80.45 5.27
2 4 20 64.05 5.4
4 20 2 74.7 5.06
-2 -4 20 67.58 5.5
4 -2 20 71.4 5.44
-4 -2 -20 68.69 5.16
20 -2 -4 73.54 5.51
-4 2 20 71.71 5.57
20 -4 2 69.56 5.35
-20 -2 4 68.24 5.17
4 20 4 135.46 9.33
20 -4 -4 124.79 9.79
4 20 4 131.78 9.4
4 -4 20 138.29 9.85
4 4 -20 148.89 9.78
4 4 20 136.68 9.84
4 20 -4 131.58 9.34
4 20 -4 137.59 9.21
4 -4 -20 127.32 9.6
-20 -4 4 127.05 9.51
-20 4 4 128.65 9.5
-4 -4 -20 120.78 9.46
-4 -4 20 140.85 10.02
-4 4 -20 139.1 9.53
-4 4 20 134.53 9.91
20 4 4 128.07 9.42
20 4 4 148.83 9.78
20 -4 4 140.32 9.46
20 4 -4 155.39 9.96
20 -4 4 134.86 9.68
6 0 20 17.28 1.74
0 -6 -20 17.78 1.61
0 -6 20 16.42 1.82
0 6 -20 14.79 1.56
-20 0 6 16.18 1.58
0 20 6 15.39 1.25
6 0 -20 13.6 1.66
0 20 6 16.46 1.22
-6 0 20 17.76 1.98
6 20 0 15.88 1.56
6 20 0 15.65 1.35
20 0 -6 17.19 1.89
20 0 6 16.94 1.65
20 0 6 14.74 1.46
0 6 20 15.23 1.74
-20 -6 0 17.55 1.56
-20 6 0 14.94 1.49
20 -6 0 18.28 1.82
20 6 0 17.09 1.73
-6 0 -20 17.54 1.56
2 6 -20 7.46 1.04
2 -6 20 6.27 1.07
20 6 2 6.43 1.05
-6 2 -20 9.06 0.95
-2 -6 -20 5.85 0.84
6 2 20 9.01 1.13
6 20 -2 6.37 0.91
6 20 -2 6.52 0.7
20 -2 6 7.4 0.89
-20 -6 2 8.68 0.95
20 -6 -2 7.87 1.18
20 -2 6 7.61 1.04
-6 -2 20 5.03 1.1
2 20 6 6.87 0.81
20 2 -6 8.28 1.23
2 20 6 7.92 0.77
-20 2 6 8.85 1
-2 6 20 5.72 1.14
6 -2 -20 7.56 1.03
20 -2 -6 7.56 1.17
20 2 6 6.26 0.94
-20 -2 6 7.67 1
6 20 2 6.96 0.76
-2 6 -20 6.02 0.87
-6 -2 -20 6.99 0.91
20 6 -2 7.66 1.29
20 2 6 9.33 0.91
-6 2 20 8.57 1.33
2 20 -6 7.38 0.65
2 -6 -20 7.77 0.96
20 -6 2 8.46 1.11
-20 6 2 7.42 0.9
6 -2 20 6.39 1.05
6 2 -20 5.7 1.09
20 -6 2 7.08 0.81
2 6 20 7.14 1.13
-2 -6 20 7.42 1.23
6 20 2 7.76 0.93
4 6 -20 60.21 4.5
-20 -6 4 60.21 4.37
4 -6 20 56.04 4.63
-20 4 6 60.49 4.42
20 6 4 59.42 4.54
20 -4 6 55.21 4.45
-4 -6 -20 50.81 4.26
20 -4 6 52.44 4.24
4 20 6 56.94 4.25
6 -4 -20 61.38 4.5
-6 -4 20 54.97 4.69
6 20 -4 62.17 4.42
6 4 20 57.72 4.56
20 -6 -4 53.9 4.64
-6 4 -20 60 4.33
20 4 -6 58.65 4.72
4 20 6 57.4 4.25
-4 -20 6 55.73 4.09
20 6 4 64.24 4.31
-4 6 20 58.8 4.72
20 -4 -6 49.99 4.6
20 -6 4 59.53 4.28
-6 4 20 58.82 4.76
6 -4 20 56.88 4.63
20 6 -4 61.21 4.68
6 20 4 61.12 4.34
20 4 6 58.11 4.47
4 -6 -20 56.41 4.43
-20 6 4 56.32 4.33
-6 -4 -20 52.31 4.27
4 6 20 52.1 4.56
20 -6 4 58.14 4.49
-20 -4 6 62.61 4.45
6 20 4 54.01 4.18
4 20 -6 55.73 4.19
-4 -6 20 62.21 4.79
-4 6 -20 63.1 4.38
6 4 -20 64.38 4.6
20 4 6 48.71 4.21
-6 -6 -20 5.59 0.81
-6 -20 6 7.14 0.79
20 6 6 6.62 0.97
-20 -6 6 8.48 0.98
-20 6 6 5.97 0.86
20 6 -6 10.12 1.32
-6 6 -20 6.91 0.89
-6 6 20 5.87 1.18
6 -6 -20 7.73 1.05
6 -6 20 7.28 1.06
6 6 -20 8.69 1.19
6 6 20 5.93 0.97
6 20 -6 6.6 0.91
6 20 6 6.01 0.88
6 20 6 8.44 0.9
20 -6 -6 5.49 1.14
20 -6 6 7.34 0.98
20 -6 6 7.72 0.88
-6 -6 20 7.6 1.21
20 6 6 8.51 0.89
0 -8 -20 22.19 2.09
20 0 8 26.18 2.24
20 -8 0 24.49 2.32
0 -8 20 24.58 2.43
8 20 0 28.86 2.35
0 8 20 23.98 2.39
20 0 8 27.3 2.13
-20 -8 0 26.11 2.14
-8 0 -20 25.33 2.09
-8 0 20 25.99 2.48
0 -20 8 23 1.76
0 20 -8 24.14 1.76
0 20 8 27.03 1.93
0 20 8 22.73 2.02
8 0 -20 21.51 2.27
8 0 20 20.49 2.25
-20 0 8 25.18 2.22
20 0 -8 24.82 2.44
8 20 0 25.33 1.97
0 8 -20 23.43 2.19
-8 -2 20 -0.34 0.28
-2 -20 8 -0.14 0.11
8 20 -2 -0.19 0.27
2 20 8 0 0.16
2 20 8 -0.26 0.23
8 -2 -20 0.15 0.29
8 20 -2 -0.1 0.14
-20 -8 2 -0.09 0.12
8 2 20 -0.54 0.29
20 -8 -2 -0.18 0.34
-2 8 20 0.02 0.32
20 8 2 -0.26 0.42
20 2 -8 0.34 0.39
2 8 -20 0.23 0.29
-8 2 -20 -0.23 0.25
2 -8 20 0.06 0.41
20 -2 8 -0.03 0.21
-20 2 8 -0.05 0.23
-2 -8 -20 -0.33 0.24
20 -2 8 0.38 0.24
8 2 -20 -0.13 0.4
2 20 -8 -0.13 0.14
20 8 -2 0.15 0.34
20 -8 2 0.19 0.37
2 -8 -20 0.15 0.24
-8 2 20 -0.25 0.39
-2 -8 20 -0.22 0.41
2 8 20 -0.04 0.23
20 -8 2 0.08 0.17
8 -2 20 0.14 0.21
8 20 2 -0.13 0.23
8 20 2 -0.03 0.15
20 -2 -8 0.24 0.33
-20 -2 8 0.18 0.2
-20 8 2 -0.21 0.15
-8 -2 -20 -0.17 0.17
20 2 8 -0.19 0.12
-2 8 -20 -0.21 0.26
20 2 8 0.6 0.38
-2 20 8 0.33 0.19
-2 20 8 0.22 0.13
8 -4 -20 16.64 1.79
-4 -20 8 17.7 1.51
-20 4 8 15.89 1.66
-4 -8 -20 14.49 1.54
20 -8 -4 17.66 1.96
-8 4 -20 17.32 1.62
-4 8 20 19.58 2.01
8 4 20 15.3 1.74
-20 -8 4 14.66 1.7
4 8 -20 15.93 1.75
4 20 8 16.18 1.61
8 20 -4 15.79 1.74
20 4 -8 17.62 2.03
20 -4 8 18.67 1.75
20 -4 8 18.78 1.63
-8 -4 20 16.66 1.93
20 8 4 17.95 2
4 -8 20 18.52 1.96
4 20 8 17.87 1.56
-4 8 -20 16.69 1.63
-20 -4 8 21.08 1.8
-8 4 20 17.2 1.94
8 -4 20 20 1.88
8 4 -20 13.54 1.76
-8 -4 -20 22.07 1.71
-4 -8 20 16.58 1.91
20 8 -4 16.69 1.87
20 -8 4 21.27 1.63
-4 20 8 16.74 1.35
8 20 4 16.03 1.66
20 4 8 18.35 1.74
20 4 8 19.6 1.65
20 -8 4 19.35 1.85
4 8 20 15.93 1.86
8 20 4 16.67 1.54
20 -4 -8 21.15 2.07
-20 8 4 16.87 1.63
4 -8 -20 17.18 1.7
4 20 -8 18.59 1.61
20 6 -8 4.77 1.05
20 -6 8 4.2 0.67
-8 -6 20 3.98 1
8 -6 -20 5.32 0.85
-6 8 20 4.64 1.02
6 20 8 6.13 0.79
6 -8 20 4.54 1.03
6 8 -20 5.37 0.96
20 -8 -6 6.65 1.21
-6 -8 -20 6.18 0.76
8 6 20 3.77 0.88
8 20 -6 5.21 0.96
6 20 8 5.35 0.75
20 8 6 5.83 1.1
-8 6 -20 4.87 0.75
20 -6 8 5.38 0.81
-6 -20 8 5.54 0.72
-8 -20 6 5.33 0.7
6 -8 -20 6.32 0.88
6 8 20 6.39 0.96
-6 8 -20 5.37 0.72
-20 8 6 6.36 0.83
8 6 -20 5.55 1.02
6 20 -8 4.51 0.85
20 6 8 3.7 0.78
20 6 8 5.45 0.73
-20 -6 8 5.4 0.81
-8 6 20 4.92 1.07
8 20 6 6.31 0.77
20 -6 -8 3.79 0.97
20 -8 6 4.31 0.68
20 8 -6 3.17 0.95
-6 -8 20 4.89 1.04
8 -6 20 3.39 0.87
20 -8 6 5.69 0.86
8 20 6 5.51 0.79
20 8 -8 22.4 2.26
8 8 20 22.38 2.1
20 -8 8 18.62 1.8
20 -8 8 21.27 1.97
8 20 8 17.97 1.85
8 20 8 19.35 1.86
20 -8 -8 21.66 2.26
20 8 8 23.7 2.24
-20 -8 8 20.87 1.97
8 20 -8 24.59 2.14
8 8 -20 21.3 2.12
8 -8 20 17.15 2.08
-8 8 20 19.98 2.17
8 -8 -20 20.85 1.99
-8 -8 20 22.86 2.29
-20 8 8 19.4 1.92
-8 -20 8 21.99 1.84
-8 -8 -20 21.6 1.84
-8 8 -20 18.29 1.78
10 20 0 3.8 0.82
20 0 10 4.19 0.64
0 10 20 3.22 0.82
20 10 0 3.97 0.85
20 -10 0 4.29 0.62
10 0 -20 4.29 0.95
10 0 20 4.45 0.9
20 -10 0 3.81 0.89
0 -10 -20 3.8 0.68
10 20 0 3.47 0.57
20 0 -10 3.3 0.98
-20 -10 0 5.4 0.7
-10 0 -20 4.8 0.65
-10 0 20 4.35 0.98
0 20 10 3.51 0.53
0 20 10 2.23 0.62
0 -10 20 3.45 1.33
20 0 10 3.66 0.76
-20 0 10 4.62 0.85
0 10 -20 5.09 0.88
-2 -20 10 17.59 1.64
10 20 -2 20.23 1.64
2 20 10 20.03 1.86
-20 2 10 19.32 1.87
20 2 -10 19.8 2.18
2 -10 20 18.57 2.05
-10 -2 20 19.17 2.09
20 -2 10 19.8 1.87
10 20 -2 18.06 1.97
-2 10 20 21.16 2.15
-2 -10 -20 22.11 1.8
20 -2 10 19.9 1.75
20 10 2 19.34 1.98
20 10 2 15.18 1.61
10 2 20 17.31 1.88
-20 -10 2 18.29 1.75
2 10 -20 22.47 1.97
20 -10 -2 19.35 2.08
2 20 10 18.8 1.64
-10 2 -20 18.02 1.71
10 2 -20 21.48 2.06
20 2 10 18.12 1.73
-10 2 20 20.78 2.12
20 -2 -10 19.2 2.11
20 10 -2 20.5 2.03
-20 10 2 18.41 1.73
-10 -2 -20 16.91 1.68
10 -2 20 19.21 1.98
20 -10 2 18.55 1.93
20 -10 2 19.31 1.68
2 -10 -20 17.51 1.74
10 20 2 19.11 1.9
10 20 2 19.87 1.68
-2 20 10 23.13 1.67
2 20 -10 18.8 1.64
-2 -10 20 17.49 2.08
2 10 20 20.09 2.09
20 2 10 20.11 1.87
-20 -2 10 17.31 1.81
-2 10 -20 19.54 1.8
4 20 10 51.23 3.37
20 10 4 41.66 3.53
20 4 -10 34.38 3.61
-10 4 -20 44.8 3.35
-20 -10 4 42.16 3.41
-4 10 20 44.23 3.81
-4 -20 10 43.04 3.34
-10 -4 20 43.59 3.8
10 4 20 39.47 3.54
-4 -10 -20 41.68 3.34
20 -4 10 42.67 3.47
20 -4 10 36.72 3.29
20 10 4 45.43 3.34
10 -4 -20 41.92 3.58
4 -10 20 45.7 3.79
4 10 -20 42.05 3.51
-20 4 10 46.58 3.54
10 20 -4 41.15 3.63
4 20 10 41.1 3.43
20 -10 -4 43.35 3.75
10 20 4 45.22 3.33
-20 -4 10 46.1 3.54
20 -4 -10 38.7 3.75
20 10 -4 47.96 3.8
10 20 4 45.76 3.53
20 -10 4 43.02 3.56
4 -10 -20 41.74 3.42
-10 -20 4 42.3 3.29
-10 4 20 47.67 3.86
-10 -4 -20 51.21 3.4
4 20 -10 42.58 3.39
20 -10 4 41.1 3.31
10 4 -20 37.77 3.53
20 4 10 41.07 3.34
20 4 10 42.62 3.48
-4 -10 20 43.29 3.75
-4 10 -20 42.96 3.38
-20 10 4 42.68 3.38
4 10 20 41.05 3.64
10 -4 20 45.06 3.63
10 6 20 2.05 0.68
-20 6 10 2.33 0.63
6 20 10 1.93 0.61
-20 -10 6 2.49 0.59
6 20 10 2.66 0.57
-6 -20 10 2.05 0.53
6 -10 20 1.82 0.65
-10 6 -20 2.36 0.53
20 10 6 2.24 0.5
20 -10 -6 2.23 0.75
-6 -10 -20 2.12 0.53
20 10 6 4.12 0.83
20 6 -10 3.06 0.89
-6 10 20 2.73 0.79
10 -6 -20 2.16 0.65
20 -6 10 1.54 0.5
6 10 -20 1.18 0.58
20 -6 10 2.17 0.51
10 20 -6 2.81 0.85
-10 -6 20 1.96 0.62
6 -10 -20 1.04 0.49
10 20 6 1.91 0.54
10 6 -20 1.8 0.59
-6 -10 20 1.47 0.57
-10 -20 6 1.6 0.46
20 6 10 2.23 0.57
20 -10 6 1.37 0.52
20 10 -6 2.52 0.8
-10 -6 -20 2.39 0.55
10 -6 20 1.19 0.54
6 10 20 1.68 0.61
-10 6 20 1.33 0.67
20 -10 6 2.54 0.55
6 20 -10 2.22 0.56
20 6 10 1.95 0.53
-6 10 -20 1.85 0.49
-20 10 6 1.68 0.46
10 20 6 1.91 0.46
-20 -6 10 2.23 0.56
20 -6 -10 0.92 0.76
10 8 20 1.07 0.49
-8 -20 10 1.12 0.45
20 8 -10 1.08 0.7
-20 -10 8 1.52 0.46
-10 8 -20 1.08 0.4
20 10 8 1.74 0.53
20 10 8 1.59 0.44
-8 -10 -20 0.68 0.29
20 -8 10 0.6 0.35
20 -10 -8 1.09 0.62
10 20 -8 0.81 0.54
8 10 -20 1.42 0.5
-8 10 20 1.17 0.52
-20 8 10 1.07 0.41
10 -8 -20 0.78 0.42
8 20 10 1.14 0.39
8 20 10 1.18 0.45
-10 -8 20 1.04 0.57
20 -8 10 1.31 0.5
8 -10 20 1.79 0.62
8 -10 -20 0.82 0.38
20 -8 -10 -0.34 0.49
10 20 8 0.95 0.43
-20 10 8 0.93 0.4
10 20 8 0.61 0.34
20 -10 8 0.76 0.43
10 -8 20 0.95 0.52
10 8 -20 1 0.48
20 -10 8 0.98 0.36
-20 -8 10 0.42 0.38
20 8 10 0.51 0.31
-10 -20 8 1.04 0.41
-10 -8 -20 1.94 0.5
-8 -10 20 1.07 0.52
-8 10 -20 0.63 0.36
20 10 -8 1.43 0.74
8 10 20 0.1 0.41
8 20 -10 0.66 0.52
-10 10 -20 0.19 0.3
20 -10 10 0.44 0.31
20 -10 -10 0.19 0.44
20 -10 10 0.31 0.32
-10 -10 20 0.33 0.38
10 20 10 0.34 0.35
-10 10 20 0.22 0.33
10 -10 -20 0.4 0.38
10 -10 20 0.3 0.37
10 10 -20 -0.08 0.46
20 10 10 0.3 0.23
20 10 10 0.15 0.3
10 20 -10 0.39 0.47
-20 -10 10 0.03 0.34
-10 -20 10 0.73 0.36
10 10 20 0.3 0.45
-10 -10 -20 0.23 0.29
10 20 10 -0.18 0.25
20 10 -10 -0.12 0.34
-20 10 10 0.11 0.27
20 -12 0 2.32 0.53
20 12 0 3.21 0.91
0 -12 -20 3.11 0.65
12 20 0 3.4 0.61
20 0 -12 3.96 0.99
20 0 12 3.48 0.7
20 -12 0 3.18 0.88
-12 0 -20 2.31 0.6
-12 0 20 3.03 0.84
0 -12 20 4.13 1.03
12 20 0 3.62 0.89
12 0 20 2.96 0.8
20 0 12 3.48 0.71
-20 0 12 3.57 0.81
12 0 -20 2.16 0.74
0 12 -20 5.04 0.78
0 12 20 3.71 0.89
2 -12 20 69.16 5.16
2 12 -20 60.05 4.77
20 12 2 68.02 4.97
20 12 2 63.07 4.59
12 20 -2 59.76 4.54
20 -12 -2 58.71 5
-20 -12 2 60.43 4.67
-2 -12 -20 55.15 4.59
-12 -2 20 60.2 5
-12 2 -20 63 4.61
20 -2 12 68.44 4.78
2 20 12 72.59 4.66
2 20 12 58.42 4.82
20 -2 12 60.46 4.67
20 2 -12 64.62 5.13
-20 2 12 63.46 4.85
12 2 20 61.17 4.84
12 -2 -20 60.79 4.9
12 20 -2 59.82 4.98
-2 12 20 61.75 5.05
-2 -12 20 58.57 5.05
20 -12 2 61 4.59
20 12 -2 58.33 4.96
2 12 20 63.26 5.02
-2 12 -20 60.63 4.68
-12 2 20 61.73 5.04
2 -12 -20 57.17 4.64
20 -12 2 60.27 4.92
12 20 2 61.5 4.9
12 20 2 58.67 4.57
20 -2 -12 64.03 5.11
12 -2 20 61.8 4.89
12 2 -20 68.33 5.04
-20 -2 12 64.17 4.86
20 2 12 56.3 4.68
20 2 12 67.5 4.71
-12 -2 -20 66.69 4.63
12 4 20 145.6 10.28
4 12 -20 136.63 10.23
20 -4 12 134.97 10.09
-4 12 20 134.48 10.48
20 12 4 144.09 10.05
4 -12 20 144.08 10.53
20 -4 12 129.69 10.13
4 20 12 134.96 10.03
4 20 12 162.41 10.38
-12 4 -20 150.21 10.06
20 -12 -4 150.96 10.55
-20 -12 4 146.37 10.15
12 20 -4 153.62 10.55
12 -4 -20 143.71 10.37
-12 -4 20 139.26 10.45
-20 4 12 147.9 10.32
20 4 -12 152.67 10.66
-4 -12 -20 159.79 10.12
20 12 4 142.38 10.31
12 -4 20 142.25 10.34
-12 -4 -20 163.94 10.09
12 4 -20 141.93 10.42
-12 -20 4 144.65 10.06
-12 4 20 151.65 10.56
4 12 20 149.86 10.49
-20 12 4 122.57 10.65
12 20 4 141.38 10.3
12 20 4 141.75 10.05
20 -4 -12 152.51 10.61
20 12 -4 128.46 10.4
-4 12 -20 135.78 10.07
-20 -4 12 138.6 10.26
20 4 12 132.28 10.14
4 -12 -20 144.18 10.14
20 4 12 137.77 10.09
-4 -12 20 136.72 10.52
20 -6 12 30.14 2.69
-6 -20 12 33.21 2.89
20 12 6 38.41 2.73
-20 -12 6 33.76 2.73
6 20 12 36.42 2.89
6 -12 20 30.91 3.03
6 20 12 32.53 2.65
-6 12 20 32.96 3.08
20 6 -12 40.78 3.37
-20 6 12 31.38 2.81
12 6 20 32.51 2.82
-6 -12 -20 35.29 2.7
-12 -6 20 32.31 2.99
-12 6 -20 35.94 2.68
20 -6 12 31.09 2.73
12 20 -6 31.68 3.06
20 12 6 35.55 2.93
6 12 -20 32.17 2.9
12 -6 -20 29.43 2.85
20 6 12 30.39 2.75
12 20 6 32.2 2.83
-12 6 20 32.66 3.04
6 -12 -20 28.82 2.7
-12 -20 6 33.2 2.68
20 6 12 30.19 2.65
20 12 -6 26.09 2.99
12 20 6 35.14 2.71
-20 12 6 34.57 2.72
-12 -6 -20 28.77 2.57
-6 -12 20 28.05 2.99
-6 12 -20 32.07 2.65
20 -12 6 33.32 2.88
20 -12 6 33 2.65
12 6 -20 30.14 2.96
-20 -6 12 32.76 2.82
20 -6 -12 32.03 3.09
12 -6 20 33.64 2.92
6 12 20 32.76 2.94
20 -12 -8 4.49 1.15
-8 12 20 6.48 1.24
8 -12 20 7.13 1.27
-20 -12 8 5.71 0.88
8 12 -20 6.82 1.04
12 -8 -20 7.93 1.15
8 20 12 6 0.97
20 12 8 7.3 1.02
20 8 -12 4.3 1.16
-12 8 -20 5.78 0.77
20 12 8 5.76 0.79
20 -8 12 4.49 0.76
-12 -8 20 5.99 1.17
8 20 12 6.42 0.86
20 -8 12 5.92 0.9
12 20 -8 5.57 1.2
-20 8 12 7.83 1.03
12 8 20 5.14 0.98
-12 -20 8 6.42 0.85
-12 8 20 4.6 1.03
20 8 12 5.62 0.81
12 20 8 4.16 0.82
-20 -8 12 6.82 0.98
-20 12 8 7.2 0.93
-12 -8 -20 6.2 0.82
20 12 -8 5.98 1.25
-8 12 -20 5.83 0.79
12 20 8 6.15 1.09
20 -12 8 5.99 0.86
12 -8 20 5.15 1.03
12 8 -20 6.03 1.18
-8 -12 20 5.63 1.14
8 -12 -20 7 1.02
20 -12 8 5.73 1.04
8 12 20 6.99 1.09
20 -8 -12 4.85 1.13
-12 -10 20 23.64 2.46
-10 -12 -20 25.14 2.3
20 12 10 28.44 2.23
20 10 -12 23.23 2.57
12 -10 -20 23.76 2.42
20 -10 12 23.52 2.23
20 12 10 25.94 2.37
12 10 20 22.98 2.34
-20 10 12 29.09 2.4
10 20 12 24.68 2.31
10 -12 20 24.57 2.5
12 20 -10 27.24 2.65
10 20 12 29.26 2.37
10 12 -20 23.69 2.46
20 -12 -10 29.84 2.74
-10 12 20 21.26 2.53
20 -10 12 25.87 2.33
-12 10 -20 22.77 2.1
-20 -12 10 22.77 2.26
20 10 12 21.51 2.15
20 -12 10 31.17 2.49
-12 10 20 24.64 2.52
12 20 10 19.65 2.22
20 10 12 30.63 2.41
-10 12 -20 26 2.18
20 -12 10 23 2.21
20 -10 -12 26.45 2.68
-10 -12 20 24.93 2.48
12 -10 20 26.28 2.45
12 10 -20 25.04 2.48
20 12 -10 26.32 2.67
12 20 10 24.06 2.26
10 -12 -20 27.24 2.41
10 12 20 26.27 2.47
-20 -10 12 24.76 2.32
-20 12 10 28.52 2.36
12 20 12 54.08 4.61
-12 12 -20 58.3 4.33
-20 12 12 58.93 4.56
20 12 -12 73.6 5.12
20 12 12 51.34 4.45
-12 -12 20 56.7 4.72
20 -12 12 56.64 4.52
-12 12 20 68.37 5.54
20 -12 -12 55.27 4.76
12 12 20 51.17 4.86
12 -12 -20 60.78 4.65
20 -12 12 52.06 4.48
12 12 -20 60.32 4.73
14 0 -20 0.87 0.47
0 -14 20 -0.76 0.36
0 14 20 0.7 0.54
0 14 -20 0.35 0.31
20 0 14 0.38 0.24
20 0 -14 0.31 0.5
20 0 14 0.18 0.25
14 20 0 0.29 0.4
14 20 0 -0.34 0.19
20 14 0 0.12 0.19
-14 0 20 -0.25 0.32
-20 0 14 -0.14 0.35
0 -14 -20 0.06 0.3
20 -14 0 -0.34 0.37
20 -14 0 -0.15 0.17
14 0 20 0.1 0.26
-14 0 -20 -0.06 0.25
20 -14 -2 24.68 2.39
-2 14 20 20.76 2.37
14 20 -2 22.33 1.94
-14 2 -20 23.02 1.96
14 20 -2 22.29 2.39
14 2 20 22.42 2.14
20 14 2 22.05 1.95
14 -2 -20 21.05 2.24
20 -14 -2 25.06 1.99
20 -2 14 22.3 2.04
-20 -14 2 17.89 2.08
-2 -14 -20 26.04 2.06
2 14 -20 24.81 2.18
20 -2 14 24.76 2.09
-20 2 14 24.13 2.26
2 -14 20 18.4 2.29
20 2 -14 20.91 2.35
-14 -2 20 22.53 2.27
2 14 20 23.04 2.34
-2 14 -20 21.35 2.02
-2 -14 20 19.61 2.3
20 -14 2 23.09 2.32
20 -14 2 22.77 1.97
-20 -2 14 24.24 2.22
20 2 14 24.2 2.07
14 -2 20 21.89 2.13
-14 -2 -20 22.78 1.95
14 20 2 22.44 1.98
20 2 14 21.4 2.02
-14 2 20 23.73 2.34
14 2 -20 20.91 2.27
20 -2 -14 17.15 2.3
2 -14 -20 24.97 2.07
14 20 2 23.51 2.3
20 14 -2 29.08 3.09
-4 14 20 59.77 4.89
4 14 -20 58.02 4.56
4 -14 20 55.91 4.83
-4 -14 -20 59.3 4.4
14 4 20 59.18 4.59
-14 -4 20 53.73 4.7
14 20 -4 60.36 4.87
20 -4 14 59.03 4.49
20 14 4 60.2 4.39
14 -4 -20 63.88 4.76
-14 4 -20 63.42 4.39
20 -4 14 59.89 4.5
20 4 -14 67.43 5.03
-20 -14 4 63.5 4.63
-20 4 14 56.24 4.63
20 -14 -4 61.32 4.95
-20 -4 14 59.18 4.63
20 -4 -14 56.11 4.84
14 4 -20 61.17 4.78
14 20 4 49.38 4.55
20 4 14 58.59 4.47
-14 -4 -20 53.46 4.32
-4 -14 20 54.63 4.83
14 -4 20 58.01 4.62
-14 4 20 67.76 4.91
4 14 20 50.88 4.65
20 14 -4 51.01 4.74
20 4 14 59.29 4.47
-14 -20 4 55.94 4.39
4 -14 -20 53.35 4.43
14 20 4 60.46 4.42
-14 -6 20 4.43 0.9
-20 -14 6 3.68 0.73
-6 14 20 3.29 0.91
-20 6 14 2.02 0.63
6 -14 20 4.18 0.97
6 14 -20 3.92 0.83
14 -6 -20 2.22 0.71
-14 6 -20 3.2 0.63
20 -6 14 3.45 0.71
-6 -14 -20 3.29 0.64
14 6 20 3.51 0.76
20 -6 14 4.36 0.81
20 14 6 2.68 0.6
20 6 -14 2.98 0.97
14 20 -6 3.1 0.99
20 14 6 3.13 0.8
14 20 6 3.04 0.81
6 -14 -20 3.1 0.71
-6 14 -20 3.5 0.68
6 14 20 2.69 0.77
20 6 14 4.5 0.79
-14 -20 6 3.17 0.67
20 14 -6 2.73 0.88
20 6 14 2.51 0.6
14 20 6 2.68 0.62
-14 6 20 3.11 0.83
-20 -6 14 2.07 0.64
20 -6 -14 3.62 1.04
14 6 -20 3.08 0.87
14 -6 20 3.74 0.85
-6 -14 20 3.3 0.82
8 -14 20 -0.56 0.41
-8 -14 -20 -0.16 0.24
20 8 -14 -0.32 0.58
20 -8 14 -0.48 0.22
20 -8 14 0.15 0.29
14 8 20 -0.31 0.19
14 -8 -20 -0.38 0.43
8 14 -20 -0.33 0.44
20 14 8 -0.41 0.25
20 14 8 0.07 0.32
-8 14 20 -0.3 0.38
-14 8 -20 -0.14 0.18
-20 8 14 -0.01 0.24
14 -8 20 0.05 0.39
14 8 -20 -0.08 0.32
-8 -14 20 0.83 0.45
-8 14 -20 -0.25 0.23
14 20 8 -0.07 0.25
-14 8 20 -0.31 0.39
-14 -20 8 0.03 0.27
20 -8 -14 0.03 0.34
14 20 8 0.11 0.35
20 14 -8 0.41 0.57
8 -14 -20 0.25 0.4
20 8 14 0.19 0.3
10 14 -20 9.02 1.53
20 14 10 8.68 1.27
-20 -14 10 7.67 1.05
20 -10 14 10.85 1.21
14 -10 -20 9.4 1.36
-10 14 20 10.68 1.5
14 20 10 9.96 1.16
20 -10 -14 8.92 1.44
10 -14 -20 8.82 1.18
-14 10 20 9.49 1.4
-10 -14 20 9.43 1.29
14 20 10 9.26 1.34
10 14 20 9.35 1.25
20 14 -10 7.4 1.57
14 -10 20 6.56 1.13
14 10 -20 10.3 1.66
14 -12 -20 46.85 3.95
12 14 -20 49.88 4.05
20 -12 -14 46.38 4.08
-14 12 20 42.08 3.92
14 -12 20 47.27 3.68
14 -12 20 42.82 3.9
12 -14 -20 47.96 3.87
16 0 20 13 1.26
20 0 -16 10.58 1.58
20 0 16 10.66 1.24
16 20 0 9.33 1.48
0 16 20 11.89 1.58
20 16 0 10.13 1.52
20 16 0 9.83 1.13
20 0 16 10.18 1.24
0 -16 -20 10.12 1.34
0 -16 20 11.54 1.53
0 16 -20 12.85 1.33
16 20 0 10.11 1.15
16 0 -20 11.64 1.62
-20 2 16 -0.26 0.19
2 -16 20 -0.02 0.48
20 16 2 0.11 0.28
-2 -16 -20 0.02 0.26
20 2 -16 -0.49 0.39
16 20 -2 -0.22 0.19
2 16 -20 -0.67 0.26
20 -2 16 0.39 0.28
16 2 20 0 0.3
20 -2 16 -0.21 0.17
20 16 2 -0.34 0.41
16 -2 -20 -0.58 0.38
-2 16 20 0.56 0.56
16 20 -2 -0.95 0.37
-2 -16 20 0.62 0.41
2 16 20 0.36 0.34
16 -2 20 0.06 0.26
-16 2 20 -0.44 0.18
16 20 2 -0.07 0.22
16 20 2 -0.1 0.42
16 2 -20 -1.07 0.46
-2 16 -20 0.17 0.31
20 16 -2 0.92 0.58
2 -16 -20 0.43 0.31
16 -2 20 -0.24 0.27
20 -2 -16 -0.75 0.56
4 16 -20 6.73 1.15
16 20 -4 6.67 1.35
16 -4 -20 5.85 1.26
-20 -16 4 7.16 0.94
-4 -16 -20 7.47 0.95
20 16 4 6.22 0.89
-20 4 16 8.19 1.1
-4 16 20 6.06 1.31
20 4 -16 7.58 1.54
20 16 4 6.5 1.2
20 -4 16 7.09 1.1
16 4 20 6.88 0.92
4 -16 -20 7.1 0.98
20 4 16 6.31 0.99
16 -4 20 7.72 0.94
16 20 4 7.22 1.17
-4 -16 20 7.2 1.34
16 -4 20 7.11 1.08
20 -4 -16 7.84 1.27
-16 4 20 8.74 1.24
20 16 -4 6.04 1.32
16 4 -20 7.6 1.36
16 20 4 8.48 1
16 -6 -20 0.33 0.57
20 -6 16 0.06 0.24
-6 -16 -20 0.16 0.28
6 16 -20 -0.61 0.36
20 16 6 0.35 0.45
-20 -16 6 -0.05 0.17
20 16 6 0.07 0.26
16 20 -6 0.09 0.63
-20 6 16 0.09 0.3
20 -6 16 0.21 0.27
-16 -20 6 -0.41 0.19
16 20 6 0.13 0.26
20 16 -6 0.1 0.41
16 -6 20 -0.36 0.28
20 -6 -16 -0.11 0.38
6 16 20 0.28 0.5
16 20 6 1.12 0.56
16 -6 20 0.12 0.37
20 -8 16 10.48 1.41
8 16 -20 13.05 1.65
-20 8 16 13.47 1.57
16 -8 -20 10.9 1.53
20 16 8 11.84 1.58
20 -8 16 13.49 1.44
-20 -16 8 12.55 1.38
16 -8 20 10.77 1.34
20 -8 -16 15.57 1.86
-8 -16 20 16 1.72
20 16 -8 12.84 1.91
16 -8 20 10.71 1.5
16 20 8 13.64 1.56
8 16 20 13.48 1.85
20 -10 16 0.92 0.48
16 -10 -20 0.37 0.52
10 16 -20 0.11 0.58
-20 10 16 1.92 0.51
20 -10 -16 0.54 0.73
10 16 20 1 0.5
16 -10 20 1.12 0.45
18 20 0 21.77 2.16
20 18 0 21.99 1.91
18 20 0 20.56 2.31
20 18 0 16.51 2.19
18 20 -2 -0.3 0.55
20 18 2 0.71 0.4
20 18 2 -1 0.46
18 20 2 0.55 0.31
18 20 2 0.05 0.61
20 18 -2 0 0.3
20 18 -2 1.06 0.74
-20 -18 4 15.53 1.66
20 18 4 14.52 1.83
18 20 4 15.69 1.87
20 18 -6 -1.23 0.63
-21 -1 -1 11.84 1.14
-21 -1 1 9.79 1.12
-21 1 -1 10.27 1.12
-21 1 1 12.59 1.19
-1 -1 -21 8.51 1.14
-1 -1 21 11.18 1.5
-1 1 -21 10.2 1.15
-1 1 21 10.99 1.49
1 -1 -21 9.22 1.17
1 -1 21 11.4 1.47
1 1 -21 8.39 1.13
1 1 21 12.61 1.44
21 -1 -1 12.06 1.45
21 -1 1 12.34 1.42
21 1 -1 9.22 1.55
21 3 1 24.1 2.46
-21 1 3 29.12 2.41
-1 -3 -21 22.16 2.3
21 -3 -1 24.77 2.56
21 -1 3 30.03 2.32
-1 3 21 34.45 2.89
3 1 21 24.67 2.56
1 -3 21 30.64 2.96
1 3 -21 29.6 2.53
-21 -3 1 29.84 2.4
-21 3 -1 28.92 2.35
21 -1 3 28.89 2.55
-3 -1 21 25.48 2.64
21 1 -3 25.95 2.62
-3 1 -21 27.32 2.37
3 -1 -21 31.2 2.52
-3 1 21 28.59 2.72
3 -1 21 28.27 2.66
-1 3 -21 28.49 2.42
1 -3 -21 28.75 2.44
-1 -3 21 24.16 2.64
21 -3 1 30.54 2.59
21 3 -1 24.27 2.53
-21 -1 3 27.82 2.38
3 1 -21 28.82 2.48
21 1 3 34.38 2.87
-21 3 1 27.79 2.37
-3 -1 -21 33.34 2.44
-21 -3 -1 27.63 2.33
1 3 21 28.59 2.65
21 -1 -3 33.32 2.74
3 -3 21 76.6 6.56
3 3 -21 81.31 6.42
3 3 21 89.17 6.65
3 21 3 84.16 6.01
3 21 3 86.11 5.99
-3 3 -21 84.1 6.33
-3 3 21 88.85 6.76
3 -3 -21 96.12 6.5
-3 -3 -21 86.53 6.32
-3 -3 21 83.5 6.69
-21 -3 3 85.16 6.35
-21 3 3 85.69 6.35
21 3 -3 75.88 6.53
21 3 3 85.43 6.49
21 3 3 91.84 6.27
21 -3 3 94.63 6.28
21 -3 3 95.77 6.58
21 -3 -3 100.88 6.76
-1 5 21 13.78 1.64
1 -5 21 10.94 1.52
1 5 -21 12.44 1.36
21 5 1 16.55 1.59
5 21 -1 12.52 1.22
5 21 -1 13.47 1.07
5 -1 -21 13.39 1.45
5 1 21 13.82 1.57
21 -5 -1 14.06 1.59
21 1 -5 11.94 1.55
21 -1 5 12.79 1.24
-5 1 -21 13.63 1.34
-21 1 5 13.58 1.36
-1 -5 -21 13.38 1.34
-5 -1 21 13.35 1.7
-21 -5 1 11.69 1.27
21 -1 5 11.64 1.39
-21 -1 5 12.73 1.34
5 1 -21 11.32 1.36
21 1 5 12.15 1.41
21 1 5 12.09 1.24
21 -5 1 15.84 1.61
-21 -5 -1 12.86 1.29
5 21 1 11.69 1.07
-21 5 1 12.5 1.31
-5 -1 -21 11.13 1.28
-5 1 21 13.75 1.72
-1 -5 21 12.55 1.66
-1 5 -21 12.37 1.32
5 21 1 11.83 1.22
5 -1 21 16.24 1.68
21 5 -1 14.12 1.64
21 -1 -5 13.69 1.61
1 -5 -21 10.37 1.28
1 5 21 11.99 1.5
5 -3 -21 103.19 6.94
3 5 -21 91.56 6.89
-21 -5 3 97.61 6.83
21 5 3 99.48 6.98
21 5 3 102.26 6.72
5 3 21 83.49 6.98
21 -5 -3 92.63 7.09
21 3 -5 77.17 6.98
3 -5 21 107.01 7.2
21 -3 5 93.87 6.96
3 21 5 94 6.58
3 21 5 90.38 6.57
-21 3 5 88.86 6.76
-3 5 21 95.24 7.21
5 21 -3 93.89 6.64
-5 -3 21 87.45 7.14
-5 3 -21 84.75 6.71
21 -3 5 86.75 6.67
5 21 -3 96.14 6.48
3 -5 -21 108 6.95
5 21 3 93.13 6.7
21 -3 -5 85.74 7.1
3 21 -5 92.01 6.37
3 5 21 101.8 7.15
21 -5 3 92.6 6.96
21 3 5 88.69 6.9
-3 -5 21 89.37 7.15
5 -3 21 100.37 7.11
5 3 -21 97.04 6.93
-3 5 -21 97.31 6.81
21 3 5 96.71 6.72
3 21 -5 92.95 6.42
21 5 -3 81.93 6.98
-21 -3 5 92.41 6.79
-5 3 21 105.83 7.6
-21 5 3 94.28 6.78
-5 -3 -21 89.68 6.71
21 -5 3 99.63 6.71
21 5 -5 125.18 8.49
5 -5 -21 114.56 8.17
5 -5 21 108.95 8.34
5 5 -21 117.89 8.21
5 5 21 127.83 8.48
-5 -5 -21 97.66 7.95
-5 -5 21 105.2 8.39
21 -5 5 110.33 7.97
21 -5 -5 100.8 8.35
21 -5 5 111.46 8.21
5 21 5 118.13 7.99
5 21 5 117.09 7.93
-21 -5 5 104.01 8.03
-21 5 5 110.92 8.04
21 5 5 109.41 8.2
21 5 5 116.53 7.99
-5 5 -21 121.77 8.07
-5 5 21 113.84 8.48
5 21 -5 110.77 7.94
7 -1 -21 9.71 1.27
21 -1 7 13.86 1.22
21 7 1 11.06 1.4
7 21 -1 9.53 1.23
-1 -7 -21 11.13 1.18
1 7 -21 9.48 1.18
7 21 -1 11.89 1.03
-21 -7 1 11.1 1.18
21 -7 -1 11 1.43
1 -7 21 11.25 1.52
-7 -1 21 9.87 1.4
-7 1 -21 9.79 1.11
21 1 -7 10.64 1.55
-21 1 7 12.04 1.26
7 1 21 11.2 1.35
21 -1 7 12.17 1.32
-1 7 21 11.97 1.5
-1 -7 21 11.58 1.48
-7 1 21 11.79 1.52
-1 7 -21 11.83 1.26
21 7 -1 12.15 1.43
-21 7 1 8.84 1.11
21 -1 -7 13.12 1.63
7 1 -21 9.53 1.29
7 -1 21 11.05 1.34
-21 -1 7 10.81 1.21
21 1 7 9.3 1.22
21 1 7 8.13 1.08
7 21 1 10.56 1.02
21 -7 1 10.65 1.4
1 7 21 11.3 1.45
1 -7 -21 10.84 1.19
-7 -1 -21 10.85 1.14
7 21 1 10.26 1.25
21 -7 1 12.15 1.14
3 7 -21 13.45 1.51
3 -7 21 12.48 1.63
-21 -7 3 12.53 1.34
21 -7 -3 13.82 1.68
-21 3 7 14.07 1.43
-3 -7 -21 16.45 1.41
7 -3 -21 13.26 1.5
-3 7 21 16.12 1.83
-7 3 -21 14.38 1.38
21 7 3 14.57 1.54
21 -3 7 11.16 1.28
21 3 -7 12.11 1.61
-7 -3 21 11.23 1.61
7 3 21 13.63 1.53
7 21 -3 12.61 1.17
7 21 -3 11.4 1.41
21 7 3 12.93 1.28
3 21 7 15.37 1.34
21 -3 7 14.28 1.52
-3 -21 7 14.63 1.17
21 -7 3 12.47 1.26
-21 7 3 13.08 1.36
21 3 7 11.49 1.42
-7 -3 -21 16.32 1.4
3 7 21 13.99 1.66
21 7 -3 10.77 1.51
-7 3 21 14.48 1.76
3 -7 -21 16.08 1.49
21 -7 3 10.86 1.44
-3 -7 21 14.83 1.74
7 -3 21 14.56 1.6
7 3 -21 15.41 1.59
-3 7 -21 13.72 1.38
-21 -3 7 14.22 1.45
21 -3 -7 11.23 1.58
21 3 7 11.31 1.26
7 21 3 16.03 1.47
7 21 3 13.33 1.24
21 -7 -5 19.8 2.08
21 5 -7 20.25 2.05
7 5 21 16.43 1.85
-21 -7 5 18.27 1.69
-5 7 21 16.31 2
-21 5 7 21.03 1.78
5 21 7 15.76 1.58
-5 -21 7 16.86 1.48
21 -5 7 17.59 1.79
21 -5 7 17.24 1.6
21 7 5 19.82 1.63
-7 5 -21 16.42 1.62
-7 -5 21 17.71 2
5 21 7 17.47 1.72
7 -5 -21 18.91 1.83
21 7 5 17.01 1.79
-5 -7 -21 16.68 1.62
7 21 -5 17.02 1.74
5 -7 21 15.39 1.84
5 7 -21 21.02 1.86
5 7 21 19.91 1.94
-5 -7 21 15.53 1.95
21 5 7 17.63 1.77
-21 -5 7 19.04 1.74
-7 -5 -21 15.56 1.59
21 5 7 17.31 1.6
7 21 5 22.53 1.79
-7 5 21 19.04 2.03
21 -5 -7 18.75 2
7 21 5 15.66 1.57
21 7 -5 16.41 1.95
7 -5 21 17.33 1.88
5 -7 -21 15.55 1.72
7 5 -21 15.38 1.82
-21 7 5 17.58 1.64
-5 7 -21 16.1 1.61
21 -7 5 17.67 1.8
21 -7 5 18.09 1.61
-7 -21 7 13.5 1.2
-7 -7 21 11.63 1.56
21 7 7 12.04 1.36
7 -7 21 9.06 1.38
7 7 -21 12.22 1.48
7 7 21 9.11 1.36
7 21 7 11.41 1.26
21 7 7 11.76 1.21
7 21 7 11.41 1.22
21 -7 -7 8.39 1.46
21 -7 7 11.65 1.36
21 -7 7 12.08 1.22
21 7 -7 12.89 1.59
-21 -7 7 12.11 1.3
-21 7 7 13.05 1.3
-7 7 -21 11.64 1.2
-7 7 21 10.13 1.46
7 -7 -21 9.14 1.24
-7 -7 -21 12.3 1.24
9 21 -1 -0.02 0.38
9 -1 -21 -0.27 0.26
21 9 1 0.03 0.42
-9 1 -21 0.3 0.29
21 -9 -1 0.21 0.42
9 21 -1 0.19 0.22
-1 -9 -21 0.18 0.33
-1 9 21 -0.28 0.39
9 1 21 0.14 0.3
1 -9 21 -0.82 0.28
-21 1 9 0.36 0.31
1 9 -21 -0.01 0.25
-21 -9 1 0.02 0.26
21 1 -9 -0.71 0.34
21 -1 9 0.55 0.33
-9 -1 21 -0.1 0.4
21 -1 9 0.3 0.22
-21 9 1 0.72 0.28
21 9 -1 0.25 0.39
-9 1 21 0.33 0.46
9 21 1 0.19 0.2
21 -9 1 0.74 0.3
21 -9 1 -0.04 0.34
-1 9 -21 -0.32 0.17
9 1 -21 0.54 0.41
1 -9 -21 0.25 0.33
21 1 9 0.38 0.34
21 1 9 0.17 0.22
-9 -1 -21 0.18 0.27
9 21 1 0.94 0.45
-21 -1 9 0.54 0.3
21 -1 -9 0.24 0.42
-1 -9 21 -0.38 0.22
9 -1 21 0.22 0.38
1 9 21 0.22 0.34
-21 -9 3 22.84 2.05
-9 -3 21 23.45 2.38
-9 3 -21 25.44 2.05
9 21 -3 21.6 2.24
21 -3 9 25.31 2.17
-3 9 21 20.58 2.31
21 -9 -3 25.14 2.45
21 9 3 24.79 2.25
9 3 21 21.94 2.22
-21 3 9 24.61 2.15
21 9 3 21.26 1.92
3 9 -21 24.51 2.17
-3 -9 -21 21.6 1.97
9 -3 -21 22.04 2.19
21 -3 9 21.97 1.99
21 3 -9 22.01 2.39
9 21 -3 23.4 1.87
9 3 -21 19.65 2.15
-21 -3 9 24.21 2.16
9 21 3 23.5 1.95
21 -9 3 23.54 2.21
9 21 3 24.48 2.2
9 -3 21 24.49 2.25
-21 9 3 23.11 2.02
-9 3 21 24.51 2.42
-3 9 -21 26.72 2.12
3 9 21 22.11 2.27
21 -9 3 22.15 1.94
21 9 -3 20.93 2.25
21 -3 -9 29.84 2.6
-9 -3 -21 18.74 1.93
21 3 9 22.58 2.13
21 3 9 21.3 1.98
3 -9 -21 21.08 2.02
-3 -9 21 22.91 2.36
-21 -9 5 12.67 1.35
-21 5 9 14.02 1.48
21 9 5 14.87 1.57
5 -9 21 13.08 1.61
-9 5 -21 13.28 1.35
21 9 5 13.2 1.3
9 -5 -21 14.56 1.56
-5 -9 -21 13.04 1.33
9 5 21 12.6 1.51
21 -9 -5 12.54 1.64
21 -5 9 12.39 1.44
-5 9 21 15.74 1.77
21 -5 9 13.95 1.47
9 21 -5 12.45 1.56
5 9 -21 13.12 1.47
21 5 -9 13.63 1.79
-9 -5 21 12.28 1.68
-21 -5 9 15.89 1.5
21 -9 5 13.76 1.35
-5 -9 21 12.31 1.62
9 5 -21 12.07 1.57
-5 9 -21 15.59 1.43
21 -9 5 12.72 1.52
21 5 9 11.94 1.42
21 5 9 11.91 1.32
5 -9 -21 15.34 1.54
5 9 21 13.22 1.59
-9 -21 5 12.76 1.27
9 21 5 11.1 1.4
-21 9 5 13.7 1.4
21 -5 -9 14.65 1.84
-9 5 21 15.23 1.79
9 21 5 13.32 1.3
21 9 -5 15.94 1.82
-9 -5 -21 14.59 1.35
9 -5 21 13.3 1.54
-21 7 9 2.65 0.67
21 -7 9 2.79 0.7
-7 -9 -21 3.23 0.63
21 7 -9 3.13 0.95
-21 -9 7 2.82 0.62
9 -7 -21 2.01 0.59
21 9 7 2.27 0.54
-9 -7 21 3.17 0.86
7 -9 21 1.98 0.73
7 9 -21 2.45 0.64
21 -7 9 2.36 0.57
21 9 7 1.77 0.6
9 7 21 2.06 0.64
21 -9 -7 2.37 0.83
-7 9 21 3.2 0.94
9 21 7 2.25 0.59
7 9 21 2.89 0.74
21 7 9 2 0.55
-21 9 7 4.09 0.64
-9 -7 -21 2.12 0.53
21 -9 7 2.23 0.54
-9 7 21 2.71 0.78
21 7 9 2.96 0.59
9 -7 21 3.08 0.83
9 7 -21 2.52 0.82
21 -9 7 3.25 0.76
9 21 7 2.56 0.59
21 -7 -9 2.29 0.82
-21 -7 9 3.28 0.74
-7 -9 21 2.76 0.8
-7 9 -21 2.48 0.59
21 9 -7 2.57 0.85
-9 -9 21 0.93 0.48
-9 9 21 0.75 0.58
9 -9 -21 0.58 0.41
9 -9 21 0.87 0.56
21 -9 9 0.61 0.33
21 9 -9 -0.12 0.42
21 9 9 0.23 0.29
-9 -9 -21 0.15 0.24
-21 -9 9 0.4 0.22
21 -9 9 0.75 0.4
-21 9 9 0.56 0.37
9 9 21 0.54 0.38
21 9 9 1.08 0.41
-9 9 -21 0.5 0.34
9 9 -21 -0.36 0.26
21 -9 -9 0.53 0.45
-1 -11 -21 6.14 1.34
11 21 -1 6.64 1.25
21 11 1 6.13 1.02
21 11 1 6.1 0.79
11 21 -1 6.89 0.83
-11 1 -21 8.63 0.9
11 -1 -21 6.44 1.03
1 -11 21 5.27 1.19
21 -1 11 6.29 0.93
21 -1 11 6.34 0.89
1 11 -21 6.06 0.99
-21 -11 1 6.58 0.86
21 -11 -1 5.73 0.79
11 1 21 7.29 1.06
21 -11 -1 5.61 1.19
-1 11 21 6.38 1.28
-11 -1 21 7.57 1.15
-21 1 11 7.62 0.99
21 1 11 6.65 0.95
-21 -1 11 6.19 0.92
21 -11 1 7.66 1.17
11 -1 21 7.32 1.07
11 1 -21 7.13 1.17
11 21 1 7.44 0.86
-11 -1 -21 8.48 0.89
21 1 11 6.32 0.89
1 11 21 5.83 1.12
-11 1 21 7.87 1.21
-1 11 -21 4.8 0.83
1 -11 -21 5.96 0.85
21 -1 -11 6.48 1.32
11 21 1 6.52 1.04
21 11 -1 5.95 1.16
21 -11 1 7.94 0.88
-1 -11 21 7.76 1.2
3 -11 21 82.87 6.63
21 3 -11 100.42 6.84
11 -3 -21 86.26 6.47
11 21 -3 85.92 6.54
11 21 -3 84.46 6.07
-11 3 -21 77.41 6.1
-3 -11 -21 94.92 6.24
11 3 21 88.15 6.46
-3 11 21 81.49 6.59
21 -3 11 85.32 6.21
-11 -3 21 78.24 6.52
-21 3 11 82.65 6.32
-21 -11 3 80.98 6.2
21 -3 11 83.4 6.31
21 -11 -3 78.86 6.56
21 11 3 87.77 6.46
3 11 -21 84.74 6.33
-11 -3 -21 88.45 6.16
11 21 3 70.01 6.3
21 -11 3 78.29 6.11
21 11 -3 85.52 6.56
-11 3 21 86.42 6.69
21 3 11 86.58 6.33
-3 -11 21 91.3 6.7
21 3 11 80.38 6.15
21 -11 3 81.16 6.46
-21 11 3 86.98 6.21
11 3 -21 89.8 6.49
3 -11 -21 93.52 6.29
3 11 21 82.87 6.95
11 21 3 86.38 6.12
21 -3 -11 91.9 6.73
11 -3 21 76.33 6.38
-21 -3 11 91.28 6.38
-3 11 -21 85.1 6.22
21 -11 -5 60.87 5.13
-5 -11 -21 66.74 4.73
-11 -5 21 61.21 5.07
-11 5 -21 68.02 4.7
-5 11 21 59.31 5.14
21 5 -11 63.27 5.24
5 11 -21 60.64 4.86
21 11 5 67.41 4.98
11 5 21 65.91 5
5 -11 21 58.24 5.11
11 -5 -21 59.77 4.96
21 -5 11 62.99 4.75
11 21 -5 60.88 5.05
-21 -11 5 64.48 4.79
21 11 5 65.3 4.69
21 -5 11 61.91 4.82
-11 -21 5 64.22 4.69
5 11 21 71.1 5.16
-21 -5 11 63.69 4.87
21 5 11 57.95 4.66
-11 5 21 63.96 5.21
5 -11 -21 63.95 4.8
-5 11 -21 62.87 4.71
21 -11 5 61.24 4.93
21 -11 5 66.12 4.72
21 11 -5 68.34 5.23
11 21 5 60.29 4.86
11 21 5 57.79 4.66
-21 11 5 61.27 4.74
11 -5 21 55.93 4.9
21 -5 -11 61.4 5.14
11 5 -21 49.82 5.67
-5 -11 21 55.56 5.05
-11 -5 -21 69.07 4.7
21 5 11 68.74 4.88
-11 -7 21 4.47 1.04
-21 -11 7 3.93 0.79
11 -7 -21 4.97 1.06
21 11 7 4.93 0.74
21 -7 11 5.36 0.86
-21 7 11 4.44 0.9
21 11 7 4.39 0.95
-7 -11 -21 4.71 0.73
7 -11 21 4.31 1
7 11 -21 3.93 0.98
-7 11 21 4.92 1.18
-11 7 -21 4.1 0.74
21 -11 -7 2.95 0.95
11 7 21 3.48 0.89
21 -7 11 5.5 0.81
21 7 -11 5.16 1.23
7 11 21 4.58 0.97
21 -11 7 5.14 0.76
21 11 -7 4.29 1.12
21 7 11 4.78 0.91
21 7 11 4.29 0.67
11 21 7 6.31 1.18
-11 7 21 4.3 1.06
11 7 -21 5.21 1.07
-7 -11 21 4.31 0.98
-7 11 -21 4.51 0.68
21 -7 -11 4.07 1.05
7 -11 -21 3.42 0.82
-21 -7 11 4.6 0.76
11 -7 21 4.52 0.93
-11 -7 -21 3.3 0.68
11 -9 -21 5.63 1.07
-9 11 21 7.83 1.25
21 9 -11 6.94 1.38
11 9 21 7.48 1.08
-11 9 -21 6.72 0.9
21 -9 11 5.4 0.88
21 -9 11 5.42 1.04
-21 9 11 6.36 0.98
-9 -11 -21 4.88 0.82
21 11 9 6.98 0.93
9 11 -21 8.67 1.27
-21 -11 9 7.05 0.94
-11 -9 21 8.87 1.27
9 -11 21 7.35 1.2
21 11 9 7.24 1.04
-9 -11 21 7.81 1.23
-9 11 -21 7.57 0.89
-21 -9 11 6.94 1
-11 9 21 7.14 1.38
21 9 11 6.65 0.86
21 11 -9 7.13 1.37
21 -11 9 6.4 0.91
9 11 21 7.36 1.08
21 -9 -11 5.86 1.29
21 -11 9 7.07 1.19
-21 11 9 7.16 0.95
-11 -9 -21 7.1 0.89
11 -9 21 6.85 1.09
11 9 -21 6.65 1.25
9 -11 -21 6.33 1.11
21 9 11 5.65 0.93
-11 -11 21 16.72 2.02
21 -11 11 18.75 1.92
-11 11 21 15.39 2.04
11 11 -21 17.7 2.07
21 -11 -11 20.26 2.26
-11 -11 -21 22.15 1.79
-21 11 11 21.51 1.96
21 -11 11 19.51 1.87
21 11 -11 18.65 2.24
11 -11 21 17.41 2.06
11 -11 -21 22.39 2.03
21 11 11 15.86 1.86
-11 11 -21 20.32 1.76
21 1 -13 20.04 2.48
-13 -1 21 18.58 2.04
21 -13 -1 18.67 1.69
21 -1 13 21.88 1.91
-21 -13 1 18.64 1.75
13 21 -1 17.17 2.02
-1 -13 -21 15.83 1.71
13 1 21 19.82 1.95
21 -13 -1 19.01 2.11
-1 13 21 18.1 2.11
21 13 1 20.49 1.72
1 -13 21 21.38 2.26
1 13 -21 17.99 1.83
-13 1 -21 20.89 1.75
21 13 1 17.46 2.03
21 -1 13 18.87 1.8
13 21 -1 20.76 1.75
-21 1 13 18.04 1.89
13 21 1 17.86 1.97
21 1 13 20.28 1.9
21 -13 1 19.32 2.09
-21 -1 13 16.89 1.85
13 1 -21 17.25 1.99
21 -13 1 19.45 1.72
1 13 21 20.24 2.1
-13 1 21 20.97 2.1
13 -1 21 19.1 1.96
1 -13 -21 16.22 1.72
21 1 13 16.5 1.74
13 21 1 23.22 1.91
21 -1 -13 14.3 1.99
-1 -13 21 19.22 2.13
-1 13 -21 20.14 1.85
-13 -1 -21 21.64 1.75
21 13 -1 21.31 2.14
21 -3 13 105.47 7.6
21 -3 13 102.91 7.63
-21 -13 3 104.61 7.58
21 13 3 99.95 7.76
3 13 -21 105.6 7.7
21 13 3 115.36 7.53
-21 3 13 98.57 7.7
13 -3 -21 109.44 7.86
-13 -3 21 94.32 7.84
-13 3 -21 102.95 7.47
13 3 21 96.88 7.7
21 -13 -3 104.31 8
-3 13 21 108.57 8.03
13 21 -3 125.99 9.3
3 -13 21 106.69 8.04
21 3 -13 118.39 8.13
-3 -13 -21 112.41 7.56
21 -13 3 113.31 7.93
13 3 -21 95.66 7.77
-3 -13 21 106.6 8.04
-3 13 -21 94.35 7.51
3 13 21 105.78 7.92
13 -3 21 89.03 7.69
21 -13 3 107.89 7.53
21 13 -3 109.94 7.99
13 21 3 112.68 7.9
21 3 13 97.63 7.6
21 3 13 97.79 7.54
-13 3 21 115.17 8.03
3 -13 -21 105.47 7.58
-13 -3 -21 98.14 7.44
-21 -3 13 110.5 7.77
21 -3 -13 107.25 8.05
21 -13 -5 88.06 6.71
21 13 5 86.36 6.4
21 -5 13 88.24 6.24
21 5 -13 72.69 6.49
-5 -13 -21 87.61 6.12
-21 5 13 74.67 6.26
-21 -13 5 83.57 6.19
21 13 5 74.08 6.05
-13 -5 21 93.42 6.62
5 13 -21 83.94 6.32
-13 5 -21 84.7 6.08
-5 13 21 82.89 6.65
13 -5 -21 80.51 6.41
5 -13 21 80.09 6.57
13 5 21 78.88 6.3
21 -5 13 84.21 6.25
-5 13 -21 81.21 6.12
5 13 21 82.55 6.49
13 -5 21 83.64 6.41
13 5 -21 75.28 6.39
21 -13 5 77.97 6.38
-13 -5 -21 88.11 6.09
5 -13 -21 85.01 6.22
-13 5 21 85.07 6.55
13 21 5 92.25 6.55
-21 -5 13 86.61 6.34
21 13 -5 87.7 6.67
21 -13 5 98.46 6.45
21 5 13 89.88 6.21
-5 -13 21 79.94 6.58
-21 13 5 83.05 6.16
21 5 13 85.59 6.26
21 13 7 4.76 0.72
-7 -13 -21 5.06 0.75
-13 7 -21 5.74 0.74
7 -13 21 6.02 1.28
13 -7 -21 3.93 1.05
-21 7 13 4.6 0.93
-13 -7 21 5.02 1.24
21 13 7 4.31 0.96
21 -7 13 4.53 0.75
21 7 -13 5.03 1.2
21 -7 13 3.44 0.84
-21 -13 7 4.9 0.76
-7 13 21 4.61 1.11
21 -13 -7 5.07 1.22
7 13 -21 4.74 1.01
7 -13 -21 5.75 0.86
13 7 -21 4.17 1.02
-13 7 21 5.69 1.12
21 7 13 6.06 0.93
7 13 21 4.74 1.02
21 -7 -13 5.36 1.25
-7 13 -21 4.53 0.75
-7 -13 21 6.15 1.23
-13 -7 -21 4.54 0.8
21 13 -7 6.81 1.31
13 -7 21 6 1.12
21 13 9 15.6 1.66
21 -9 13 15.49 1.53
-13 9 -21 14.9 1.4
-9 -13 -21 10.01 1.25
9 13 -21 10.77 1.62
-21 9 13 13.48 1.56
13 -9 -21 12.34 1.64
21 -9 13 13.05 1.51
-9 13 21 15.62 1.79
-9 13 -21 14.38 1.38
-9 -13 21 14.36 1.71
21 13 -9 15.22 2.32
21 -9 -13 14.43 1.82
-13 9 21 12.31 1.66
13 9 -21 17.73 1.87
9 13 21 13.29 1.61
9 -13 -21 12.34 1.58
13 -9 21 12.58 1.62
21 -11 13 48.18 4.21
13 -11 -21 49.43 4.29
11 13 -21 59.18 4.54
-13 11 -21 54.6 4.07
-21 11 13 50.65 4.24
-11 13 21 55.1 4.56
-13 11 21 53.05 4.49
11 -13 -21 49.89 4.26
13 -11 21 52.32 4.44
21 -11 -13 53.85 4.57
-11 13 -21 62.14 4.82
1 15 -21 0.53 0.42
1 -15 21 0.44 0.48
21 15 1 -1.14 0.42
15 -1 -21 0.02 0.68
-1 -15 -21 0.68 0.35
21 -1 15 0.09 0.41
21 1 -15 0.81 0.57
21 15 1 1.13 0.38
21 -1 15 -0.01 0.27
21 15 -1 0.96 0.74
-1 15 -21 -0.05 0.33
1 -15 -21 0.18 0.34
-1 -15 21 1.21 0.57
1 15 21 -0.32 0.48
15 1 -21 0.62 0.61
21 1 15 0.48 0.36
21 -1 -15 0.94 0.65
3 -15 21 24.7 2.68
-21 -15 3 26.95 2.26
-3 15 21 19.43 2.48
-21 3 15 30.16 2.85
21 15 3 23.16 2.39
21 -3 15 27.21 2.32
-3 -15 -21 23.29 2.17
3 15 -21 25.86 2.34
21 15 3 26.82 2.18
15 -3 -21 25.19 2.47
21 3 -15 24.92 2.96
21 -3 15 26.74 2.31
3 -15 -21 26.17 2.28
-3 15 -21 25.62 2.24
21 15 -3 22.56 2.56
-3 -15 21 24.77 2.6
21 -3 -15 26.05 2.74
3 15 21 24.59 2.55
-21 -15 5 12.78 1.42
15 -5 -21 15.02 1.77
21 15 5 16.51 1.78
21 15 5 12.23 1.33
5 -15 21 12.85 1.79
-21 5 15 14.3 1.56
-5 15 21 13.49 1.84
21 -5 15 12.77 1.46
21 -5 15 10.12 1.4
5 15 -21 13.34 1.61
-5 -15 -21 13.65 1.36
15 -5 21 13.44 1.6
21 15 -5 17.24 2
21 -5 -15 16.81 1.93
-5 15 -21 15.67 1.62
5 -15 -21 12.63 1.44
5 15 21 14.43 1.73
15 -7 -21 0.5 0.58
21 -7 15 0.85 0.38
-7 -15 -21 0.72 0.36
-21 7 15 0.05 0.38
21 -7 15 0.51 0.46
-7 15 21 0.25 0.42
21 15 7 1.5 0.62
7 15 21 0.19 0.47
7 -15 -21 0.5 0.42
21 -7 -15 0.63 0.71
15 -7 21 1.21 0.63
21 15 -7 -0.17 0.67
21 -9 15 0.35 0.36
21 -9 15 -0.1 0.32
9 15 -21 0.41 0.8
15 -9 -21 0.4 0.6
15 -9 21 0.3 0.31
21 -9 -15 -0.65 0.61
21 17 1 6.1 0.86
21 17 1 7.43 1.2
-1 -17 -21 5.7 0.89
21 17 -1 5.63 0.78
21 17 -1 6.45 1.3
-3 -17 -21 1.18 0.4
21 17 3 0.71 0.66
21 17 -3 2.7 0.94
3 17 21 0.87 0.63
-5 -17 -21 9.67 1.11
21 17 5 10.97 1.88
21 17 -5 8.7 1.67
5 17 21 8.35 1.63
-22 0 0 111.9 8.6
0 0 -22 124.81 8.7
0 0 22 117.76 9.05
22 0 0 133.61 8.98
-22 0 2 2.2 0.53
0 -2 -22 2.15 0.58
0 -2 22 1.97 0.72
0 2 -22 1.39 0.49
0 2 22 1.03 0.62
22 0 -2 2.85 0.75
22 0 2 2.79 0.72
22 0 2 1.96 0.44
22 2 0 3.29 0.74
22 -2 0 2.6 0.73
2 0 -22 1.05 0.43
2 0 22 2.78 0.82
-2 0 -22 2.58 0.61
-2 0 22 0.64 0.6
-22 -2 0 1.48 0.48
-22 2 0 2.04 0.48
-2 -2 22 8.91 1.31
-2 2 -22 10.28 1.14
-22 2 2 8.98 1.08
-2 -2 -22 8.45 1.08
-22 -2 2 9.53 1.06
22 -2 2 8.26 0.98
22 2 -2 8.94 1.25
22 2 2 7.26 1.16
22 2 2 10.36 1.03
2 -2 -22 7.31 1.11
2 -2 22 9.67 1.32
2 2 -22 11.83 1.23
2 2 22 8.81 1.32
22 -2 -2 11.19 1.4
22 -2 2 8.73 1.17
-2 2 22 9.61 1.42
4 0 -22 2.62 0.72
4 0 22 4.06 0.88
22 -4 0 3.63 0.9
22 4 0 4.11 0.88
-22 4 0 3.63 0.6
-4 0 -22 4.6 0.73
-22 0 4 4.97 0.75
0 -4 -22 2.59 0.61
0 -4 22 3.19 0.89
0 4 -22 3.38 0.72
22 0 -4 3.69 0.88
22 0 4 4.32 0.86
22 0 4 4.81 0.67
-22 -4 0 4.33 0.77
-4 0 22 4.35 1.02
-2 4 22 47.96 3.99
22 2 -4 38.98 3.81
22 -2 4 41.4 3.7
22 -2 4 50.02 3.57
4 2 22 46.17 3.88
4 -2 -22 49.39 3.75
-4 -2 22 43.86 3.95
-22 -4 2 40.93 3.55
22 -4 -2 49.66 3.94
2 4 -22 42.23 3.66
-4 2 -22 47.53 3.61
2 -4 22 47.09 3.97
22 4 2 46.38 3.82
22 4 2 39.44 3.46
-2 -4 -22 54.24 3.68
-22 2 4 46.51 3.62
22 -2 -4 49.14 3.95
22 -4 2 49.46 3.54
-4 -2 -22 43.3 3.56
22 -4 2 42.27 3.75
2 -4 -22 46.25 3.66
-4 2 22 45.24 3.96
22 4 -2 50.26 3.93
2 4 22 47.03 3.93
-2 -4 22 49.7 4.06
-2 4 -22 47.25 3.63
4 2 -22 47.68 3.74
22 2 4 44.5 3.5
22 2 4 47.16 3.77
-22 -2 4 46.89 3.63
-22 4 2 47.21 3.61
22 4 4 97.45 6.82
22 4 4 96.05 7.07
22 4 -4 111.45 7.35
-4 -4 22 87.89 7.27
-4 4 -22 104.92 6.94
-4 4 22 92.12 7.3
4 -4 -22 88.33 6.96
4 -4 22 90.91 7.19
4 4 -22 103.24 7.06
4 4 22 101.05 7.23
22 -4 -4 93.2 7.24
22 -4 4 107.51 7.17
22 -4 4 81.62 6.76
-22 -4 4 93.41 6.91
-22 4 4 95.38 6.92
-4 -4 -22 85.61 6.82
6 0 22 7.91 1.27
22 -6 0 8.16 1.23
22 6 0 10.7 1.31
6 0 -22 8.86 1.15
-6 0 22 9.33 1.37
22 0 6 7.25 0.95
-22 0 6 11.66 1.16
0 -6 -22 11.47 1.15
0 -6 22 10.66 1.41
0 6 -22 8.53 1.13
0 6 22 8.01 1.33
22 0 -6 8.56 1.42
22 0 6 7.56 1.13
-22 -6 0 10.27 1.08
-6 0 -22 9.72 1.06
22 6 2 8.46 1.14
-6 2 -22 7.85 0.97
22 2 -6 7.66 1.23
-22 2 6 9.2 1.03
-2 6 22 10.28 1.35
-22 -6 2 9.21 1.04
6 2 22 7.93 1.24
22 -6 -2 10.57 1.29
-6 -2 22 9.35 1.38
2 -6 22 8.33 1.26
2 6 -22 7.96 1.1
6 -2 -22 11.15 1.23
22 6 2 7.75 0.93
22 -2 6 7.61 1.06
22 -2 6 6.72 0.87
-2 -6 -22 6.69 0.91
-22 6 2 6.82 0.92
22 -6 2 7.09 0.88
22 6 -2 7.65 1.15
6 -2 22 6.92 1.11
22 2 6 6.97 1.03
-22 -2 6 7.99 0.98
-2 -6 22 7.55 1.22
-6 2 22 7.43 1.23
-6 -2 -22 7.48 0.94
22 -2 -6 7.14 1.35
6 2 -22 8.04 1.08
-2 6 -22 9.14 1.03
2 6 22 10.03 1.36
22 -6 2 7.83 1.08
22 2 6 8.38 0.96
2 -6 -22 6.21 0.98
-4 -6 -22 63.39 4.43
4 -6 22 49.14 4.65
4 6 -22 66.14 4.62
6 4 22 61.41 4.74
-6 4 -22 52.67 4.34
22 -4 6 60.34 4.64
-22 -6 4 59.85 4.48
22 6 4 67.47 4.43
-22 4 6 59.7 4.47
22 -6 -4 60.61 4.88
22 -4 6 65.1 4.44
-6 -4 22 60.1 4.86
6 -4 -22 51.9 4.48
22 6 4 59.25 4.62
22 4 -6 46.31 4.69
-4 6 22 58.11 4.83
22 4 6 54.72 4.35
4 6 22 57.13 4.7
22 -4 -6 57.25 4.83
22 6 -4 55.2 4.73
22 4 6 59.29 4.61
-4 6 -22 57.61 4.43
4 -6 -22 66.17 4.6
6 -4 22 61.56 4.78
-22 -4 6 54.74 4.43
-6 4 22 53.03 4.79
22 -6 4 52.14 4.57
22 -6 4 64.17 4.4
-22 6 4 64.13 4.5
-6 -4 -22 54.17 4.37
-4 -6 22 56.94 4.83
22 6 -6 26.26 2.69
6 6 22 28.12 2.56
-22 -6 6 24.55 2.27
22 -6 -6 24.54 2.6
22 -6 6 28.7 2.47
-6 6 22 25.65 2.68
6 6 -22 26.11 2.45
-22 6 6 29.33 2.33
-6 -6 -22 29.4 2.28
-6 -6 22 28.07 2.65
-6 6 -22 23.43 2.18
22 6 6 23.98 2.17
22 6 6 26.98 2.44
6 -6 22 29.63 2.62
22 -6 6 22.32 2.17
6 -6 -22 26.57 2.4
-22 -8 0 32.47 2.67
0 -8 22 31.14 3.06
22 0 8 33.86 2.84
22 0 8 32.43 2.67
0 -8 -22 33.57 2.73
8 0 -22 32.33 2.89
22 -8 0 36.65 3.05
22 8 0 31.43 2.93
0 8 22 34.24 3.11
22 0 -8 28.76 2.96
-22 0 8 32.08 2.77
8 0 22 33.83 2.95
-8 0 -22 32.06 2.67
0 8 -22 31.51 2.73
-8 0 22 34.16 3.12
22 2 -8 1.27 0.58
-8 2 -22 1 0.37
-22 -8 2 1.25 0.44
-2 -8 -22 0.92 0.43
-8 -2 22 0.84 0.57
2 8 -22 0.98 0.4
-22 2 8 1.39 0.48
22 8 2 0.82 0.33
22 -2 8 0.92 0.37
22 -8 -2 1.7 0.62
8 2 22 0.73 0.49
8 -2 -22 1.28 0.58
22 -2 8 0.56 0.39
2 -8 22 1.18 0.66
22 8 2 1.07 0.51
-2 8 22 0.86 0.54
-2 8 -22 1.49 0.49
-22 8 2 0.9 0.38
-8 -2 -22 1.31 0.41
2 -8 -22 0.61 0.36
-2 -8 22 -0.02 0.46
22 2 8 0.76 0.35
22 2 8 0.98 0.35
22 -8 2 0.42 0.28
22 8 -2 1.19 0.53
8 -2 22 1.51 0.55
-22 -2 8 1.22 0.43
22 -8 2 1.75 0.62
2 8 22 0.37 0.48
22 -2 -8 1.65 0.64
8 2 -22 1.12 0.5
-8 4 -22 10.1 1.12
-4 8 22 9.07 1.47
22 8 4 9.39 1.05
22 -4 8 10.27 1.25
-22 4 8 10.22 1.16
-4 -8 -22 8.97 1.1
-22 -8 4 11.05 1.15
4 -8 22 9.75 1.36
4 8 -22 10.85 1.24
-8 -4 22 6.38 1.31
8 4 22 10.11 1.29
22 -8 -4 7.7 1.45
22 8 4 9.85 1.27
8 -4 -22 9.16 1.28
22 4 -8 11.03 1.49
22 -4 8 8.55 1.04
-22 8 4 8.16 1.09
22 -8 4 8.42 1.02
-8 4 22 8.38 1.34
4 -8 -22 10.87 1.23
8 4 -22 8.77 1.3
-4 8 -22 9.62 1.1
22 -8 4 9.54 1.29
8 -4 22 9.79 1.39
-4 -8 22 11.37 1.53
4 8 22 10.03 1.33
22 -4 -8 11.13 1.48
22 4 8 11.03 1.32
-22 -4 8 11.71 1.25
-8 -4 -22 10.77 1.15
22 4 8 9.63 1.07
-8 6 -22 -0.02 0.22
22 8 6 0.14 0.27
6 -8 22 0.79 0.49
8 -6 -22 -0.56 0.32
22 8 6 0.62 0.39
-6 8 22 -0.51 0.24
-6 -8 -22 0.68 0.35
22 -6 8 0.23 0.24
6 8 -22 0.26 0.43
8 6 22 0.34 0.43
22 -8 -6 -0.42 0.33
22 -6 8 -0.11 0.16
-22 -8 6 0.82 0.35
22 6 -8 0 0.44
-22 6 8 -0.04 0.19
-8 -6 22 -0.32 0.25
-22 8 6 0.5 0.29
22 6 8 0.37 0.27
22 8 -6 0.25 0.5
6 -8 -22 0.47 0.38
22 -8 6 0.05 0.3
22 6 8 0.41 0.33
6 8 22 0.53 0.44
22 -6 -8 0.64 0.45
22 -8 6 0.26 0.23
-8 6 22 0.2 0.33
-6 -8 22 0.14 0.49
-6 8 -22 0.07 0.26
-22 -6 8 -0.06 0.24
-8 -6 -22 0.3 0.25
8 -6 22 0.46 0.41
8 6 -22 -0.11 0.42
8 8 22 14.62 1.8
-8 -8 -22 17.58 1.58
22 8 -8 17.51 1.98
22 8 8 16.63 1.73
-8 8 -22 15.35 1.57
22 -8 8 17.13 1.62
8 8 -22 17.24 1.87
22 -8 -8 19.71 2.15
-8 -8 22 16.38 1.96
8 -8 22 15.66 1.91
8 -8 -22 17.31 1.75
22 -8 8 15.82 1.71
-22 8 8 18.44 1.7
22 8 8 15.68 1.56
0 -10 -22 12.53 1.3
22 0 10 10.43 1.31
10 0 -22 14.21 1.54
-10 0 -22 10.69 1.18
-10 0 22 10.92 1.53
0 -10 22 8.48 1.59
22 0 10 11.81 1.2
0 10 22 10.8 1.75
22 -10 0 13.16 1.51
0 10 -22 10.95 1.27
22 0 -10 10.72 1.63
10 0 22 10.13 1.33
-22 0 10 10.97 1.28
22 -10 0 8.98 1.08
22 10 0 10.91 1.45
22 10 2 5.69 0.78
22 10 2 5.84 1.08
-22 -10 2 6.4 0.84
-10 -2 22 6.52 1.25
-10 2 -22 5.91 0.79
10 2 22 5.74 0.93
-2 10 22 6.4 1.28
2 -10 22 6.05 1.24
22 -2 10 5.24 0.86
10 -2 -22 5.83 1.08
2 10 -22 5.32 0.97
-22 2 10 5.31 0.85
22 2 -10 4.18 1.04
22 -10 -2 6.18 1.23
22 -2 10 6.04 0.81
-2 -10 -22 5.89 0.8
-10 -2 -22 7.08 0.86
10 2 -22 5.16 1.02
-10 2 22 5.42 1.11
22 -10 2 4.92 0.74
-2 -10 22 9.35 1.36
10 -2 22 4.83 1.05
-22 10 2 5.9 0.81
-22 -2 10 7.05 0.93
22 2 10 3.41 0.8
2 10 22 4.21 1
22 -2 -10 6.18 1.3
22 10 -2 6.78 1.26
-2 10 -22 7.81 0.91
22 -10 2 5.4 1.11
-4 10 22 25.7 2.53
-4 -10 -22 29.86 2.19
4 -10 22 24.7 2.56
4 10 -22 23.77 2.27
22 -4 10 21.77 2.08
22 -4 10 24.16 2.25
-10 -4 22 23.22 2.47
-22 -10 4 23.78 2.15
22 10 4 23.57 2.35
22 4 -10 22.05 2.45
22 10 4 30.33 2.17
-22 4 10 25.48 2.26
10 4 22 25.18 2.4
-10 4 -22 24.1 2.08
22 -10 -4 28.78 2.62
10 -4 -22 21.85 2.28
-22 -4 10 21.36 2.15
10 -4 22 27.61 2.42
-10 4 22 26.35 2.58
22 -4 -10 21.91 2.52
4 -10 -22 20.42 2.1
22 -10 4 22.74 2.07
4 10 22 22.15 2.38
10 4 -22 24.87 2.37
-10 -4 -22 20.78 2.03
-4 -10 22 21.75 2.4
-4 10 -22 25.75 2.15
22 4 10 28.58 2.32
22 4 10 26.03 2.14
22 10 -4 22.8 2.4
-22 10 4 22.69 2.11
22 -10 4 22.51 2.32
-6 -10 -22 4.63 0.77
22 10 6 5.08 1
22 10 6 3.34 0.67
-10 -6 22 3.5 0.88
6 -10 22 2.28 0.84
6 10 -22 3.02 0.94
-22 6 10 3.34 0.73
22 -10 -6 2.01 0.84
-10 6 -22 4.86 0.73
22 -6 10 4.33 0.78
-6 10 22 3.12 0.98
10 6 22 3.68 0.84
-22 -10 6 3.66 0.73
22 6 -10 1.9 0.78
22 -6 10 2.96 0.72
10 -6 -22 3.71 0.86
10 -6 22 4.37 0.98
22 -10 6 2.23 0.73
6 -10 -22 3.28 0.71
-22 -6 10 3.2 0.74
6 10 22 2.97 0.78
22 6 10 3.73 0.82
22 6 10 3.57 0.68
-10 6 22 3.35 0.93
-22 10 6 3.9 0.76
10 6 -22 3.46 0.84
22 -6 -10 5.65 1.13
22 -10 6 3.33 0.67
-6 10 -22 3.96 0.73
-10 -6 -22 2.56 0.57
22 10 -6 3.12 0.96
-6 -10 22 4.4 1.16
10 8 22 3.32 0.83
-22 8 10 1.82 0.58
22 10 8 1.95 0.53
8 -10 22 3.23 0.85
-10 -8 22 3.08 0.82
22 8 -10 0.64 0.74
8 10 -22 1.25 0.58
22 10 8 2.4 0.69
-8 -10 -22 2.43 0.56
-10 8 -22 1.68 0.49
22 -8 10 2.12 0.53
-22 -10 8 1.86 0.55
-8 10 22 3.19 0.93
10 -8 -22 0.95 0.57
22 -10 -8 3.23 0.86
22 -8 10 2.11 0.71
8 -10 -22 1.46 0.55
10 -8 22 0.77 0.48
22 8 10 2 0.67
22 8 10 1.51 0.53
-10 8 22 3.26 0.87
-22 -8 10 1.48 0.54
10 8 -22 2.62 0.75
22 -8 -10 1.29 0.64
-8 -10 22 2.33 0.76
-8 10 -22 1.59 0.51
22 10 -8 1.3 0.62
8 10 22 1.43 0.56
22 -10 8 1.15 0.87
-22 10 8 2.14 0.61
-10 -8 -22 1.83 0.48
-10 10 -22 -0.34 0.27
-10 10 22 0.48 0.36
22 10 10 0.65 0.45
-10 -10 22 -0.22 0.39
10 -10 -22 0.19 0.46
22 10 -10 -0.18 0.49
-22 10 10 0.31 0.33
-10 -10 -22 0.06 0.23
10 -10 22 0.38 0.41
10 10 -22 1.07 0.64
22 -10 10 -0.28 0.33
22 0 12 -0.07 0.26
22 0 12 -0.09 0.29
12 0 22 0.22 0.21
22 0 -12 0.09 0.63
0 12 22 -0.19 0.43
-12 0 -22 0.35 0.27
-12 0 22 -0.03 0.33
12 0 -22 -0.2 0.48
0 12 -22 -0.16 0.29
22 -12 0 -0.44 0.33
22 -12 0 -0.04 0.22
-22 0 12 -0.17 0.28
0 -12 22 -0.13 0.37
22 12 0 0.04 0.37
0 -12 -22 0.04 0.33
2 12 -22 23.29 2.13
22 2 -12 25.9 2.61
12 -2 -22 21.96 2.22
-12 -2 22 23.7 2.38
-2 12 22 23.52 2.45
12 2 22 18.95 2.11
2 -12 22 20.9 2.36
-22 -12 2 21.25 1.99
-22 2 12 19.69 2.07
-2 -12 -22 20.82 1.96
22 -2 12 25.2 2.15
22 -2 12 25.87 2.09
22 -12 -2 23.43 2.4
22 12 2 24.05 2.27
22 12 2 18.31 1.84
-12 2 -22 25.52 2
12 -2 22 21.76 2.18
22 -12 2 19.45 1.9
22 12 -2 22.16 2.3
22 -12 2 20.89 2.3
-2 12 -22 22.05 2.03
-2 -12 22 22 2.39
-12 2 22 24.04 2.36
22 2 12 22.45 2.02
2 -12 -22 17.81 1.91
22 2 12 19.73 2.06
12 2 -22 26.39 2.33
22 -2 -12 25.69 2.49
2 12 22 19.16 2.2
-22 -2 12 25.67 2.18
-12 -2 -22 21.48 1.94
-4 -12 -22 65.79 5.42
-22 -12 4 72.57 5.53
22 -12 -4 75.84 6
12 -4 -22 74.49 5.79
12 4 22 78.06 6.53
4 -12 22 75.87 6.02
4 12 -22 76.44 5.69
-12 4 -22 72.83 5.45
-4 12 22 78.45 6.03
22 4 -12 75.79 6.02
22 -4 12 78.09 5.58
22 -4 12 83.48 5.93
22 12 4 71.34 5.43
-22 4 12 75.51 5.66
-12 -4 22 74.41 5.87
22 12 4 70.23 5.71
22 -4 -12 62.62 5.86
-4 -12 22 75.13 5.99
4 12 22 79.62 5.94
-12 4 22 70.82 5.87
22 4 12 72.12 5.76
-4 12 -22 74.59 5.52
-22 12 4 72.91 5.52
-22 -4 12 76.14 5.71
22 4 12 70.82 5.59
22 12 -4 71.16 5.88
-12 -4 -22 78.98 5.47
4 -12 -22 79.17 5.61
12 -4 22 64.05 5.67
22 -12 4 78.08 5.51
12 4 -22 89.52 5.92
22 -12 4 67.25 5.77
22 -6 12 19.23 1.86
22 6 -12 21.55 2.35
22 -6 12 21.21 1.97
6 -12 22 20.17 2.29
-22 -12 6 19.57 1.87
6 12 -22 17.78 1.93
22 12 6 22.09 1.85
22 12 6 22.81 2.09
-12 6 -22 16.72 1.73
-22 6 12 17.15 1.91
-6 -12 -22 18.75 1.8
12 -6 -22 16.83 1.97
-6 12 22 22.54 2.36
22 -12 -6 19.21 2.29
6 12 22 18.76 2.09
12 -6 22 19.79 2.05
22 -6 -12 18.07 2.27
22 -12 6 21.49 2.15
22 -12 6 19.85 1.83
-12 -6 -22 20.09 1.77
-6 -12 22 18.92 2.17
22 12 -6 22.47 2.3
-6 12 -22 20.57 1.86
6 -12 -22 20.34 1.94
-12 6 22 20.14 2.17
22 6 12 23.1 2.04
-22 12 6 19.87 1.88
12 6 -22 21.16 2.1
22 12 8 0.61 0.43
-12 8 -22 0.1 0.33
-8 -12 -22 0.12 0.27
-22 8 12 0.04 0.23
-8 12 22 0.04 0.39
8 12 -22 -0.17 0.35
22 -8 12 0.27 0.21
22 -8 12 -0.48 0.27
12 -8 -22 0.78 0.52
22 -12 -8 -0.52 0.49
12 8 -22 0.91 0.67
-8 12 -22 0.16 0.33
8 12 22 0.47 0.4
8 -12 -22 0.8 0.46
-8 -12 22 0.98 0.56
22 -8 -12 0.25 0.47
12 -8 22 -0.17 0.39
22 12 -8 0.23 0.5
-12 8 22 0.56 0.49
-12 10 -22 7.03 0.89
22 -10 12 7.66 1.25
-22 10 12 6.89 1.06
22 -10 12 9.04 1.1
10 -12 22 7.88 1.24
12 -10 -22 6.81 1.2
10 12 -22 9.18 1.39
-10 12 -22 6.64 0.94
10 -12 -22 8.11 1.32
22 -10 -12 5.12 1.3
12 -10 22 5.57 1.24
-12 10 22 6.17 1.32
22 14 0 4.18 0.68
0 14 22 3.23 0.97
0 -14 -22 4.3 0.8
-14 0 -22 4.11 0.73
22 14 0 4.55 1.05
0 14 -22 4.16 1.08
22 0 14 5.56 0.98
22 0 -14 3.57 1.08
-22 -14 2 32.73 2.91
-14 2 -22 36.73 2.89
14 -2 -22 32.22 3.47
22 -2 14 37.91 3.06
-2 -14 -22 33.45 2.89
2 -14 22 36.85 3.92
22 14 2 39.61 3.31
-2 14 22 36.18 3.36
22 14 2 36.4 2.89
2 14 -22 36.01 3.05
22 -2 -14 43.74 3.57
2 -14 -22 35.19 2.96
2 14 22 36.27 3.33
-2 14 -22 35.76 2.97
-2 -14 22 32.27 3.31
22 14 -2 35.78 3.32
22 -4 14 81.08 5.9
14 -4 -22 72.07 5.77
4 14 -22 74.48 5.63
22 -4 14 67.54 5.53
-14 4 -22 79.78 5.43
22 14 4 71.79 5.71
-4 -14 -22 77.1 5.47
22 -4 -14 68.83 5.93
22 14 -4 68.45 5.91
-4 14 -22 77.37 5.5
-4 -14 22 67.93 5.92
4 -14 -22 73.57 5.51
4 14 22 70.5 5.83
22 14 6 19.04 2.04
6 14 -22 20.69 2.05
-14 6 -22 18.41 1.75
22 -6 14 19.61 1.95
-6 14 22 17.51 2.22
22 -6 14 20.56 1.92
-6 -14 -22 20.68 1.81
-6 14 -22 17.21 1.77
22 14 -6 17.62 2.28
22 -6 -14 20.62 2.37
-6 -14 22 21.77 2.25
6 14 22 18.82 2.16
6 -14 -22 18.19 1.86
-14 8 -22 1.29 0.43
22 -8 14 1.9 0.61
22 -8 14 1.26 0.48
-8 -14 -22 2.34 0.55
8 14 -22 -0.48 0.47
-8 14 22 0.54 0.52
8 -14 -22 1.29 0.55
-8 -14 22 2.55 0.9
22 -8 -14 1.28 0.68
0 16 22 15.04 1.84
22 16 0 12.97 1.73
0 -16 -22 14.15 1.49
-2 -16 -22 1.61 0.54
-2 16 22 1.01 0.74
2 -16 -22 1.18 0.49
22 16 -2 1.24 0.9
2 16 22 1.47 0.73
-4 -16 -22 2.45 0.57
4 16 -22 3.34 0.94
4 16 22 1.64 0.81
-23 -1 1 62.29 4.53
-23 1 1 58.6 4.49
-1 -1 -23 56.37 4.5
-1 -1 23 57.9 4.9
-1 1 -23 60.54 4.53
-1 1 23 56.95 4.89
1 -1 -23 62.3 4.58
1 -1 23 61.87 4.92
1 1 -23 60.07 4.59
1 1 23 52.67 4.78
23 -1 -1 60.27 4.8
23 -1 1 62.81 4.75
23 1 -1 62.85 4.82
23 1 1 55.6 4.67
-3 -1 23 0.52 0.5
-23 1 3 -0.09 0.21
-1 -3 -23 -0.29 0.26
3 -1 -23 0.12 0.31
-1 3 23 -0.32 0.4
-3 1 -23 -0.04 0.31
1 3 -23 -0.57 0.28
23 -3 -1 -0.05 0.45
23 3 1 -0.44 0.32
23 -1 3 -0.03 0.14
23 1 -3 0.39 0.36
3 1 23 0.07 0.31
-23 -3 1 0.01 0.15
23 3 -1 -0.43 0.2
23 1 3 -0.16 0.37
1 3 23 0.04 0.29
23 -3 1 0.14 0.45
3 -1 23 0.38 0.31
23 1 3 -0.34 0.16
-23 3 1 -0.13 0.16
-3 -1 -23 0.25 0.28
-23 -1 3 -0.31 0.1
1 -3 -23 -0.09 0.2
-3 1 23 -0.1 0.41
-1 3 -23 0.04 0.33
23 -1 -3 0.92 0.5
3 1 -23 0.75 0.44
3 -3 -23 18.82 1.89
-3 3 -23 19.3 1.83
-3 3 23 22.36 2.28
-3 -3 -23 17.54 1.81
-3 -3 23 20.13 2.18
-23 -3 3 20.18 1.87
-23 3 3 18.85 1.81
23 3 3 19.23 2.05
3 -3 23 23.77 2.26
3 3 -23 19.81 1.93
3 3 23 19.28 2.09
23 -3 -3 20.86 2.14
23 -3 3 19.66 2.01
23 -3 3 18.17 1.72
23 3 -3 22.1 2.21
23 3 3 23.57 1.82
-5 -1 23 0.05 0.49
5 1 23 0.53 0.43
23 -5 -1 0.34 0.49
23 1 -5 -0.23 0.35
1 -5 23 -0.53 0.17
-23 1 5 -0.17 0.22
23 5 1 -0.25 0.38
-23 -5 1 -0.23 0.21
23 -1 5 0.12 0.26
-5 1 -23 0.16 0.31
-1 -5 -23 -0.17 0.29
5 -1 -23 0.14 0.39
1 5 -23 -0.19 0.32
-1 5 23 -0.29 0.17
1 -5 -23 0.04 0.34
23 -5 1 -0.27 0.18
-5 1 23 -0.13 0.48
1 5 23 0.24 0.45
23 -1 -5 0.11 0.42
-23 -1 5 -0.33 0.2
23 -5 1 0.42 0.6
23 1 5 -0.15 0.25
-1 5 -23 0.06 0.31
5 1 -23 0.14 0.4
23 1 5 0.17 0.21
5 -1 23 0.24 0.28
23 5 -1 0.34 0.51
-1 -5 23 0.49 0.38
-5 -3 23 33.21 3.18
-23 3 5 33.85 2.81
23 -3 5 30.96 2.72
23 3 -5 29.02 3.08
-3 -5 -23 37.67 2.85
23 -3 5 30.68 2.92
23 5 3 32.56 2.72
3 -5 23 35.07 3.2
-3 5 23 35.93 3.26
-5 3 -23 35.38 2.81
5 3 23 34.86 3.09
-23 -5 3 28.87 2.75
23 -5 -3 34.86 3.67
3 5 -23 37.2 3
23 5 3 35.66 3.04
23 5 -3 30.31 3.08
23 -5 3 37.4 3.09
-3 5 -23 32.09 2.8
-3 -5 23 36.68 3.26
-5 -3 -23 34.36 2.81
23 -5 3 32.79 2.73
23 -3 -5 38.4 3.29
5 3 -23 35.89 2.97
-23 5 3 37.22 2.85
-23 -3 5 35.74 2.84
3 5 23 37.73 3.22
23 3 5 34.01 2.76
-5 3 23 38.24 3.31
5 -3 23 33 3.1
3 -5 -23 34.03 2.88
23 3 5 35.25 2.99
23 5 5 64.84 4.72
23 5 5 56.19 4.9
23 -5 5 55.07 4.66
23 5 -5 61.59 5.14
-23 5 5 62.2 4.8
-5 -5 -23 64.38 4.76
-5 -5 23 69.09 5.27
-5 5 -23 59.94 4.74
-5 5 23 66.24 5.28
5 -5 -23 66.31 4.92
5 -5 23 63.76 5.13
5 5 -23 64.7 4.92
5 5 23 72.87 5.27
23 -5 -5 72.88 5.31
23 -5 5 59.22 4.92
-23 -5 5 64.27 4.82
1 7 -23 29.57 2.51
7 1 23 24.39 2.58
-23 -7 1 25.62 2.35
-23 1 7 28.38 2.43
-1 7 23 26.97 2.72
23 7 1 29.8 2.62
-7 1 -23 32.76 2.43
23 -1 7 28.32 2.35
1 -7 23 25.69 2.72
23 -1 7 28.52 2.55
-7 -1 23 29.62 2.84
23 1 -7 25.82 2.7
7 -1 -23 29.27 2.56
23 -7 -1 30.01 2.75
23 -7 1 28.74 2.65
-23 -1 7 25.89 2.4
23 1 7 31.28 2.39
23 -1 -7 27.36 2.74
7 1 -23 26.9 2.52
1 -7 -23 27.23 2.38
-23 7 1 26.22 2.33
7 -1 23 25.49 2.81
-7 -1 -23 27.15 2.35
-7 1 23 26.17 2.73
-1 7 -23 28.35 2.44
1 7 23 28.43 2.74
23 -7 1 23.01 2.23
23 7 -1 29.65 2.68
23 1 7 31.56 2.58
-1 -7 23 25.48 2.71
23 7 3 0.67 0.55
23 7 3 0.44 0.26
-7 -3 23 1.15 0.61
-3 -7 -23 1.47 0.46
-7 3 -23 0.6 0.34
-3 7 23 1.18 0.69
7 3 23 1.19 0.53
-23 -7 3 0.68 0.37
-23 3 7 1.21 0.42
7 -3 -23 1.54 0.54
23 -3 7 1.04 0.37
23 3 -7 1.52 0.62
3 7 -23 1.58 0.59
23 -7 -3 0.96 0.65
3 -7 23 0.72 0.51
23 -3 7 1.07 0.48
23 7 -3 1.37 0.63
-23 -3 7 0.72 0.36
-7 -3 -23 2.02 0.53
-23 7 3 1.38 0.42
7 -3 23 0.5 0.52
23 -7 3 0.98 0.37
23 -7 3 2.12 0.64
-7 3 23 0.57 0.46
-3 -7 23 0.76 0.49
-3 7 -23 1.72 0.54
7 3 -23 0.55 0.47
3 -7 -23 0.38 0.34
23 3 7 0.73 0.36
23 3 7 1.26 0.52
3 7 23 0.86 0.56
23 -3 -7 1.48 0.73
23 -5 7 9.75 1.13
23 -5 7 12.16 1.42
5 7 -23 9.83 1.25
-7 -5 23 8.6 1.42
23 -7 -5 13.93 1.63
23 7 5 7.52 1
23 5 -7 10.9 1.57
-5 7 23 9.36 1.5
-5 -7 -23 11.32 1.17
-23 5 7 11.38 1.25
23 7 5 11.4 1.33
-7 5 -23 9.06 1.14
7 5 23 13.72 1.53
7 -5 -23 8.44 1.21
5 -7 23 9.03 1.42
-23 -7 5 10.99 1.23
-7 5 23 11.03 1.45
23 -7 5 10.99 1.13
23 5 7 11.28 1.38
23 5 7 9.29 1.08
-7 -5 -23 9.85 1.11
5 -7 -23 7.71 1.14
-5 -7 23 10.44 1.46
-5 7 -23 9.35 1.12
7 -5 23 8.51 1.36
7 5 -23 11.4 1.33
5 7 23 12.84 1.54
23 -5 -7 11.49 1.58
23 -7 5 11.33 1.38
23 7 -5 11.71 1.52
-23 -5 7 8.61 1.13
-23 7 5 11.08 1.22
-23 -7 7 6.14 0.9
-7 7 23 6.92 1.31
7 -7 -23 7.77 1.04
7 -7 23 3.38 1.17
7 7 -23 5.54 1.04
7 7 23 6.47 1.18
23 -7 -7 8.49 1.47
23 -7 7 5.73 0.95
-7 -7 -23 6.72 0.85
23 7 7 5.69 0.79
23 7 7 6.22 1.1
-7 -7 23 5.16 1.21
23 -7 7 5.84 0.84
23 7 -7 7.4 1.36
-23 7 7 5.34 0.82
9 1 23 39.3 3.49
-23 1 9 38.52 3.34
-9 -1 23 41.02 3.71
-9 1 -23 45.91 3.3
23 -1 9 42.64 3.45
23 -1 9 42.8 3.29
23 1 -9 35.57 3.64
23 9 1 43.66 3.57
1 -9 23 43.29 3.75
1 9 -23 40.34 3.38
23 9 1 44.68 3.25
-1 9 23 43.09 3.74
9 -1 -23 39.6 3.46
-23 -9 1 42.15 3.28
23 -9 -1 38.56 3.58
-1 -9 -23 45.23 3.33
23 9 -1 38.88 3.57
-23 -1 9 39.99 3.36
23 -9 1 38.09 3.55
9 1 -23 36.85 3.44
1 -9 -23 42.45 3.34
23 1 9 41.55 3.27
23 -9 1 37.03 3.17
23 -1 -9 30.66 3.54
23 1 9 42.2 3.43
1 9 23 42.96 3.69
-9 1 23 43.14 3.72
-9 -1 -23 45.52 3.3
9 -1 23 44.49 3.58
-1 9 -23 40.5 3.31
-3 9 23 1.16 0.72
23 9 3 0.62 0.27
9 -3 -23 1.54 0.58
23 -3 9 1.16 0.39
-3 -9 -23 0.22 0.36
9 3 23 1.72 0.56
23 -3 9 1.58 0.55
23 3 -9 0.26 0.45
-23 -9 3 0.17 0.25
23 -9 -3 0.83 0.59
-9 3 -23 1.3 0.44
3 -9 23 0.6 0.47
3 9 -23 0.66 0.42
23 9 3 1.29 0.59
-9 -3 23 1.04 0.5
-23 3 9 0.73 0.35
9 -3 23 1.32 0.61
-23 -3 9 1.38 0.42
-3 9 -23 1.33 0.51
23 3 9 0.55 0.46
-23 9 3 1.03 0.4
-9 -3 -23 0.88 0.41
23 -3 -9 0.79 0.55
3 -9 -23 0.77 0.38
-9 3 23 1.4 0.57
3 9 23 0.32 0.36
-3 -9 23 1.15 0.61
23 9 -3 0.65 0.54
23 -9 3 1.51 0.43
23 -9 3 0.52 0.45
9 3 -23 0.85 0.55
23 3 9 0.61 0.33
-9 5 -23 -0.03 0.29
23 5 -9 -0.87 0.5
23 -5 9 -0.2 0.23
23 -5 9 -0.18 0.32
-23 5 9 0.12 0.3
-5 -9 -23 0.27 0.33
-23 -9 5 0.8 0.32
23 9 5 0.48 0.38
9 -5 -23 -0.36 0.39
23 9 5 0.18 0.22
-5 9 23 -0.35 0.33
9 5 23 0.59 0.37
23 -9 -5 -0.45 0.42
5 -9 23 -0.15 0.4
5 9 -23 0.15 0.47
-9 -5 23 0.57 0.54
23 5 9 -0.07 0.18
23 -5 -9 -0.54 0.57
-23 9 5 -0.27 0.24
9 -5 23 -0.34 0.35
9 5 -23 -0.08 0.5
23 -9 5 0.45 0.34
23 -9 5 -0.37 0.18
5 9 23 1.11 0.56
23 5 9 0.01 0.27
23 9 -5 0.58 0.61
-5 -9 23 -0.21 0.32
-5 9 -23 0.52 0.31
-23 -5 9 -0.06 0.17
-9 -5 -23 -0.14 0.18
-9 5 23 0.49 0.4
-9 -7 23 18.73 2.14
-7 9 23 15.69 2.01
-9 7 -23 18.04 1.66
7 9 -23 14.13 1.79
7 -9 23 18.94 2.04
23 -7 9 17.43 1.84
-23 7 9 14.79 1.68
23 -9 -7 16.46 2.11
23 9 7 14.96 1.78
23 7 -9 20.5 2.18
9 -7 -23 20.27 1.93
-7 -9 -23 19.08 1.68
23 -7 9 17.82 1.67
7 -9 -23 16.23 1.77
23 9 -7 19.6 2.25
9 7 -23 17.32 1.93
7 9 23 14.68 1.87
23 -7 -9 20.73 2.21
9 -7 23 18.13 1.95
-7 9 -23 18.33 1.69
23 -9 7 16.31 1.64
23 7 9 20.39 1.95
-9 -7 -23 15.08 1.6
-23 9 7 18.35 1.72
-7 -9 23 17.12 2.03
23 -9 7 19.01 1.92
-9 7 23 19.36 2.12
9 -9 -23 31.09 2.95
-9 9 23 36.87 3.33
-23 9 9 33.29 2.92
-9 -9 -23 34.52 2.82
-9 9 -23 36.79 2.86
23 -9 -9 34.14 3.34
23 -9 9 36.07 3.17
9 -9 23 31.87 3.15
9 9 -23 38.37 3.17
-1 11 23 15.27 1.85
1 11 -23 12.16 1.45
-23 1 11 13.15 1.46
-1 -11 -23 11.67 1.34
23 1 -11 10.77 1.82
1 -11 23 11.88 1.75
23 11 1 12.51 1.6
23 -1 11 12.86 1.47
-23 -11 1 12.98 1.35
23 11 1 13.97 1.34
-11 1 -23 11.16 1.28
11 -1 -23 16.45 1.7
23 -1 11 12.69 1.35
23 -11 -1 11.4 1.28
23 -11 -1 12.82 1.74
11 1 -23 14.93 1.71
23 -11 1 16.9 1.8
23 -11 1 14.15 1.35
23 11 -1 16.23 1.8
23 1 11 13.24 1.38
-11 -1 -23 13.52 1.36
-1 -11 23 14.77 1.78
-1 11 -23 14.51 1.45
1 11 23 13.74 1.76
23 1 11 14.68 1.52
11 -1 23 15.67 1.67
23 -1 -11 10.65 1.89
1 -11 -23 12.41 1.4
-3 -11 -23 8.52 1.04
-23 -11 3 7.75 1.03
3 11 -23 6.25 1.12
23 -3 11 6.78 0.97
-23 3 11 8.3 1.11
-11 3 -23 8.72 0.97
23 -11 -3 8.93 1.57
11 -3 -23 6.93 1.13
-3 11 23 7.34 1.44
23 3 -11 7.07 1.38
23 -3 11 6.79 1.19
3 -11 23 6.54 1.34
23 11 3 7.94 1.26
23 11 3 9.31 1.01
23 11 -3 7.69 1.38
-23 11 3 5.32 0.89
3 11 23 10.12 1.41
23 -3 -11 8.9 1.55
23 -11 3 7.74 0.95
3 -11 -23 9.27 1.08
23 -11 3 9.75 1.32
23 3 11 8.33 1.09
11 3 -23 7.1 1.16
-3 -11 23 7.12 1.36
-3 11 -23 7.57 1.03
11 -3 23 10.17 1.32
-11 -3 -23 5.89 0.92
23 -5 11 9.66 1.15
-5 11 23 12.55 1.61
-23 5 11 10.64 1.24
-5 -11 -23 10.82 1.15
5 11 -23 11.06 1.38
11 -5 -23 9.74 1.33
23 -11 -5 9.26 1.67
5 -11 23 10.64 1.49
-11 5 -23 10.18 1.12
23 11 5 9.3 1.4
23 -5 11 10.3 1.32
-5 11 -23 10.09 1.13
11 5 -23 10.4 1.47
23 -5 -11 11.7 1.69
23 11 -5 9.61 1.74
5 -11 -23 8.93 1.19
11 -5 23 13.05 1.53
23 -11 5 10.45 1.36
-11 -5 -23 7.5 1.14
-23 11 5 8.83 1.12
23 -11 5 9.83 1.14
-5 -11 23 10.04 1.52
5 11 23 11.59 1.51
7 11 -23 1.89 0.7
-11 7 -23 1.05 0.47
7 -11 23 1.22 0.63
23 -7 11 2 0.62
23 -11 -7 0.5 0.68
-23 7 11 1.47 0.49
-7 11 23 1.89 0.78
23 -7 11 2.89 0.66
-7 11 -23 1.92 0.56
11 -7 23 1.71 0.71
23 -11 7 1.51 0.67
7 -11 -23 1.26 0.5
-7 -11 23 2.98 0.82
-23 11 7 1.67 0.54
23 -7 -11 1.52 0.74
-23 9 11 10.16 1.25
23 -9 11 10.55 1.31
23 -11 -9 8.9 1.69
-11 9 -23 11.05 1.19
11 -9 -23 7.68 1.21
23 -9 11 8.47 1.13
-9 11 23 10.77 1.57
9 -11 -23 10.46 1.37
11 -9 23 11.65 1.57
23 -9 -11 10.57 1.84
23 13 1 0.11 0.6
23 -1 13 1.33 0.62
-1 -13 -23 1.31 0.41
1 13 -23 1.11 0.5
-1 13 23 0.43 0.65
1 -13 23 0.97 0.65
23 13 -1 3.26 0.84
1 -13 -23 1.61 0.54
-1 13 -23 1.04 0.53
1 13 23 1.21 0.65
-1 -13 23 1.16 0.65
3 13 -23 37.59 3.23
-3 13 23 38.8 3.59
-3 -13 -23 43.61 3.16
23 13 -3 36.26 3.48
-3 13 -23 36.52 3.1
3 -13 -23 41.55 3.19
23 -3 -13 30.83 3.41
-3 -13 23 34.67 3.48
3 13 23 40.43 3.52
5 -13 23 47.36 4.16
5 13 -23 49 3.89
-5 13 23 44.75 4.14
-5 -13 -23 44.54 3.6
23 -5 13 43.92 3.78
5 -13 -23 49.34 3.78
-5 -13 23 43.86 4.08
-5 13 -23 48.99 3.7
23 -5 -13 45.19 4.19
-7 13 23 2.21 0.82
23 -7 13 1.69 0.59
7 -13 23 2.61 1.04
7 13 -23 0.86 0.69
23 -7 -13 1.58 0.77
-7 13 -23 1.09 0.47
7 -13 -23 1.19 0.7
-1 -15 -23 2.73 0.68
-1 15 23 2.58 0.82
1 15 -23 1.86 0.67
1 -15 -23 3.01 0.69
1 15 23 1.69 0.67
-3 -15 -23 4.11 0.89
3 15 -23 4.38 0.98
-3 15 23 4.26 1.09
3 -15 -23 3.64 0.83
-24 0 0 119.63 8.6
0 0 -24 120.11 8.68
0 0 24 120.05 9.07
24 0 0 123.89 8.97
-24 0 2 33.86 3.04
0 -2 -24 45.43 3.22
0 -2 24 35.39 3.41
0 2 -24 37.91 3.15
0 2 24 37.03 3.49
24 0 -2 38.52 3.43
24 0 2 41.51 3.37
24 0 2 37.29 3
24 -2 0 36.84 3.37
24 2 0 46.06 3.82
2 0 -24 34.56 3.11
-24 -2 0 38.46 3.08
-2 0 -24 43.13 3.17
-2 0 24 34.28 3.43
2 0 24 37.33 3.4
-2 -2 -24 26.58 2.13
24 2 2 26.62 2.38
24 2 2 24.85 2.04
24 -2 -2 24.65 2.43
24 -2 2 27.47 2.4
24 -2 2 17.97 1.91
2 -2 -24 23.11 2.11
2 -2 24 26.53 2.51
2 2 -24 25.32 2.19
2 2 24 21.9 2.33
-24 -2 2 22.96 2.06
-24 2 2 20.99 2.04
-2 2 24 23.85 2.49
-2 -2 24 23.28 2.46
-2 2 -24 16.55 2.16
0 -4 24 1.73 0.68
24 0 4 0.68 0.3
0 -4 -24 0.37 0.3
24 0 -4 0.77 0.59
0 4 24 1.2 0.57
-24 -4 0 0.85 0.34
-4 0 -24 0.88 0.38
-4 0 24 0.46 0.43
4 0 -24 0.3 0.49
4 0 24 -0.01 0.4
24 -4 0 0.27 0.53
0 4 -24 0.88 0.39
24 4 0 0.44 0.43
24 0 4 0.93 0.46
-24 0 4 0.81 0.39
-4 2 -24 0.1 0.29
-24 -4 2 0.7 0.3
2 -4 24 0.38 0.4
24 -2 4 0.26 0.4
-4 -2 24 -0.09 0.5
24 4 2 0.37 0.38
24 4 2 0.24 0.3
4 -2 -24 0.06 0.25
24 -4 -2 1.44 0.52
-24 2 4 0.16 0.25
-2 -4 -24 1.27 0.45
4 2 24 0.19 0.32
-2 4 24 0.28 0.42
2 4 -24 0.68 0.45
24 -2 4 0.09 0.27
4 -2 24 0.55 0.44
-4 2 24 0.23 0.51
2 -4 -24 0.62 0.44
24 -2 -4 1.06 0.57
24 -4 2 0.74 0.52
24 -4 2 0.92 0.33
-2 -4 24 1.25 0.56
-2 4 -24 0.47 0.33
4 2 -24 0.39 0.47
-24 -2 4 0.33 0.33
-4 -2 -24 0.67 0.37
24 4 -2 0.74 0.61
24 2 4 0.51 0.38
24 2 4 0.56 0.34
2 4 24 -0.29 0.48
4 -4 -24 34.86 2.92
-4 4 -24 34.86 2.81
-4 4 24 30.28 3.11
24 4 -4 35.61 3.2
-4 -4 24 35 3.22
-24 -4 4 33.05 2.8
-4 -4 -24 37.22 2.82
24 4 4 35.11 3.02
4 4 24 34.18 3.11
24 4 4 31.34 2.7
4 -4 24 30.28 3.04
4 4 -24 34.11 2.91
24 -4 -4 33.3 3.17
0 -6 24 24.11 2.57
-24 0 6 25.02 2.19
0 6 -24 25.2 2.22
24 6 0 24.79 2.44
6 0 24 23.81 2.41
24 -6 0 29.32 2.59
24 -6 0 24.65 2.1
-6 0 -24 20.86 2.08
-6 0 24 24.87 2.55
6 0 -24 23.27 2.28
0 6 24 26.91 2.61
0 -6 -24 29.21 2.28
24 0 6 24.86 2.33
24 0 6 25.45 2.13
24 0 -6 19.01 2.43
24 6 2 4.59 0.7
24 -6 -2 7.41 1.36
-24 -6 2 6.44 0.85
24 -2 6 5.39 1.04
24 -2 6 6.79 0.83
6 -2 -24 6.56 0.95
-2 -6 -24 5.49 0.93
24 6 2 4.18 0.98
6 2 24 5.61 1.15
2 -6 24 5.34 1.13
2 6 -24 5.28 0.97
-24 2 6 4.26 0.83
-2 6 24 5.64 1.28
-6 2 -24 6.24 0.89
-6 -2 24 5.14 1.15
6 2 -24 3.64 0.92
24 2 6 4.65 0.76
24 -6 2 4.85 1.06
-2 6 -24 6.42 0.89
24 6 -2 6.95 1.11
2 -6 -24 7.48 0.98
-6 2 24 6 1.26
-6 -2 -24 5.93 0.82
24 2 6 7.96 1.15
24 -6 2 5.67 0.78
24 -2 -6 4.41 1.13
-24 6 2 5.64 0.84
-24 -2 6 6.22 0.86
2 6 24 7.71 1.15
6 -2 24 4.58 1.01
-2 -6 24 5.7 1.22
24 4 -6 10.37 1.77
-24 4 6 14 1.47
24 6 4 16.01 1.44
24 -6 -4 13.8 1.82
-6 4 -24 14.74 1.47
6 -4 -24 11.86 1.56
-4 -6 -24 14.37 1.46
24 6 4 15.42 1.76
24 -4 6 13.68 1.64
24 -4 6 13.33 1.43
-24 -6 4 15.43 1.53
4 -6 24 13.61 1.73
4 6 -24 16.61 1.65
-6 -4 24 16.2 1.89
6 4 24 17.35 1.82
-4 6 24 12.69 1.8
-24 -4 6 14.26 1.47
6 -4 24 12.63 1.66
6 4 -24 18.18 1.7
24 4 6 15.15 1.66
24 -4 -6 17.6 1.94
24 -6 4 13.48 1.69
24 -6 4 15.36 1.44
24 6 -4 14.66 1.82
-4 -6 24 17.74 1.92
24 4 6 15.52 1.46
-24 6 4 12.61 1.45
-4 6 -24 16.23 1.53
4 6 24 14.09 1.73
-6 -4 -24 17.28 1.52
4 -6 -24 13.04 1.54
-6 4 24 12.46 1.75
24 -6 6 4.57 0.66
24 -6 6 4.43 0.9
-6 6 24 1.44 0.81
24 -6 -6 4.36 1.03
6 6 24 2.9 0.77
-24 6 6 4.86 0.85
6 6 -24 3.59 0.82
-6 -6 24 3.39 0.99
6 -6 -24 3.41 0.81
6 -6 24 1.66 0.63
-6 6 -24 3.64 0.76
24 6 6 5.88 1.07
-6 -6 -24 3.15 0.65
24 6 -6 6.39 1.31
24 0 -8 67.39 5.99
0 -8 -24 79.38 5.7
24 -8 0 75.18 5.6
-24 0 8 72.07 5.72
0 -8 24 80.45 6.18
0 8 -24 81.33 5.78
0 8 24 73.74 6.11
24 8 0 76.85 5.99
-8 0 -24 72.51 5.62
8 0 -24 85.37 5.92
8 0 24 75.98 6.02
24 0 8 78.64 5.88
24 0 8 84.17 5.7
24 -8 0 69.4 5.96
-8 0 24 76.49 6.11
-24 2 8 46.4 3.72
-2 -8 -24 49.82 3.69
24 8 2 49.52 3.98
-8 2 -24 43.4 3.61
24 -2 8 50.95 3.68
8 -2 -24 38.44 3.95
-8 -2 24 41.86 4.02
-24 -8 2 45.65 3.66
24 8 2 43.04 3.55
24 -2 8 47.77 3.88
-2 8 24 47.14 4.11
24 -8 -2 52.01 4.15
8 2 24 44.97 4.35
2 8 -24 45.37 3.77
24 8 -2 49.53 4.09
2 -8 -24 46.51 3.7
-24 8 2 49 3.68
8 2 -24 48.83 3.85
24 2 8 44.69 3.62
8 -2 24 48.91 4.04
24 -8 2 50.91 4.04
-24 -2 8 44.26 3.7
2 8 24 45.45 4.02
24 -2 -8 51.29 4.17
-8 -2 -24 45.95 3.62
-2 -8 24 41.52 4.05
24 -8 2 44.77 3.6
-8 2 24 47.92 4.1
24 2 8 45.79 3.82
-2 8 -24 50.83 3.79
-4 -8 -24 1.77 0.52
24 -4 8 2.36 0.7
4 -8 24 1.55 0.74
24 -4 8 0.88 0.43
24 4 -8 2.06 0.8
-24 4 8 2.74 0.62
4 8 -24 2.65 0.7
24 8 4 2.28 0.72
24 -8 -4 0.4 0.6
-4 8 24 0.5 0.47
8 -4 -24 2.23 0.69
-8 4 -24 1.83 0.54
-24 8 4 0.98 0.44
-8 4 24 1.47 0.66
-4 8 -24 1.63 0.55
24 4 8 2.74 0.69
-4 -8 24 2.25 0.71
8 -4 24 2.21 0.67
24 -8 4 2.01 0.54
24 8 -4 0.63 0.58
4 8 24 0.66 0.51
4 -8 -24 1.74 0.56
-8 -4 -24 1.61 0.47
24 -8 4 0.25 0.51
-6 -8 -24 19.12 1.62
24 8 6 12.11 1.81
8 -6 -24 17.35 1.81
24 -6 8 18.82 1.83
24 -6 8 13.69 1.52
-8 6 -24 14.12 1.53
6 8 -24 15.34 1.7
6 -8 24 14.32 1.86
-24 6 8 15.79 1.57
24 -8 -6 17.68 2.06
24 -6 -8 14.72 2.04
-6 8 -24 16.15 1.61
6 -8 -24 16.57 1.73
8 -6 24 15.45 1.83
24 8 -6 16.07 2.14
-24 8 6 16.87 1.64
-6 -8 24 16.86 1.98
-8 -6 -24 12.53 1.49
24 -8 6 18.11 1.6
24 -8 6 15.49 1.74
8 6 -24 17.98 1.81
24 -8 8 64.99 4.84
-8 8 -24 63.05 4.55
-24 8 8 60.83 4.6
8 -8 24 54.27 4.87
24 -8 8 59.58 4.54
8 -8 -24 55.49 4.66
24 -8 -8 57.79 5.08
24 -10 0 75.63 5.85
24 10 0 70.09 5.71
0 -10 -24 75.34 5.45
0 -10 24 69.93 5.88
24 -10 0 71.82 5.35
24 0 10 72.37 5.59
0 10 -24 72.41 5.49
0 10 24 80.22 6
24 0 -10 63 5.84
-10 0 -24 75.16 5.43
2 -10 24 26.3 2.77
24 10 2 26.87 2.63
10 -2 -24 22.93 2.67
24 2 -10 24.47 3.38
-2 -10 -24 27.24 2.46
-2 10 24 26.2 2.77
24 -2 10 29.78 2.55
-10 2 -24 32.73 2.4
24 -10 -2 27.41 2.79
2 10 -24 28.45 2.49
24 -2 -10 25.19 2.75
2 10 24 23.98 2.6
2 -10 -24 24.24 2.35
-2 -10 24 28.59 2.84
24 10 -2 28.43 2.77
24 -10 2 25.82 2.27
24 -10 2 26.22 2.62
-2 10 -24 28.41 2.4
24 2 10 26.61 2.53
24 -4 10 1.57 0.56
24 -10 -4 -0.1 0.58
-4 -10 -24 0.77 0.42
4 -10 24 0.98 0.63
24 -4 10 1.48 0.49
-24 4 10 0.68 0.53
-10 4 -24 1.64 0.51
-4 10 24 1.54 0.78
4 10 -24 0.17 0.52
-4 -10 24 0.83 0.42
24 -4 -10 0.58 0.82
-4 10 -24 1.23 0.51
4 -10 -24 1.61 0.57
-24 10 4 1.29 0.45
24 -10 4 1.53 0.75
6 10 -24 8.64 1.35
-10 6 -24 10.68 1.24
24 -6 10 13.43 1.32
-24 6 10 10.81 1.34
6 -10 24 9.58 1.73
24 -10 -6 9.18 1.72
24 -6 10 11.51 1.39
-6 10 -24 13.25 1.31
6 -10 -24 10.76 1.36
24 -6 -10 10.85 1.88
-24 10 6 10.53 1.25
24 -10 6 11.49 1.5
-24 8 10 48.89 3.79
-10 8 -24 43.96 3.8
24 -8 10 45.75 4.02
24 -10 -8 46.66 4.22
8 -10 24 54.32 4.96
24 -8 -10 49.54 4.24
24 -10 8 48.65 3.97
24 -10 8 41.84 3.65
-8 10 -24 46.02 3.64
-24 10 8 44.05 3.69
8 -10 -24 47.65 3.82
0 -12 24 6.57 1.31
0 12 -24 4.81 0.95
0 -12 -24 8.16 1.02
2 -12 24 -0.55 0.33
-2 12 24 -0.22 0.45
2 12 -24 0.89 0.51
-2 -12 -24 1.41 0.45
-2 -12 24 0.01 0.46
-2 12 -24 -0.12 0.39
2 -12 -24 0.21 0.43
4 12 -24 31.8 2.95
4 -12 24 36.79 3.43
4 -12 -24 32.93 2.86
24 -6 12 6.36 1.34
-6 12 -24 5.2 0.83
6 -12 -24 5.71 1.03
-25 -1 1 78 5.78
-25 1 1 83.47 5.81
-1 -1 -25 81.24 5.84
-1 -1 25 79.02 6.26
-1 1 25 79.13 6.27
1 -1 -25 68.66 5.77
1 -1 25 79.53 6.24
1 1 -25 86.27 5.9
1 1 25 68.6 6.13
25 -1 -1 85.92 6.2
25 -1 1 78.44 6.12
25 -1 1 76.57 5.7
25 1 -1 81.04 6.14
25 1 1 80.48 6.13
25 1 1 70.12 5.66
25 1 -3 4.33 1.14
-25 1 3 6.76 0.88
-1 -3 -25 5.12 0.92
3 -1 -25 6.81 1.02
3 1 25 5.41 1.12
-1 3 25 6.61 1.3
-25 -3 1 6.25 0.87
1 -3 25 4.61 1.16
1 3 -25 5.31 0.87
25 3 1 6.83 1.23
25 3 1 8.22 0.88
25 -1 3 6.74 1.07
25 -1 3 6.2 0.84
-3 -1 25 6.21 1.3
-3 1 -25 7.65 0.95
25 -3 -1 6.28 1.22
3 1 -25 6.57 1.06
-1 3 -25 6.75 0.92
25 1 3 5.14 0.76
25 -3 1 6.7 1.26
25 -3 1 6.92 0.87
-25 -1 3 6.84 0.89
1 -3 -25 5.93 0.88
25 -1 -3 6.09 1.22
25 1 3 7.32 1.16
-1 -3 25 5.38 1.18
-25 3 1 6.93 0.89
-3 -1 -25 6.48 0.9
25 3 -1 3.75 1.05
1 3 25 6.96 1.34
-3 1 25 7.88 1.43
3 -1 25 6.25 1.19
25 -3 3 0.95 0.38
25 3 -3 -0.11 0.42
-25 -3 3 1.29 0.43
-25 3 3 0.79 0.34
25 -3 -3 1.88 0.75
25 3 3 0.7 0.51
25 3 3 1.64 0.43
3 -3 -25 1.36 0.5
3 -3 25 0.81 0.65
3 3 -25 0.81 0.49
-3 -3 25 0.57 0.66
-3 3 -25 1.12 0.51
3 3 25 1.39 0.63
-3 -3 -25 1.72 0.47
25 -3 3 1.85 0.6
25 -1 5 9.78 1.16
1 -5 25 12.11 1.65
5 -1 -25 11.23 1.41
25 1 -5 13.79 1.8
-25 1 5 11.35 1.26
-1 5 25 9.69 1.71
25 -5 -1 11.67 1.51
1 5 -25 12.05 1.33
-1 -5 -25 13 1.3
25 5 1 11.55 1.47
25 -1 5 11.81 1.42
1 -5 -25 10.29 1.23
-1 -5 25 10.68 1.61
-1 5 -25 12.56 1.37
25 -5 1 11.34 1.51
25 5 -1 14.41 1.69
-5 -1 -25 10.35 1.25
25 1 5 9.62 1.14
1 5 25 12.81 1.62
25 -1 -5 8.97 1.48
5 1 -25 12.2 1.46
25 -5 1 11.36 1.19
-25 -1 5 9.96 1.22
25 1 5 10.24 1.44
25 -3 5 2.09 0.54
3 5 -25 3.33 0.79
-5 3 -25 2.48 0.64
5 -3 -25 2.42 0.66
25 3 -5 2.77 0.9
25 -5 -3 2.93 0.85
25 -3 5 2.55 0.81
-3 5 25 1.77 0.91
-25 3 5 2.45 0.63
-3 -5 -25 2.67 0.67
3 -5 25 3.04 0.89
25 5 3 2.44 0.81
3 -5 -25 2.05 0.66
5 3 -25 3.7 0.83
25 5 -3 2.78 0.84
25 -3 -5 3.28 1.01
25 -5 3 3.62 0.87
-25 5 3 3.56 0.71
-3 5 -25 3.09 0.71
-5 -3 -25 4.14 0.76
25 3 5 2.52 0.75
25 -5 3 2.98 0.61
25 -5 5 7.45 1.13
25 -5 5 8.38 0.95
-5 -5 -25 7.49 1.17
-5 5 -25 6.9 0.98
-25 5 5 6.7 0.95
5 5 -25 7.77 1.15
25 -5 -5 5.59 1.29
5 -5 -25 6.26 1.12
25 -1 7 56.82 4.42
25 1 -7 67.7 4.83
25 -7 -1 52.31 4.51
1 7 -25 59.08 4.29
7 -1 -25 44.52 4.44
-1 -7 -25 49.18 4.14
-7 1 -25 56.19 4.18
1 -7 25 51.86 4.6
25 -7 1 64.8 4.65
25 -7 1 54.52 4.11
25 1 7 55.79 4.42
25 -1 -7 66.07 4.8
25 7 -1 40.22 4.58
-1 7 -25 52.85 4.23
1 -7 -25 49.69 4.17
-1 -7 25 51.47 4.58
3 -7 25 2.58 1.01
-3 -7 -25 3.07 0.72
-7 3 -25 4.15 0.8
25 -7 -3 5.38 1.23
-25 3 7 3.53 0.84
3 7 -25 5.81 1.02
-3 7 -25 6.07 0.91
3 -7 -25 3.02 0.81
25 -7 3 4.15 0.76
-25 7 3 4.62 0.75
25 -3 -7 3.71 1.07
25 -7 3 5.59 1.14
-25 5 7 1.89 0.55
25 -7 -5 2.22 0.84
25 -5 7 1.08 0.49
25 -5 7 1.58 0.46
-7 5 -25 1.07 0.48
-5 7 -25 1.01 0.47
5 -7 -25 0.67 0.45
-25 7 5 1.16 0.42
25 -5 -7 1.43 0.74
25 -7 5 1.02 0.39
25 -7 5 1.63 0.64
25 -7 7 29.58 2.7
-25 7 7 27.31 2.44
25 -7 -7 29.62 2.96
25 -7 7 25.11 2.33
-1 -9 -25 86.21 6.53
1 9 -25 77.29 6.51
25 -9 -1 89.14 6.45
25 -9 -1 85.48 7
25 -9 1 95.95 6.51
25 -9 1 85.15 6.9
1 -9 -25 103.7 6.63
-1 9 -25 87.22 6.56
25 -9 -3 22.39 2.49
3 9 -25 25.97 2.29
25 -3 9 25.41 2.36
25 -9 3 26.76 2.53
3 -9 -25 23.12 2.15
-25 9 3 21.19 2.07
-3 9 -25 24.32 2.16
25 -9 3 21.38 2.03
25 -5 9 27.53 2.52
25 -9 -5 24.49 2.67
25 -9 5 25.73 2.27
-25 9 5 22.61 2.25
25 -5 -9 25.5 2.73
-5 9 -25 26.97 2.26
25 -9 5 27.33 2.62
25 -7 9 60.35 4.76
25 -9 -7 55.21 4.98
-25 9 7 54.06 4.51
25 -9 7 63.3 4.88
25 -7 -9 60.87 5.12
1 11 -25 13.92 1.59
-1 11 -25 13.13 1.46
-3 11 -25 4.93 0.9
26 0 0 137.23 10.1
26 0 -2 19.77 2.24
26 0 2 20.19 2.21
26 2 0 21.32 2.51
26 -2 0 20.34 1.98
26 -2 0 18.28 2.16
26 -2 -2 2.72 0.9
26 -2 2 1.7 0.7
26 0 4 2.28 0.72
26 0 -4 2.7 1.09
26 -4 0 3.2 0.63
26 -4 0 4.65 1.03
26 -2 4 1.59 0.6
26 -4 -2 -0.21 0.54
-26 4 2 1.43 0.45
26 -2 -4 0.46 0.54
26 -4 2 2.47 0.8
26 -4 2 1.11 0.39
26 -4 -4 8.72 1.71
26 -4 4 12.11 1.48
26 -6 0 38.77 3.03
26 -6 0 35.97 3.44
26 -6 -2 3.73 1.14
26 -6 2 3.9 0.93
26 -6 2 4.47 0.69
26 -4 6 0.99 0.61
26 -6 -4 2.58 0.95
26 -6 4 1.87 0.85
26 -6 -6 -0.28 0.43
26 -6 6 1.63 0.72
26 -8 0 74.82 5.57
26 -8 2 41.74 3.75
26 -8 2 38.27 3.15
26 -8 -4 9.01 2.14
26 -8 4 10.67 1.57
loop_
_platon_missing_refln_index_h
_platon_missing_refln_index_k
_platon_missing_refln_index_l
_platon_missing_refln_theta
1 1 1 1.746
0 0 2 2.016
0 0 6 6.059
