#------------------------------------------------------------------------------
#$Date: 2019-11-26 00:30:21 +0200 (Tue, 26 Nov 2019) $
#$Revision: 242172 $
#$URL: file:///home/coder/svn-repositories/cod/cif/4/13/21/4132129.cif $
#------------------------------------------------------------------------------
#
# This file is available in the Crystallography Open Database (COD),
# http://www.crystallography.net/
#
# All data on this site have been placed in the public domain by the
# contributors.
#
data_4132129
loop_
_publ_author_name
'Chu, Qianli'
'Duncan, Andrew J. E.'
'Papaefstathiou, Giannis S.'
'Hamilton, Tamara D.'
'Atkinson, Manza B. J.'
'Mariappan, S. V. Santhana'
'MacGillivray, Leonard R.'
_publ_section_title
;
 Putting Cocrystal Stoichiometry to Work: A Reactive Hydrogen-Bonded
 &quot;Superassembly&quot; Enables Nanoscale Enlargement of a
 Metal-Organic Rhomboid via a Solid-State Photocycloaddition.
;
_journal_issue                   14
_journal_name_full               'Journal of the American Chemical Society'
_journal_page_first              4940
_journal_page_last               4944
_journal_paper_doi               10.1021/jacs.8b01775
_journal_volume                  140
_journal_year                    2018
_chemical_formula_moiety         '3(C6 H4 Cl2 O2), 2(C18 H14 N2)'
_chemical_formula_sum            'C54 H40 Cl6 N4 O6'
_chemical_formula_weight         1053.60
_chemical_name_common
;
 4,6-diClres,  2-pyr-4-ppyr        
;
_chemical_name_systematic
;
 4,6-dichlororesorcinol, trans-1-(2-pyridyl)-2-(4-(4-phenyl)pyridyl)ethylene)
;
_space_group_crystal_system      triclinic
_space_group_IT_number           2
_space_group_name_Hall           '-P 1'
_space_group_name_H-M_alt        'P -1'
_atom_sites_solution_hydrogens   mixed
_atom_sites_solution_primary     dual
_audit_creation_date             2017-06-14
_audit_creation_method
;
Olex2 1.2
(compiled 2017.03.28 svn.r3405 for OlexSys, GUI svn.r5337)
;
_cell_angle_alpha                85.64(3)
_cell_angle_beta                 80.41(3)
_cell_angle_gamma                65.33(3)
_cell_formula_units_Z            2
_cell_length_a                   11.060(2)
_cell_length_b                   11.180(2)
_cell_length_c                   21.621(4)
_cell_measurement_reflns_used    7944
_cell_measurement_temperature    173(2)
_cell_measurement_theta_max      25.03
_cell_measurement_theta_min      1.00
_cell_volume                     2395.4(10)
_computing_cell_refinement       'HKL Scalepack (Otwinowski & Minor, 1997)'
_computing_data_collection       'Collect (Nonius BV, 1997-2000)'
_computing_data_reduction
;
 HKL Denzo, Scalepack (Otwinowski & Minor, 1997)
;
_computing_molecular_graphics    'Olex2 (Dolomanov et al., 2009)'
_computing_publication_material  'Olex2 (Dolomanov et al., 2009)'
_computing_structure_refinement  'ShelXL (Sheldrick, 2015)'
_computing_structure_solution    'ShelXT (Sheldrick, 2015)'
_diffrn_ambient_temperature      173.15
_diffrn_measured_fraction_theta_full 0.963
_diffrn_measured_fraction_theta_max 0.994
_diffrn_measurement_device_type  'Nonius KappaCCD'
_diffrn_measurement_method       'CCD phi and omega scans'
_diffrn_radiation_type           MoK\a
_diffrn_radiation_wavelength     0.7107
_diffrn_reflns_av_R_equivalents  0.0398
_diffrn_reflns_av_unetI/netI     0.0634
_diffrn_reflns_Laue_measured_fraction_full 0.963
_diffrn_reflns_Laue_measured_fraction_max 0.994
_diffrn_reflns_limit_h_max       13
_diffrn_reflns_limit_h_min       -13
_diffrn_reflns_limit_k_max       13
_diffrn_reflns_limit_k_min       -13
_diffrn_reflns_limit_l_max       25
_diffrn_reflns_limit_l_min       -25
_diffrn_reflns_number            15968
_diffrn_reflns_point_group_measured_fraction_full 0.963
_diffrn_reflns_point_group_measured_fraction_max 0.994
_diffrn_reflns_theta_full        25.241
_diffrn_reflns_theta_max         24.965
_diffrn_reflns_theta_min         2.866
_exptl_absorpt_coefficient_mu    0.416
_exptl_absorpt_correction_type   multi-scan
_exptl_absorpt_process_details   'HKL Scalepack (Otwinowski & Minor, 1997)'
_exptl_crystal_colour            'clear pale yellow'
_exptl_crystal_density_diffrn    1.461
_exptl_crystal_density_method    'not measured'
_exptl_crystal_description       needle
_exptl_crystal_F_000             1084
_exptl_crystal_size_max          0.82
_exptl_crystal_size_mid          0.33
_exptl_crystal_size_min          0.18
_exptl_transmission_factor_max   0.937
_exptl_transmission_factor_min   0.806
_refine_diff_density_max         0.198
_refine_diff_density_min         -0.250
_refine_diff_density_rms         0.048
_refine_ls_extinction_method     none
_refine_ls_goodness_of_fit_ref   1.015
_refine_ls_hydrogen_treatment    mixed
_refine_ls_matrix_type           full
_refine_ls_number_parameters     655
_refine_ls_number_reflns         8361
_refine_ls_number_restraints     0
_refine_ls_restrained_S_all      1.015
_refine_ls_R_factor_all          0.0817
_refine_ls_R_factor_gt           0.0432
_refine_ls_shift/su_max          0.001
_refine_ls_shift/su_mean         0.000
_refine_ls_structure_factor_coef Fsqd
_refine_ls_weighting_details
'w=1/[\s^2^(Fo^2^)+(0.0250P)^2^+1.2330P] where P=(Fo^2^+2Fc^2^)/3'
_refine_ls_weighting_scheme      calc
_refine_ls_wR_factor_gt          0.0777
_refine_ls_wR_factor_ref         0.0895
_reflns_Friedel_coverage         0.000
_reflns_number_gt                5695
_reflns_number_total             8361
_reflns_threshold_expression     'I > 2\s(I)'
_cod_data_source_file            ja8b01775_si_002.cif
_cod_data_source_block           3:2assembly
_cod_original_cell_volume        2395.3(10)
_cod_database_code               4132129
_shelxl_version_number           2014/6
_shelx_space_group_comment
;
The symmetry employed for this shelxl refinement is uniquely defined
by the following loop, which should always be used as a source of
symmetry information in preference to the above space-group names.
They are only intended as comments.
;
_olex2_refinement_description
;
1. Fixed Uiso
 At 1.2 times of:
  All C(H) groups
2.a Aromatic/amide H refined with riding coordinates:
 C2(H2A), C5(H5), C7(H7), C8(H8), C10(H10), C11(H11), C13(H13), C14(H14),
 C16(H16), C17(H17), C18(H18), C19(H19), C21(H21), C22(H22), C23(H23), C24(H24),
  C25(H25), C26(H26), C28(H28), C29(H29), C31(H31), C32(H32), C34(H34),
 C35(H35), C36(H36), C37(H37), C39(H39), C40(H40), C41(H41), C42(H42), C44(H44),
  C47(H47), C50(H50), C53(H53)
;
_shelx_res_file
;
TITL mcg252_a.res in P-1
REM Old TITL MCG252 in P-1
REM SHELXT solution in P-1
REM R1 0.148, Rweak 0.014, Alpha 0.043, Orientation as input
REM Formula found by SHELXT: C56 Cl6 N2 O6
CELL 0.7107 11.0596 11.18 21.6211 85.636 80.414 65.328
ZERR 2 0.0022 0.0022 0.0043 0.03 0.03 0.03
LATT 1
SFAC C H Cl N O
UNIT 108 80 12 8 12
EQIV $1 1-X,1-Y,1-Z
EQIV $2 1-X,2-Y,1-Z
EQIV $3 1+X,+Y,+Z
EQIV $4 -X,-Y,2-Z

L.S. 4
PLAN  -20
TEMP -100
HTAB C47 N4
HTAB C5 N3
HTAB C26 Cl5_$1
HTAB C23 Cl4_$2
HTAB C41 Cl4_$3
HTAB C25 Cl1_$4
HTAB O3 N4
HTAB O1 N3
HTAB O2 N1
HTAB O6 Cl4_$2
HTAB O6 O3_$2
HTAB O4 N2
HTAB O5 Cl3
HTAB O5 O4
BOND $H
list 4
fmap 2
ACTA
CONF
MORE -1
HTAB
SHEL 7.32 0
REM <olex2.extras>
REM <HklSrc "%./MCG252.HKL">
REM </olex2.extras>

WGHT    0.025000    1.233000
FVAR       0.35444
CL1   3    0.149555   -0.309633    1.028526    11.00000    0.04465    0.03124 =
         0.05337   -0.00611   -0.00502   -0.01693
CL2   3   -0.080321    0.076813    1.200374    11.00000    0.03828    0.04634 =
         0.03714   -0.00574    0.00374   -0.01021
CL3   3    0.313381    0.697414    0.456468    11.00000    0.03465    0.05236 =
         0.04196   -0.01710   -0.00487   -0.02024
CL4   3    0.062143    1.081933    0.628676    11.00000    0.02387    0.04249 =
         0.04391   -0.01079    0.00074   -0.01186
CL5   3    0.997731    0.562324    0.180425    11.00000    0.03881    0.05235 =
         0.04224   -0.00557    0.00445   -0.02249
CL6   3    0.745645    0.286398    0.319107    11.00000    0.05984    0.03138 =
         0.04100   -0.00333    0.00356   -0.01901
O1    5    0.050001    0.215081    1.113297    11.00000    0.05558    0.03567 =
         0.04664   -0.00862    0.00462   -0.02366
H1    2    0.100808    0.243145    1.087909    11.00000    0.06070
O2    5    0.261627   -0.134241    0.961346    11.00000    0.05279    0.04069 =
         0.03549   -0.00657    0.00878   -0.02096
H2    2    0.293958   -0.082501    0.941477    11.00000    0.07016
O3    5    0.335795    1.035041    0.645960    11.00000    0.02470    0.03799 =
         0.04115   -0.01357   -0.00594   -0.01126
H3    2    0.422233    1.009031    0.654786    11.00000    0.06604
O4    5    0.559954    0.694110    0.492182    11.00000    0.02276    0.04587 =
         0.03989   -0.01564   -0.00431   -0.00897
H4    2    0.640246    0.682182    0.509281    11.00000    0.08115
O5    5    0.637364    0.506198    0.402121    11.00000    0.03906    0.03804 =
         0.03100   -0.00463   -0.00092   -0.01323
H5A   2    0.605430    0.578163    0.427317    11.00000    0.08995
O6    5    0.855316    0.759084    0.277581    11.00000    0.03635    0.03540 =
         0.05138   -0.00770   -0.00392   -0.01861
H6    2    0.807187    0.820914    0.303595    11.00000    0.06678
N1    4    0.384243    0.017865    0.896113    11.00000    0.05513    0.04181 =
         0.04013    0.00092    0.00761   -0.01624
N2    4    0.777494    0.661800    0.536144    11.00000    0.02646    0.03628 =
         0.03422   -0.00141   -0.00749   -0.01002
N3    4    0.200943    0.315273    1.032692    11.00000    0.06803    0.03969 =
         0.05408   -0.00459   -0.00191   -0.03107
N4    4    0.579412    0.962759    0.671911    11.00000    0.03279    0.04488 =
         0.03271   -0.00484   -0.00479   -0.02007
C1    1    0.120852   -0.153993    1.052849    11.00000    0.02935    0.02545 =
         0.03676   -0.00010   -0.00927   -0.00983
C2    1    0.039744   -0.105403    1.108936    11.00000    0.02610    0.03333 =
         0.03513    0.00490   -0.00629   -0.01195
AFIX  43
H2A   2   -0.000039   -0.156629    1.134191    11.00000   -1.20000
AFIX   0
C3    1    0.016704    0.018576    1.128181    11.00000    0.02306    0.03324 =
         0.03175   -0.00073   -0.00467   -0.00536
C4    1    0.074259    0.094808    1.091633    11.00000    0.03172    0.02751 =
         0.03743    0.00014   -0.00997   -0.00906
C5    1    0.155056    0.043603    1.035400    11.00000    0.03746    0.03074 =
         0.03589    0.00417   -0.00428   -0.01716
AFIX  43
H5    2    0.194040    0.095219    1.009926    11.00000   -1.20000
AFIX   0
C6    1    0.180777   -0.080850    1.015147    11.00000    0.03081    0.03304 =
         0.02986    0.00007   -0.00760   -0.01109

C7    1    0.341845    0.081081    0.843798    11.00000    0.03970    0.04941 =
         0.05121    0.00108   -0.00128   -0.01852
AFIX  43
H7    2    0.262971    0.080337    0.832236    11.00000   -1.20000
AFIX   0
C8    1    0.406715    0.147510    0.805613    11.00000    0.03528    0.04476 =
         0.03769    0.00934   -0.00903   -0.01369
AFIX  43
H8    2    0.371790    0.190694    0.768843    11.00000   -1.20000
AFIX   0
C9    1    0.522300    0.152194    0.820122    11.00000    0.03046    0.02996 =
         0.02723   -0.00118   -0.00614   -0.00565
C10   1    0.566538    0.085821    0.874425    11.00000    0.04691    0.04798 =
         0.03568    0.00569   -0.01289   -0.01774
AFIX  43
H10   2    0.645051    0.084854    0.887228    11.00000   -1.20000
AFIX   0
C11   1    0.495852    0.021168    0.909769    11.00000    0.06819    0.04678 =
         0.03437    0.00598   -0.00828   -0.01680
AFIX  43
H11   2    0.529223   -0.024202    0.946451    11.00000   -1.20000
AFIX   0
C12   1    0.593678    0.222808    0.780519    11.00000    0.02878    0.03245 =
         0.02703   -0.00377   -0.00672   -0.00858
C13   1    0.524006    0.333523    0.745477    11.00000    0.02345    0.04110 =
         0.03533   -0.00087   -0.00706   -0.01084
AFIX  43
H13   2    0.429470    0.363287    0.747456    11.00000   -1.20000
AFIX   0
C14   1    0.589267    0.400342    0.708190    11.00000    0.03145    0.03639 =
         0.03504    0.00178   -0.00958   -0.01116
AFIX  43
H14   2    0.539353    0.474468    0.684458    11.00000   -1.20000
AFIX   0
C15   1    0.728188    0.360644    0.704728    11.00000    0.02872    0.03400 =
         0.03045   -0.00725   -0.00336   -0.01049
C16   1    0.797228    0.251487    0.740323    11.00000    0.02617    0.03895 =
         0.03851   -0.00289   -0.00857   -0.00755
AFIX  43
H16   2    0.891334    0.223200    0.739330    11.00000   -1.20000
AFIX   0
C17   1    0.731920    0.183568    0.776984    11.00000    0.03076    0.03401 =
         0.03356    0.00046   -0.00960   -0.00638
AFIX  43
H17   2    0.782074    0.108693    0.800243    11.00000   -1.20000
AFIX   0
C18   1    0.801488    0.429082    0.665483    11.00000    0.02876    0.03974 =
         0.03789   -0.00715   -0.00315   -0.01160
AFIX  43
H18   2    0.893033    0.401821    0.670395    11.00000   -1.20000
AFIX   0
C19   1    0.754807    0.524928    0.623779    11.00000    0.02801    0.04141 =
         0.03265   -0.00496   -0.00416   -0.01396
AFIX  43
H19   2    0.663305    0.553531    0.618467    11.00000   -1.20000
AFIX   0
C20   1    0.832080    0.589901    0.585493    11.00000    0.02714    0.03052 =
         0.03237   -0.00516   -0.00390   -0.00867
C21   1    0.956079    0.579959    0.597008    11.00000    0.03559    0.05134 =
         0.05126    0.01182   -0.01971   -0.02045
AFIX  43
H21   2    0.992987    0.531582    0.632431    11.00000   -1.20000
AFIX   0
C22   1    1.025490    0.639743    0.557417    11.00000    0.03175    0.05209 =
         0.06091    0.01139   -0.01767   -0.02006
AFIX  43
H22   2    1.111053    0.631477    0.564646    11.00000   -1.20000
AFIX   0
C23   1    0.969168    0.711400    0.507389    11.00000    0.03540    0.04941 =
         0.04902    0.00660   -0.00763   -0.02330
AFIX  43
H23   2    1.014643    0.754030    0.479336    11.00000   -1.20000
AFIX   0
C24   1    0.846086    0.720215    0.498719    11.00000    0.03224    0.04714 =
         0.03665    0.00804   -0.01120   -0.01727
AFIX  43
H24   2    0.807128    0.770688    0.464159    11.00000   -1.20000
AFIX   0

C25   1    0.158369    0.368667    0.978656    11.00000    0.05054    0.04678 =
         0.07028   -0.00578   -0.00544   -0.02669
AFIX  43
H25   2    0.076712    0.368943    0.970137    11.00000   -1.20000
AFIX   0
C26   1    0.225869    0.423181    0.934714    11.00000    0.04514    0.04470 =
         0.05007    0.00171   -0.01155   -0.02494
AFIX  43
H26   2    0.190083    0.460987    0.897357    11.00000   -1.20000
AFIX   0
C27   1    0.346798    0.422839    0.945101    11.00000    0.03930    0.02472 =
         0.03968   -0.00774   -0.00473   -0.01166
C28   1    0.394115    0.362493    0.999980    11.00000    0.05150    0.03688 =
         0.04514   -0.00498   -0.01087   -0.02275
AFIX  43
H28   2    0.478183    0.355913    1.008558    11.00000   -1.20000
AFIX   0
C29   1    0.318404    0.312012    1.042101    11.00000    0.07801    0.03574 =
         0.04377   -0.00065   -0.01219   -0.02685
AFIX  43
H29   2    0.351867    0.272903    1.079768    11.00000   -1.20000
AFIX   0
C30   1    0.417658    0.488724    0.901145    11.00000    0.03521    0.02990 =
         0.03029   -0.00718   -0.00700   -0.01174
C31   1    0.345414    0.604864    0.870529    11.00000    0.03018    0.03944 =
         0.04094   -0.00386   -0.00397   -0.01085
AFIX  43
H31   2    0.250002    0.638583    0.876173    11.00000   -1.20000
AFIX   0
C32   1    0.408982    0.671535    0.832446    11.00000    0.03651    0.03645 =
         0.03756    0.00077   -0.00562   -0.00896
AFIX  43
H32   2    0.357114    0.751317    0.812746    11.00000   -1.20000
AFIX   0
C33   1    0.549128    0.623424    0.822310    11.00000    0.03215    0.03795 =
         0.03278   -0.00829   -0.00207   -0.01441
C34   1    0.621677    0.506220    0.852103    11.00000    0.02819    0.04065 =
         0.04745   -0.00760   -0.00707   -0.01229
AFIX  43
H34   2    0.717198    0.470995    0.845440    11.00000   -1.20000
AFIX   0
C35   1    0.557326    0.440547    0.891043    11.00000    0.03421    0.03206 =
         0.04556   -0.00331   -0.01314   -0.00921
AFIX  43
H35   2    0.608958    0.361385    0.911246    11.00000   -1.20000
AFIX   0
C36   1    0.621263    0.692645    0.783030    11.00000    0.02821    0.04112 =
         0.04307   -0.00885   -0.00161   -0.01136
AFIX  43
H36   2    0.716146    0.655569    0.781712    11.00000   -1.20000
AFIX   0
C37   1    0.569582    0.801062    0.749080    11.00000    0.02776    0.04221 =
         0.04331   -0.00702   -0.00213   -0.01422
AFIX  43
H37   2    0.475151    0.837809    0.748886    11.00000   -1.20000
AFIX   0
C38   1    0.645415    0.868724    0.711993    11.00000    0.02890    0.03546 =
         0.04323   -0.01208   -0.00016   -0.01359
C39   1    0.778899    0.841449    0.716828    11.00000    0.03372    0.04946 =
         0.06720    0.00595   -0.01287   -0.01835
AFIX  43
H39   2    0.824420    0.776904    0.745905    11.00000   -1.20000
AFIX   0
C40   1    0.844012    0.907550    0.679762    11.00000    0.02956    0.05850 =
         0.07262    0.00163   -0.01084   -0.02238
AFIX  43
H40   2    0.935143    0.888342    0.682480    11.00000   -1.20000
AFIX   0
C41   1    0.776801    1.001528    0.638755    11.00000    0.04271    0.06587 =
         0.05109    0.00255   -0.00744   -0.03523
AFIX  43
H41   2    0.820290    1.048369    0.612470    11.00000   -1.20000
AFIX   0
C42   1    0.644570    1.026829    0.636382    11.00000    0.04248    0.05554 =
         0.03815    0.00414   -0.00764   -0.02995
AFIX  43
H42   2    0.597596    1.092827    0.608203    11.00000   -1.20000
AFIX   0

C43   1    0.321380    0.799371    0.511048    11.00000    0.03038    0.03429 =
         0.02398   -0.00154   -0.00625   -0.01764
C44   1    0.204289    0.892733    0.542096    11.00000    0.02470    0.03807 =
         0.03355    0.00001   -0.00791   -0.01437
AFIX  43
H44   2    0.119578    0.903018    0.532675    11.00000   -1.20000
AFIX   0
C45   1    0.210163    0.971152    0.586811    11.00000    0.02180    0.02916 =
         0.02881   -0.00014   -0.00008   -0.01032
C46   1    0.333215    0.958305    0.601068    11.00000    0.03009    0.02467 =
         0.02845    0.00038   -0.00652   -0.01396
C47   1    0.449644    0.866134    0.568199    11.00000    0.02033    0.03429 =
         0.03537   -0.00533   -0.00519   -0.01203
AFIX  43
H47   2    0.534439    0.858271    0.576379    11.00000   -1.20000
AFIX   0
C48   1    0.445875    0.785120    0.523740    11.00000    0.02249    0.03265 =
         0.02697   -0.00003   -0.00201   -0.01095

C49   1    0.889593    0.548079    0.246240    11.00000    0.02610    0.03674 =
         0.03108   -0.00151   -0.00489   -0.01113
C50   1    0.864679    0.436323    0.254805    11.00000    0.03089    0.02766 =
         0.03187   -0.00295   -0.00817   -0.00395
AFIX  43
H50   2    0.905920    0.367570    0.224869    11.00000   -1.20000
AFIX   0
C51   1    0.779367    0.425090    0.307201    11.00000    0.03026    0.02610 =
         0.03259    0.00174   -0.00857   -0.00811
C52   1    0.718235    0.525510    0.351597    11.00000    0.02670    0.03471 =
         0.02648   -0.00113   -0.00646   -0.00799
C53   1    0.743114    0.637956    0.341801    11.00000    0.02744    0.03031 =
         0.03110   -0.00865   -0.00725   -0.00410
AFIX  43
H53   2    0.701147    0.707318    0.371402    11.00000   -1.20000
AFIX   0
C54   1    0.828610    0.650260    0.289251    11.00000    0.02562    0.03367 =
         0.03776   -0.00161   -0.01287   -0.01022
HKLF 4

REM  mcg252_a.res in P-1
REM R1 =  0.0432 for    5695 Fo > 4sig(Fo)  and  0.0817 for all    8361 data
REM    655 parameters refined using      0 restraints

END

WGHT      0.0254      1.2333

REM Instructions for potential hydrogen bonds
HTAB O1 N3
HTAB O2 N1
HTAB O3 N4
HTAB O4 N2
HTAB O5 Cl3
HTAB O5 O4
HTAB O6 Cl4_$2
HTAB O6 O3_$2
HTAB C5 N3
HTAB C23 Cl4_$2
HTAB C25 Cl1_$4
HTAB C26 Cl5_$1
HTAB C41 Cl4_$3
HTAB C47 N4

REM Highest difference peak  0.198,  deepest hole -0.250,  1-sigma level  0.048
Q1    1   0.1219 -0.1566  1.0912  11.00000  0.05    0.20
Q2    1   0.5770  0.2412  0.7485  11.00000  0.05    0.20
Q3    1   0.4876  0.4476  0.8816  11.00000  0.05    0.19
Q4    1   0.9746  0.7189  0.5471  11.00000  0.05    0.19
Q5    1   0.2147  0.6720  0.9051  11.00000  0.05    0.19
Q6    1   0.8788  0.7677  0.7990  11.00000  0.05    0.19
Q7    1   0.0830 -0.0721  1.1301  11.00000  0.05    0.19
Q8    1   0.3815  0.9352  0.5705  11.00000  0.05    0.19
Q9    1   0.3328  0.7392  0.4998  11.00000  0.05    0.19
Q10   1   0.1525 -0.1247  1.0394  11.00000  0.05    0.18
Q11   1   0.0397  1.0193  0.6752  11.00000  0.05    0.18
Q12   1   0.8307  0.6149  0.3282  11.00000  0.05    0.18
Q13   1   0.0775  1.1228  0.5788  11.00000  0.05    0.18
Q14   1   0.8176  0.7705  0.7232  11.00000  0.05    0.18
Q15   1   0.3903  0.5340  0.5091  11.00000  0.05    0.18
Q16   1   0.4825  0.6279  0.8381  11.00000  0.05    0.18
Q17   1   0.7113  0.4902  0.5905  11.00000  0.05    0.17
Q18   1   0.2643  0.7975  0.4115  11.00000  0.05    0.17
Q19   1   0.7681  0.6640  0.3030  11.00000  0.05    0.17
Q20   1   0.9542  0.6852  0.1967  11.00000  0.05    0.17
;
_shelx_res_checksum              54522
_shelx_hkl_file
;
 -13  -7  -6   12.86    6.05
 -13  -7  -5    6.64    6.36
 -13  -7  -4   25.94    7.50
 -13  -7  -3   58.29   11.60
 -13  -6  -7    3.26    7.08
 -13  -6  -6    0.56    8.70
 -13  -6  -5  -11.14    7.21
 -13  -6  -4   59.76    8.26
 -13  -6  -3    0.71    6.23
 -13  -6  -2   -9.31    8.47
 -13  -6  -1   -8.19    8.15
 -13  -5  -7   12.69    8.88
 -13  -5  -6   12.10    6.36
 -13  -5  -5   -7.78    5.63
 -13  -5  -4   17.08    6.67
 -13  -5  -3   47.11    8.97
 -13  -5  -2   11.86    8.01
 -13  -5  -1    8.32    5.63
 -13  -4  -6   -4.78    7.32
 -13  -4  -5   17.87    8.63
 -13  -4  -4   12.94    8.29
 -13  -4  -3  -11.29    5.67
 -12  -9 -10    7.46    5.39
 -12  -9  -9   35.81    5.54
 -12  -9  -8   85.12    7.67
 -12  -9  -7   30.63    8.40
 -12  -9  -6    8.05    4.92
 -12  -9  -5   16.68    5.53
 -12  -9  -4   39.31    5.22
 -12  -9  -3   26.80    5.41
 -12  -9  -2    5.92    5.09
 -12  -9  -1    7.33    5.53
 -12  -9   0   -0.83    5.19
 -12  -9   1   -4.94    5.91
 -12  -9   2   21.33    5.81
 -12  -8 -12   30.36    5.23
 -12  -8 -11   69.49    5.94
 -12  -8 -10    7.92    4.34
 -12  -8  -9    5.92    5.09
 -12  -8  -8   -4.78    3.95
 -12  -8  -7  127.79    8.59
 -12  -8  -6    1.41    4.37
 -12  -8  -5   78.05    5.46
 -12  -8  -4    4.07    4.65
 -12  -8  -3    0.71    3.96
 -12  -8  -2   26.68    4.67
 -12  -8  -1    5.75    5.75
 -12  -8   0   56.15    7.47
 -12  -8   1   -8.46    5.81
 -12  -8   2    0.28    5.67
 -12  -8   3   -5.20    5.91
 -12  -8   4   17.17    7.09
 -12  -7 -13    1.41    4.79
 -12  -7 -12   32.76    4.22
 -12  -7 -11    6.64    4.65
 -12  -7 -10   -1.55    3.82
 -12  -7  -9    9.98    8.54
 -12  -7  -8   17.87    4.22
 -12  -7  -7    0.42    3.98
 -12  -7  -6   30.36    3.92
 -12  -7  -5    0.14    4.57
 -12  -7  -4   25.47    4.79
 -12  -7  -3    2.10    3.37
 -12  -7  -2    8.88    4.10
 -12  -7  -1   17.67    4.50
 -12  -7   0   92.96    7.56
 -12  -7   1   -4.07    4.51
 -12  -7   2   -4.94    5.37
 -12  -7   3    4.22    4.34
 -12  -7   4   -2.38    4.91
 -12  -6 -13  -14.09    6.50
 -12  -6 -12   -0.83    6.03
 -12  -6 -11   37.25    7.39
 -12  -6 -10   43.58    8.78
 -12  -6  -9   46.29    5.01
 -12  -6  -8   10.59    3.79
 -12  -6  -7   12.03    4.12
 -12  -6  -6   -1.27    6.22
 -12  -6  -5   14.52    6.51
 -12  -6  -4   77.21    8.56
 -12  -6  -1    5.75    6.03
 -12  -6   0   13.28    6.67
 -12  -5 -14    1.83    8.74
 -12  -5 -13   38.86    7.70
 -12  -5 -12    5.64    5.25
 -12  -5 -11    3.09    8.73
 -12  -5 -10   53.33    9.55
 -12  -5  -9   15.54    7.02
 -12  -5  -8   61.99   11.22
 -12  -5  -7   34.69    7.56
 -12  -5  -6   21.12    5.89
 -12  -5  -5   70.28    8.56
 -12  -5  -4    7.46    8.43
 -12  -5  -3   10.74    6.77
 -12  -5  -2   19.83    6.77
 -12  -5  -1   43.74    7.39
 -12  -5   0    5.47    6.33
 -12  -4 -13    0.28    7.23
 -12  -4 -12    9.90    6.20
 -12  -4 -11   -7.46    6.23
 -12  -4 -10   -0.14    6.43
 -12  -4  -9   31.95    6.18
 -12  -4  -7   31.68    6.95
 -12  -4  -6    7.46    6.03
 -12  -4  -5    2.38    7.44
 -12  -4  -4    5.75    7.87
 -12  -4  -3   45.97    9.66
 -12  -4  -2   47.26    8.49
 -12  -4  -1   47.76   12.14
 -12  -3 -13    4.22    6.05
 -12  -3 -12   -8.60    6.06
 -12  -3 -11    1.00   10.04
 -12  -3 -10   42.96    8.71
 -12  -3  -9   42.19    8.80
 -12  -3  -8   18.99    9.63
 -12  -3  -7   57.04    8.25
 -12  -3  -6    0.71    6.37
 -12  -3  -5   15.07    9.87
 -12  -3  -4   38.42    7.66
 -12  -3  -3   24.28    6.78
 -12  -3  -2    6.22    6.75
 -12  -3  -1    0.42    8.64
 -12  -2 -11   12.86    6.22
 -12  -2 -10    1.96    8.45
 -12  -2  -9   -3.53    6.06
 -12  -2  -8   22.56    6.32
 -12  -2  -7  112.44   12.34
 -12  -2  -6   -0.71    6.64
 -12  -2  -5   -5.36    4.78
 -12  -2  -4   -4.51    9.29
 -12  -2  -3    6.77    6.61
 -12  -2  -2   -1.11    5.63
 -12  -2  -1   24.41    7.04
 -12  -1  -9   -2.24    5.05
 -12  -1  -8    5.36    5.67
 -12  -1  -7    1.71    4.96
 -12  -1  -6    2.68    6.92
 -12  -1  -5    8.19    7.21
 -12  -1  -4   33.85    8.29
 -12  -1  -3   -0.28   10.35
 -12  -1  -2    5.09    4.23
 -12  -1  -1   -4.07    5.51
 -11 -11  -7   34.55   12.14
 -11 -11  -6   -1.71    6.80
 -11 -11  -5    6.77    5.06
 -11 -11  -4    7.21    4.65
 -11 -11  -3   14.81    4.75
 -11 -11  -2   -4.67    5.08
 -11 -11  -1    0.42    5.67
 -11 -11   0    1.71    5.25
 -11 -10 -11   54.91    5.98
 -11 -10 -10    4.67    4.10
 -11 -10  -9   -3.53    5.08
 -11 -10  -8   -7.46    4.47
 -11 -10  -7    9.76    4.37
 -11 -10  -6    3.38    4.37
 -11 -10  -5    9.02    5.50
 -11 -10  -4    6.22    4.92
 -11 -10  -3    1.27    4.94
 -11 -10  -2   21.12    4.91
 -11 -10  -1    2.38    4.77
 -11 -10   0   19.83    5.19
 -11 -10   1    5.09    5.78
 -11 -10   2   48.59    7.29
 -11 -10   3   10.97    5.67
 -11 -10   4   21.88    7.44
 -11  -9 -14    3.79    4.77
 -11  -9 -13   53.51    7.81
 -11  -9 -12    1.83    4.09
 -11  -9 -11    6.64    4.65
 -11  -9 -10   -1.27    4.23
 -11  -9  -9    1.71    4.53
 -11  -9  -8   89.34    6.74
 -11  -9  -7   21.67    5.19
 -11  -9  -6    2.68    4.36
 -11  -9  -5    0.14    5.43
 -11  -9  -4   19.30    4.91
 -11  -9  -3   20.57    5.50
 -11  -9  -2   22.79    4.88
 -11  -9  -1   53.51    7.12
 -11  -9   0   -6.46    4.34
 -11  -9   1    1.27    5.23
 -11  -9   2   -1.41    4.65
 -11  -9   3   10.81   10.39
 -11  -9   4   12.94    5.64
 -11  -9   5    5.75   10.72
 -11  -9   6   13.64    8.15
 -11  -8 -15   11.53    5.64
 -11  -8 -14   -2.54    4.79
 -11  -8 -13   10.59    4.64
 -11  -8 -12   13.64    6.23
 -11  -8 -11   -1.55    4.39
 -11  -8 -10  124.86    9.29
 -11  -8  -9   17.08    3.92
 -11  -8  -8   77.64    5.87
 -11  -8  -7    6.33    3.65
 -11  -8  -6   13.82    4.06
 -11  -8  -5   14.09    5.88
 -11  -8  -4    1.55    4.09
 -11  -8  -3    1.27    3.81
 -11  -8  -2    9.90    6.05
 -11  -8  -1   16.68    5.05
 -11  -8   0    4.22    4.64
 -11  -8   1   16.40    5.19
 -11  -8   2  141.29   12.42
 -11  -8   3   16.88    8.69
 -11  -8   4   42.81    8.86
 -11  -8   5    4.78    6.08
 -11  -8   6    9.31    7.46
 -11  -8   7   19.61    9.79
 -11  -8   8    7.78    5.50
 -11  -7 -16   -5.47    5.06
 -11  -7 -15    7.08    5.37
 -11  -7 -14   -0.71    4.39
 -11  -7 -13   15.54    3.65
 -11  -7 -12   59.02    6.02
 -11  -7 -11    7.21    3.69
 -11  -7 -10   49.25    8.50
 -11  -7  -9    3.26    3.68
 -11  -7  -8   21.56    5.51
 -11  -7  -7   57.22    4.85
 -11  -7  -6   30.88    4.36
 -11  -7  -5   26.80    5.16
 -11  -7  -4   45.18    4.79
 -11  -7  -3   30.75    5.13
 -11  -7  -2    9.76    3.78
 -11  -7  -1   52.99    5.36
 -11  -7   0   41.88    5.53
 -11  -7   1   69.29    7.91
 -11  -7   2    8.32    7.06
 -11  -7   3   -1.55    5.92
 -11  -7   4    2.81    5.61
 -11  -7   5   15.82    8.32
 -11  -7   6    1.00    4.39
 -11  -7   7    8.05    7.61
 -11  -7   8    4.37    5.06
 -11  -7   9    8.88    5.95
 -11  -6 -17    2.24    4.23
 -11  -6 -16    7.92    5.81
 -11  -6 -15   34.26    5.56
 -11  -6 -14   44.53    4.44
 -11  -6 -13   42.34    5.10
 -11  -6 -12   20.04    4.05
 -11  -6 -11   12.44    3.93
 -11  -6 -10   -4.94    3.37
 -11  -6  -9   17.77    4.50
 -11  -6  -8    7.92    3.95
 -11  -6  -7    8.88    4.39
 -11  -6  -6    1.11    4.22
 -11  -6  -5   10.28    3.96
 -11  -6  -4   -7.33    4.95
 -11  -6  -3  271.26   12.13
 -11  -6  -2  149.59    7.84
 -11  -6  -1    1.11    3.24
 -11  -6   0    3.26    4.12
 -11  -6   1    9.02    4.92
 -11  -6   2   -5.36    4.07
 -11  -6   3   54.03    7.50
 -11  -6   4   -7.46    4.34
 -11  -6   5   -0.56    3.78
 -11  -6   6   43.27    7.50
 -11  -6   7   -4.78    4.78
 -11  -6   8    3.26    6.94
 -11  -6   9    7.92    6.22
 -11  -5 -17   -2.24    3.81
 -11  -5 -16   12.86    4.51
 -11  -5 -15   79.10    6.54
 -11  -5 -14   12.10    4.05
 -11  -5 -13   52.64    4.99
 -11  -5 -12    8.88    3.54
 -11  -5 -11   16.20    3.26
 -11  -5 -10   43.43    3.92
 -11  -5  -9    9.17    3.53
 -11  -5  -8    5.75    3.07
 -11  -5  -7    6.22    3.67
 -11  -5  -6   41.12    4.57
 -11  -5  -5    1.55    3.26
 -11  -5  -4   61.24    5.02
 -11  -5  -3   12.94    2.82
 -11  -5  -2   34.40    3.91
 -11  -5  -1   21.67    4.20
 -11  -5   0    2.24    4.09
 -11  -5   1   56.32    4.81
 -11  -5   2   39.16    5.34
 -11  -5   3    2.24    3.51
 -11  -5   4   22.56    6.99
 -11  -5   5    8.32    4.53
 -11  -5   6    0.00    1.41
 -11  -5   7    7.21    4.07
 -11  -4 -15    7.92    3.54
 -11  -4 -14   -0.83    3.50
 -11  -4 -13    8.19    2.65
 -11  -4 -12    2.24    2.66
 -11  -4 -11   10.28    3.50
 -11  -4 -10    9.90    3.14
 -11  -4  -9    2.10    3.51
 -11  -4  -8  115.23    6.88
 -11  -4  -7   24.41    3.75
 -11  -4  -6   20.90    4.13
 -11  -4  -5   11.14    3.48
 -11  -4  -4   -0.14    3.57
 -11  -4  -2   -1.41    5.50
 -11  -4  -1  163.55   11.24
 -11  -3 -14   22.00    6.80
 -11  -3 -13   33.45    9.76
 -11  -3 -12    4.37    5.75
 -11  -3 -11   12.03    5.19
 -11  -3 -10   39.02    7.42
 -11  -3  -9   18.47    6.23
 -11  -3  -8   35.53    8.21
 -11  -3  -7    7.46    5.39
 -11  -3  -6   17.37    8.91
 -11  -3  -5    5.09    4.82
 -11  -3  -4   36.67    9.21
 -11  -3  -3  123.27   11.34
 -11  -3  -2    5.64    6.60
 -11  -2 -14   21.12    7.85
 -11  -2 -13   24.41    6.33
 -11  -2 -12   49.92    9.73
 -11  -2 -11   15.54    7.02
 -11  -2 -10    7.33    8.49
 -11  -2  -9   10.28    6.47
 -11  -2  -8   23.01    7.87
 -11  -2  -7    6.77    5.19
 -11  -2  -6    9.60    7.73
 -11  -2  -5  112.69    9.83
 -11  -2  -4   -0.71    4.67
 -11  -2  -3    9.17    4.96
 -11  -2  -2    8.32    7.06
 -11  -2  -1   -1.96    6.63
 -11  -1 -13   91.60   11.59
 -11  -1 -12   41.72    7.98
 -11  -1 -11   -1.11    7.02
 -11  -1 -10    0.42    4.67
 -11  -1  -9    7.46    7.59
 -11  -1  -8   13.28    6.67
 -11  -1  -7    0.83    7.57
 -11  -1  -6  171.85   13.38
 -11  -1  -5   41.88    9.69
 -11  -1  -4   88.66    9.17
 -11  -1  -3    7.46    5.77
 -11  -1  -2   20.90    6.63
 -11  -1  -1   48.42    8.93
 -11   0 -13    4.67    5.23
 -11   0 -12   25.47    6.35
 -11   0 -11    7.08    6.06
 -11   0 -10   39.31    8.78
 -11   0  -9    7.33    4.95
 -11   0  -8   11.53    5.89
 -11   0  -7    4.67    5.64
 -11   0  -6    0.42    6.94
 -11   0  -5   61.60    7.46
 -11   0  -4   -4.07    5.37
 -11   0  -3   11.53    6.37
 -11   0  -2   26.07    5.58
 -11   0  -1    9.46    8.77
 -11   1 -10   51.61    8.02
 -11   1  -9   18.37    5.50
 -11   1  -8   14.62    7.18
 -11   1  -7   39.02    6.08
 -11   1  -6   33.45    6.73
 -11   1  -5   49.58    6.36
 -11   1  -4   31.42    8.52
 -11   1  -3    4.51    4.95
 -11   1  -2   24.99    9.62
 -11   1  -1   21.01    6.32
 -11   1   0   27.17    7.56
 -10 -12  -5    3.53    4.37
 -10 -12  -4   19.83    5.60
 -10 -12  -3    7.78    5.37
 -10 -12  -2   26.57    4.78
 -10 -11 -11    2.54    6.77
 -10 -11 -10   -5.75    7.01
 -10 -11  -9   -0.71    4.39
 -10 -11  -8   31.68    5.61
 -10 -11  -7   19.40    4.60
 -10 -11  -6   71.88    7.85
 -10 -11  -5   73.29    5.70
 -10 -11  -4   52.81    5.87
 -10 -11  -3   10.43    4.68
 -10 -11  -2   16.10    4.67
 -10 -11  -1   -2.10    3.92
 -10 -11   0    7.21    4.20
 -10 -11   1   18.47    6.33
 -10 -11   2   29.06    5.25
 -10 -11   3    1.71    4.09
 -10 -11   4    2.96    5.08
 -10 -10 -14   12.27    6.32
 -10 -10 -13   13.28    6.67
 -10 -10 -12   43.74    8.01
 -10 -10 -11    6.64    4.96
 -10 -10 -10   -0.71    4.24
 -10 -10  -9   -0.71    4.10
 -10 -10  -8   47.11    5.71
 -10 -10  -7    2.81    4.50
 -10 -10  -6   21.88    4.22
 -10 -10  -5    9.90    5.08
 -10 -10  -4   17.37    5.54
 -10 -10  -3   16.68    4.27
 -10 -10  -2    4.51    5.81
 -10 -10  -1    5.20    3.95
 -10 -10   0   15.64    4.13
 -10 -10   1   10.12    6.05
 -10 -10   2   14.35    5.67
 -10 -10   3   10.12    5.06
 -10 -10   4   40.51    7.11
 -10 -10   5    2.24    7.99
 -10 -10   6    3.93   13.52
 -10 -10   7    9.60    9.35
 -10  -9 -16   -1.83    5.78
 -10  -9 -14    9.98    8.18
 -10  -9 -13    5.75    8.60
 -10  -9 -12   83.16    9.97
 -10  -9 -11   12.52    4.20
 -10  -9 -10   -3.65    3.36
 -10  -9  -9    2.54    4.39
 -10  -9  -8   -0.28    4.82
 -10  -9  -7   -4.07    4.22
 -10  -9  -6  130.77    9.24
 -10  -9  -5  179.09    9.86
 -10  -9  -4   44.37    5.22
 -10  -9  -3    8.19    4.22
 -10  -9  -2    0.14    4.43
 -10  -9  -1   22.56    5.19
 -10  -9   0    9.60    4.64
 -10  -9   1   -0.56    4.22
 -10  -9   2   25.94    4.84
 -10  -9   3   -3.38    6.64
 -10  -9   4   -6.33   10.70
 -10  -9   5   -3.53    7.88
 -10  -9   6    6.46    7.73
 -10  -9   7   16.50    8.29
 -10  -9   8   35.11    7.18
 -10  -9   9   31.15   12.46
 -10  -8 -17   20.25    6.95
 -10  -8 -16    4.37    7.19
 -10  -8 -15    5.75    6.50
 -10  -8 -14    5.36    4.07
 -10  -8 -13    3.79    5.09
 -10  -8 -12    2.68    5.22
 -10  -8 -11    7.78    4.24
 -10  -8 -10    0.83    3.78
 -10  -8  -9   -1.71    3.82
 -10  -8  -8   29.58    4.78
 -10  -8  -7   47.26    5.23
 -10  -8  -6  183.57    8.36
 -10  -8  -5    4.37    4.07
 -10  -8  -4    3.09    3.79
 -10  -8  -3   24.41    4.70
 -10  -8  -2    8.60    4.39
 -10  -8  -1   56.32    4.99
 -10  -8   0   29.19    6.29
 -10  -8   1   -7.46    5.51
 -10  -8   2   45.66    7.54
 -10  -8   3    7.92    6.61
 -10  -8   4   59.94   11.39
 -10  -8   5    9.98    6.60
 -10  -8   6   -3.38   10.14
 -10  -8   7   13.38    6.87
 -10  -8   8    6.46   10.27
 -10  -8   9   14.26    7.44
 -10  -8  10   -5.36    7.04
 -10  -8  11   18.99   10.87
 -10  -7 -17   35.39    7.77
 -10  -7 -16    2.68    3.65
 -10  -7 -15    0.71    4.53
 -10  -7 -14   24.87    5.92
 -10  -7 -13   -7.33    3.41
 -10  -7 -12   17.77    3.40
 -10  -7 -11   57.39    4.68
 -10  -7 -10   98.31    5.89
 -10  -7  -9   50.08    5.54
 -10  -7  -8   77.64    5.65
 -10  -7  -7    5.36    4.23
 -10  -7  -6   58.29    5.44
 -10  -7  -5    4.37    3.23
 -10  -7  -4  107.22    6.64
 -10  -7  -3   92.74    5.03
 -10  -7  -2    1.11    4.22
 -10  -7  -1   -7.78    3.98
 -10  -7   0   -6.64    4.10
 -10  -7   1   -3.38    7.47
 -10  -7   2   -4.37    5.75
 -10  -7   3    3.79    5.50
 -10  -7   4    5.75    6.32
 -10  -7   5   73.10    9.95
 -10  -7   6    8.46    6.36
 -10  -7   7    8.60    9.48
 -10  -7   8    9.76    6.53
 -10  -7   9   -4.67    9.33
 -10  -7  10   27.30    7.08
 -10  -7  11   37.99    8.19
 -10  -7  12    8.32   10.28
 -10  -6 -16   -3.38    3.67
 -10  -6 -15    3.38    5.95
 -10  -6 -14    1.27    4.53
 -10  -6 -13   -4.22    3.37
 -10  -6 -12    0.28    2.85
 -10  -6 -11   30.36    3.92
 -10  -6 -10   39.02    4.00
 -10  -6  -9   28.81    3.44
 -10  -6  -8   20.90    4.23
 -10  -6  -7   32.76    4.34
 -10  -6  -6   14.99    3.68
 -10  -6  -5   21.67    4.64
 -10  -6  -4   91.37    5.68
 -10  -6  -3   -3.26    3.68
 -10  -6  -2  245.32   11.15
 -10  -6  -1   25.83    4.47
 -10  -6   0   14.99    4.13
 -10  -6   1   12.86    1.96
 -10  -6   2   14.62    2.00
 -10  -6   3   -3.38    4.68
 -10  -6   4    9.98    5.10
 -10  -6   5    2.96    7.19
 -10  -6   6   36.10    5.57
 -10  -6   7   38.86    7.11
 -10  -6   8   21.88    5.78
 -10  -6   9   39.16    7.13
 -10  -6  10   -0.83    5.47
 -10  -6  11   94.81   11.10
 -10  -6  12   92.29   93.99
 -10  -5 -14    7.59    4.78
 -10  -5 -13   11.14    2.85
 -10  -5 -12    4.51    2.98
 -10  -5 -11    5.92    2.54
 -10  -5 -10   45.49    4.48
 -10  -5  -9   24.17    4.09
 -10  -5  -8   10.97    3.93
 -10  -5  -7   60.12    4.41
 -10  -5  -6   35.25    4.09
 -10  -5  -5    6.64    3.37
 -10  -5  -4   33.45    3.98
 -10  -5  -3   83.81    5.01
 -10  -5  -2   34.26    5.01
 -10  -5  -1    6.46    4.65
 -10  -5   0   21.67    2.43
 -10  -5   1   54.20    4.02
 -10  -5   2   -0.28    1.71
 -10  -5   3   17.77    4.81
 -10  -5   4   14.52    6.33
 -10  -5   5   26.93    6.29
 -10  -5   6    3.38    3.93
 -10  -5   7   16.50    6.66
 -10  -5   8   35.11    5.06
 -10  -5   9   33.04    7.78
 -10  -5  10   18.58    4.40
 -10  -5  11   48.74    6.30
 -10  -5  12   -0.83    4.75
 -10  -5  13   18.37    5.50
 -10  -4 -13   -4.37    3.23
 -10  -4 -12   79.10    5.27
 -10  -4 -11   30.23    2.88
 -10  -4 -10   26.80    3.44
 -10  -4  -9   -2.81    2.27
 -10  -4  -8    5.92    3.53
 -10  -4  -7    0.56    2.38
 -10  -4  -6  283.12   11.59
 -10  -4  -5   50.42    4.89
 -10  -4  -4    2.10    3.37
 -10  -4  -3    9.46    3.65
 -10  -4  -2    4.51    3.93
 -10  -4  -1   67.71    4.30
 -10  -4   0   11.53    1.93
 -10  -4   1  142.70    6.53
 -10  -4   2    1.00    1.71
 -10  -4   3    4.51    3.23
 -10  -4   4  141.85   10.74
 -10  -4   5    7.21    5.23
 -10  -4   6    1.41    3.81
 -10  -4   7   21.67    5.75
 -10  -4   8    6.88    3.37
 -10  -4   9   10.59    4.40
 -10  -4  10   42.65    6.67
 -10  -3 -13   93.89    8.52
 -10  -3 -12   -0.83    3.21
 -10  -3 -11    9.90    2.83
 -10  -3 -10    3.93    3.10
 -10  -3  -9   22.79    2.16
 -10  -3  -8  345.35   15.44
 -10  -3  -7   19.83    1.58
 -10  -3  -6   11.14    1.42
 -10  -3  -5    5.64    1.24
 -10  -3  -4   27.04    1.85
 -10  -3  -3    3.65    1.14
 -10  -3  -2    9.31    1.52
 -10  -3  -1   37.11    2.75
 -10  -3   0   -1.00    1.57
 -10  -3   1   15.36    1.96
 -10  -3   2    2.81    2.27
 -10  -3   4   62.17    5.81
 -10  -3   5   35.81    4.55
 -10  -3   6  273.22   19.63
 -10  -2 -13    8.05    4.78
 -10  -2 -12   29.84    3.37
 -10  -2 -11   44.37    3.64
 -10  -2 -10  100.44    5.47
 -10  -2  -9    8.74    2.38
 -10  -2  -8   69.68    5.16
 -10  -2  -7    5.75    1.54
 -10  -2  -6    0.56    1.25
 -10  -2  -5    7.33    2.12
 -10  -2  -4   55.26    4.41
 -10  -2  -3    2.81    1.83
 -10  -2  -2   38.86    3.40
 -10  -2  -1   14.09    3.21
 -10  -2   0    3.53    4.50
 -10  -2   1   44.06    6.63
 -10  -2   2    3.38    3.81
 -10  -1 -13   25.35    5.39
 -10  -1 -12   31.42    6.39
 -10  -1 -11   37.99    5.41
 -10  -1 -10   -6.64    5.51
 -10  -1  -9    1.96    6.75
 -10  -1  -8    4.07    4.51
 -10  -1  -7   32.63    6.11
 -10  -1  -6  115.23    9.69
 -10  -1  -5   11.69    4.79
 -10  -1  -4   28.05    7.05
 -10  -1  -3   -4.22    4.78
 -10  -1  -2    1.71    5.53
 -10   0 -12   -1.11    5.19
 -10   0 -11   10.12    6.73
 -10   0 -10   -1.71    4.37
 -10   0  -9   -1.83    4.50
 -10   0  -8   17.37    7.92
 -10   0  -7    1.55    5.36
 -10   0  -6   12.03    5.77
 -10   0  -5   14.35    6.47
 -10   0  -4    1.41    6.35
 -10   0  -3  163.25   12.75
 -10   0  -2    7.78    5.63
 -10   1 -12   14.81    5.94
 -10   1 -11    9.17    6.61
 -10   1 -10   19.40    4.81
 -10   1  -9    7.21    4.65
 -10   1  -8    7.78    7.61
 -10   1  -7    9.60    5.67
 -10   1  -6   16.40    5.09
 -10   1  -5    5.64    6.09
 -10   1  -4   53.51    5.74
 -10   1  -3    7.46    5.39
 -10   1  -2   20.15    7.46
 -10   1  -1   18.99    5.17
 -10   2 -11   18.08    5.56
 -10   2 -10   -0.42    4.96
 -10   2  -9   16.10    6.49
 -10   2  -8   48.25    6.43
 -10   2  -7   15.64    4.51
 -10   2  -6   -3.38    3.93
 -10   2  -5    8.32    6.64
 -10   2  -4    4.07    4.65
 -10   2  -3    8.88    4.39
 -10   2  -2   56.32    8.38
 -10   2  -1   24.17    6.54
 -10   3  -7   -5.64    6.20
 -10   3  -6   -0.28    4.24
 -10   3  -5    3.26    4.94
 -10   3  -4   29.71    6.87
 -10   3  -3   20.25    6.51
 -10   3  -2   15.64    5.54
 -10   3  -1   -3.79    6.20
 -10   3   0    9.31    5.22
  -9 -12  -9   32.49   10.42
  -9 -12  -8    5.47    8.16
  -9 -12  -7    0.56    3.92
  -9 -12  -6    9.60    4.34
  -9 -12  -5   27.30    6.57
  -9 -12  -4   14.62    5.17
  -9 -12  -3    9.90    3.51
  -9 -12  -2    7.46    4.94
  -9 -12  -1    0.28    3.69
  -9 -12   0    3.93    5.23
  -9 -12   1   13.11    5.68
  -9 -12   2   33.16    4.37
  -9 -12   3    1.96    4.23
  -9 -11 -13   23.70    8.09
  -9 -11 -12   32.63    8.54
  -9 -11 -11   17.17    7.47
  -9 -11 -10   13.55    7.78
  -9 -11  -9   23.59    7.95
  -9 -11  -8    5.20    4.65
  -9 -11  -7    1.71    3.54
  -9 -11  -6    5.92    3.64
  -9 -11  -5   14.09    4.81
  -9 -11  -4   26.07    4.48
  -9 -11  -3   -0.83    4.91
  -9 -11  -2   71.28    6.22
  -9 -11  -1   44.06    4.72
  -9 -11   0   -7.08    4.92
  -9 -11   1  121.16    8.63
  -9 -11   2    9.90    3.67
  -9 -11   3   13.64    5.53
  -9 -11   4    4.07    5.08
  -9 -11   5    9.31    3.92
  -9 -11   6    8.46    8.01
  -9 -11   7   -3.65   11.68
  -9 -10 -16   18.78    6.90
  -9 -10 -15   20.25    6.95
  -9 -10 -14   10.81    7.90
  -9 -10 -13   45.33   10.39
  -9 -10 -12    9.17    8.63
  -9 -10 -11    8.32    8.63
  -9 -10 -10   84.91    9.84
  -9 -10  -9    6.03    3.50
  -9 -10  -8    5.75    4.10
  -9 -10  -7    4.51    4.50
  -9 -10  -6   78.89    6.97
  -9 -10  -5    2.38    4.65
  -9 -10  -4   33.57    4.82
  -9 -10  -3   -6.46    5.19
  -9 -10  -2   13.38    4.09
  -9 -10  -1   17.08    3.82
  -9 -10   0   24.41    7.50
  -9 -10   1    7.78    3.98
  -9 -10   2   42.34    6.02
  -9 -10   3    7.92    4.07
  -9 -10   4   47.43   12.10
  -9 -10   5    5.64    7.78
  -9 -10   6    2.38   12.24
  -9 -10   7   10.12    7.63
  -9 -10   8   21.56    8.28
  -9 -10   9   -5.64   11.45
  -9 -10  10    0.28    7.23
  -9  -9 -17   43.12    7.95
  -9  -9 -16   11.14    7.77
  -9  -9 -15   21.67    7.08
  -9  -9 -14   14.35    6.66
  -9  -9 -13   -8.19    5.64
  -9  -9 -12    3.09    5.92
  -9  -9 -11   27.30    6.08
  -9  -9 -10   12.44    3.68
  -9  -9  -9  185.18    9.05
  -9  -9  -8   70.88    5.01
  -9  -9  -7   42.03    4.62
  -9  -9  -6  371.88   13.73
  -9  -9  -5   12.27    3.82
  -9  -9  -4   42.96    6.23
  -9  -9  -3  199.67    8.39
  -9  -9  -2   28.93    6.01
  -9  -9  -1  123.01    6.85
  -9  -9   0   33.85    5.12
  -9  -9   1    1.41    4.09
  -9  -9   2    3.53    4.81
  -9  -9   3   90.02   11.94
  -9  -9   4    0.83    6.73
  -9  -9   6   27.30    8.56
  -9  -9   7   10.28   10.81
  -9  -9   8   30.09    8.21
  -9  -9   9   15.82    9.73
  -9  -9  10  -10.28   13.25
  -9  -9  11   -2.10    7.57
  -9  -8 -17   15.36    5.40
  -9  -8 -16    8.19    5.50
  -9  -8 -15   66.36    8.12
  -9  -8 -14   -4.67    6.36
  -9  -8 -13    8.74    7.30
  -9  -8 -12   -3.53    4.64
  -9  -8 -11    4.37    3.07
  -9  -8 -10   12.94    3.41
  -9  -8  -9  109.94    6.73
  -9  -8  -8    0.83    2.52
  -9  -8  -7    1.71    2.43
  -9  -8  -6  286.32    8.84
  -9  -8  -5  167.84    6.77
  -9  -8  -4    2.38    2.82
  -9  -8  -3   61.05    5.39
  -9  -8  -2  174.35    9.09
  -9  -8  -1    2.68    0.86
  -9  -8   0    2.96    1.14
  -9  -8   1    3.93    1.83
  -9  -8   2    4.37    1.83
  -9  -8   3   19.20    7.39
  -9  -8   4   19.61    7.57
  -9  -8   5   21.33    9.55
  -9  -8   6   42.19    9.40
  -9  -8   7    8.05    9.91
  -9  -8   8   -0.56    7.73
  -9  -8   9  -12.86    9.72
  -9  -8  10   17.87    7.92
  -9  -8  11   52.13    8.23
  -9  -8  12    9.76   11.58
  -9  -8  13   12.86    7.06
  -9  -7 -15  157.84    9.84
  -9  -7 -14   47.26    6.03
  -9  -7 -13   74.52    6.56
  -9  -7 -12   -1.00    1.99
  -9  -7 -11   21.88    3.33
  -9  -7 -10   59.76    3.30
  -9  -7  -9    5.92    2.95
  -9  -7  -8  110.94    4.50
  -9  -7  -7   59.02    3.29
  -9  -7  -6   -0.14    2.43
  -9  -7  -5   13.64    2.72
  -9  -7  -4    4.94    3.12
  -9  -7  -3  106.23    4.65
  -9  -7  -2   74.73    4.51
  -9  -7  -1  124.86    5.30
  -9  -7   0  294.42    9.79
  -9  -7   1    0.14    1.28
  -9  -7   2   48.25    2.81
  -9  -7   3  144.98    5.72
  -9  -7   4   11.69    1.95
  -9  -7   5   26.80    7.87
  -9  -7   6    8.19   10.00
  -9  -7   7   17.87    6.53
  -9  -7   8   38.27    9.70
  -9  -7   9    2.96    6.91
  -9  -7  10    3.53    6.33
  -9  -7  11   19.30    6.36
  -9  -7  12   23.93    7.43
  -9  -7  13   14.99    5.80
  -9  -7  14   10.43    9.12
  -9  -6 -13    4.78    5.75
  -9  -6 -12   -1.11    2.54
  -9  -6 -11   54.72    3.69
  -9  -6 -10   -1.55    2.40
  -9  -6  -9   -0.28    1.99
  -9  -6  -8    5.64    2.65
  -9  -6  -7   11.45    2.65
  -9  -6  -6    5.92    2.26
  -9  -6  -5   36.96    4.19
  -9  -6  -4   26.57    3.30
  -9  -6  -3   25.70    3.50
  -9  -6  -2    7.21    3.12
  -9  -6  -1 1173.60   37.42
  -9  -6   0    3.09    0.83
  -9  -6   1   83.60    3.05
  -9  -6   2  155.46    5.63
  -9  -6   3   19.61    1.79
  -9  -6   4    0.28    1.71
  -9  -6   5   -1.00    1.99
  -9  -6   6   69.88    5.16
  -9  -6   7   -1.00    5.23
  -9  -6   8  112.69   12.10
  -9  -6   9    7.08    6.19
  -9  -6  10   49.75    8.54
  -9  -6  11   11.53    5.49
  -9  -6  12   63.11    6.98
  -9  -6  13  120.39   13.03
  -9  -6  14   20.04    8.71
  -9  -5 -13   16.50    5.20
  -9  -5 -12  212.28    9.35
  -9  -5 -11   13.99    2.93
  -9  -5 -10   28.17    4.41
  -9  -5  -9    9.76    2.66
  -9  -5  -8   36.82    2.88
  -9  -5  -7    9.17    2.66
  -9  -5  -6  151.64    5.56
  -9  -5  -5    0.00    1.41
  -9  -5  -4   92.74    4.12
  -9  -5  -3    6.46    3.81
  -9  -5  -2   35.53    4.95
  -9  -5  -1  102.59    6.74
  -9  -5   0    0.00    1.41
  -9  -5   1  241.61    8.49
  -9  -5   2  156.34    5.64
  -9  -5   3  266.98    8.93
  -9  -5   4   51.95    2.74
  -9  -5   5    5.20    1.68
  -9  -5   6   25.70    3.37
  -9  -5   7  114.21    5.58
  -9  -5   8    2.81    2.27
  -9  -5   9    7.08    6.50
  -9  -5  10   -6.77    4.94
  -9  -5  11    1.11    5.89
  -9  -5  12   52.30    8.76
  -9  -5  13    9.90    8.45
  -9  -5  14   -2.54    5.22
  -9  -5  15    7.08    5.63
  -9  -4 -14    9.46    2.27
  -9  -4 -13    5.64    4.34
  -9  -4 -12   10.12    1.28
  -9  -4 -11    7.21    0.71
  -9  -4 -10    9.76    2.96
  -9  -4  -9   74.93    5.13
  -9  -4  -8   -5.47    3.12
  -9  -4  -7    8.74    2.10
  -9  -4  -6   27.79    3.38
  -9  -4  -5   19.61    3.79
  -9  -4  -4   70.88    5.01
  -9  -4  -3   43.91    4.24
  -9  -4  -2   26.07    1.21
  -9  -4  -1    0.71    1.14
  -9  -4   0   15.26    1.30
  -9  -4   1   24.28    1.88
  -9  -4   2   30.48    2.35
  -9  -4   3 1294.54   35.89
  -9  -4   4    5.20    1.85
  -9  -4   5    1.27    2.98
  -9  -4   6  106.49    5.39
  -9  -4   7   31.68    2.95
  -9  -4   8  157.84    7.76
  -9  -4   9    3.26    2.71
  -9  -4  10    1.41    2.68
  -9  -4  11    5.47    4.06
  -9  -4  12   41.88   39.65
  -9  -3 -13   10.97    2.13
  -9  -3 -12    2.96    1.68
  -9  -3 -11    1.27    0.99
  -9  -3 -10   68.70    2.75
  -9  -3  -9    5.20    0.86
  -9  -3  -8    4.22    0.68
  -9  -3  -7   34.83    1.82
  -9  -3  -6   55.61    2.48
  -9  -3  -5    8.05    1.02
  -9  -3  -4   74.11    2.65
  -9  -3  -3   60.67    2.21
  -9  -3  -2   99.73    3.55
  -9  -3  -1   67.33    2.72
  -9  -3   0   17.37    1.68
  -9  -3   1  130.22    4.88
  -9  -3   2    2.96    1.42
  -9  -3   3   49.25    2.83
  -9  -3   4   24.87    2.96
  -9  -3   5    8.19    2.10
  -9  -3   6    4.51    2.12
  -9  -3   7  200.35    8.07
  -9  -3   8  193.02    9.57
  -9  -3   9   28.93    3.06
  -9  -3  10   28.93    4.85
  -9  -3  11   41.57    5.20
  -9  -2 -13   12.44    2.85
  -9  -2 -12    5.20    2.82
  -9  -2 -11    2.38    2.24
  -9  -2 -10   46.94    2.28
  -9  -2  -9   -0.71    1.14
  -9  -2  -8   17.87    1.31
  -9  -2  -7   -1.27    0.99
  -9  -2  -6    0.71    1.42
  -9  -2  -5    1.11    1.25
  -9  -2  -4    8.60    1.11
  -9  -2  -3    7.08    1.02
  -9  -2  -2    2.10    1.14
  -9  -2  -1   52.47    2.41
  -9  -2   0   12.94    1.28
  -9  -2   1  120.91    4.17
  -9  -2   2  157.53    5.67
  -9  -2   3   12.52    1.68
  -9  -2   4  279.93   10.73
  -9  -2   5   10.43    3.37
  -9  -2   6    2.10    3.23
  -9  -2   7   42.50    4.79
  -9  -2   8   70.47    6.18
  -9  -2   9    9.02    3.92
  -9  -2  10   42.81    4.67
  -9  -2  11    1.41    6.63
  -9  -2  12   10.28    4.79
  -9  -1 -12    2.24    4.37
  -9  -1 -11  282.32   16.77
  -9  -1 -10    3.79    2.96
  -9  -1  -9   -0.83    0.97
  -9  -1  -8    5.75    1.25
  -9  -1  -7   12.94    1.03
  -9  -1  -6    5.92    0.87
  -9  -1  -5    4.94    1.95
  -9  -1  -4   -0.28    1.71
  -9  -1  -3  153.98    6.49
  -9  -1  -2   76.38    4.78
  -9  -1  -1   59.94    2.95
  -9  -1   0   19.73    2.43
  -9  -1   1   83.60    5.87
  -9  -1   2   19.20    2.71
  -9  -1   3  121.43    5.23
  -9  -1   4   18.89    2.99
  -9  -1   5    2.81    3.78
  -9  -1   6   -3.26    4.37
  -9  -1   7   84.91    7.88
  -9  -1   8    7.78    5.23
  -9  -1   9   -6.46    4.77
  -9  -1  10   15.82    5.10
  -9  -1  11    3.53    5.34
  -9   0 -11   47.11    7.33
  -9   0 -10    9.46    3.36
  -9   0  -9    5.47    3.23
  -9   0  -8   30.63    3.55
  -9   0  -7    8.32    3.09
  -9   0  -6   99.49    4.98
  -9   0  -5   -1.00    1.99
  -9   0  -4   53.33    4.16
  -9   0  -3  119.60    6.23
  -9   0  -2   18.37    3.16
  -9   0  -1   34.55    3.91
  -9   0   0    6.22    1.96
  -9   0   1   16.68    2.43
  -9   0   2   63.68    4.55
  -9   0   3  112.44    5.80
  -9   0   4    9.17    2.37
  -9   0   5   40.67    3.19
  -9   0   6  105.26    8.29
  -9   0   7   -4.78    4.62
  -9   0   8   14.81    3.93
  -9   0   9   16.50    4.34
  -9   0  10   59.39    5.49
  -9   0  11   66.36    6.39
  -9   0  12   34.40    7.25
  -9   1 -11    0.42    3.82
  -9   1 -10    0.71    3.40
  -9   1  -9   14.35    3.78
  -9   1  -8   24.41    3.40
  -9   1  -7    1.27    2.41
  -9   1  -6   -3.09    2.26
  -9   1  -5    1.41    2.82
  -9   1  -4   37.83    3.79
  -9   1  -3   28.30    3.79
  -9   1  -2    1.96    2.66
  -9   1  -1  183.25   12.86
  -9   1   0   11.86    3.51
  -9   1   1   42.81    5.29
  -9   1   2   12.03    5.51
  -9   1   3    0.56    3.23
  -9   1   4   -0.14    5.43
  -9   1   5    9.46    3.95
  -9   1   6    2.68    3.81
  -9   1   7   50.08    5.54
  -9   1   8    1.83    5.37
  -9   1   9   -4.78    6.18
  -9   1  10    0.42    3.98
  -9   1  11   -4.67    3.69
  -9   2 -11   38.56    5.16
  -9   2 -10    7.92    6.08
  -9   2  -9    8.05    4.24
  -9   2  -8   -0.42    2.68
  -9   2  -7   -3.09    2.38
  -9   2  -6   23.35    3.10
  -9   2  -5    8.19    2.99
  -9   2  -4    5.36    3.41
  -9   2  -3    9.76    2.96
  -9   2  -2   34.26    4.31
  -9   2  -1   29.31    3.86
  -9   2   0   10.59    4.09
  -9   2   1   53.51    5.56
  -9   2   2   33.85    4.70
  -9   2   3    2.96    4.09
  -9   2   4   64.24    8.19
  -9   2   5   12.44    5.10
  -9   2   6    2.54    5.63
  -9   2   9    3.65    4.50
  -9   2  10   35.25    5.92
  -9   3 -10    1.83    3.37
  -9   3  -9   19.61    6.20
  -9   3  -8   77.00    7.71
  -9   3  -7    0.56    6.03
  -9   3  -6   -2.68    3.23
  -9   3  -5    3.65    4.77
  -9   3  -4    9.90    3.67
  -9   3  -3   11.69    3.50
  -9   3  -2   62.35    5.44
  -9   3  -1   -0.28    5.67
  -9   3   0    3.09    4.64
  -9   3   1    9.17    4.67
  -9   3   2   55.61    7.80
  -9   3   3   12.94    5.39
  -9   3   4   27.04    5.92
  -9   3   5   51.10    8.32
  -9   3   6  118.57   11.13
  -9   3   7    3.26    4.94
  -9   3   8    1.11    5.63
  -9   4  -4   -1.71    5.37
  -9   4  -3   21.45    5.06
  -9   4  -2   -0.28    5.96
  -9   4  -1    7.46    3.12
  -9   4   0    4.51    2.98
  -9   4   1   45.66    7.70
  -9   4   2    5.64    4.96
  -9   4   3   20.04    5.32
  -9   4   4    9.76    4.37
  -8 -12 -11    2.96   11.00
  -8 -12 -10   69.29    9.29
  -8 -12  -9   29.31    8.23
  -8 -12  -8   61.05    9.46
  -8 -12  -7    5.20   11.97
  -8 -12  -5    1.96    5.49
  -8 -12  -4   34.14    4.44
  -8 -12  -3   81.66    5.37
  -8 -12  -2   -0.28   10.08
  -8 -12  -1   -1.83    3.67
  -8 -12   0   15.82    5.19
  -8 -12   1   12.03    3.71
  -8 -12   2    5.09    3.81
  -8 -12   3   90.47    7.23
  -8 -12   4    6.03    4.20
  -8 -12   5   21.45   10.01
  -8 -11 -14   31.81    7.23
  -8 -11 -13   -2.54    6.20
  -8 -11 -12   22.22    7.61
  -8 -11 -11    8.19    7.06
  -8 -11 -10   47.60    7.70
  -8 -11  -9   75.55    9.08
  -8 -11  -8   11.14    7.77
  -8 -11  -7   13.28    3.64
  -8 -11  -6   46.62    5.19
  -8 -11  -5    0.56    4.22
  -8 -11  -4   56.68    5.54
  -8 -11  -3   99.49    6.63
  -8 -11  -2   66.36    5.41
  -8 -11  -1    9.76    3.55
  -8 -11   0    7.78    4.51
  -8 -11   1    6.64    3.79
  -8 -11   2    6.64    4.53
  -8 -11   3   27.79    4.75
  -8 -11   4   -0.56    3.78
  -8 -11   5    8.74    4.78
  -8 -11   6  -11.53    8.07
  -8 -11   7   57.75   14.07
  -8 -11   8   55.26   12.18
  -8 -11   9   -2.68    8.91
  -8 -10 -17   -0.83    8.40
  -8 -10 -16   35.81    7.67
  -8 -10 -15   24.52    8.46
  -8 -10 -14  105.75   12.21
  -8 -10 -12    3.93    9.00
  -8 -10 -11   74.73   11.29
  -8 -10 -10   19.30    8.14
  -8 -10  -9    9.90    8.60
  -8 -10  -8    2.68    4.51
  -8 -10  -7   47.11    4.24
  -8 -10  -6   45.01    6.05
  -8 -10  -5   24.99    3.79
  -8 -10  -4   18.18    4.96
  -8 -10  -3  144.40    7.13
  -8 -10  -2   36.67    6.47
  -8 -10  -1   40.36    4.68
  -8 -10   0   41.43    4.58
  -8 -10   1   40.96    4.71
  -8 -10   2   24.28    4.57
  -8 -10   3    3.65    3.09
  -8 -10   4    6.77    8.71
  -8 -10   5   37.83    8.47
  -8 -10   6   -7.21   12.68
  -8 -10   7   19.40    9.11
  -8 -10   9   -5.92   13.41
  -8 -10  10    0.14    9.28
  -8 -10  11    6.77    9.01
  -8  -9 -18    2.81    5.77
  -8  -9 -17   -0.42    8.78
  -8  -9 -16   67.71    8.40
  -8  -9 -15    8.46    6.50
  -8  -9 -14    6.22    7.76
  -8  -9 -13   14.52    6.25
  -8  -9 -12    0.00    1.41
  -8  -9 -11   15.07    5.08
  -8  -9 -10    1.27    1.69
  -8  -9  -9    0.56    1.25
  -8  -9  -8   34.97    2.52
  -8  -9  -7    6.64    1.41
  -8  -9  -6   13.28    1.73
  -8  -9  -5   -0.42    1.41
  -8  -9  -4    2.81    1.40
  -8  -9  -3   30.63    2.62
  -8  -9  -2  376.48    9.67
  -8  -9  -1    4.67    2.00
  -8  -9   0   49.25    2.33
  -8  -9   1  114.97    4.58
  -8  -9   2    8.74    4.07
  -8  -9   3  102.11   11.76
  -8  -9   4  -13.55    6.73
  -8  -9   5   49.92   13.09
  -8  -9   6   -4.07    6.47
  -8  -9   7    3.26   10.46
  -8  -9   8    5.75    8.60
  -8  -9   9   22.45    9.00
  -8  -9  10    6.64    9.86
  -8  -9  11   48.42   10.08
  -8  -9  12  -16.88    7.71
  -8  -9  13   24.52   10.81
  -8  -8 -15   50.42    5.91
  -8  -8 -14   71.88    6.44
  -8  -8 -13    0.71    4.39
  -8  -8 -12   16.10    2.00
  -8  -8 -11   81.66    6.01
  -8  -8 -10   17.77    1.51
  -8  -8  -9   14.35    1.25
  -8  -8  -8  162.04    6.66
  -8  -8  -7   17.47    2.68
  -8  -8  -6  301.80    9.08
  -8  -8  -5   44.53    3.17
  -8  -8  -4   34.97    1.55
  -8  -8  -3  267.36    7.77
  -8  -8  -2   12.69    1.10
  -8  -8  -1    3.09    1.13
  -8  -8   0   29.31    1.93
  -8  -8   1   45.01    2.71
  -8  -8   2   10.28    2.66
  -8  -8   3    6.88    1.68
  -8  -8   4   -4.22    2.68
  -8  -8   5   39.90    3.60
  -8  -8   6  118.05    6.97
  -8  -8   7   -0.42    3.40
  -8  -8   8    2.96    3.40
  -8  -8   9    0.71    7.37
  -8  -8  10   10.59    7.88
  -8  -8  11   -0.42    7.92
  -8  -8  12  141.57   16.10
  -8  -8  13   16.20    7.08
  -8  -8  14  -10.97    7.87
  -8  -7 -13    0.00    1.41
  -8  -7 -12   12.10    1.41
  -8  -7 -11   28.17    1.38
  -8  -7 -10   11.86    2.37
  -8  -7  -9   25.23    2.03
  -8  -7  -8   15.36    2.43
  -8  -7  -7   35.67    2.55
  -8  -7  -6  343.58   10.12
  -8  -7  -5   13.28    2.26
  -8  -7  -4   50.76    3.38
  -8  -7  -3   12.27    2.83
  -8  -7  -2    2.38    2.38
  -8  -7  -1  232.82    6.88
  -8  -7   0  236.83    7.30
  -8  -7   1    1.55    1.99
  -8  -7   2   77.21    3.34
  -8  -7   3   56.68    3.21
  -8  -7   4   13.38    2.00
  -8  -7   5   77.64    4.81
  -8  -7   6    5.64    2.65
  -8  -7   7   12.44    4.53
  -8  -7   8    2.24    2.66
  -8  -7   9   -0.56    3.23
  -8  -7  10    3.26    3.95
  -8  -7  11    6.22    3.26
  -8  -7  12   16.88    8.49
  -8  -7  13   16.20    7.94
  -8  -7  14    1.83    4.92
  -8  -7  15  -10.28   13.78
  -8  -6 -15   26.20    5.10
  -8  -6 -14   39.16    4.16
  -8  -6 -13    5.09    1.40
  -8  -6 -12   73.51    2.65
  -8  -6 -11  115.74    4.60
  -8  -6 -10    5.20    2.12
  -8  -6  -9    6.46    2.23
  -8  -6  -8   95.97    4.19
  -8  -6  -7    8.19    3.13
  -8  -6  -6   74.93    3.50
  -8  -6  -5   17.67    2.99
  -8  -6  -4  118.05    5.16
  -8  -6  -3    4.67    2.41
  -8  -6  -2   70.08    4.17
  -8  -6  -1  102.83    3.13
  -8  -6   0   12.03    1.16
  -8  -6   1  579.92   17.16
  -8  -6   2    0.56    1.25
  -8  -6   3   45.33    2.55
  -8  -6   4   92.29    3.88
  -8  -6   5    9.31    1.80
  -8  -6   6   37.69    3.93
  -8  -6   7  159.63    9.00
  -8  -6   8  204.74   10.87
  -8  -6   9   16.50    4.24
  -8  -6  10    6.77    3.40
  -8  -6  11    1.41    3.24
  -8  -6  12    4.67    3.13
  -8  -6  13   10.59    4.40
  -8  -6  14   78.05    8.60
  -8  -6  15   -2.38    5.06
  -8  -6  16   -9.31   10.15
  -8  -5 -15    0.14    2.28
  -8  -5 -14   12.44    1.42
  -8  -5 -13  105.02    4.13
  -8  -5 -12    3.65    0.86
  -8  -5 -11  460.93   11.73
  -8  -5 -10  130.77    4.61
  -8  -5  -9   -0.28    2.13
  -8  -5  -8   51.61    3.75
  -8  -5  -7   -3.09    1.96
  -8  -5  -6    1.00    2.13
  -8  -5  -5   57.04    3.05
  -8  -5  -4  118.57    4.65
  -8  -5  -3  107.95    3.95
  -8  -5  -2  137.08    4.46
  -8  -5  -1    6.22    0.41
  -8  -5   0   10.81    0.86
  -8  -5   1   44.53    1.90
  -8  -5   2    2.24    1.28
  -8  -5   3    5.36    1.27
  -8  -5   4   65.00    3.06
  -8  -5   5    6.64    1.41
  -8  -5   6   29.31    3.72
  -8  -5   7  166.91    8.59
  -8  -5   8   -0.71    5.39
  -8  -5   9   54.20    4.37
  -8  -5  10   10.59    3.24
  -8  -5  11   54.55    5.09
  -8  -5  12   94.12    5.53
  -8  -5  13   -3.26    2.83
  -8  -5  14   31.02    4.37
  -8  -5  15    1.27    3.96
  -8  -5  16   21.67    8.63
  -8  -4 -15    6.88    2.37
  -8  -4 -14   22.67    1.80
  -8  -4 -13    1.27    1.42
  -8  -4 -12   12.52    1.85
  -8  -4 -11    5.09    0.86
  -8  -4 -10   65.00    2.88
  -8  -4  -9   38.27    2.93
  -8  -4  -8    8.60    1.80
  -8  -4  -7    1.71    2.12
  -8  -4  -6   34.26    2.50
  -8  -4  -5    2.81    1.83
  -8  -4  -4   -0.14    1.99
  -8  -4  -3    2.96    2.13
  -8  -4  -2   47.93    1.65
  -8  -4  -1   37.83    1.61
  -8  -4   0   57.75    2.34
  -8  -4   1  111.94    3.27
  -8  -4   2    0.56    1.11
  -8  -4   3   30.23    1.96
  -8  -4   4  575.91   22.22
  -8  -4   5   17.47    2.38
  -8  -4   6   26.68    3.06
  -8  -4   7  188.42    8.47
  -8  -4   8   -3.26    2.83
  -8  -4   9   36.82    4.17
  -8  -4  10   17.47    3.67
  -8  -4  11   18.58    3.48
  -8  -4  12    2.10    2.96
  -8  -4  13   26.68    3.68
  -8  -4  14    3.09    3.09
  -8  -4  15   96.43   10.49
  -8  -4  16   11.45    4.26
  -8  -3 -15  146.42   10.91
  -8  -3 -14   32.90    2.59
  -8  -3 -13   14.09    1.88
  -8  -3 -12    4.94    1.52
  -8  -3 -11   35.81    2.41
  -8  -3 -10    8.32    0.96
  -8  -3  -9  117.02    3.60
  -8  -3  -8    4.51    0.71
  -8  -3  -7   69.29    2.76
  -8  -3  -6  137.37    3.89
  -8  -3  -5  181.33    4.48
  -8  -3  -4  268.92    7.01
  -8  -3  -3   11.14    0.94
  -8  -3  -2    0.71    0.85
  -8  -3  -1   33.71    1.52
  -8  -3   0   72.29    2.62
  -8  -3   1    3.65    1.14
  -8  -3   2    5.64    1.41
  -8  -3   3   20.25    1.82
  -8  -3   4  272.04    9.01
  -8  -3   5  486.77   14.14
  -8  -3   6   -0.42    1.71
  -8  -3   7   60.12    4.23
  -8  -3   8  297.69   11.89
  -8  -3   9  148.72    7.83
  -8  -3  10    3.53    2.81
  -8  -3  11  106.97    5.40
  -8  -3  12   68.10    6.85
  -8  -3  13   25.94    5.08
  -8  -3  14   19.61    6.11
  -8  -3  15    0.42    4.81
  -8  -3  16    5.20    5.09
  -8  -3  17    6.33    7.47
  -8  -2 -15    2.24    3.51
  -8  -2 -14   41.88    4.77
  -8  -2 -13    1.00    1.28
  -8  -2 -12   15.82    2.07
  -8  -2 -11   23.24    2.28
  -8  -2 -10   -2.68    1.83
  -8  -2  -9    3.38    1.40
  -8  -2  -8   19.20    1.45
  -8  -2  -7   37.25    1.89
  -8  -2  -6  134.59    3.58
  -8  -2  -5    2.38    1.14
  -8  -2  -4    3.38    1.14
  -8  -2  -3  110.19    2.99
  -8  -2  -2   33.16    1.78
  -8  -2  -1   75.55    2.89
  -8  -2   0    2.96    1.42
  -8  -2   1   19.61    1.58
  -8  -2   2    2.10    1.27
  -8  -2   3   73.10    2.64
  -8  -2   4   -0.42    1.55
  -8  -2   5  181.96    7.68
  -8  -2   6   10.43    2.14
  -8  -2   7   16.50    3.37
  -8  -2   8  727.86   42.92
  -8  -2   9   17.37    3.96
  -8  -2  10   42.81    5.60
  -8  -2  11    4.94    4.96
  -8  -2  12   25.47    5.51
  -8  -2  13   -4.51    3.23
  -8  -2  14   -0.28    5.10
  -8  -2  15   24.17    6.54
  -8  -2  16    2.10    4.51
  -8  -2  17   39.02    6.53
  -8  -1 -15    6.88    2.68
  -8  -1 -14   15.07    2.86
  -8  -1 -13   17.17    2.27
  -8  -1 -12   75.35    3.30
  -8  -1 -11   24.41    1.88
  -8  -1 -10   65.00    2.88
  -8  -1  -9    7.21    1.40
  -8  -1  -8   35.53    1.55
  -8  -1  -7    0.83    0.97
  -8  -1  -6    3.53    0.85
  -8  -1  -5   12.03    1.40
  -8  -1  -4   54.20    2.45
  -8  -1  -3    1.11    0.71
  -8  -1  -2  338.32   16.16
  -8  -1  -1   24.28    2.10
  -8  -1   0  243.46    8.15
  -8  -1   1  238.30    8.07
  -8  -1   2    1.11    1.83
  -8  -1   3   34.00    2.35
  -8  -1   4    4.37    3.67
  -8  -1   5  194.67   13.25
  -8  -1   6   81.44    7.08
  -8  -1   7   79.74    7.84
  -8  -1   8  204.06   11.53
  -8  -1   9   42.19    6.02
  -8  -1  10    5.20    5.09
  -8  -1  11   19.40    6.39
  -8  -1  12   12.94    5.05
  -8  -1  13    4.67    4.51
  -8  -1  14    7.59    4.91
  -8  -1  15   61.99    7.67
  -8  -1  16   12.44    6.61
  -8   0 -15   13.28    3.64
  -8   0 -14   10.43    2.54
  -8   0 -13   -1.71    2.43
  -8   0 -12  204.40    7.13
  -8   0 -11  162.65    6.06
  -8   0 -10  220.67    7.40
  -8   0  -9    1.27    1.25
  -8   0  -8   57.75    2.52
  -8   0  -7    4.67    0.87
  -8   0  -6    5.92    1.85
  -8   0  -5    2.68    2.10
  -8   0  -4   14.35    1.97
  -8   0  -3    5.47    1.95
  -8   0  -2  150.46    7.87
  -8   0  -1   58.29    2.90
  -8   0   0   40.21    3.02
  -8   0   1  229.93    9.36
  -8   0   2   63.30    3.78
  -8   0   3   95.28    4.86
  -8   0   4    3.93    2.82
  -8   0   5   10.28    4.95
  -8   0   6   43.43    5.64
  -8   0   7    7.21    3.82
  -8   0   8   20.04    4.89
  -8   0   9   31.68    5.61
  -8   0  10  112.44    8.81
  -8   0  11    1.83    5.37
  -8   0  12   -1.00    6.09
  -8   0  13    3.65    6.36
  -8   0  14   34.55    8.23
  -8   0  15    2.38    6.74
  -8   0  16    9.17    4.53
  -8   1 -14   51.95    5.13
  -8   1 -13  145.56    9.46
  -8   1 -12   -2.54    2.95
  -8   1 -11    4.51    2.68
  -8   1 -10   -1.96    2.26
  -8   1  -9    3.79    1.52
  -8   1  -8   14.81    1.83
  -8   1  -7    2.54    2.68
  -8   1  -6   73.10    4.47
  -8   1  -5   83.60    5.43
  -8   1  -4   94.59    5.08
  -8   1  -3   32.76    3.54
  -8   1  -2   23.70    3.36
  -8   1  -1   41.12    5.94
  -8   1   0  106.97    4.17
  -8   1   1    4.07    2.12
  -8   1   2   78.89    4.00
  -8   1   3   21.12    2.72
  -8   1   4   12.86    3.92
  -8   1   5  122.22   10.50
  -8   1   6   11.53    3.55
  -8   1   7   10.81    5.23
  -8   1   8   -2.38    3.92
  -8   1   9    0.71    4.67
  -8   1  10    6.22    3.79
  -8   1  11   17.67    5.09
  -8   1  12   73.70    9.18
  -8   1  13   -9.76    7.19
  -8   1  14   24.52    7.05
  -8   1  15   40.51    7.40
  -8   2 -14   -4.37    6.50
  -8   2 -13    3.09    3.92
  -8   2 -12    3.53    3.96
  -8   2 -11   48.74    6.30
  -8   2 -10   47.11    3.10
  -8   2  -9    6.64    2.69
  -8   2  -8    8.46    2.43
  -8   2  -7    8.46    2.55
  -8   2  -6  114.47    6.09
  -8   2  -5   29.44    2.83
  -8   2  -4  102.59    5.53
  -8   2  -3  123.27    5.54
  -8   2  -2   52.81    4.31
  -8   2  -1   39.45    4.03
  -8   2   0   27.04    4.33
  -8   2   1   20.57    5.39
  -8   2   2    3.09    2.96
  -8   2   3  198.67   11.72
  -8   2   4    9.46    3.79
  -8   2   5   72.29    6.87
  -8   2   6   71.69    7.23
  -8   2   7   12.44    6.78
  -8   2   8   48.25    5.12
  -8   2   9  128.33    8.33
  -8   2  10    2.38    4.65
  -8   2  11    2.96    4.67
  -8   2  12   47.60    8.69
  -8   2  13   -5.36   10.18
  -8   2  14  126.72   16.31
  -8   3 -13   22.67    5.65
  -8   3 -12   -4.51    4.24
  -8   3 -11   26.93    6.78
  -8   3 -10   17.17    4.82
  -8   3  -9  513.86   22.07
  -8   3  -8   17.47    3.37
  -8   3  -7   95.50    5.57
  -8   3  -6    0.00    1.41
  -8   3  -5    0.42    2.98
  -8   3  -4    4.51    2.68
  -8   3  -3   23.12    2.98
  -8   3  -2   30.48    3.54
  -8   3  -1    0.71    2.68
  -8   3   0    2.54    3.24
  -8   3   1   35.81    6.11
  -8   3   2    2.96    3.96
  -8   3   4   29.44    5.54
  -8   3   5   12.27    5.25
  -8   3   6   16.50    5.88
  -8   3   7   61.24    6.13
  -8   3   8   -3.26    3.95
  -8   3   9    2.81    4.94
  -8   3  11   10.97    8.18
  -8   3  12   -0.71    4.67
  -8   4 -11    7.21    6.18
  -8   4 -10   -1.71    4.24
  -8   4  -9   -0.56    3.78
  -8   4  -8    4.51    2.52
  -8   4  -7    4.51    2.68
  -8   4  -6   49.08    3.82
  -8   4  -5    0.28    2.98
  -8   4  -4   11.53    2.66
  -8   4  -3   -2.38    2.52
  -8   4  -2   92.96    5.95
  -8   4  -1    5.75    3.53
  -8   4   0   12.94    6.23
  -8   4   1   39.16    7.13
  -8   4   2    3.53    4.95
  -8   4   3   12.27    5.91
  -8   4   4   -4.67    4.51
  -8   4   5   20.47    6.23
  -8   4   6   17.37    7.32
  -8   4   7   11.86    5.40
  -8   4   8    7.92    5.68
  -8   4   9    4.67    5.23
  -8   4  10   45.18    6.39
  -8   5 -10   14.35    4.95
  -8   5  -9   42.19    6.94
  -8   5  -8    7.78    5.37
  -8   5  -7    0.28    3.98
  -8   5  -6   21.88    6.44
  -8   5  -5   -0.14    4.85
  -8   5  -4   -5.47    4.22
  -8   5  -3   -3.26    4.79
  -8   5  -2   13.64    6.92
  -8   5  -1    3.26    4.67
  -8   5   0   74.52    7.59
  -8   5   1   -0.14    4.99
  -8   5   2   18.37    5.09
  -8   5   3    9.60    4.78
  -8   5   4    9.46    5.63
  -8   5   5   17.17    8.07
  -8   5   6   10.97    5.67
  -8   5   7    3.93    6.18
  -8   6  -6   -0.71    5.53
  -8   6  -5   -6.03    4.67
  -8   6  -4   26.07    5.46
  -8   6  -3   20.57    7.64
  -8   6  -2   21.88    5.89
  -8   6  -1   25.47    6.71
  -8   6   0   81.23    8.77
  -8   6   1   11.14    5.47
  -7 -13  -6    4.67    9.33
  -7 -13  -5   13.11    8.35
  -7 -13  -4   12.03    8.32
  -7 -13  -1    1.41    8.04
  -7 -13   0   -5.92    9.02
  -7 -13   1    7.92    9.29
  -7 -12 -12   10.59    9.43
  -7 -12 -11    8.32    9.32
  -7 -12 -10    2.10    8.29
  -7 -12  -9    0.71    9.21
  -7 -12  -8    2.24    6.61
  -7 -12  -7   20.47    9.46
  -7 -12  -6   57.04   11.48
  -7 -12  -5   40.21   11.00
  -7 -12  -4   29.44    9.02
  -7 -12  -3    1.96    3.53
  -7 -12  -2   -0.14    3.14
  -7 -12  -1    4.07    3.79
  -7 -12   0   85.79    5.72
  -7 -12   1   14.62    3.64
  -7 -12   2   -4.78    7.16
  -7 -12   3   12.10   10.41
  -7 -12   4    5.09    9.86
  -7 -12   5    4.78   11.93
  -7 -12   6    1.71    8.22
  -7 -12   7    6.33    9.56
  -7 -11 -15    5.75    7.18
  -7 -11 -14   37.83   11.69
  -7 -11 -13   13.82    8.21
  -7 -11 -12   -0.28    7.09
  -7 -11 -11    8.74    6.74
  -7 -11 -10   -7.08    7.33
  -7 -11  -9   50.42    9.45
  -7 -11  -8   10.28    7.46
  -7 -11  -7    6.64   10.15
  -7 -11  -6    7.46    9.48
  -7 -11  -5   37.11    3.91
  -7 -11  -4   -5.09    2.52
  -7 -11  -3   11.29    4.23
  -7 -11  -2    1.11    2.66
  -7 -11  -1   45.18    4.31
  -7 -11   0    0.83    4.22
  -7 -11   1   -0.42    3.26
  -7 -11   2    0.83    3.21
  -7 -11   3  153.10    8.23
  -7 -11   4   17.37    3.96
  -7 -11   5   27.04    4.33
  -7 -11   6   34.40    4.60
  -7 -11   7   14.09    9.90
  -7 -11   8   -6.64    8.63
  -7 -11   9   82.09   11.20
  -7 -11  10  -15.92    9.76
  -7 -10 -17    2.54    9.72
  -7 -10 -16   23.24    6.87
  -7 -10 -15    3.53    5.49
  -7 -10 -14   -6.64    5.08
  -7 -10 -13   32.49    8.94
  -7 -10 -12   11.86    8.50
  -7 -10 -11   17.67    9.28
  -7 -10 -10   15.54    9.26
  -7 -10  -9   28.05    7.16
  -7 -10  -8    6.46    5.91
  -7 -10  -7   21.01    7.08
  -7 -10  -6   41.27    4.43
  -7 -10  -5   65.20    5.56
  -7 -10  -4    7.08    4.23
  -7 -10  -3   33.04    2.45
  -7 -10  -2    5.92    1.85
  -7 -10  -1   68.30    3.92
  -7 -10   0   -0.83    2.38
  -7 -10   1   18.78    2.99
  -7 -10   2    0.42    2.41
  -7 -10   3   22.00    2.79
  -7 -10   4  101.16    4.78
  -7 -10   5   -3.53    8.46
  -7 -10   6    5.75    8.88
  -7 -10   7    3.93    8.71
  -7 -10   8   58.12   13.03
  -7 -10   9   20.15   11.29
  -7 -10  10   24.63    9.19
  -7 -10  11   35.81   13.65
  -7 -10  12   -4.07    7.47
  -7 -10  13   16.50    9.84
  -7  -9 -17   -9.17    5.61
  -7  -9 -16   17.17    5.91
  -7  -9 -15    1.71    6.08
  -7  -9 -14   -9.17    5.61
  -7  -9 -13   52.81    6.56
  -7  -9 -12   -3.38    4.68
  -7  -9 -11   48.59    7.29
  -7  -9 -10    7.92    2.14
  -7  -9  -9  132.40    5.19
  -7  -9  -8    0.14    1.28
  -7  -9  -7    2.38    1.40
  -7  -9  -6    8.88    1.69
  -7  -9  -5   65.00    2.88
  -7  -9  -4   33.85    1.93
  -7  -9  -3   52.81    3.62
  -7  -9  -2  556.71   14.02
  -7  -9  -1    7.78    1.72
  -7  -9   0   30.63    2.23
  -7  -9   1    2.81    2.10
  -7  -9   2    3.26    2.96
  -7  -9   3    0.56    2.66
  -7  -9   4   41.88    4.30
  -7  -9   5  127.79    7.78
  -7  -9   6   10.12    4.07
  -7  -9   7    7.33    3.67
  -7  -9   8   17.77    6.91
  -7  -9   9    1.11   13.06
  -7  -9  10   96.90    7.49
  -7  -9  11    0.14    7.71
  -7  -9  12   76.38   15.57
  -7  -9  13   15.26    9.18
  -7  -9  14    2.10    7.16
  -7  -8 -14  243.09   14.81
  -7  -8 -13    4.51    5.50
  -7  -8 -12  153.68    7.36
  -7  -8 -11   36.67    1.88
  -7  -8 -10    9.02    1.14
  -7  -8  -9   32.63    1.49
  -7  -8  -8   12.69    1.10
  -7  -8  -7    3.38    1.58
  -7  -8  -6   87.77    4.00
  -7  -8  -5  123.53    3.69
  -7  -8  -4   83.81    3.05
  -7  -8  -3    2.81    1.40
  -7  -8  -2  229.22    6.12
  -7  -8  -1   -1.83    1.54
  -7  -8   0   75.97    3.53
  -7  -8   1    5.64    1.69
  -7  -8   2   -1.96    1.40
  -7  -8   3    4.37    1.69
  -7  -8   4    3.93    3.10
  -7  -8   5   12.44    4.36
  -7  -8   6    9.46    3.07
  -7  -8   7   10.74    4.82
  -7  -8   8   97.38    6.33
  -7  -8   9    4.22    4.64
  -7  -8  10    1.11    4.62
  -7  -8  11   11.14    3.81
  -7  -8  12   20.04    4.89
  -7  -8  13   -0.71    3.68
  -7  -8  14    5.20    8.29
  -7  -8  15    9.17   10.14
  -7  -8  16   -1.11   11.49
  -7  -7 -14  124.59    4.51
  -7  -7 -13   10.12    1.28
  -7  -7 -12    8.88    1.27
  -7  -7 -11    9.02    1.86
  -7  -7 -10   32.90    1.64
  -7  -7  -9    8.60    1.25
  -7  -7  -8   23.35    1.14
  -7  -7  -7   10.81    0.86
  -7  -7  -6  224.93    5.70
  -7  -7  -5  226.35    5.36
  -7  -7  -4   26.07    1.09
  -7  -7  -3   96.43    3.50
  -7  -7  -2   77.64    2.51
  -7  -7  -1  230.30    6.49
  -7  -7   0  218.20    5.61
  -7  -7   1    2.24    1.42
  -7  -7   2    8.88    1.55
  -7  -7   3  119.60    4.68
  -7  -7   4    9.90    2.54
  -7  -7   5  111.94    5.02
  -7  -7   6   55.61    4.24
  -7  -7   7    2.54    2.68
  -7  -7   8    9.17    3.23
  -7  -7   9    9.60    3.38
  -7  -7  10    7.33    4.37
  -7  -7  11   20.25    4.27
  -7  -7  12   37.11    4.05
  -7  -7  13    5.75    4.89
  -7  -7  14   18.18    4.96
  -7  -7  15    5.09    3.27
  -7  -7  16   26.07    4.48
  -7  -7  17    8.74    9.76
  -7  -6 -16   76.38    6.23
  -7  -6 -15   22.79    1.93
  -7  -6 -14   11.45    1.45
  -7  -6 -13   14.26    1.52
  -7  -6 -12   28.17    2.40
  -7  -6 -11  184.21    8.07
  -7  -6 -10  147.28    4.03
  -7  -6  -9  258.50    6.49
  -7  -6  -8    3.79    1.52
  -7  -6  -7  535.07   15.38
  -7  -6  -6   33.85    2.76
  -7  -6  -5    6.33    1.68
  -7  -6  -4    6.33    1.97
  -7  -6  -3   10.74    2.26
  -7  -6  -2   14.35    0.72
  -7  -6  -1    1.41    1.13
  -7  -6   0    8.19    1.02
  -7  -6   1   24.41    1.64
  -7  -6   2  204.40    6.46
  -7  -6   3  184.86    6.78
  -7  -6   4   -0.42    1.85
  -7  -6   5    3.93    1.55
  -7  -6   6  137.08    5.56
  -7  -6   7   -2.10    3.23
  -7  -6   8    5.64    3.95
  -7  -6   9   68.89    4.54
  -7  -6  10   23.12    4.12
  -7  -6  11   62.35    5.44
  -7  -6  12   53.68    5.05
  -7  -6  13   -0.83    3.21
  -7  -6  14   33.71    4.41
  -7  -6  15    2.24    3.95
  -7  -6  16    0.00    1.41
  -7  -6  17   76.38    7.47
  -7  -6  18   -2.68    4.51
  -7  -5 -17   -0.83    3.21
  -7  -5 -16    0.56    1.69
  -7  -5 -15   13.11    1.55
  -7  -5 -14    7.46    1.55
  -7  -5 -13  187.77    6.19
  -7  -5 -12   -0.71    1.71
  -7  -5 -11   71.28    2.41
  -7  -5 -10   40.06    1.65
  -7  -5  -9  362.32    7.68
  -7  -5  -8   -1.11    1.83
  -7  -5  -7  254.69    8.33
  -7  -5  -6  156.94    5.36
  -7  -5  -5  172.79    5.63
  -7  -5  -4   75.76    3.31
  -7  -5  -3   65.00    2.68
  -7  -5  -2   18.99    1.96
  -7  -5  -1   78.05    2.72
  -7  -5   0    1.96    0.71
  -7  -5   1    4.51    1.11
  -7  -5   2  269.70    6.25
  -7  -5   3    2.10    1.41
  -7  -5   4  128.33    4.30
  -7  -5   5   10.59    1.71
  -7  -5   6   22.79    2.16
  -7  -5   7  129.13    4.86
  -7  -5   8   10.97    3.69
  -7  -5   9    4.37    3.07
  -7  -5  10   -3.53    2.68
  -7  -5  11    0.42    2.54
  -7  -5  12   27.66    3.24
  -7  -5  13   -4.78    2.69
  -7  -5  14    3.38    3.93
  -7  -5  15   26.07    4.24
  -7  -5  16    6.33    5.92
  -7  -5  17    1.11    3.79
  -7  -5  18    1.83    5.37
  -7  -4 -17    0.83    2.52
  -7  -4 -16    3.38    3.23
  -7  -4 -15  246.43    8.21
  -7  -4 -14  222.08    7.43
  -7  -4 -13  204.74    7.13
  -7  -4 -12  121.69    3.93
  -7  -4 -11   91.14    2.72
  -7  -4 -10    2.54    0.83
  -7  -4  -9  194.67    5.64
  -7  -4  -8    0.28    1.71
  -7  -4  -7  135.14    4.70
  -7  -4  -6   12.94    2.13
  -7  -4  -5  189.09    5.88
  -7  -4  -4   -1.00    2.27
  -7  -4  -3   18.89    1.96
  -7  -4  -2   88.23    3.34
  -7  -4  -1   38.72    1.48
  -7  -4   0    1.83    0.83
  -7  -4   1   79.74    2.54
  -7  -4   2    1.00    0.85
  -7  -4   3   39.90    2.26
  -7  -4   4  241.61    7.39
  -7  -4   5  242.71    8.88
  -7  -4   6  340.95   12.28
  -7  -4   7   -0.56    1.69
  -7  -4   8   -1.41    2.96
  -7  -4   9   15.92    3.98
  -7  -4  10   42.34    4.02
  -7  -4  11    2.81    2.66
  -7  -4  12   31.02    3.96
  -7  -4  13    2.96    5.94
  -7  -4  14   32.76    4.07
  -7  -4  15    5.75    3.53
  -7  -4  16   99.01   12.06
  -7  -4  17    2.38    5.20
  -7  -4  18    5.20    4.06
  -7  -4  19   18.78    7.30
  -7  -3 -18  303.04   25.23
  -7  -3 -17    7.59    4.06
  -7  -3 -15    2.81    1.55
  -7  -3 -14   77.42    4.60
  -7  -3 -13   13.99    1.69
  -7  -3 -12  105.02    3.89
  -7  -3 -11   13.55    1.40
  -7  -3 -10   32.35    1.76
  -7  -3  -9  253.95    6.05
  -7  -3  -8    7.46    0.85
  -7  -3  -7   15.92    0.94
  -7  -3  -6    7.21    0.58
  -7  -3  -5  346.23    8.84
  -7  -3  -4   18.89    0.83
  -7  -3  -3   86.89    2.44
  -7  -3  -2  178.78    4.13
  -7  -3  -1   25.47    1.33
  -7  -3   0    0.83    0.97
  -7  -3   1    9.90    1.27
  -7  -3   2   14.35    1.44
  -7  -3   3  278.74    7.13
  -7  -3   4  142.41    4.54
  -7  -3   5   44.70    2.38
  -7  -3   6   94.81    4.40
  -7  -3   7  165.99    5.81
  -7  -3   8   -2.10    2.51
  -7  -3   9  382.95   14.41
  -7  -3  10   66.16    4.24
  -7  -3  11  190.72    8.86
  -7  -3  12   -3.53    2.68
  -7  -3  13   -1.83    3.67
  -7  -3  14    9.02    3.92
  -7  -3  15   -0.71    4.39
  -7  -3  16   -3.26    6.22
  -7  -3  17   21.33    5.37
  -7  -3  18   -4.22    7.18
  -7  -3  19   -1.11    5.19
  -7  -2 -18    4.07    3.26
  -7  -2 -17    1.00    2.96
  -7  -2 -16  128.33   12.11
  -7  -2 -15   42.50    5.10
  -7  -2 -14  118.05    6.71
  -7  -2 -13  100.20    5.71
  -7  -2 -12   78.68    3.37
  -7  -2 -11   98.31    3.54
  -7  -2 -10   65.78    2.69
  -7  -2  -9   91.37    3.17
  -7  -2  -8   75.76    2.69
  -7  -2  -7  190.72    4.60
  -7  -2  -6    0.00    1.41
  -7  -2  -5   86.22    2.20
  -7  -2  -4    9.60    0.96
  -7  -2  -3   97.38    2.58
  -7  -2  -2  105.50    2.68
  -7  -2  -1   51.27    1.88
  -7  -2   0  276.76    6.32
  -7  -2   1   81.87    2.58
  -7  -2   2   41.57    1.68
  -7  -2   3   22.79    1.59
  -7  -2   4    4.94    1.52
  -7  -2   5   60.67    2.78
  -7  -2   6   28.93    2.43
  -7  -2   7  112.20    6.03
  -7  -2   8   29.19    3.34
  -7  -2   9   23.24    3.20
  -7  -2  10   77.21    6.68
  -7  -2  11   43.43    6.26
  -7  -2  12  131.58   10.35
  -7  -2  13   -1.96    5.36
  -7  -2  14    2.54    3.67
  -7  -2  15   -1.00    3.81
  -7  -2  16   20.15    7.57
  -7  -2  17   85.79    8.80
  -7  -2  18    9.98    4.95
  -7  -2  19   -0.28    7.37
  -7  -1 -18   87.55    7.56
  -7  -1 -17   69.29    6.13
  -7  -1 -16   -2.24    2.95
  -7  -1 -15  457.36   22.35
  -7  -1 -14   27.55    3.37
  -7  -1 -13   73.10    3.65
  -7  -1 -12    0.83    1.96
  -7  -1 -11    5.47    1.66
  -7  -1 -10  151.64    5.85
  -7  -1  -9  160.53    4.51
  -7  -1  -8   -2.81    1.40
  -7  -1  -7  247.93    6.36
  -7  -1  -6   56.68    1.79
  -7  -1  -5    9.90    1.13
  -7  -1  -4   47.43    1.96
  -7  -1  -3    2.10    1.00
  -7  -1  -2   40.51    1.66
  -7  -1  -1   76.79    2.09
  -7  -1   0  459.90    9.67
  -7  -1   1  140.44    3.65
  -7  -1   2  398.91    9.01
  -7  -1   3   48.10    2.96
  -7  -1   4   74.11    3.88
  -7  -1   5  151.04    7.59
  -7  -1   6   61.99    4.48
  -7  -1   7   20.25    3.43
  -7  -1   8    8.74    4.36
  -7  -1   9   90.47    9.94
  -7  -1  10  153.98   12.97
  -7  -1  11  133.77   10.98
  -7  -1  12   15.07    5.81
  -7  -1  13   17.87    4.31
  -7  -1  14   -1.00    4.95
  -7  -1  15   47.93    7.06
  -7  -1  16    6.77    5.06
  -7  -1  17   22.22    7.84
  -7  -1  18   -5.92    5.49
  -7   0 -18    3.93    4.24
  -7   0 -17    0.83    5.03
  -7   0 -16   16.10    3.43
  -7   0 -15   21.67    3.76
  -7   0 -14    5.36    2.52
  -7   0 -13  462.45   20.43
  -7   0 -12    0.28    2.55
  -7   0 -11   29.71    2.45
  -7   0 -10  109.94    3.99
  -7   0  -9    9.60    1.69
  -7   0  -8    4.37    1.54
  -7   0  -7    0.28    1.42
  -7   0  -6  155.16    3.55
  -7   0  -5   84.04    2.17
  -7   0  -4  187.13    5.20
  -7   0  -3   61.42    2.79
  -7   0  -2   17.67    2.30
  -7   0  -1    3.53    1.42
  -7   0   0    7.59    1.44
  -7   0   1  166.30    5.20
  -7   0   2   99.25    3.31
  -7   0   3    1.11    2.54
  -7   0   4  302.62   14.04
  -7   0   5   11.45    3.13
  -7   0   6   38.56    4.86
  -7   0   7  147.28    8.94
  -7   0   8   25.47    4.67
  -7   0   9    8.19    3.67
  -7   0  10   44.85    5.57
  -7   0  11   17.17    5.61
  -7   0  12  133.77   12.63
  -7   0  13   18.78    6.58
  -7   0  14   82.30    9.91
  -7   0  15  179.72   13.69
  -7   0  16   16.50    4.82
  -7   0  17    1.11    5.75
  -7   0  18   17.87    5.22
  -7   1 -18    7.46    4.47
  -7   1 -17   -2.38    4.65
  -7   1 -16   -6.33    3.95
  -7   1 -15    4.78    3.12
  -7   1 -14   -1.96    2.96
  -7   1 -13  112.44    7.56
  -7   1 -12   11.29    2.95
  -7   1 -11 2205.57   70.26
  -7   1 -10    6.88    1.80
  -7   1  -9    1.83    1.54
  -7   1  -8   58.47    2.90
  -7   1  -7   31.42    1.86
  -7   1  -6   31.68    1.07
  -7   1  -5  223.50    7.11
  -7   1  -4    3.26    1.97
  -7   1  -3  162.34    5.44
  -7   1  -2  290.35   11.34
  -7   1  -1   13.28    2.95
  -7   1   0  182.60    6.42
  -7   1   1   61.99    2.99
  -7   1   2  218.56    8.08
  -7   1   3   37.11    5.20
  -7   1   4    5.47    4.06
  -7   1   5   10.74    3.43
  -7   1   6   17.77    5.40
  -7   1   7  123.01    8.95
  -7   1   8   -1.27    3.24
  -7   1   9   37.83    9.79
  -7   1  10   16.20    4.12
  -7   1  11   39.45    6.42
  -7   1  12   60.49    6.27
  -7   1  13   -2.54    3.93
  -7   1  14    6.77    3.84
  -7   1  15   27.55    5.98
  -7   1  16    6.88    4.36
  -7   1  17    9.46    6.50
  -7   2 -17    6.64    4.53
  -7   2 -16    1.00    3.81
  -7   2 -15   -2.96    3.51
  -7   2 -14   24.41    4.92
  -7   2 -13    4.22    2.83
  -7   2 -12   -3.93    2.96
  -7   2 -11   21.12    2.72
  -7   2 -10  237.93    9.15
  -7   2  -9  460.40   15.79
  -7   2  -8   26.93    2.10
  -7   2  -7   99.49    3.79
  -7   2  -6    1.41    2.82
  -7   2  -5   97.60    4.70
  -7   2  -4    9.02    2.14
  -7   2  -3   51.78    3.60
  -7   2  -2  221.38    8.12
  -7   2  -1  144.40    9.70
  -7   2   0  120.39    9.12
  -7   2   1    1.00    1.14
  -7   2   2   39.31    2.98
  -7   2   3  102.59    5.53
  -7   2   4   21.45    3.53
  -7   2   5   49.42    6.18
  -7   2   6    6.64    3.79
  -7   2   7  133.22   13.16
  -7   2   8    9.17    4.96
  -7   2   9    2.54    3.82
  -7   2  10   44.06    6.46
  -7   2  11    3.53    3.96
  -7   2  12   25.23    5.49
  -7   2  13    6.46    5.91
  -7   2  14  149.89   13.96
  -7   2  15   69.88    9.73
  -7   2  16   -4.07    5.37
  -7   3 -17    9.02    4.92
  -7   3 -16   24.63    6.73
  -7   3 -15   -3.79    4.48
  -7   3 -14   17.08    4.81
  -7   3 -13   -1.55    4.95
  -7   3 -12    7.92    3.54
  -7   3 -11   12.10    6.36
  -7   3 -10    3.38    3.93
  -7   3  -9   29.19    3.72
  -7   3  -8    2.81    2.54
  -7   3  -7    2.54    1.13
  -7   3  -6  135.14    5.25
  -7   3  -5    2.38    3.37
  -7   3  -4  138.48    6.43
  -7   3  -3   25.70    3.37
  -7   3  -2   11.69    2.85
  -7   3  -1   28.93    4.09
  -7   3   0    3.09    3.79
  -7   3   1    7.46    3.50
  -7   3   2   99.49    5.68
  -7   3   3    2.38    1.83
  -7   3   4   23.01   10.48
  -7   3   5    9.17    4.82
  -7   3   6    0.42    5.53
  -7   3   7  174.99   14.45
  -7   3   8   14.99    5.06
  -7   3   9  191.05   15.75
  -7   3  10    3.38    4.68
  -7   3  11   -0.42    4.67
  -7   3  12   51.27    7.83
  -7   3  13    4.07    6.91
  -7   3  14    8.19    6.94
  -7   3  15   22.56    8.69
  -7   4 -16   -3.79    3.65
  -7   4 -15   -1.27    3.67
  -7   4 -14    8.46    7.05
  -7   4 -13   -4.07    6.03
  -7   4 -12    1.83    5.20
  -7   4 -11    2.54    4.23
  -7   4 -10    5.92    3.41
  -7   4  -9   26.68    5.64
  -7   4  -8    7.59    2.68
  -7   4  -7  103.81    5.57
  -7   4  -6  249.80   12.01
  -7   4  -5  520.88   20.60
  -7   4  -4    1.27    2.54
  -7   4  -3   19.61    3.26
  -7   4  -2   20.57    2.81
  -7   4  -1    8.05    3.37
  -7   4   0   26.07    6.19
  -7   4   1   26.07    5.58
  -7   4   2   16.78    5.74
  -7   4   3    1.11    3.64
  -7   4   4    2.68    5.49
  -7   4   5   61.42    7.26
  -7   4   6    2.10    3.65
  -7   4   7   27.30    5.22
  -7   4   8   10.97    4.96
  -7   4   9    3.09    4.79
  -7   4  10   51.95    8.39
  -7   4  11    9.60    5.81
  -7   4  12    4.07    5.37
  -7   4  13   -4.07    5.75
  -7   5 -15   20.47    6.77
  -7   5 -14   15.64    5.64
  -7   5 -13   -0.14    4.57
  -7   5 -12   17.17    5.12
  -7   5 -11   56.68    6.98
  -7   5 -10    2.68    4.67
  -7   5  -9   90.02    8.11
  -7   5  -8   22.56    6.32
  -7   5  -7   17.67    4.19
  -7   5  -6    9.98    2.85
  -7   5  -5  197.33   10.01
  -7   5  -4   77.42    4.81
  -7   5  -3   17.08    2.55
  -7   5  -2  176.24    8.52
  -7   5  -1   -1.27    2.41
  -7   5   0   28.68    3.95
  -7   5   1   32.90    6.40
  -7   5   2   13.38    5.03
  -7   5   3   32.35    8.52
  -7   5   4  117.54   11.32
  -7   5   5    1.11    5.89
  -7   5   6   12.94    7.01
  -7   5   7   70.68    8.59
  -7   5   8    3.79    5.23
  -7   5   9   36.82    7.21
  -7   5  10   -1.71    8.22
  -7   5  11    2.10    6.19
  -7   6 -12   33.45    8.52
  -7   6 -11   36.39    8.31
  -7   6 -10   -4.78    7.57
  -7   6  -9   28.93    7.54
  -7   6  -8   17.17    7.19
  -7   6  -7    0.83    4.06
  -7   6  -6    3.09    4.92
  -7   6  -5   35.39    5.23
  -7   6  -4   -0.14    4.57
  -7   6  -3   -1.41    7.61
  -7   6  -2   12.27    5.91
  -7   6  -1   46.46    7.94
  -7   6   0   31.68    7.08
  -7   6   1    3.79    6.47
  -7   6   2    1.00    6.09
  -7   6   3    1.41    5.22
  -7   6   4    2.24    7.32
  -7   6   5   13.38    6.16
  -7   6   6    4.94    5.91
  -7   6   7   29.19    7.06
  -7   6   8    5.09    7.92
  -7   7  -6   -1.83    5.08
  -7   7  -5    3.38    5.20
  -7   7  -4   -1.00    5.81
  -7   7  -3   47.43    8.50
  -7   7  -2   33.85    7.60
  -7   7  -1    1.55    6.49
  -7   7   0   15.07   10.05
  -7   7   1   21.67    6.74
  -7   7   2   -4.37    6.05
  -6 -13  -6   -6.22    8.05
  -6 -13  -5   17.47    9.83
  -6 -13  -4   12.69    9.98
  -6 -13  -3   15.64    8.16
  -6 -13  -2   17.37    9.01
  -6 -13  -1    5.36   12.82
  -6 -13   0   -0.83    9.66
  -6 -13   1    7.08    9.91
  -6 -13   2   10.28    9.29
  -6 -12 -12   13.82   10.15
  -6 -12 -11   24.28   11.24
  -6 -12 -10   19.40    7.43
  -6 -12  -9    5.47    7.33
  -6 -12  -8   45.49    9.93
  -6 -12  -7   -0.71    7.23
  -6 -12  -4   23.70    8.78
  -6 -12  -3   50.42    9.62
  -6 -12  -2  -19.61    8.63
  -6 -12  -1   16.50   11.58
  -6 -12   0   -2.38    9.72
  -6 -12   1   23.01    8.77
  -6 -12   2   -0.56    9.14
  -6 -12   3   20.57   12.72
  -6 -12   4   -7.08    7.52
  -6 -12   5   20.69   10.80
  -6 -12   6    9.17   12.44
  -6 -12   7   18.99    9.63
  -6 -12   8   -1.00    8.50
  -6 -11 -15    8.74    6.46
  -6 -11 -14   84.25   10.90
  -6 -11 -13   24.52    7.29
  -6 -11 -12   11.45    7.23
  -6 -11 -11    1.00   11.18
  -6 -11 -10   10.97   10.31
  -6 -11  -9    1.83    9.04
  -6 -11  -8   29.31    8.23
  -6 -11  -7   19.30    6.36
  -6 -11  -6   13.82    8.21
  -6 -11  -5    3.93    9.14
  -6 -11  -4    0.83   10.50
  -6 -11  -3   13.64    3.95
  -6 -11  -2   75.35    5.98
  -6 -11  -1    4.94    3.12
  -6 -11   0   36.82    3.75
  -6 -11   1    3.26    2.83
  -6 -11   2   37.25    3.33
  -6 -11   3   78.68    4.85
  -6 -11   4   11.14    4.20
  -6 -11   5   -1.41    2.96
  -6 -11   6   -2.38    2.68
  -6 -11   7    2.54   13.95
  -6 -11   8    6.64   10.15
  -6 -11   9   12.94   12.39
  -6 -11  10   -9.02   12.85
  -6 -11  11    2.24    9.42
  -6 -10 -18   24.87    9.48
  -6 -10 -17   23.70    6.82
  -6 -10 -16    6.88    8.60
  -6 -10 -15    2.54    5.06
  -6 -10 -14   33.45    7.56
  -6 -10 -13   14.09    5.80
  -6 -10 -12    9.02    5.78
  -6 -10 -11   74.93    9.87
  -6 -10 -10   39.31    8.33
  -6 -10  -9  169.37   14.21
  -6 -10  -8   -0.83    3.21
  -6 -10  -7    2.54    1.96
  -6 -10  -6    7.33    3.67
  -6 -10  -5   32.63    2.71
  -6 -10  -4    2.38    2.38
  -6 -10  -3   27.04    2.96
  -6 -10  -2   -2.96    2.13
  -6 -10  -1    4.07    2.26
  -6 -10   0   15.26    2.41
  -6 -10   1   27.79    2.88
  -6 -10   2   99.49    5.44
  -6 -10   3   -0.83    2.10
  -6 -10   4   -1.55    2.13
  -6 -10   5    4.51    4.50
  -6 -10   6   -0.71    3.40
  -6 -10   7   -0.28    4.54
  -6 -10   8   -6.88    4.79
  -6 -10   9   48.59    6.12
  -6 -10  10   11.14    5.47
  -6 -10  11   -1.96    5.06
  -6 -10  12   50.76   12.69
  -6 -10  13    9.31    8.63
  -6 -10  14   -7.21    8.35
  -6  -9 -15   16.68    7.37
  -6  -9 -14    6.77    4.94
  -6  -9 -13   36.67    6.75
  -6  -9 -12   42.65    4.03
  -6  -9 -11    1.71    1.99
  -6  -9 -10   64.24    3.99
  -6  -9  -9    2.96    2.69
  -6  -9  -8    3.26    2.27
  -6  -9  -7  100.20    4.05
  -6  -9  -6    2.81    1.95
  -6  -9  -5    8.05    1.69
  -6  -9  -4   56.32    2.50
  -6  -9  -3   16.10    1.80
  -6  -9  -2  139.31    4.77
  -6  -9  -1   45.18    2.40
  -6  -9   0  161.14    6.03
  -6  -9   1   27.79    3.00
  -6  -9   2    3.26    2.40
  -6  -9   3   30.75    3.16
  -6  -9   4   14.81    3.20
  -6  -9   5   50.08    4.54
  -6  -9   6   16.40    4.13
  -6  -9   7   12.86    4.94
  -6  -9   8   32.49    3.92
  -6  -9   9   13.82    4.23
  -6  -9  10    6.03    3.68
  -6  -9  11   35.67    5.67
  -6  -9  12   -5.09    4.23
  -6  -9  13   -1.96    4.23
  -6  -9  14   23.24    5.61
  -6  -9  15   -8.74    9.48
  -6  -8 -14   64.62    6.11
  -6  -8 -13  100.20    5.47
  -6  -8 -12   34.14    2.35
  -6  -8 -11   79.31    2.96
  -6  -8 -10  166.91    5.82
  -6  -8  -9   12.86    1.71
  -6  -8  -8    1.27    1.25
  -6  -8  -7    8.05    1.41
  -6  -8  -6    6.46    1.38
  -6  -8  -5  196.67    5.33
  -6  -8  -4   13.82    1.85
  -6  -8  -3   12.10    1.82
  -6  -8  -2  409.42   10.10
  -6  -8  -1  114.97    3.57
  -6  -8   0   53.85    2.44
  -6  -8   1   41.27    2.28
  -6  -8   2    6.33    2.09
  -6  -8   3   -0.71    1.85
  -6  -8   4   98.55    6.84
  -6  -8   5    3.09    3.09
  -6  -8   6    2.68    3.12
  -6  -8   7   21.12    3.93
  -6  -8   8  256.60   11.79
  -6  -8   9    5.20    4.39
  -6  -8  10    9.76    3.26
  -6  -8  11    0.42    4.12
  -6  -8  12    9.02    4.64
  -6  -8  13    3.26    3.82
  -6  -8  14   34.97    6.46
  -6  -8  15   27.92    5.40
  -6  -8  16    7.78    3.98
  -6  -8  17    3.38    4.68
  -6  -7 -16   40.67    4.70
  -6  -7 -15   39.02    3.71
  -6  -7 -14   86.89    4.43
  -6  -7 -13   12.44    1.59
  -6  -7 -12   12.86    1.71
  -6  -7 -11   85.56    3.07
  -6  -7 -10    2.24    1.14
  -6  -7  -9    2.10    1.14
  -6  -7  -8    4.94    1.00
  -6  -7  -7   -1.27    1.13
  -6  -7  -6   26.07    1.21
  -6  -7  -5  124.59    3.44
  -6  -7  -4  113.71    3.29
  -6  -7  -3    2.54    1.28
  -6  -7  -2   12.27    1.41
  -6  -7  -1    1.83    1.25
  -6  -7   0    1.96    1.13
  -6  -7   1   15.92    1.99
  -6  -7   2   30.75    2.37
  -6  -7   3  194.34    6.63
  -6  -7   4   96.21    4.19
  -6  -7   5  156.05    5.94
  -6  -7   6   29.06    3.84
  -6  -7   7  404.14   15.28
  -6  -7   8   35.25    4.51
  -6  -7   9   33.16    4.51
  -6  -7  10   -7.33    3.54
  -6  -7  11   35.67    4.96
  -6  -7  12    3.53    3.79
  -6  -7  13   19.40    6.39
  -6  -7  14    0.56    4.22
  -6  -7  15    1.27    3.96
  -6  -7  16   13.82    5.47
  -6  -7  17   19.61    5.68
  -6  -7  18   51.44    5.96
  -6  -6 -17   99.49    8.29
  -6  -6 -16    4.07    1.40
  -6  -6 -15   10.12    2.57
  -6  -6 -14  103.31    4.10
  -6  -6 -13   73.10    3.05
  -6  -6 -12   85.35    3.74
  -6  -6 -11    9.76    1.25
  -6  -6 -10   12.69    1.10
  -6  -6  -9    7.46    0.97
  -6  -6  -8   51.10    1.69
  -6  -6  -7  216.10    4.89
  -6  -6  -6   68.30    1.76
  -6  -6  -5  361.87    6.78
  -6  -6  -4   26.68    1.10
  -6  -6  -3    7.33    0.83
  -6  -6  -2   32.49    1.21
  -6  -6  -1    6.64    0.97
  -6  -6   0  151.92    4.39
  -6  -6   1   29.19    2.06
  -6  -6   2   -0.56    1.41
  -6  -6   3  241.98    6.66
  -6  -6   4    0.56    1.25
  -6  -6   5    3.93    2.26
  -6  -6   6   13.11    2.41
  -6  -6   7  173.73    6.57
  -6  -6   8   36.96    4.33
  -6  -6   9    1.83    4.09
  -6  -6  10    4.78    4.20
  -6  -6  11    1.83    4.09
  -6  -6  12  184.21    8.70
  -6  -6  13   26.31    3.65
  -6  -6  14   32.08    4.71
  -6  -6  15   20.47    4.19
  -6  -6  16   -0.71    3.68
  -6  -6  17   14.81    4.12
  -6  -6  18   49.42    5.51
  -6  -6  19   -0.71    3.40
  -6  -5 -18   49.08    5.99
  -6  -5 -17    4.07    4.07
  -6  -5 -16   -1.41    2.26
  -6  -5 -15   21.67    2.21
  -6  -5 -14    1.55    1.54
  -6  -5 -13   40.51    1.96
  -6  -5 -12    5.09    1.28
  -6  -5 -11   32.35    1.89
  -6  -5 -10   32.90    1.78
  -6  -5  -9  562.89   14.09
  -6  -5  -8  139.59    3.37
  -6  -5  -7   38.13    1.17
  -6  -5  -6   13.64    1.66
  -6  -5  -5   68.89    2.76
  -6  -5  -4    3.65    1.54
  -6  -5  -3   58.47    2.54
  -6  -5  -2   11.29    0.56
  -6  -5  -1   32.63    1.35
  -6  -5   0  226.71    5.36
  -6  -5   1  102.59    3.13
  -6  -5   2  399.39    9.97
  -6  -5   3  294.82    7.74
  -6  -5   4   14.99    2.12
  -6  -5   5  112.94    3.78
  -6  -5   6    2.68    1.83
  -6  -5   7  170.61    6.51
  -6  -5   8    0.28    1.99
  -6  -5   9  175.62    9.76
  -6  -5  10   15.82    4.54
  -6  -5  11   20.04    2.98
  -6  -5  12    0.28    3.26
  -6  -5  13   42.19    4.16
  -6  -5  14   46.46    5.02
  -6  -5  15    0.00    1.41
  -6  -5  16   21.33    6.91
  -6  -5  17   30.48    4.20
  -6  -5  18   -0.14    4.15
  -6  -5  19    5.36    5.67
  -6  -4 -19   45.01    5.41
  -6  -4 -18   10.81    5.08
  -6  -4 -17   11.14    4.20
  -6  -4 -16   98.08    8.23
  -6  -4 -15  150.76    7.59
  -6  -4 -14   91.14    5.22
  -6  -4 -13   12.94    1.71
  -6  -4 -12   20.25    1.82
  -6  -4 -11   25.23    1.66
  -6  -4 -10  728.49   17.30
  -6  -4  -9  564.01   13.54
  -6  -4  -8   68.10    2.16
  -6  -4  -7    4.37    0.45
  -6  -4  -6  123.53    4.23
  -6  -4  -5  310.11    7.95
  -6  -4  -4    1.83    1.54
  -6  -4  -3   49.58    2.34
  -6  -4  -2   16.20    1.72
  -6  -4  -1   -0.14    0.42
  -6  -4   0   32.63    1.35
  -6  -4   1   12.10    0.99
  -6  -4   2   63.48    2.27
  -6  -4   3  137.08    5.01
  -6  -4   4    7.78    1.40
  -6  -4   5  112.20    4.53
  -6  -4   6    0.14    1.42
  -6  -4   7   81.23    4.06
  -6  -4   8   20.47    2.37
  -6  -4   9   11.69    3.24
  -6  -4  10   77.83    6.29
  -6  -4  11    8.60    3.27
  -6  -4  12    1.41    2.96
  -6  -4  13  179.41    7.95
  -6  -4  14    9.98    2.92
  -6  -4  15   34.14    4.85
  -6  -4  16   78.05    5.46
  -6  -4  17   85.35   12.72
  -6  -4  18    5.75    5.36
  -6  -4  19    7.92    5.68
  -6  -4  20    3.09    5.92
  -6  -3 -20    4.07    3.36
  -6  -3 -19   45.01    6.05
  -6  -3 -18   38.13    5.57
  -6  -3 -17   20.47    4.95
  -6  -3 -16  136.53    8.05
  -6  -3 -15   -0.83    1.68
  -6  -3 -14   49.58    3.34
  -6  -3 -13    3.79    2.27
  -6  -3 -12   -1.27    1.42
  -6  -3 -11    6.64    1.28
  -6  -3 -10  123.80    3.17
  -6  -3  -9  143.56    3.69
  -6  -3  -8    7.78    0.86
  -6  -3  -7  129.41    3.78
  -6  -3  -6    5.47    0.45
  -6  -3  -5   22.79    1.93
  -6  -3  -4   10.28    2.82
  -6  -3  -3   34.55    2.37
  -6  -3  -2 1325.49   26.80
  -6  -3  -1  111.69    3.02
  -6  -3   0  157.84    3.88
  -6  -3   1   10.97    1.03
  -6  -3   2   -1.83    1.13
  -6  -3   3   18.18    1.82
  -6  -3   4  310.53    8.78
  -6  -3   5   -0.56    1.55
  -6  -3   6   70.47    3.60
  -6  -3   7   89.34    3.37
  -6  -3   8   -0.42    2.13
  -6  -3   9  311.36   12.58
  -6  -3  10   15.54    3.27
  -6  -3  11   -2.38    2.82
  -6  -3  12  429.85   18.22
  -6  -3  13   23.12    4.00
  -6  -3  14   15.07    4.06
  -6  -3  15   20.69    7.46
  -6  -3  16   31.27    5.84
  -6  -3  17   -7.08    6.37
  -6  -3  18   18.47    6.53
  -6  -3  19    5.75    8.15
  -6  -3  20   32.35    7.16
  -6  -2 -21   -6.77    4.64
  -6  -2 -20   -3.93    4.95
  -6  -2 -19   26.57    6.49
  -6  -2 -18   71.08    6.61
  -6  -2 -17   40.21    4.51
  -6  -2 -16   88.89    6.94
  -6  -2 -15  355.57   20.60
  -6  -2 -14  451.79   17.16
  -6  -2 -13   54.55    3.51
  -6  -2 -12   51.78    3.60
  -6  -2 -11    8.19    2.10
  -6  -2 -10   10.43    1.30
  -6  -2  -9   25.94    1.58
  -6  -2  -8   51.78    2.04
  -6  -2  -7   46.29    1.78
  -6  -2  -6   94.12    2.76
  -6  -2  -5  110.94    2.75
  -6  -2  -4   40.96    1.37
  -6  -2  -3   17.17    0.99
  -6  -2  -2   19.83    0.96
  -6  -2  -1   25.23    1.07
  -6  -2   0    1.00    0.85
  -6  -2   1    9.76    1.11
  -6  -2   2   22.00    1.45
  -6  -2   3    8.19    1.57
  -6  -2   4   -0.28    1.85
  -6  -2   5    2.24    1.52
  -6  -2   6   25.35    1.92
  -6  -2   7  250.55    7.90
  -6  -2   8    7.78    2.12
  -6  -2   9  255.46    9.49
  -6  -2  10    5.20    2.54
  -6  -2  11  113.71    8.36
  -6  -2  12   69.29    6.73
  -6  -2  13   18.08    3.93
  -6  -2  14   -3.93    3.38
  -6  -2  15    4.37    6.50
  -6  -2  16   -3.38    4.68
  -6  -2  17   16.10    3.91
  -6  -2  18   17.87    5.22
  -6  -2  19  -11.14    6.35
  -6  -2  20    1.00    6.66
  -6  -1 -21   34.40    6.54
  -6  -1 -20   63.68    6.82
  -6  -1 -19   25.70    6.39
  -6  -1 -18    3.53    3.96
  -6  -1 -17    0.56    4.92
  -6  -1 -16   34.40    4.74
  -6  -1 -15   55.78    4.43
  -6  -1 -14   71.28    4.41
  -6  -1 -13  173.73    7.52
  -6  -1 -12  335.70   13.06
  -6  -1 -11   33.45    2.47
  -6  -1 -10    2.24    1.96
  -6  -1  -9   50.76    2.20
  -6  -1  -8   85.35    2.85
  -6  -1  -7  296.05    7.36
  -6  -1  -6   23.93    1.51
  -6  -1  -5  195.99    4.33
  -6  -1  -4  120.91    2.88
  -6  -1  -3   39.45    1.49
  -6  -1  -2   97.84    2.58
  -6  -1  -1   77.00    2.50
  -6  -1   0  610.63   12.92
  -6  -1   1  254.69    5.68
  -6  -1   2   21.12    1.42
  -6  -1   3  103.07    3.13
  -6  -1   4   21.56    1.65
  -6  -1   5  256.60    6.47
  -6  -1   6    5.47    2.28
  -6  -1   7   48.59    3.31
  -6  -1   8   74.11    4.91
  -6  -1   9   12.94    4.19
  -6  -1  10    3.38    2.83
  -6  -1  11   -0.71    3.26
  -6  -1  12   74.32    6.56
  -6  -1  13   15.64    4.79
  -6  -1  14    7.33    5.33
  -6  -1  15    3.79    5.78
  -6  -1  16   70.28    7.36
  -6  -1  17    2.54    4.79
  -6  -1  18   45.49    5.92
  -6  -1  19    4.22    7.76
  -6  -1  20   -3.09    5.22
  -6   0 -21   89.57    8.54
  -6   0 -20    6.88    5.05
  -6   0 -19  252.80   14.72
  -6   0 -18   10.28    3.65
  -6   0 -17    0.00    1.41
  -6   0 -16   11.69    3.98
  -6   0 -15  128.60    7.54
  -6   0 -14   10.81    2.98
  -6   0 -13   77.64    5.23
  -6   0 -12    3.93    1.83
  -6   0 -11    2.54    2.38
  -6   0 -10   83.81    3.05
  -6   0  -9  325.35    7.28
  -6   0  -8   39.45    1.95
  -6   0  -7  578.20   12.00
  -6   0  -6   73.51    2.03
  -6   0  -5   40.06    1.51
  -6   0  -4    2.96    0.69
  -6   0  -3   47.26    2.13
  -6   0  -2  457.36   12.70
  -6   0  -1    5.92    1.38
  -6   0   0    1.00    1.57
  -6   0   1    6.33    1.25
  -6   0   2  244.20    7.42
  -6   0   3  147.56    4.91
  -6   0   4  139.59    5.33
  -6   0   5    7.46    2.40
  -6   0   6   29.06    2.57
  -6   0   7   68.70    3.14
  -6   0   8    7.92    3.81
  -6   0  10   39.31    6.56
  -6   0  11    4.78    3.53
  -6   0  13    7.33    4.82
  -6   0  14   79.10    7.18
  -6   0  15   57.04    7.53
  -6   0  16    7.78    6.90
  -6   0  17   46.46    8.90
  -6   0  18    1.41    4.09
  -6   0  19   65.98    8.69
  -6   1 -21   -2.10    6.60
  -6   1 -20   -2.96    4.67
  -6   1 -19   -5.36    5.06
  -6   1 -18   -0.56    4.92
  -6   1 -17   32.76    5.03
  -6   1 -16   81.02    6.84
  -6   1 -15    1.71    2.98
  -6   1 -14   21.67    3.54
  -6   1 -13   11.69    2.85
  -6   1 -12  124.86    5.84
  -6   1 -11   31.54    3.34
  -6   1 -10    4.78    1.82
  -6   1  -9   48.42    2.31
  -6   1  -8    2.38    1.54
  -6   1  -7  125.92    3.20
  -6   1  -6   91.37    2.72
  -6   1  -5  347.12    7.97
  -6   1  -4   16.20    1.82
  -6   1  -3   49.25    2.33
  -6   1  -2    4.94    1.69
  -6   1  -1   43.12    2.03
  -6   1   0   61.05    2.41
  -6   1   1   17.87    1.80
  -6   1   2  296.87    9.00
  -6   1   3   92.96    3.89
  -6   1   4    7.59    2.43
  -6   1   5    8.88    1.99
  -6   1   6   55.61    4.24
  -6   1   7  361.87   20.33
  -6   1   8  121.69    8.64
  -6   1   9    2.96    3.96
  -6   1  10    6.77    4.39
  -6   1  11   11.53    4.92
  -6   1  12    5.20    4.77
  -6   1  13  203.72   14.58
  -6   1  14    1.55    4.39
  -6   1  15  101.64    8.86
  -6   1  16   -3.79    5.36
  -6   1  17    8.19    4.22
  -6   1  18   25.11    5.95
  -6   1  19    1.11    5.75
  -6   2 -21   12.52    5.63
  -6   2 -20    8.46    6.08
  -6   2 -19   49.08    9.15
  -6   2 -18   -3.93    3.53
  -6   2 -17   19.20    4.68
  -6   2 -15   62.73    4.71
  -6   2 -14   15.07    3.41
  -6   2 -13    0.28    4.12
  -6   2 -12    1.27    2.68
  -6   2 -11   19.83    2.54
  -6   2 -10   32.49    4.20
  -6   2  -9   33.71    2.62
  -6   2  -8   -1.27    2.12
  -6   2  -7    0.42    1.71
  -6   2  -6   26.68    1.72
  -6   2  -5    3.09    0.83
  -6   2  -4  127.79    4.03
  -6   2  -3    4.51    2.12
  -6   2  -2  221.73    6.36
  -6   2  -1   10.12    2.12
  -6   2   0    2.24    1.14
  -6   2   1   18.89    1.44
  -6   2   2   37.55    3.34
  -6   2   3    3.65    2.13
  -6   2   4   96.90    5.15
  -6   2   5    4.78    3.53
  -6   2   6   60.86    7.04
  -6   2   7    7.78    4.24
  -6   2   8   40.67    5.91
  -6   2   9   11.86    5.23
  -6   2  10   26.07    4.85
  -6   2  11  181.64   12.17
  -6   2  12  135.14   11.04
  -6   2  13   16.20    4.40
  -6   2  14   -3.93    3.53
  -6   2  15   -0.42    5.25
  -6   2  16   60.49    7.39
  -6   2  17   28.93    6.90
  -6   2  18    8.46    6.08
  -6   3 -19    3.65    4.09
  -6   3 -18   12.86    7.32
  -6   3 -17    5.47    4.22
  -6   3 -16    2.54    4.50
  -6   3 -15   36.96    5.63
  -6   3 -14   56.32    4.46
  -6   3 -13   13.55    2.79
  -6   3 -12   25.83    3.38
  -6   3 -11    5.75    2.79
  -6   3 -10    7.59    3.40
  -6   3  -9    3.26    2.71
  -6   3  -8  307.19    8.74
  -6   3  -7   39.31    2.54
  -6   3  -6  911.14   25.08
  -6   3  -5   92.51    3.65
  -6   3  -4   97.60    5.16
  -6   3  -3  129.68    5.41
  -6   3  -2   52.81    3.45
  -6   3  -1  105.75    7.57
  -6   3   0   73.29    5.89
  -6   3   1    0.14    0.86
  -6   3   2  248.29    9.36
  -6   3   3   15.54    5.33
  -6   3   4   86.67    6.63
  -6   3   5    0.42    3.98
  -6   3   6    4.78    5.92
  -6   3   7   20.47    5.37
  -6   3   8   44.06    7.09
  -6   3   9  217.51   13.66
  -6   3  10   83.39    7.59
  -6   3  11    8.32    6.11
  -6   3  12   64.24    7.42
  -6   3  13   -0.14    4.27
  -6   3  14    4.07    5.08
  -6   3  15   10.43    5.68
  -6   3  16   -5.64    9.02
  -6   3  17    7.08    8.02
  -6   4 -19   15.54    6.46
  -6   4 -18    1.27    5.92
  -6   4 -17   16.20    5.36
  -6   4 -16   30.88    6.08
  -6   4 -15   12.03    5.10
  -6   4 -14   -9.17    4.10
  -6   4 -13   10.12    5.67
  -6   4 -12   48.74    5.96
  -6   4 -11   23.35    4.94
  -6   4 -10   31.81    3.62
  -6   4  -9   10.43    3.21
  -6   4  -8   85.12    4.82
  -6   4  -7   87.77    4.00
  -6   4  -6   17.77    1.71
  -6   4  -5    6.33    2.40
  -6   4  -4    1.41    2.82
  -6   4  -3   81.44    4.29
  -6   4  -2    3.65    2.95
  -6   4  -1  174.67   11.29
  -6   4   0   35.67    6.25
  -6   4   1   67.91    6.06
  -6   4   2    4.51    3.78
  -6   4   3    0.56    1.25
  -6   4   4    4.51    3.68
  -6   4   5   29.58    5.81
  -6   4   6   -2.24    4.09
  -6   4   7   -0.71    4.24
  -6   4   8    4.78    4.62
  -6   4   9   16.40    8.08
  -6   4  10    7.33    6.18
  -6   4  11   51.95    5.99
  -6   4  12   48.74    6.97
  -6   4  13    8.46    8.43
  -6   4  14    4.22    5.22
  -6   4  15    1.96    6.19
  -6   5 -17   21.45    7.04
  -6   5 -16    0.71    4.81
  -6   5 -15   17.08    5.20
  -6   5 -14    8.05    7.35
  -6   5 -13   -1.71    7.23
  -6   5 -12   -0.56    7.02
  -6   5 -11  -14.81    7.77
  -6   5 -10   71.88   10.27
  -6   5  -9   10.97    4.96
  -6   5  -8   35.96    6.56
  -6   5  -7  166.30   11.34
  -6   5  -6    1.00    1.99
  -6   5  -5   10.81    2.12
  -6   5  -4  197.00   10.00
  -6   5  -3   33.04    3.14
  -6   5  -2   41.43    2.90
  -6   5  -1   24.17    2.92
  -6   5   0   -4.07    5.51
  -6   5   1   12.10    4.62
  -6   5   2   43.58    7.05
  -6   5   3   39.90    6.75
  -6   5   4  367.31   20.02
  -6   5   5   16.10    5.63
  -6   5   6   16.78    5.26
  -6   5   7    4.07    5.89
  -6   5   8   -1.11    6.02
  -6   5   9   -4.78   14.21
  -6   5  10   -3.26    6.64
  -6   5  11    8.19    5.78
  -6   5  12   20.15    6.71
  -6   5  13   16.88    7.91
  -6   5  14  -14.09    8.02
  -6   6 -15    2.68    8.49
  -6   6 -14    6.46    6.03
  -6   6 -13   71.69    8.25
  -6   6 -12   23.12    4.79
  -6   6 -11    6.46    5.08
  -6   6 -10   64.82    8.80
  -6   6  -9    5.36    5.33
  -6   6  -8   99.49    8.29
  -6   6  -7   13.82    7.50
  -6   6  -6   12.27    6.25
  -6   6  -5    3.38    4.94
  -6   6  -4   14.52    4.53
  -6   6  -3   10.43    6.51
  -6   6  -2    4.07    4.51
  -6   6  -1   14.99    2.85
  -6   6   0   10.43    2.83
  -6   6   1   27.66    5.37
  -6   6   2   -1.27    3.96
  -6   6   3    1.11    4.50
  -6   6   4    2.96    5.08
  -6   6   5   65.00    9.95
  -6   6   6    0.28    4.96
  -6   6   7   71.69    7.23
  -6   6   8   -2.24    7.32
  -6   6   9   11.14    5.63
  -6   6  10   -4.07    5.23
  -6   6  11    5.36    6.22
  -6   7 -12   35.11    6.75
  -6   7 -11   37.25    9.56
  -6   7 -10   -3.38    8.04
  -6   7  -8   -9.60    6.77
  -6   7  -7   -2.68    8.05
  -6   7  -6    8.74    6.88
  -6   7  -5   40.36    5.88
  -6   7  -4    7.78    5.37
  -6   7  -3   30.09    5.74
  -6   7  -2   83.39   11.28
  -6   7  -1   11.86    5.23
  -6   7   0  137.37    9.46
  -6   7   1   78.89    9.91
  -6   7   2   76.59    9.35
  -6   7   3   66.74    7.57
  -6   7   4    3.93    5.23
  -6   7   5    4.67    6.51
  -6   7   6    8.60    7.87
  -6   7   7   16.50    7.91
  -6   7   8   -2.68    5.22
  -6   8  -5    4.37    6.36
  -6   8  -4   30.63    7.36
  -6   8  -3   23.35    5.74
  -6   8  -2    1.11    4.22
  -6   8  -1   10.28    5.64
  -6   8   0    0.14    5.13
  -6   8   1    7.92    7.88
  -6   8   2   84.69    9.62
  -5 -13  -6  -14.26    8.16
  -5 -13  -5   46.29    9.86
  -5 -13  -4   32.35    9.59
  -5 -13  -3    0.56    7.44
  -5 -13  -2    6.88    8.73
  -5 -13  -1   24.17    8.76
  -5 -13   0   85.79   15.40
  -5 -13   1   -6.33    8.31
  -5 -13   2    0.42    8.93
  -5 -13   3   28.30    8.46
  -5 -12 -12   -8.60    7.18
  -5 -12 -11   -7.59    7.33
  -5 -12 -10   52.81    9.32
  -5 -12  -9   36.82   10.66
  -5 -12  -8    6.22    8.47
  -5 -12  -7    0.71    6.92
  -5 -12  -6   45.97    9.02
  -5 -12  -5  111.69   14.31
  -5 -12  -4   24.52   11.52
  -5 -12  -3   38.86    8.29
  -5 -12  -2   54.91   10.21
  -5 -12  -1    9.17    9.07
  -5 -12   0   49.42   13.18
  -5 -12   1    0.00    1.41
  -5 -12   2   -5.64    8.74
  -5 -12   3    5.92   12.25
  -5 -12   4   10.81    9.29
  -5 -12   5   -1.00    7.66
  -5 -12   6   12.10   13.38
  -5 -12   7   30.23   11.22
  -5 -12   8    8.46    9.60
  -5 -12   9   11.86   10.14
  -5 -11 -15    3.53    6.33
  -5 -11 -14    4.37    7.50
  -5 -11 -13    8.74   11.03
  -5 -11 -12    9.46    7.08
  -5 -11 -11    5.64    6.94
  -5 -11 -10   25.47    7.78
  -5 -11  -9    1.96    5.89
  -5 -11  -8   15.07    7.01
  -5 -11  -7   28.93    4.34
  -5 -11  -6   -3.09    3.38
  -5 -11  -5   62.92    5.27
  -5 -11  -4   16.10    3.24
  -5 -11  -3   15.36    4.94
  -5 -11  -2   27.79    4.88
  -5 -11  -1   25.83    4.71
  -5 -11   0   17.47    2.38
  -5 -11   1    1.41    2.12
  -5 -11   2  121.43    6.54
  -5 -11   3   29.06    2.57
  -5 -11   4   27.55    2.99
  -5 -11   5   44.70    5.25
  -5 -11   6    0.28    5.26
  -5 -11   7   57.39    7.02
  -5 -11   8  -10.28    4.64
  -5 -11   9   20.90    5.22
  -5 -11  10    1.00    4.95
  -5 -11  11   -2.24    5.19
  -5 -11  12   26.31   11.58
  -5 -10 -18    1.41    6.20
  -5 -10 -17   40.21    9.94
  -5 -10 -16    4.22    6.19
  -5 -10 -15   60.12    7.92
  -5 -10 -14  108.94   14.13
  -5 -10 -13   18.78    9.48
  -5 -10 -12   -8.19    4.34
  -5 -10 -11    1.00    3.38
  -5 -10 -10   48.59    4.47
  -5 -10  -9   -1.11    2.38
  -5 -10  -8   90.02    6.53
  -5 -10  -7    6.77    3.64
  -5 -10  -6   14.62    3.64
  -5 -10  -5   -2.96    2.54
  -5 -10  -4    3.38    2.54
  -5 -10  -3    3.53    3.79
  -5 -10  -2   46.46    3.07
  -5 -10  -1   17.08    2.55
  -5 -10   0    4.07    1.68
  -5 -10   1   12.94    2.13
  -5 -10   2   28.81    2.68
  -5 -10   3   49.92    4.03
  -5 -10   4   51.44    3.06
  -5 -10   5   -1.83    2.26
  -5 -10   6   64.24    5.71
  -5 -10   7   45.81    4.50
  -5 -10   8   21.12    5.34
  -5 -10   9   38.72    6.20
  -5 -10  10   -1.41    5.78
  -5 -10  11   11.69    4.23
  -5 -10  12   -2.81    4.65
  -5 -10  13   -0.28    5.96
  -5 -10  14   10.12    4.23
  -5  -9 -15   34.97    8.01
  -5  -9 -14   12.10    4.39
  -5  -9 -13   14.09    2.68
  -5  -9 -12   96.90    5.84
  -5  -9 -11  118.05    6.44
  -5  -9 -10   40.51    4.07
  -5  -9  -9    1.11    3.09
  -5  -9  -8   33.04    3.96
  -5  -9  -7    5.36    2.98
  -5  -9  -6   45.33    3.84
  -5  -9  -5  122.74    6.05
  -5  -9  -4   16.88    2.54
  -5  -9  -3    2.10    1.82
  -5  -9  -2   15.26    2.23
  -5  -9  -1   46.94    2.76
  -5  -9   0  237.93    6.97
  -5  -9   1   68.10    3.33
  -5  -9   2  181.33    7.04
  -5  -9   3    5.09    2.68
  -5  -9   4  122.22    7.09
  -5  -9   5    3.26    3.95
  -5  -9   6   -6.77    3.21
  -5  -9   7   -1.96    3.67
  -5  -9   8    2.81    4.65
  -5  -9   9   65.58    6.15
  -5  -9  10    1.11    4.92
  -5  -9  11   27.79    4.51
  -5  -9  12    3.53    3.65
  -5  -9  13   -2.68    5.49
  -5  -9  14   30.09    5.47
  -5  -9  15   46.29    7.43
  -5  -9  16   -5.09    5.25
  -5  -8 -16   -3.26    3.13
  -5  -8 -15   25.23    4.17
  -5  -8 -14    5.36    2.26
  -5  -8 -13   14.26    3.41
  -5  -8 -12   66.36    4.46
  -5  -8 -11   98.79    4.48
  -5  -8 -10   50.76    3.72
  -5  -8  -9  147.56    6.06
  -5  -8  -8   12.52    2.27
  -5  -8  -7  236.10    8.02
  -5  -8  -6  122.48    4.20
  -5  -8  -5   12.44    1.68
  -5  -8  -4   16.50    1.54
  -5  -8  -3    4.51    1.82
  -5  -8  -2    1.11    1.54
  -5  -8  -1  181.96    4.81
  -5  -8   0   51.44    2.38
  -5  -8   1    5.09    1.55
  -5  -8   2   38.72    2.21
  -5  -8   3  111.43    4.00
  -5  -8   4   10.81    3.91
  -5  -8   5   -0.28    4.24
  -5  -8   6   14.62    3.64
  -5  -8   7    8.32    4.53
  -5  -8   8   46.46    4.85
  -5  -8   9    2.68    3.65
  -5  -8  10   -0.83    3.50
  -5  -8  11  173.42   10.63
  -5  -8  12    5.64    4.51
  -5  -8  13    6.22    3.79
  -5  -8  14   -6.22    3.79
  -5  -8  15    5.47    6.61
  -5  -8  16   22.56    5.19
  -5  -8  17    8.88    4.67
  -5  -8  18    7.78    4.96
  -5  -7 -18    7.46    3.50
  -5  -7 -17    3.09    3.26
  -5  -7 -16   12.03    4.78
  -5  -7 -15   15.82    1.79
  -5  -7 -14   54.20    3.14
  -5  -7 -13    0.71    1.28
  -5  -7 -12    2.38    1.28
  -5  -7 -11   40.96    2.43
  -5  -7 -10  169.37    4.95
  -5  -7  -9  206.10    5.80
  -5  -7  -8   74.32    3.07
  -5  -7  -7   60.12    2.76
  -5  -7  -6    3.38    1.40
  -5  -7  -5   81.02    2.78
  -5  -7  -4   68.89    2.17
  -5  -7  -3   29.58    1.80
  -5  -7  -2  359.16    7.66
  -5  -7  -1    4.94    1.27
  -5  -7   0   20.47    1.72
  -5  -7   1   20.47    1.72
  -5  -7   2  234.64    6.54
  -5  -7   3   77.21    3.55
  -5  -7   4  310.94    8.38
  -5  -7   5   22.00    2.45
  -5  -7   6   81.87    4.09
  -5  -7   7  296.05   12.25
  -5  -7   8  141.85    7.06
  -5  -7   9   10.43    4.68
  -5  -7  10   -0.56    3.78
  -5  -7  11   -2.81    3.50
  -5  -7  12   41.12    5.94
  -5  -7  13   85.35    6.15
  -5  -7  14    4.07    4.65
  -5  -7  15    5.36    5.33
  -5  -7  16   31.02    4.50
  -5  -7  17   20.47    4.62
  -5  -7  18    0.83    4.91
  -5  -7  19    5.09    4.23
  -5  -6 -19    4.51    4.64
  -5  -6 -18   17.37    3.96
  -5  -6 -17  325.35   19.70
  -5  -6 -16   45.01    4.30
  -5  -6 -15   -2.38    3.67
  -5  -6 -14  146.12    8.04
  -5  -6 -13   19.30    1.57
  -5  -6 -12   88.45    3.36
  -5  -6 -11  113.45    4.05
  -5  -6 -10   29.71    1.55
  -5  -6  -9   67.91    2.74
  -5  -6  -8  126.72    3.74
  -5  -6  -7    1.55    0.97
  -5  -6  -6  140.16    3.09
  -5  -6  -5  705.61   14.51
  -5  -6  -4   43.12    1.57
  -5  -6  -3   11.69    1.30
  -5  -6  -2  495.19    8.98
  -5  -6  -1   23.35    1.38
  -5  -6   0    7.21    1.27
  -5  -6   1   50.76    2.71
  -5  -6   2    8.19    1.71
  -5  -6   3   58.29    2.35
  -5  -6   4   45.33    2.72
  -5  -6   5   15.36    1.96
  -5  -6   6   52.99    2.59
  -5  -6   7   21.56    2.10
  -5  -6   8   31.42    4.26
  -5  -6   9  173.73    9.70
  -5  -6  10    0.28    4.12
  -5  -6  11   46.46    5.02
  -5  -6  12   66.74    5.05
  -5  -6  13   -4.07    5.23
  -5  -6  14   44.06    5.05
  -5  -6  15   29.84    4.94
  -5  -6  16   54.20    5.41
  -5  -6  17    8.32    4.39
  -5  -6  18   48.10    6.58
  -5  -6  19   12.44    4.36
  -5  -6  20    1.41    4.79
  -5  -5 -20   15.07    4.24
  -5  -5 -19   11.53    5.81
  -5  -5 -18    8.74    2.95
  -5  -5 -17    9.98    2.40
  -5  -5 -16    2.96    3.68
  -5  -5 -15   46.78    3.89
  -5  -5 -14  102.35    5.05
  -5  -5 -13    0.14    1.57
  -5  -5 -12   27.30    2.23
  -5  -5 -11   22.22    1.57
  -5  -5 -10  396.08   10.87
  -5  -5  -9   34.00    1.38
  -5  -5  -8  235.73    5.10
  -5  -5  -7   67.91    1.76
  -5  -5  -6    0.00    1.41
  -5  -5  -5    1.71    0.72
  -5  -5  -4  327.06    6.44
  -5  -5  -3   12.03    0.82
  -5  -5  -2    9.76    0.82
  -5  -5  -1  206.78    4.44
  -5  -5   0  180.37    4.15
  -5  -5   1   94.59    2.78
  -5  -5   2  280.33    5.96
  -5  -5   3    4.37    1.54
  -5  -5   4  359.16   11.70
  -5  -5   5   37.39    2.47
  -5  -5   6   84.25    3.48
  -5  -5   7    2.81    1.83
  -5  -5   8  140.72    5.64
  -5  -5   9  222.43    8.50
  -5  -5  10  118.32    6.98
  -5  -5  11   44.85    5.09
  -5  -5  12   12.86    3.24
  -5  -5  13   41.12    4.26
  -5  -5  14   -1.71    4.81
  -5  -5  15   36.96    5.05
  -5  -5  16   -3.93    3.68
  -5  -5  17   16.10    4.39
  -5  -5  18   75.35    6.39
  -5  -5  19   10.12    3.78
  -5  -5  20    6.22    8.35
  -5  -4 -21   17.87    4.22
  -5  -4 -20   24.99    5.94
  -5  -4 -19    9.17    3.81
  -5  -4 -18   11.29    4.62
  -5  -4 -17    3.53    2.95
  -5  -4 -16   28.68    4.58
  -5  -4 -15   70.88    4.00
  -5  -4 -14   -1.00    1.85
  -5  -4 -13   34.69    2.38
  -5  -4 -12    3.09    1.55
  -5  -4 -11   57.39    2.88
  -5  -4 -10   95.28    3.02
  -5  -4  -9   51.10    2.38
  -5  -4  -8   21.33    1.10
  -5  -4  -7  138.20    3.62
  -5  -4  -6   88.45    2.02
  -5  -4  -5   48.25    1.33
  -5  -4  -4   13.38    2.09
  -5  -4  -3  429.36   11.82
  -5  -4  -2   92.96    2.28
  -5  -4  -1    0.00    1.41
  -5  -4   0    3.65    1.27
  -5  -4   1  561.76   11.82
  -5  -4   2 1560.75   30.96
  -5  -4   3   38.27    1.76
  -5  -4   4  427.40   11.79
  -5  -4   5    7.46    1.55
  -5  -4   6    0.42    1.99
  -5  -4   7    0.28    1.71
  -5  -4   8   14.35    2.07
  -5  -4   9   42.19    2.78
  -5  -4  10   27.17    4.95
  -5  -4  11  152.81    8.52
  -5  -4  12  129.95    6.50
  -5  -4  13   67.91    4.70
  -5  -4  14   -1.55    3.67
  -5  -4  15    3.79    3.37
  -5  -4  16   18.58    4.81
  -5  -4  17   43.91    4.24
  -5  -4  18   11.29    4.79
  -5  -4  19   59.39    7.13
  -5  -4  20    7.78    8.49
  -5  -4  21   10.12    6.50
  -5  -3 -22   43.12    5.46
  -5  -3 -21    5.64    3.50
  -5  -3 -20   -0.42    4.96
  -5  -3 -19    8.32    3.21
  -5  -3 -18    9.60    3.98
  -5  -3 -17   -2.54    2.83
  -5  -3 -16   17.08    5.10
  -5  -3 -15  205.08    9.18
  -5  -3 -14   12.94    2.57
  -5  -3 -13   36.39    2.44
  -5  -3 -12   67.91    3.33
  -5  -3 -11    3.65    1.68
  -5  -3 -10   44.85    2.38
  -5  -3  -9    0.28    0.85
  -5  -3  -8    8.74    1.13
  -5  -3  -7  235.73    5.47
  -5  -3  -6  344.02    7.92
  -5  -3  -5   34.55    1.68
  -5  -3  -4    7.59    3.54
  -5  -3  -3   56.68    3.93
  -5  -3  -2 1128.48   28.72
  -5  -3  -1  856.76   18.08
  -5  -3   0   22.79    1.13
  -5  -3   1   12.44    1.00
  -5  -3   2    1.83    1.25
  -5  -3   3   43.43    1.88
  -5  -3   4  372.80   10.55
  -5  -3   5   41.27    2.28
  -5  -3   6   51.95    2.74
  -5  -3   7    4.94    1.69
  -5  -3   8    1.55    1.83
  -5  -3   9  113.20    4.30
  -5  -3  10   -2.54    2.38
  -5  -3  11  365.49   13.17
  -5  -3  12   71.28    5.02
  -5  -3  13  381.09   14.37
  -5  -3  14   11.69    3.98
  -5  -3  15    0.14    4.00
  -5  -3  16   74.73    6.57
  -5  -3  17   28.05    6.54
  -5  -3  18   -0.14    4.43
  -5  -3  19    2.10    7.29
  -5  -3  20   39.31    6.56
  -5  -3  21   -2.10    4.51
  -5  -2 -23    9.31    5.36
  -5  -2 -22   15.82    4.34
  -5  -2 -21   13.11    4.91
  -5  -2 -20   -8.05    5.19
  -5  -2 -19  210.21   15.50
  -5  -2 -18    8.05    5.39
  -5  -2 -17   46.94    6.51
  -5  -2 -16   -1.41    3.53
  -5  -2 -15  115.74    5.88
  -5  -2 -14   82.95    4.98
  -5  -2 -13  258.12    9.93
  -5  -2 -12   26.07    2.66
  -5  -2 -11   16.10    2.00
  -5  -2 -10   64.24    3.05
  -5  -2  -9   29.58    2.07
  -5  -2  -8  377.40    8.31
  -5  -2  -7   12.44    1.25
  -5  -2  -6  140.44    3.65
  -5  -2  -5   99.01    2.59
  -5  -2  -4  590.83   12.13
  -5  -2  -3  764.18   15.10
  -5  -2  -2  513.32   10.22
  -5  -2  -1    0.14    0.72
  -5  -2   0  373.72    8.26
  -5  -2   1   52.81    1.90
  -5  -2   2   34.40    1.54
  -5  -2   3   27.92    1.51
  -5  -2   4   51.27    2.04
  -5  -2   5   60.49    2.21
  -5  -2   6  108.94    4.22
  -5  -2   7  195.01    6.63
  -5  -2   8   23.12    2.28
  -5  -2   9   21.12    2.30
  -5  -2  10    1.41    2.40
  -5  -2  11   35.53    3.82
  -5  -2  12   52.47    8.77
  -5  -2  13   -8.32    4.65
  -5  -2  14   75.76    6.20
  -5  -2  15    4.67    4.26
  -5  -2  16   43.58    5.49
  -5  -2  17    2.68    6.77
  -5  -2  18   17.67    5.70
  -5  -2  19    8.19    4.22
  -5  -2  20    5.92    4.40
  -5  -2  21   31.42    8.91
  -5  -1 -23   -2.10    4.92
  -5  -1 -22    2.54    5.06
  -5  -1 -21    2.68    4.24
  -5  -1 -20   18.58    5.22
  -5  -1 -19   48.59    5.80
  -5  -1 -18   31.15    5.03
  -5  -1 -17  141.29   12.99
  -5  -1 -16   -7.08    4.92
  -5  -1 -15    4.51    2.68
  -5  -1 -14   10.74    2.10
  -5  -1 -13    0.14    2.28
  -5  -1 -12   -1.96    2.10
  -5  -1 -11    1.11    1.54
  -5  -1 -10   98.08    5.41
  -5  -1  -9   24.28    1.88
  -5  -1  -8   89.34    2.47
  -5  -1  -7   61.99    2.06
  -5  -1  -6  163.55    3.95
  -5  -1  -5  194.34    4.30
  -5  -1  -4  133.77    3.57
  -5  -1  -3   28.68    1.14
  -5  -1  -2  234.28    4.72
  -5  -1  -1   12.03    0.82
  -5  -1   0   79.74    2.12
  -5  -1   1  132.94    3.55
  -5  -1   2  353.79    9.38
  -5  -1   3  401.30    9.52
  -5  -1   4   55.43    2.30
  -5  -1   5  208.84    5.15
  -5  -1   6  727.86   17.94
  -5  -1   7  369.13   10.96
  -5  -1   8  131.85    5.46
  -5  -1   9  366.40   13.64
  -5  -1  10   -1.11    3.09
  -5  -1  11  477.38   21.28
  -5  -1  12   15.92    3.51
  -5  -1  13   35.96    6.42
  -5  -1  14   44.06    5.20
  -5  -1  15   23.12    5.02
  -5  -1  16   -0.56    3.67
  -5  -1  17   66.55    9.49
  -5  -1  18   40.51    5.89
  -5  -1  19   10.43    6.75
  -5  -1  20    5.20    5.20
  -5  -1  21    7.59    7.33
  -5   0 -23   -2.81    7.32
  -5   0 -22    7.92    6.61
  -5   0 -21   26.31    6.94
  -5   0 -20   42.81    5.44
  -5   0 -19    4.78    4.51
  -5   0 -18   54.20    5.41
  -5   0 -17  116.76   11.80
  -5   0 -16   18.58    3.79
  -5   0 -15    5.92    2.95
  -5   0 -14   49.42    3.67
  -5   0 -13   38.42    2.79
  -5   0 -12   51.78    3.41
  -5   0 -11    2.54    1.82
  -5   0 -10  351.11   10.24
  -5   0  -9    4.51    1.57
  -5   0  -8    9.02    1.57
  -5   0  -7 2115.06   39.33
  -5   0  -6  638.52   11.41
  -5   0  -5   20.57    1.07
  -5   0  -4    9.31    0.87
  -5   0  -3   25.94    0.97
  -5   0  -2  233.91    6.54
  -5   0  -1    1.71    1.27
  -5   0   0  411.35    8.67
  -5   0   1   95.97    3.26
  -5   0   2  131.30    4.36
  -5   0   3  111.94    4.02
  -5   0   4   61.24    2.79
  -5   0   5   42.03    2.31
  -5   0   6   74.11    3.47
  -5   0   7  237.20    6.95
  -5   0   8    6.64    2.69
  -5   0   9    4.51    2.43
  -5   0  10    1.41    3.53
  -5   0  11   12.86    3.67
  -5   0  12   36.96    5.20
  -5   0  13    0.56    3.51
  -5   0  14   49.08    4.99
  -5   0  15    6.64    4.22
  -5   0  16   18.47    4.70
  -5   0  17    5.75    4.78
  -5   0  18  179.72   14.96
  -5   0  19   -6.33    7.77
  -5   0  20   36.96    6.64
  -5   0  21   11.45    5.95
  -5   1 -23   40.06    7.06
  -5   1 -22    1.71    4.81
  -5   1 -21   73.10    7.11
  -5   1 -20    2.96    6.33
  -5   1 -19   64.24    6.85
  -5   1 -18   -5.09    3.69
  -5   1 -17    4.22    4.48
  -5   1 -16    1.83    4.09
  -5   1 -15   21.56    3.86
  -5   1 -14   -0.71    2.82
  -5   1 -13   70.88    5.01
  -5   1 -12    5.36    2.09
  -5   1 -11   18.37    2.24
  -5   1 -10  548.88   17.24
  -5   1  -9  231.02    7.22
  -5   1  -8  891.87   20.57
  -5   1  -7   -1.55    1.27
  -5   1  -6   -1.00    1.28
  -5   1  -5  126.18    3.20
  -5   1  -4   50.59    1.69
  -5   1  -3   60.67    2.21
  -5   1  -2    3.79    1.38
  -5   1  -1   -0.71    0.99
  -5   1   0  252.80    5.67
  -5   1   1  101.87    3.60
  -5   1   2 1189.93   29.50
  -5   1   3    4.67    2.00
  -5   1   4   40.81    2.43
  -5   1   5  241.61    7.76
  -5   1   6   49.92    3.02
  -5   1   7    1.00    2.13
  -5   1   8  237.56    7.32
  -5   1   9    0.83    5.32
  -5   1  10   20.15    5.65
  -5   1  11    9.90    4.48
  -5   1  12   -3.79    4.07
  -5   1  13   43.27    6.56
  -5   1  14   72.08    9.67
  -5   1  15   36.10    9.14
  -5   1  16    8.74    5.89
  -5   1  17    6.03    6.60
  -5   1  18   -2.81    6.88
  -5   1  19   -5.75    4.61
  -5   1  20   15.36    6.61
  -5   2 -23    4.94    8.01
  -5   2 -22   79.74   14.64
  -5   2 -21   19.83    6.66
  -5   2 -20   27.92    6.40
  -5   2 -19   82.74    9.07
  -5   2 -18   18.99    6.11
  -5   2 -17   35.53    6.51
  -5   2 -16   -6.33    4.37
  -5   2 -15    4.67    3.13
  -5   2 -14   -0.56    3.09
  -5   2 -13    1.55    2.55
  -5   2 -12   19.61    2.83
  -5   2 -11   19.73    3.06
  -5   2 -10   54.91    3.17
  -5   2  -9   18.99    2.38
  -5   2  -8    3.09    1.55
  -5   2  -7    4.94    1.42
  -5   2  -6    2.68    1.40
  -5   2  -5  189.09    4.57
  -5   2  -4   84.25    2.40
  -5   2  -3    2.81    1.66
  -5   2  -2   32.90    2.19
  -5   2  -1   45.66    2.89
  -5   2   0    1.00    1.00
  -5   2   1    4.51    1.41
  -5   2   2   -0.28    1.85
  -5   2   3  434.29   12.37
  -5   2   4  278.74    8.73
  -5   2   5    0.00    1.41
  -5   2   6   14.35    1.97
  -5   2   7  223.15    9.57
  -5   2   8   46.46    3.89
  -5   2   9    2.38    2.98
  -5   2  10  214.01   11.46
  -5   2  11   44.70    7.78
  -5   2  12    8.88    3.96
  -5   2  13  169.68   12.99
  -5   2  14   23.01    5.81
  -5   2  15   12.69    5.33
  -5   2  16  150.46   12.82
  -5   2  17   -0.56    5.33
  -5   2  18   -2.24    5.47
  -5   2  19    0.56    6.18
  -5   2  20    3.38    5.51
  -5   3 -22    2.38    5.91
  -5   3 -21    9.17    5.39
  -5   3 -20   12.10    7.43
  -5   3 -19   12.69    5.50
  -5   3 -18   25.83    8.93
  -5   3 -17    0.14    3.57
  -5   3 -16    9.31    4.94
  -5   3 -15   -6.46    4.95
  -5   3 -14   69.88    6.15
  -5   3 -13   60.12    5.53
  -5   3 -12    2.96    4.09
  -5   3 -11   10.97    3.23
  -5   3 -10   38.72    3.40
  -5   3  -9    3.38    2.98
  -5   3  -8   99.97    4.27
  -5   3  -7  122.22    3.68
  -5   3  -6   36.67    2.02
  -5   3  -5   11.14    1.42
  -5   3  -4    2.38    0.99
  -5   3  -3  155.75    4.44
  -5   3  -2  195.01    5.64
  -5   3  -1   71.47    3.02
  -5   3   0   -2.10    1.96
  -5   3   1   29.44    1.68
  -5   3   2   81.87    3.86
  -5   3   3   49.58    2.85
  -5   3   4  106.73    4.91
  -5   3   5    2.68    2.52
  -5   3   6   -0.14    2.85
  -5   3   7    3.38    3.37
  -5   3   8   70.28    4.58
  -5   3   9  141.29   11.58
  -5   3  10   73.51    5.09
  -5   3  11   -2.81    4.77
  -5   3  12  146.12   10.34
  -5   3  13   -1.55    4.79
  -5   3  14   -0.56    4.50
  -5   3  15    0.71    4.95
  -5   3  16   20.25    8.33
  -5   3  17    4.94    7.60
  -5   3  18   63.86   10.81
  -5   3  19   10.81   10.00
  -5   4 -21   19.73    8.64
  -5   4 -20   12.10    6.03
  -5   4 -19    6.46    7.73
  -5   4 -18    0.56    5.06
  -5   4 -17   27.92    6.66
  -5   4 -16   14.09    5.80
  -5   4 -15   72.69    8.70
  -5   4 -14   11.45    3.69
  -5   4 -13   24.28    3.86
  -5   4 -12    4.78    2.96
  -5   4 -11    5.36    2.81
  -5   4 -10   21.45    3.19
  -5   4  -9   -0.56    2.38
  -5   4  -8   20.57    2.81
  -5   4  -7   27.66    3.12
  -5   4  -6  124.86    4.51
  -5   4  -5   19.61    1.79
  -5   4  -4   42.81    2.02
  -5   4  -3    5.36    1.82
  -5   4  -2  209.87    6.54
  -5   4  -1    3.93    2.96
  -5   4   0   17.08    2.85
  -5   4   1    0.42    3.12
  -5   4   2   12.69    3.21
  -5   4   3   -1.27    2.54
  -5   4   4    4.37    2.38
  -5   4   5   44.06    5.05
  -5   4   6   57.04    4.67
  -5   4   7  258.50   10.69
  -5   4   8  110.94    9.25
  -5   4   9   45.33    5.75
  -5   4  10    4.07    4.22
  -5   4  11    6.64    4.22
  -5   4  12   10.97    5.74
  -5   4  13   33.45    6.73
  -5   4  14   39.45    7.91
  -5   4  15    2.38    5.36
  -5   4  16    4.67    4.82
  -5   4  17    1.41    4.79
  -5   4  18   29.31    7.84
  -5   5 -19    8.05    8.76
  -5   5 -18    2.68    5.80
  -5   5 -17    2.10    5.61
  -5   5 -16    5.75    4.89
  -5   5 -15   23.93    4.53
  -5   5 -14    7.08    4.36
  -5   5 -13    1.27    5.78
  -5   5 -12   64.24    4.57
  -5   5 -11   -5.36    2.69
  -5   5 -10    3.38    3.37
  -5   5  -9    1.71    2.27
  -5   5  -8    0.00    1.41
  -5   5  -7   87.34    4.67
  -5   5  -6   96.67    5.13
  -5   5  -5    6.64    1.10
  -5   5  -4   13.64    2.28
  -5   5  -3   32.35    2.57
  -5   5  -2   83.39    3.91
  -5   5  -1  498.36   18.56
  -5   5   0   46.46    5.50
  -5   5   1  157.53    8.05
  -5   5   2    2.96    2.95
  -5   5   3    2.81    0.83
  -5   5   4   18.18    5.06
  -5   5   5   63.30    7.18
  -5   5   6    6.77    4.82
  -5   5   7  151.34   11.10
  -5   5   8   -0.83    4.50
  -5   5   9   12.69    6.35
  -5   5  10   12.03    5.36
  -5   5  11  172.79   13.42
  -5   5  12    4.07    4.36
  -5   5  13    1.11    4.34
  -5   5  14   -6.33    5.08
  -5   5  15   41.27    7.18
  -5   5  16   49.75    9.38
  -5   6 -17   17.37    7.53
  -5   6 -16    1.83    8.46
  -5   6 -15   -6.46    5.08
  -5   6 -14   20.04    6.06
  -5   6 -13   13.82    5.65
  -5   6 -12    9.31    7.46
  -5   6 -11   56.50    8.39
  -5   6 -10   86.22    9.93
  -5   6  -9   12.86    5.37
  -5   6  -8   22.67    4.98
  -5   6  -7    6.33    5.39
  -5   6  -6   10.12    3.62
  -5   6  -5    7.21    4.65
  -5   6  -4   26.31    5.49
  -5   6  -3    2.81    1.83
  -5   6  -2   14.81    2.10
  -5   6  -1    6.33    2.27
  -5   6   0    3.38    2.10
  -5   6   1    3.79    6.47
  -5   6   2  235.73   15.68
  -5   6   3   28.43    5.32
  -5   6   4  219.97   13.38
  -5   6   5    1.41    4.51
  -5   6   6    9.31    5.80
  -5   6   7    3.26    4.67
  -5   6   8   18.89    8.46
  -5   6   9    9.17    6.03
  -5   6  10   -0.14    4.85
  -5   6  11   -2.54    7.90
  -5   6  12    1.71    5.09
  -5   6  13   37.83    6.87
  -5   6  14   15.26    5.19
  -5   7 -14   -3.38    5.64
  -5   7 -13    6.64    8.63
  -5   7 -12   15.54    6.09
  -5   7 -11   -1.00    4.95
  -5   7 -10   99.49   10.18
  -5   7  -9    4.22   16.34
  -5   7  -8   -0.71   16.14
  -5   7  -7   17.08    7.66
  -5   7  -5   28.05    5.91
  -5   7  -4   17.77    4.61
  -5   7  -3    3.26    4.67
  -5   7  -2    9.02    7.63
  -5   7  -1   19.30    5.53
  -5   7   0   62.17    6.18
  -5   7   1   76.38    9.97
  -5   7   2    0.14    5.13
  -5   7   3   -5.64    5.25
  -5   7   4    7.33    6.36
  -5   7   5   54.20    7.70
  -5   7   6   95.50    9.98
  -5   7   7   32.63    6.11
  -5   7   8   18.78    5.77
  -5   7   9   -4.07    5.23
  -5   7  10   -4.07    8.73
  -5   7  11    4.78    5.50
  -5   8 -11    7.46    5.51
  -5   8 -10   -3.93    6.03
  -5   8  -9   17.37    6.63
  -5   8  -8   -5.20    5.80
  -5   8  -7    0.42    5.10
  -5   8  -6   58.66    8.18
  -5   8  -5    4.78    5.75
  -5   8  -4    5.36    5.50
  -5   8  -3   57.04    7.53
  -5   8  -2   16.20    5.06
  -5   8  -1    4.37    7.60
  -5   8   0    8.32    5.34
  -5   8   1   10.59    6.18
  -5   8   2   12.94    5.22
  -5   8   3   45.18    9.09
  -5   8   4   31.02    7.15
  -5   8   5   -6.46    6.46
  -5   8   6    2.10    5.19
  -5   8   7   45.49    9.62
  -5   8   8   29.31    7.33
  -5   9  -3    5.09    6.49
  -5   9  -2   18.89    7.33
  -5   9  -1   14.52    7.15
  -4 -13  -5   13.11    9.55
  -4 -13  -4  -12.27    7.91
  -4 -13  -3    6.88    8.60
  -4 -13  -2   -3.79    7.73
  -4 -13  -1  -26.57   12.61
  -4 -13   0   15.26    8.45
  -4 -13   1   37.25   10.58
  -4 -13   2   -8.46    8.29
  -4 -12 -12   13.28    8.22
  -4 -12 -11   31.15    7.68
  -4 -12 -10   13.38    6.77
  -4 -12  -9   11.86    7.77
  -4 -12  -8   44.37    9.18
  -4 -12  -7   19.20    8.32
  -4 -12  -6    9.31   10.73
  -4 -12  -5   52.64   10.00
  -4 -12  -4   12.52    4.20
  -4 -12  -3   34.40    4.46
  -4 -12  -2    0.00    1.41
  -4 -12  -1   30.88    4.48
  -4 -12   0    4.51    4.09
  -4 -12   1   -1.00    3.81
  -4 -12   2    3.26    4.12
  -4 -12   3    0.71    5.95
  -4 -12   4   36.82    5.63
  -4 -12   5   -7.78    4.51
  -4 -12   6    5.64    5.53
  -4 -12   7    1.55    4.23
  -4 -12   8    1.55    4.53
  -4 -12   9    5.36    4.23
  -4 -11 -15    3.09    7.18
  -4 -11 -14   23.01    9.00
  -4 -11 -13   43.43    9.39
  -4 -11 -12   -7.33    5.65
  -4 -11 -11    5.09    7.08
  -4 -11 -10   67.33    5.46
  -4 -11  -9   -2.38    3.07
  -4 -11  -8    2.81    4.09
  -4 -11  -7   17.37    4.36
  -4 -11  -6    4.78    3.53
  -4 -11  -5    1.83    3.37
  -4 -11  -4   59.02    4.74
  -4 -11  -3    8.05    4.92
  -4 -11  -2    2.38    2.98
  -4 -11  -1   26.57    4.53
  -4 -11   0  124.86    7.97
  -4 -11   1    7.33    4.50
  -4 -11   2    2.68    4.36
  -4 -11   3    6.03    5.08
  -4 -11   4    1.55    3.82
  -4 -11   5   -5.20    3.95
  -4 -11   6   32.76    5.30
  -4 -11   7   15.54    6.64
  -4 -11   8   11.29    5.34
  -4 -11   9    5.47    6.33
  -4 -11  10   16.68    6.60
  -4 -11  11   -3.79    4.62
  -4 -11  12    5.64    4.51
  -4 -10 -17   34.69    7.56
  -4 -10 -16   17.08    6.87
  -4 -10 -15   -1.11    5.32
  -4 -10 -14   35.81   10.38
  -4 -10 -13   91.60    6.82
  -4 -10 -12    6.22    3.07
  -4 -10 -11   -4.22    3.12
  -4 -10 -10   35.53    4.53
  -4 -10  -9   53.33    5.03
  -4 -10  -8  269.70   13.65
  -4 -10  -7   18.08    3.93
  -4 -10  -6   -1.00    3.10
  -4 -10  -5   99.73    6.40
  -4 -10  -4   -5.92    4.22
  -4 -10  -3   -1.55    3.67
  -4 -10  -2    1.55    4.53
  -4 -10  -1   16.20    3.26
  -4 -10   0   68.30    3.72
  -4 -10   1   48.10    3.30
  -4 -10   2   10.81    2.12
  -4 -10   3  205.41    7.49
  -4 -10   4   22.00    2.57
  -4 -10   5    1.55    1.99
  -4 -10   6   10.59    2.55
  -4 -10   7   21.12    5.34
  -4 -10   8   -2.24    4.09
  -4 -10   9    6.03    4.20
  -4 -10  10    1.11    4.22
  -4 -10  11    7.59    3.79
  -4 -10  12    1.27    5.23
  -4 -10  13   10.59    4.79
  -4 -10  14    1.00    4.67
  -4 -10  15   -1.71    6.51
  -4  -9 -16   -7.78    6.50
  -4  -9 -15    7.59    4.06
  -4  -9 -14    3.65    3.68
  -4  -9 -13    9.60    2.95
  -4  -9 -12   56.15    4.44
  -4  -9 -11    0.83    2.66
  -4  -9 -10   82.52    4.96
  -4  -9  -9    8.19    3.26
  -4  -9  -8   30.23    3.27
  -4  -9  -7   71.47    4.62
  -4  -9  -6    8.05    2.57
  -4  -9  -5   45.49    4.96
  -4  -9  -4   -0.28    2.27
  -4  -9  -3    8.32    3.09
  -4  -9  -2   33.16    2.74
  -4  -9  -1    4.07    2.40
  -4  -9   0   71.47    3.61
  -4  -9   1  356.92    9.87
  -4  -9   2   94.12    4.15
  -4  -9   3   47.43    3.10
  -4  -9   4  283.92    9.21
  -4  -9   5   19.61    4.10
  -4  -9   6    8.46    5.39
  -4  -9   7   12.86    3.92
  -4  -9   8    9.31    4.20
  -4  -9   9  101.64    6.70
  -4  -9  10    2.38    3.67
  -4  -9  11   33.04    5.19
  -4  -9  12    9.76    6.53
  -4  -9  13   12.86    5.19
  -4  -9  14   33.45    5.63
  -4  -9  15   27.92    5.77
  -4  -9  16   11.45    6.11
  -4  -9  17    6.33    5.50
  -4  -8 -18   18.89    6.60
  -4  -8 -17  144.40   12.27
  -4  -8 -16   -1.96    3.53
  -4  -8 -15   24.52    4.47
  -4  -8 -14    4.51    2.82
  -4  -8 -12  141.57   10.17
  -4  -8 -11   54.37    4.39
  -4  -8 -10  449.26   14.59
  -4  -8  -9   41.43    3.36
  -4  -8  -8   40.51    4.07
  -4  -8  -7  147.56    5.49
  -4  -8  -6   59.21    3.65
  -4  -8  -5   85.12    3.72
  -4  -8  -4  338.76   10.49
  -4  -8  -3   13.82    1.95
  -4  -8  -2  136.25    4.44
  -4  -8  -1  157.23    4.47
  -4  -8   0   44.70    2.38
  -4  -8   1  186.80    4.54
  -4  -8   2   62.92    2.45
  -4  -8   3    3.53    1.57
  -4  -8   4  125.13    5.32
  -4  -8   5   -0.56    3.09
  -4  -8   6    3.38    4.81
  -4  -8   7   -5.75    3.82
  -4  -8   8   66.16    5.22
  -4  -8   9   -0.83    3.93
  -4  -8  10    5.92    4.40
  -4  -8  11   12.03    4.12
  -4  -8  12   -1.27    4.94
  -4  -8  13    1.11    4.22
  -4  -8  14   22.22    4.26
  -4  -8  15   12.03    4.37
  -4  -8  16    0.14    5.99
  -4  -8  17    4.51    4.64
  -4  -8  18   64.06    8.18
  -4  -7 -19   26.07    4.98
  -4  -7 -18   13.99    3.55
  -4  -7 -17  196.33   14.97
  -4  -7 -16   11.45    5.63
  -4  -7 -15   39.61    5.08
  -4  -7 -14   41.43    4.13
  -4  -7 -13  325.77   12.86
  -4  -7 -12    1.96    0.71
  -4  -7 -11   21.01    2.93
  -4  -7 -10   78.89    4.00
  -4  -7  -9   71.88    3.43
  -4  -7  -8    4.94    2.27
  -4  -7  -7   -1.83    1.54
  -4  -7  -6    4.37    1.69
  -4  -7  -5   21.88    1.66
  -4  -7  -4   90.47    2.93
  -4  -7  -3  206.10    4.78
  -4  -7  -2   79.74    2.76
  -4  -7  -1  182.92    4.17
  -4  -7   0  375.55    8.29
  -4  -7   1    1.00    1.42
  -4  -7   2  136.53    4.16
  -4  -7   3   56.32    3.03
  -4  -7   4  101.87    3.84
  -4  -7   5    6.33    2.51
  -4  -7   6  167.22    6.15
  -4  -7   7    5.64    6.94
  -4  -7   8  117.27    6.18
  -4  -7   9   10.12    3.55
  -4  -7  10   32.76    5.03
  -4  -7  11   27.04    4.70
  -4  -7  12    7.92    3.68
  -4  -7  13    8.32    5.89
  -4  -7  14   18.58    4.20
  -4  -7  15    7.92    3.54
  -4  -7  16   42.19    6.94
  -4  -7  17    7.21    4.91
  -4  -7  18   -0.83    4.91
  -4  -7  19    5.47    4.33
  -4  -7  20   -6.46    5.08
  -4  -6 -20   36.10    5.27
  -4  -6 -19   23.12    4.34
  -4  -6 -18   29.58    4.00
  -4  -6 -17   30.36    6.67
  -4  -6 -16   31.27    6.11
  -4  -6 -15   -0.83    2.81
  -4  -6 -14   34.14    4.16
  -4  -6 -13   61.99    3.17
  -4  -6 -12   60.12    3.68
  -4  -6 -11    7.92    1.14
  -4  -6 -10   91.60    2.96
  -4  -6  -9    3.09    1.00
  -4  -6  -8   62.17    2.24
  -4  -6  -7  136.80    3.61
  -4  -6  -6   32.08    1.89
  -4  -6  -5  252.42    5.65
  -4  -6  -4  829.88   17.10
  -4  -6  -3  173.42    4.70
  -4  -6  -2  490.97   10.00
  -4  -6  -1  230.65    5.05
  -4  -6   0  130.22    3.26
  -4  -6   1  147.56    4.33
  -4  -6   2    4.07    1.54
  -4  -6   3   15.07    2.40
  -4  -6   4  113.20    4.55
  -4  -6   5  139.59    4.77
  -4  -6   6   11.14    2.21
  -4  -6   7   12.10    3.14
  -4  -6   8    3.93    2.12
  -4  -6   9   24.63    3.54
  -4  -6  10  164.16    8.22
  -4  -6  11    0.28    3.26
  -4  -6  12   74.93    5.75
  -4  -6  13  159.02    8.39
  -4  -6  14   12.94    3.93
  -4  -6  15    3.79    4.34
  -4  -6  16    4.67    4.82
  -4  -6  17    1.96    4.50
  -4  -6  18   -1.41    3.95
  -4  -6  19    3.53    4.50
  -4  -6  20    8.60    4.67
  -4  -5 -22   13.11    4.47
  -4  -5 -21   -0.42    2.83
  -4  -5 -20   34.97    4.64
  -4  -5 -19  139.31    9.53
  -4  -5 -18    6.88    5.49
  -4  -5 -17  232.11   14.11
  -4  -5 -16   46.94    5.37
  -4  -5 -15    7.92    3.81
  -4  -5 -14    9.76    2.96
  -4  -5 -13    4.37    1.83
  -4  -5 -12   76.38    3.33
  -4  -5 -11  174.67    6.27
  -4  -5 -10    6.33    1.97
  -4  -5  -9   98.79    3.07
  -4  -5  -8  440.75   10.97
  -4  -5  -7  376.93    9.69
  -4  -5  -6  136.53    3.33
  -4  -5  -5 1227.91   22.48
  -4  -5  -4  172.79    3.44
  -4  -5  -3   32.90    1.23
  -4  -5  -2  126.99    2.95
  -4  -5  -1   23.59    1.38
  -4  -5   0   87.11    2.88
  -4  -5   1  307.19    6.66
  -4  -5   2  142.70    3.69
  -4  -5   3  535.62   12.65
  -4  -5   4  135.42    4.15
  -4  -5   5   20.25    2.24
  -4  -5   6   41.57    2.61
  -4  -5   7  245.68    6.70
  -4  -5   8   28.68    3.44
  -4  -5   9    5.75    2.28
  -4  -5  10  170.61    7.44
  -4  -5  11   28.68    4.20
  -4  -5  12   10.74    5.53
  -4  -5  13   42.96    4.20
  -4  -5  14   19.73    3.69
  -4  -5  15   38.27    5.15
  -4  -5  16   14.62    4.27
  -4  -5  17    6.22    3.79
  -4  -5  18   17.47    5.26
  -4  -5  19    2.24    3.95
  -4  -5  20   49.25    9.83
  -4  -5  21    2.10    6.60
  -4  -4 -23   31.42    5.85
  -4  -4 -21   95.97   10.24
  -4  -4 -20   12.94    3.68
  -4  -4 -19    2.38    4.91
  -4  -4 -18    2.68    3.23
  -4  -4 -17   33.71    3.17
  -4  -4 -16   35.25    5.50
  -4  -4 -15  278.34   17.43
  -4  -4 -14   27.30    2.74
  -4  -4 -13    9.98    2.10
  -4  -4 -12  159.02    5.99
  -4  -4 -11   57.39    3.60
  -4  -4 -10  194.67    7.63
  -4  -4  -9   52.30    2.75
  -4  -4  -8  350.66    8.90
  -4  -4  -7  274.79    5.91
  -4  -4  -6  338.32    7.87
  -4  -4  -5   10.43    0.69
  -4  -4  -4  283.52    5.60
  -4  -4  -3  383.88    7.91
  -4  -4  -2  123.53    2.90
  -4  -4  -1  157.53    3.58
  -4  -4   0   15.64    1.13
  -4  -4   1    4.07    1.10
  -4  -4   2   97.38    3.05
  -4  -4   3  106.97    2.71
  -4  -4   4   22.00    2.12
  -4  -4   5  449.77   11.08
  -4  -4   6   27.30    2.23
  -4  -4   7  135.42    4.98
  -4  -4   8  160.24    5.41
  -4  -4   9  360.97   10.38
  -4  -4  10   72.69    3.44
  -4  -4  11    0.00    1.41
  -4  -4  12   -5.75    4.50
  -4  -4  13   68.30    5.70
  -4  -4  14    0.00    1.41
  -4  -4  15   46.46    6.15
  -4  -4  16    3.79    4.07
  -4  -4  17   28.93    4.34
  -4  -4  18   24.17    6.66
  -4  -4  19   20.15    7.88
  -4  -4  20   14.26    6.19
  -4  -4  21   46.62   11.35
  -4  -4  22   -1.00    5.23
  -4  -3 -24   12.10    6.03
  -4  -3 -23   -3.38    3.54
  -4  -3 -22   13.11    4.47
  -4  -3 -21    9.60    3.82
  -4  -3 -20    4.78    3.79
  -4  -3 -19   48.10    5.43
  -4  -3 -18   55.61    6.73
  -4  -3 -17    3.79    3.65
  -4  -3 -16   34.40    4.17
  -4  -3 -15  177.18    9.17
  -4  -3 -14   57.75    4.15
  -4  -3 -13   55.26    3.17
  -4  -3 -12  347.12   13.72
  -4  -3 -11  110.94    7.01
  -4  -3 -10  262.72    8.86
  -4  -3  -9   40.21    1.96
  -4  -3  -8  264.65    9.28
  -4  -3  -7  222.43    4.96
  -4  -3  -6   35.39    1.41
  -4  -3  -5  340.51    7.44
  -4  -3  -4  200.35    4.37
  -4  -3  -3  252.80    7.92
  -4  -3  -2   30.75    2.24
  -4  -3  -1  681.22   13.64
  -4  -3   0  245.68    5.58
  -4  -3   1  187.77    4.23
  -4  -3   2  415.21    9.67
  -4  -3   3   82.95    2.81
  -4  -3   4   20.04    1.38
  -4  -3   5    0.28    1.42
  -4  -3   6  254.69    7.59
  -4  -3   7   66.36    3.48
  -4  -3   8   80.58    3.84
  -4  -3   9  197.00    6.67
  -4  -3  10   -0.28    1.85
  -4  -3  11  279.54    8.74
  -4  -3  12   12.03    4.37
  -4  -3  13  120.39    7.04
  -4  -3  14   -0.56    2.81
  -4  -3  15  276.37   12.63
  -4  -3  16   10.12    4.39
  -4  -3  17   32.35    5.67
  -4  -3  18    7.59    3.79
  -4  -3  19   -5.36    6.49
  -4  -3  20   37.69    6.85
  -4  -3  21   21.56    6.95
  -4  -3  22   11.86    6.22
  -4  -2 -24   81.44   10.50
  -4  -2 -23   10.74    5.75
  -4  -2 -22    4.37    5.22
  -4  -2 -21   -3.38    5.64
  -4  -2 -20    5.47    4.50
  -4  -2 -19   23.12    5.37
  -4  -2 -18    2.38    3.81
  -4  -2 -17   23.24    5.50
  -4  -2 -15    4.22    4.34
  -4  -2 -14   22.67    2.71
  -4  -2 -13  319.80   11.04
  -4  -2 -12    3.65    2.41
  -4  -2 -11  164.16    6.09
  -4  -2 -10   76.79    3.33
  -4  -2  -9   96.21    3.72
  -4  -2  -8  466.03   14.86
  -4  -2  -7   19.30    1.47
  -4  -2  -6    9.31    1.02
  -4  -2  -5   27.92    1.25
  -4  -2  -4  169.37    4.02
  -4  -2  -3  289.14    6.06
  -4  -2  -2 1522.53   30.58
  -4  -2  -1 1485.68   29.29
  -4  -2   0  363.68    7.25
  -4  -2   1  172.17    4.36
  -4  -2   2    7.46    0.97
  -4  -2   3   66.93    2.52
  -4  -2   4   90.69    2.71
  -4  -2   5  232.47    7.25
  -4  -2   6   37.69    2.19
  -4  -2   7  664.58   18.37
  -4  -2   8    3.93    1.55
  -4  -2   9  110.43    4.50
  -4  -2  10   27.17    2.48
  -4  -2  11  271.26    8.22
  -4  -2  12    6.22    2.96
  -4  -2  13   93.43    8.04
  -4  -2  14    4.67    4.26
  -4  -2  15   -3.38    5.37
  -4  -2  16   55.96    6.57
  -4  -2  17    2.54    6.20
  -4  -2  18   -0.83    4.50
  -4  -2  19   23.12    6.85
  -4  -2  20   -3.38    5.64
  -4  -2  21    2.81    5.88
  -4  -2  22   49.92    7.54
  -4  -1 -25   19.61    7.47
  -4  -1 -24   17.67    5.89
  -4  -1 -23   17.17    5.51
  -4  -1 -22    3.65    4.36
  -4  -1 -21   10.28    6.92
  -4  -1 -20   39.16    6.39
  -4  -1 -19   23.35    4.82
  -4  -1 -18    3.53    3.26
  -4  -1 -17   11.45    4.10
  -4  -1 -16   -0.56    4.07
  -4  -1 -15   46.46    4.85
  -4  -1 -14   20.90    2.71
  -4  -1 -13    0.71    2.40
  -4  -1 -12    2.96    1.96
  -4  -1 -11   78.05    3.99
  -4  -1 -10  200.01    7.39
  -4  -1  -9    2.96    1.42
  -4  -1  -8    9.17    1.72
  -4  -1  -7   68.70    2.37
  -4  -1  -6   43.43    1.72
  -4  -1  -5  728.49   17.30
  -4  -1  -4  199.67    5.03
  -4  -1  -3 1026.39   20.54
  -4  -1  -2  287.93    6.05
  -4  -1  -1   59.39    1.47
  -4  -1   0    8.74    0.99
  -4  -1   1  161.43    4.23
  -4  -1   2  244.20    6.30
  -4  -1   3   -1.55    0.97
  -4  -1   4 1494.85   35.81
  -4  -1   5  226.00    6.43
  -4  -1   6  904.69   25.00
  -4  -1   7  369.60   11.42
  -4  -1   8  145.56    4.58
  -4  -1   9   11.29    2.79
  -4  -1  10  239.40    9.93
  -4  -1  11   76.38    3.74
  -4  -1  12   -2.24    3.51
  -4  -1  13   80.16    6.81
  -4  -1  14    4.22    5.61
  -4  -1  15   19.83    5.50
  -4  -1  16   41.12    6.54
  -4  -1  17   45.49    6.73
  -4  -1  18    4.22    3.67
  -4  -1  19    8.05    4.65
  -4  -1  20    3.38    7.78
  -4  -1  21   30.88    7.39
  -4  -1  22    8.60    6.90
  -4   0 -25   -9.60    6.18
  -4   0 -24   12.52    6.30
  -4   0 -23   10.74    5.75
  -4   0 -22    2.24    6.75
  -4   0 -21    7.78    6.50
  -4   0 -20   57.75    6.85
  -4   0 -19   -6.33    5.63
  -4   0 -18   14.35    6.66
  -4   0 -17  194.01   11.91
  -4   0 -16  183.57   13.83
  -4   0 -15    1.83    3.79
  -4   0 -14  157.53    5.67
  -4   0 -13   13.11    2.14
  -4   0 -12   91.37    4.31
  -4   0 -11   24.17    2.57
  -4   0 -10   19.73    1.79
  -4   0  -9  280.33    8.35
  -4   0  -8   39.61    1.79
  -4   0  -7   -1.41    1.41
  -4   0  -6 2247.04   45.04
  -4   0  -5  839.48   19.95
  -4   0  -4   29.71    1.68
  -4   0  -3  209.18    4.81
  -4   0  -2  157.84    3.88
  -4   0  -1   51.95    1.37
  -4   0   0   21.12    1.86
  -4   0   1 1529.01   38.07
  -4   0   2   11.69    1.30
  -4   0   3   13.64    1.41
  -4   0   4  307.60    8.33
  -4   0   5   42.65    2.64
  -4   0   6  584.50   14.93
  -4   0   7   37.99    3.07
  -4   0   8  405.10   14.82
  -4   0   9   46.46    3.40
  -4   0  10   61.24    4.46
  -4   0  11   22.11    2.79
  -4   0  12   -1.00    3.96
  -4   0  13    9.90    4.12
  -4   0  14   23.93    5.23
  -4   0  15    0.00    1.41
  -4   0  16   18.58    5.12
  -4   0  17    8.74    4.22
  -4   0  18   27.66    9.00
  -4   0  19   -1.27    5.36
  -4   0  20   42.65    7.44
  -4   0  21    6.03    5.37
  -4   0  22   20.90    8.80
  -4   1 -24   38.42   10.15
  -4   1 -23   49.08    7.49
  -4   1 -22    8.05    5.80
  -4   1 -21   -0.56    4.78
  -4   1 -20   -3.65    6.49
  -4   1 -19   14.26    6.64
  -4   1 -18  118.05   10.32
  -4   1 -17    9.90    4.94
  -4   1 -16   10.28    6.63
  -4   1 -15   52.47    4.82
  -4   1 -14   38.56    4.27
  -4   1 -13   13.55    2.79
  -4   1 -12    3.53    2.81
  -4   1 -11   20.04    2.13
  -4   1 -10   17.87    2.21
  -4   1  -9   60.31    3.13
  -4   1  -8  789.34   25.35
  -4   1  -7  786.66   15.99
  -4   1  -6   65.00    1.92
  -4   1  -5   77.42    2.09
  -4   1  -4   39.16    1.48
  -4   1  -3  178.14    3.81
  -4   1  -2   70.08    3.19
  -4   1  -1  954.65   18.34
  -4   1   0  140.44    3.10
  -4   1   1   63.68    2.27
  -4   1   2  465.52   12.30
  -4   1   3    4.94    1.27
  -4   1   4  633.73   18.53
  -4   1   5   -0.42    1.71
  -4   1   6  857.47   22.25
  -4   1   7   23.70    2.43
  -4   1   8  163.86    6.68
  -4   1   9   86.67    4.20
  -4   1  10   42.81    4.20
  -4   1  11  436.77   22.33
  -4   1  12   24.17    5.13
  -4   1  13   16.78    4.09
  -4   1  14   24.63    4.24
  -4   1  15    3.26    4.12
  -4   1  16  112.69   10.34
  -4   1  17    9.90    4.48
  -4   1  18   44.06    7.09
  -4   1  19   26.57    7.22
  -4   1  20   34.97    7.87
  -4   1  21    8.88    8.21
  -4   1  22    4.67    9.45
  -4   2 -24   16.40    7.22
  -4   2 -23   -1.41    5.78
  -4   2 -22   38.72    6.66
  -4   2 -21    3.79    5.23
  -4   2 -20   65.58    6.54
  -4   2 -19   24.41    7.39
  -4   2 -18   34.14    5.82
  -4   2 -17   13.28    4.94
  -4   2 -16    2.38    4.77
  -4   2 -15   65.20    5.37
  -4   2 -14    2.68    2.83
  -4   2 -13   16.78    3.99
  -4   2 -12   18.78    2.58
  -4   2 -11  161.73    5.74
  -4   2 -10  183.25    6.43
  -4   2  -9    7.78    1.86
  -4   2  -8    8.32    2.26
  -4   2  -7   93.43    2.75
  -4   2  -6   42.65    2.02
  -4   2  -5   44.06    1.73
  -4   2  -4  134.04    3.30
  -4   2  -3    1.96    1.00
  -4   2  -2  252.42    6.80
  -4   2  -1   93.65    3.21
  -4   2   0   27.92    1.38
  -4   2   1  344.02    8.38
  -4   2   2  481.54   12.51
  -4   2   3  301.80    7.84
  -4   2   4   42.65    2.33
  -4   2   5  281.12    8.36
  -4   2   6    1.96    2.10
  -4   2   7   -4.78    2.38
  -4   2   8  108.21    4.70
  -4   2   9  118.57    5.17
  -4   2  10   28.05    4.91
  -4   2  11  376.93   18.91
  -4   2  12  121.43    7.59
  -4   2  13  146.98   10.66
  -4   2  14  250.17   15.40
  -4   2  15   45.81    7.88
  -4   2  16   29.19    5.64
  -4   2  17   77.21    8.97
  -4   2  18    7.59    4.91
  -4   2  19   43.74    6.12
  -4   2  20   78.68    9.26
  -4   2  21   27.92    8.66
  -4   3 -23    5.92    6.64
  -4   3 -22   33.71    9.38
  -4   3 -21   19.61    7.47
  -4   3 -20   25.23    5.61
  -4   3 -19   -3.65    5.50
  -4   3 -18   12.10    7.43
  -4   3 -17   -6.64    4.10
  -4   3 -16   24.63    7.66
  -4   3 -15   13.11    5.50
  -4   3 -14   39.45    4.33
  -4   3 -13   31.02    4.10
  -4   3 -12   32.63    3.79
  -4   3 -11    7.78    4.10
  -4   3 -10    4.07    3.12
  -4   3  -9   10.97    2.35
  -4   3  -8   23.70    3.00
  -4   3  -7   18.18    2.83
  -4   3  -6    3.53    1.69
  -4   3  -5  175.30    4.09
  -4   3  -4   33.85    1.79
  -4   3  -3  159.33    3.60
  -4   3  -2    8.60    2.23
  -4   3  -1 1085.81   33.64
  -4   3   0   39.02    2.52
  -4   3   1  211.25    6.91
  -4   3   2    2.81    2.27
  -4   3   3   11.45    2.00
  -4   3   4   96.90    3.74
  -4   3   5  364.13    9.97
  -4   3   6  139.59    5.05
  -4   3   7  118.32    5.16
  -4   3   8   21.56    3.09
  -4   3   9   63.11    4.72
  -4   3  10  172.48    9.67
  -4   3  11    5.09    4.94
  -4   3  12   10.81    5.32
  -4   3  13  210.56   13.79
  -4   3  14    9.98    4.50
  -4   3  15    5.47    6.33
  -4   3  16   45.33    8.32
  -4   3  17    4.07    4.36
  -4   3  18    6.22    4.92
  -4   3  19    6.88    5.92
  -4   3  20    3.53    4.95
  -4   4 -22    3.09    6.47
  -4   4 -21    6.88    6.73
  -4   4 -20   45.81    6.27
  -4   4 -19   27.04    7.16
  -4   4 -18   -2.38    5.50
  -4   4 -17    3.09    4.64
  -4   4 -16   40.96    6.23
  -4   4 -15   20.15    4.26
  -4   4 -14   76.59    4.78
  -4   4 -13   59.39    5.30
  -4   4 -12   45.97    4.67
  -4   4 -11   22.56    3.50
  -4   4 -10    3.65    3.68
  -4   4  -9    6.22    2.55
  -4   4  -8  126.18    5.33
  -4   4  -7   59.21    3.84
  -4   4  -6    8.60    1.95
  -4   4  -5    7.08    1.40
  -4   4  -4   14.35    1.44
  -4   4  -3  101.87    2.88
  -4   4  -2    8.32    1.58
  -4   4  -1  113.45    4.55
  -4   4   0   77.21    3.75
  -4   4   1   51.10    3.40
  -4   4   2    1.27    1.85
  -4   4   3  128.86    5.12
  -4   4   4  108.45    4.46
  -4   4   5   45.18    3.51
  -4   4   6    1.11    3.79
  -4   4   7   39.45    5.67
  -4   4   8   38.42    3.54
  -4   4   9   56.50    5.36
  -4   4  10   46.46    6.32
  -4   4  11   18.78    6.58
  -4   4  12   -2.38    4.22
  -4   4  13   26.31    5.25
  -4   4  14    1.00    6.66
  -4   4  15   29.84    6.74
  -4   4  16   57.39    7.74
  -4   4  17   10.12    6.05
  -4   4  18   57.94    9.22
  -4   4  19   -2.81    4.65
  -4   5 -20    1.55    5.92
  -4   5 -19    1.11    6.33
  -4   5 -18    8.32    7.88
  -4   5 -17    2.81    7.16
  -4   5 -16   55.61    8.32
  -4   5 -15   10.12    6.73
  -4   5 -14    8.19    4.96
  -4   5 -13   -4.22    4.10
  -4   5 -12   43.74    4.71
  -4   5 -11   11.69    3.82
  -4   5 -10   -0.42    3.40
  -4   5  -9    9.02    2.43
  -4   5  -8   14.35    2.98
  -4   5  -7   15.54    2.81
  -4   5  -6  251.68    7.91
  -4   5  -5   11.69    2.12
  -4   5  -4    2.10    1.27
  -4   5  -3   26.80    1.85
  -4   5  -2   21.01    2.07
  -4   5  -1   12.69    1.95
  -4   5   0  161.73    6.95
  -4   5   1   18.08    3.43
  -4   5   2   50.08    2.19
  -4   5   3   -0.71    4.53
  -4   5   4   12.03    2.81
  -4   5   5   10.28    2.82
  -4   5   6  360.52   15.78
  -4   5   7   35.11    4.36
  -4   5   8  163.55    9.11
  -4   5   9    5.64    2.82
  -4   5  10   -4.22    6.49
  -4   5  11  110.19    9.73
  -4   5  12    7.21    5.23
  -4   5  13   -6.77    4.39
  -4   5  14   -8.19    4.34
  -4   5  15   15.64    6.95
  -4   5  16    8.74    5.61
  -4   5  17  139.59   15.71
  -4   5  18   21.88    7.44
  -4   6 -19    9.17    6.61
  -4   6 -18   22.00    6.23
  -4   6 -17    5.20    7.04
  -4   6 -16    1.00    6.23
  -4   6 -15    8.60   13.24
  -4   6 -14   45.33    7.84
  -4   6 -13    9.90    4.78
  -4   6 -12    6.46    5.08
  -4   6 -11    8.60    3.98
  -4   6 -10   60.67    4.81
  -4   6  -9    6.33    2.81
  -4   6  -8    8.88    2.69
  -4   6  -7   58.66    4.00
  -4   6  -6   80.37    4.89
  -4   6  -5   26.68    3.44
  -4   6  -4   11.14    2.38
  -4   6  -3   57.04    4.48
  -4   6  -2    6.33    1.44
  -4   6  -1  255.84    7.98
  -4   6   0    9.76    2.16
  -4   6   1   -1.71    3.10
  -4   6   2   24.87    4.15
  -4   6   3    4.22    1.27
  -4   6   4   22.22    1.79
  -4   6   5   43.91    5.98
  -4   6   6   14.99    2.85
  -4   6   7    2.10    2.82
  -4   6   8   12.86    3.50
  -4   6   9   15.36    4.09
  -4   6  10    6.77    7.16
  -4   6  11   45.97    7.25
  -4   6  12   65.20    9.01
  -4   6  13    6.46    6.75
  -4   6  14   23.59    6.35
  -4   6  15    3.26    5.53
  -4   6  16   23.82    7.06
  -4   7 -16   10.59    7.04
  -4   7 -15   -3.26    6.09
  -4   7 -14    8.05    8.90
  -4   7 -13    3.26    5.10
  -4   7 -12   37.11    7.09
  -4   7 -11   -3.26    5.23
  -4   7 -10   61.42    6.88
  -4   7  -9    4.67    5.95
  -4   7  -8    8.74    5.33
  -4   7  -7   -2.54    4.79
  -4   7  -6    6.46    3.07
  -4   7  -5   15.26    2.51
  -4   7  -4   34.97    5.89
  -4   7  -3    0.83    6.58
  -4   7  -2   -2.81    5.05
  -4   7  -1    0.28    0.71
  -4   7   0    9.76    1.25
  -4   7   1  142.70    7.37
  -4   7   2   72.08    5.85
  -4   7   3   20.90    3.79
  -4   7   4  301.38   14.42
  -4   7   5   25.23    3.34
  -4   7   6  129.13   10.25
  -4   7   7   30.63    7.23
  -4   7   8   84.04   10.24
  -4   7   9    3.38    8.18
  -4   7  10    5.64    5.53
  -4   7  11   25.94    5.68
  -4   7  12   14.81    9.40
  -4   7  13   59.02   10.04
  -4   7  14    3.09    6.47
  -4   8 -14    4.07    9.87
  -4   8 -13   18.78    6.90
  -4   8 -12   30.09    6.77
  -4   8 -11   40.06    7.67
  -4   8 -10    4.94    5.49
  -4   8  -9   10.97    8.57
  -4   8  -8    7.92    8.02
  -4   8  -7   38.72    6.80
  -4   8  -6   14.99    5.61
  -4   8  -5   -1.83    5.37
  -4   8  -4   61.42    8.19
  -4   8  -3    1.96    4.79
  -4   8  -2    3.38    4.68
  -4   8  -1    0.83    4.91
  -4   8   0    5.75    4.61
  -4   8   1   12.94    5.64
  -4   8   2    8.32    5.89
  -4   8   3   13.64    6.23
  -4   8   4    5.64    7.61
  -4   8   5   12.03    5.92
  -4   8   6   15.26    5.65
  -4   8   7   31.27    8.63
  -4   8   8   -0.42    5.25
  -4   8   9   13.55    6.91
  -4   8  10   -1.27    9.02
  -4   8  11   -1.00    5.67
  -4   9  -9    1.55    6.22
  -4   9  -8   23.82    7.66
  -4   9  -7   17.17    6.90
  -4   9  -6    2.24    5.19
  -4   9  -5    8.32    5.89
  -4   9  -4   14.81    6.22
  -4   9  -1   21.01    7.29
  -4   9   0    3.53    5.80
  -4   9   1    1.71    6.51
  -4   9   2    9.31    6.37
  -4   9   3  101.64   11.49
  -4   9   4   29.44    7.35
  -4   9   5    1.11    4.77
  -4   9   6   18.78    8.33
  -4   9   7    8.60   10.17
  -3 -12 -11    9.02    7.35
  -3 -12 -10    5.47    7.16
  -3 -12  -9   -5.64    7.90
  -3 -12  -8   30.23    7.44
  -3 -12  -7    7.46    4.47
  -3 -12  -6   36.96    5.92
  -3 -12  -5    8.88    6.09
  -3 -12  -4    5.36    4.23
  -3 -12  -3   38.42    5.89
  -3 -12  -2   21.67    4.75
  -3 -12  -1  154.86    9.76
  -3 -12   0   61.99    5.80
  -3 -12   1   38.56    5.02
  -3 -12   2    9.02    6.64
  -3 -12   3    5.64    4.34
  -3 -12   4   30.88    5.94
  -3 -12   5   20.15    5.96
  -3 -12   6   54.20    6.64
  -3 -12   7   29.84    4.94
  -3 -12   8    3.65    5.22
  -3 -11 -14   49.42   10.35
  -3 -11 -13  105.02   14.11
  -3 -11 -12   -3.65    3.54
  -3 -11 -11    6.46    3.68
  -3 -11 -10    8.19    3.54
  -3 -11  -9    1.00    4.53
  -3 -11  -8    3.53    3.38
  -3 -11  -7    9.98    4.05
  -3 -11  -6   37.55    4.95
  -3 -11  -5   81.87    6.02
  -3 -11  -4    1.11    4.34
  -3 -11  -3    9.31    3.26
  -3 -11  -2    1.41    3.53
  -3 -11  -1   17.17    4.82
  -3 -11   0   30.88    4.23
  -3 -11   1   -2.24    4.48
  -3 -11   2   66.74    6.02
  -3 -11   3   48.59    5.63
  -3 -11   4    8.05    4.78
  -3 -11   5   -4.37    4.07
  -3 -11   6   -1.41    4.65
  -3 -11   7    4.22    5.51
  -3 -11   8    7.78    6.09
  -3 -11   9   25.83    5.32
  -3 -11  10    9.90    4.41
  -3 -11  11   -0.56    5.33
  -3 -11  12    8.74    5.47
  -3 -10 -17    7.08    6.50
  -3 -10 -16   -4.51    5.65
  -3 -10 -15    6.03    4.67
  -3 -10 -14   17.37    3.76
  -3 -10 -13   47.60    5.25
  -3 -10 -12    2.10    3.51
  -3 -10 -11   -2.24    3.23
  -3 -10 -10   53.68    5.22
  -3 -10  -9   -6.88    3.37
  -3 -10  -8   -1.55    2.96
  -3 -10  -7   31.54    4.13
  -3 -10  -6    3.79    3.79
  -3 -10  -5   48.91    4.98
  -3 -10  -4    7.21    4.20
  -3 -10  -3   27.66    4.24
  -3 -10  -2    4.78    3.37
  -3 -10  -1   62.55    5.08
  -3 -10   0   41.27    5.50
  -3 -10   1    5.09    3.96
  -3 -10   2   -1.96    3.36
  -3 -10   3   40.36    4.68
  -3 -10   4   43.58    2.66
  -3 -10   5   47.43    3.10
  -3 -10   6   58.84    5.82
  -3 -10   7   15.54    4.22
  -3 -10   8   56.32    5.17
  -3 -10   9   -1.55    3.93
  -3 -10  10   -4.78    4.20
  -3 -10  11    3.53    5.08
  -3 -10  12    4.37    4.51
  -3 -10  13   28.17    5.67
  -3 -10  14   -4.51    5.65
  -3 -10  15    2.81    5.05
  -3  -9 -17   52.13    6.68
  -3  -9 -16    9.90    5.53
  -3  -9 -15   10.28    5.49
  -3  -9 -14    7.59    3.40
  -3  -9 -13   96.43    6.99
  -3  -9 -12   -1.96    2.83
  -3  -9 -11    3.09    3.26
  -3  -9 -10   31.81    3.75
  -3  -9  -9    5.64    3.67
  -3  -9  -8    7.59    3.54
  -3  -9  -7   -0.83    4.34
  -3  -9  -6  118.57    6.47
  -3  -9  -5   42.50    4.17
  -3  -9  -4   -1.41    3.38
  -3  -9  -3    8.74    3.09
  -3  -9  -2   26.07    3.76
  -3  -9  -1  106.49    6.12
  -3  -9   0    0.28    3.55
  -3  -9   1   14.09    1.69
  -3  -9   2   30.36    1.96
  -3  -9   3    4.07    1.40
  -3  -9   4  174.99    5.65
  -3  -9   5   16.20    2.30
  -3  -9   6    3.93    4.39
  -3  -9   7  239.40   12.49
  -3  -9   8   -4.78    3.68
  -3  -9   9   30.63    6.57
  -3  -9  10   40.36    4.82
  -3  -9  11   14.52    5.34
  -3  -9  12   14.99    4.41
  -3  -9  13   12.27    5.25
  -3  -9  14   -1.83    4.09
  -3  -9  15   73.10    8.12
  -3  -9  16   27.55    5.98
  -3  -9  17  -11.29    6.39
  -3  -8 -19    5.36    5.94
  -3  -8 -18   12.69    4.40
  -3  -8 -17    4.22    4.24
  -3  -8 -16   12.10    5.95
  -3  -8 -15   27.92    5.02
  -3  -8 -14   38.86    5.92
  -3  -8 -13   -2.10    3.10
  -3  -8 -12   23.01    3.76
  -3  -8 -11    8.32    3.36
  -3  -8 -10   27.79    4.26
  -3  -8  -9   67.33    5.06
  -3  -8  -8  374.17   13.32
  -3  -8  -7    1.71    2.43
  -3  -8  -6  330.93   12.54
  -3  -8  -5   12.44    2.51
  -3  -8  -4   47.76    2.96
  -3  -8  -3  200.68    6.73
  -3  -8  -2    6.33    2.40
  -3  -8  -1  169.68    4.95
  -3  -8   0  130.22    4.06
  -3  -8   1  215.76    5.94
  -3  -8   2  126.45    3.74
  -3  -8   3  187.45    5.53
  -3  -8   4   44.06    3.47
  -3  -8   5   53.16    3.64
  -3  -8   6    1.71    3.41
  -3  -8   7  198.67    8.04
  -3  -8   8   81.02    6.42
  -3  -8   9    0.42    4.39
  -3  -8  10   53.33    6.06
  -3  -8  11    4.22    4.64
  -3  -8  12   36.67    4.89
  -3  -8  13   -5.36    5.33
  -3  -8  14    7.46    4.34
  -3  -8  15   40.36    6.33
  -3  -8  16    2.54    5.06
  -3  -8  17    2.54    5.22
  -3  -8  18   12.03    5.77
  -3  -8  19    3.93    4.81
  -3  -7 -21    9.02    5.36
  -3  -7 -20   15.26    5.94
  -3  -7 -19    6.33    4.24
  -3  -7 -18   86.67    7.29
  -3  -7 -17    3.65    2.13
  -3  -7 -16   -0.71    1.99
  -3  -7 -15   13.11    1.80
  -3  -7 -14  139.31    7.29
  -3  -7 -13    1.71    1.42
  -3  -7 -12    2.68    0.71
  -3  -7 -11    4.67    2.66
  -3  -7 -10  105.75    6.60
  -3  -7  -9    0.56    1.83
  -3  -7  -8  147.28    5.19
  -3  -7  -7   14.52    2.35
  -3  -7  -6   17.77    2.30
  -3  -7  -5    6.33    1.97
  -3  -7  -4    3.26    2.10
  -3  -7  -3    4.78    1.97
  -3  -7  -2   14.35    1.71
  -3  -7  -1    0.83    1.41
  -3  -7   0   -0.28    1.42
  -3  -7   1  104.29    2.90
  -3  -7   2    1.71    1.42
  -3  -7   3  101.87    3.84
  -3  -7   4  121.69    4.19
  -3  -7   5   14.35    2.43
  -3  -7   6  230.65    7.94
  -3  -7   7  116.51    7.18
  -3  -7   8   -4.94    4.54
  -3  -7   9  237.20    9.15
  -3  -7  10    7.78    4.96
  -3  -7  11  478.93   21.31
  -3  -7  12  229.58    9.72
  -3  -7  13   16.40    4.23
  -3  -7  14    7.46    3.64
  -3  -7  15    3.26    5.10
  -3  -7  16    7.46    4.47
  -3  -7  17   28.81    5.36
  -3  -7  18   68.10    6.08
  -3  -7  19    2.81    5.61
  -3  -7  20    6.64    5.20
  -3  -6 -22    5.47    6.61
  -3  -6 -21    7.21    6.05
  -3  -6 -20   29.58    7.11
  -3  -6 -19    5.64    5.64
  -3  -6 -18   -2.68    4.51
  -3  -6 -17  119.60    8.31
  -3  -6 -16  197.33   13.01
  -3  -6 -15  346.67   18.57
  -3  -6 -14   52.99    5.02
  -3  -6 -13  241.61   12.18
  -3  -6 -12   18.47    2.35
  -3  -6 -11   22.79    1.71
  -3  -6 -10   52.99    2.07
  -3  -6  -9   49.58    3.00
  -3  -6  -8   34.26    2.64
  -3  -6  -7   10.97    1.96
  -3  -6  -6    6.64    1.96
  -3  -6  -5  113.71    3.54
  -3  -6  -4  790.66   20.04
  -3  -6  -3    7.92    1.41
  -3  -6  -2    8.19    1.57
  -3  -6  -1  608.87   12.31
  -3  -6   0   12.27    1.25
  -3  -6   1  608.27   12.30
  -3  -6   2   44.37    2.06
  -3  -6   3   37.99    2.04
  -3  -6   4   33.30    2.06
  -3  -6   5  217.85    7.36
  -3  -6   6   34.26    3.06
  -3  -6   7   12.44    3.10
  -3  -6   8   26.57    3.06
  -3  -6   9  118.05    6.44
  -3  -6  10   21.12    3.71
  -3  -6  11  134.32    7.98
  -3  -6  12   34.40    6.27
  -3  -6  13    5.20    3.79
  -3  -6  14    1.96    4.92
  -3  -6  15   16.40    4.61
  -3  -6  16   32.90    5.03
  -3  -6  17    5.75    4.10
  -3  -6  18   -9.98    4.65
  -3  -6  19   -1.27    4.10
  -3  -6  20    0.56    5.20
  -3  -6  21   -2.24    4.62
  -3  -5 -24    3.79    4.07
  -3  -5 -23   67.91    9.79
  -3  -5 -22   64.62    7.83
  -3  -5 -21   35.96    5.27
  -3  -5 -20    0.28    3.69
  -3  -5 -19   51.95    6.50
  -3  -5 -18   16.10    4.67
  -3  -5 -17   10.59    3.40
  -3  -5 -16    2.38    3.37
  -3  -5 -15   -5.47    4.67
  -3  -5 -14   87.34    6.88
  -3  -5 -13   47.43    3.27
  -3  -5 -12   33.71    2.48
  -3  -5 -11  139.88    5.89
  -3  -5 -10  370.05   11.87
  -3  -5  -9   42.65    2.95
  -3  -5  -8  171.54    4.67
  -3  -5  -7  152.51    3.81
  -3  -5  -6  320.22    7.66
  -3  -5  -5   41.57    1.83
  -3  -5  -4  900.41   17.82
  -3  -5  -3  139.59    3.37
  -3  -5  -2  136.80    3.89
  -3  -5  -1  786.00   13.99
  -3  -5   0  146.98    3.45
  -3  -5   1  411.83    9.64
  -3  -5   2    4.37    1.54
  -3  -5   3   17.17    1.97
  -3  -5   4   -0.83    1.54
  -3  -5   5  211.94    5.88
  -3  -5   6   47.76    2.96
  -3  -5   7  517.64   17.84
  -3  -5   8   13.55    2.71
  -3  -5   9    5.92    2.83
  -3  -5  10    4.37    2.13
  -3  -5  11   10.12    4.07
  -3  -5  12   85.35    6.58
  -3  -5  13  159.63   10.80
  -3  -5  14    7.33    4.12
  -3  -5  15    6.77    3.84
  -3  -5  16   86.89    7.97
  -3  -5  17    6.64    3.98
  -3  -5  18   -0.83    4.06
  -3  -5  19   31.81    4.70
  -3  -5  20    0.00    1.41
  -3  -5  21   31.95    8.32
  -3  -5  22   -6.33    5.80
  -3  -4 -24   15.07    7.92
  -3  -4 -23   15.26    7.52
  -3  -4 -22    9.17    4.82
  -3  -4 -21    9.46    3.07
  -3  -4 -20   54.03    7.68
  -3  -4 -19  117.27    8.49
  -3  -4 -18    1.41    3.81
  -3  -4 -17   48.59    5.80
  -3  -4 -16   49.58    3.68
  -3  -4 -15    8.32    3.84
  -3  -4 -14   37.25    3.05
  -3  -4 -13  118.05    5.16
  -3  -4 -12   -0.14    2.14
  -3  -4 -11   22.67    2.14
  -3  -4 -10  260.42    9.97
  -3  -4  -9  361.87   11.75
  -3  -4  -8  439.76   13.95
  -3  -4  -7   15.36    1.58
  -3  -4  -6  220.32    5.64
  -3  -4  -5  527.94   11.46
  -3  -4  -4  105.02    2.19
  -3  -4  -3   82.09    1.93
  -3  -4  -2  108.94    2.48
  -3  -4  -1   27.30    1.24
  -3  -4   0    7.33    1.41
  -3  -4   1  421.52    9.26
  -3  -4   2    0.00    1.41
  -3  -4   3 1514.19   36.04
  -3  -4   4  158.73    5.39
  -3  -4   5  833.30   21.94
  -3  -4   6  220.67    6.35
  -3  -4   7  204.40    5.77
  -3  -4   8   47.26    2.93
  -3  -4   9   18.78    2.58
  -3  -4  10   70.28    3.38
  -3  -4  11    0.71    2.26
  -3  -4  12   -1.00    3.81
  -3  -4  13    5.47    3.23
  -3  -4  14   43.58    3.92
  -3  -4  15   59.94    4.78
  -3  -4  16   -6.33    3.65
  -3  -4  17  242.34   10.72
  -3  -4  18   40.21    7.53
  -3  -4  19  -12.52    5.88
  -3  -4  20   11.14    5.08
  -3  -4  21   19.83    5.60
  -3  -4  22   37.39   10.03
  -3  -3 -24    6.88    5.23
  -3  -3 -23    5.92    5.49
  -3  -3 -22    9.02    6.35
  -3  -3 -21    6.03    4.50
  -3  -3 -20  105.50   10.73
  -3  -3 -19   -1.41    3.95
  -3  -3 -18   23.70    5.09
  -3  -3 -17    3.93    2.40
  -3  -3 -16   11.53    2.66
  -3  -3 -15  135.97    8.86
  -3  -3 -14   13.82    2.82
  -3  -3 -13   18.18    2.83
  -3  -3 -12   17.17    2.55
  -3  -3 -11   33.04    2.45
  -3  -3 -10  503.68   18.12
  -3  -3  -9 1064.01   34.08
  -3  -3  -8    5.36    0.99
  -3  -3  -7  132.94    4.39
  -3  -3  -6   51.61    2.21
  -3  -3  -5  433.80    9.40
  -3  -3  -4   28.05    1.00
  -3  -3  -3  244.94    4.84
  -3  -3  -2   13.11    0.86
  -3  -3  -1    3.38    0.71
  -3  -3   0    3.79    0.97
  -3  -3   1  940.03   18.20
  -3  -3   2 1099.16   25.20
  -3  -3   3 1025.63   21.29
  -3  -3   4    6.03    1.69
  -3  -3   5  545.01   15.52
  -3  -3   6   62.35    2.82
  -3  -3   7  199.00    5.36
  -3  -3   8  195.67    6.32
  -3  -3   9   68.30    3.14
  -3  -3  10  118.05    4.39
  -3  -3  11   17.17    2.27
  -3  -3  12  257.36    7.23
  -3  -3  13   -5.64    2.82
  -3  -3  14   21.01    5.12
  -3  -3  15  267.36   11.27
  -3  -3  16  610.04   32.85
  -3  -3  17    4.78    4.51
  -3  -3  18   70.28    9.56
  -3  -3  19   36.82    7.64
  -3  -3  20   14.52    5.53
  -3  -3  21   30.75    8.29
  -3  -3  22    4.51    5.65
  -3  -3  23   -5.64    6.32
  -3  -2 -25   16.40    6.25
  -3  -2 -24  149.01   15.95
  -3  -2 -23    3.38    4.68
  -3  -2 -22    3.93    4.53
  -3  -2 -21   -2.68    4.09
  -3  -2 -20    5.92    4.10
  -3  -2 -19    3.93    4.39
  -3  -2 -18  270.47   16.02
  -3  -2 -17   82.30    7.76
  -3  -2 -16   68.30    7.85
  -3  -2 -15   26.93    2.96
  -3  -2 -14  154.57    6.20
  -3  -2 -13  122.48    4.74
  -3  -2 -12   82.95    3.89
  -3  -2 -11    4.07    1.54
  -3  -2 -10 1157.38   34.74
  -3  -2  -9   56.32    2.50
  -3  -2  -8   64.44    3.05
  -3  -2  -7   77.64    2.72
  -3  -2  -6 1301.38   43.70
  -3  -2  -5   17.08    1.09
  -3  -2  -4  333.53    8.23
  -3  -2  -3   79.53    2.12
  -3  -2  -2  698.69   16.95
  -3  -2  -1  475.83   10.36
  -3  -2   0  177.51    4.43
  -3  -2   1  307.60    7.50
  -3  -2   2   91.82    2.74
  -3  -2   3  103.55    3.14
  -3  -2   4  244.57    7.05
  -3  -2   5  297.69    8.60
  -3  -2   6    6.88    1.68
  -3  -2   7  710.66   16.46
  -3  -2   8  120.39    4.17
  -3  -2   9  537.82   15.43
  -3  -2  10    7.78    1.86
  -3  -2  11   66.36    3.29
  -3  -2  12    4.37    2.23
  -3  -2  13   72.08    6.05
  -3  -2  14    1.27    7.21
  -3  -2  15   50.25    6.74
  -3  -2  16    6.46    6.22
  -3  -2  17    2.81    4.50
  -3  -2  18  178.14   14.27
  -3  -2  19    1.41    5.50
  -3  -2  20    3.09    5.22
  -3  -2  21    1.11    4.92
  -3  -2  22    1.55    6.06
  -3  -2  23   18.37    5.91
  -3  -1 -25   11.45    5.95
  -3  -1 -24    3.79    5.50
  -3  -1 -23    5.64    6.77
  -3  -1 -22   59.57    8.25
  -3  -1 -21   -9.60    5.08
  -3  -1 -20   59.94    8.09
  -3  -1 -19   22.45    4.84
  -3  -1 -18    4.22    3.37
  -3  -1 -17   25.35    5.39
  -3  -1 -16   57.04    6.81
  -3  -1 -15   18.37    3.16
  -3  -1 -14  185.83    6.47
  -3  -1 -13  550.00   18.39
  -3  -1 -12   37.69    3.06
  -3  -1 -11   -1.71    1.99
  -3  -1 -10  503.14   17.58
  -3  -1  -9  110.19    4.24
  -3  -1  -8   65.20    2.88
  -3  -1  -7   39.16    2.09
  -3  -1  -6    0.83    1.13
  -3  -1  -5  625.97   16.64
  -3  -1  -4 1211.33   25.62
  -3  -1  -3    1.55    0.86
  -3  -1  -2  501.01    9.57
  -3  -1  -1  196.33    4.33
  -3  -1   0  465.02    9.22
  -3  -1   1   34.14    1.38
  -3  -1   2  161.43    3.92
  -3  -1   3   34.14    1.66
  -3  -1   4  347.12    7.97
  -3  -1   5  463.48   11.25
  -3  -1   6  261.56    8.45
  -3  -1   7  134.87    3.86
  -3  -1   8 1133.27   27.98
  -3  -1   9  142.70    4.54
  -3  -1  10   13.64    2.54
  -3  -1  11   16.40    2.98
  -3  -1  12  107.95    5.68
  -3  -1  13   43.58    3.92
  -3  -1  14    0.83    3.37
  -3  -1  15    6.33    5.92
  -3  -1  16   87.77    7.78
  -3  -1  17   10.81    4.22
  -3  -1  18   10.97    3.93
  -3  -1  19   31.15    6.09
  -3  -1  20   34.40    8.08
  -3  -1  21    7.21    4.65
  -3  -1  22  279.13   25.39
  -3  -1  23    0.83    6.87
  -3   0 -25    9.46    6.64
  -3   0 -24    7.78    4.64
  -3   0 -23    2.24    5.05
  -3   0 -22  143.56   11.96
  -3   0 -21    6.64    4.34
  -3   0 -20   18.47    6.74
  -3   0 -19   17.17    6.80
  -3   0 -18    6.03    4.09
  -3   0 -17  203.04   11.51
  -3   0 -16   36.53    4.74
  -3   0 -15   33.04    4.09
  -3   0 -14   93.43    4.60
  -3   0 -13    3.53    2.10
  -3   0 -12    1.96    1.83
  -3   0 -11  194.01    6.29
  -3   0 -10  617.68   16.53
  -3   0  -9  115.48    3.84
  -3   0  -8   11.86    1.55
  -3   0  -7  375.55    9.66
  -3   0  -6  433.80   10.39
  -3   0  -5  378.31   11.08
  -3   0  -4 7103.98  230.19
  -3   0  -3 1533.67   29.77
  -3   0  -2  210.21    5.16
  -3   0  -1  239.40    4.41
  -3   0   0   31.68    1.20
  -3   0   1  149.89    3.48
  -3   0   2   36.82    1.44
  -3   0   3  554.47   12.86
  -3   0   4   29.06    1.79
  -3   0   5    6.77    1.66
  -3   0   6   37.69    2.48
  -3   0   7   25.35    2.27
  -3   0   8   25.94    2.30
  -3   0   9   29.06    2.69
  -3   0  10  567.96   17.54
  -3   0  11    3.65    2.68
  -3   0  12  388.55   13.58
  -3   0  13  245.32   14.51
  -3   0  14   -0.71    3.54
  -3   0  15    6.22    3.96
  -3   0  16    5.09    4.82
  -3   0  17   14.62    4.91
  -3   0  18  106.23    9.55
  -3   0  19    5.09    5.78
  -3   0  20   29.06    6.53
  -3   0  21   30.75    6.06
  -3   0  22   -8.19    5.78
  -3   0  23    2.38    6.19
  -3   1 -25   -2.54    5.37
  -3   1 -24    7.33    5.65
  -3   1 -23   28.17    7.19
  -3   1 -22   -7.46    7.46
  -3   1 -21   -2.38    7.74
  -3   1 -20    2.96    7.08
  -3   1 -19   82.95    9.73
  -3   1 -18   58.47    8.53
  -3   1 -17    0.83    3.65
  -3   1 -16   36.82    5.91
  -3   1 -15   16.40    3.37
  -3   1 -14   23.12    2.86
  -3   1 -13   22.67    2.83
  -3   1 -12  170.92    5.27
  -3   1 -11   42.34    2.62
  -3   1 -10   50.76    2.37
  -3   1  -9    2.81    1.83
  -3   1  -8 1049.35   27.69
  -3   1  -7   57.75    3.07
  -3   1  -6  432.32    9.38
  -3   1  -5  882.68   19.05
  -3   1  -4  273.60    5.89
  -3   1  -3   12.44    1.00
  -3   1  -2   34.69    1.54
  -3   1  -1    9.60    0.96
  -3   1   0  217.85    5.61
  -3   1   1  527.41   12.00
  -3   1   2  356.47    9.42
  -3   1   3 1190.75   27.86
  -3   1   4  212.63    5.54
  -3   1   5  169.37    4.33
  -3   1   6  217.51    5.95
  -3   1   7   20.15    2.99
  -3   1   8  205.41    7.15
  -3   1   9   51.10    3.57
  -3   1  10   13.55    2.54
  -3   1  11  348.88   15.09
  -3   1  12   25.35    3.10
  -3   1  13   66.36    6.97
  -3   1  14   11.29    4.07
  -3   1  15  283.52   17.60
  -3   1  16   21.45    5.06
  -3   1  17  222.79   17.37
  -3   1  18   45.18    5.75
  -3   1  19   11.69    5.20
  -3   1  20    7.59    6.74
  -3   1  21   74.52    9.63
  -3   1  22    3.93    5.80
  -3   1  23   51.78    7.68
  -3   2 -24   -3.93    9.28
  -3   2 -23    5.36    6.05
  -3   2 -22    3.65    4.77
  -3   2 -21   -1.11    5.32
  -3   2 -20    0.42    7.50
  -3   2 -19   25.47    9.00
  -3   2 -18   17.47    5.46
  -3   2 -17   23.70    4.98
  -3   2 -16   45.49    8.33
  -3   2 -15  261.18   11.52
  -3   2 -14   -2.68    4.09
  -3   2 -13   -1.41    3.10
  -3   2 -12    3.79    2.13
  -3   2 -11  159.93    5.40
  -3   2 -10  470.66   12.89
  -3   2  -9 1053.97   26.99
  -3   2  -8   91.60    3.86
  -3   2  -7   14.09    1.96
  -3   2  -6  201.01    5.39
  -3   2  -5   18.89    1.55
  -3   2  -4  453.30   10.11
  -3   2  -3   84.91    2.19
  -3   2  -2    6.88    1.24
  -3   2  -1  150.17    4.37
  -3   2   0  412.79    9.64
  -3   2   1   -2.38    1.69
  -3   2   2   54.20    2.45
  -3   2   3  482.06   10.96
  -3   2   4  106.23    3.43
  -3   2   5  164.78    4.57
  -3   2   6  166.61    5.22
  -3   2   7    1.83    1.71
  -3   2   8  396.08   15.13
  -3   2   9   15.82    2.65
  -3   2  10   30.88    3.57
  -3   2  11   14.35    2.69
  -3   2  12   23.82    5.33
  -3   2  13   95.28    8.57
  -3   2  14   10.97    3.54
  -3   2  15    4.51    5.65
  -3   2  16   23.93    6.03
  -3   2  17    6.33    5.92
  -3   2  18    4.67    7.49
  -3   2  19   13.11    4.91
  -3   2  20   43.91    6.46
  -3   2  21    5.36    6.22
  -3   2  22   -1.41    5.36
  -3   3 -23    3.79    6.20
  -3   3 -22   13.99    7.37
  -3   3 -21   62.17    7.87
  -3   3 -20   -1.71    4.68
  -3   3 -19    2.38    6.90
  -3   3 -18   66.36    8.52
  -3   3 -17   -3.93    5.51
  -3   3 -16   19.20    7.39
  -3   3 -15    2.38    6.19
  -3   3 -14    6.88    3.68
  -3   3 -13   29.31    4.24
  -3   3 -12   35.96    4.13
  -3   3 -11  130.77    5.16
  -3   3 -10  125.65    4.53
  -3   3  -9  139.59    5.33
  -3   3  -8   37.83    2.92
  -3   3  -7    7.46    1.95
  -3   3  -6  146.42    5.17
  -3   3  -5  159.33    4.79
  -3   3  -4  174.67    4.07
  -3   3  -3  279.54    5.56
  -3   3  -2  252.80    6.03
  -3   3  -1  945.86   23.38
  -3   3   0   68.10    2.95
  -3   3   1   45.97    2.58
  -3   3   2   32.49    2.30
  -3   3   3   12.69    1.86
  -3   3   4   68.70    2.75
  -3   3   5   21.56    2.54
  -3   3   6   47.26    2.61
  -3   3   7   -1.83    1.83
  -3   3   8   46.78    2.92
  -3   3   9   27.79    4.26
  -3   3  10  159.93    6.91
  -3   3  11   32.08    6.58
  -3   3  12   -2.10    4.37
  -3   3  13  389.96   21.57
  -3   3  14    8.88    4.53
  -3   3  15    3.09    4.22
  -3   3  16   14.52    5.25
  -3   3  17  117.27   11.32
  -3   3  18   14.81    5.75
  -3   3  19   45.66    6.74
  -3   3  20    8.19    5.50
  -3   3  21   13.55    6.47
  -3   3  22   24.99    7.36
  -3   4 -22   -4.67    8.21
  -3   4 -21  -13.64    8.60
  -3   4 -20   59.76    7.90
  -3   4 -19   -5.20    5.20
  -3   4 -18   28.68    8.77
  -3   4 -17   -1.27    4.37
  -3   4 -16   11.69    7.47
  -3   4 -15    4.67    4.51
  -3   4 -14   -8.05    4.51
  -3   4 -13  297.69   13.93
  -3   4 -12   40.36    4.68
  -3   4 -11    4.94    3.79
  -3   4 -10   12.03    4.12
  -3   4  -9    4.94    2.27
  -3   4  -8  189.41    6.54
  -3   4  -7   58.29    3.09
  -3   4  -6  249.04    7.50
  -3   4  -5   19.61    2.64
  -3   4  -4    8.46    1.24
  -3   4  -3   39.31    1.79
  -3   4  -2  508.49    9.11
  -3   4  -1  287.53    8.86
  -3   4   0  144.40    4.85
  -3   4   1  307.19    7.91
  -3   4   2   24.87    2.48
  -3   4   3  124.59    4.77
  -3   4   4  249.42    7.50
  -3   4   5  300.56    8.64
  -3   4   6    0.56    1.69
  -3   4   7    2.68    2.26
  -3   4   8  167.84    6.46
  -3   4   9   22.11    5.58
  -3   4  10    9.46    3.51
  -3   4  11    0.14    5.85
  -3   4  12    1.11    5.05
  -3   4  13   14.09    5.80
  -3   4  14    5.47    7.33
  -3   4  15   14.81    3.65
  -3   4  16   61.99    9.53
  -3   4  17    3.09    4.79
  -3   4  18   -8.32    8.50
  -3   4  19    1.11   10.39
  -3   4  20   10.12    8.77
  -3   4  21    2.38    9.57
  -3   5 -21    6.33    6.46
  -3   5 -20    6.46    5.49
  -3   5 -19   -5.47    4.95
  -3   5 -18   10.43    5.91
  -3   5 -17   25.83    9.42
  -3   5 -16   74.52    7.99
  -3   5 -15   -1.41    4.94
  -3   5 -14   39.61    7.92
  -3   5 -13   -5.64    4.51
  -3   5 -12   -1.41    4.09
  -3   5 -11   57.75    4.33
  -3   5 -10   36.10    3.99
  -3   5  -9    3.38    4.24
  -3   5  -8    1.41    3.67
  -3   5  -7    8.88    3.26
  -3   5  -6  116.51    4.86
  -3   5  -5   30.75    3.16
  -3   5  -4   79.31    3.17
  -3   5  -3   29.71    2.07
  -3   5  -2   40.36    1.51
  -3   5  -1   56.85    2.86
  -3   5   0   40.96    3.19
  -3   5   1  154.57    5.32
  -3   5   2   12.03    1.40
  -3   5   3  148.43    5.20
  -3   5   4  116.51    4.61
  -3   5   5   68.30    4.51
  -3   5   6  419.57   15.07
  -3   5   7   65.58    4.81
  -3   5   8   78.26    4.84
  -3   5   9   -2.81    2.38
  -3   5  10  220.67   13.76
  -3   5  11    4.78    4.51
  -3   5  12  167.22   12.59
  -3   5  13   90.02   10.36
  -3   5  14   19.40    5.75
  -3   5  15   65.20    7.67
  -3   5  16    2.38    8.02
  -3   5  17   11.53    4.92
  -3   5  18   -4.07    5.23
  -3   5  19   18.89    7.22
  -3   6 -20   -3.79    6.33
  -3   6 -19   16.50    7.23
  -3   6 -18   95.28   12.28
  -3   6 -17    7.46    5.19
  -3   6 -16   -7.92    7.76
  -3   6 -15    8.19    5.10
  -3   6 -14   64.62    8.21
  -3   6 -13   -2.68    5.80
  -3   6 -12   -0.71    6.92
  -3   6 -11    7.59    4.78
  -3   6 -10    6.33    4.24
  -3   6  -9   12.27    4.07
  -3   6  -8   17.87    3.51
  -3   6  -7   17.77    2.81
  -3   6  -6  738.14   25.17
  -3   6  -5   10.43    2.14
  -3   6  -4   89.11    4.03
  -3   6  -3  132.94    5.75
  -3   6  -2    9.02    5.06
  -3   6  -1    0.42    0.86
  -3   6   0   11.69    1.54
  -3   6   1    5.47    2.66
  -3   6   2    4.07    1.40
  -3   6   3   18.47    1.83
  -3   6   4    6.46    1.69
  -3   6   5    6.22    3.26
  -3   6   6  155.75    7.42
  -3   6   7   86.22    5.95
  -3   6   8  149.01    8.40
  -3   6   9  132.67    6.57
  -3   6  10   -2.68    4.67
  -3   6  11   -3.09    6.60
  -3   6  12   21.01    6.20
  -3   6  13   26.93    5.05
  -3   6  14   -1.41    5.50
  -3   6  15   64.06    9.69
  -3   6  16   10.43    6.75
  -3   6  17  106.49   11.03
  -3   6  18   48.91    9.31
  -3   7 -18   -5.75    7.46
  -3   7 -17   -4.94    5.49
  -3   7 -16    6.03    5.78
  -3   7 -15   27.55    8.86
  -3   7 -14   -3.26    6.09
  -3   7 -13   22.22    5.03
  -3   7 -12   -1.00    5.37
  -3   7 -11   35.25    6.77
  -3   7 -10   33.04    6.01
  -3   7  -9   72.90    5.27
  -3   7  -8    7.33    3.79
  -3   7  -7   15.54    3.65
  -3   7  -6    0.42    3.12
  -3   7  -5    1.27    2.41
  -3   7  -4   10.81    2.12
  -3   7  -3   50.25    3.54
  -3   7  -2    8.32    2.40
  -3   7  -1   37.83    4.09
  -3   7   0    1.00    2.85
  -3   7   1   47.43    3.10
  -3   7   2  120.64    7.56
  -3   7   3   71.69    3.41
  -3   7   4   47.93    2.96
  -3   7   5   22.79    1.93
  -3   7   6    8.74    2.52
  -3   7   7   47.60    4.26
  -3   7   8   31.68    4.15
  -3   7   9    4.07    3.50
  -3   7  10    7.78    4.51
  -3   7  11   30.88    5.94
  -3   7  12    3.09    4.51
  -3   7  13   24.17    5.84
  -3   7  14    9.02    5.06
  -3   7  15   27.92    8.04
  -3   7  16   -2.96    5.94
  -3   8 -15  -13.99    9.07
  -3   8 -14   16.88    5.75
  -3   8 -13    3.26    6.09
  -3   8 -12    0.83    5.47
  -3   8 -11   55.78    8.16
  -3   8 -10   10.12    7.18
  -3   8  -9   23.93    8.49
  -3   8  -8   -1.71    7.35
  -3   8  -7    3.38    4.50
  -3   8  -6   -6.77    4.94
  -3   8  -5   34.55    7.40
  -3   8  -4   36.82    5.05
  -3   8  -3   48.59    7.12
  -3   8  -2    0.00    1.41
  -3   8  -1   -0.42    2.98
  -3   8   0   31.54    3.86
  -3   8   1    4.51    3.54
  -3   8   2   -2.24    2.66
  -3   8   3    3.93    2.54
  -3   8   4    1.41    3.81
  -3   8   5    2.96    2.69
  -3   8   6   67.91    9.00
  -3   8   7   13.99    4.62
  -3   8   8    3.65    4.95
  -3   8   9  102.83   10.35
  -3   8  10    8.32    5.08
  -3   8  11  144.70   15.43
  -3   8  12   29.06    9.35
  -3   8  13   39.76    7.04
  -3   8  14   20.57    7.01
  -3   9 -12   22.79    6.46
  -3   9 -11   27.04    8.40
  -3   9 -10  -14.26    7.80
  -3   9  -9   18.78    7.11
  -3   9  -8    5.64    6.32
  -3   9  -7   48.42    8.09
  -3   9  -6   18.37    6.61
  -3   9  -5   13.55    8.57
  -3   9  -4    2.96    8.87
  -3   9  -3   60.49    7.94
  -3   9  -2   28.93    6.90
  -3   9  -1  228.14   14.71
  -3   9   0   14.09    8.19
  -3   9   1   69.29    9.49
  -3   9   2    8.60    5.78
  -3   9   3    5.75    8.43
  -3   9   4   12.69    6.18
  -3   9   5   -3.53    4.23
  -3   9   6   47.93    9.70
  -3   9   7    9.02    6.20
  -3   9   8   63.30    9.83
  -3   9   9    5.92    5.89
  -3   9  10  137.92   18.13
  -3   9  11   34.26    8.21
  -3  10  -7   -9.98    6.08
  -3  10  -6   22.22    5.82
  -3  10  -5   27.17    6.81
  -3  10  -4   -0.71    7.50
  -3  10  -3   -5.92    6.64
  -3  10  -2   12.03    6.50
  -3  10  -1   10.97    8.73
  -3  10   0    9.98    5.78
  -3  10   1   13.55    8.91
  -3  10   2   -0.28    5.10
  -3  10   3   42.96    7.01
  -3  10   4    0.83    6.44
  -3  10   6   45.66    8.35
  -2 -12  -9    3.93    6.32
  -2 -12  -8    9.98    4.79
  -2 -12  -7   10.81    4.53
  -2 -12  -6    2.81    4.09
  -2 -12  -5    4.37    4.22
  -2 -12  -4   52.30    5.84
  -2 -12  -3    1.83    5.08
  -2 -12  -2   17.08    4.91
  -2 -12  -1   15.64    4.79
  -2 -12   0    1.41    3.95
  -2 -12   1   27.30    5.09
  -2 -12   2   11.53    5.64
  -2 -12   3    0.14    4.57
  -2 -12   4   13.28    5.10
  -2 -12   5    0.00    1.41
  -2 -12   6    5.47    5.22
  -2 -12   7    0.14    4.43
  -2 -11 -13    7.33    4.50
  -2 -11 -12   14.81    3.93
  -2 -11 -11   40.96    6.68
  -2 -11 -10   25.47    4.91
  -2 -11  -9   30.63    6.18
  -2 -11  -8   54.37    5.78
  -2 -11  -7    5.47    4.78
  -2 -11  -6   10.81    3.20
  -2 -11  -5   52.64    4.99
  -2 -11  -4    5.20    5.36
  -2 -11  -3   58.84    5.29
  -2 -11  -2    2.68    3.38
  -2 -11  -1   31.02    4.10
  -2 -11   0    1.71    4.09
  -2 -11   1    8.60    4.39
  -2 -11   2   37.11    4.92
  -2 -11   3    7.08    4.10
  -2 -11   4   50.25    6.57
  -2 -11   5    0.71    3.96
  -2 -11   6   84.69    6.33
  -2 -11   7   12.10    5.37
  -2 -11   8   -1.71    5.25
  -2 -11   9   -2.96    4.50
  -2 -11  10   37.11    6.22
  -2 -11  11   -5.36    4.78
  -2 -11  12    1.27    8.60
  -2 -10 -16    2.38    3.53
  -2 -10 -15   23.70    5.20
  -2 -10 -14   13.64    5.09
  -2 -10 -13   57.57    6.49
  -2 -10 -12    2.38    3.53
  -2 -10 -11   16.78    3.40
  -2 -10 -10   17.77    3.71
  -2 -10  -9   43.12    5.15
  -2 -10  -8   82.95    6.06
  -2 -10  -7   10.12    3.40
  -2 -10  -6    3.65    3.81
  -2 -10  -5   19.83    4.12
  -2 -10  -4  147.28    7.49
  -2 -10  -3   19.83    4.65
  -2 -10  -2   17.47    3.67
  -2 -10  -1    3.09    3.67
  -2 -10   0   14.52    8.05
  -2 -10   1   -6.03    3.98
  -2 -10   2    8.19    3.95
  -2 -10   3  127.79    6.71
  -2 -10   4   74.93    4.72
  -2 -10   5  172.17    7.80
  -2 -10   6   72.29    6.26
  -2 -10   7   41.43    4.58
  -2 -10   8   98.31    6.60
  -2 -10   9   -2.81    4.22
  -2 -10  10   18.47    5.20
  -2 -10  11    6.46    5.61
  -2 -10  12    7.78    4.24
  -2 -10  13   -0.14    6.43
  -2 -10  14    9.46    5.63
  -2 -10  15   23.59    6.68
  -2  -9 -19   -4.07    5.37
  -2  -9 -18   59.21    8.95
  -2  -9 -17   -3.79    4.77
  -2  -9 -16   85.35    8.56
  -2  -9 -15   18.08    6.67
  -2  -9 -14   32.90    4.22
  -2  -9 -13   28.93    4.85
  -2  -9 -12    7.21    3.26
  -2  -9 -11   26.07    4.00
  -2  -9 -10    5.92    3.12
  -2  -9  -9   39.61    4.48
  -2  -9  -8    6.03    3.50
  -2  -9  -7   32.08    4.17
  -2  -9  -6   14.09    3.84
  -2  -9  -5   41.43    5.05
  -2  -9  -4  386.21   14.00
  -2  -9  -3    8.05    3.51
  -2  -9  -2    2.68    3.12
  -2  -9  -1   74.93    4.72
  -2  -9   0   56.50    4.99
  -2  -9   1   27.04    5.19
  -2  -9   2   49.42    3.17
  -2  -9   3   14.26    2.51
  -2  -9   4   85.79    4.84
  -2  -9   5  358.26   11.24
  -2  -9   6   49.92    2.68
  -2  -9   7   49.42    2.66
  -2  -9   8   -3.93    4.53
  -2  -9   9   38.86    4.89
  -2  -9  10   15.82    4.91
  -2  -9  11    2.81    6.32
  -2  -9  12   53.68    5.57
  -2  -9  13    9.46    4.82
  -2  -9  14    4.51    5.34
  -2  -9  15    3.79    4.62
  -2  -9  16    2.38    4.91
  -2  -9  17   51.10    6.27
  -2  -8 -20   72.69    8.50
  -2  -8 -19   42.03    6.47
  -2  -8 -18    6.77    4.07
  -2  -8 -17    5.75    6.78
  -2  -8 -16   32.49    5.95
  -2  -8 -15   64.44    7.05
  -2  -8 -14    2.10    3.51
  -2  -8 -13  194.01   11.58
  -2  -8 -12    6.33    3.41
  -2  -8 -11    4.22    3.21
  -2  -8 -10    1.71    3.26
  -2  -8  -9   -3.26    3.26
  -2  -8  -8  208.84    8.93
  -2  -8  -7  217.16    8.74
  -2  -8  -6   17.67    3.09
  -2  -8  -5  118.32    6.71
  -2  -8  -4  195.33    8.63
  -2  -8  -3   16.78    2.92
  -2  -8  -2   69.49    4.16
  -2  -8  -1   31.42    3.72
  -2  -8   0   15.64    3.29
  -2  -8   1    5.20    2.54
  -2  -8   2    7.78    1.25
  -2  -8   3  112.20    4.02
  -2  -8   4  126.45    4.54
  -2  -8   5   65.20    2.88
  -2  -8   6    4.07    2.83
  -2  -8   7  284.71    9.62
  -2  -8   8  323.63   13.68
  -2  -8   9  145.26    8.87
  -2  -8  10   75.55    5.78
  -2  -8  11   35.25    4.79
  -2  -8  12    0.00    1.41
  -2  -8  13    7.59    4.78
  -2  -8  14    9.46    5.92
  -2  -8  15  117.79    7.47
  -2  -8  16   18.18    5.67
  -2  -8  17    5.36    5.67
  -2  -8  18    1.11    5.05
  -2  -8  19   -7.78    5.10
  -2  -7 -22   12.86    6.22
  -2  -7 -21   20.57    5.39
  -2  -7 -20   15.07    5.53
  -2  -7 -19   63.68    6.63
  -2  -7 -18    3.79    5.92
  -2  -7 -17   -1.27    2.26
  -2  -7 -16   36.39    3.16
  -2  -7 -15   39.45    2.83
  -2  -7 -14   63.11    3.78
  -2  -7 -13   16.10    1.80
  -2  -7 -12   31.68    2.14
  -2  -7 -11   22.56    1.58
  -2  -7 -10   -4.37    3.53
  -2  -7  -9  166.91    7.05
  -2  -7  -8   71.28    3.61
  -2  -7  -7   21.01    2.28
  -2  -7  -6   55.43    3.00
  -2  -7  -5   68.30    3.34
  -2  -7  -4   25.83    2.65
  -2  -7  -3    5.92    2.14
  -2  -7  -2    6.46    1.99
  -2  -7  -1    2.24    2.66
  -2  -7   0    1.55    1.83
  -2  -7   1   79.74    2.76
  -2  -7   2    1.55    1.13
  -2  -7   3    8.19    1.57
  -2  -7   4    2.38    2.24
  -2  -7   5    7.08    2.85
  -2  -7   6  117.27    5.40
  -2  -7   7   16.78    4.67
  -2  -7   8   -7.21    4.20
  -2  -7   9    2.54    4.91
  -2  -7  10  188.10    9.45
  -2  -7  11    8.88    5.53
  -2  -7  12   52.47    5.33
  -2  -7  13  402.72   18.58
  -2  -7  14   21.88    4.33
  -2  -7  15    4.78    3.68
  -2  -7  16   13.11    5.25
  -2  -7  17   25.11    5.84
  -2  -7  18    0.83    4.50
  -2  -7  19   27.04    5.68
  -2  -7  20   -1.27    4.53
  -2  -6 -23    7.08    4.92
  -2  -6 -22    2.38    5.50
  -2  -6 -21   -2.10    4.92
  -2  -6 -20   48.91    4.48
  -2  -6 -19   -3.53    4.23
  -2  -6 -18   68.50    5.10
  -2  -6 -17   39.76    3.74
  -2  -6 -16  254.69   12.13
  -2  -6 -15  318.10   13.97
  -2  -6 -14    2.54    2.12
  -2  -6 -13   12.44    1.85
  -2  -6 -12  187.13    8.45
  -2  -6 -11  222.08    7.78
  -2  -6 -10   36.67    2.02
  -2  -6  -9  175.30    5.34
  -2  -6  -8   36.39    2.44
  -2  -6  -7    5.36    1.82
  -2  -6  -6  150.76    5.25
  -2  -6  -5   -1.11    1.83
  -2  -6  -4   69.49    3.17
  -2  -6  -3   -0.14    1.42
  -2  -6  -2   83.16    3.47
  -2  -6  -1 1024.87   21.29
  -2  -6   0  415.21    7.74
  -2  -6   1  565.14   10.73
  -2  -6   2    1.41    1.55
  -2  -6   3  105.02    4.13
  -2  -6   4   64.24    3.05
  -2  -6   5  288.75    9.28
  -2  -6   6   26.80    3.07
  -2  -6   7  223.86    8.18
  -2  -6   8   47.93    3.13
  -2  -6   9   46.46    3.89
  -2  -6  10   56.68    5.19
  -2  -6  11  152.21    7.91
  -2  -6  12  757.63   27.45
  -2  -6  13   55.78    5.15
  -2  -6  14   14.09    5.26
  -2  -6  15   19.83    4.65
  -2  -6  16   42.03    6.32
  -2  -6  17   -3.79    4.77
  -2  -6  18    7.46    4.94
  -2  -6  19   30.36    4.98
  -2  -6  20    4.37    4.91
  -2  -6  21    9.31    4.94
  -2  -5 -24   15.36    7.63
  -2  -5 -23    6.64    4.78
  -2  -5 -22   17.87    5.92
  -2  -5 -21   16.68    4.95
  -2  -5 -20   -2.68    4.09
  -2  -5 -19   15.82    4.91
  -2  -5 -18    3.38    3.67
  -2  -5 -17   -1.96    5.36
  -2  -5 -16  115.99   10.24
  -2  -5 -15   77.21    6.88
  -2  -5 -14    2.68    4.51
  -2  -5 -13  547.22   25.00
  -2  -5 -12   23.24    2.86
  -2  -5 -11    6.88    2.12
  -2  -5 -10   14.09    1.51
  -2  -5  -9   10.43    1.30
  -2  -5  -8   -0.83    0.85
  -2  -5  -7  281.92    7.18
  -2  -5  -6  297.28    9.42
  -2  -5  -5   29.84    1.95
  -2  -5  -4  123.80    3.44
  -2  -5  -3    9.17    1.58
  -2  -5  -2   52.30    2.06
  -2  -5  -1   38.42    1.47
  -2  -5   0   43.27    1.72
  -2  -5   1    3.38    1.14
  -2  -5   2   22.56    1.92
  -2  -5   3   56.15    2.50
  -2  -5   4   41.72    2.61
  -2  -5   5   -0.56    1.83
  -2  -5   6   42.96    2.81
  -2  -5   7   69.49    4.55
  -2  -5   8  985.71   26.10
  -2  -5   9  522.50   15.20
  -2  -5  10  190.38    7.21
  -2  -5  11   17.17    3.34
  -2  -5  12    0.42    3.68
  -2  -5  13   85.12    6.36
  -2  -5  14  821.01   38.79
  -2  -5  15   11.69    3.98
  -2  -5  16   -7.33    5.33
  -2  -5  17   18.89    5.78
  -2  -5  18    7.78    5.10
  -2  -5  19   18.08    4.85
  -2  -5  20  -11.45    7.08
  -2  -5  21  -12.03    8.90
  -2  -5  22    7.21    7.90
  -2  -4 -24   16.10    7.43
  -2  -4 -23   -4.67    3.38
  -2  -4 -22   20.57    5.17
  -2  -4 -21    6.22    4.50
  -2  -4 -20   20.57    5.60
  -2  -4 -19   -0.71    3.68
  -2  -4 -17   -1.55    3.37
  -2  -4 -16  115.74    8.69
  -2  -4 -15    0.14    3.71
  -2  -4 -14   -1.83    2.66
  -2  -4 -13  110.43    5.74
  -2  -4 -12  505.27   18.68
  -2  -4 -11 1074.11   35.80
  -2  -4 -10  891.87   26.24
  -2  -4  -9  389.01   11.72
  -2  -4  -8    0.71    2.26
  -2  -4  -7   85.79    3.07
  -2  -4  -6   56.15    3.03
  -2  -4  -5   10.28    0.45
  -2  -4  -4 1365.55   35.98
  -2  -4  -3   22.45    1.47
  -2  -4  -2    6.03    0.99
  -2  -4  -1  453.81    9.11
  -2  -4   0    2.54    1.40
  -2  -4   1 1172.80   22.77
  -2  -4   2  278.74    5.95
  -2  -4   3  256.22    7.60
  -2  -4   4   17.77    2.00
  -2  -4   5  231.39    5.78
  -2  -4   6   29.19    2.57
  -2  -4   7   92.06    4.33
  -2  -4   8   32.76    2.99
  -2  -4   9   -1.00    2.41
  -2  -4  10    3.93    2.40
  -2  -4  11    4.67    2.57
  -2  -4  12  140.44    6.19
  -2  -4  13   35.39    5.51
  -2  -4  14   68.30    5.50
  -2  -4  15    4.51    4.50
  -2  -4  16  258.50   12.22
  -2  -4  17    0.83    4.62
  -2  -4  18   53.85    7.32
  -2  -4  19   35.53    7.78
  -2  -4  20   33.85    8.70
  -2  -4  21   38.42    6.18
  -2  -4  22   60.31    8.67
  -2  -4  23   -6.64    6.06
  -2  -3 -25   26.31    8.16
  -2  -3 -24   16.50    6.36
  -2  -3 -23    7.46    4.94
  -2  -3 -22    8.32    5.63
  -2  -3 -21   17.08    4.81
  -2  -3 -20  101.87    5.99
  -2  -3 -19   -1.96    4.23
  -2  -3 -18  226.35   15.37
  -2  -3 -17   46.78    7.30
  -2  -3 -16   32.49    4.60
  -2  -3 -15   15.07    3.23
  -2  -3 -14  208.15    7.19
  -2  -3 -13   49.92    3.36
  -2  -3 -12  125.65    5.58
  -2  -3 -11  226.00    8.21
  -2  -3 -10  172.79    5.94
  -2  -3  -9   51.10    2.89
  -2  -3  -8   34.97    2.52
  -2  -3  -7  573.08   15.92
  -2  -3  -6   13.38    1.57
  -2  -3  -5   25.83    1.93
  -2  -3  -4   15.36    1.03
  -2  -3  -3  129.95    2.71
  -2  -3  -2  261.56    5.37
  -2  -3  -1   96.67    2.34
  -2  -3   0   61.60    1.86
  -2  -3   1  155.75    3.85
  -2  -3   2   24.87    1.54
  -2  -3   3 1384.94   33.59
  -2  -3   4 1534.60   36.28
  -2  -3   5  266.20    6.98
  -2  -3   6  280.72    7.16
  -2  -3   7    1.71    2.27
  -2  -3   8   10.81    1.95
  -2  -3   9    3.38    1.96
  -2  -3  10  336.58    9.15
  -2  -3  11   50.93    3.72
  -2  -3  12   -2.38    2.52
  -2  -3  13    6.03    2.27
  -2  -3  14  157.23    9.24
  -2  -3  15  323.63   12.39
  -2  -3  16   32.63    5.70
  -2  -3  17    8.88    4.24
  -2  -3  18   13.28    5.54
  -2  -3  19    3.93    5.09
  -2  -3  20   25.11    7.74
  -2  -3  21   32.35    5.81
  -2  -3  22   17.47    6.46
  -2  -3  23    8.05    8.49
  -2  -2 -25    9.31    4.64
  -2  -2 -24   -1.96    5.06
  -2  -2 -23  165.69   16.81
  -2  -2 -22   11.53    4.36
  -2  -2 -21   -3.79    5.92
  -2  -2 -20    7.92    3.81
  -2  -2 -19   -2.10    4.37
  -2  -2 -18   26.80    5.65
  -2  -2 -17   21.56    6.50
  -2  -2 -16   13.82    3.27
  -2  -2 -15   53.33    4.85
  -2  -2 -14  103.81    5.08
  -2  -2 -13    3.38    2.10
  -2  -2 -12   69.49    4.16
  -2  -2 -11  165.38    5.81
  -2  -2 -10    2.81    1.40
  -2  -2  -9  642.72   21.67
  -2  -2  -8  389.48   11.25
  -2  -2  -7  997.68   34.50
  -2  -2  -6   57.04    2.33
  -2  -2  -5  347.56   11.96
  -2  -2  -4  323.63    7.68
  -2  -2  -3  181.33    4.79
  -2  -2  -2  669.48   13.52
  -2  -2  -1  137.08    2.78
  -2  -2   0  594.88   11.01
  -2  -2   1  272.43    6.67
  -2  -2   2  447.26   11.05
  -2  -2   3  860.25   18.81
  -2  -2   4    3.93    1.69
  -2  -2   5   67.71    2.54
  -2  -2   6   17.87    2.00
  -2  -2   7    5.36    1.71
  -2  -2   8 1155.78   29.88
  -2  -2   9   71.28    3.00
  -2  -2  10  217.16    6.30
  -2  -2  11   18.89    2.37
  -2  -2  12  162.34    5.44
  -2  -2  13   47.43    3.10
  -2  -2  14  118.82    6.47
  -2  -2  15   90.69    7.01
  -2  -2  16    6.33    3.65
  -2  -2  17   37.99    7.61
  -2  -2  18   -8.60    4.53
  -2  -2  19   20.90    6.51
  -2  -2  20   32.49    6.63
  -2  -2  21    1.27    5.65
  -2  -2  22   -5.47    7.88
  -2  -2  23   -4.67    5.08
  -2  -2  24   81.87   11.60
  -2  -1 -25   10.59    5.49
  -2  -1 -23   -9.46    5.19
  -2  -1 -22   38.13    5.57
  -2  -1 -21   60.67    7.77
  -2  -1 -20    8.60    5.09
  -2  -1 -19   40.06    6.61
  -2  -1 -18  202.03   15.19
  -2  -1 -17   11.29    4.23
  -2  -1 -16   17.17    3.64
  -2  -1 -15   -1.41    2.26
  -2  -1 -14   59.57    3.48
  -2  -1 -13   -1.27    2.12
  -2  -1 -12  238.30    8.07
  -2  -1 -11   11.29    1.83
  -2  -1 -10   19.83    2.00
  -2  -1  -9   23.59    2.43
  -2  -1  -8    1.27    1.55
  -2  -1  -7  163.25    5.16
  -2  -1  -6  522.50   18.46
  -2  -1  -5  323.63   10.25
  -2  -1  -4   29.31    1.41
  -2  -1  -3 1026.39   30.43
  -2  -1  -2  498.90   13.25
  -2  -1  -1  681.22   35.96
  -2  -1   0   26.93    1.85
  -2  -1   1  694.30   19.40
  -2  -1   2  210.56    5.17
  -2  -1   3  423.48   11.73
  -2  -1   4   54.20    2.45
  -2  -1   5  491.50   12.11
  -2  -1   6  367.77   10.03
  -2  -1   7  499.42   13.27
  -2  -1   8   66.93    2.92
  -2  -1   9  532.87   13.16
  -2  -1  10   12.27    2.99
  -2  -1  11  283.12    9.19
  -2  -1  12    2.68    2.96
  -2  -1  13   14.81    3.10
  -2  -1  14   99.25    6.39
  -2  -1  15  188.10   10.74
  -2  -1  16   12.86    4.51
  -2  -1  17  269.30   16.77
  -2  -1  18    5.36    4.78
  -2  -1  19    8.46    5.94
  -2  -1  20    0.00    1.41
  -2  -1  21  179.09   17.79
  -2  -1  22   78.89   10.55
  -2  -1  23    2.81    8.87
  -2  -1  24   30.36    6.81
  -2   0 -25   18.89    8.15
  -2   0 -24    2.68    4.95
  -2   0 -23   -7.21    4.53
  -2   0 -22    1.41    6.77
  -2   0 -21   11.53    4.75
  -2   0 -20   -2.68    5.37
  -2   0 -19    4.07    6.03
  -2   0 -18   17.47    4.37
  -2   0 -17   31.02    5.02
  -2   0 -16  487.29   21.49
  -2   0 -15  100.68    4.77
  -2   0 -14   49.42    3.17
  -2   0 -13 1270.72   38.95
  -2   0 -12  154.27    5.02
  -2   0 -11  285.52    7.63
  -2   0 -10   77.64    3.14
  -2   0  -9   29.71    1.95
  -2   0  -8    2.10    1.55
  -2   0  -7  163.25    5.16
  -2   0  -6  481.54   14.07
  -2   0  -5  278.74    7.53
  -2   0  -4 1608.98   36.20
  -2   0  -2  753.06   16.30
  -2   0  -1 1605.17   37.11
  -2   0   0  240.13    5.89
  -2   0   1   29.06    1.03
  -2   0   2    1.71    0.99
  -2   0   3  278.74    6.74
  -2   0   4    9.90    1.57
  -2   0   5   10.59    2.00
  -2   0   6    0.00    1.41
  -2   0   7   20.47    2.26
  -2   0   8  512.77   15.59
  -2   0   9   -1.11    1.96
  -2   0  10 1050.11   33.09
  -2   0  11  243.09    8.88
  -2   0  12  107.22    4.92
  -2   0  13   92.74    4.57
  -2   0  14   60.31    3.88
  -2   0  15    9.60    5.67
  -2   0  16   45.66    5.30
  -2   0  17   -4.07    4.36
  -2   0  18   -3.38    4.24
  -2   0  19    4.94    6.49
  -2   0  20   15.54    4.96
  -2   0  21   55.26    8.83
  -2   0  22   63.68    9.66
  -2   0  23   59.76    9.55
  -2   0  24   -0.14    5.57
  -2   1 -25   -1.55    6.63
  -2   1 -24   18.08    5.95
  -2   1 -23   20.90    8.57
  -2   1 -22    3.26    5.10
  -2   1 -21   13.99    6.03
  -2   1 -20   12.94    5.39
  -2   1 -19   -0.71    4.53
  -2   1 -18   25.23    4.77
  -2   1 -17   18.99    5.39
  -2   1 -16   85.12    6.80
  -2   1 -15  103.55    5.56
  -2   1 -14    2.96    1.96
  -2   1 -13   -0.56    3.51
  -2   1 -12   94.81    3.69
  -2   1 -11    0.00    1.41
  -2   1 -10    5.20    1.95
  -2   1  -9   57.04    2.69
  -2   1  -8    2.54    1.55
  -2   1  -7   80.16    3.61
  -2   1  -6   20.47    1.93
  -2   1  -5 1416.93   32.18
  -2   1  -4 2499.16   55.80
  -2   1  -3  100.92    2.62
  -2   1  -2  292.38    5.27
  -2   1  -1 1016.52   21.21
  -2   1   0  605.93   12.86
  -2   1   1  313.04    7.56
  -2   1   2  344.02    8.38
  -2   1   3   52.30    2.23
  -2   1   4    0.71    1.57
  -2   1   5 1168.72   26.79
  -2   1   6  257.36    8.38
  -2   1   7   34.40    2.37
  -2   1   8  176.24    5.99
  -2   1   9  156.34    6.23
  -2   1  10    5.36    2.52
  -2   1  11   -2.10    2.68
  -2   1  12  305.53   11.21
  -2   1  13  330.51   12.96
  -2   1  14  117.27    5.65
  -2   1  15   22.00    4.34
  -2   1  16   24.41    6.46
  -2   1  17    1.41    4.37
  -2   1  18   30.75    6.06
  -2   1  19    8.19    5.91
  -2   1  20   24.41    8.33
  -2   1  21    8.60    6.20
  -2   1  22   11.14    7.61
  -2   1  23   -0.14    6.56
  -2   1  24   19.73    8.33
  -2   2 -24   10.97    6.37
  -2   2 -23   10.28    6.92
  -2   2 -22   88.89    7.84
  -2   2 -21    6.33    6.03
  -2   2 -20   67.91    8.42
  -2   2 -19   -0.42    4.53
  -2   2 -18   74.11    9.19
  -2   2 -17   73.51    7.53
  -2   2 -16   12.10    5.03
  -2   2 -15   91.60    6.82
  -2   2 -14  191.71    8.54
  -2   2 -13  117.27    5.40
  -2   2 -12   18.18    2.83
  -2   2 -11    0.28    1.85
  -2   2 -10   33.85    2.62
  -2   2  -9  101.64    3.60
  -2   2  -8   31.81    2.68
  -2   2  -7    6.88    1.99
  -2   2  -6   21.33    2.30
  -2   2  -5   96.43    3.50
  -2   2  -4   60.67    2.59
  -2   2  -3  119.09    2.85
  -2   2  -2  461.94    9.70
  -2   2  -1  134.32    3.30
  -2   2   0  139.03    3.92
  -2   2   1  149.01    4.64
  -2   2   2  279.13    6.74
  -2   2   3 1241.27   30.12
  -2   2   4   87.11    2.88
  -2   2   5   -0.83    1.82
  -2   2   6   20.04    1.59
  -2   2   7   90.69    3.85
  -2   2   8    1.55    2.26
  -2   2   9   23.24    3.09
  -2   2  10   19.83    2.86
  -2   2  11    2.10    2.37
  -2   2  12    1.11    3.09
  -2   2  13   45.01    3.99
  -2   2  14   46.46    5.67
  -2   2  15    8.32    4.12
  -2   2  16   14.35    5.30
  -2   2  17  747.21   43.50
  -2   2  18  139.03   11.76
  -2   2  19    9.60    5.96
  -2   2  20   94.12    9.67
  -2   2  21   -4.78    4.10
  -2   2  22   36.10    7.99
  -2   2  23   44.85    7.47
  -2   3 -24    3.65    6.03
  -2   3 -23   61.99    9.91
  -2   3 -21   39.76    6.90
  -2   3 -20   27.04    5.32
  -2   3 -19   -5.36    5.06
  -2   3 -18   12.52    5.05
  -2   3 -17   26.07    5.46
  -2   3 -16   94.59    8.77
  -2   3 -15   13.64    4.82
  -2   3 -14    2.96    4.09
  -2   3 -13   11.86    3.68
  -2   3 -12   40.67    3.03
  -2   3 -11  257.36    8.38
  -2   3 -10   27.66    3.00
  -2   3  -9 1023.35   28.12
  -2   3  -8   71.69    3.02
  -2   3  -7  142.98    4.82
  -2   3  -6   96.43    3.74
  -2   3  -5    5.09    1.99
  -2   3  -4   13.11    1.80
  -2   3  -3   63.48    2.27
  -2   3  -2  128.86    3.23
  -2   3  -1    1.00    1.42
  -2   3   0  490.44    9.46
  -2   3   1  100.44    2.86
  -2   3   2  293.20    6.91
  -2   3   3  186.80    4.86
  -2   3   4  127.52    3.75
  -2   3   5    1.41    1.41
  -2   3   6  233.56    6.18
  -2   3   7  141.00    4.51
  -2   3   8 1089.73   32.15
  -2   3   9   70.28    3.98
  -2   3  10   67.33    4.09
  -2   3  11    5.92    2.66
  -2   3  12  148.14    6.36
  -2   3  13   49.92    5.20
  -2   3  14  185.83   14.24
  -2   3  15  180.05   12.75
  -2   3  16   10.43    5.75
  -2   3  17    1.71    5.09
  -2   3  18   -1.55    4.65
  -2   3  19   -2.68    4.95
  -2   3  20   29.84    5.84
  -2   3  21   26.80    7.99
  -2   3  22    9.46    5.47
  -2   3  23   -0.56    5.33
  -2   4 -23    3.53    5.34
  -2   4 -22   10.97    6.61
  -2   4 -20   -1.27    7.91
  -2   4 -19    5.64    3.95
  -2   4 -18   24.17    5.95
  -2   4 -17    9.90    4.64
  -2   4 -16   -3.09    5.05
  -2   4 -15   14.81    5.75
  -2   4 -14   11.69    4.62
  -2   4 -13   32.35    5.13
  -2   4 -12   -1.55    4.09
  -2   4 -11   31.27    3.72
  -2   4 -10  140.44    6.19
  -2   4  -9  126.72    5.61
  -2   4  -8   19.61    2.52
  -2   4  -7  292.79    8.53
  -2   4  -6   30.88    2.37
  -2   4  -5  483.11   11.48
  -2   4  -4  249.42    6.37
  -2   4  -3   42.96    2.34
  -2   4  -2  496.25    9.52
  -2   4  -1    1.27    1.13
  -2   4   0  146.98    4.31
  -2   4   1    0.28    0.99
  -2   4   2   66.55    2.52
  -2   4   3  222.08    6.73
  -2   4   4  241.61    7.01
  -2   4   5  303.45    7.85
  -2   4   6    4.51    2.27
  -2   4   7  135.14    5.25
  -2   4   8   30.48    3.29
  -2   4   9    4.22    2.83
  -2   4  10   71.28    4.61
  -2   4  11   42.65    3.88
  -2   4  12  109.94    8.97
  -2   4  13  132.40    9.29
  -2   4  14   14.52    5.25
  -2   4  15   -0.14    4.99
  -2   4  16   26.93    7.02
  -2   4  17   34.55    6.42
  -2   4  18    7.78    4.96
  -2   4  19   18.47    5.20
  -2   4  20   25.70    6.02
  -2   4  21   11.14    5.95
  -2   4  22   -3.79    5.92
  -2   5 -22    5.09    6.37
  -2   5 -21   -2.96    6.50
  -2   5 -20    6.77    5.81
  -2   5 -19   19.61    5.68
  -2   5 -18    6.77    5.06
  -2   5 -17    9.46    5.92
  -2   5 -15   39.76    5.99
  -2   5 -14  153.98   13.25
  -2   5 -13  181.96   14.10
  -2   5 -12    3.65    5.50
  -2   5 -11    4.94    4.96
  -2   5 -10   -7.46    4.47
  -2   5  -9   62.92    4.33
  -2   5  -8   25.94    3.38
  -2   5  -7   83.16    4.33
  -2   5  -6   39.61    3.44
  -2   5  -5  103.31    3.86
  -2   5  -4  407.98   10.55
  -2   5  -3   14.26    2.16
  -2   5  -2  260.42    6.51
  -2   5  -1    1.96    0.71
  -2   5   0   88.66    3.58
  -2   5   1  110.43    3.50
  -2   5   2   14.99    1.28
  -2   5   3   76.59    3.12
  -2   5   4   56.32    2.85
  -2   5   5  111.94    4.02
  -2   5   6    3.53    1.96
  -2   5   7   43.58    3.45
  -2   5   8  137.37    5.57
  -2   5   9   18.58    3.79
  -2   5  10   69.68    6.54
  -2   5  11    0.42    4.67
  -2   5  12   64.06    6.84
  -2   5  13   22.67    5.09
  -2   5  14  102.83    7.71
  -2   5  15   48.74    8.46
  -2   5  16   -2.10    5.33
  -2   5  17   10.12    4.77
  -2   5  18    5.64    5.36
  -2   5  19    1.00    5.37
  -2   5  20    0.71    7.92
  -2   5  21   30.63   10.12
  -2   6 -21    2.81    8.31
  -2   6 -20   -3.38    8.62
  -2   6 -19   17.47    7.64
  -2   6 -18    6.77    6.05
  -2   6 -17   25.94    7.63
  -2   6 -16    2.54    5.94
  -2   6 -15   19.20    7.08
  -2   6 -14   12.86    7.32
  -2   6 -13   16.50    5.78
  -2   6 -12    9.76    5.64
  -2   6 -11  175.62    9.12
  -2   6 -10   22.67    4.53
  -2   6  -9   48.59    4.47
  -2   6  -8   -9.02    7.06
  -2   6  -7  180.05    7.01
  -2   6  -6  103.07    4.58
  -2   6  -5  211.94    7.26
  -2   6  -4  209.18    7.22
  -2   6  -3    2.54    2.27
  -2   6  -2   20.25    2.24
  -2   6  -1  233.91    6.18
  -2   6   0    4.78    0.73
  -2   6   1    2.10    1.82
  -2   6   2    2.10    1.55
  -2   6   3   79.53    2.96
  -2   6   4    3.26    1.72
  -2   6   5    3.79    2.41
  -2   6   6   29.44    3.36
  -2   6   7   -0.71    2.13
  -2   6   8    2.54    3.24
  -2   6   9    8.19    4.70
  -2   6  10    9.17    4.67
  -2   6  11   44.70    7.61
  -2   6  12   91.82    9.11
  -2   6  13   57.75    7.04
  -2   6  14   10.97    4.48
  -2   6  15   43.74    6.12
  -2   6  16    3.93    5.65
  -2   6  17   11.14    9.28
  -2   6  18   -2.10    5.06
  -2   6  19   25.70    7.11
  -2   7 -19   39.90    9.90
  -2   7 -18   48.59    7.95
  -2   7 -17   12.94    7.01
  -2   7 -16    1.83    5.92
  -2   7 -15    6.03    6.49
  -2   7 -14   18.99    6.51
  -2   7 -13    2.38    5.06
  -2   7 -12   -5.64    7.16
  -2   7 -11   12.69    7.36
  -2   7 -10   -1.41    7.61
  -2   7  -9   -0.42    3.54
  -2   7  -8   29.31    5.27
  -2   7  -7    1.83    3.95
  -2   7  -6   82.95    4.75
  -2   7  -5    6.22    2.96
  -2   7  -4    7.21    2.55
  -2   7  -3  178.45    6.66
  -2   7  -2   24.87    2.37
  -2   7  -1   39.90    3.45
  -2   7   0  201.01    9.09
  -2   7   1   17.37    3.07
  -2   7   2   19.83    3.29
  -2   7   3  322.35   10.24
  -2   7   4    1.41    1.97
  -2   7   5   27.92    2.26
  -2   7   6  149.59    6.97
  -2   7   7   40.67    3.48
  -2   7   8   23.59    3.92
  -2   7   9  129.68    9.46
  -2   7  10   -7.59    5.03
  -2   7  11   57.75    7.40
  -2   7  12   70.88    7.40
  -2   7  13    1.71    4.53
  -2   7  14   36.82    8.07
  -2   7  15    5.92    6.36
  -2   7  16   -5.75    5.08
  -2   7  17  162.34   18.16
  -2   7  18   18.18    9.11
  -2   8 -17    8.05   10.18
  -2   8 -16    1.00    7.08
  -2   8 -15   13.82    8.74
  -2   8 -14    7.78    6.63
  -2   8 -13   -0.28    7.23
  -2   8 -12   -3.79    5.64
  -2   8 -11    9.76    7.64
  -2   8 -10  -13.11    7.66
  -2   8  -9  266.58   19.39
  -2   8  -8   -0.71    7.64
  -2   8  -7   84.25    8.28
  -2   8  -6   -2.10    2.96
  -2   8  -5   12.03    2.96
  -2   8  -4   23.12    2.86
  -2   8  -3    8.32    2.40
  -2   8  -2   72.49    4.85
  -2   8  -1   52.81    4.65
  -2   8   0   12.10    2.65
  -2   8   1   73.51    4.89
  -2   8   2   67.71    4.50
  -2   8   3   39.76    2.69
  -2   8   4    1.11    1.83
  -2   8   5   -1.96    1.83
  -2   8   6   13.99    1.86
  -2   8   7   19.30    2.40
  -2   8   8  147.86   10.97
  -2   8   9   25.35    4.91
  -2   8  10    7.78    4.37
  -2   8  11   13.38    6.08
  -2   8  12   -6.77    4.82
  -2   8  13   49.25    9.67
  -2   8  14   20.57    8.08
  -2   8  15    4.94    5.80
  -2   8  16   -0.83    5.47
  -2   9 -14    9.17    7.47
  -2   9 -13   29.84    8.18
  -2   9 -12   -7.33    5.78
  -2   9 -11   41.27    7.32
  -2   9 -10   13.64    7.90
  -2   9  -9   -1.41    7.33
  -2   9  -8   -8.19    7.47
  -2   9  -7    1.11    8.84
  -2   9  -6   -2.68    7.36
  -2   9  -5    5.20    6.33
  -2   9  -4   85.35    9.00
  -2   9  -3    5.75    4.10
  -2   9  -2  153.68   11.18
  -2   9  -1  114.47    6.09
  -2   9   0   23.93    3.37
  -2   9   1   -0.42    2.83
  -2   9   2   14.26    4.94
  -2   9   3   15.64    5.64
  -2   9   4    8.46    4.77
  -2   9   5   48.91    5.98
  -2   9   6   13.99    7.46
  -2   9   7   33.04    6.42
  -2   9   8    9.98    7.05
  -2   9   9    4.51    4.64
  -2   9  10   10.59    7.50
  -2   9  11    1.83    6.20
  -2   9  12    1.71    5.53
  -2   9  13   -9.17    5.75
  -2  10 -10   -8.60    5.22
  -2  10  -9   -1.55    5.65
  -2  10  -8    2.96    6.91
  -2  10  -7   -2.54    5.22
  -2  10  -6    9.31    7.18
  -2  10  -5    9.98    5.78
  -2  10  -4   -1.55    5.77
  -2  10  -1   -0.42    5.10
  -2  10   0    3.65    5.63
  -2  10   1   -5.20    5.91
  -2  10   2    0.71    7.37
  -2  10   3   20.25    6.30
  -2  10   4   10.12    4.91
  -2  10   5   25.94    8.35
  -2  10   6   15.54    5.89
  -2  10   7   -0.28    5.26
  -2  10   8   29.19    7.44
  -2  10   9   19.61    9.88
  -2  11  -2   18.47    6.23
  -2  11  -1   32.35    8.23
  -2  11   0    5.75    6.03
  -2  11   1    3.53    5.49
  -2  11   2   -1.96    6.75
  -1 -12  -7    4.67    4.67
  -1 -12  -6   -1.11    4.62
  -1 -12  -5    3.93    4.24
  -1 -12  -4   55.26    5.65
  -1 -12  -3    3.53    4.23
  -1 -12  -2    1.71    5.80
  -1 -12  -1   53.33    5.56
  -1 -12   0   19.20    4.37
  -1 -12   1   50.42    6.08
  -1 -12   2   67.33    7.40
  -1 -12   3   28.68    5.22
  -1 -12   4    7.21    5.36
  -1 -12   5    7.08    4.68
  -1 -12   6    7.92    5.22
  -1 -11 -12   19.83    5.19
  -1 -11 -11   -0.28    3.55
  -1 -11 -10   33.71    4.55
  -1 -11  -9    6.46    5.37
  -1 -11  -8    6.46    4.34
  -1 -11  -7   37.11    4.48
  -1 -11  -6    1.71    4.09
  -1 -11  -5   11.45    4.10
  -1 -11  -4    5.47    3.50
  -1 -11  -3   44.53    6.18
  -1 -11  -2    1.96    4.23
  -1 -11  -1   30.88    5.54
  -1 -11   0  101.16    8.36
  -1 -11   1   88.00    6.68
  -1 -11   2    8.05    4.65
  -1 -11   3   -2.96    4.26
  -1 -11   4    4.22    5.91
  -1 -11   5   27.55    5.61
  -1 -11   6    4.67    5.39
  -1 -11   7   56.32    5.70
  -1 -11   8   21.45    5.61
  -1 -11   9   11.69    6.66
  -1 -11  10   26.31    6.58
  -1 -11  11   -4.51    4.79
  -1 -10 -15   21.67    4.64
  -1 -10 -14   33.16    4.65
  -1 -10 -13   -0.71    3.40
  -1 -10 -12    9.46    3.65
  -1 -10 -11    6.64    4.78
  -1 -10 -10    8.60    4.10
  -1 -10  -9   76.59    5.82
  -1 -10  -8   26.31    4.39
  -1 -10  -7   37.83    4.96
  -1 -10  -6   -2.81    3.38
  -1 -10  -5   -0.83    3.50
  -1 -10  -4   60.31    6.27
  -1 -10  -3    5.64    3.38
  -1 -10  -2   39.02    4.75
  -1 -10  -1    0.28    3.55
  -1 -10   0    7.78    4.96
  -1 -10   1   -4.22    3.67
  -1 -10   2   15.36    4.47
  -1 -10   3   77.21    5.84
  -1 -10   4   15.64    4.79
  -1 -10   5   57.39    4.31
  -1 -10   6   34.14    6.39
  -1 -10   7   39.31    5.95
  -1 -10   8   52.30    5.33
  -1 -10   9   52.99    5.36
  -1 -10  10    3.79    4.77
  -1 -10  11   10.59    5.49
  -1 -10  12   24.17    4.91
  -1 -10  13    3.65    5.09
  -1 -10  14    1.27    6.22
  -1  -9 -18    9.60    5.96
  -1  -9 -17   13.11    7.99
  -1  -9 -16   15.64    5.26
  -1  -9 -15   -1.55    4.23
  -1  -9 -14   39.90    5.10
  -1  -9 -13   39.90    4.65
  -1  -9 -12    0.00    1.41
  -1  -9 -11   26.31    3.41
  -1  -9 -10   12.52    4.37
  -1  -9  -9  167.22    8.91
  -1  -9  -8    7.59    3.54
  -1  -9  -7    3.93    3.68
  -1  -9  -6  260.04   12.25
  -1  -9  -5  178.45    7.61
  -1  -9  -4  204.74   10.19
  -1  -9  -3  111.18    6.51
  -1  -9  -2    3.26    3.38
  -1  -9  -1    5.47    3.67
  -1  -9   0   24.52    3.76
  -1  -9   1   39.61    3.74
  -1  -9   2   21.45    4.17
  -1  -9   3    1.27    3.10
  -1  -9   4   25.70    3.26
  -1  -9   5   25.83    3.26
  -1  -9   6    0.00    1.41
  -1  -9   7    9.76    3.12
  -1  -9   8   29.06    3.84
  -1  -9   9   12.44    3.51
  -1  -9  10   12.69    3.81
  -1  -9  11    0.71    4.67
  -1  -9  12   43.74    6.12
  -1  -9  13   15.64    5.26
  -1  -9  14   -0.14    5.13
  -1  -9  15   -0.56    6.61
  -1  -9  16  -10.43    4.91
  -1  -9  17   34.14    6.39
  -1  -8 -20   -1.41    4.94
  -1  -8 -19    6.03    5.60
  -1  -8 -18   44.37    7.12
  -1  -8 -17  162.34   16.95
  -1  -8 -16   66.74    8.53
  -1  -8 -15    8.46    4.91
  -1  -8 -14   28.43    7.73
  -1  -8 -13  121.43   11.00
  -1  -8 -12   36.10    6.99
  -1  -8 -11    8.60    3.13
  -1  -8 -10  101.16    6.44
  -1  -8  -9   74.93    5.13
  -1  -8  -8    1.96    3.67
  -1  -8  -7  134.87    6.06
  -1  -8  -6    2.96    3.10
  -1  -8  -5    7.08    3.54
  -1  -8  -4   -2.96    3.10
  -1  -8  -3  236.10    9.86
  -1  -8  -2   51.95    4.10
  -1  -8  -1  144.98    8.01
  -1  -8   0   -3.65    2.68
  -1  -8   1   73.51    5.29
  -1  -8   2   28.30    2.78
  -1  -8   3    6.33    2.93
  -1  -8   4   13.55    2.79
  -1  -8   5  572.50   18.19
  -1  -8   6   12.27    1.00
  -1  -8   7   12.69    3.38
  -1  -8   8    7.08    3.21
  -1  -8   9    7.78    5.77
  -1  -8  10  521.42   19.53
  -1  -8  11   45.18    6.22
  -1  -8  12   13.99    5.25
  -1  -8  13   38.13    5.57
  -1  -8  14    6.88    5.49
  -1  -8  15   -2.38    4.22
  -1  -8  16   45.33    5.92
  -1  -8  17   61.05    6.87
  -1  -8  18    3.93    6.46
  -1  -8  19   16.78    5.94
  -1  -7 -21   20.25    5.34
  -1  -7 -20   -1.83    5.08
  -1  -7 -19    7.08    7.08
  -1  -7 -18    5.36    4.78
  -1  -7 -17   86.22    9.49
  -1  -7 -16    6.22    2.26
  -1  -7 -15   13.28    2.51
  -1  -7 -14   11.14    1.97
  -1  -7 -13  109.45    5.71
  -1  -7 -12    6.22    1.24
  -1  -7 -11  139.59    6.74
  -1  -7 -10  106.49    5.15
  -1  -7  -9  339.20   11.82
  -1  -7  -8   14.81    3.38
  -1  -7  -7  270.87    9.00
  -1  -7  -6    9.60    2.58
  -1  -7  -5   60.67    3.33
  -1  -7  -4  173.73    5.95
  -1  -7  -3  184.86    6.46
  -1  -7  -2  113.71    4.30
  -1  -7  -1    6.22    2.43
  -1  -7   0    6.03    2.27
  -1  -7   1    1.96    1.54
  -1  -7   2    5.20    1.95
  -1  -7   3   34.00    2.50
  -1  -7   4    6.33    0.72
  -1  -7   5    9.02    2.28
  -1  -7   6   11.29    3.27
  -1  -7   7    2.10    4.06
  -1  -7   8    8.88    4.39
  -1  -7   9    1.71    4.37
  -1  -7  10   85.12    5.70
  -1  -7  11   19.73    5.06
  -1  -7  12  605.93   23.38
  -1  -7  13    2.38    4.51
  -1  -7  14   29.19    6.29
  -1  -7  15   60.86    6.12
  -1  -7  16   10.81    5.23
  -1  -7  17    9.90    4.48
  -1  -7  18   20.69    4.96
  -1  -7  19   22.56    5.08
  -1  -7  20   20.57    7.33
  -1  -6 -22   41.57    7.81
  -1  -6 -20    6.33    3.65
  -1  -6 -19    9.31    3.84
  -1  -6 -18   23.35    3.21
  -1  -6 -17   36.53    3.74
  -1  -6 -16   -0.28    2.13
  -1  -6 -15    6.22    1.83
  -1  -6 -14  110.19    5.74
  -1  -6 -13  306.36   13.30
  -1  -6 -12   71.69    4.02
  -1  -6 -11  474.79   17.08
  -1  -6 -10   -0.42    1.41
  -1  -6  -9  239.40    7.71
  -1  -6  -8   22.79    1.59
  -1  -6  -7   70.68    3.60
  -1  -6  -6  378.31   10.62
  -1  -6  -5  182.60    5.46
  -1  -6  -4   -0.56    2.24
  -1  -6  -3   53.51    3.30
  -1  -6  -2   35.11    3.38
  -1  -6  -1  185.18    5.17
  -1  -6   0 1477.46   35.60
  -1  -6   1  208.84    5.15
  -1  -6   2  255.84    5.32
  -1  -6   3   22.00    1.23
  -1  -6   4    7.92    2.54
  -1  -6   5   16.20    3.06
  -1  -6   6    0.28    2.98
  -1  -6   7  126.45    5.34
  -1  -6   8  135.14    5.25
  -1  -6   9    7.46    4.34
  -1  -6  10   10.43    4.75
  -1  -6  11   85.35    7.02
  -1  -6  12    4.37    4.51
  -1  -6  13  135.42    8.01
  -1  -6  14  463.99   20.97
  -1  -6  15   13.11    3.36
  -1  -6  16   20.15    4.48
  -1  -6  17   29.06    6.78
  -1  -6  18   -6.33    4.24
  -1  -6  19   24.63    4.95
  -1  -6  20    0.28    4.68
  -1  -6  21    6.03    4.91
  -1  -5 -23    0.42    3.98
  -1  -5 -22    2.96    3.23
  -1  -5 -21   45.01    4.15
  -1  -5 -20    4.67    2.66
  -1  -5 -19   -1.71    2.82
  -1  -5 -18  128.33    6.73
  -1  -5 -17   26.31    3.29
  -1  -5 -16   11.45    3.69
  -1  -5 -15   59.02    4.02
  -1  -5 -14    1.27    2.54
  -1  -5 -13   48.10    3.79
  -1  -5 -12  158.73    4.79
  -1  -5 -11   29.84    1.69
  -1  -5 -10   25.11    1.79
  -1  -5  -9  432.81   11.36
  -1  -5  -8   -1.11    0.97
  -1  -5  -7 1326.35   33.73
  -1  -5  -6   18.78    1.13
  -1  -5  -5  209.87    5.85
  -1  -5  -4    9.02    1.86
  -1  -5  -3  106.97    3.68
  -1  -5  -2   75.35    3.09
  -1  -5  -1  373.72    9.18
  -1  -5   0   60.49    2.40
  -1  -5   1   17.77    1.10
  -1  -5   2  169.99    3.41
  -1  -5   3   81.87    2.79
  -1  -5   4   27.92    2.76
  -1  -5   5  199.67    6.03
  -1  -5   6    1.96    2.52
  -1  -5   7   82.74    4.10
  -1  -5   8  114.47    4.82
  -1  -5   9   73.91    3.68
  -1  -5  10  185.83    7.77
  -1  -5  11   26.57    3.55
  -1  -5  12    9.02    4.22
  -1  -5  13    1.83    4.37
  -1  -5  14   35.53    4.53
  -1  -5  15  235.38   10.93
  -1  -5  16   10.28    6.32
  -1  -5  17    4.51    6.91
  -1  -5  18   19.30    4.27
  -1  -5  19    9.98    4.36
  -1  -5  20    7.33    6.75
  -1  -5  21   -1.55    5.36
  -1  -5  22    4.78    6.58
  -1  -4 -24   -2.10    5.47
  -1  -4 -23    8.74    5.61
  -1  -4 -22   11.29    5.19
  -1  -4 -20   10.28    6.32
  -1  -4 -19    0.71    6.78
  -1  -4 -18   -0.56    5.20
  -1  -4 -17   17.37    3.57
  -1  -4 -16   10.28    4.34
  -1  -4 -15  228.14   13.99
  -1  -4 -14   -2.68    3.65
  -1  -4 -13    9.90    2.83
  -1  -4 -12   40.36    3.31
  -1  -4 -11  209.87    7.91
  -1  -4 -10   65.00    2.50
  -1  -4  -9  470.15   11.84
  -1  -4  -8    6.33    1.44
  -1  -4  -7  114.47    3.55
  -1  -4  -6   57.04    1.97
  -1  -4  -5    3.65    2.41
  -1  -4  -4 1124.50   28.67
  -1  -4  -3    3.09    1.66
  -1  -4  -2  827.82   17.08
  -1  -4  -1   10.74    1.55
  -1  -4   0    7.46    0.85
  -1  -4   1   50.08    1.51
  -1  -4   2  263.49    5.40
  -1  -4   3   67.53    3.12
  -1  -4   4  202.37    5.74
  -1  -4   5  248.67    7.12
  -1  -4   6   -0.56    1.97
  -1  -4   7 1641.52   36.56
  -1  -4   8  300.56    7.83
  -1  -4   9  101.87    3.84
  -1  -4  10   86.22    4.19
  -1  -4  11   12.94    2.57
  -1  -4  12   19.40    3.14
  -1  -4  13   61.99    5.05
  -1  -4  14   61.60    5.22
  -1  -4  15   13.28    5.54
  -1  -4  16  162.34    7.26
  -1  -4  17  113.45    6.33
  -1  -4  18   18.18    5.26
  -1  -4  19   98.55   10.38
  -1  -4  20   71.28    8.62
  -1  -4  21    7.59    4.91
  -1  -4  22    3.65    9.31
  -1  -4  23   17.77    9.40
  -1  -3 -25   18.89    6.50
  -1  -3 -24   -2.54    5.22
  -1  -3 -23   36.82    4.89
  -1  -3 -22   12.86    6.90
  -1  -3 -21   -0.28    4.96
  -1  -3 -20   -3.26    3.95
  -1  -3 -19  139.88   11.24
  -1  -3 -18   21.45    5.39
  -1  -3 -17    0.28    3.69
  -1  -3 -16  101.64    9.33
  -1  -3 -15   16.40    4.53
  -1  -3 -14  148.14    5.78
  -1  -3 -13  130.48    5.70
  -1  -3 -12  298.50   11.08
  -1  -3 -11  450.77   15.13
  -1  -3 -10   75.35    4.33
  -1  -3  -9  242.71    8.88
  -1  -3  -8    6.22    1.83
  -1  -3  -7   -0.71    1.99
  -1  -3  -6   92.06    3.19
  -1  -3  -5 1284.30   34.04
  -1  -3  -4  148.14    4.05
  -1  -3  -3  963.48   29.48
  -1  -3  -2    8.60    1.40
  -1  -3  -1    5.36    1.16
  -1  -3   0  263.49    4.62
  -1  -3   1    4.22    1.57
  -1  -3   2  151.34    4.09
  -1  -3   3   12.44    2.68
  -1  -3   4  145.84    4.58
  -1  -3   5 2429.60   52.68
  -1  -3   6   18.58    2.14
  -1  -3   7  863.04   18.13
  -1  -3   8   14.62    2.00
  -1  -3   9   61.05    3.16
  -1  -3  10  194.01    5.63
  -1  -3  11    1.55    1.99
  -1  -3  12   50.59    3.05
  -1  -3  13  130.77    5.43
  -1  -3  14   11.29    2.40
  -1  -3  15   38.42    4.27
  -1  -3  16   15.36    5.95
  -1  -3  17   21.01    5.56
  -1  -3  18   26.93    5.92
  -1  -3  19  539.46   37.51
  -1  -3  20   -0.71    4.53
  -1  -3  21   13.28    7.36
  -1  -3  22   86.22   12.35
  -1  -3  23   17.17    5.81
  -1  -3  24   18.58    6.25
  -1  -2 -25   -6.33    5.63
  -1  -2 -24   23.82    6.26
  -1  -2 -23   10.28    6.63
  -1  -2 -22    5.36    4.68
  -1  -2 -21   88.23    8.70
  -1  -2 -20   49.42    8.69
  -1  -2 -19   57.75    4.88
  -1  -2 -18    1.11    4.50
  -1  -2 -17    2.10    4.06
  -1  -2 -16   14.81    5.39
  -1  -2 -15   61.60    5.60
  -1  -2 -14   36.82    3.45
  -1  -2 -13  137.37    5.57
  -1  -2 -12   16.10    2.38
  -1  -2 -11   41.88    2.76
  -1  -2 -10   22.00    2.79
  -1  -2  -9  127.26    4.55
  -1  -2  -8   25.70    2.28
  -1  -2  -7 3718.01  159.29
  -1  -2  -6   40.81    2.58
  -1  -2  -4 1267.34   34.66
  -1  -2  -3    6.03    1.28
  -1  -2  -2  271.26    5.87
  -1  -2  -1    9.98    0.83
  -1  -2   0  261.96    5.77
  -1  -2   1    8.74    1.13
  -1  -2   2 2526.54   64.47
  -1  -2   3 3460.52   82.43
  -1  -2   4 1178.49   32.61
  -1  -2   5    1.41    1.55
  -1  -2   6   27.17    1.97
  -1  -2   7    5.36    1.42
  -1  -2   8    4.78    1.71
  -1  -2   9  667.03   20.25
  -1  -2  10    1.11    1.83
  -1  -2  11    2.24    1.82
  -1  -2  12    3.38    2.27
  -1  -2  13    6.88    3.50
  -1  -2  14    4.51    2.68
  -1  -2  15   36.53    4.74
  -1  -2  16   80.16    6.16
  -1  -2  17  187.45   13.99
  -1  -2  18   12.69    5.67
  -1  -2  19   82.09    9.69
  -1  -2  20   41.43    7.49
  -1  -2  21   29.31    6.94
  -1  -2  22    3.09    5.47
  -1  -2  23    6.46    7.91
  -1  -2  24    7.78    6.50
  -1  -1 -25   -0.71    5.53
  -1  -1 -24   -4.94    5.64
  -1  -1 -23   77.64    9.83
  -1  -1 -22   18.99    7.77
  -1  -1 -21  113.45   12.65
  -1  -1 -20   12.69    5.92
  -1  -1 -19   81.02    8.54
  -1  -1 -18   38.72    4.58
  -1  -1 -17  119.60    8.57
  -1  -1 -16   -0.42    3.40
  -1  -1 -15   50.25    3.88
  -1  -1 -14   13.11    2.14
  -1  -1 -13  161.73    5.74
  -1  -1 -12  283.12    8.78
  -1  -1 -11   12.03    1.97
  -1  -1 -10   55.96    3.74
  -1  -1  -9  852.61   26.35
  -1  -1  -8  342.71   13.18
  -1  -1  -7  269.30   10.14
  -1  -1  -6  339.20    9.62
  -1  -1  -5   10.97    1.25
  -1  -1  -4  633.13   19.73
  -1  -1  -2   -0.83    0.41
  -1  -1  -1   -0.42    0.14
  -1  -1   0   -0.56    0.14
  -1  -1   1   -0.83    0.41
  -1  -1   3  207.12    5.47
  -1  -1   4  321.08    8.52
  -1  -1   5   33.57    2.06
  -1  -1   6  135.14    3.86
  -1  -1   7  139.03    4.48
  -1  -1   8  421.52   10.73
  -1  -1   9   59.39    2.75
  -1  -1  10  151.64    6.73
  -1  -1  11  151.64    5.26
  -1  -1  12  552.23   17.30
  -1  -1  13   71.08    5.40
  -1  -1  14   98.08    5.41
  -1  -1  15   -0.28    2.98
  -1  -1  16   26.20    4.26
  -1  -1  17   54.37    5.78
  -1  -1  18   -1.71    6.51
  -1  -1  19   53.16    6.92
  -1  -1  20   26.80    7.50
  -1  -1  21   -1.00    5.67
  -1  -1  22    1.96    6.46
  -1  -1  23    3.09    5.64
  -1  -1  24    4.37    7.19
  -1   0 -25   -7.46    7.06
  -1   0 -24    0.42    5.25
  -1   0 -23    8.19    5.78
  -1   0 -21   29.58    6.46
  -1   0 -20   18.08    5.65
  -1   0 -19   17.37    4.26
  -1   0 -18  100.20    7.37
  -1   0 -17    6.64    4.10
  -1   0 -16   16.50    3.76
  -1   0 -15   10.97    3.38
  -1   0 -14  270.09    8.59
  -1   0 -13   26.57    2.57
  -1   0 -12  388.55   10.29
  -1   0 -11   32.08    2.28
  -1   0 -10    2.24    2.24
  -1   0  -9  570.23   15.88
  -1   0  -8   24.87    1.66
  -1   0  -7   53.16    2.26
  -1   0  -6    1.71    1.55
  -1   0  -5   53.85    2.09
  -1   0  -4    4.67    0.97
  -1   0  -2    1.96    0.71
  -1   0  -1   -0.28    0.28
  -1   0   0   -0.14    0.28
  -1   0   1   -0.56    0.28
  -1   0   2  142.13    9.07
  -1   0   3  185.18    6.13
  -1   0   4   18.78    1.55
  -1   0   5 1649.23   54.98
  -1   0   6    5.92    1.96
  -1   0   7    4.51    2.12
  -1   0   8    4.67    2.00
  -1   0   9  138.48    4.75
  -1   0  10   83.60    3.91
  -1   0  11  202.71    6.09
  -1   0  12   19.73    3.69
  -1   0  13  207.12    8.88
  -1   0  14   53.33    3.47
  -1   0  15   -0.71    3.96
  -1   0  16   72.29    7.06
  -1   0  17  141.85    9.33
  -1   0  18    3.09    6.47
  -1   0  19   10.74    4.82
  -1   0  20    7.78    6.90
  -1   0  21   37.39    7.99
  -1   0  22   -8.19    4.96
  -1   0  23   96.67   12.38
  -1   0  24   16.78    6.51
  -1   1 -25   -2.96    6.05
  -1   1 -24   -2.10    5.74
  -1   1 -23   35.67    6.95
  -1   1 -22    6.22    5.51
  -1   1 -21   34.97    8.57
  -1   1 -20   44.85    8.11
  -1   1 -19   18.89    5.06
  -1   1 -18    0.28    4.24
  -1   1 -17   13.11    5.25
  -1   1 -16   17.87    4.12
  -1   1 -15    4.37    3.82
  -1   1 -14  240.13    8.46
  -1   1 -13   59.57    3.30
  -1   1 -12   96.67    3.50
  -1   1 -11  247.18    7.09
  -1   1 -10  117.54    4.89
  -1   1  -9  491.50   12.63
  -1   1  -8   56.32    2.85
  -1   1  -7   86.67    3.54
  -1   1  -6  195.67    4.98
  -1   1  -5   24.17    1.86
  -1   1  -4 3048.85   86.55
  -1   1  -3  485.71   11.52
  -1   1  -2   29.31    1.03
  -1   1  -1  139.88    3.93
  -1   1   0   33.85    1.24
  -1   1   1  412.79   10.14
  -1   1   2   20.47    1.18
  -1   1   3  177.51    4.43
  -1   1   4  847.06   26.96
  -1   1   5   41.43    2.90
  -1   1   6    2.81    1.83
  -1   1   7   59.21    3.29
  -1   1   8 1492.10   43.12
  -1   1   9   26.31    2.92
  -1   1  10  157.53    6.56
  -1   1  11    7.08    2.52
  -1   1  12  112.69    5.05
  -1   1  13    5.47    2.66
  -1   1  14  437.27   18.37
  -1   1  15    6.33    2.69
  -1   1  16   32.08    4.71
  -1   1  17   59.57    7.70
  -1   1  18   25.70    5.06
  -1   1  19  238.30   18.33
  -1   1  20    9.90    5.23
  -1   1  21   22.67    8.49
  -1   1  22   23.35    7.23
  -1   1  23    0.00    1.41
  -1   1  24   49.08    7.83
  -1   2 -24   25.35    7.29
  -1   2 -23    1.83    6.63
  -1   2 -22   18.18    5.77
  -1   2 -21    3.53    6.77
  -1   2 -20   28.81    7.01
  -1   2 -19  120.12    8.07
  -1   2 -18   28.30    5.81
  -1   2 -17   78.26    5.67
  -1   2 -16  186.48    9.73
  -1   2 -15    4.51    4.09
  -1   2 -14   71.28    4.22
  -1   2 -13  181.01    7.04
  -1   2 -12  146.42    6.03
  -1   2 -11  257.74    8.01
  -1   2 -10   -3.53    1.96
  -1   2  -9   21.12    1.96
  -1   2  -8  131.58    3.81
  -1   2  -7  418.12   10.69
  -1   2  -6 1628.08   40.24
  -1   2  -5  134.04    3.85
  -1   2  -4  411.35    9.15
  -1   2  -3  212.63    4.50
  -1   2  -2   35.25    1.41
  -1   2  -1   13.11    1.55
  -1   2   0    9.90    0.68
  -1   2   1 1661.80   37.76
  -1   2   2 9999.00  510.57
  -1   2   3   35.25    1.83
  -1   2   4 1040.14   28.34
  -1   2   5   97.14    3.05
  -1   2   6  115.23    3.82
  -1   2   7   22.45    2.82
  -1   2   8   38.42    2.95
  -1   2   9   38.42    2.50
  -1   2  10   33.71    2.76
  -1   2  11   15.92    2.93
  -1   2  12  258.50    8.78
  -1   2  13   49.25    3.50
  -1   2  14    7.78    3.38
  -1   2  15    3.93    3.53
  -1   2  16   62.35    6.94
  -1   2  17   14.09    5.88
  -1   2  18  332.23   25.97
  -1   2  19  110.69    9.49
  -1   2  20   36.10    6.13
  -1   2  21    6.46    5.37
  -1   2  22   40.67    6.97
  -1   2  23   -2.24    5.19
  -1   2  24  -15.26    8.45
  -1   3 -24   12.10    6.78
  -1   3 -23  -12.10    8.35
  -1   3 -22   -1.71    8.22
  -1   3 -21   33.16    8.88
  -1   3 -20   17.47    7.15
  -1   3 -19   13.99    7.46
  -1   3 -18   86.67    9.50
  -1   3 -17   27.04    5.32
  -1   3 -16    0.83    4.75
  -1   3 -15   27.79    4.39
  -1   3 -14  102.59    8.18
  -1   3 -13    4.07    2.54
  -1   3 -12   42.81    3.72
  -1   3 -11  105.99    4.89
  -1   3 -10   -4.37    2.54
  -1   3  -9  415.21   12.10
  -1   3  -8   22.22    2.58
  -1   3  -7  272.43    8.23
  -1   3  -6  100.44    4.29
  -1   3  -5   -2.38    1.97
  -1   3  -4   65.20    3.07
  -1   3  -3   38.56    2.21
  -1   3  -2  205.08    5.78
  -1   3  -1   41.43    1.99
  -1   3   0   92.29    2.51
  -1   3   1  402.72    9.05
  -1   3   2   33.16    1.51
  -1   3   3  846.37   17.96
  -1   3   4   86.01    2.86
  -1   3   5  470.15   10.29
  -1   3   6  253.95    6.05
  -1   3   7  397.49   17.05
  -1   3   8   23.24    2.98
  -1   3   9  455.84   13.18
  -1   3  10  190.06    7.21
  -1   3  11    5.20    2.82
  -1   3  12   45.49    3.85
  -1   3  13   37.11    3.47
  -1   3  14   92.74    5.71
  -1   3  15  148.14   11.84
  -1   3  16   50.08    6.73
  -1   3  17   23.35    5.40
  -1   3  18  -14.26   13.37
  -1   3  19    2.24    4.48
  -1   3  20   33.30    7.12
  -1   3  21   71.47   10.43
  -1   3  22   -6.64    7.46
  -1   3  23    6.03    6.19
  -1   4 -23  118.05   15.74
  -1   4 -22    5.64    5.92
  -1   4 -21   18.37    7.23
  -1   4 -20   32.76    6.80
  -1   4 -19   36.10    7.56
  -1   4 -18   85.79   10.12
  -1   4 -17   43.27    6.71
  -1   4 -16   11.86    6.37
  -1   4 -15   28.93    7.67
  -1   4 -14    3.93    4.39
  -1   4 -13    3.09    3.09
  -1   4 -12    3.79    2.54
  -1   4 -11   49.42    4.00
  -1   4 -10  114.47    4.82
  -1   4  -9  610.63   21.71
  -1   4  -8    5.09    2.14
  -1   4  -7   44.22    3.00
  -1   4  -6   34.97    2.81
  -1   4  -5   20.69    2.16
  -1   4  -4   50.08    2.69
  -1   4  -3  374.17    9.64
  -1   4  -2  135.97    4.43
  -1   4  -1  249.80    6.39
  -1   4   0  213.32    4.51
  -1   4   1    2.10    1.14
  -1   4   2   88.00    2.89
  -1   4   3    3.38    1.71
  -1   4   4  410.86   10.11
  -1   4   5  176.56    4.74
  -1   4   6  957.58   22.79
  -1   4   7   15.64    2.44
  -1   4   8  290.35    8.90
  -1   4   9   44.37    3.16
  -1   4  10   23.35    2.88
  -1   4  11    7.46    2.99
  -1   4  12   34.55    3.07
  -1   4  13  356.02   16.58
  -1   4  14  394.19   20.74
  -1   4  15   62.73    6.97
  -1   4  16   21.67    7.74
  -1   4  17   -4.94    6.22
  -1   4  18    0.00    1.41
  -1   4  19    6.03    4.39
  -1   4  20   -2.96    4.26
  -1   4  21    3.09    5.47
  -1   4  22    5.75    4.78
  -1   4  23   12.44    6.36
  -1   5 -22    5.36   16.38
  -1   5 -21   -3.79    5.23
  -1   5 -19   35.81    7.11
  -1   5 -18   37.25    8.40
  -1   5 -17    2.96    4.95
  -1   5 -16   -5.75    4.78
  -1   5 -15   10.81    6.33
  -1   5 -14    8.88    4.10
  -1   5 -13   26.80    5.05
  -1   5 -12   22.00    4.68
  -1   5 -11   17.47    5.95
  -1   5 -10   -4.22    3.51
  -1   5  -9    9.46    2.41
  -1   5  -8    6.77    2.54
  -1   5  -7   66.36    3.68
  -1   5  -6  136.53    4.72
  -1   5  -5  250.17    6.77
  -1   5  -4    3.53    2.10
  -1   5  -3  123.53    4.48
  -1   5  -2  731.71   18.63
  -1   5  -1    8.88    1.41
  -1   5   0   59.21    2.37
  -1   5   1   49.25    2.00
  -1   5   2  112.94    3.03
  -1   5   3  859.56   18.80
  -1   5   4  374.63    8.73
  -1   5   5  385.74    9.80
  -1   5   6   12.27    2.00
  -1   5   7   28.93    2.55
  -1   5   8   17.17    2.65
  -1   5   9  286.32   10.86
  -1   5  10  501.55   19.68
  -1   5  11  218.91    8.78
  -1   5  12    6.46    2.96
  -1   5  13   16.88    5.37
  -1   5  14    7.59    4.64
  -1   5  15  111.18    9.52
  -1   5  16   17.77    7.30
  -1   5  17   87.55   10.89
  -1   5  18   16.20    4.40
  -1   5  19    0.28    4.24
  -1   5  20   -5.47    4.78
  -1   5  21   62.73    9.22
  -1   5  22   29.84    8.18
  -1   6 -21    0.14    5.99
  -1   6 -20   37.83   10.96
  -1   6 -18   23.59    6.23
  -1   6 -17   25.23    7.76
  -1   6 -16   42.65    7.60
  -1   6 -15    5.75    7.87
  -1   6 -14   49.75    7.70
  -1   6 -13   46.78    6.50
  -1   6 -12   -1.96    6.90
  -1   6 -11  130.48   10.86
  -1   6 -10   29.58    5.16
  -1   6  -9   12.44    3.93
  -1   6  -8   44.70    3.65
  -1   6  -7   10.28    3.50
  -1   6  -6   75.35    4.33
  -1   6  -5  341.38   10.10
  -1   6  -4   32.35    2.71
  -1   6  -3  332.23    9.09
  -1   6  -2  308.43    8.35
  -1   6  -1   52.13    2.75
  -1   6   0  269.30    7.80
  -1   6   1  104.53    2.66
  -1   6   2   81.44    3.00
  -1   6   3  167.84    4.61
  -1   6   4   40.21    2.26
  -1   6   5   25.11    2.74
  -1   6   6   22.56    2.26
  -1   6   7  639.72   20.42
  -1   6   8  118.32    5.94
  -1   6   9  560.63   23.62
  -1   6  10  806.78   40.47
  -1   6  11   29.44    6.19
  -1   6  12  201.01   12.13
  -1   6  13   -3.53    7.04
  -1   6  14   41.43    7.18
  -1   6  15   21.88    7.78
  -1   6  16   -3.93    4.67
  -1   6  17   -4.94    5.37
  -1   6  18    0.42    6.37
  -1   6  19   16.68    5.63
  -1   6  20   -0.56    8.15
  -1   6  21   43.12    9.67
  -1   7 -20   23.59    7.39
  -1   7 -19    8.19    5.78
  -1   7 -18    8.88    7.08
  -1   7 -17   95.28   11.36
  -1   7 -16   -1.71    8.07
  -1   7 -15   15.64    5.26
  -1   7 -14    8.74    5.33
  -1   7 -13    8.05    7.49
  -1   7 -12   10.81    5.08
  -1   7 -11   41.43    5.50
  -1   7 -10   -1.83    5.20
  -1   7  -9    5.64    4.79
  -1   7  -8    2.81    3.65
  -1   7  -7   22.22    3.69
  -1   7  -6   14.35    3.78
  -1   7  -5   15.92    3.21
  -1   7  -4  114.47    4.57
  -1   7  -3    5.92    2.66
  -1   7  -2    2.81    1.66
  -1   7  -1   11.14    1.66
  -1   7   0    3.65    1.95
  -1   7   1    6.77    1.97
  -1   7   2   32.08    1.75
  -1   7   3    5.47    1.00
  -1   7   4   31.54    1.86
  -1   7   5   -1.27    1.42
  -1   7   6  142.98    6.25
  -1   7   7   39.90    3.45
  -1   7   8   62.73    8.09
  -1   7   9    9.46    5.33
  -1   7  10   44.85    5.25
  -1   7  11   19.30    4.70
  -1   7  12  123.27    9.49
  -1   7  13    8.05    4.78
  -1   7  14   19.73    4.96
  -1   7  15   60.86    8.71
  -1   7  16    6.46    5.91
  -1   7  17  -10.81    7.19
  -1   7  18   10.12    6.66
  -1   7  19   18.99    6.32
  -1   8 -18   63.48   10.03
  -1   8 -17   -7.33   10.42
  -1   8 -16   -0.42    6.23
  -1   8 -15   25.23    9.42
  -1   8 -14   44.70    8.73
  -1   8 -13   -6.22    5.09
  -1   8 -12   27.30    6.95
  -1   8 -11    8.60    6.90
  -1   8 -10    6.22    8.35
  -1   8  -9   79.74    8.70
  -1   8  -8   70.28   10.15
  -1   8  -7    8.19    4.70
  -1   8  -6    2.38    5.50
  -1   8  -5    2.81    3.10
  -1   8  -4   47.60    3.93
  -1   8  -3   -1.41    2.12
  -1   8  -2    0.28    1.99
  -1   8  -1   -1.96    2.40
  -1   8   0  252.42   10.56
  -1   8   1    0.42    2.83
  -1   8   2   73.51    4.48
  -1   8   3  352.89    9.81
  -1   8   4   43.91    2.20
  -1   8   5  208.84    5.84
  -1   8   6   67.33    3.51
  -1   8   7   51.61    3.24
  -1   8   8    4.94    4.79
  -1   8   9  121.16   10.46
  -1   8  10   15.64    5.36
  -1   8  11   53.51    8.52
  -1   8  12   36.82    6.19
  -1   8  13   20.90    5.98
  -1   8  14    0.56    4.78
  -1   8  15    2.81    4.94
  -1   8  16    5.47    5.78
  -1   8  17   18.99    9.11
  -1   9 -15    1.55    6.78
  -1   9 -14   16.50    9.17
  -1   9 -13   -7.08    5.37
  -1   9 -12   -3.65    5.22
  -1   9 -11   23.59    7.39
  -1   9 -10    4.67    5.49
  -1   9  -9  170.30   18.29
  -1   9  -8   13.38    7.21
  -1   9  -7   14.62    5.63
  -1   9  -6  119.87   10.14
  -1   9  -5   -8.60    5.78
  -1   9  -4    0.42    2.41
  -1   9  -3    6.77    2.96
  -1   9  -2    2.24    2.52
  -1   9  -1    2.81    3.93
  -1   9   0  159.63    9.60
  -1   9   1    4.67    2.57
  -1   9   2   42.19    3.85
  -1   9   3    2.10    1.96
  -1   9   4    8.05    5.39
  -1   9   5   13.82    4.23
  -1   9   6   23.12    3.65
  -1   9   7   40.96    4.26
  -1   9   8   17.08    2.95
  -1   9   9   -0.42    3.40
  -1   9  10   50.93    4.75
  -1   9  11   87.11   10.42
  -1   9  12   23.01    8.32
  -1   9  13   -2.38    5.36
  -1   9  14  118.57   13.18
  -1   9  15    7.59    6.47
  -1  10 -12   33.45    7.97
  -1  10 -11    5.75    6.78
  -1  10 -10   11.69    6.09
  -1  10  -9   38.42    9.57
  -1  10  -8   21.45    8.47
  -1  10  -7   41.72    9.36
  -1  10  -6   -9.76    9.35
  -1  10  -5    4.78    8.56
  -1  10  -4   14.81    4.94
  -1  10  -3   12.94    5.22
  -1  10  -2    0.28    4.96
  -1  10  -1    2.38    7.04
  -1  10   0   13.28    6.75
  -1  10   1   18.37    6.92
  -1  10   2    4.07    8.29
  -1  10   3    1.83    5.63
  -1  10   4   46.94    7.49
  -1  10   5   14.35    7.47
  -1  10   6   -4.07    4.79
  -1  10   7   30.63    6.84
  -1  10   8    4.94    6.06
  -1  10   9   -0.14    5.27
  -1  10  10   44.53   10.14
  -1  10  11  -10.81    7.19
  -1  10  12   17.08    7.16
  -1  11  -7   -3.93    6.60
  -1  11  -6    5.75    5.36
  -1  11  -5   -0.71    6.09
  -1  11  -4   -5.47    6.61
  -1  11  -3  -10.74    5.68
  -1  11  -2   70.08   10.94
  -1  11  -1   14.26    5.92
  -1  11   0   14.81    7.77
  -1  11   1   15.82    7.18
  -1  11   2   25.23    6.80
  -1  11   3   35.39   10.45
  -1  11   4   27.30    7.57
  -1  11   5   13.28    5.19
  -1  11   6    3.93    8.57
  -1  11   7   92.74   12.58
   0 -12  -2    0.83    5.19
   0 -12  -1    8.88    4.95
   0 -12   0    2.54    4.39
   0 -12   1    5.36    4.68
   0 -12   2   36.10    7.70
   0 -11 -10    2.96    4.95
   0 -11  -9   18.89    4.54
   0 -11  -8   -7.92    5.08
   0 -11  -7   15.82    4.06
   0 -11  -6    3.79    4.62
   0 -11  -5    1.27    4.23
   0 -11  -4   21.12    4.91
   0 -11  -3   -2.81    3.65
   0 -11  -2   47.43    4.74
   0 -11  -1   47.11    5.22
   0 -11   0    8.88    4.67
   0 -11   1   13.64    5.53
   0 -11   2   27.30    5.09
   0 -11   3    3.38    3.93
   0 -11   4    1.55    4.95
   0 -11   5   31.81    4.96
   0 -11   6    7.59    5.36
   0 -11   7    1.41    3.95
   0 -11   8   17.17    4.62
   0 -11   9   11.45    4.91
   0 -11  10    4.94    4.37
   0 -10 -14    5.92    5.67
   0 -10 -13   23.24    5.50
   0 -10 -12    4.22    4.34
   0 -10 -11   30.48    5.12
   0 -10 -10    4.37    3.82
   0 -10  -9    3.65    4.50
   0 -10  -8    0.71    4.10
   0 -10  -7   11.86    4.09
   0 -10  -6   16.78    4.39
   0 -10  -5   16.88    4.48
   0 -10  -4    1.27    5.23
   0 -10  -3   34.83    5.47
   0 -10  -2  177.18    9.17
   0 -10  -1    6.46    4.23
   0 -10   0   31.81    5.09
   0 -10   1   -2.24    4.48
   0 -10   2   10.43    4.53
   0 -10   3    9.90    4.94
   0 -10   4    3.53    4.23
   0 -10   5   14.26    3.68
   0 -10   6    9.02    3.78
   0 -10   7   27.04    4.82
   0 -10   8   60.86    6.85
   0 -10   9   78.05    7.13
   0 -10  10   13.99    5.51
   0 -10  11   31.68    6.42
   0 -10  12   29.71    5.17
   0 -10  13    4.37    5.65
   0  -9 -16    4.51    5.50
   0  -9 -15    0.56    4.22
   0  -9 -14  105.75    8.07
   0  -9 -13    2.81    4.22
   0  -9 -12   -6.33    4.06
   0  -9 -11   23.35    4.24
   0  -9 -10    4.07    3.93
   0  -9  -9   77.83    5.65
   0  -9  -8   10.43    3.07
   0  -9  -7   16.20    3.92
   0  -9  -6   37.25    3.92
   0  -9  -5   23.12    5.26
   0  -9  -4   60.49    4.43
   0  -9  -3  248.67   12.73
   0  -9  -2   -1.71    4.24
   0  -9  -1   81.02    4.92
   0  -9   0   13.11    4.82
   0  -9   1   -1.27    3.24
   0  -9   2   -6.33    4.78
   0  -9   3   24.99    4.62
   0  -9   4    1.41    3.67
   0  -9   5    1.83    2.26
   0  -9   6    3.38    2.83
   0  -9   7    7.92    2.81
   0  -9   8   79.31    4.86
   0  -9   9   82.52    4.75
   0  -9  10    4.22    4.48
   0  -9  11   48.25    6.11
   0  -9  12    6.77    4.94
   0  -9  13   17.17    4.82
   0  -9  14    1.00    5.23
   0  -9  15   20.69    5.19
   0  -9  16   14.62    5.44
   0  -8 -19   11.53    7.91
   0  -8 -18   16.68    6.50
   0  -8 -17   -2.96    4.95
   0  -8 -16    1.83    4.67
   0  -8 -15    1.11    6.02
   0  -8 -14   39.16    6.25
   0  -8 -13    8.05    7.49
   0  -8 -12   50.93    2.88
   0  -8 -11    2.96    3.10
   0  -8 -10   51.10    4.07
   0  -8  -9    4.51    3.23
   0  -8  -8   50.25    4.54
   0  -8  -7  247.18   10.08
   0  -8  -6   34.97    4.50
   0  -8  -5    2.68    3.54
   0  -8  -4  256.22    9.50
   0  -8  -3   40.21    3.16
   0  -8  -2   54.37    4.39
   0  -8  -1   58.66    4.72
   0  -8   0  204.06    8.83
   0  -8   1   20.90    3.91
   0  -8   2  141.29    5.64
   0  -8   3   -4.94    4.54
   0  -8   4    2.38    2.13
   0  -8   5  151.04    5.84
   0  -8   6   65.00    4.60
   0  -8   7    4.37    2.68
   0  -8   8  131.30    5.99
   0  -8   9   -0.28    0.85
   0  -8  10  127.79    7.25
   0  -8  11    5.64    5.75
   0  -8  12    0.00    1.41
   0  -8  13    7.59    4.78
   0  -8  14   48.10    5.43
   0  -8  15    3.79    5.50
   0  -8  16   12.52    4.79
   0  -8  17   13.64    4.82
   0  -8  18    2.68    4.67
   0  -7 -20    4.67    6.20
   0  -7 -19   85.79   11.22
   0  -7 -18   43.27    9.38
   0  -7 -17    7.92    5.49
   0  -7 -16    5.92    2.66
   0  -7 -15    7.21    2.68
   0  -7 -14   43.74    3.45
   0  -7 -13    6.77    2.65
   0  -7 -12  128.06    5.91
   0  -7 -11   64.24    3.05
   0  -7 -10   14.09    1.69
   0  -7  -9   10.81    3.36
   0  -7  -8  567.40   22.07
   0  -7  -7   52.13    4.12
   0  -7  -6    6.77    3.09
   0  -7  -5   36.82    4.17
   0  -7  -4   -0.56    3.92
   0  -7  -3   68.30    3.72
   0  -7  -2   58.84    3.82
   0  -7  -1    3.26    2.40
   0  -7   0   22.56    2.93
   0  -7   1    6.46    3.07
   0  -7   2    1.00    2.96
   0  -7   3    2.10    2.10
   0  -7   4   59.39    3.48
   0  -7   5   84.25    4.15
   0  -7   6    2.68    2.41
   0  -7   7   20.57    1.40
   0  -7   8   27.04    4.94
   0  -7   9   -0.42    4.24
   0  -7  10   10.59    4.48
   0  -7  11   36.96    4.33
   0  -7  12   -6.33    5.50
   0  -7  13   35.11    5.06
   0  -7  14   92.29    5.94
   0  -7  15    3.65    4.95
   0  -7  16   22.11    5.02
   0  -7  17   -7.59    3.92
   0  -7  18    6.88    4.79
   0  -7  19   -1.00    6.66
   0  -7  20   11.14    5.47
   0  -6 -22    0.56    8.01
   0  -6 -21   -3.09    5.75
   0  -6 -20   14.62    3.00
   0  -6 -19   11.14    3.24
   0  -6 -18   43.43    4.39
   0  -6 -17   -1.55    2.96
   0  -6 -16  139.59    8.42
   0  -6 -15    0.14    3.71
   0  -6 -14   40.36    4.68
   0  -6 -13   71.47    4.41
   0  -6 -12   28.30    2.52
   0  -6 -11   40.36    3.02
   0  -6 -10   19.30    2.30
   0  -6  -9   13.11    2.14
   0  -6  -8   11.14    1.66
   0  -6  -7    2.81    1.40
   0  -6  -6    0.00    1.41
   0  -6  -5   17.47    2.68
   0  -6  -4  755.67   18.94
   0  -6  -3  125.65    5.33
   0  -6  -2   -1.00    1.99
   0  -6  -1    3.09    2.13
   0  -6   0    0.83    2.24
   0  -6   1    1.41    2.82
   0  -6   2  775.38   15.88
   0  -6   3  229.22    5.03
   0  -6   4  190.72    4.92
   0  -6   5   18.58    0.82
   0  -6   6    2.24    3.09
   0  -6   7   23.82    2.66
   0  -6   8    6.22    2.96
   0  -6   9   23.82    4.40
   0  -6  10   88.89    5.60
   0  -6  11    1.27    4.37
   0  -6  12   19.20    4.06
   0  -6  13   48.74    5.30
   0  -6  14   67.13    6.81
   0  -6  15  123.01    8.16
   0  -6  16   77.00    6.88
   0  -6  17    8.46    4.62
   0  -6  18   51.95    5.13
   0  -6  19   18.18    5.06
   0  -6  20    2.54    6.91
   0  -6  21   21.01    9.91
   0  -5 -23  106.97    8.11
   0  -5 -22   15.36    3.36
   0  -5 -21    2.38    3.23
   0  -5 -20    0.00    1.41
   0  -5 -19    7.92    2.54
   0  -5 -18   26.80    3.44
   0  -5 -17  204.74   10.53
   0  -5 -16   35.53    3.12
   0  -5 -15    8.60    2.79
   0  -5 -14  181.96    7.37
   0  -5 -13   95.97    4.88
   0  -5 -12  485.71   17.79
   0  -5 -11   61.42    3.91
   0  -5 -10  134.04    4.95
   0  -5  -9   76.17    3.31
   0  -5  -8    2.38    1.54
   0  -5  -7   -1.41    1.27
   0  -5  -6  242.71    7.04
   0  -5  -5   36.67    1.58
   0  -5  -4  125.65    3.72
   0  -5  -3   19.40    2.30
   0  -5  -2  211.59    5.87
   0  -5  -1   86.67    3.54
   0  -5   0  457.87   10.67
   0  -5   1    3.09    1.25
   0  -5   2  423.48    8.80
   0  -5   3   65.40    2.50
   0  -5   4    2.68    2.10
   0  -5   5   25.11    2.74
   0  -5   6  135.97    4.99
   0  -5   7   33.85    3.17
   0  -5   8   20.15    3.09
   0  -5   9  117.54    5.40
   0  -5  10  146.70    6.03
   0  -5  11   55.61    4.07
   0  -5  12   10.28    4.12
   0  -5  13    2.81    3.93
   0  -5  14    4.22    4.10
   0  -5  15   12.27    3.24
   0  -5  16   55.61    4.96
   0  -5  17  340.51   15.34
   0  -5  18    0.71    5.10
   0  -5  19   19.61    6.63
   0  -5  20    3.26    6.22
   0  -5  21   28.93    7.80
   0  -5  22    1.55    4.79
   0  -4 -23   20.47    4.09
   0  -4 -22   19.30    4.39
   0  -4 -21    7.33    4.62
   0  -4 -20    5.36    3.53
   0  -4 -19   -0.28    2.98
   0  -4 -18    6.22    3.07
   0  -4 -17   -1.27    2.98
   0  -4 -16   41.12    3.50
   0  -4 -15   54.91    4.23
   0  -4 -14   81.87    4.09
   0  -4 -13   12.10    3.23
   0  -4 -12  296.46    8.59
   0  -4 -11    0.00    1.41
   0  -4 -10   64.24    2.86
   0  -4  -9 1229.58   28.31
   0  -4  -8  656.65   17.65
   0  -4  -7 1297.96   30.80
   0  -4  -6  512.77   11.83
   0  -4  -5  102.83    2.89
   0  -4  -4   74.52    2.45
   0  -4  -3  214.72    5.92
   0  -4  -2  560.63   12.93
   0  -4  -1  864.44   19.56
   0  -4   0   48.25    2.47
   0  -4   1    2.10    1.41
   0  -4   2  362.32    7.68
   0  -4   3  256.60    6.47
   0  -4   4  314.30    7.99
   0  -4   5  221.73    6.36
   0  -4   6  126.72    5.34
   0  -4   7   75.97    3.31
   0  -4   8  112.44    4.29
   0  -4   9  773.40   20.47
   0  -4  10   50.76    2.88
   0  -4  11  173.73    6.26
   0  -4  12    4.07    2.83
   0  -4  13   -1.41    3.24
   0  -4  14  164.47    7.30
   0  -4  15   40.67    4.09
   0  -4  16    2.81    3.65
   0  -4  17  108.94    7.43
   0  -4  18   -5.09    4.50
   0  -4  19   37.25    6.37
   0  -4  20   -3.93    5.37
   0  -4  21   61.79    8.22
   0  -4  22   27.79    5.75
   0  -4  23    4.07    5.89
   0  -3 -24   34.00    4.29
   0  -3 -23    4.51    3.38
   0  -3 -22   41.72    7.36
   0  -3 -21   54.72    7.37
   0  -3 -19   31.15    5.43
   0  -3 -18    7.78    3.51
   0  -3 -17    0.71    4.39
   0  -3 -16  335.28   19.13
   0  -3 -15   55.96    4.98
   0  -3 -14    3.09    3.79
   0  -3 -13   31.81    3.36
   0  -3 -12    2.81    2.10
   0  -3 -11   19.40    2.51
   0  -3 -10  182.29    5.13
   0  -3  -9  353.79    8.94
   0  -3  -8  121.95    3.14
   0  -3  -7    0.14    1.57
   0  -3  -6  906.83   22.88
   0  -3  -5 1517.90   33.30
   0  -3  -4 1258.89   28.65
   0  -3  -3 1020.31   22.00
   0  -3  -2 1666.63   36.84
   0  -3  -1   18.37    3.16
   0  -3   0 1055.51   21.60
   0  -3   1  231.74    5.06
   0  -3   2  207.81    5.47
   0  -3   3   91.37    3.41
   0  -3   4  176.24    5.05
   0  -3   5  782.67   17.27
   0  -3   6  263.11    7.32
   0  -3   7    9.60    1.99
   0  -3   8   85.35    3.51
   0  -3   9   13.38    2.52
   0  -3  10   16.40    2.21
   0  -3  11    3.38    2.41
   0  -3  12   26.68    2.82
   0  -3  13   16.78    2.14
   0  -3  14   48.91    3.65
   0  -3  15    4.07    6.33
   0  -3  16   72.08    6.66
   0  -3  17  137.63    9.76
   0  -3  18   21.33    5.92
   0  -3  19  143.84   11.11
   0  -3  20    0.83    5.60
   0  -3  21   54.03    8.02
   0  -3  22   -2.10    8.29
   0  -3  23   33.04    8.87
   0  -3  24   10.97    6.61
   0  -2 -25   18.89   10.32
   0  -2 -24   -3.65    5.22
   0  -2 -23   24.52    5.77
   0  -2 -22   -3.26    3.26
   0  -2 -21   11.69    7.30
   0  -2 -20  212.97   14.90
   0  -2 -19   48.25    6.77
   0  -2 -18  134.87   10.76
   0  -2 -17  156.05   10.38
   0  -2 -16   -5.20    3.68
   0  -2 -15   -6.77    5.92
   0  -2 -14   99.49    7.11
   0  -2 -13   53.85    3.31
   0  -2 -12   16.40    3.55
   0  -2 -11   48.42    3.14
   0  -2 -10   21.67    2.65
   0  -2  -9   27.55    2.24
   0  -2  -8    7.59    1.83
   0  -2  -7  851.21   22.17
   0  -2  -6   13.28    2.86
   0  -2  -5   41.27    1.52
   0  -2  -3  810.15   18.92
   0  -2  -2  119.35    3.12
   0  -2  -1    7.46    0.85
   0  -2   0  277.16    5.54
   0  -2   1  399.39    9.97
   0  -2   2  403.68    9.55
   0  -2   3   80.58    2.78
   0  -2   4 3513.82  111.21
   0  -2   5 3388.25   81.56
   0  -2   6  462.96   12.27
   0  -2   7  147.56    4.61
   0  -2   8   33.45    2.75
   0  -2   9   25.47    2.64
   0  -2  10   13.28    1.82
   0  -2  11  220.32    6.35
   0  -2  12  167.22    5.84
   0  -2  13    2.54    3.24
   0  -2  14   25.35    3.95
   0  -2  15   31.81    4.15
   0  -2  16   27.17    5.44
   0  -2  17   22.00    5.91
   0  -2  18   -5.09    3.37
   0  -2  19   19.73    5.58
   0  -2  20   23.35    5.74
   0  -2  21  107.95   12.34
   0  -2  22   -3.09    5.34
   0  -2  23   16.68    6.50
   0  -2  24   15.92    9.00
   0  -1 -25   57.22   11.49
   0  -1 -24   23.59    6.81
   0  -1 -23    1.27    7.63
   0  -1 -22    1.83    5.63
   0  -1 -21    9.02    4.64
   0  -1 -20    5.75    5.64
   0  -1 -19   73.10    8.94
   0  -1 -18   43.91    3.78
   0  -1 -17  130.22    9.49
   0  -1 -16    0.00    1.41
   0  -1 -15   12.03    2.23
   0  -1 -14  265.42    9.29
   0  -1 -13  207.12    7.18
   0  -1 -12    3.79    2.68
   0  -1 -11   29.31    2.96
   0  -1 -10   96.67    4.44
   0  -1  -9  780.02   33.83
   0  -1  -8  181.33    6.08
   0  -1  -7  688.05   22.42
   0  -1  -6  119.87    4.16
   0  -1  -5   66.16    2.90
   0  -1  -4  320.22    8.93
   0  -1  -3   40.96    1.82
   0  -1  -2    0.28    0.56
   0  -1  -1   -0.14    0.28
   0  -1   0   -0.14    0.28
   0  -1   2    0.56    0.83
   0  -1   3  138.48    3.91
   0  -1   4  824.40   21.14
   0  -1   5    3.79    1.38
   0  -1   6  269.70    7.02
   0  -1   7  200.68    5.39
   0  -1   8   23.70    2.31
   0  -1   9   11.45    2.81
   0  -1  10  302.62    8.67
   0  -1  11   31.42    3.06
   0  -1  12  806.78   24.28
   0  -1  13    1.83    2.96
   0  -1  14    7.59    3.07
   0  -1  15   23.59    3.69
   0  -1  16   -0.42    2.83
   0  -1  17   31.81    5.77
   0  -1  18  188.75   12.39
   0  -1  19   55.61    6.20
   0  -1  20    9.02    4.50
   0  -1  21    2.96    5.53
   0  -1  22   -3.38    5.95
   0  -1  23   15.07    7.47
   0  -1  24   -2.54    5.49
   0  -1  25   21.45    7.37
   0   0 -25   -1.96    5.89
   0   0 -24   30.88    8.71
   0   0 -23   16.78    5.64
   0   0 -22   34.97    8.43
   0   0 -21   17.37    6.23
   0   0 -20   -1.27    4.94
   0   0 -19   -0.56    4.22
   0   0 -18   13.38    3.82
   0   0 -17    3.65    4.09
   0   0 -16    1.55    3.93
   0   0 -15   47.26    3.43
   0   0 -14  341.82   10.97
   0   0 -13  299.32    9.04
   0   0 -12  167.84    4.30
   0   0 -11   23.35    1.95
   0   0 -10   85.12    3.29
   0   0  -9    0.14    1.99
   0   0  -8    2.54    1.82
   0   0  -7   72.69    2.64
   0   0  -6  540.58   13.80
   0   0  -5   18.37    1.42
   0   0  -4   32.90    1.64
   0   0  -3   97.84    9.63
   0   0  -2   -0.83    0.56
   0   0   2    0.00    1.41
   0   0   3  143.56    8.25
   0   0   4   31.95    2.28
   0   0   5   17.67    1.30
   0   0   6  540.01   18.22
   0   0   7   74.93    2.88
   0   0   8    0.71    2.68
   0   0   9   -0.56    1.83
   0   0  10   88.45    4.02
   0   0  11   31.81    2.95
   0   0  12  169.99    5.57
   0   0  13  307.60   11.25
   0   0  14  345.35   12.80
   0   0  15   48.10    4.44
   0   0  16    1.83    2.83
   0   0  17    5.09    4.50
   0   0  18   26.57    6.12
   0   0  19    3.79    4.77
   0   0  20    1.96    4.23
   0   0  21   20.90    4.67
   0   0  22   29.31    9.00
   0   0  23   29.44    7.47
   0   0  24   23.35    8.73
   0   0  25   -1.11    6.33
   0   1 -25   38.13    8.07
   0   1 -24    0.14    4.99
   0   1 -23   11.29    8.46
   0   1 -22   -3.79    4.48
   0   1 -21  -12.94    5.81
   0   1 -20    1.83    5.20
   0   1 -19   63.30    8.12
   0   1 -18  199.00   16.07
   0   1 -17    8.32    3.98
   0   1 -16   -1.00    4.67
   0   1 -15   23.82    2.66
   0   1 -14    5.47    2.95
   0   1 -13    2.24    2.66
   0   1 -12  795.34   23.43
   0   1 -11   34.55    2.51
   0   1 -10  291.17    7.29
   0   1  -9   13.55    2.27
   0   1  -8   29.71    2.98
   0   1  -7  204.40    5.09
   0   1  -6  270.47    7.04
   0   1  -5    2.24    1.42
   0   1  -4  831.24   21.22
   0   1  -3  138.20    3.62
   0   1  -2   -0.28    1.13
   0   1  -1   -0.71    0.42
   0   1   0    0.42    0.14
   0   1   1    0.00    1.41
   0   1   2    7.59    2.23
   0   1   3   43.43    1.72
   0   1   4  330.51    9.93
   0   1   5   70.28    3.38
   0   1   6  131.30    4.07
   0   1   7  688.67   19.94
   0   1   8  180.68    5.75
   0   1   9  780.02   24.53
   0   1  10   88.00    4.91
   0   1  11   38.72    3.10
   0   1  12    1.27    3.24
   0   1  13  219.61    8.45
   0   1  14  283.52   10.00
   0   1  15   10.12    2.79
   0   1  16    0.00    1.41
   0   1  17  119.60    9.62
   0   1  18   40.51    5.29
   0   1  19   79.31    8.04
   0   1  20   18.58    6.75
   0   1  21   16.10    4.96
   0   1  22    3.65    4.95
   0   1  23   18.99    7.35
   0   1  24   23.35    5.16
   0   1  25   51.95    8.73
   0   2 -24   12.03    7.66
   0   2 -23   31.68    7.35
   0   2 -22    4.37    6.05
   0   2 -21  120.64   13.04
   0   2 -20   10.74    4.91
   0   2 -19   26.07    5.33
   0   2 -18    8.46    4.62
   0   2 -17   19.30    5.95
   0   2 -16   23.93    5.81
   0   2 -15   27.17    6.32
   0   2 -14   15.82    3.21
   0   2 -13    5.36    2.81
   0   2 -12  170.61    5.58
   0   2 -11  217.85    7.36
   0   2 -10   13.55    2.02
   0   2  -9   25.35    2.40
   0   2  -8   29.84    2.72
   0   2  -7  147.28    6.35
   0   2  -6  472.73    9.81
   0   2  -5 3447.96   93.43
   0   2  -4 3532.13  127.03
   0   2  -3   84.25    2.62
   0   2  -2  413.27   10.62
   0   2  -1  418.60   10.21
   0   2   0  279.13    6.35
   0   2   1    7.92    0.87
   0   2   2  111.18    3.00
   0   2   3  808.12   18.23
   0   2   5   36.96    2.45
   0   2   6   12.44    2.26
   0   2   7  867.23   24.48
   0   2   8    5.09    1.72
   0   2   9   32.08    2.16
   0   2  10   20.90    2.82
   0   2  11   38.13    2.93
   0   2  12   19.30    3.55
   0   2  13   52.13    3.43
   0   2  14  102.59    5.29
   0   2  15   -3.09    2.96
   0   2  16   -1.27    2.98
   0   2  17  164.16   11.25
   0   2  18  162.04   12.69
   0   2  19   55.26    6.53
   0   2  20  207.81   11.99
   0   2  21   17.37    6.73
   0   2  22   15.54    5.33
   0   2  23   15.92    6.35
   0   2  24   -2.96    6.22
   0   2  25   14.62    8.26
   0   3 -24   24.41    7.16
   0   3 -23    4.78    6.08
   0   3 -22   10.74    7.78
   0   3 -21   63.48    6.81
   0   3 -20   -4.37    5.36
   0   3 -19  136.53    9.43
   0   3 -18   28.43    6.20
   0   3 -17  139.31    9.81
   0   3 -16   78.47    6.94
   0   3 -15    3.26    5.53
   0   3 -14   44.22    3.31
   0   3 -13   14.99    2.66
   0   3 -12   30.88    3.17
   0   3 -11    4.94    2.37
   0   3 -10   18.58    2.66
   0   3  -9   11.53    2.50
   0   3  -8   82.95    3.24
   0   3  -7    8.05    2.09
   0   3  -6  253.95    7.19
   0   3  -5  765.49   15.76
   0   3  -4  184.86    5.16
   0   3  -3   96.21    3.50
   0   3  -2  211.25    6.91
   0   3  -1  244.94    5.95
   0   3   0 1050.11   21.55
   0   3   1    5.47    1.11
   0   3   2 1678.29   42.81
   0   3   3 1032.48   22.12
   0   3   4 1269.03   29.61
   0   3   5 1497.61   39.52
   0   3   6  898.28   27.04
   0   3   7   -3.26    2.27
   0   3   8  124.86    4.24
   0   3   9  340.07   10.07
   0   3  10  185.83    5.82
   0   3  11   14.26    2.51
   0   3  12    0.42    2.13
   0   3  13   33.30    3.16
   0   3  14    7.08    2.98
   0   3  15   58.84    4.55
   0   3  16  346.23   16.36
   0   3  17   -7.21    6.63
   0   3  18   19.83    6.88
   0   3  19   43.43    5.64
   0   3  20   -3.65    4.22
   0   3  21   51.78    7.87
   0   3  22   47.76    7.54
   0   3  23   -1.55    4.95
   0   3  24   40.06    7.22
   0   4 -23   -0.28    5.67
   0   4 -22   25.47    8.26
   0   4 -21   51.27    9.52
   0   4 -20   11.29    6.94
   0   4 -19   26.07    5.94
   0   4 -18    3.26    4.94
   0   4 -17  104.29    9.94
   0   4 -16    8.05    5.39
   0   4 -15   16.68    5.05
   0   4 -14  150.46    9.32
   0   4 -13    6.64    2.82
   0   4 -12    8.88    2.98
   0   4 -11  167.22    6.44
   0   4 -10   53.16    3.81
   0   4  -9  759.59   18.33
   0   4  -8  117.79    4.64
   0   4  -7   78.05    3.36
   0   4  -6  128.86    4.58
   0   4  -5  231.39    6.50
   0   4  -4  336.14    8.28
   0   4  -3  275.58    7.09
   0   4  -2  382.95    9.76
   0   4  -1    2.10    1.96
   0   4   0   44.06    2.04
   0   4   1  874.94   14.04
   0   4   2  557.26   11.21
   0   4   3  218.20    5.26
   0   4   4   73.51    2.44
   0   4   5  100.44    3.33
   0   4   6  508.49   14.45
   0   4   7 1297.96   34.22
   0   4   8  666.42   17.78
   0   4   9 1221.26   31.54
   0   4  10   73.51    4.48
   0   4  11    2.38    3.37
   0   4  12  286.73   10.05
   0   4  13   13.28    2.95
   0   4  14   85.35    5.71
   0   4  15   55.08    4.23
   0   4  16   46.46    7.12
   0   4  17    5.09    3.69
   0   4  18   -1.11    3.79
   0   4  19   -8.19    3.67
   0   4  20    5.36    5.23
   0   4  21   12.27    5.65
   0   4  22   11.14    6.35
   0   4  23   13.28    5.54
   0   5 -22   -4.78    6.58
   0   5 -21   26.68    8.46
   0   5 -20    3.79    6.20
   0   5 -19   31.15    7.02
   0   5 -18   -5.20    5.91
   0   5 -17  332.67   22.52
   0   5 -16   64.06    7.98
   0   5 -15   -4.51    5.20
   0   5 -14   -7.59    5.03
   0   5 -13   -4.51    4.50
   0   5 -12   -0.83    3.50
   0   5 -11   56.50    3.75
   0   5 -10  134.04    6.05
   0   5  -9  118.05    5.41
   0   5  -8   22.11    2.68
   0   5  -7   28.43    2.92
   0   5  -6  143.27    4.84
   0   5  -5   26.20    2.43
   0   5  -4    7.92    2.00
   0   5  -3   68.89    3.16
   0   5  -2  431.33   10.36
   0   5  -1    3.79    1.99
   0   5   0  474.79   10.35
   0   5   1   92.51    2.51
   0   5   2  195.67    3.65
   0   5   3   18.08    1.31
   0   5   4  115.74    3.58
   0   5   5   34.83    1.68
   0   5   6  252.42    8.31
   0   5   7   -3.38    2.41
   0   5   8    1.11    2.81
   0   5   9   69.29    4.15
   0   5  10  139.59    6.74
   0   5  11   59.94    4.60
   0   5  12  491.50   18.95
   0   5  13   88.89    5.15
   0   5  14  185.50    8.73
   0   5  15   18.58    5.74
   0   5  16   46.78    5.85
   0   5  17  180.37   15.62
   0   5  18   20.90    4.88
   0   5  19   12.94    5.81
   0   5  20   12.52    5.05
   0   5  21   -4.94    5.64
   0   5  22    3.79    6.06
   0   5  23  117.27   12.86
   0   6 -21    8.05    8.90
   0   6 -20   -5.64    8.57
   0   6 -19   35.96    7.98
   0   6 -18   41.12    7.77
   0   6 -17    3.79    6.90
   0   6 -16   71.69    9.86
   0   6 -15  121.95   12.59
   0   6 -14   83.60    8.25
   0   6 -13   53.51    8.52
   0   6 -12   29.19    5.78
   0   6 -11    2.54    4.91
   0   6 -10   87.34    4.88
   0   6  -9   31.54    3.34
   0   6  -8    9.90    3.36
   0   6  -7   21.88    3.23
   0   6  -6    2.10    2.68
   0   6  -5   17.17    2.37
   0   6  -4  184.21    5.80
   0   6  -3  224.56    6.77
   0   6  -2  783.33   18.61
   0   6  -1    1.41    2.54
   0   6   0    3.26    1.85
   0   6   1    3.38    1.27
   0   6   2   -0.28    0.85
   0   6   3  117.54    2.83
   0   6   4  749.15   16.24
   0   6   5   20.47    1.51
   0   6   6    2.96    1.55
   0   6   7    9.02    3.21
   0   6   8   21.88    3.55
   0   6   9   17.67    3.30
   0   6  10   15.26    2.78
   0   6  11   44.06    3.78
   0   6  12   27.92    4.15
   0   6  13   77.64    7.53
   0   6  14   40.96    7.29
   0   6  15    5.36    4.95
   0   6  16  122.22    9.98
   0   6  17    0.71    4.81
   0   6  18   52.47    7.57
   0   6  19   31.95    6.57
   0   6  20   14.52    6.80
   0   6  21    2.81    6.05
   0   6  22   11.14    7.77
   0   7 -20    3.79    5.78
   0   7 -19    9.98   10.12
   0   7 -18   21.12    7.09
   0   7 -17    6.88    5.80
   0   7 -16   24.41    9.74
   0   7 -15   17.08    6.18
   0   7 -14  107.22    9.09
   0   7 -13   46.46    7.12
   0   7 -12    4.22    5.08
   0   7 -11   44.85    6.68
   0   7 -10    9.90    5.75
   0   7  -9   -3.09    4.64
   0   7  -8   25.70    4.09
   0   7  -7   25.11    4.40
   0   7  -6    0.83    2.81
   0   7  -5   84.91    3.72
   0   7  -4   68.30    3.54
   0   7  -3    2.10    2.37
   0   7  -2    0.42    2.41
   0   7  -1    4.22    2.40
   0   7   0   23.12    2.17
   0   7   1    5.47    1.95
   0   7   2   68.30    2.35
   0   7   3   68.30    2.16
   0   7   4    2.24    1.14
   0   7   5   37.99    1.76
   0   7   6    7.08    1.58
   0   7   7   44.06    4.72
   0   7   8  551.68   21.76
   0   7   9   10.81    3.13
   0   7  10   12.69    3.21
   0   7  11   76.17    8.08
   0   7  12  110.94    8.25
   0   7  14   38.56    5.75
   0   7  15    0.71    6.09
   0   7  16    9.60    4.64
   0   7  17    0.83    5.47
   0   7  18   44.70    7.78
   0   7  19   73.91   11.03
   0   7  20   21.45    5.61
   0   8 -18    7.46    8.04
   0   8 -17   24.99    8.54
   0   8 -16    9.60    7.66
   0   8 -15    2.24    5.75
   0   8 -14   48.59    7.29
   0   8 -13   12.44    5.19
   0   8 -12   10.74    5.92
   0   8 -11    1.00    7.22
   0   8 -10  135.14   11.59
   0   8  -9  -11.14    7.92
   0   8  -8  143.27   11.66
   0   8  -7   14.09    6.23
   0   8  -6   53.85    6.11
   0   8  -5  169.37   12.06
   0   8  -4    0.28    2.55
   0   8  -3    3.38    3.67
   0   8  -2  147.56    5.77
   0   8  -1   18.78    2.27
   0   8   0  206.10    7.84
   0   8   1   61.60    3.72
   0   8   2   59.02    3.10
   0   8   3   35.96    1.85
   0   8   4  259.26    6.88
   0   8   5    2.38    1.28
   0   8   6   30.63    1.71
   0   8   7  257.36    9.91
   0   8   8   51.10    3.40
   0   8   9    3.09    5.34
   0   8  10   52.81    7.25
   0   8  11   -6.22    6.22
   0   8  12   56.68    6.43
   0   8  13    9.90    7.02
   0   8  14   44.37    7.12
   0   8  15    4.22    5.22
   0   8  16    9.02    5.20
   0   8  17    6.03    5.37
   0   8  18   25.83    7.84
   0   8  19    4.22    7.46
   0   9 -16    2.38    8.73
   0   9 -15   10.28    6.63
   0   9 -14   -5.75    6.90
   0   9 -13   24.99    9.62
   0   9 -12   -9.46    5.77
   0   9 -11   55.96    7.46
   0   9 -10    5.75    6.78
   0   9  -9   88.45   10.49
   0   9  -8   85.79    8.57
   0   9  -7   11.53    6.05
   0   9  -6    8.46    5.67
   0   9  -5   -6.22    3.79
   0   9  -4    1.27    5.65
   0   9  -3   16.68    6.20
   0   9  -2   -0.42    3.26
   0   9  -1   -0.56    1.97
   0   9   0   13.38    2.43
   0   9   1   74.93    4.72
   0   9   2    3.79    1.99
   0   9   3  235.38    9.11
   0   9   4   45.81    2.09
   0   9   5   25.11    1.66
   0   9   6   34.40    2.37
   0   9   7   11.86    1.80
   0   9   8    7.21    2.68
   0   9   9   70.28    4.98
   0   9  10    7.92    3.54
   0   9  11   22.00    6.46
   0   9  12    7.46    5.64
   0   9  13    0.71    5.25
   0   9  14   84.91   10.50
   0   9  15  -12.94    7.60
   0   9  16    8.60    5.78
   0  10 -13    0.83    6.73
   0  10 -12   14.09    6.33
   0  10 -11   16.20    6.22
   0  10 -10    7.33    5.78
   0  10  -9  107.46   10.34
   0  10  -8   57.04    8.25
   0  10  -7   36.39    7.30
   0  10  -6    3.26    5.23
   0  10  -5    6.64    6.18
   0  10  -4   17.08    6.67
   0  10  -3   14.26    7.08
   0  10  -2    7.46    5.64
   0  10  -1   -0.56    4.36
   0  10   0   51.61    8.19
   0  10   1    4.22    4.64
   0  10   2  182.60   12.83
   0  10   3   45.33    6.08
   0  10   4   -5.75    6.78
   0  10   5   15.26    3.43
   0  10   6   13.11    3.27
   0  10   7   12.27    3.41
   0  10   8   -1.71    3.10
   0  10   9   -1.27    3.54
   0  10  10   12.27    4.50
   0  10  11   29.44    4.39
   0  10  12   -2.81    3.65
   0  10  13    9.46    6.20
   0  10  14   23.82   10.43
   0  11 -10    1.11    5.47
   0  11  -9    7.08    5.63
   0  11  -8   26.80    6.51
   0  11  -7    0.56    5.20
   0  11  -6    9.90    6.36
   0  11  -5   36.10    7.85
   0  11  -4    2.96    5.64
   0  11  -3    4.37    5.65
   0  11  -2   21.01    5.56
   0  11  -1   -1.83    8.16
   0  11   0    6.03    5.49
   0  11   1   29.71    7.90
   0  11   2   37.11    6.66
   0  11   3   -3.93    5.65
   0  11   4   15.82    7.08
   0  11   5   -5.64    4.51
   0  11   6   27.92    5.89
   0  11   7   15.64    6.49
   0  11   8   11.14    9.28
   0  11   9   31.02    5.95
   0  11  10   14.62    6.90
   0  12  -1    9.90    4.94
   0  12   0   11.14    5.78
   0  12   1    6.88    5.61
   0  12   2   -5.92    5.37
   1 -11  -7   78.68    6.11
   1 -11  -6   13.11    4.64
   1 -11  -5   12.03    4.53
   1 -11  -4   29.19    4.62
   1 -11  -3   38.86    6.51
   1 -11  -2    7.92    4.22
   1 -11  -1   15.64    5.54
   1 -11   0   13.99    4.53
   1 -11   1   -4.78    4.51
   1 -11   2   50.42    6.74
   1 -11   3   -2.68    4.67
   1 -11   4   10.74    4.20
   1 -11   5    9.90    4.26
   1 -11   6   -5.64    4.62
   1 -11   7    4.78    3.79
   1 -10 -12    3.93    4.24
   1 -10 -11    1.96    4.23
   1 -10 -10   47.26    5.71
   1 -10  -9   -0.83    4.06
   1 -10  -8    6.46    4.65
   1 -10  -7   40.21    5.27
   1 -10  -6    9.02    3.50
   1 -10  -5   10.97    5.03
   1 -10  -4   44.22    4.74
   1 -10  -3    2.24    3.67
   1 -10  -2    1.71    5.53
   1 -10  -1   34.14    4.99
   1 -10   0    2.10    4.20
   1 -10   1    7.08    5.25
   1 -10   2   10.74    3.65
   1 -10   3   18.58    5.33
   1 -10   4    5.92    4.92
   1 -10   5   26.68    5.89
   1 -10   6   10.43    5.06
   1 -10   7   43.43    6.57
   1 -10   8   26.93    5.17
   1 -10   9   30.36    6.42
   1 -10  10    5.64    4.62
   1 -10  11   -6.88    4.92
   1 -10  12   14.26    5.82
   1  -9 -15   -1.71    3.98
   1  -9 -14  131.58    9.81
   1  -9 -13    7.08    4.23
   1  -9 -12   24.63    4.95
   1  -9 -11   80.37    5.75
   1  -9 -10   54.91    5.98
   1  -9  -9    4.22    3.67
   1  -9  -8   23.12    3.76
   1  -9  -7   49.92    5.54
   1  -9  -6    9.90    3.96
   1  -9  -5    7.46    3.96
   1  -9  -4   -2.68    4.36
   1  -9  -3    1.41    3.38
   1  -9  -2   47.26    5.23
   1  -9  -1   12.94    3.93
   1  -9   0  170.92    9.32
   1  -9   1    1.41    3.95
   1  -9   2   11.53    4.12
   1  -9   3    5.92    5.09
   1  -9   4    6.64    4.22
   1  -9   5    9.46    3.79
   1  -9   6  127.26    6.97
   1  -9   7    9.31    4.06
   1  -9   8    0.56    4.92
   1  -9   9  174.04   10.34
   1  -9  10    4.37    4.22
   1  -9  11   26.57    5.26
   1  -9  12    8.46    4.77
   1  -9  13    2.96    5.08
   1  -9  14    6.22    5.39
   1  -9  15    8.60    4.81
   1  -8 -17   26.07    9.70
   1  -8 -16    3.26    5.36
   1  -8 -15    1.27    5.09
   1  -8 -14    8.60    6.20
   1  -8 -13   31.27    6.37
   1  -8 -12   24.63    4.48
   1  -8 -11   73.91    6.12
   1  -8 -10   14.62    3.91
   1  -8  -9  125.13    7.18
   1  -8  -8    4.07    2.68
   1  -8  -7   52.64    4.48
   1  -8  -6   67.71    4.88
   1  -8  -5  214.72    8.35
   1  -8  -4   42.65    4.96
   1  -8  -3  359.61   14.41
   1  -8  -2   72.69    5.26
   1  -8  -1    1.83    4.50
   1  -8   0  240.50   10.31
   1  -8   1    1.27    3.81
   1  -8   2    4.37    3.98
   1  -8   3    4.67    3.23
   1  -8   4   46.29    4.85
   1  -8   5    1.00    2.27
   1  -8   6    6.46    2.54
   1  -8   7    6.33    2.69
   1  -8   8   60.67    4.26
   1  -8   9   94.12    5.06
   1  -8  10   -1.27    4.94
   1  -8  11   16.50    5.88
   1  -8  12   22.79    4.43
   1  -8  13    6.22    4.50
   1  -8  14   65.98    6.18
   1  -8  15   11.29    5.51
   1  -8  16   11.69    4.55
   1  -8  17   10.43    5.06
   1  -8  18   71.69    7.84
   1  -7 -19   27.66    6.63
   1  -7 -18   19.73    7.28
   1  -7 -17    3.38    4.68
   1  -7 -16    4.94    4.54
   1  -7 -15   68.89    5.32
   1  -7 -14   31.02    3.44
   1  -7 -13    5.20    2.27
   1  -7 -12  136.80    7.78
   1  -7 -11   21.45    2.86
   1  -7 -10   38.56    3.40
   1  -7  -9   11.14    1.66
   1  -7  -8   61.79    4.85
   1  -7  -7   37.69    3.36
   1  -7  -6  153.68    7.06
   1  -7  -5    0.14    3.14
   1  -7  -4   29.84    4.02
   1  -7  -3    0.42    3.82
   1  -7  -2   35.81    4.26
   1  -7  -1    7.92    2.68
   1  -7   0    1.55    3.26
   1  -7   1    8.60    3.69
   1  -7   2    4.78    3.37
   1  -7   3   -4.37    3.82
   1  -7   4  111.18    4.26
   1  -7   5   25.83    2.41
   1  -7   6    9.46    2.71
   1  -7   7   12.52    2.95
   1  -7   8   -1.11    4.77
   1  -7   9   16.10    1.72
   1  -7  10    7.33    1.68
   1  -7  11   46.46    2.92
   1  -7  12   20.04    4.78
   1  -7  13    8.32    4.94
   1  -7  14    0.71    4.10
   1  -7  15   15.54    5.81
   1  -7  16    0.56    4.64
   1  -7  17   95.50    7.90
   1  -7  18   14.26    5.20
   1  -7  19   11.45    5.39
   1  -7  20   23.70    5.67
   1  -6 -21   31.95    9.53
   1  -6 -20   -5.92    6.77
   1  -6 -19   11.86    2.95
   1  -6 -18   -4.37    2.83
   1  -6 -17   -1.41    2.54
   1  -6 -16   -1.27    4.67
   1  -6 -15    7.46    3.96
   1  -6 -14   47.60    3.76
   1  -6 -13   -3.79    2.27
   1  -6 -12  204.06    9.17
   1  -6 -11   22.45    2.92
   1  -6 -10  783.33   27.26
   1  -6  -9  561.19   18.57
   1  -6  -8   94.81    4.16
   1  -6  -7  639.11   18.61
   1  -6  -6   19.30    2.71
   1  -6  -5   21.88    3.12
   1  -6  -4   35.81    3.13
   1  -6  -3  161.73    5.74
   1  -6  -2   82.09    3.88
   1  -6  -1  115.74    4.34
   1  -6   0  261.18    7.29
   1  -6   1   54.91    3.34
   1  -6   2  291.98    7.71
   1  -6   3  339.20    8.31
   1  -6   4   34.55    2.51
   1  -6   5  324.91    8.14
   1  -6   6   72.90    4.86
   1  -6   7   12.27    1.17
   1  -6   8   39.02    1.93
   1  -6   9   11.86    1.80
   1  -6  10   24.63    2.35
   1  -6  11  116.26    5.37
   1  -6  12    1.11    3.93
   1  -6  13   50.59    5.06
   1  -6  14   59.02    5.65
   1  -6  15   33.30    5.89
   1  -6  16   52.81    5.70
   1  -6  17   10.12    4.39
   1  -6  18   15.82    5.10
   1  -6  19    9.17    4.39
   1  -6  20   54.91   10.56
   1  -6  21    0.56    6.47
   1  -5 -22   29.19    4.62
   1  -5 -21   52.81    5.34
   1  -5 -20   -9.60    4.94
   1  -5 -19    2.68    3.38
   1  -5 -18   14.26    3.50
   1  -5 -17  114.47    8.39
   1  -5 -16    5.20    2.65
   1  -5 -15  107.46    6.40
   1  -5 -14    3.65    2.95
   1  -5 -13    7.59    2.95
   1  -5 -12   13.38    2.09
   1  -5 -11  226.71    9.66
   1  -5 -10  499.96   22.31
   1  -5  -9  287.93    8.46
   1  -5  -8   14.09    1.69
   1  -5  -7   28.43    2.41
   1  -5  -6   13.64    1.58
   1  -5  -5  381.09    8.35
   1  -5  -4  370.50   10.05
   1  -5  -3  828.51   18.46
   1  -5  -2  119.87    3.64
   1  -5  -1   54.20    2.79
   1  -5   0   52.13    2.75
   1  -5   1    7.78    2.12
   1  -5   2  718.27   15.91
   1  -5   3  126.99    3.48
   1  -5   4    4.94    1.52
   1  -5   5  244.20    7.42
   1  -5   6  136.53    4.44
   1  -5   7   61.42    2.43
   1  -5   8    7.33    1.41
   1  -5   9   13.38    2.95
   1  -5  10    0.00    1.41
   1  -5  11   12.03    3.37
   1  -5  12   16.88    3.51
   1  -5  13   19.30    4.91
   1  -5  14   -4.51    4.09
   1  -5  15    6.64    4.34
   1  -5  16    1.27    4.23
   1  -5  17    5.64    4.12
   1  -5  18   20.47    5.05
   1  -5  19   29.58    6.84
   1  -5  20    4.22    5.75
   1  -5  21    6.64    7.77
   1  -5  22    1.00    6.80
   1  -4 -23    9.17    3.67
   1  -4 -22    6.64    4.78
   1  -4 -21   -1.55    3.67
   1  -4 -20   -3.65    3.54
   1  -4 -19    0.28    3.12
   1  -4 -18   -4.37    2.68
   1  -4 -17   -0.14    3.43
   1  -4 -16   30.63    4.20
   1  -4 -15   65.58    4.43
   1  -4 -14  387.14   15.89
   1  -4 -13  363.68   11.77
   1  -4 -12   39.76    3.30
   1  -4 -11   10.97    2.13
   1  -4 -10   22.67    1.92
   1  -4  -9   41.88    2.30
   1  -4  -8  291.57    7.30
   1  -4  -7   13.82    1.68
   1  -4  -6  948.05   19.74
   1  -4  -5  173.73    5.01
   1  -4  -4  410.86   10.59
   1  -4  -3    1.00    1.42
   1  -4  -2   82.74    3.24
   1  -4  -1   -0.71    2.96
   1  -4   0  197.33    6.01
   1  -4   1  249.04    7.12
   1  -4   2  139.31    3.92
   1  -4   3  388.08    8.88
   1  -4   4   46.29    1.78
   1  -4   5   27.79    1.25
   1  -4   6   27.17    1.61
   1  -4   7   46.46    2.92
   1  -4   8    3.79    2.27
   1  -4   9  603.61   17.50
   1  -4  10  111.94    4.78
   1  -4  11   47.60    2.95
   1  -4  12   -0.56    2.38
   1  -4  13    4.37    2.68
   1  -4  14   12.10    4.05
   1  -4  15   28.17    4.54
   1  -4  16   19.61    3.99
   1  -4  17   35.39    6.50
   1  -4  18   70.47    9.38
   1  -4  19   23.01    5.36
   1  -4  20   35.81    8.39
   1  -4  21   17.17    6.20
   1  -4  22   -3.53    6.19
   1  -4  23  109.94   13.20
   1  -3 -23    8.46    4.36
   1  -3 -22   -1.96    3.09
   1  -3 -21   61.60    5.96
   1  -3 -20   50.93    4.58
   1  -3 -19   14.35    5.67
   1  -3 -18    0.71    3.40
   1  -3 -17   28.17    4.03
   1  -3 -16   58.29    4.36
   1  -3 -15  142.13    6.23
   1  -3 -14   84.25    4.58
   1  -3 -13   36.96    2.75
   1  -3 -12   50.59    3.05
   1  -3 -11    4.67    1.85
   1  -3 -10  187.13    5.20
   1  -3  -9  451.28   11.10
   1  -3  -8   19.73    1.79
   1  -3  -7  384.81    9.79
   1  -3  -6  256.60    6.47
   1  -3  -5  478.93   11.44
   1  -3  -4   91.82    2.96
   1  -3  -3  854.68   17.36
   1  -3  -2   35.53    1.69
   1  -3  -1  417.14   10.18
   1  -3   0   87.34    2.89
   1  -3   1   42.65    2.33
   1  -3   2  200.35    5.05
   1  -3   3   38.42    1.62
   1  -3   4   68.30    2.35
   1  -3   5    0.42    0.86
   1  -3   6   97.60    5.63
   1  -3   7  270.87    8.21
   1  -3   8   25.23    2.62
   1  -3   9  405.10   12.42
   1  -3  10   -2.81    2.38
   1  -3  11  111.69    5.02
   1  -3  12   47.11    3.26
   1  -3  13    0.28    2.27
   1  -3  14   83.60    4.99
   1  -3  15   26.80    3.20
   1  -3  16   -5.20    4.77
   1  -3  17   29.19    5.51
   1  -3  18   77.21    9.39
   1  -3  19    1.96    7.02
   1  -3  20   22.79    8.50
   1  -3  21   27.55    9.22
   1  -3  22   -1.55    8.21
   1  -3  23   -2.54    9.29
   1  -3  24   21.88    6.78
   1  -2 -24    2.10    4.78
   1  -2 -23    6.03    3.38
   1  -2 -22   48.59    5.13
   1  -2 -21   -0.42    3.54
   1  -2 -20   16.78    6.03
   1  -2 -19  128.60    9.42
   1  -2 -18  355.57   28.67
   1  -2 -17    9.31    6.37
   1  -2 -16   55.61    6.37
   1  -2 -15   -6.46    5.37
   1  -2 -14    2.24    2.38
   1  -2 -13   40.81    3.79
   1  -2 -12  242.34    7.77
   1  -2 -11   19.30    2.71
   1  -2 -10   32.76    2.04
   1  -2  -9   27.66    2.24
   1  -2  -8   46.78    2.59
   1  -2  -7   26.80    1.97
   1  -2  -6  114.47    3.55
   1  -2  -5   92.29    3.20
   1  -2  -4 1030.20   24.39
   1  -2  -3   36.10    1.86
   1  -2  -2 9871.18  316.19
   1  -2  -1 1651.16   32.81
   1  -2   0   15.82    1.71
   1  -2   1   13.82    0.97
   1  -2   2   39.16    2.38
   1  -2   3  216.10    4.54
   1  -2   4  409.42    9.14
   1  -2   5  131.30    3.81
   1  -2   6 1607.07   41.89
   1  -2   7  430.84   11.34
   1  -2   8  131.58    4.09
   1  -2   9   20.69    1.95
   1  -2  10    0.83    1.82
   1  -2  11  268.53    7.78
   1  -2  12  163.55    7.60
   1  -2  13  174.67    7.85
   1  -2  14   83.81    3.92
   1  -2  15    6.46    3.92
   1  -2  16  198.00    9.02
   1  -2  17   80.58    7.67
   1  -2  18   18.78    5.96
   1  -2  19  101.87    8.63
   1  -2  20   28.17    8.45
   1  -2  21    4.07    7.87
   1  -2  22   27.17    5.08
   1  -2  23    2.96    5.23
   1  -2  24   49.92   10.24
   1  -2  25   11.45    9.73
   1  -1 -24   51.61    8.87
   1  -1 -23    0.14    6.13
   1  -1 -22   38.42    6.63
   1  -1 -21    1.27    6.91
   1  -1 -20   13.99    3.82
   1  -1 -19  210.56   15.85
   1  -1 -18   17.47    5.06
   1  -1 -17   63.68    8.33
   1  -1 -16   37.11    5.50
   1  -1 -15    3.09    3.92
   1  -1 -14  426.90   13.25
   1  -1 -13   -1.96    2.10
   1  -1 -12  103.55    4.36
   1  -1 -11    7.92    2.14
   1  -1 -10  157.23    4.47
   1  -1  -9   28.81    2.55
   1  -1  -8 1513.28   43.41
   1  -1  -7   65.20    3.07
   1  -1  -6    1.41    1.69
   1  -1  -5   42.65    3.26
   1  -1  -4  845.68   20.71
   1  -1  -3  181.01    4.47
   1  -1  -2   24.28    1.17
   1  -1  -1  392.30   12.70
   1  -1   0   34.69    1.11
   1  -1   1  146.12    3.74
   1  -1   2   29.31    1.41
   1  -1   3  489.39   11.03
   1  -1   4 3083.04   68.57
   1  -1   5   23.59    1.49
   1  -1   6  200.01    5.71
   1  -1   7   87.77    3.34
   1  -1   8   54.91    3.17
   1  -1   9  503.68   13.32
   1  -1  10  109.45    5.22
   1  -1  11  266.58    8.53
   1  -1  12   95.04    4.40
   1  -1  13   55.43    3.19
   1  -1  14  275.18   14.97
   1  -1  15    5.36    3.07
   1  -1  16   12.03    3.54
   1  -1  17   15.82    3.12
   1  -1  18    3.26    4.67
   1  -1  19   10.74    5.22
   1  -1  20   39.16    8.47
   1  -1  21   53.85    8.02
   1  -1  22   -3.65    5.09
   1  -1  23   49.92    8.39
   1  -1  24    3.09    6.05
   1  -1  25    8.74    6.32
   1   0 -24   25.47    8.04
   1   0 -23  125.65   14.11
   1   0 -22   -6.22    4.26
   1   0 -21   31.95    6.57
   1   0 -20   29.58    7.49
   1   0 -19   -3.09    4.92
   1   0 -17  134.87    7.73
   1   0 -16   80.37    4.05
   1   0 -15    1.11    7.70
   1   0 -14   50.42    3.54
   1   0 -13  204.06    7.12
   1   0 -12   24.52    2.95
   1   0 -11  190.38    4.92
   1   0 -10   73.91    3.06
   1   0  -9  136.80    4.17
   1   0  -8    7.33    1.86
   1   0  -7    6.46    1.69
   1   0  -6    6.64    1.83
   1   0  -5 1664.70   42.64
   1   0  -4   18.37    1.23
   1   0  -3  188.10    4.89
   1   0  -2  160.83    6.63
   1   0  -1   -0.28    0.28
   1   0   0    0.71    0.28
   1   0   1    0.56    0.42
   1   0   2    1.00    0.56
   1   0   3  285.52    8.83
   1   0   4    7.59    1.11
   1   0   5   56.15    2.13
   1   0   6    0.56    1.55
   1   0   7   51.95    2.74
   1   0   8   21.56    2.20
   1   0   9  555.03   21.83
   1   0  10   12.94    2.65
   1   0  11   35.25    2.54
   1   0  12  405.58   12.44
   1   0  13   27.92    3.02
   1   0  14  268.92   10.90
   1   0  15    8.88    3.68
   1   0  16   12.94    3.07
   1   0  17    2.24    3.95
   1   0  18  105.75    8.54
   1   0  19    6.77    4.39
   1   0  20    7.59    6.87
   1   0  21   31.68    5.75
   1   0  22   -7.21    5.23
   1   0  23    1.27    5.92
   1   0  24   -1.27    5.36
   1   0  25   -0.71    4.67
   1   1 -24    9.98    6.30
   1   1 -23    9.98    5.63
   1   1 -22   -9.02    7.63
   1   1 -21    6.77    5.63
   1   1 -20   29.31    7.71
   1   1 -19   61.42    7.08
   1   1 -18    2.81    6.32
   1   1 -17   42.65    5.58
   1   1 -16   22.22    4.81
   1   1 -15    6.46    2.54
   1   1 -14  102.83    4.58
   1   1 -13   74.52    4.30
   1   1 -12  535.62   15.38
   1   1 -11  146.42    4.88
   1   1 -10  142.41    5.10
   1   1  -9   58.84    2.55
   1   1  -8  404.62   10.50
   1   1  -7  138.20    4.19
   1   1  -6  131.30    4.07
   1   1  -5   29.71    1.95
   1   1  -4  320.22    9.35
   1   1  -3  205.08    5.78
   1   1  -2  240.86    7.01
   1   1   0    0.83    0.97
   1   1   1    1.83    0.30
   1   1   2   -0.71    0.56
   1   1   3   35.39    1.41
   1   1   4  644.53   21.11
   1   1   5   10.81    1.25
   1   1   6  336.58   10.46
   1   1   7  274.00    9.04
   1   1   8  344.47   11.90
   1   1   9  831.92   23.97
   1   1  10   60.12    3.68
   1   1  11   10.43    1.99
   1   1  12  294.42    8.56
   1   1  13  150.17    6.70
   1   1  14    6.88    2.24
   1   1  15   48.25    4.46
   1   1  16    0.14    2.43
   1   1  17  133.77    6.87
   1   1  18   49.42    4.51
   1   1  19   92.96    8.93
   1   1  20   -1.11    6.60
   1   1  21  135.70   10.24
   1   1  22   27.30    6.95
   1   1  23   82.74    8.42
   1   1  24    1.96    4.50
   1   1  25    9.60    6.63
   1   2 -24   -0.14    5.85
   1   2 -23   30.23    8.49
   1   2 -22   12.69    6.60
   1   2 -21   42.50    7.12
   1   2 -19   67.13    8.76
   1   2 -18   25.23    5.61
   1   2 -17  161.43   13.87
   1   2 -16   69.29    6.53
   1   2 -15   41.72    6.13
   1   2 -14   -3.26    2.52
   1   2 -13    9.46    2.71
   1   2 -12    8.46    2.28
   1   2 -11    0.83    1.82
   1   2 -10   -1.55    1.83
   1   2  -9  645.74   19.91
   1   2  -8    4.94    1.85
   1   2  -7    7.08    1.71
   1   2  -6   22.00    2.00
   1   2  -5    0.00    1.41
   1   2  -4 1176.86   31.77
   1   2  -3 3502.57   81.51
   1   2  -2 2537.30   61.01
   1   2  -1    8.19    1.57
   1   2   0  274.00    6.68
   1   2   1    8.32    0.69
   1   2   2  277.55    7.12
   1   2   3    4.94    1.00
   1   2   4 1252.17   38.66
   1   2   6   33.30    2.33
   1   2   7 3580.29  103.74
   1   2   8   22.79    2.50
   1   2   9  119.87    4.68
   1   2  10   23.12    2.86
   1   2  11   45.33    3.03
   1   2  12   18.37    2.54
   1   2  13  148.43    5.50
   1   2  14   43.43    3.13
   1   2  15   68.30    4.12
   1   2  16   13.55    3.50
   1   2  17    1.11    3.37
   1   2  18    1.55    2.55
   1   2  19   57.94    5.96
   1   2  20   37.25    7.54
   1   2  21   88.23    9.59
   1   2  22    0.42    5.10
   1   2  23    3.26    5.10
   1   2  24   22.45    6.75
   1   2  25   -9.02    6.35
   1   3 -24   13.11    9.21
   1   3 -23   17.87    6.22
   1   3 -22  105.02   11.68
   1   3 -21   19.20    7.91
   1   3 -20    0.83    5.32
   1   3 -19  555.03   49.24
   1   3 -18   22.79    6.23
   1   3 -17   27.17    6.81
   1   3 -16   14.26    5.92
   1   3 -15   44.06    5.99
   1   3 -14    4.22    2.68
   1   3 -13  111.43    4.77
   1   3 -12   44.53    3.02
   1   3 -11    6.22    2.85
   1   3 -10  188.10    6.19
   1   3  -9   57.94    2.71
   1   3  -8   20.57    1.95
   1   3  -7  870.03   18.91
   1   3  -6   12.94    1.96
   1   3  -5 2468.39   54.27
   1   3  -4  151.34    4.96
   1   3  -3   16.20    2.58
   1   3  -2  148.72    4.34
   1   3  -1    4.94    1.69
   1   3   0  263.87    5.40
   1   3   1    4.51    1.11
   1   3   2    9.76    0.96
   1   3   3  956.85   24.24
   1   3   4  139.31    4.48
   1   3   5 1286.01   34.91
   1   3   6   88.23    3.57
   1   3   7    1.27    1.69
   1   3   8    2.68    1.83
   1   3   9  244.57    8.91
   1   3  10   79.74    4.46
   1   3  11  456.34   15.72
   1   3  12  316.83   10.98
   1   3  13  136.80    5.27
   1   3  14  154.27    7.37
   1   3  15   16.78    2.82
   1   3  16  107.46    6.15
   1   3  17    5.36    2.69
   1   3  18   21.12    5.46
   1   3  19  134.32   11.28
   1   3  20    4.07    5.08
   1   3  21    4.67    5.08
   1   3  22   11.69    7.71
   1   3  23   27.92    5.89
   1   3  24   10.28    6.78
   1   3  25   14.09    7.49
   1   4 -23   31.15    8.62
   1   4 -22    7.08    9.73
   1   4 -21    5.20    6.50
   1   4 -20   62.73   11.10
   1   4 -19   98.31   11.77
   1   4 -18   11.14    5.95
   1   4 -17  115.23   13.00
   1   4 -16  153.98   11.20
   1   4 -15   17.47    7.74
   1   4 -14   61.99    6.54
   1   4 -13   62.17    3.75
   1   4 -12   18.47    3.27
   1   4 -11   14.09    2.50
   1   4 -10   86.67    3.76
   1   4  -9   98.79    3.78
   1   4  -8  298.91    7.80
   1   4  -7 1646.34   37.58
   1   4  -6    0.56    1.83
   1   4  -5  252.80    6.80
   1   4  -4  198.67    5.02
   1   4  -3   68.30    2.95
   1   4  -2  266.20    6.58
   1   4  -1   45.01    2.86
   1   4   0    5.09    1.55
   1   4   1    9.17    1.16
   1   4   2  825.10   14.33
   1   4   3    0.14    1.14
   1   4   4 1116.55   27.78
   1   4   5    0.56    2.38
   1   4   6   55.26    3.00
   1   4   7  112.69    4.79
   1   4   8    0.42    1.71
   1   4   9  468.09   12.85
   1   4  10   58.66    3.09
   1   4  11  207.12    6.84
   1   4  12   35.11    2.82
   1   4  13   12.27    2.58
   1   4  14    0.83    2.38
   1   4  15  240.50    9.57
   1   4  16    5.09    3.10
   1   4  17    6.64    2.82
   1   4  18   -7.78    6.50
   1   4  19    0.28    6.25
   1   4  20   10.74    6.23
   1   4  21   45.49    7.05
   1   4  22    8.32    5.75
   1   4  23    2.54    5.06
   1   4  24    3.38    5.51
   1   5 -22    1.27    7.47
   1   5 -21   -3.93    5.65
   1   5 -20   28.81    9.56
   1   5 -19   -1.55    6.49
   1   5 -18   25.47    7.91
   1   5 -17    0.14    7.42
   1   5 -15  223.15   15.96
   1   5 -14   34.55    5.72
   1   5 -13    5.64    5.53
   1   5 -12    4.51    3.23
   1   5 -11   15.54    3.37
   1   5 -10  182.60    6.74
   1   5  -9   65.98    3.86
   1   5  -8  116.76    4.88
   1   5  -7   75.14    4.33
   1   5  -6   -3.26    2.27
   1   5  -5  202.71    5.41
   1   5  -4   28.68    2.28
   1   5  -3   84.25    3.27
   1   5  -2  176.24    5.36
   1   5  -1   18.99    2.27
   1   5   0   61.60    3.17
   1   5   1  375.10    7.36
   1   5   2   76.17    2.07
   1   5   3  112.44    2.52
   1   5   4   11.14    0.87
   1   5   5  210.90    5.51
   1   5   6   16.40    2.12
   1   5   7 1305.66   36.04
   1   5   8   -0.56    2.38
   1   5   9  440.25   12.46
   1   5  10   28.17    2.78
   1   5  11   26.57    2.93
   1   5  12  159.63    6.90
   1   5  13   41.12    4.72
   1   5  14   -0.14    2.99
   1   5  15   63.11    4.72
   1   5  16   26.20    3.89
   1   5  17   28.43    5.19
   1   5  18  105.50    9.26
   1   5  19   -1.00    3.67
   1   5  20   -4.94    3.96
   1   5  21   42.65    6.98
   1   5  22   12.94    5.64
   1   5  23    3.79    5.23
   1   6 -21    9.98    6.60
   1   6 -20   -0.83    5.19
   1   6 -19   32.08    6.19
   1   6 -18    2.38    5.75
   1   6 -17   45.18    9.09
   1   6 -16   20.90    5.98
   1   6 -15   25.11    5.60
   1   6 -14  461.94   29.09
   1   6 -13  141.57   10.17
   1   6 -12   -1.11    4.92
   1   6 -11   84.91    6.13
   1   6 -10    2.38    3.23
   1   6  -9   13.55    3.50
   1   6  -8  132.94    5.75
   1   6  -7  127.79    4.84
   1   6  -6   -1.11    3.09
   1   6  -5   21.88    2.78
   1   6  -4    9.17    2.66
   1   6  -3   21.67    2.65
   1   6  -2  251.68    7.53
   1   6  -1  217.85    5.96
   1   6   0 1543.92   36.39
   1   6   1  197.67    4.68
   1   6   2   40.96    1.52
   1   6   3   52.99    1.90
   1   6   4    1.11    0.86
   1   6   5  172.48    4.68
   1   6   6  384.35   12.11
   1   6   7   52.47    4.30
   1   6   8   23.93    3.13
   1   6   9  228.14    9.32
   1   6  10   -4.67    3.23
   1   6  11  465.02   18.44
   1   6  12   72.69    4.86
   1   6  13  295.64   13.89
   1   6  14   94.12    5.30
   1   6  15    3.93    2.26
   1   6  16  -11.69    6.09
   1   6  17   27.17    6.56
   1   6  18   37.55   12.37
   1   6  19    7.92    3.95
   1   6  20    6.33    4.78
   1   6  21   48.25   10.56
   1   6  22   35.11    7.74
   1   7 -20   18.78    9.05
   1   7 -19    2.54    6.35
   1   7 -18    9.76    7.49
   1   7 -17   -4.22    5.91
   1   7 -16   13.64    7.71
   1   7 -15   55.08    7.40
   1   7 -14   34.40    9.33
   1   7 -13   10.97    6.22
   1   7 -12  610.63   34.63
   1   7 -11   27.79    5.75
   1   7 -10   85.79    7.26
   1   7  -9    0.14    2.99
   1   7  -8    2.38    3.23
   1   7  -7    9.46    2.99
   1   7  -6   10.28    2.98
   1   7  -5    5.47    2.55
   1   7  -4   -2.24    2.52
   1   7  -3   25.47    2.99
   1   7  -2    7.78    2.85
   1   7  -1    5.20    2.54
   1   7   0    5.47    2.28
   1   7   1    2.68    1.40
   1   7   2  110.19    3.50
   1   7   3  197.67    4.68
   1   7   4  165.69    3.98
   1   7   5   54.55    1.75
   1   7   6    9.60    1.83
   1   7   7  279.13    8.33
   1   7   8   21.12    2.40
   1   7   9  348.88   11.53
   1   7  10   99.73    4.98
   1   7  11  136.53    6.66
   1   7  12    3.53    2.95
   1   7  13  108.94    6.44
   1   7  14   12.86    4.77
   1   7  15   13.99    4.79
   1   7  16    3.65    5.09
   1   7  17   73.29    7.32
   1   7  18    1.00    5.23
   1   7  19   31.54    8.53
   1   7  20   -1.27    5.78
   1   7  21   13.11    7.91
   1   8 -19   14.81    7.22
   1   8 -18  -10.74    7.78
   1   8 -17   52.81   12.61
   1   8 -16   49.92    9.39
   1   8 -15    3.93    4.95
   1   8 -14   14.81    9.40
   1   8 -13   33.04    7.91
   1   8 -12    2.81    5.88
   1   8 -11   60.12    9.76
   1   8 -10  507.95   28.37
   1   8  -9    0.28    8.22
   1   8  -8   -1.96    8.29
   1   8  -7    3.65    5.36
   1   8  -6   15.36    3.36
   1   8  -5  586.80   21.86
   1   8  -4    9.02    3.00
   1   8  -3   -1.27    2.68
   1   8  -2   23.82    3.48
   1   8  -1   69.49    3.96
   1   8   0    2.96    2.69
   1   8   1  157.53    5.06
   1   8   2   48.91    2.33
   1   8   3  233.56    6.18
   1   8   4    2.24    1.00
   1   8   5    4.51    1.02
   1   8   6   -2.24    1.28
   1   8   7  129.95    4.33
   1   8   8    3.09    1.42
   1   8   9   70.28    3.38
   1   8  10  104.29    4.61
   1   8  11    3.53    2.54
   1   8  12   19.40    3.24
   1   8  13  146.70   12.08
   1   8  14   16.78    7.30
   1   8  15    5.64    4.34
   1   8  16   53.33    8.32
   1   8  17  189.41   16.34
   1   8  18   46.62    6.16
   1   8  19   -3.79    4.62
   1   8  20  -11.86    6.78
   1   9 -17   38.86   11.11
   1   9 -16    2.68    6.77
   1   9 -15   -3.09    7.88
   1   9 -14    5.47    5.61
   1   9 -13    1.71    5.53
   1   9 -12   50.42    7.76
   1   9 -11    7.46    5.06
   1   9 -10   10.97    6.37
   1   9  -9   21.88    5.56
   1   9  -8   24.28    6.20
   1   9  -7   11.69    5.60
   1   9  -6    2.96    6.05
   1   9  -5   26.07    6.91
   1   9  -4   37.55    6.54
   1   9  -3    2.81    6.32
   1   9  -2   19.83    5.19
   1   9  -1   36.10    4.29
   1   9   0   16.10    2.10
   1   9   1   -0.83    1.13
   1   9   2    8.74    1.82
   1   9   3  103.31    3.62
   1   9   4  205.77    6.13
   1   9   5  176.56    4.74
   1   9   6  257.36    7.99
   1   9   7    5.09    2.14
   1   9   8    2.68    1.71
   1   9   9  177.18    8.22
   1   9  10   10.81    2.65
   1   9  11   25.35    3.23
   1   9  12   -8.74    6.18
   1   9  13   33.30    6.03
   1   9  14   50.76    8.46
   1   9  15    4.07    5.51
   1   9  16   20.04    6.91
   1   9  18    4.67    4.92
   1  10 -13    6.22    5.81
   1  10 -12   13.99    7.46
   1  10 -11    3.26    9.48
   1  10 -10   15.26    6.95
   1  10  -9   61.60    6.71
   1  10  -8   51.44    7.50
   1  10  -7   42.03    8.16
   1  10  -6   32.49    9.21
   1  10  -5   83.81    8.70
   1  10  -4    0.28    4.82
   1  10  -3   69.09    6.91
   1  10  -2   14.35    7.47
   1  10  -1    3.53    1.96
   1  10   0    8.32    6.92
   1  10   1   10.81    5.08
   1  10   2   38.27    7.35
   1  10   3    0.56    5.75
   1  10   4   51.78    6.15
   1  10   5   11.14    4.20
   1  10   6   -3.26    3.13
   1  10   7   22.56    5.19
   1  10   8   31.68    3.47
   1  10   9   73.10    6.09
   1  10  10    4.94    3.54
   1  10  11   31.81    7.77
   1  10  12    4.51    3.38
   1  10  13    3.93    3.53
   1  10  14   20.57    5.60
   1  10  15   39.61    8.22
   1  11 -11   10.43    7.21
   1  11 -10   12.10    9.01
   1  11  -9   -2.81    7.60
   1  11  -8   32.90    7.36
   1  11  -7   55.96    8.18
   1  11  -6    7.08    6.19
   1  11  -5   38.56    8.70
   1  11  -3   -3.53    6.46
   1  11  -2   -4.07    4.51
   1  11  -1   89.34    9.21
   1  11   0   95.04    9.26
   1  11   1   45.01    6.85
   1  11   2    4.07    7.63
   1  11   3   28.93    5.88
   1  11   4    6.77    5.19
   1  11   5    0.00    1.41
   1  11   6   11.29    3.84
   1  11   7   36.10    4.71
   1  11   8    7.21    3.82
   1  11   9   18.78    4.94
   1  11  10   30.88    4.88
   1  11  11    3.38    3.37
   1  11  12   15.36    5.22
   1  12  -6   10.59    6.88
   1  12  -5    1.55    6.36
   1  12  -4    9.60    5.67
   1  12  -3   30.36    6.81
   1  12  -2   65.78   10.79
   1  12  -1   43.27    8.12
   1  12   0    7.21    6.18
   1  12   1   47.93    7.06
   1  12   2    2.24    7.71
   1  12   3    5.64    6.32
   1  12   4   56.32   10.52
   1  12   5    0.42    5.10
   1  12   6   -8.19    6.19
   1  12   7    1.96    6.32
   2 -11  -2    1.96    4.36
   2 -11  -1   -5.75    4.10
   2 -11   0    0.42    5.10
   2 -11   1   18.37    5.09
   2 -11   2    4.51    4.79
   2 -10  -9   11.86    4.82
   2 -10  -8   40.96    5.17
   2 -10  -7    2.54    4.50
   2 -10  -6    7.92    3.95
   2 -10  -5   11.86    4.26
   2 -10  -4   -0.14    3.57
   2 -10  -3   31.15    5.84
   2 -10  -2   18.37    4.68
   2 -10  -1   10.74    4.82
   2 -10   0   -0.56    3.92
   2 -10   1   -1.27    4.10
   2 -10   2   57.57    9.38
   2 -10   3    5.47    6.33
   2 -10   4    6.64    4.78
   2 -10   5   13.82    4.50
   2 -10   6   14.35    4.41
   2 -10   7   -2.81    4.22
   2 -10   8    1.00    5.23
   2 -10   9   -2.81    4.09
   2 -10  10   -0.83    4.91
   2  -9 -13   -1.96    4.23
   2  -9 -12    8.74    4.50
   2  -9 -11   15.64    4.51
   2  -9 -10    8.74    3.79
   2  -9  -9    1.55    3.82
   2  -9  -8    8.60    4.39
   2  -9  -7   31.27    3.72
   2  -9  -6   15.26    4.82
   2  -9  -5   45.66    4.17
   2  -9  -4    7.33    4.12
   2  -9  -3   11.86    3.68
   2  -9  -2   13.99    3.55
   2  -9  -1   11.69    4.39
   2  -9   0   18.99    3.93
   2  -9   1  137.37    8.91
   2  -9   2  139.59    8.42
   2  -9   3   -0.14    3.57
   2  -9   4   86.67    6.19
   2  -9   5   14.09    4.54
   2  -9   6    3.65    4.77
   2  -9   7    7.92    4.34
   2  -9   8    3.09    5.47
   2  -9   9    3.26    4.67
   2  -9  10    9.76    5.12
   2  -9  11   47.26    7.67
   2  -9  12    1.41    4.23
   2  -9  13   28.30    4.92
   2  -9  14    8.32    5.89
   2  -8 -16   17.17    6.11
   2  -8 -15   -5.36    4.68
   2  -8 -14   18.89    6.30
   2  -8 -13   32.63    5.16
   2  -8 -12    2.81    3.38
   2  -8 -11   13.64    3.51
   2  -8 -10    6.22    3.37
   2  -8  -9   27.17    3.96
   2  -8  -8  133.22    7.12
   2  -8  -7   23.24    3.44
   2  -8  -6   18.99    4.24
   2  -8  -5   -4.07    3.64
   2  -8  -4   17.77    4.40
   2  -8  -3   44.22    4.43
   2  -8  -2   60.49    4.43
   2  -8  -1   67.71    5.27
   2  -8   0   12.44    4.36
   2  -8   1   51.44    4.43
   2  -8   2   67.53    5.08
   2  -8   3   14.81    4.75
   2  -8   4   12.03    5.36
   2  -8   5   18.89    4.13
   2  -8   6    2.54    3.67
   2  -8   7   75.35    5.57
   2  -8   8   -7.33    5.08
   2  -8   9  244.94   13.38
   2  -8  10    4.51    5.34
   2  -8  11    9.90    4.64
   2  -8  12    2.68    4.09
   2  -8  13   -0.56    4.50
   2  -8  14   16.68    4.55
   2  -8  15   26.57    5.75
   2  -8  16   10.81    4.37
   2  -8  17   22.00    5.34
   2  -7 -18   10.74    8.87
   2  -7 -17  159.93   17.41
   2  -7 -16    2.54    4.65
   2  -7 -15    6.03    2.68
   2  -7 -14   17.37    3.57
   2  -7 -13    2.10    3.23
   2  -7 -12   68.10    4.71
   2  -7 -11   65.98    5.02
   2  -7 -10    0.42    1.85
   2  -7  -9  124.32    5.30
   2  -7  -8   25.35    3.10
   2  -7  -7   44.70    4.13
   2  -7  -6  157.84    6.26
   2  -7  -5   29.31    3.34
   2  -7  -4    2.96    2.69
   2  -7  -3  310.11   12.13
   2  -7  -2   19.30    4.07
   2  -7  -1   15.07    3.51
   2  -7   0  200.68    8.08
   2  -7   1   42.96    4.20
   2  -7   2   31.68    4.27
   2  -7   3  161.43    6.64
   2  -7   4    8.88    3.40
   2  -7   5    9.46    4.68
   2  -7   6   78.89    3.79
   2  -7   7    0.42    1.99
   2  -7   8   22.79    3.06
   2  -7   9   -7.46    4.22
   2  -7  10    5.64    4.34
   2  -7  11   14.99    4.41
   2  -7  12    2.38    5.20
   2  -7  13   -1.83    4.09
   2  -7  14   20.25    4.81
   2  -7  15    1.96    3.79
   2  -7  16   12.52    4.79
   2  -7  17   11.86    4.82
   2  -7  18   47.43    5.72
   2  -7  19   26.20    5.95
   2  -6 -19   22.67    5.88
   2  -6 -18    2.24    2.66
   2  -6 -17    3.93    3.38
   2  -6 -16    0.14    2.99
   2  -6 -15   39.61    4.48
   2  -6 -14    1.96    2.96
   2  -6 -13   61.05    5.01
   2  -6 -12   72.69    4.26
   2  -6 -11   43.74    3.45
   2  -6 -10   12.69    2.71
   2  -6  -9    2.54    2.12
   2  -6  -8    3.65    1.68
   2  -6  -7    1.83    1.71
   2  -6  -6   39.02    2.66
   2  -6  -5   -1.83    2.66
   2  -6  -4   -1.71    2.82
   2  -6  -3   76.38    4.15
   2  -6  -2    0.42    2.68
   2  -6  -1   11.45    2.65
   2  -6   0    7.33    2.71
   2  -6   1  249.04    7.50
   2  -6   2   24.52    3.41
   2  -6   3   -0.71    2.68
   2  -6   4  210.90    6.90
   2  -6   5  207.81    5.82
   2  -6   6  100.44    3.33
   2  -6   7  200.01    8.39
   2  -6   8   14.09    6.33
   2  -6   9   52.81    3.10
   2  -6  10   22.11    2.23
   2  -6  11  187.13    7.15
   2  -6  12    5.36    1.71
   2  -6  13   15.82    2.55
   2  -6  14    0.28    4.54
   2  -6  15   17.67    3.99
   2  -6  16   -1.11    3.51
   2  -6  17   14.09    4.37
   2  -6  18    0.42    7.23
   2  -6  19   -7.92    6.49
   2  -6  20   -1.71    8.50
   2  -6  21    6.88    5.92
   2  -5 -21   20.47    4.40
   2  -5 -20    6.64    5.39
   2  -5 -19    6.64    3.24
   2  -5 -18    7.92    2.81
   2  -5 -17    1.83    3.09
   2  -5 -16    5.09    2.95
   2  -5 -15   50.08    4.54
   2  -5 -14  105.02    5.84
   2  -5 -13   19.83    2.86
   2  -5 -12   66.93    4.27
   2  -5 -11    2.96    2.82
   2  -5 -10   63.30    3.60
   2  -5  -9   26.93    3.69
   2  -5  -8  137.63    5.02
   2  -5  -7   46.46    2.75
   2  -5  -6    6.64    1.54
   2  -5  -5  112.20    3.53
   2  -5  -4   57.57    2.34
   2  -5  -3   81.23    3.85
   2  -5  -2   14.62    2.82
   2  -5  -1  118.57    4.13
   2  -5   0   86.67    3.76
   2  -5   1   12.10    2.23
   2  -5   2  252.42    7.16
   2  -5   3   15.07    2.86
   2  -5   4  417.14    9.22
   2  -5   5  103.81    3.14
   2  -5   6   47.60    3.12
   2  -5   7   90.02    4.06
   2  -5   8   29.06    2.17
   2  -5   9   63.30    3.02
   2  -5  10   -0.71    1.71
   2  -5  11    5.75    1.82
   2  -5  12    3.79    1.71
   2  -5  13  160.53    6.92
   2  -5  14  166.61    5.82
   2  -5  15   35.11    3.24
   2  -5  16   -0.56    2.95
   2  -5  17    5.92    3.82
   2  -5  18    7.21    5.36
   2  -5  19    6.77    6.18
   2  -5  20   13.99    6.03
   2  -5  21   -4.22    6.64
   2  -5  22    9.60    5.67
   2  -4 -22    1.83    3.37
   2  -4 -21    3.79    3.93
   2  -4 -20   17.08    4.12
   2  -4 -19   11.53    3.23
   2  -4 -18    3.65    3.54
   2  -4 -17   34.00    4.02
   2  -4 -16   16.88    3.12
   2  -4 -15   -2.38    2.68
   2  -4 -14    7.21    3.51
   2  -4 -13  142.98    5.68
   2  -4 -12  108.45    5.19
   2  -4 -11   45.81    3.86
   2  -4 -10   70.28    3.19
   2  -4  -9    0.00    1.41
   2  -4  -8   36.67    2.88
   2  -4  -7  131.58    5.17
   2  -4  -6    4.37    1.83
   2  -4  -5  300.15    9.87
   2  -4  -4  244.20    5.57
   2  -4  -3  222.79    5.32
   2  -4  -2   62.92    3.02
   2  -4  -1    0.71    1.85
   2  -4   0  148.72    4.34
   2  -4   1    1.11    2.12
   2  -4   2  507.95   11.77
   2  -4   3   43.27    1.88
   2  -4   4  244.57    5.57
   2  -4   5  465.52   11.79
   2  -4   6   38.13    2.06
   2  -4   7  297.69    7.37
   2  -4   8   23.35    1.49
   2  -4   9  126.45    4.00
   2  -4  10  140.44    4.78
   2  -4  11   23.82    3.02
   2  -4  12    0.42    1.99
   2  -4  13   24.99    3.57
   2  -4  14    2.96    3.40
   2  -4  15    1.83    3.79
   2  -4  16   -2.38    4.91
   2  -4  17   16.68    5.33
   2  -4  18   35.39    6.22
   2  -4  19    0.42    3.82
   2  -4  20   15.82    7.66
   2  -4  21   -0.71    5.67
   2  -4  22   14.35    6.02
   2  -4  23   11.14    7.37
   2  -3 -23    7.78    4.24
   2  -3 -22    5.92    4.10
   2  -3 -21   21.88    4.00
   2  -3 -20   33.16    4.92
   2  -3 -19    7.59    3.40
   2  -3 -18    0.00    1.41
   2  -3 -17   -2.81    3.21
   2  -3 -16   19.20    3.95
   2  -3 -15  181.96    9.29
   2  -3 -14  202.03    8.45
   2  -3 -13   39.45    3.29
   2  -3 -12  127.26    4.29
   2  -3 -11    2.54    1.82
   2  -3 -10   70.28    3.19
   2  -3  -9   61.60    3.17
   2  -3  -8 1087.38   25.06
   2  -3  -7  139.88    4.22
   2  -3  -6  246.43    7.08
   2  -3  -5   -0.28    1.57
   2  -3  -4  124.59    3.44
   2  -3  -3  185.18    5.17
   2  -3  -2  286.32    6.03
   2  -3  -1  102.11    3.12
   2  -3   0  483.11   11.48
   2  -3   1   -1.83    1.71
   2  -3   2  120.12    5.20
   2  -3   3   65.40    2.88
   2  -3   4    5.36    1.97
   2  -3   5    0.83    0.97
   2  -3   6   97.60    3.05
   2  -3   7  144.98    3.43
   2  -3   8   73.10    3.05
   2  -3   9 1021.08   22.01
   2  -3  10   27.17    1.97
   2  -3  11  257.36    7.61
   2  -3  12   40.96    3.05
   2  -3  13   14.62    2.64
   2  -3  14    2.54    6.35
   2  -3  15    3.38    2.98
   2  -3  16   90.24    9.70
   2  -3  17   18.99    6.11
   2  -3  18   17.37    6.73
   2  -3  19    7.59    5.50
   2  -3  20   21.01    5.56
   2  -3  21   44.70    8.09
   2  -3  23   53.51    8.86
   2  -3  24    9.46    7.23
   2  -2 -23   27.79    5.13
   2  -2 -22   42.03    5.54
   2  -2 -21    6.22    3.55
   2  -2 -20   98.79    6.84
   2  -2 -19    5.92    3.12
   2  -2 -18  147.28    7.78
   2  -2 -17  732.99   30.87
   2  -2 -16    7.46    3.12
   2  -2 -15    8.60    3.27
   2  -2 -14   47.60    3.44
   2  -2 -13   41.57    2.61
   2  -2 -12    1.96    1.83
   2  -2 -11    4.51    2.43
   2  -2 -10   18.58    2.86
   2  -2  -9   29.06    2.57
   2  -2  -8   -4.07    1.96
   2  -2  -7   92.51    3.20
   2  -2  -6   17.87    1.71
   2  -2  -5   -2.68    1.99
   2  -2  -4   88.45    3.36
   2  -2  -3 1222.09   29.06
   2  -2  -2  266.58    6.60
   2  -2  -1  143.84    3.13
   2  -2   0  141.00    3.38
   2  -2   1  131.30    3.54
   2  -2   2  463.48   10.22
   2  -2   3  117.79    3.86
   2  -2   4   56.32    2.14
   2  -2   5   88.89    2.47
   2  -2   6   23.70    1.51
   2  -2   7    4.78    1.55
   2  -2   8   32.49    1.76
   2  -2   9   95.97    3.50
   2  -2  10   36.53    2.58
   2  -2  11    0.56    3.67
   2  -2  12   18.47    3.06
   2  -2  13  145.26    6.30
   2  -2  14  182.60    8.02
   2  -2  15  106.73    6.37
   2  -2  16   13.11    3.53
   2  -2  17   52.81    4.84
   2  -2  18   80.16    8.08
   2  -2  19   -3.93    3.68
   2  -2  20   96.67   10.97
   2  -2  21   11.86    5.81
   2  -2  22  102.35   11.05
   2  -2  23   12.44    7.78
   2  -2  24    1.83    5.92
   2  -1 -24   30.63    6.97
   2  -1 -23    2.68    3.81
   2  -1 -22    5.92    3.12
   2  -1 -21    6.46    4.23
   2  -1 -20   15.64    5.82
   2  -1 -19    9.98    4.05
   2  -1 -18    8.19    3.67
   2  -1 -17    1.71    3.10
   2  -1 -16   13.38    3.21
   2  -1 -15   28.43    3.54
   2  -1 -14  118.05    4.13
   2  -1 -13  337.45    9.60
   2  -1 -12  292.38    7.71
   2  -1 -11    2.96    2.54
   2  -1 -10    3.38    1.58
   2  -1  -9  172.79    4.68
   2  -1  -8  171.85    4.36
   2  -1  -7   39.76    1.95
   2  -1  -6  261.18    7.29
   2  -1  -5 1191.56   27.06
   2  -1  -4    3.65    2.27
   2  -1  -3   47.93    2.14
   2  -1  -2  333.97    7.81
   2  -1  -1  305.10    7.47
   2  -1   0  614.73   14.72
   2  -1   1  992.44   26.93
   2  -1   2  293.60    7.32
   2  -1   3   99.01    2.59
   2  -1   4 2503.91   60.60
   2  -1   5 1459.26   29.94
   2  -1   6   26.07    1.58
   2  -1   7   80.16    3.19
   2  -1   8    4.07    1.82
   2  -1   9   59.02    2.74
   2  -1  10    2.54    1.82
   2  -1  11   -6.33    2.27
   2  -1  12   96.67    3.74
   2  -1  13   -3.53    3.65
   2  -1  14    2.81    2.66
   2  -1  15  112.44    5.29
   2  -1  16   66.36    4.26
   2  -1  17    7.59    2.95
   2  -1  18   30.09    5.47
   2  -1  19    8.74    4.92
   2  -1  20    5.75    4.61
   2  -1  21    3.93    5.09
   2  -1  22   -1.41    4.51
   2  -1  23   48.74    8.95
   2  -1  24   22.22    7.28
   2  -1  25    0.28    6.53
   2   0 -24   -0.14    5.13
   2   0 -23   57.22    9.52
   2   0 -22   68.50    9.43
   2   0 -21   53.16    9.35
   2   0 -20    4.67    5.23
   2   0 -19    1.41    6.49
   2   0 -18   -1.00    2.85
   2   0 -17   -1.27    3.54
   2   0 -16   58.84    7.11
   2   0 -15    4.94    5.64
   2   0 -14   54.91    3.53
   2   0 -13  103.81    4.60
   2   0 -12  109.94    4.23
   2   0 -11  232.82    6.53
   2   0 -10 1046.27   25.35
   2   0  -9   -0.14    1.57
   2   0  -8  505.81    9.62
   2   0  -7   23.35    1.49
   2   0  -6   -1.00    1.28
   2   0  -5   11.69    1.38
   2   0  -4    8.88    1.41
   2   0  -3  283.52    6.80
   2   0  -2    3.79    1.11
   2   0  -1   28.17    1.02
   2   0   0  240.13    6.63
   2   0   1 1573.92   33.93
   2   0   2  749.80   21.46
   2   0   4 1628.08   41.20
   2   0   5  258.88    8.40
   2   0   6  482.06   13.03
   2   0   7  151.34    6.13
   2   0   8   -2.24    1.82
   2   0   9   31.54    2.27
   2   0  10   78.68    4.00
   2   0  11  272.43    9.01
   2   0  12  154.57    5.61
   2   0  13 1296.24   41.89
   2   0  14   48.74    4.31
   2   0  15  114.72    6.11
   2   0  16  484.15   16.72
   2   0  17   18.58    3.48
   2   0  18   15.64    3.95
   2   0  19    8.74    5.89
   2   0  20    2.38    4.36
   2   0  21   18.08    5.95
   2   0  22   15.07    7.01
   2   0  23    6.33    4.91
   2   0  24    2.54    5.06
   2   0  25   12.86    9.28
   2   1 -24   17.67    6.78
   2   1 -23  -18.08    8.98
   2   1 -22   68.50   10.62
   2   1 -21  218.91   20.02
   2   1 -20   -5.75    4.61
   2   1 -19    6.33    4.78
   2   1 -18    1.11    3.51
   2   1 -17  263.49   14.27
   2   1 -16   12.52    4.96
   2   1 -15  172.17   10.59
   2   1 -14   97.38    5.16
   2   1 -13   10.28    2.13
   2   1 -12    3.93    2.40
   2   1 -11  269.70    7.02
   2   1 -10   19.20    2.71
   2   1  -9  530.68   12.04
   2   1  -8   59.57    2.57
   2   1  -7  479.98   11.97
   2   1  -6  363.22    9.50
   2   1  -5  486.24   11.52
   2   1  -4   58.12    2.17
   2   1  -3  423.48    9.29
   2   1  -2  211.25    4.84
   2   1  -1  728.49   18.58
   2   1   0   32.63    1.09
   2   1   1  725.29   17.91
   2   1   2  554.47   11.18
   2   1   3 1033.24   33.59
   2   1   4   29.19    1.41
   2   1   5  329.64    9.05
   2   1   6  532.87   14.26
   2   1   7  154.86    5.61
   2   1   8   -1.11    1.25
   2   1   9   27.04    2.59
   2   1  10   19.40    2.09
   2   1  11   11.69    2.12
   2   1  12  230.30    7.92
   2   1  13    2.38    2.52
   2   1  14   56.50    4.64
   2   1  15   -0.14    2.57
   2   1  16   24.28    2.93
   2   1  17    4.22    2.98
   2   1  18  194.67    9.28
   2   1  19   41.27    4.12
   2   1  20   18.89    5.26
   2   1  21   66.55    6.39
   2   1  22   22.45    4.61
   2   1  23    2.81    6.05
   2   1  24    9.76    7.35
   2   1  25   24.99    5.34
   2   2 -24   54.20    9.79
   2   2 -23    5.64    5.36
   2   2 -22    6.33    7.59
   2   2 -21    1.71    4.96
   2   2 -20   34.40    6.40
   2   2 -19   22.56    5.64
   2   2 -18   -3.79    4.48
   2   2 -17   62.17    8.23
   2   2 -16    5.64    4.12
   2   2 -15   80.58    4.70
   2   2 -14  124.05    5.56
   2   2 -13   50.42    3.54
   2   2 -12  148.43    5.78
   2   2 -11   20.15    2.55
   2   2 -10  209.53    6.19
   2   2  -9   73.91    2.86
   2   2  -8 1144.50   26.51
   2   2  -7    6.64    1.83
   2   2  -6   17.08    1.86
   2   2  -5   68.89    2.76
   2   2  -4    4.67    1.54
   2   2  -3  847.75   20.74
   2   2  -2  444.75    9.52
   2   2  -1  277.95    5.54
   2   2   0  596.04   15.65
   2   2   1  137.63    3.62
   2   2   2  680.60   14.26
   2   2   3  177.51    6.33
   2   2   4  329.64    9.91
   2   2   5  355.57    9.40
   2   2   6   56.68    1.79
   2   2   7 1002.94   33.84
   2   2   8  381.56   12.06
   2   2   9  630.14   21.46
   2   2  10    2.38    1.54
   2   2  11  176.87    6.63
   2   2  12   64.06    3.61
   2   2  13   11.29    2.71
   2   2  14  105.26    4.88
   2   2  15   54.55    3.86
   2   2  16   17.08    3.14
   2   2  17   21.33    3.51
   2   2  18   11.14    3.96
   2   2  19   -4.07    2.68
   2   2  20    4.22    4.92
   2   2  21    5.92    7.16
   2   2  22   21.56    5.95
   2   2  23  216.10   22.69
   2   2  24    7.33    5.08
   2   2  25   -1.71    5.09
   2   3 -23    0.56    9.42
   2   3 -22    8.60    6.35
   2   3 -21   25.94    6.77
   2   3 -19    6.03    5.60
   2   3 -18   22.67    4.98
   2   3 -17   11.29    5.51
   2   3 -16   34.97    5.06
   2   3 -15  305.53   15.36
   2   3 -14  184.86    9.04
   2   3 -13    3.26    3.38
   2   3 -12    3.93    3.24
   2   3 -11   49.42    3.17
   2   3 -10  335.28    8.26
   2   3  -9   -1.41    1.69
   2   3  -8    8.60    2.09
   2   3  -7    0.56    2.12
   2   3  -6  289.96    9.31
   2   3  -5  269.70    6.63
   2   3  -4 1574.87   35.81
   2   3  -3 1389.35   37.18
   2   3  -2   24.99    2.02
   2   3  -1  147.28    3.75
   2   3   0   58.84    1.64
   2   3   1   94.81    2.09
   2   3   2  258.88    4.96
   2   3   3  125.65    2.93
   2   3   4   14.62    1.09
   2   3   5   28.81    1.40
   2   3   6   10.59    1.16
   2   3   7  570.80   14.75
   2   3   8   34.69    2.52
   2   3   9   52.81    2.41
   2   3  10  166.91    5.82
   2   3  11  217.85    7.71
   2   3  12  128.86    5.67
   2   3  13   56.32    4.10
   2   3  14  192.36    7.57
   2   3  15   12.27    3.07
   2   3  16   30.48    3.41
   2   3  17   46.46    4.53
   2   3  18  223.50   10.65
   2   3  19   11.45    4.10
   2   3  20   97.14    9.83
   2   3  21    9.31    4.20
   2   3  22    4.67    6.63
   2   3  23    5.09    4.23
   2   3  24    3.79    5.23
   2   3  25   46.78   11.04
   2   4 -23   -3.09    4.79
   2   4 -22   76.79    8.32
   2   4 -21   27.55    6.61
   2   4 -20   37.39    7.40
   2   4 -19   39.45    7.30
   2   4 -18   59.76    7.53
   2   4 -17   -0.14    5.57
   2   4 -16  244.94   15.61
   2   4 -15   -0.14    4.99
   2   4 -14   56.85    5.02
   2   4 -13   43.12    4.22
   2   4 -12  143.27    5.68
   2   4 -11    2.38    2.68
   2   4 -10    1.83    2.12
   2   4  -9    2.68    2.10
   2   4  -8   37.55    3.20
   2   4  -7   88.89    3.58
   2   4  -6   32.49    2.57
   2   4  -5  236.83    6.94
   2   4  -4   16.20    2.00
   2   4  -3  248.67    6.74
   2   4  -2  276.76    6.71
   2   4  -1 1181.75   26.13
   2   4   0    2.54    1.96
   2   4   1  453.30    9.60
   2   4   2    1.11    0.97
   2   4   3   20.15    1.28
   2   4   4 1374.35   32.57
   2   4   5   10.12    1.13
   2   4   6   61.99    2.43
   2   4   7   81.02    2.78
   2   4   8    5.09    1.55
   2   4   9  371.88   10.53
   2   4  10  874.94   25.99
   2   4  11 1075.66   31.94
   2   4  12  517.09   15.67
   2   4  13  115.23    5.10
   2   4  14    7.92    2.41
   2   4  15    1.00    1.99
   2   4  16  116.26    7.16
   2   4  17   -2.10    3.10
   2   4  18  122.22    6.82
   2   4  19    0.83    3.50
   2   4  20   10.81    4.61
   2   4  21   -0.28    4.68
   2   4  22   25.70    6.50
   2   4  23    7.78    4.96
   2   4  24    2.96    6.22
   2   5 -22   -6.03    9.00
   2   5 -21    2.96    8.35
   2   5 -20    7.78    7.76
   2   5 -19   34.83    6.16
   2   5 -18    8.05    5.06
   2   5 -17   -1.83    6.08
   2   5 -16   -1.27    6.35
   2   5 -15   16.68    4.75
   2   5 -14  857.47   50.76
   2   5 -13   80.16    5.53
   2   5 -12    1.71    2.98
   2   5 -11    8.19    3.54
   2   5 -10  198.67    7.04
   2   5  -9  507.95   14.45
   2   5  -8  984.96   27.58
   2   5  -7   81.44    3.43
   2   5  -6   37.25    2.75
   2   5  -5   -2.38    2.13
   2   5  -4   42.81    2.33
   2   5  -3   52.81    2.59
   2   5  -2   21.88    2.12
   2   5  -1    5.09    1.99
   2   5   0   45.01    2.55
   2   5   1   38.13    2.06
   2   5   2   57.04    2.88
   2   5   3    4.67    1.13
   2   5   4  112.94    3.03
   2   5   5   27.55    1.75
   2   5   6  291.98    7.71
   2   5   7  294.01    6.92
   2   5   8    0.83    1.54
   2   5   9   12.69    1.86
   2   5  10   13.55    2.71
   2   5  11    9.60    2.58
   2   5  12   26.07    3.40
   2   5  13  513.86   15.61
   2   5  14    3.79    3.10
   2   5  15   80.16    4.89
   2   5  16  119.60    6.75
   2   5  17   -1.27    2.81
   2   5  18    1.00    2.85
   2   5  19   17.08    4.41
   2   5  20   15.54    4.96
   2   5  21   24.28    6.09
   2   5  22   16.50    5.20
   2   5  23    3.26    5.36
   2   5  24   -1.96    7.88
   2   6 -21    5.75    5.08
   2   6 -20   15.82    6.90
   2   6 -19   21.45    7.47
   2   6 -18    6.64    5.94
   2   6 -16   33.85    7.74
   2   6 -15   19.30    4.79
   2   6 -14    8.46    7.88
   2   6 -13   52.30    6.87
   2   6 -12  765.49   32.19
   2   6 -11  163.86    7.91
   2   6 -10   65.40    4.99
   2   6  -9   51.78    3.41
   2   6  -8   45.81    3.69
   2   6  -7  222.08    7.43
   2   6  -6   22.00    2.79
   2   6  -5  299.32    7.81
   2   6  -4   77.64    3.76
   2   6  -3  113.71    4.05
   2   6  -2   -2.54    1.82
   2   6  -1  583.36   13.76
   2   6   0  419.57    9.73
   2   6   1 1038.60   19.90
   2   6   2   80.16    3.19
   2   6   3    0.28    1.13
   2   6   4   72.29    2.23
   2   6   5    0.71    1.28
   2   6   6  162.34    4.84
   2   6   7    6.46    1.80
   2   6   8   34.55    2.10
   2   6   9  178.14    5.39
   2   6  10   37.39    2.47
   2   6  11  210.90    7.94
   2   6  12  179.41    6.99
   2   6  13   12.86    3.92
   2   6  14   -1.00    3.10
   2   6  15  329.64   15.52
   2   6  16  237.56   13.55
   2   6  17   43.74    3.61
   2   6  18   73.70    7.13
   2   6  19    1.71    6.23
   2   6  20   50.25    6.57
   2   6  21    4.37    4.22
   2   6  22    1.11    5.75
   2   6  23   12.27    5.25
   2   7 -20   -6.33    5.20
   2   7 -19   31.15    6.63
   2   7 -18    0.28    5.10
   2   7 -17   47.93    8.88
   2   7 -16   13.64    6.32
   2   7 -15   -0.83    5.19
   2   7 -14   15.26    5.75
   2   7 -13  413.27   23.18
   2   7 -12   57.94    8.32
   2   7 -11   25.83    6.99
   2   7 -10  181.33    8.95
   2   7  -9    2.38    4.77
   2   7  -8    4.22    3.95
   2   7  -7   20.90    2.71
   2   7  -6  104.77    4.62
   2   7  -5    8.60    3.27
   2   7  -4   -2.54    2.68
   2   7  -3    7.08    2.65
   2   7  -2   -2.24    2.95
   2   7  -1   85.35    3.29
   2   7   0   -3.65    1.82
   2   7   1   -0.42    1.99
   2   7   2   11.14    2.21
   2   7   3    2.54    0.72
   2   7   4   27.30    2.12
   2   7   5   74.52    2.45
   2   7   6   52.99    2.43
   2   7   7   19.61    1.79
   2   7   8   69.68    3.17
   2   7   9  165.99    5.51
   2   7  10    0.83    2.24
   2   7  11   24.41    2.69
   2   7  12   28.30    2.65
   2   7  13   16.78    2.24
   2   7  14   52.47    3.96
   2   7  15   39.02    5.05
   2   7  16   31.02    3.57
   2   7  17    5.09    4.40
   2   7  18    0.00    1.41
   2   7  19   66.93    7.77
   2   7  20   14.52    5.25
   2   7  21   15.26    5.19
   2   7  22   26.57    7.35
   2   8 -19   -5.64    6.60
   2   8 -18   -4.78    7.16
   2   8 -17    1.83    6.63
   2   8 -16    2.38    8.02
   2   8 -15   92.74   12.35
   2   8 -14    6.22    7.76
   2   8 -13    3.93    4.39
   2   8 -12    2.10    5.88
   2   8 -11   39.45    7.01
   2   8 -10   92.74    9.38
   2   8  -9  152.51   12.90
   2   8  -8  335.70   13.93
   2   8  -7  297.69   12.70
   2   8  -6    0.83    4.06
   2   8  -5   76.79    4.99
   2   8  -4  124.59    6.09
   2   8  -3  110.94    5.01
   2   8  -2    9.46    2.71
   2   8  -1    8.32    2.54
   2   8   0   13.64    2.81
   2   8   1   26.07    2.66
   2   8   2   63.48    2.65
   2   8   3   18.99    1.24
   2   8   4  177.18    4.74
   2   8   5  102.83    3.85
   2   8   6   23.12    1.95
   2   8   7  216.81    6.64
   2   8   8  212.28    5.88
   2   8   9    0.42    1.71
   2   8  10    3.65    2.54
   2   8  11    2.68    2.83
   2   8  12    4.37    1.83
   2   8  13  197.33   11.34
   2   8  14    9.46    3.79
   2   8  15   52.81    6.73
   2   8  16   38.13    6.46
   2   8  17   -6.22    6.63
   2   8  18   12.03    5.68
   2   8  19   39.76    7.78
   2   8  20   81.02   12.39
   2   9 -17   51.10    9.84
   2   9 -16    2.10    5.74
   2   9 -15    4.67    5.49
   2   9 -14    8.60    5.78
   2   9 -13  -10.28    6.16
   2   9 -12   51.78    7.18
   2   9 -11  -11.86    7.77
   2   9 -10    5.36    5.23
   2   9  -9   27.79    5.26
   2   9  -8    2.68    5.10
   2   9  -7   64.24    8.76
   2   9  -6   36.67    5.17
   2   9  -5  360.97   14.44
   2   9  -4   81.44    6.43
   2   9  -3   12.27    3.24
   2   9  -2   56.32    4.64
   2   9  -1   32.63    5.16
   2   9   0   47.93    4.60
   2   9   1   75.14    3.71
   2   9   2    2.54    1.28
   2   9   3    6.64    1.10
   2   9   4  381.56   14.38
   2   9   5   26.80    2.09
   2   9   6    6.33    1.55
   2   9   7   31.42    2.26
   2   9   8    6.22    1.72
   2   9   9   30.75    2.37
   2   9  10    7.78    1.99
   2   9  11   24.99    2.50
   2   9  12    0.83    2.38
   2   9  13   42.96    7.32
   2   9  14   25.94    4.47
   2   9  15    0.00    1.41
   2   9  16  100.20    9.98
   2   9  17    4.37    5.36
   2   9  18   41.27    8.23
   2   9  19   -3.65    5.36
   2  10 -15    8.88    6.37
   2  10 -14   10.81    7.57
   2  10 -13    9.90    9.19
   2  10 -12   15.07    6.91
   2  10 -11    1.11    6.02
   2  10 -10   10.59    5.80
   2  10  -9    6.64    5.51
   2  10  -8   79.31    7.40
   2  10  -7   48.25    6.27
   2  10  -6   53.85    7.84
   2  10  -5  184.53   12.58
   2  10  -4   78.68   10.11
   2  10  -3  144.40    9.42
   2  10  -2   12.27    5.82
   2  10  -1   -3.26    4.12
   2  10   0    2.81    2.38
   2  10   1   -0.28    1.71
   2  10   2   21.12    4.03
   2  10   3   14.35    4.23
   2  10   4  151.64    6.43
   2  10   5   11.29    2.71
   2  10   6    0.28    2.98
   2  10   7    1.83    3.95
   2  10   8   70.68    4.99
   2  10   9   38.13    4.99
   2  10  10   20.90    4.23
   2  10  11   17.17    3.34
   2  10  12    5.64    2.93
   2  10  13   65.40    5.57
   2  10  14   19.61    4.62
   2  10  15   23.35    8.15
   2  10  16    6.33    5.50
   2  11 -12   -1.27    9.32
   2  11 -11   10.97    8.02
   2  11 -10   51.27   10.89
   2  11  -9    9.31    6.60
   2  11  -8   -3.09    6.60
   2  11  -7    4.22    6.35
   2  11  -6   89.57    7.87
   2  11  -5    4.67    5.49
   2  11  -4   38.13    6.74
   2  11  -3   12.69    6.77
   2  11  -2   31.42    5.33
   2  11  -1    1.11    4.22
   2  11   0   11.69    4.55
   2  11   1   37.39    6.53
   2  11   2    5.09    5.51
   2  11   3   59.76    7.90
   2  11   4   -1.27    5.51
   2  11   5   46.78    6.01
   2  11   6   16.20    3.34
   2  11   7   -3.65    4.62
   2  11   8   49.25    6.50
   2  11   9   34.40    5.16
   2  11  10   24.17    4.09
   2  11  11   26.20    5.10
   2  11  12   12.10    4.39
   2  11  13   -2.54    3.82
   2  12  -7    3.09    5.92
   2  12  -6    1.71    5.80
   2  12  -5   -0.28    5.96
   2  12  -4    3.53    5.80
   2  12  -3    1.71    5.53
   2  12  -2   14.62    8.45
   2  12  -1   33.57    7.02
   2  12   0    3.65    5.63
   2  12   1   14.99    4.78
   2  12   2   14.26    6.09
   2  12   3   16.20    5.64
   2  12   4   62.55    8.64
   2  12   5   24.63    6.01
   2  12   7    8.46    4.48
   2  12   8    5.92    3.64
   2  12   9   10.43    4.75
   3 -10  -6   43.12    8.26
   3 -10  -5    1.71    7.63
   3 -10  -4   -6.22    4.92
   3 -10  -3   48.42    7.43
   3 -10  -2    4.07    5.75
   3 -10  -1    6.22   10.01
   3 -10   0  -14.35    7.02
   3 -10   1   -1.83    6.33
   3 -10   2    8.19    6.05
   3 -10   3    5.20    4.06
   3 -10   4   -2.81    4.22
   3 -10   5   21.88    4.55
   3 -10   6   -2.24    5.33
   3 -10   7    4.22    5.91
   3  -9 -11   25.47    4.31
   3  -9 -10  150.17    9.31
   3  -9  -9    0.28    4.24
   3  -9  -8   44.06    5.05
   3  -9  -7    5.47    4.33
   3  -9  -6   48.59    5.30
   3  -9  -5   19.83    4.23
   3  -9  -4   11.53    4.36
   3  -9  -3    5.47    5.06
   3  -9  -2    7.78    3.98
   3  -9  -1   57.22    6.29
   3  -9   0   10.97    4.33
   3  -9   1  242.34   13.68
   3  -9   2    9.17    4.39
   3  -9   3   79.74    5.72
   3  -9   4    9.17    4.39
   3  -9   5   -3.26    3.82
   3  -9   6   16.50    4.53
   3  -9   7   44.70    4.92
   3  -9   8   -2.81    4.09
   3  -9   9    3.65    4.09
   3  -9  10    2.81    4.65
   3  -9  11   26.68    6.37
   3  -9  12   22.79    5.22
   3  -8 -14   11.86    3.92
   3  -8 -13   40.67    5.46
   3  -8 -12   13.64    4.47
   3  -8 -11  155.46   10.07
   3  -8 -10   -0.83    2.95
   3  -8  -9   96.67    7.01
   3  -8  -8    9.98    2.85
   3  -8  -7    7.33    3.41
   3  -8  -6   63.86    4.94
   3  -8  -5   -3.79    3.65
   3  -8  -4   -1.83    3.95
   3  -8  -3    3.65    2.95
   3  -8  -2    3.65    4.62
   3  -8  -1    5.47    3.95
   3  -8   0   22.00    4.79
   3  -8   1    1.55    3.37
   3  -8   2    1.96    3.23
   3  -8   3   40.81    3.79
   3  -8   4   33.04    4.78
   3  -8   5   17.87    4.12
   3  -8   6    1.83    4.09
   3  -8   7    2.68    3.98
   3  -8   8   -2.54    5.06
   3  -8   9   25.83    5.08
   3  -8  10    4.67    8.47
   3  -8  11   61.99    5.61
   3  -8  12   14.09    3.84
   3  -8  13    2.96    5.23
   3  -8  14    8.46    4.48
   3  -8  15   -0.71    5.25
   3  -7 -16    4.07    5.89
   3  -7 -15   -1.96    5.36
   3  -7 -14   -4.51    2.12
   3  -7 -13    9.02    2.85
   3  -7 -12    2.68    2.96
   3  -7 -11   28.81    3.19
   3  -7 -10    4.37    2.23
   3  -7  -9    5.47    2.12
   3  -7  -8   48.59    4.13
   3  -7  -7   52.64    4.65
   3  -7  -6    9.90    4.12
   3  -7  -5   28.93    3.06
   3  -7  -4   45.01    4.46
   3  -7  -3   75.35    4.12
   3  -7  -2  113.20    6.06
   3  -7  -1   47.11    4.24
   3  -7   0   -1.27    3.37
   3  -7   1   42.65    3.88
   3  -7   2   10.97    3.38
   3  -7   3   48.91    5.32
   3  -7   4   14.26    3.95
   3  -7   5   -2.81    3.38
   3  -7   6   -0.14    3.85
   3  -7   7   11.86    3.92
   3  -7   8   12.03    2.96
   3  -7   9   73.91    5.92
   3  -7  10   33.85    4.00
   3  -7  11   32.63    4.75
   3  -7  12   -0.83    3.93
   3  -7  13   18.37    3.67
   3  -7  14   -0.71    4.39
   3  -7  15   39.02    6.67
   3  -7  16    1.71    4.53
   3  -7  17    9.98    4.95
   3  -7  18    6.77    7.16
   3  -6 -18   27.04    8.64
   3  -6 -17   87.34    7.11
   3  -6 -16    4.78    2.96
   3  -6 -15   52.47    4.64
   3  -6 -14    1.71    3.41
   3  -6 -13   15.64    4.23
   3  -6 -12   24.52    2.95
   3  -6 -11    0.83    2.95
   3  -6 -10   -4.37    3.23
   3  -6  -9  121.43    6.27
   3  -6  -8  153.10    5.58
   3  -6  -7   86.22    4.19
   3  -6  -6  158.73    5.39
   3  -6  -5    8.05    2.57
   3  -6  -4    6.46    2.96
   3  -6  -3   21.01    3.69
   3  -6  -2   -1.41    2.26
   3  -6  -1   -4.22    2.54
   3  -6   0   19.30    3.23
   3  -6   1    4.37    2.68
   3  -6   2    9.76    2.82
   3  -6   3  144.98    5.43
   3  -6   4   88.23    4.46
   3  -6   5    8.74    3.37
   3  -6   6  708.13   20.22
   3  -6   7   19.40    1.68
   3  -6   8   16.20    2.10
   3  -6   9   10.12    3.40
   3  -6  10    9.76    3.93
   3  -6  11    6.03    1.80
   3  -6  12    0.14    4.00
   3  -6  13    2.54    3.82
   3  -6  14   43.12    4.68
   3  -6  15    5.20    4.39
   3  -6  16    9.98    5.33
   3  -6  17    3.38    5.20
   3  -6  18   98.79   11.34
   3  -6  19    1.11    6.02
   3  -6  20    2.10    6.05
   3  -5 -19   23.35    4.36
   3  -5 -18    1.83    3.54
   3  -5 -17   14.52    4.07
   3  -5 -16    5.75    2.79
   3  -5 -15   51.95    4.62
   3  -5 -14   12.44    3.93
   3  -5 -13   84.25    5.88
   3  -5 -12  172.48    8.42
   3  -5 -11    7.21    3.12
   3  -5 -10  215.06    8.36
   3  -5  -9    1.41    2.82
   3  -5  -8   82.74    4.31
   3  -5  -7   69.09    3.95
   3  -5  -6  428.86   10.81
   3  -5  -5   71.69    3.02
   3  -5  -4  117.54    3.61
   3  -5  -3  153.38    5.29
   3  -5  -2   14.62    2.09
   3  -5  -1  144.40    5.13
   3  -5   0   45.49    2.88
   3  -5   1   52.99    3.29
   3  -5   2   46.46    3.24
   3  -5   3   30.63    2.62
   3  -5   4   82.95    4.54
   3  -5   5   31.54    3.47
   3  -5   6  104.77    3.40
   3  -5   7    2.38    3.07
   3  -5   8    5.36    2.98
   3  -5   9    0.56    1.83
   3  -5  10   37.11    2.61
   3  -5  11   49.75    2.85
   3  -5  12    4.94    2.27
   3  -5  13   -0.83    1.82
   3  -5  14   25.23    2.86
   3  -5  15   -4.07    2.26
   3  -5  16   93.89    9.21
   3  -5  17   26.57    8.57
   3  -5  18   -9.31    5.94
   3  -5  19    2.24    5.19
   3  -5  20   18.47    6.74
   3  -5  21    7.33    5.78
   3  -4 -21   10.97    4.48
   3  -4 -20    7.59    3.54
   3  -4 -19   -1.71    3.54
   3  -4 -18   12.69    4.06
   3  -4 -17    5.47    2.95
   3  -4 -16   66.36    5.22
   3  -4 -15    6.22    2.66
   3  -4 -14    3.79    4.07
   3  -4 -13    2.10    3.10
   3  -4 -12    6.22    3.07
   3  -4 -11    0.83    6.30
   3  -4 -10   -1.55    2.55
   3  -4  -9   19.83    2.65
   3  -4  -8  168.15    5.23
   3  -4  -7   -2.10    2.37
   3  -4  -6    0.42    2.13
   3  -4  -5  306.36    9.15
   3  -4  -4  243.09    5.92
   3  -4  -3  127.26    3.48
   3  -4  -2   20.69    2.27
   3  -4  -1  290.35    7.68
   3  -4   0  160.83    4.82
   3  -4   1  287.53    7.66
   3  -4   2  504.75   12.80
   3  -4   3   31.27    2.92
   3  -4   4    9.76    2.23
   3  -4   5   30.88    3.43
   3  -4   6  244.20    7.05
   3  -4   7   56.50    3.03
   3  -4   8  181.96    5.44
   3  -4   9    2.81    1.55
   3  -4  10   11.14    1.66
   3  -4  11    6.77    2.10
   3  -4  12   39.61    2.54
   3  -4  13  299.74   10.28
   3  -4  14    0.28    1.85
   3  -4  15   -1.83    1.96
   3  -4  16   -3.53    2.95
   3  -4  17    1.27    4.67
   3  -4  18   46.14    7.91
   3  -4  19    3.79    6.47
   3  -4  20   67.33    7.80
   3  -4  21    0.14    9.14
   3  -4  22  -11.53    7.50
   3  -3 -22    8.32    4.12
   3  -3 -21   -0.71    3.96
   3  -3 -20   -2.24    3.23
   3  -3 -19   44.53    4.75
   3  -3 -18    9.98    3.53
   3  -3 -17  127.79    8.32
   3  -3 -16    7.33    2.96
   3  -3 -15   13.99    3.82
   3  -3 -14    6.22    2.43
   3  -3 -13  418.12   14.09
   3  -3 -12   -1.55    2.96
   3  -3 -11   23.70    2.66
   3  -3 -10  169.06    6.18
   3  -3  -9   33.85    2.62
   3  -3  -8   51.61    3.24
   3  -3  -7    0.42    1.85
   3  -3  -6   51.61    2.90
   3  -3  -5   17.47    1.79
   3  -3  -4   62.35    3.19
   3  -3  -3   11.53    1.13
   3  -3  -2   32.35    1.89
   3  -3  -1   47.43    1.96
   3  -3   0   79.10    2.75
   3  -3   1  964.21   22.86
   3  -3   2  251.68    7.53
   3  -3   3  269.70    6.63
   3  -3   4  171.54    5.29
   3  -3   5  163.86    4.86
   3  -3   6  143.27    5.12
   3  -3   7    8.46    1.66
   3  -3   8   40.36    1.96
   3  -3   9  140.16    4.78
   3  -3  10  124.59    3.71
   3  -3  11  129.41    4.05
   3  -3  12   44.06    2.99
   3  -3  13   24.41    2.82
   3  -3  14    9.60    2.79
   3  -3  15    1.96    1.69
   3  -3  16   17.77    3.50
   3  -3  17   11.29    4.62
   3  -3  18   68.30    7.26
   3  -3  19    4.37    8.33
   3  -3  20   12.69    6.77
   3  -3  21   48.91    8.80
   3  -3  22   17.47    6.05
   3  -3  23    3.53    5.61
   3  -2 -22    3.65    2.95
   3  -2 -21    6.77    3.64
   3  -2 -20   47.11    5.54
   3  -2 -19    3.09    3.38
   3  -2 -18    8.60    3.55
   3  -2 -17   -0.42    3.68
   3  -2 -16   19.40    3.24
   3  -2 -15    6.22    3.37
   3  -2 -14    6.22    2.85
   3  -2 -13  107.46    4.68
   3  -2 -12   22.45    2.37
   3  -2 -11   18.08    2.12
   3  -2 -10   36.10    2.28
   3  -2  -9   15.82    2.07
   3  -2  -8  380.62   10.19
   3  -2  -7    3.93    1.97
   3  -2  -6  165.69    5.20
   3  -2  -5  167.22    4.61
   3  -2  -4  117.54    3.61
   3  -2  -3  482.58   10.96
   3  -2  -2   53.16    2.26
   3  -2  -1   -1.11    0.71
   3  -2   0  401.30    8.09
   3  -2   1  145.26    4.00
   3  -2   2    5.36    1.42
   3  -2   3   85.35    2.85
   3  -2   4  446.25   10.53
   3  -2   5   19.73    1.27
   3  -2   6  200.68    4.71
   3  -2   7   12.86    1.28
   3  -2   8   95.74    3.26
   3  -2   9 1078.79   24.96
   3  -2  10  458.88   12.21
   3  -2  11  161.73    5.13
   3  -2  12    3.38    1.83
   3  -2  13    2.54    1.96
   3  -2  14    0.42    2.13
   3  -2  15  285.93   11.65
   3  -2  16   25.70    2.52
   3  -2  17   18.37    3.67
   3  -2  18   11.14    5.63
   3  -2  19    7.33    7.21
   3  -2  20    5.20    7.74
   3  -2  21    2.68    4.78
   3  -2  22    1.71    5.68
   3  -2  23   10.28    5.33
   3  -1 -23   35.96    4.41
   3  -1 -22    7.21    3.95
   3  -1 -21   64.24    5.89
   3  -1 -20    4.07    4.51
   3  -1 -19    1.71    3.26
   3  -1 -18   44.85    4.61
   3  -1 -17  216.45   10.48
   3  -1 -16   15.92    3.41
   3  -1 -15  271.64   12.14
   3  -1 -14   15.82    2.83
   3  -1 -13   61.99    3.55
   3  -1 -12   26.80    2.71
   3  -1 -11  340.51    8.77
   3  -1 -10   19.40    1.99
   3  -1  -9   53.33    2.61
   3  -1  -8  201.35    4.72
   3  -1  -7   23.93    2.09
   3  -1  -6  218.56    5.27
   3  -1  -5  173.42    4.39
   3  -1  -4  214.01    5.22
   3  -1  -3 1194.85   24.63
   3  -1  -2  369.13    8.67
   3  -1  -1  535.62   11.00
   3  -1   0  221.38    5.30
   3  -1   1    6.22    1.54
   3  -1   2   37.69    2.92
   3  -1   3    9.17    1.00
   3  -1   4  266.20    8.14
   3  -1   5  889.04   22.66
   3  -1   6  439.76   10.96
   3  -1   7   67.71    2.74
   3  -1   8 1054.73   29.31
   3  -1   9    3.79    1.38
   3  -1  10   54.37    2.45
   3  -1  11   46.62    2.44
   3  -1  12  166.30    5.51
   3  -1  13   18.89    2.37
   3  -1  14   22.45    2.26
   3  -1  15   14.81    3.57
   3  -1  16   40.36    3.76
   3  -1  17    7.78    2.72
   3  -1  18   53.33    4.85
   3  -1  19   83.81    8.70
   3  -1  20    8.60    5.78
   3  -1  21   17.77    8.01
   3  -1  22   -9.46    6.50
   3  -1  23   13.11    6.11
   3  -1  24   -2.24    4.37
   3  -1  25    1.27    6.78
   3   0 -23   15.26    4.82
   3   0 -22   -2.38    3.81
   3   0 -21   22.00    4.57
   3   0 -20   33.45    3.43
   3   0 -19    9.31    4.34
   3   0 -18  108.21    6.67
   3   0 -17    8.46    3.81
   3   0 -16   -2.68    4.24
   3   0 -15    6.64    4.10
   3   0 -14   -1.27    2.12
   3   0 -13  233.91    6.18
   3   0 -12  381.09   12.52
   3   0 -11    7.78    1.86
   3   0 -10  540.58   12.15
   3   0  -9   26.07    1.82
   3   0  -8   26.93    1.61
   3   0  -7   25.47    2.16
   3   0  -6   44.70    1.90
   3   0  -5    7.59    1.57
   3   0  -4   29.71    1.82
   3   0  -3  544.44   11.63
   3   0  -2   35.39    1.55
   3   0  -1  143.56    3.41
   3   0   0   30.88    1.58
   3   0   1  231.39    5.78
   3   0   2  211.25    4.48
   3   0   3 1523.46   42.64
   3   0   4 7002.26  208.67
   3   0   5  379.71    9.72
   3   0   6  427.40   10.80
   3   0   7  368.68    8.66
   3   0   8   12.44    1.59
   3   0   9  120.39    3.91
   3   0  10  614.73   20.02
   3   0  11  193.34    6.27
   3   0  12    0.42    1.85
   3   0  13    0.56    1.55
   3   0  14  100.92    5.49
   3   0  15   39.76    4.50
   3   0  16   35.39    4.10
   3   0  17  196.67    9.00
   3   0  18   15.92    3.13
   3   0  19   22.11    4.24
   3   0  20   21.56    8.05
   3   0  21    8.88    4.81
   3   0  22  130.48   11.39
   3   0  23    0.56    4.92
   3   0  24   10.12    5.89
   3   0  25   17.17    7.77
   3   1 -23   -3.38    6.08
   3   1 -22  286.73   20.52
   3   1 -21   -1.96    4.09
   3   1 -20   33.45    5.36
   3   1 -19   37.39    6.82
   3   1 -18   20.69    6.05
   3   1 -17   10.28    3.50
   3   1 -16   82.95    5.41
   3   1 -15   -2.24    6.47
   3   1 -14    3.79    2.68
   3   1 -13   45.97    3.38
   3   1 -12   97.14    3.51
   3   1 -11   21.67    2.43
   3   1 -10   18.89    2.37
   3   1  -9  141.29    4.51
   3   1  -8 1088.94   21.16
   3   1  -7  129.41    3.51
   3   1  -6  266.20    7.36
   3   1  -5  461.43    9.18
   3   1  -4  365.04    8.16
   3   1  -3   35.39    1.55
   3   1  -2  158.43    3.58
   3   1  -1   32.08    1.34
   3   1   0  453.30   12.14
   3   1   1  205.08    5.44
   3   1   2  489.92   11.04
   3   1   3    3.26    1.28
   3   1   4 1228.75   36.63
   3   1   5  618.86   20.67
   3   1   6    0.14    1.00
   3   1   7   38.13    1.90
   3   1   8   66.74    2.33
   3   1   9  108.94    3.47
   3   1  10  516.02   13.48
   3   1  11    1.41    1.69
   3   1  12   34.69    2.24
   3   1  13  557.82   16.82
   3   1  14  190.38    6.56
   3   1  15    8.19    3.40
   3   1  16   47.60    4.58
   3   1  17   33.16    3.69
   3   1  18    5.20    2.98
   3   1  19   14.26    3.50
   3   1  20   62.17    4.86
   3   1  21   -5.20    4.39
   3   1  22   71.28    7.22
   3   1  23    2.24    6.75
   3   1  24   10.12    5.06
   3   1  25    3.93    5.65
   3   2 -23   23.12    7.42
   3   2 -22    0.56    5.20
   3   2 -21    9.60    5.81
   3   2 -20    3.38    5.64
   3   2 -19   13.64    6.23
   3   2 -18  172.48   15.59
   3   2 -17    2.38    4.22
   3   2 -16    1.96    7.32
   3   2 -15   46.62    6.01
   3   2 -14   14.09    4.19
   3   2 -13   68.10    3.53
   3   2 -12    2.81    2.54
   3   2 -11   63.11    3.58
   3   2 -10    6.03    2.10
   3   2  -9  524.14   12.51
   3   2  -8  121.95    3.41
   3   2  -7  712.56   14.58
   3   2  -6    9.98    1.58
   3   2  -5  287.13    6.03
   3   2  -4  243.09    5.19
   3   2  -3  105.75    2.93
   3   2  -2   91.14    2.95
   3   2  -1  298.10    7.80
   3   2   0  172.17    4.36
   3   2   1  487.82   11.01
   3   2   2  704.34   20.16
   3   2   3   78.89    2.33
   3   2   4  322.78   10.24
   3   2   5   15.26    1.40
   3   2   6 1300.53   37.69
   3   2   7   72.29    2.23
   3   2   8   64.82    2.48
   3   2   9   56.32    2.31
   3   2  10 1159.81   29.12
   3   2  11    5.64    1.58
   3   2  12   73.10    3.24
   3   2  13  128.33    5.39
   3   2  14  173.73    7.21
   3   2  15   25.70    3.00
   3   2  16   79.53    5.30
   3   2  17   85.79    4.84
   3   2  18  297.69   13.52
   3   2  19   -7.33    2.38
   3   2  20    6.46    3.26
   3   2  21   -1.27    4.23
   3   2  22    8.88    4.53
   3   2  23   -4.78    4.78
   3   2  24  207.81   16.09
   3   2  25   12.86    6.90
   3   3 -23   -5.09    5.51
   3   3 -21   -5.47    7.44
   3   3 -20   17.47    6.05
   3   3 -19   27.55    8.11
   3   3 -18   50.93    7.97
   3   3 -17    2.54    4.91
   3   3 -16  591.41   35.24
   3   3 -15  237.20   14.27
   3   3 -14    9.17    2.95
   3   3 -13    4.07    2.40
   3   3 -12  263.11    9.63
   3   3 -11   13.99    2.23
   3   3 -10  115.23    4.33
   3   3  -9   71.08    3.61
   3   3  -8  195.67    7.97
   3   3  -7  196.67    4.99
   3   3  -6   65.78    2.89
   3   3  -5  544.44   13.85
   3   3  -4    5.36    1.27
   3   3  -3 1030.20   24.39
   3   3  -2 1087.38   22.72
   3   3  -1  945.86   19.73
   3   3   0    1.83    1.00
   3   3   1    4.67    1.13
   3   3   2   12.44    1.85
   3   3   3  243.09    5.19
   3   3   4   26.68    1.10
   3   3   5  437.76   12.92
   3   3   6   53.51    1.92
   3   3   7  136.53    3.89
   3   3   8    6.88    1.13
   3   3   9 1050.11   26.93
   3   3  10  508.49   15.52
   3   3  11   28.81    1.92
   3   3  12   21.12    2.07
   3   3  13   14.09    3.12
   3   3  14   15.54    2.72
   3   3  15  131.85    7.09
   3   3  16   11.53    3.06
   3   3  17    5.36    3.53
   3   3  18   16.40    3.37
   3   3  19   -3.38    2.41
   3   3  20  103.81    7.50
   3   3  21   19.30    3.96
   3   3  22   14.52    6.88
   3   3  23    5.47    4.67
   3   3  24    5.92    5.20
   3   3  25   -3.79    7.04
   3   4 -22   42.65   10.24
   3   4 -21    7.92    7.35
   3   4 -20   32.49    7.18
   3   4 -19   -1.71    5.68
   3   4 -18   25.47    8.26
   3   4 -17  217.51   14.71
   3   4 -16   -1.71    3.69
   3   4 -15   59.39    5.49
   3   4 -14   38.42    3.54
   3   4 -13   12.03    2.81
   3   4 -12    5.64    2.93
   3   4 -11    0.83    2.38
   3   4 -10   70.88    3.60
   3   4  -9   14.81    2.65
   3   4  -8   51.95    2.57
   3   4  -7  211.59    6.22
   3   4  -6  210.56    6.54
   3   4  -5  827.14   20.49
   3   4  -4  150.46    4.95
   3   4  -3 1503.12   36.83
   3   4  -2   -0.56    1.25
   3   4  -1  422.50    8.78
   3   4   0    4.22    0.97
   3   4   1   31.54    1.61
   3   4   2  113.71    2.79
   3   4   3   78.05    1.89
   3   4   4  106.23    2.69
   3   4   5  531.23   12.59
   3   4   6  227.78    6.09
   3   4   7   18.99    1.55
   3   4   8  426.90   11.28
   3   4   9  372.33    9.62
   3   4  10  254.31    7.19
   3   4  11   19.20    1.97
   3   4  12   -0.56    1.83
   3   4  13  119.35    3.89
   3   4  14   39.61    3.29
   3   4  15    1.27    2.41
   3   4  16   45.18    4.15
   3   4  17   45.97    3.54
   3   4  18    6.46    2.83
   3   4  19  124.59    6.90
   3   4  20   56.15    4.98
   3   4  21    8.05    4.65
   3   4  22    5.75    5.47
   3   4  23   11.53    4.75
   3   4  24   12.03    6.92
   3   5 -22   -2.81    6.49
   3   5 -21   20.90    8.90
   3   5 -20   12.52    6.30
   3   5 -19   26.57    6.61
   3   5 -18   -0.83    5.03
   3   5 -17   -7.59    4.39
   3   5 -16   98.08   11.05
   3   5 -15   -1.11    5.05
   3   5 -14   -1.27    4.79
   3   5 -13  159.33    8.70
   3   5 -12   83.39    5.85
   3   5 -11   17.67    3.09
   3   5 -10    7.78    2.52
   3   5  -9    1.71    2.82
   3   5  -8   17.17    2.55
   3   5  -7  516.55   14.58
   3   5  -6   49.58    2.51
   3   5  -5  215.76    5.94
   3   5  -4   -0.42    1.85
   3   5  -3   17.17    1.97
   3   5  -2    2.54    1.71
   3   5  -1  410.38   10.11
   3   5   0  151.04    3.50
   3   5   1  790.66   14.69
   3   5   2  135.70    3.05
   3   5   3  140.44    3.38
   3   5   4  900.41   20.67
   3   5   5   43.74    1.57
   3   5   6  327.92    9.46
   3   5   7  151.04    4.67
   3   5   8  173.73    5.01
   3   5   9   39.45    2.24
   3   5  10  361.87   10.84
   3   5  11  131.85    4.64
   3   5  12   36.39    2.58
   3   5  13   47.26    2.61
   3   5  14   82.30    5.60
   3   5  15   -1.96    2.52
   3   5  16   10.59    2.71
   3   5  17    1.27    2.26
   3   5  18    4.78    2.69
   3   5  19   41.57    4.29
   3   5  20    1.55    3.53
   3   5  21   48.42    6.27
   3   5  22   58.29    9.79
   3   5  23   78.26    9.87
   3   5  24   -0.71    5.39
   3   6 -21   -4.37    5.75
   3   6 -20   -0.56    8.84
   3   6 -19    7.08    6.63
   3   6 -18    1.71    6.23
   3   6 -17   -1.83    5.92
   3   6 -16   28.93    6.39
   3   6 -15   -4.37    5.36
   3   6 -14   -0.56    6.33
   3   6 -13   11.14    4.91
   3   6 -12   28.17    4.79
   3   6 -11  116.51    6.42
   3   6 -10   28.05    3.78
   3   6  -9  136.53    5.82
   3   6  -8   29.58    2.98
   3   6  -7    3.79    2.96
   3   6  -6   25.83    2.54
   3   6  -5  224.93    6.05
   3   6  -4   29.31    2.57
   3   6  -3   36.24    2.43
   3   6  -2   45.33    2.55
   3   6  -1  614.73   15.31
   3   6   0   11.45    2.00
   3   6   1  621.82   11.84
   3   6   2    8.19    1.30
   3   6   3    9.60    0.96
   3   6   4  788.66   15.34
   3   6   5  121.95    3.41
   3   6   6    5.47    1.55
   3   6   7   14.52    1.99
   3   6   8   29.06    1.92
   3   6   9   45.81    2.89
   3   6  10   57.04    2.69
   3   6  11   22.45    2.26
   3   6  12   18.58    1.95
   3   6  13  217.51    8.05
   3   6  14   65.78    4.43
   3   6  15  339.20   14.88
   3   6  16  195.67   10.29
   3   6  17  112.94    6.30
   3   6  18   -1.41    3.38
   3   6  19   -0.42    6.09
   3   6  20   21.01    6.64
   3   6  21   21.67    7.74
   3   6  22   -4.67    6.36
   3   6  23    9.17    6.47
   3   7 -20   -0.42   10.76
   3   7 -19    5.20   10.12
   3   7 -18   69.09   10.07
   3   7 -17   35.25    7.90
   3   7 -16   -0.56    6.03
   3   7 -15   12.27    8.15
   3   7 -14    2.10    5.61
   3   7 -13   12.94    4.61
   3   7 -12  247.18   14.93
   3   7 -11  481.02   20.32
   3   7 -10    6.22    3.79
   3   7  -9  222.08   12.38
   3   7  -8    2.54    3.37
   3   7  -7  128.33    5.12
   3   7  -6  230.65    8.29
   3   7  -5   14.09    2.68
   3   7  -4  139.88    5.61
   3   7  -3   97.38    3.75
   3   7  -2   -1.83    2.41
   3   7  -1  102.11    3.60
   3   7   0    2.81    2.10
   3   7   1   -1.96    2.10
   3   7   2   14.52    1.27
   3   7   3   -1.96    2.40
   3   7   4   -1.11    1.41
   3   7   5    1.96    1.54
   3   7   6   22.67    1.92
   3   7   7   14.09    2.14
   3   7   8  149.89    4.95
   3   7   9    4.94    1.85
   3   7  10  101.64    4.07
   3   7  11    1.83    1.54
   3   7  12    3.38    1.96
   3   7  13   -3.26    2.10
   3   7  14  127.52    6.16
   3   7  15    9.90    2.83
   3   7  16    2.54    3.10
   3   7  17    9.98    4.95
   3   7  18   76.79    7.70
   3   7  19   17.08    4.41
   3   7  20   13.99    7.73
   3   7  21    1.41    6.06
   3   7  22   10.59    7.04
   3   8 -19   13.55    6.39
   3   8 -18   -6.03    8.87
   3   8 -17   -9.31    6.53
   3   8 -16   -5.36    5.77
   3   8 -15   45.33    7.19
   3   8 -14    8.88    5.95
   3   8 -13   -2.54    8.88
   3   8 -12   42.19    7.40
   3   8 -11   -3.53    5.22
   3   8 -10   52.47    4.30
   3   8  -9    0.14    3.71
   3   8  -8   78.47    4.84
   3   8  -7  209.53    9.63
   3   8  -6    4.78    2.96
   3   8  -5   62.73    4.71
   3   8  -4   41.72    4.46
   3   8  -3  184.86    6.78
   3   8  -2  125.13    4.78
   3   8  -1  224.93    7.12
   3   8   0  133.77    5.50
   3   8   1  162.04    5.74
   3   8   2    7.92    1.27
   3   8   3  203.38    6.43
   3   8   4   48.25    2.64
   3   8   5   12.86    2.13
   3   8   6  319.37    8.49
   3   8   7   -0.28    1.85
   3   8   8  367.77   10.03
   3   8   9   65.98    3.29
   3   8  10   22.79    2.38
   3   8  11   14.26    2.78
   3   8  12   15.54    2.16
   3   8  13   -4.22    2.40
   3   8  14   39.02    4.16
   3   8  15   31.95    3.76
   3   8  16   16.88    6.05
   3   8  17   -0.14    3.43
   3   8  18   12.44    4.78
   3   8  19    7.33    7.08
   3   8  20   23.01    7.52
   3   8  21   28.43    5.82
   3   9 -17   11.29    9.42
   3   9 -16   26.80    6.64
   3   9 -15   59.57    8.98
   3   9 -14    2.81    6.32
   3   9 -13   18.18    7.59
   3   9 -12    9.98    5.47
   3   9 -11   30.09   10.69
   3   9 -10   41.88    6.30
   3   9  -9   37.83    7.88
   3   9  -8    3.38    3.10
   3   9  -7  243.09   12.96
   3   9  -6   -5.09    3.10
   3   9  -5   24.28    4.92
   3   9  -4  163.86    7.29
   3   9  -3   -0.83    3.21
   3   9  -2   24.52    4.47
   3   9  -1   12.52    2.95
   3   9   0   10.81    3.13
   3   9   1  101.64    5.27
   3   9   2   22.45    1.47
   3   9   3    5.47    2.83
   3   9   4    1.96    2.66
   3   9   5   43.91    3.47
   3   9   6  115.48    4.34
   3   9   7    0.28    1.85
   3   9   8    0.71    1.71
   3   9   9    3.79    1.99
   3   9  10   28.93    2.43
   3   9  11    1.00    2.13
   3   9  12   -2.96    2.95
   3   9  13   90.69    7.23
   3   9  14    1.71    3.98
   3   9  15    6.64    5.94
   3   9  16   22.22    5.26
   3   9  17   52.13    6.68
   3   9  18   -1.11    4.06
   3   9  19   18.99    6.11
   3  10 -15   -0.83    6.87
   3  10 -13   32.35    7.70
   3  10 -12    4.07    5.51
   3  10 -11   -1.41    8.18
   3  10 -10    3.65    5.09
   3  10  -9    3.79    5.78
   3  10  -8   34.69    6.85
   3  10  -7   20.25    5.77
   3  10  -6   69.29    8.50
   3  10  -5   33.04    4.23
   3  10  -4   42.96    4.36
   3  10  -3   49.92    4.70
   3  10  -2    1.96    3.67
   3  10  -1    8.05    3.23
   3  10   0   52.64    5.17
   3  10   1   57.75    4.15
   3  10   2    0.83    0.85
   3  10   3   25.83    3.86
   3  10   4   19.40    2.93
   3  10   5   46.46    4.05
   3  10   6    1.71    3.26
   3  10   7   35.39    2.26
   3  10   8   -1.00    1.71
   3  10   9   -0.14    2.43
   3  10  10   56.15    4.81
   3  10  11    0.28    2.98
   3  10  12   -3.93    3.38
   3  10  13   57.39    5.75
   3  10  14   16.10    3.53
   3  10  15   -1.83    6.20
   3  10  16    4.78    5.50
   3  10  17    5.20    4.77
   3  11 -12    7.59    6.61
   3  11 -11   12.86    5.63
   3  11 -10   22.45    6.64
   3  11  -9   11.45    6.19
   3  11  -8    9.90    8.74
   3  11  -7    6.33    6.46
   3  11  -6   -0.42    5.67
   3  11  -5   17.67    6.09
   3  11  -4    3.93    4.67
   3  11  -3   49.75    8.88
   3  11  -2   59.02    8.39
   3  11  -1   -1.00    6.80
   3  11   0   32.35    5.27
   3  11   1   17.87    6.02
   3  11   2   16.40    4.61
   3  11   3   10.12    4.77
   3  11   4   -5.09    6.64
   3  11   5   71.47    5.82
   3  11   6   22.67    3.62
   3  11   7    8.32    3.69
   3  11   8   15.07    4.24
   3  11   9    1.55    4.79
   3  11  10   10.59    3.93
   3  11  11    8.88    3.96
   3  11  12    4.94    3.21
   3  11  13   86.22    6.40
   3  11  14   25.70    4.70
   3  12  -8   15.92    6.92
   3  12  -7   38.72    6.20
   3  12  -6   64.06   11.21
   3  12  -5   20.47    5.26
   3  12  -4   47.60    5.57
   3  12  -3   15.54    4.96
   3  12  -2  -14.52    6.88
   3  12  -1   47.60    6.88
   3  12   0   61.42    7.63
   3  12   1  137.37   11.41
   3  12   2   19.40    6.91
   3  12   3   33.57    7.43
   3  12   4    3.53    5.34
   3  12   5    2.38    5.91
   3  12   6   42.96    7.32
   3  12   7   13.38    5.64
   3  12   8   15.26    4.09
   3  12   9    0.42    4.39
   3  12  10    0.56    4.22
   3  12  11   10.12    5.74
   4  -9  -7    6.46    8.87
   4  -9  -6   14.09    7.76
   4  -9  -5   -0.42    4.96
   4  -9  -4   12.44    5.78
   4  -9  -3   79.31   10.36
   4  -9  -2   -0.56    5.20
   4  -9  -1   11.53    5.81
   4  -9   0   11.45    5.22
   4  -9   1   19.61    5.89
   4  -9   4   18.99    6.11
   4  -9   5   20.25    6.51
   4  -9   6   12.52    4.79
   4  -9   7   20.04    7.02
   4  -9   8   13.55    6.73
   4  -9   9    2.10    5.47
   4  -8 -11   -1.27    6.08
   4  -8 -10   21.88    9.56
   4  -8  -9    8.19    5.10
   4  -8  -8   -2.96    5.08
   4  -8  -7   19.83    4.12
   4  -8  -6   15.26    3.53
   4  -8  -5   18.47    3.98
   4  -8  -4    2.96    3.68
   4  -8  -3   21.56    3.20
   4  -8  -2   10.74    3.12
   4  -8  -1    9.76    3.78
   4  -8   0   15.36    3.82
   4  -8   1    3.93    3.68
   4  -8   2   16.10    3.81
   4  -8   3   -0.42    4.39
   4  -8   4   57.75    5.41
   4  -8   5   -0.56    3.78
   4  -8   6   22.11    3.57
   4  -8   7   30.09    4.43
   4  -8   8    5.36    3.41
   4  -8   9    0.14    5.43
   4  -8  10    1.83    3.79
   4  -8  11   20.15    4.05
   4  -8  12   28.93    5.23
   4  -8  13   16.78    4.47
   4  -8  14    0.83    6.03
   4  -7 -14    2.10    4.92
   4  -7 -13   67.53    4.29
   4  -7 -12   14.81    2.92
   4  -7 -11   26.68    3.06
   4  -7 -10    1.27    2.81
   4  -7  -9    0.14    1.99
   4  -7  -8   82.30    4.53
   4  -7  -7   34.83    3.64
   4  -7  -6  137.92    7.53
   4  -7  -5   27.66    3.37
   4  -7  -4  285.12   11.22
   4  -7  -3   20.25    3.43
   4  -7  -2   77.64    4.19
   4  -7  -1  152.81    7.05
   4  -7   0    8.32    3.36
   4  -7   1   -8.05    4.24
   4  -7   2    7.21    3.51
   4  -7   3    9.17    4.96
   4  -7   4   25.11    3.93
   4  -7   5   25.94    3.75
   4  -7   6    7.21    4.40
   4  -7   7    2.38    3.07
   4  -7   8   10.28    2.66
   4  -7   9    2.38    3.53
   4  -7  10   85.12    5.92
   4  -7  11   -3.53    3.12
   4  -7  12   39.45    4.78
   4  -7  13    4.94    3.37
   4  -7  14    1.41    3.67
   4  -7  15   10.12    5.37
   4  -7  16   -2.68    3.81
   4  -6 -16   11.29    4.39
   4  -6 -15    4.67    3.23
   4  -6 -14   31.81    4.55
   4  -6 -13   -2.10    4.20
   4  -6 -12   57.04    5.02
   4  -6 -11   42.34    4.79
   4  -6 -10    8.05    2.43
   4  -6  -9    9.90    2.40
   4  -6  -8    8.60    2.23
   4  -6  -7   10.97    2.28
   4  -6  -6    8.19    1.97
   4  -6  -5   36.10    3.43
   4  -6  -4   21.56    3.64
   4  -6  -3    6.46    2.41
   4  -6  -2   19.30    3.23
   4  -6  -1    1.96    3.36
   4  -6   0   14.62    3.09
   4  -6   1  255.08    9.11
   4  -6   2    5.92    2.54
   4  -6   3   62.55    4.31
   4  -6   4    6.64    2.93
   4  -6   5   25.83    4.95
   4  -6   6   86.45    5.30
   4  -6   7   50.25    4.71
   4  -6   8   10.59    3.24
   4  -6   9   12.94    1.71
   4  -6  10   70.88    5.01
   4  -6  11    2.10    2.82
   4  -6  12    0.28    3.12
   4  -6  13    8.88    4.10
   4  -6  14   28.05    5.16
   4  -6  15   13.28    3.64
   4  -6  16    2.68    7.21
   4  -6  17    4.07    6.19
   4  -6  18   21.45    7.37
   4  -6  19   -7.21    6.75
   4  -5 -18   14.26    4.40
   4  -5 -17  126.45    9.08
   4  -5 -16    8.88    3.82
   4  -5 -15   20.69    7.02
   4  -5 -14   -1.55    2.96
   4  -5 -13   -1.83    2.83
   4  -5 -12    9.98    3.23
   4  -5 -11  109.69    5.72
   4  -5 -10    0.83    3.50
   4  -5  -9   -4.07    2.98
   4  -5  -8  182.92    9.00
   4  -5  -7   40.51    3.02
   4  -5  -6  367.77   12.30
   4  -5  -5   11.45    2.26
   4  -5  -4   10.43    1.69
   4  -5  -3    1.27    2.12
   4  -5  -2   37.83    2.78
   4  -5  -1   15.36    3.07
   4  -5   0  165.69    5.50
   4  -5   1   10.28    2.66
   4  -5   2   18.89    2.68
   4  -5   3   21.12    2.72
   4  -5   4    0.83    2.52
   4  -5   5   10.74    2.26
   4  -5   6  259.26    8.80
   4  -5   7   22.45    2.59
   4  -5   8   12.44    2.68
   4  -5   9    5.64    2.54
   4  -5  10    1.55    3.26
   4  -5  11   12.10    3.81
   4  -5  12   51.78    3.24
   4  -5  13    0.28    1.99
   4  -5  14    9.98    4.79
   4  -5  15   -2.68    8.05
   4  -5  16   69.49    8.91
   4  -5  17    9.46    6.50
   4  -5  19    1.55    6.22
   4  -5  20    3.65    5.77
   4  -4 -19    0.56    3.92
   4  -4 -18   49.25    5.67
   4  -4 -17   -0.28    3.40
   4  -4 -16   44.53    4.44
   4  -4 -15   18.37    4.07
   4  -4 -14   15.36    5.22
   4  -4 -13   16.78    3.12
   4  -4 -12    1.27    2.68
   4  -4 -11   20.04    3.51
   4  -4 -10   34.69    3.78
   4  -4  -9   75.97    5.58
   4  -4  -8   50.25    3.54
   4  -4  -7   48.74    3.14
   4  -4  -6    6.33    2.51
   4  -4  -5   47.43    2.45
   4  -4  -4  118.57    3.62
   4  -4  -3  134.87    4.13
   4  -4  -2    7.78    1.52
   4  -4  -1   50.59    2.71
   4  -4   0   84.69    3.29
   4  -4   1  104.05    3.64
   4  -4   2    9.02    2.43
   4  -4   3  101.64    3.84
   4  -4   4   16.88    2.14
   4  -4   5    3.79    2.27
   4  -4   6    3.93    2.82
   4  -4   7   58.84    4.00
   4  -4   8  135.70    5.26
   4  -4   9    6.22    2.55
   4  -4  10    4.07    1.96
   4  -4  11   25.23    2.14
   4  -4  12   36.39    2.86
   4  -4  13   71.69    4.22
   4  -4  14   78.89    5.06
   4  -4  15   13.55    2.54
   4  -4  16   48.10    6.58
   4  -4  17    5.64    5.25
   4  -4  18    9.98    5.17
   4  -4  19    8.60    5.92
   4  -4  20   41.88    7.06
   4  -4  21    7.33    6.75
   4  -4  22   -0.56    6.61
   4  -3 -20    9.98    3.98
   4  -3 -19    6.64    3.55
   4  -3 -18   10.74    3.81
   4  -3 -17    1.55    3.82
   4  -3 -16   54.20    5.25
   4  -3 -15    3.93    4.53
   4  -3 -14    2.54    2.95
   4  -3 -13  223.50    8.16
   4  -3 -12    9.90    2.69
   4  -3 -11    2.96    2.26
   4  -3 -10  159.02    5.39
   4  -3  -9   72.49    3.84
   4  -3  -8   19.73    2.43
   4  -3  -7  121.43    4.98
   4  -3  -6  130.77    4.61
   4  -3  -5  357.37    8.98
   4  -3  -4   94.81    3.69
   4  -3  -3   15.82    1.41
   4  -3  -2    0.28    1.13
   4  -3  -1  198.00    5.02
   4  -3   0   38.27    2.20
   4  -3   1 1081.13   25.78
   4  -3   2    3.93    2.12
   4  -3   3  155.46    5.03
   4  -3   4   31.95    2.41
   4  -3   5  178.78    6.03
   4  -3   6    0.14    1.99
   4  -3   7   18.99    2.07
   4  -3   8   38.42    3.54
   4  -3   9   12.44    2.02
   4  -3  10    8.60    2.37
   4  -3  11   -2.24    1.52
   4  -3  12   32.76    2.58
   4  -3  13   32.90    2.86
   4  -3  14   38.42    2.95
   4  -3  15   11.45    2.41
   4  -3  16   16.88    2.83
   4  -3  17   -1.11    4.92
   4  -3  18   10.28    7.46
   4  -3  19   -2.81    4.77
   4  -3  20   30.09    6.12
   4  -3  21   11.14    7.37
   4  -3  22   24.99    8.91
   4  -3  23   21.45    7.47
   4  -2 -21    2.96    4.26
   4  -2 -20   84.25    7.19
   4  -2 -19   29.19    4.62
   4  -2 -18   12.03    4.37
   4  -2 -17   78.47    6.32
   4  -2 -16   15.07    3.78
   4  -2 -15   42.81    5.29
   4  -2 -14  229.22    8.63
   4  -2 -13  155.75    6.22
   4  -2 -12  109.94    4.74
   4  -2 -11  402.72   13.34
   4  -2 -10   19.20    2.09
   4  -2  -9  116.26    3.84
   4  -2  -8  104.77    3.89
   4  -2  -7   -0.42    1.71
   4  -2  -6    1.83    1.54
   4  -2  -5  294.82    7.74
   4  -2  -4   41.57    2.61
   4  -2  -3  300.97    7.83
   4  -2  -2  466.03   10.25
   4  -2  -1  346.67    7.52
   4  -2   0   30.48    2.10
   4  -2   1   99.73    3.55
   4  -2   2  253.57    7.19
   4  -2   3   -0.42    1.13
   4  -2   4  129.68    4.33
   4  -2   5   40.51    3.02
   4  -2   6   40.81    3.34
   4  -2   7   87.34    3.33
   4  -2   8    6.33    1.68
   4  -2   9   10.97    1.80
   4  -2  10  185.50    5.50
   4  -2  11  162.94    6.06
   4  -2  12   24.63    2.35
   4  -2  13    5.36    2.09
   4  -2  14   -0.14    1.86
   4  -2  15   61.60    3.72
   4  -2  16   -1.41    2.68
   4  -2  17    8.74    4.36
   4  -2  18   42.50    6.19
   4  -2  19   33.04    7.78
   4  -2  20   65.58    7.88
   4  -2  21   -6.88    4.92
   4  -2  22   44.85    8.74
   4  -2  23   -0.56    4.78
   4  -2  24   16.78    7.21
   4  -1 -22   14.09    5.26
   4  -1 -21   -0.14    4.85
   4  -1 -20   33.16    5.61
   4  -1 -19   22.00    3.79
   4  -1 -18   30.88    4.09
   4  -1 -17    9.76    3.26
   4  -1 -16  110.43    7.98
   4  -1 -15    4.37    3.07
   4  -1 -14   16.40    2.98
   4  -1 -13   20.04    2.88
   4  -1 -12   20.25    2.99
   4  -1 -11  437.27   10.93
   4  -1 -10   46.94    2.61
   4  -1  -9   75.76    2.89
   4  -1  -8  168.75    4.94
   4  -1  -7   23.82    2.09
   4  -1  -6  821.68   17.70
   4  -1  -5   -0.42    1.55
   4  -1  -4  609.44   12.90
   4  -1  -3    7.08    1.27
   4  -1  -2  469.63   10.29
   4  -1  -1   69.49    2.98
   4  -1   0  137.63    3.91
   4  -1   1  937.84   21.09
   4  -1   2   63.11    3.78
   4  -1   3  169.99    4.95
   4  -1   4   40.21    1.51
   4  -1   5   72.69    3.24
   4  -1   6   67.33    2.72
   4  -1   7  806.78   21.59
   4  -1   8  800.72   18.15
   4  -1   9   66.36    2.51
   4  -1  10   26.80    2.09
   4  -1  11   19.61    2.21
   4  -1  12    1.83    2.12
   4  -1  13    5.09    2.26
   4  -1  14   42.65    2.95
   4  -1  15   46.62    2.76
   4  -1  16    0.56    3.23
   4  -1  17    7.78    2.52
   4  -1  18  101.64    5.51
   4  -1  19   18.78    4.84
   4  -1  20   -5.92    6.94
   4  -1  21    4.67    6.77
   4  -1  22    7.21    5.10
   4  -1  23   36.53    7.32
   4  -1  24   36.39    9.02
   4   0 -22   35.96    5.41
   4   0 -21   -3.79    3.79
   4   0 -20   25.35    4.91
   4   0 -19   -2.68    3.54
   4   0 -18    9.98    4.05
   4   0 -17   16.50    3.37
   4   0 -16   22.22    3.24
   4   0 -15   -3.65    2.95
   4   0 -14   18.58    2.98
   4   0 -13    6.64    2.69
   4   0 -12    4.51    2.52
   4   0 -11   27.55    2.24
   4   0 -10   57.04    2.88
   4   0  -9   45.33    2.40
   4   0  -8  402.72    8.11
   4   0  -7   32.35    1.89
   4   0  -6  573.08   11.94
   4   0  -5   47.93    2.47
   4   0  -4  306.77    7.06
   4   0  -3   13.64    1.41
   4   0  -2   12.03    1.40
   4   0  -1 1512.35   33.25
   4   0   0   42.96    2.50
   4   0   1   47.93    2.30
   4   0   2  157.84    4.17
   4   0   3  204.40    5.09
   4   0   4   27.04    1.85
   4   0   5  846.37   24.87
   4   0   6 2223.45   50.39
   4   0   7   -0.83    1.41
   4   0   8   36.82    1.88
   4   0   9  285.52    7.63
   4   0  10   18.78    1.85
   4   0  11   23.70    2.43
   4   0  12   96.67    3.98
   4   0  13    7.33    1.99
   4   0  14  166.30    5.82
   4   0  15    6.33    2.09
   4   0  16  187.13    8.12
   4   0  17  185.83    9.39
   4   0  18    4.78    4.51
   4   0  19    5.47    3.67
   4   0  20   47.26    7.84
   4   0  21   -1.41    6.63
   4   0  22   10.97    7.47
   4   0  23   -4.37    4.37
   4   0  24   11.45    4.82
   4   0  25    9.76    5.64
   4   1 -22   12.52    4.12
   4   1 -21   23.01    5.13
   4   1 -20   30.63    5.65
   4   1 -19    7.21    3.82
   4   1 -18    1.83    3.09
   4   1 -17   36.53    4.02
   4   1 -16   33.85    4.29
   4   1 -15   18.58    3.48
   4   1 -14    9.76    2.96
   4   1 -13   61.05    3.53
   4   1 -12    1.71    2.12
   4   1 -11   69.49    3.17
   4   1 -10  232.82    6.16
   4   1  -9   15.07    2.12
   4   1  -8  146.12    4.02
   4   1  -7  346.23    8.39
   4   1  -6  901.83   19.97
   4   1  -5  221.73    6.36
   4   1  -4 1486.60   34.80
   4   1  -3   -0.42    1.27
   4   1  -2  241.24    5.53
   4   1  -1  163.55    3.95
   4   1   0   10.74    1.02
   4   1   1   53.16    2.26
   4   1   2  289.14    6.87
   4   1   3 1025.63   23.58
   4   1   4  171.85    8.09
   4   1   5  727.86   21.15
   4   1   6   41.72    1.99
   4   1   7   66.55    2.52
   4   1   8    8.32    1.30
   4   1   9   -1.83    0.83
   4   1  10  203.72    5.77
   4   1  11   81.44    3.00
   4   1  12    3.65    1.95
   4   1  13    1.71    1.71
   4   1  14   26.07    2.06
   4   1  15   44.70    3.33
   4   1  16    5.36    2.98
   4   1  17    8.74    2.66
   4   1  18    6.33    2.51
   4   1  19   25.23    3.34
   4   1  20   38.42    5.30
   4   1  21    7.78    6.36
   4   1  22    5.92    4.40
   4   1  23   35.96    5.70
   4   1  24   25.83    6.03
   4   1  25   38.13    8.36
   4   2 -22   40.81    5.92
   4   2 -21   -5.75    4.39
   4   2 -20   -1.27    4.23
   4   2 -19   30.09    5.34
   4   2 -18    1.83    3.67
   4   2 -17   -3.09    4.51
   4   2 -16   56.32    4.46
   4   2 -15    3.53    3.79
   4   2 -14   -0.83    2.95
   4   2 -13   87.34    4.22
   4   2 -12    0.28    1.85
   4   2 -11  263.11    6.94
   4   2 -10   30.75    2.10
   4   2  -9  108.21    3.95
   4   2  -8    7.59    1.71
   4   2  -7  670.10   16.60
   4   2  -6   35.81    1.99
   4   2  -5  232.11    6.15
   4   2  -4   90.92    2.72
   4   2  -3   60.31    2.40
   4   2  -2    5.09    1.13
   4   2  -1  165.69    4.89
   4   2   0  370.50   10.05
   4   2   1 1486.60   48.53
   4   2   2 1493.93   32.12
   4   2   3  270.47    6.25
   4   2   4  163.55    6.08
   4   2   5   28.68    2.03
   4   2   6    8.32    1.30
   4   2   7   22.45    1.47
   4   2   8  442.75   13.49
   4   2   9  102.35    2.88
   4   2  10   77.83    2.93
   4   2  11  158.43    5.08
   4   2  12    5.64    1.80
   4   2  13  322.78    8.95
   4   2  14   22.00    2.12
   4   2  15    3.38    2.27
   4   2  16    5.47    2.83
   4   2  17   17.08    3.64
   4   2  18    7.59    2.68
   4   2  19   15.92    3.21
   4   2  20   -1.71    2.54
   4   2  21    4.78    5.34
   4   2  22   -2.68    4.09
   4   2  23   16.40    5.09
   4   2  24   87.11   11.08
   4   3 -22    8.19    5.10
   4   3 -21   28.05    4.91
   4   3 -20   46.14    5.33
   4   3 -19    0.83    7.57
   4   3 -18   14.62    5.63
   4   3 -17   28.43    6.97
   4   3 -16   10.81    5.47
   4   3 -15  274.39   14.95
   4   3 -14    6.64    2.82
   4   3 -13  123.53    6.87
   4   3 -12   12.86    2.38
   4   3 -11  264.65    7.35
   4   3 -10   -3.26    1.97
   4   3  -9  187.13    5.85
   4   3  -8   73.10    2.64
   4   3  -7   66.74    2.52
   4   3  -6  253.95    6.05
   4   3  -5    2.96    1.55
   4   3  -4   21.12    1.31
   4   3  -3   88.23    2.68
   4   3  -2  405.10    9.08
   4   3  -1  189.09    5.23
   4   3   0  239.76    6.61
   4   3   1  673.80   16.64
   4   3   2   30.48    2.10
   4   3   3  226.00    7.50
   4   3   4  193.68    4.62
   4   3   5  338.32    9.18
   4   3   6   36.39    1.72
   4   3   7  204.40    7.13
   4   3   8  269.70    6.63
   4   3   9   38.27    1.76
   4   3  10  260.42    7.67
   4   3  11  106.49    3.43
   4   3  12  338.76   15.74
   4   3  13   54.55    2.81
   4   3  14   63.68    3.21
   4   3  15  167.84    8.31
   4   3  16   29.58    2.58
   4   3  17   -3.38    1.96
   4   3  18   49.42    4.00
   4   3  19   51.27    4.43
   4   3  20    3.26    2.83
   4   3  21    4.94    3.96
   4   3  22   19.73    4.12
   4   3  23   -2.81    4.65
   4   3  24   -1.00    5.09
   4   3  25    4.07    5.51
   4   4 -22   -1.11    7.15
   4   4 -21   50.42    8.09
   4   4 -20   11.45    6.35
   4   4 -19   23.12    8.57
   4   4 -18   11.53    6.46
   4   4 -17   24.87    5.22
   4   4 -16   -0.71    4.24
   4   4 -15   33.57    7.57
   4   4 -14    8.46    3.53
   4   4 -13   73.51    5.50
   4   4 -12    6.64    5.51
   4   4 -11    0.14    2.43
   4   4 -10   70.88    3.60
   4   4  -9  359.16    9.90
   4   4  -8  158.73    4.79
   4   4  -7  132.94    3.55
   4   4  -6   28.43    2.28
   4   4  -5  447.26   10.04
   4   4  -4   23.12    1.72
   4   4  -3  105.50    2.93
   4   4  -2   90.69    2.71
   4   4  -1    8.32    1.30
   4   4   0   16.88    1.37
   4   4   1  168.44    4.31
   4   4   2  122.22    3.41
   4   4   3  383.42   10.24
   4   4   4  275.97    7.90
   4   4   5   10.74    1.24
   4   4   6  321.50   11.07
   4   4   7  271.26    7.04
   4   4   8  345.80    8.83
   4   4   9   52.64    1.89
   4   4  10  208.50    5.82
   4   4  11   56.50    2.33
   4   4  12  159.33    5.09
   4   4  13    2.38    1.83
   4   4  14   28.93    2.30
   4   4  15  285.93   11.24
   4   4  16   43.27    3.60
   4   4  17   39.16    3.71
   4   4  18   -0.56    2.52
   4   4  19    7.59    3.92
   4   4  20    9.76    2.96
   4   4  21  118.82   10.62
   4   4  22    4.07    5.89
   4   4  23   18.47    5.30
   4   4  24   11.53    4.36
   4   5 -21   -8.46    5.05
   4   5 -20   36.10    9.28
   4   5 -19   15.07    6.36
   4   5 -18   28.81    7.39
   4   5 -17    7.33    5.33
   4   5 -16   33.04    6.42
   4   5 -15   38.42    5.30
   4   5 -14   11.86    3.27
   4   5 -13   39.02    4.00
   4   5 -12   11.14    4.51
   4   5 -11   30.63    4.07
   4   5 -10  164.78    6.40
   4   5  -9    8.32    2.81
   4   5  -8   32.08    3.23
   4   5  -7  246.05    7.44
   4   5  -6   38.72    2.37
   4   5  -5   23.82    2.44
   4   5  -4  135.42    3.86
   4   5  -3  529.04   11.48
   4   5  -2  144.12    3.71
   4   5  -1  310.53    7.12
   4   5   0   93.43    2.75
   4   5   1   23.82    1.40
   4   5   2  138.48    3.07
   4   5   3   31.81    1.61
   4   5   4  171.54    3.74
   4   5   5 1225.42   25.78
   4   5   6  134.87    3.31
   4   5   7  354.23    9.39
   4   5   8  424.45   11.25
   4   5   9  104.53    3.89
   4   5  10    6.46    1.69
   4   5  11  174.67    6.27
   4   5  12   72.49    3.03
   4   5  13    6.22    1.54
   4   5  14    6.88    3.12
   4   5  15   16.78    2.92
   4   5  16   51.10    3.57
   4   5  17  209.53    9.97
   4   5  18    3.09    3.09
   4   5  19  135.70    7.19
   4   5  20   21.01    3.92
   4   5  21    0.83    3.78
   4   5  22   14.81    5.49
   4   5  23    7.92    5.22
   4   5  24   15.26    6.03
   4   6 -20   15.92    9.86
   4   6 -19   13.11    5.68
   4   6 -18   -5.20    5.47
   4   6 -17   -0.28    5.81
   4   6 -16   13.28    8.57
   4   6 -15   11.29    6.46
   4   6 -14    6.22    4.26
   4   6 -13  157.84    9.25
   4   6 -12   65.98    5.60
   4   6 -11    3.79    3.37
   4   6 -10  170.92    8.70
   4   6  -9   22.45    3.14
   4   6  -8    4.94    2.54
   4   6  -7   13.28    2.86
   4   6  -6    7.08    1.96
   4   6  -5  129.68    4.33
   4   6  -4  119.35    4.94
   4   6  -3   18.89    1.96
   4   6  -2    6.88    1.68
   4   6  -1  144.70    4.29
   4   6   0  128.06    3.23
   4   6   1  229.93    5.40
   4   6   2  478.93    9.35
   4   6   3  167.53    3.99
   4   6   4  793.34   16.06
   4   6   5  239.40    5.15
   4   6   6   31.81    2.02
   4   6   7  135.97    3.60
   4   6   8   65.40    2.69
   4   6   9    1.96    1.69
   4   6  10   88.89    2.90
   4   6  11    6.88    1.68
   4   6  12   61.99    3.37
   4   6  13   55.61    3.54
   4   6  14   39.16    3.27
   4   6  15    0.28    2.55
   4   6  16   30.23    3.27
   4   6  17   27.55    3.37
   4   6  18   37.11    3.47
   4   6  19   21.88    4.89
   4   6  20   34.14    5.68
   4   6  21   13.11    7.05
   4   6  22   75.97    9.73
   4   6  23   10.74    6.46
   4   7 -19   10.12    5.74
   4   7 -18   -5.09    6.05
   4   7 -17    9.46    7.08
   4   7 -16   38.56    8.70
   4   7 -15   11.29   11.01
   4   7 -14   12.03    4.94
   4   7 -13   -7.59    7.33
   4   7 -12   -1.00    2.55
   4   7 -11   21.12    3.50
   4   7 -10   39.61    5.23
   4   7  -9   18.37    2.95
   4   7  -8  115.74    6.90
   4   7  -7    5.20    2.65
   4   7  -6  171.23    7.46
   4   7  -5    2.81    2.82
   4   7  -4  102.35    4.33
   4   7  -3   60.67    3.33
   4   7  -2  126.99    4.02
   4   7  -1   -0.42    1.55
   4   7   0  361.87   10.84
   4   7   1  189.41    4.91
   4   7   2   74.93    2.26
   4   7   3  199.67    5.37
   4   7   4   91.60    3.64
   4   7   5   22.79    1.93
   4   7   6    0.42    1.71
   4   7   7    0.28    1.42
   4   7   8    2.10    1.55
   4   7   9   69.88    2.78
   4   7  10   83.39    3.47
   4   7  11   15.26    2.13
   4   7  12    1.71    1.99
   4   7  13  327.92   14.20
   4   7  14   39.31    3.88
   4   7  15   39.90    3.45
   4   7  16    8.32    3.09
   4   7  17  184.21   13.54
   4   7  18   12.27    4.07
   4   7  19   31.27    5.98
   4   7  20   30.63    7.23
   4   7  21   -8.19    5.91
   4   7  22   51.10    7.30
   4   8 -18   45.97    7.90
   4   8 -17   -0.42    4.81
   4   8 -16    6.46    8.15
   4   8 -15   -3.93    5.88
   4   8 -14   22.11    4.91
   4   8 -13   -2.24    4.91
   4   8 -12   -6.46    6.64
   4   8 -11    9.90    3.14
   4   8 -10    1.96    3.09
   4   8  -9    2.68    2.26
   4   8  -8   78.89    4.64
   4   8  -7    1.27    3.10
   4   8  -6   13.28    3.64
   4   8  -5    0.83    2.95
   4   8  -4  134.04    6.60
   4   8  -3    8.46    2.83
   4   8  -2   65.20    3.84
   4   8  -1  173.73    5.32
   4   8   0   44.22    2.21
   4   8   1  151.64    4.98
   4   8   2  139.03    4.20
   4   8   3   12.27    1.17
   4   8   4  328.35    9.04
   4   8   5   90.69    3.62
   4   8   6   64.62    3.06
   4   8   7  137.63    4.74
   4   8   8   45.33    2.55
   4   8   9   44.06    2.37
   4   8  10  432.81   12.35
   4   8  11   51.10    3.23
   4   8  12  144.12    7.42
   4   8  13    3.38    3.10
   4   8  14    5.09    2.41
   4   8  15   15.64    4.13
   4   8  16   -0.14    3.43
   4   8  17  130.77   12.22
   4   8  18   27.92    5.77
   4   8  19   17.87    4.22
   4   8  20   17.08    6.47
   4   8  21   54.37    7.88
   4   9 -17   -1.96    6.06
   4   9 -16   18.47    8.47
   4   9 -15   18.37    6.92
   4   9 -14   34.00    6.64
   4   9 -13   23.12    7.08
   4   9 -12    7.78    8.49
   4   9 -11   34.83    5.88
   4   9 -10   15.64    5.08
   4   9  -9  101.16    6.68
   4   9  -8   12.27    3.07
   4   9  -7   22.67    4.41
   4   9  -6    8.46    3.24
   4   9  -5   13.82    3.71
   4   9  -4  277.95   11.48
   4   9  -3   42.96    3.89
   4   9  -2   90.02    4.51
   4   9  -1  361.87   11.75
   4   9   0   68.89    3.75
   4   9   1    5.36    1.71
   4   9   2   31.95    2.28
   4   9   3   12.03    2.38
   4   9   4    6.22    2.96
   4   9   5   41.43    3.51
   4   9   6    9.46    2.71
   4   9   7   77.00    4.37
   4   9   8   34.00    2.35
   4   9   9    6.64    1.96
   4   9  10   77.64    3.98
   4   9  11    3.65    1.82
   4   9  12   54.91    3.17
   4   9  13   12.03    4.70
   4   9  14    3.79    4.77
   4   9  15   12.27    4.24
   4   9  16   10.59    6.49
   4   9  17   -0.56    3.92
   4   9  18    0.42    4.67
   4   9  19   -2.81    6.20
   4   9  20   14.62    5.81
   4  10 -15    1.41    8.46
   4  10 -14   11.53    6.37
   4  10 -13   -2.10    5.88
   4  10 -12   -3.65    5.09
   4  10 -11    2.10    5.88
   4  10 -10   13.11    5.50
   4  10  -9   10.59    5.49
   4  10  -8    6.46    4.95
   4  10  -7   18.78    5.96
   4  10  -6    8.88    3.26
   4  10  -5    4.51    4.39
   4  10  -4   27.04    3.84
   4  10  -3  209.53   11.35
   4  10  -2   11.53    2.99
   4  10  -1   51.78    3.24
   4  10   0   78.05    4.20
   4  10   1   13.55    1.58
   4  10   2   -0.83    1.13
   4  10   3    0.56    3.09
   4  10   4    1.27    2.81
   4  10   5  109.94    4.74
   4  10   6    6.88    2.37
   4  10   7   17.67    3.40
   4  10   8  275.97    9.48
   4  10   9   51.27    3.74
   4  10  10   34.55    4.75
   4  10  11   -2.68    3.54
   4  10  12    3.09    3.09
   4  10  13   98.08    6.82
   4  10  14   18.99    3.84
   4  10  15    6.77    4.07
   4  10  16    8.46    4.62
   4  10  17   42.50    8.05
   4  10  18   -1.41    4.94
   4  11 -12   -2.81    5.77
   4  11 -11   -6.33    6.33
   4  11 -10   -1.96    6.63
   4  11  -9   -1.41    7.47
   4  11  -8    8.60    7.32
   4  11  -7    9.90    7.02
   4  11  -6   50.25    8.76
   4  11  -5    3.79    3.93
   4  11  -4   -1.27    4.79
   4  11  -3    9.60    5.96
   4  11  -2   -1.27    4.10
   4  11  -1   -2.68    1.83
   4  11   0  124.32   10.32
   4  11   1   24.99    5.34
   4  11   2    2.38    3.67
   4  11   3   13.99    5.77
   4  11   4   58.66    6.73
   4  11   5    2.24    3.67
   4  11   6    1.27    2.81
   4  11   7   28.30    5.30
   4  11   8    3.26    4.24
   4  11   9    4.22    3.51
   4  11  10   56.32    5.70
   4  11  11    2.38    5.06
   4  11  12    5.36    3.41
   4  11  13   35.81    5.68
   4  11  14   26.31    4.15
   4  11  15    0.00    1.41
   4  12  -9   12.44    5.61
   4  12  -8   18.99    5.58
   4  12  -7    6.33    6.33
   4  12  -6    6.22    5.63
   4  12  -5    1.27    5.36
   4  12  -4   50.93    7.12
   4  12  -3   -4.67    6.92
   4  12  -2   -8.60    5.22
   4  12  -1    3.26    4.79
   4  12   0   12.44    4.36
   4  12   1   38.56    6.49
   4  12   2    2.54    4.65
   4  12   3   42.65    5.43
   4  12   4   18.78    4.94
   4  12   5   51.10    7.81
   4  12   6   12.69    5.08
   4  12   7   -3.09    4.09
   4  12   8   57.75    5.95
   4  12   9    3.26    3.26
   4  12  10   14.26    5.12
   4  12  11   16.50    4.92
   4  12  12   15.36    5.40
   4  13  -2   -7.59    7.85
   4  13  -1   22.79    5.44
   4  13   0   28.30    7.08
   4  13   1   -1.83    6.50
   4  13   2   -5.47    4.95
   4  13   3   13.55    5.77
   4  13   4   -0.14    4.85
   4  13   5   19.73    6.01
   5  -9   1    0.56    6.18
   5  -9   2   19.30    6.57
   5  -9   3   18.08    5.25
   5  -8  -8    9.98    6.60
   5  -8  -7   41.27    9.76
   5  -8  -6    0.71    5.95
   5  -8  -5   -4.22    5.22
   5  -8  -4   40.67    7.73
   5  -8  -3   40.96    9.88
   5  -8  -1   -7.08    5.63
   5  -8   0   -4.94    5.49
   5  -8   1    5.09    6.91
   5  -8   2    2.81    5.20
   5  -8   3   51.44    8.52
   5  -8   4   -2.38    5.20
   5  -8   5    7.33    3.92
   5  -8   6   61.60    7.46
   5  -8   7    5.47    5.33
   5  -8   8    3.26    6.64
   5  -8   9    5.36    5.50
   5  -8  10    3.53    4.50
   5  -8  11    5.20    6.18
   5  -7 -11    0.28    3.69
   5  -7 -10   -1.83    4.67
   5  -7  -9    9.17    5.75
   5  -7  -8   29.31    6.68
   5  -7  -7   46.46    7.94
   5  -7  -6   82.95   11.68
   5  -7  -5   49.42    8.18
   5  -7  -4   -6.03    5.37
   5  -7  -3    4.94    5.06
   5  -7  -2    9.31    4.78
   5  -7  -1   90.69    9.05
   5  -7   0   55.78    5.50
   5  -7   1   23.93    2.79
   5  -7   2    3.93    6.60
   5  -7   3    1.27    3.24
   5  -7   4   17.47    3.07
   5  -7   5   31.81    4.15
   5  -7   6   -4.07    2.98
   5  -7   7    1.71    2.69
   5  -7   8    0.83    2.52
   5  -7   9   22.11    4.36
   5  -7  10  124.32    7.94
   5  -7  11    0.56    3.23
   5  -7  12   16.10    6.49
   5  -7  13   26.31    9.98
   5  -7  14   -1.83    5.50
   5  -6 -14   13.38    4.78
   5  -6 -13   27.30    4.09
   5  -6 -12   10.28    3.36
   5  -6 -11   -0.56    2.66
   5  -6 -10    2.38    2.82
   5  -6  -9   11.69    2.68
   5  -6  -8   16.10    2.96
   5  -6  -7   -2.68    2.83
   5  -6  -6    4.07    2.83
   5  -6  -5    1.83    2.26
   5  -6  -4  208.84    8.59
   5  -6  -3   29.31    2.83
   5  -6  -2  275.97   10.25
   5  -6  -1    5.75    2.79
   5  -6   0    6.33    2.40
   5  -6   1    5.20    1.68
   5  -6   2    4.07    2.83
   5  -6   3    5.47    2.83
   5  -6   4   18.99    3.41
   5  -6   5    5.75    2.68
   5  -6   6    2.81    3.10
   5  -6   7   -1.41    2.40
   5  -6   8   24.52    3.30
   5  -6   9    4.67    2.26
   5  -6  10   81.66    6.87
   5  -6  11   58.12    4.53
   5  -6  12   19.20    3.64
   5  -6  13    3.26    5.23
   5  -6  14   29.44    6.97
   5  -6  15   -2.24    6.03
   5  -6  16   -7.21    7.77
   5  -6  17   15.92    5.58
   5  -5 -16   40.96    4.86
   5  -5 -15   51.10    5.60
   5  -5 -14    7.08    3.54
   5  -5 -13    7.46    3.50
   5  -5 -12   -2.24    3.09
   5  -5 -11  182.92   10.93
   5  -5 -10   13.82    3.79
   5  -5  -9    4.78    2.54
   5  -5  -8    0.14    1.99
   5  -5  -7  149.01    6.09
   5  -5  -6    3.26    1.97
   5  -5  -5   58.29    3.09
   5  -5  -4   24.28    2.58
   5  -5  -3    3.38    2.54
   5  -5  -2    1.96    2.83
   5  -5  -1  149.29    6.97
   5  -5   0   49.58    3.17
   5  -5   1  489.39   16.29
   5  -5   2   74.52    3.69
   5  -5   3   35.11    2.68
   5  -5   4   12.44    2.43
   5  -5   5    7.92    2.27
   5  -5   6  102.83    4.33
   5  -5   7   90.69    3.85
   5  -5   8    3.93    3.24
   5  -5   9   -1.00    2.96
   5  -5  10    6.22    3.37
   5  -5  11    7.92    4.81
   5  -5  12   78.05    6.92
   5  -5  13    7.92    4.68
   5  -5  14    0.42    4.67
   5  -5  15    2.81    4.65
   5  -5  16   12.03    5.51
   5  -5  17    1.71    5.68
   5  -5  18    0.00    1.41
   5  -5  19   16.68    8.45
   5  -4 -18   32.08    4.84
   5  -4 -17    1.41    3.53
   5  -4 -16    7.59    3.92
   5  -4 -15   -1.96    3.36
   5  -4 -14   27.55    4.61
   5  -4 -13   36.67    3.88
   5  -4 -12    5.47    2.66
   5  -4 -11    6.77    2.83
   5  -4 -10   10.97    2.28
   5  -4  -9   54.55    3.86
   5  -4  -8  111.43    6.51
   5  -4  -7  269.30   11.69
   5  -4  -6   51.61    2.57
   5  -4  -5   46.78    2.27
   5  -4  -4   11.45    1.85
   5  -4  -3    6.46    1.69
   5  -4  -2   10.59    1.86
   5  -4  -1    2.24    1.96
   5  -4   0   12.94    1.71
   5  -4   1    0.42    1.55
   5  -4   2  207.81    6.85
   5  -4   3    2.81    1.66
   5  -4   4   41.43    2.75
   5  -4   5   14.62    2.27
   5  -4   6  127.79    5.10
   5  -4   7   26.68    2.58
   5  -4   8   12.69    1.10
   5  -4   9    3.26    4.24
   5  -4  10   23.82    3.82
   5  -4  11   10.97    3.38
   5  -4  12    9.17    3.23
   5  -4  13   23.59    3.12
   5  -4  14   10.28    3.12
   5  -4  15   59.02    7.49
   5  -4  16   10.12    5.22
   5  -4  17   33.45    8.23
   5  -4  18    9.98    5.33
   5  -4  20    9.60    7.50
   5  -4  21   31.02    9.00
   5  -3 -19    5.09    4.67
   5  -3 -18   33.71    5.25
   5  -3 -17  -10.43    4.91
   5  -3 -16   19.20    3.85
   5  -3 -15   -4.37    3.37
   5  -3 -14    6.22    3.37
   5  -3 -13   -1.00    2.71
   5  -3 -12  126.99    5.63
   5  -3 -11   -2.81    2.38
   5  -3 -10   78.26    3.99
   5  -3  -9  133.49    4.94
   5  -3  -8   70.88    3.40
   5  -3  -7   -2.38    1.40
   5  -3  -6    3.26    1.54
   5  -3  -5   -0.56    1.11
   5  -3  -4  108.21    2.96
   5  -3  -3   48.91    2.33
   5  -3  -2   89.11    2.92
   5  -3  -1   29.31    1.68
   5  -3   0    0.28    3.26
   5  -3   1   64.24    4.39
   5  -3   2  205.77    6.47
   5  -3   3  158.14    5.98
   5  -3   4   -0.56    2.81
   5  -3   5   16.88    3.12
   5  -3   6   40.36    3.31
   5  -3   7  137.08    4.72
   5  -3   8   86.89    5.75
   5  -3   9    7.33    4.12
   5  -3  10   41.12    3.96
   5  -3  11    8.88    2.13
   5  -3  12   -4.37    2.54
   5  -3  13   64.62    4.20
   5  -3  14   69.88    4.57
   5  -3  15    2.54    2.54
   5  -3  16   11.86    5.08
   5  -3  17   18.37    5.40
   5  -3  18    3.26    6.94
   5  -3  19   13.82    6.36
   5  -3  20   11.86    7.94
   5  -3  21   16.10    6.49
   5  -3  22   13.28    7.19
   5  -2 -20    4.78    3.53
   5  -2 -19    0.56    3.51
   5  -2 -18    2.68    3.98
   5  -2 -17    0.56    3.92
   5  -2 -16  150.76    8.46
   5  -2 -15   16.10    3.81
   5  -2 -14   16.20    2.78
   5  -2 -13  163.25    6.37
   5  -2 -12   12.44    2.51
   5  -2 -11   39.02    3.26
   5  -2 -10  203.38    6.09
   5  -2  -9    3.09    2.26
   5  -2  -8   51.27    2.72
   5  -2  -7  216.45    5.94
   5  -2  -6   17.87    2.00
   5  -2  -5    0.56    1.83
   5  -2  -4  266.98    6.60
   5  -2  -3  429.85   10.34
   5  -2  -2    1.00    1.00
   5  -2  -1   11.69    2.27
   5  -2   0    5.75    2.10
   5  -2   1   49.08    3.82
   5  -2   2   38.56    2.81
   5  -2   3    5.09    2.83
   5  -2   4   82.52    5.17
   5  -2   5  186.80    4.86
   5  -2   6    1.83    1.54
   5  -2   7    6.22    2.55
   5  -2   8    5.36    2.52
   5  -2   9   14.62    2.09
   5  -2  10   57.75    2.89
   5  -2  11   17.08    2.55
   5  -2  12   19.40    2.41
   5  -2  13    1.27    2.12
   5  -2  14    1.96    2.40
   5  -2  15   -1.00    2.13
   5  -2  16   -0.56    2.52
   5  -2  17   24.52    4.00
   5  -2  18   25.70    5.54
   5  -2  19   71.88   10.07
   5  -2  20   15.64    5.08
   5  -2  21   -1.41    4.79
   5  -2  22   85.12   12.49
   5  -2  23    0.83    7.71
   5  -1 -20    5.09    4.67
   5  -1 -19    1.41    3.67
   5  -1 -18    3.93    3.82
   5  -1 -17    4.07    4.36
   5  -1 -16    2.10    4.06
   5  -1 -15   40.96    5.17
   5  -1 -14   66.74    4.46
   5  -1 -13   36.24    3.29
   5  -1 -12    2.68    2.52
   5  -1 -11   13.82    2.30
   5  -1 -10   25.47    2.40
   5  -1  -9    5.75    1.82
   5  -1  -8  228.86    5.75
   5  -1  -7    2.24    1.66
   5  -1  -6   54.37    2.45
   5  -1  -5  241.24    6.27
   5  -1  -4   39.16    1.93
   5  -1  -3    4.94    1.27
   5  -1  -2 1153.35   25.80
   5  -1  -1  101.16    3.58
   5  -1   0  260.04    6.51
   5  -1   1   -0.42    1.55
   5  -1   2    1.00    1.85
   5  -1   3   69.68    3.37
   5  -1   4   50.76    2.20
   5  -1   5  129.68    3.51
   5  -1   6   -2.54    2.38
   5  -1   7    6.33    2.81
   5  -1   8  877.04   24.62
   5  -1   9  230.65    6.85
   5  -1  10  556.71   17.37
   5  -1  11   22.67    2.48
   5  -1  12    5.47    1.83
   5  -1  13   65.40    2.88
   5  -1  14    7.92    2.41
   5  -1  15   27.92    3.51
   5  -1  16    2.24    2.81
   5  -1  17    1.00    2.71
   5  -1  18    4.37    3.07
   5  -1  19   58.66    7.28
   5  -1  20   35.81    7.39
   5  -1  21   61.24    7.25
   5  -1  22    6.88    3.81
   5  -1  23   39.61    7.18
   5  -1  24    4.78    5.09
   5   0 -21   14.62    5.44
   5   0 -20   30.23    5.88
   5   0 -19   -3.93    4.53
   5   0 -18  162.34   10.59
   5   0 -17    4.94    4.12
   5   0 -16   22.00    4.12
   5   0 -15   -3.53    3.26
   5   0 -14   52.99    4.67
   5   0 -13    4.22    2.24
   5   0 -12   35.67    2.55
   5   0 -11   13.38    1.82
   5   0 -10    4.51    1.97
   5   0  -9    2.24    1.82
   5   0  -8    7.78    1.86
   5   0  -7  237.56    5.49
   5   0  -6   87.77    3.12
   5   0  -5   36.24    2.00
   5   0  -4   57.39    2.34
   5   0  -3  108.70    3.21
   5   0  -2  131.85    3.27
   5   0  -1   94.12    2.76
   5   0   0  388.08    9.83
   5   0   1    8.74    1.82
   5   0   2  239.76    5.88
   5   0   3   27.17    1.86
   5   0   4    9.17    1.16
   5   0   5   16.78    1.37
   5   0   6  606.53   15.20
   5   0   7 2066.21   60.45
   5   0   8    5.36    1.54
   5   0   9    5.09    1.82
   5   0  10  333.11    8.67
   5   0  11    3.09    1.55
   5   0  12   53.33    2.78
   5   0  13   30.09    2.61
   5   0  14   50.59    2.37
   5   0  15    1.11    2.38
   5   0  16    9.46    3.21
   5   0  17  124.86    7.16
   5   0  18   36.82    4.03
   5   0  19    8.05    2.96
   5   0  20   29.58    5.68
   5   0  21   13.55    6.91
   5   0  22    7.92    6.49
   5   0  23    2.10    6.74
   5   0  24   26.68    8.22
   5   1 -21    6.77    3.53
   5   1 -20    1.83    3.95
   5   1 -19   10.81    3.20
   5   1 -18   50.08    4.88
   5   1 -17   57.04    6.09
   5   1 -16   -3.26    3.26
   5   1 -15   15.82    3.78
   5   1 -14   50.93    4.41
   5   1 -13   30.23    3.40
   5   1 -12    3.26    2.10
   5   1 -11  456.34   10.66
   5   1 -10    0.14    2.14
   5   1  -9  372.80   10.08
   5   1  -8  133.22    4.12
   5   1  -7  371.88   10.08
   5   1  -6  699.94   14.45
   5   1  -5  207.81    4.79
   5   1  -4   57.75    2.17
   5   1  -3  403.68    9.55
   5   1  -2  352.00    8.46
   5   1  -1  131.85    3.27
   5   1   0   77.83    2.30
   5   1   1   14.52    1.09
   5   1   2  228.86    6.11
   5   1   3   28.17    1.64
   5   1   4  133.22    4.12
   5   1   5  197.00    5.33
   5   1   6  163.25    4.55
   5   1   7   51.95    2.06
   5   1   8   84.69    3.06
   5   1   9   25.47    1.68
   5   1  10  109.45    4.23
   5   1  11    2.54    1.40
   5   1  12    1.55    1.69
   5   1  13   -1.00    1.85
   5   1  14   14.26    2.16
   5   1  15    4.51    2.43
   5   1  16    0.71    3.54
   5   1  17  153.38    8.83
   5   1  18   19.83    3.69
   5   1  19   45.33    6.56
   5   1  20   25.83    3.26
   5   1  21    5.20    4.23
   5   1  22    8.46    4.62
   5   1  23    2.96    4.26
   5   1  24    5.47    6.90
   5   2 -21   30.48    5.37
   5   2 -20   10.28    4.12
   5   2 -19    5.47    4.06
   5   2 -18   15.36    3.54
   5   2 -17    3.79    4.34
   5   2 -16   45.81    4.02
   5   2 -15    6.88    3.12
   5   2 -14   82.74    3.89
   5   2 -13    2.54    1.96
   5   2 -12   46.14    3.23
   5   2 -11   33.85    2.48
   5   2 -10    5.09    1.99
   5   2  -9   25.23    2.51
   5   2  -8   23.12    2.17
   5   2  -7  191.71    5.26
   5   2  -6  107.46    3.44
   5   2  -5   62.92    2.45
   5   2  -4   49.58    2.17
   5   2  -3   28.17    1.64
   5   2  -2   37.11    1.59
   5   2  -1   54.03    1.92
   5   2   0  376.01   10.14
   5   2   1    2.24    0.85
   5   2   2  509.02   15.54
   5   2   3  753.71   16.95
   5   2   4  564.01   12.97
   5   2   5  106.73    3.92
   5   2   6  131.03    4.34
   5   2   7   10.28    1.83
   5   2   8  386.21   11.20
   5   2   9   30.23    1.69
   5   2  10   64.62    2.48
   5   2  11   22.11    1.79
   5   2  12   20.04    2.02
   5   2  13  260.80    7.67
   5   2  14   86.89    4.43
   5   2  15  122.22    5.51
   5   2  16    5.20    1.95
   5   2  17   40.96    2.89
   5   2  18   -2.96    3.51
   5   2  19  187.45   10.73
   5   2  20   -0.71    5.25
   5   2  21   20.04    5.20
   5   2  22   17.08    6.18
   5   2  23    8.60    5.50
   5   2  24    7.92    6.35
   5   2  25   13.55    6.03
   5   3 -21    2.10    4.64
   5   3 -20   13.55    4.37
   5   3 -19    3.79    5.78
   5   3 -18    1.11    4.62
   5   3 -17   17.47    5.26
   5   3 -16   71.88    6.85
   5   3 -15    4.67    3.13
   5   3 -14    9.60    2.58
   5   3 -13  346.67   11.49
   5   3 -12   63.68    3.21
   5   3 -11  366.86    9.09
   5   3 -10    2.68    2.10
   5   3  -9  114.97    3.82
   5   3  -8    1.83    1.96
   5   3  -7    2.54    1.82
   5   3  -6   54.20    2.45
   5   3  -5   39.45    1.95
   5   3  -4  369.60    8.22
   5   3  -3   40.96    1.82
   5   3  -2    2.68    1.13
   5   3  -1   12.86    1.45
   5   3   0   22.79    1.35
   5   3   1  842.23   18.61
   5   3   2 1097.58   29.89
   5   3   3   31.54   12.41
   5   3   4    2.38    2.52
   5   3   5   37.83    4.23
   5   3   6  337.45    8.29
   5   3   7  236.46   10.22
   5   3   8   13.11    1.80
   5   3   9    2.81    0.99
   5   3  10   42.19    2.47
   5   3  11    2.54    1.55
   5   3  12   67.71    3.33
   5   3  13   32.63    2.31
   5   3  14   19.20    2.71
   5   3  15  216.45    9.08
   5   3  16   30.75    3.16
   5   3  17    5.36    2.26
   5   3  18    9.46    2.41
   5   3  19    3.26    2.52
   5   3  20   12.52    4.79
   5   3  21    9.31    3.92
   5   3  22   48.25    6.60
   5   3  24    7.46    4.79
   5   4 -21   23.24    6.18
   5   4 -20   -1.55    6.06
   5   4 -19   64.06    6.66
   5   4 -18    6.03    3.79
   5   4 -17   37.55    5.09
   5   4 -16   12.69    6.09
   5   4 -15   -0.56    3.23
   5   4 -14   -3.26    2.40
   5   4 -13   68.30    4.31
   5   4 -12  113.20    5.05
   5   4 -11  153.10    5.58
   5   4 -10   27.30    2.74
   5   4  -9   43.58    2.82
   5   4  -8   20.15    2.24
   5   4  -7    0.83    1.54
   5   4  -6   -0.28    1.99
   5   4  -5    9.17    1.58
   5   4  -4  422.98    9.77
   5   4  -3   40.96    1.82
   5   4  -2 1565.45   35.70
   5   4  -1  556.71   14.57
   5   4   0    9.02    1.71
   5   4   1    1.00    0.85
   5   4   2   93.43    2.75
   5   4   3  429.36   12.31
   5   4   4    4.94    1.69
   5   4   5   47.60    1.64
   5   4   6   87.77    2.45
   5   4   7  132.40    4.10
   5   4   8   16.50    1.83
   5   4   9   54.55    2.10
   5   4  10   92.74    2.75
   5   4  11   53.33    2.43
   5   4  12   -0.71    1.14
   5   4  13   34.97    2.10
   5   4  14    2.68    1.99
   5   4  15   75.35    4.12
   5   4  16   33.04    3.00
   5   4  17    2.24    2.10
   5   4  18   10.81    2.50
   5   4  19    7.92    3.27
   5   4  20   15.54    5.61
   5   4  21   31.68    5.22
   5   4  22    8.19    4.34
   5   4  23   24.99    5.70
   5   4  24   -6.77    5.50
   5   5 -20   -0.28    6.39
   5   5 -19    1.11    3.64
   5   5 -18   72.69    6.27
   5   5 -17   14.99    4.50
   5   5 -16    1.41    3.81
   5   5 -15   42.65    4.19
   5   5 -14    1.00    2.85
   5   5 -13   46.94    3.74
   5   5 -12   14.52    2.35
   5   5 -11   47.26    3.75
   5   5 -10  120.39    4.95
   5   5  -9  215.76    6.27
   5   5  -8  139.03    3.92
   5   5  -7    4.22    1.85
   5   5  -6   74.32    2.86
   5   5  -5   36.10    2.28
   5   5  -4  364.13    8.16
   5   5  -3    3.53    1.24
   5   5  -2  284.71    6.81
   5   5  -1   92.06    2.74
   5   5   0  182.60    4.81
   5   5   1  211.94    5.88
   5   5   2   11.14    1.11
   5   5   3   13.28    1.13
   5   5   4  318.10    8.05
   5   5   5    1.41    1.13
   5   5   6   -0.56    1.25
   5   5   7   64.62    2.68
   5   5   8  226.71    6.08
   5   5   9   37.11    1.88
   5   5  10  390.42   11.27
   5   5  11   22.56    1.69
   5   5  12   26.31    1.95
   5   5  13    2.10    1.82
   5   5  14  109.94    4.74
   5   5  15   43.43    3.29
   5   5  16    4.67    3.13
   5   5  17    3.09    2.26
   5   5  18    7.08    2.14
   5   5  19    7.78    4.77
   5   5  20   15.07    4.51
   5   5  21   -4.94    2.95
   5   5  22    9.98    6.08
   5   5  23   17.08    6.67
   5   5  24   72.29    8.69
   5   6 -20   11.14    5.63
   5   6 -19    3.26    5.92
   5   6 -18   34.97    8.43
   5   6 -17    0.83    4.91
   5   6 -16   52.30    8.07
   5   6 -15   29.19    6.16
   5   6 -14   42.81    6.53
   5   6 -13   -0.14    3.85
   5   6 -12   62.73    4.51
   5   6 -11   35.25    3.95
   5   6 -10    4.07    2.68
   5   6  -9  178.78    6.67
   5   6  -8   41.72    2.61
   5   6  -7   16.40    2.02
   5   6  -6   54.20    2.62
   5   6  -5   14.81    1.83
   5   6  -4   39.16    2.38
   5   6  -3   54.20    2.10
   5   6  -2    5.20    1.57
   5   6  -1   50.76    2.20
   5   6   0    7.59    1.11
   5   6   1   21.12    1.42
   5   6   2  494.65    9.50
   5   6   3    8.32    1.85
   5   6   4   44.53    1.90
   5   6   5  689.92   22.46
   5   6   6  152.21    3.81
   5   6   7    2.68    1.40
   5   6   8  130.77    3.53
   5   6   9   69.29    2.37
   5   6  10   30.88    1.97
   5   6  11  110.94    4.26
   5   6  12   78.89    3.58
   5   6  13   20.15    2.24
   5   6  14  142.98    6.81
   5   6  15   -1.27    1.85
   5   6  16   55.08    3.69
   5   6  17  322.78   16.22
   5   6  18   25.94    3.75
   5   6  19    7.46    5.39
   5   6  20    8.32    4.79
   5   6  21   29.19    4.75
   5   6  22   53.16    5.71
   5   6  23   13.11    4.47
   5   7 -19    5.09    6.05
   5   7 -18    3.38    6.33
   5   7 -17   10.43    5.37
   5   7 -16   28.81    6.88
   5   7 -15   21.01    8.16
   5   7 -14    4.51    4.50
   5   7 -13   77.21   10.65
   5   7 -12   38.86    4.74
   5   7 -11   -0.42    3.54
   5   7 -10    0.14    3.71
   5   7  -9   18.47    3.98
   5   7  -8  143.84    6.84
   5   7  -7  279.13    8.73
   5   7  -6   83.60    3.91
   5   7  -5   18.89    2.27
   5   7  -4  309.69    8.36
   5   7  -3   67.13    2.72
   5   7  -2  247.18    7.09
   5   7  -1   20.15    1.71
   5   7   0   18.78    1.65
   5   7   1    6.33    1.25
   5   7   2  357.37    8.98
   5   7   3   28.81    1.66
   5   7   4   60.86    2.23
   5   7   5   79.53    3.17
   5   7   6    7.21    1.52
   5   7   7   56.32    2.31
   5   7   8   77.21    2.92
   5   7   9  202.71    5.41
   5   7  10  169.06    4.94
   5   7  11   36.67    2.30
   5   7  12    3.79    2.54
   5   7  13    0.28    1.85
   5   7  14   54.20    3.85
   5   7  15   15.36    2.51
   5   7  16    2.54    4.07
   5   7  17    7.59    5.03
   5   7  18    8.88    3.26
   5   7  19   13.64    3.51
   5   7  20   16.68    4.27
   5   7  21    3.09    3.79
   5   7  22    2.96    4.78
   5   8 -18    3.93    6.88
   5   8 -17    4.37    5.06
   5   8 -16   13.28    6.23
   5   8 -15    9.76    7.49
   5   8 -14    7.78    5.50
   5   8 -13    5.92    6.94
   5   8 -12   -2.54    4.79
   5   8 -11  144.12    8.56
   5   8 -10   -1.11    2.93
   5   8  -9   11.14    3.41
   5   8  -8   39.02    3.86
   5   8  -7    9.46    4.09
   5   8  -6   11.53    2.43
   5   8  -5    2.10    2.51
   5   8  -4    6.88    1.99
   5   8  -3  111.94    4.27
   5   8  -2   39.90    2.71
   5   8  -1    7.08    2.14
   5   8   0   55.61    2.65
   5   8   1  188.10    6.19
   5   8   2   -0.42    1.55
   5   8   3    2.38    1.28
   5   8   4   15.26    1.30
   5   8   5    8.74    1.69
   5   8   6  115.99    4.34
   5   8   7  238.66    7.70
   5   8   8   11.86    2.28
   5   8   9  145.56    4.30
   5   8  10   46.78    2.76
   5   8  11   96.67    4.44
   5   8  12   77.21    4.39
   5   8  13   11.14    2.38
   5   8  14    6.88    2.93
   5   8  15   25.11    5.60
   5   8  16    2.81    3.38
   5   8  17   25.70    4.70
   5   8  18    9.60    4.78
   5   8  19   55.26    7.59
   5   8  20   -0.83    6.44
   5   9 -16   -5.64    6.09
   5   9 -15   60.12    8.66
   5   9 -14   26.80    5.78
   5   9 -13   -2.54    7.02
   5   9 -12    8.19    4.48
   5   9 -11   42.96    6.54
   5   9 -10   -1.71    6.67
   5   9  -9   53.68    5.05
   5   9  -8   12.03    3.71
   5   9  -7    6.64    3.37
   5   9  -6   -1.71    2.54
   5   9  -5    1.11    2.38
   5   9  -4  129.95    5.68
   5   9  -3    1.00    2.41
   5   9  -2  188.10    6.19
   5   9  -1   73.29    3.45
   5   9   0  236.83    8.04
   5   9   1   51.27    2.72
   5   9   2   12.27    1.66
   5   9   3    4.67    0.97
   5   9   4   10.97    2.83
   5   9   5  116.76    4.62
   5   9   6   42.96    2.96
   5   9   7    5.47    2.38
   5   9   8   34.14    2.35
   5   9   9    7.92    1.80
   5   9  10   29.71    2.85
   5   9  11  126.45    7.21
   5   9  12   88.23    5.36
   5   9  13    9.31    3.12
   5   9  14   28.68    5.60
   5   9  15   26.07    4.24
   5   9  16   -5.09    5.63
   5   9  17    3.09    3.79
   5   9  18   -4.51    4.09
   5   9  19   43.12    6.56
   5   9  20    6.77    6.18
   5  10 -14    3.65    6.36
   5  10 -13   -0.56    6.88
   5  10 -12    4.94    5.64
   5  10 -11   -0.83    6.73
   5  10 -10   11.45    7.88
   5  10  -9   52.81    7.42
   5  10  -8   36.10    7.56
   5  10  -7   48.91    5.81
   5  10  -6   61.42    6.51
   5  10  -5   -2.54    2.27
   5  10  -4   56.50    3.03
   5  10  -3   50.25    3.54
   5  10  -2   22.79    2.38
   5  10  -1   13.82    1.68
   5  10   0    4.22    1.95
   5  10   1   16.68    1.85
   5  10   2   43.12    2.81
   5  10   3    7.21    2.81
   5  10   4   -1.27    2.41
   5  10   5    2.54    2.27
   5  10   6   11.86    2.95
   5  10   7    7.46    2.79
   5  10   8   86.89    5.98
   5  10   9    7.59    2.23
   5  10  10   42.03    4.47
   5  10  11    4.07    3.26
   5  10  12   -5.47    3.50
   5  10  13    5.36    3.07
   5  10  14  114.97    6.63
   5  10  15   55.08    4.94
   5  10  16   -4.22    2.98
   5  10  17   18.47    5.61
   5  10  18   -0.56    6.03
   5  11 -12   41.43    8.40
   5  11 -11  -11.29    7.74
   5  11 -10    1.96    7.88
   5  11  -9   12.94    6.50
   5  11  -8    1.71    5.37
   5  11  -7   43.12    8.73
   5  11  -6   12.03    6.35
   5  11  -5   45.33    3.84
   5  11  -4   25.35    3.23
   5  11  -3   31.95    3.36
   5  11  -2  123.53    7.12
   5  11  -1   -1.55    2.13
   5  11   0   24.41    4.46
   5  11   1   33.71    5.94
   5  11   2   17.37    6.23
   5  11   3   -1.83    5.50
   5  11   4    9.17    5.89
   5  11   5   72.69    7.49
   5  11   6    3.09    3.09
   5  11   7   27.04    3.84
   5  11   8   17.67    3.99
   5  11   9    6.22    3.07
   5  11  10   28.17    4.29
   5  11  11    2.24    4.09
   5  11  12   16.68    3.68
   5  11  13   14.99    3.68
   5  11  14    1.00    4.39
   5  11  15    2.54    3.67
   5  12  -9    5.09    6.22
   5  12  -8    7.08    5.05
   5  12  -7   26.93    5.80
   5  12  -6   -3.65    4.50
   5  12  -5    9.46    4.23
   5  12  -4    9.46    6.64
   5  12  -3    9.46    4.96
   5  12  -2   -2.54    4.50
   5  12  -1    7.92    6.61
   5  12   0   47.26    5.71
   5  12   1    0.71    4.24
   5  12   2   51.10    7.81
   5  12   3   32.49    5.82
   5  12   4   15.26    3.99
   5  12   5   89.79    8.11
   5  12   6   53.51    7.81
   5  12   7    4.22    3.81
   5  12   8   -1.96    3.36
   5  12   9   15.36    4.47
   5  12  10   42.81    4.98
   5  12  11    1.00    3.38
   5  12  12    5.20    4.65
   5  13  -3   21.12    7.85
   5  13  -2    4.37    6.05
   5  13  -1   11.53    4.75
   5  13   0   76.17    6.43
   5  13   1   -0.56    3.67
   5  13   2   16.20    6.50
   5  13   3   -6.88    3.92
   5  13   4   13.55    5.95
   5  13   5   42.03    6.32
   5  13   6   -6.46    3.92
   6  -8  -2  101.64   12.45
   6  -8  -1    4.51    7.47
   6  -8   0   14.26    6.46
   6  -8   1    5.75    5.19
   6  -8   2    5.92    4.92
   6  -8   3   29.71    6.08
   6  -8   4   27.66    6.74
   6  -8   5    6.64    5.08
   6  -7  -8   10.81    7.04
   6  -7  -7    2.54    5.63
   6  -7  -6    6.33    8.19
   6  -7  -5   -2.68    5.22
   6  -7  -4   -3.26    4.79
   6  -7  -3   70.08    8.54
   6  -7  -2  105.50   10.73
   6  -7  -1   87.11    9.31
   6  -7   0  146.42   12.35
   6  -7   1    9.76    6.37
   6  -7   2   70.88   10.39
   6  -7   3   29.44    6.70
   6  -7   4    7.33    5.53
   6  -7   5   33.45    6.46
   6  -7   6   -0.28    4.96
   6  -7   7    0.28    7.80
   6  -7   8   10.74    7.16
   6  -7   9   -2.54    7.49
   6  -7  10    6.88    8.04
   6  -7  11   37.11    9.11
   6  -7  12   47.26    9.63
   6  -6 -11   -1.27    4.23
   6  -6 -10    3.93    4.67
   6  -6  -9   19.40    3.98
   6  -6  -8    0.28    3.26
   6  -6  -7   80.58    6.61
   6  -6  -6    1.11    5.63
   6  -6  -5  109.45   10.18
   6  -6  -4    5.09    5.25
   6  -6  -3    4.22    3.95
   6  -6  -2   11.29    5.10
   6  -6  -1   27.04    6.30
   6  -6   0    7.46    7.71
   6  -6   1   14.62    5.81
   6  -6   2   -4.67    5.23
   6  -6   3    0.56    8.15
   6  -6   4    4.51    5.20
   6  -6   5   -3.09    4.92
   6  -6   6    4.94    5.22
   6  -6   7    5.20    6.33
   6  -6   8  100.92    9.55
   6  -6   9    3.79    4.62
   6  -6  10   80.16    8.50
   6  -6  11   11.86    4.91
   6  -6  12   30.09    5.47
   6  -6  13   61.60    7.64
   6  -6  14    4.51    5.34
   6  -6  15    0.00    1.41
   6  -5 -14    8.74    4.07
   6  -5 -13   13.38    3.57
   6  -5 -12   18.89    4.95
   6  -5 -11    2.38    3.07
   6  -5 -10    1.41    3.24
   6  -5  -9    7.46    3.96
   6  -5  -8    7.33    3.09
   6  -5  -7    1.71    3.69
   6  -5  -6   17.08    4.51
   6  -5  -5   13.64    2.54
   6  -5  -4  378.31   19.40
   6  -5  -3   52.64    7.76
   6  -5  -2   37.69    2.62
   6  -5  -1   16.68    1.85
   6  -5   0   -1.83    1.54
   6  -5   1   20.90    1.96
   6  -5   2   29.71    2.20
   6  -5   3   35.11    2.96
   6  -5   4  197.00    9.67
   6  -5   5   12.44    2.10
   6  -5   6    1.71    4.09
   6  -5   7  157.23   11.32
   6  -5   8   31.81    5.77
   6  -5   9    1.27    4.94
   6  -5  10   58.66    7.46
   6  -5  11    0.56    6.03
   6  -5  12    3.79    6.33
   6  -5  13   -7.21    6.63
   6  -5  14   -3.26    8.07
   6  -5  15   -3.65    6.18
   6  -5  16    9.17    5.89
   6  -5  17    3.26    6.09
   6  -4 -15    1.96    4.23
   6  -4 -14    8.46    3.93
   6  -4 -13    1.71    4.09
   6  -4 -12   68.70    5.71
   6  -4 -11   46.62    4.54
   6  -4 -10    0.71    2.96
   6  -4  -9   11.29    4.23
   6  -4  -8   12.10    3.14
   6  -4  -7   15.92    2.27
   6  -4  -6    2.24    1.42
   6  -4  -5   29.84    1.95
   6  -4  -4    1.00    1.14
   6  -4  -3    2.38    0.99
   6  -4  -2    5.75    0.86
   6  -4  -1   64.24    3.99
   6  -4   0   24.87    4.15
   6  -4   1  199.67    9.07
   6  -4   2    5.75    2.79
   6  -4   3   82.95    4.98
   6  -4   4    0.28    2.85
   6  -4   5   -6.33    3.23
   6  -4   6   25.11    3.69
   6  -4   7   85.12    5.03
   6  -4   8   89.57    5.40
   6  -4   9   12.86    4.09
   6  -4  10   27.17    2.23
   6  -4  11   29.06    4.74
   6  -4  12   62.17    7.12
   6  -4  13   28.93    6.39
   6  -4  14   -0.42    4.67
   6  -4  15    8.19    5.50
   6  -4  16   10.97    5.67
   6  -4  17   23.01    6.15
   6  -4  18    6.22    5.81
   6  -4  19   -0.28    7.37
   6  -3 -17    7.78    4.64
   6  -3 -16   -3.26    4.54
   6  -3 -15    4.78    3.68
   6  -3 -14    1.11    3.93
   6  -3 -13   -1.41    3.53
   6  -3 -12   62.73    6.40
   6  -3 -11   33.57    6.33
   6  -3 -10   85.35    4.17
   6  -3  -9  215.06    8.01
   6  -3  -8   17.77    2.40
   6  -3  -7   19.40    1.99
   6  -3  -6    7.46    3.50
   6  -3  -5    2.10    1.14
   6  -3  -4   85.56    3.07
   6  -3  -3    3.93    0.85
   6  -3  -2  248.29    8.60
   6  -3  -1   -1.41    1.97
   6  -3   0   69.49    4.36
   6  -3   1  107.22    5.65
   6  -3   2   49.58    4.02
   6  -3   3  126.72    6.95
   6  -3   4   89.34    5.84
   6  -3   5   98.55    5.19
   6  -3   6  919.03   30.96
   6  -3   7   43.27    3.91
   6  -3   8  287.53   10.07
   6  -3   9    5.92    1.38
   6  -3  10   -6.22    4.39
   6  -3  11    7.59    3.67
   6  -3  12   39.45    4.03
   6  -3  13   16.68    3.68
   6  -3  14   46.14    3.55
   6  -3  15   30.36    5.63
   6  -3  16    2.38    5.36
   6  -3  17   23.01    4.67
   6  -3  18    5.92    8.21
   6  -3  19    8.32    5.08
   6  -3  20    6.88    7.04
   6  -3  21    6.77    5.50
   6  -2 -18    8.19    4.22
   6  -2 -17   23.24    4.36
   6  -2 -16   61.05    5.19
   6  -2 -15    3.53    3.53
   6  -2 -14    9.60    3.68
   6  -2 -13    9.46    2.99
   6  -2 -12  113.45    5.06
   6  -2 -11  172.48    7.18
   6  -2 -10   22.67    2.48
   6  -2  -9    6.03    1.99
   6  -2  -8   22.22    2.24
   6  -2  -7   10.28    2.35
   6  -2  -6   56.68    2.68
   6  -2  -5    5.64    1.69
   6  -2  -4  100.44    3.57
   6  -2  -3    6.64    0.73
   6  -2  -2   37.25    2.75
   6  -2  -1   23.93    2.44
   6  -2   0   -1.11    2.12
   6  -2   1    6.77    2.28
   6  -2   2  215.06    7.32
   6  -2   4  135.70    5.81
   6  -2   5   -0.56    2.81
   6  -2   6   27.30    2.98
   6  -2   7    1.11    1.68
   6  -2   8    2.96    1.68
   6  -2   9   33.45    2.75
   6  -2  10   31.95    3.36
   6  -2  11   11.86    2.69
   6  -2  12    3.93    2.40
   6  -2  13    7.08    2.52
   6  -2  14   11.86    2.69
   6  -2  15   58.12    4.71
   6  -2  16    4.78    4.51
   6  -2  17   17.17    4.82
   6  -2  18   -3.53    4.64
   6  -2  20    8.05    5.67
   6  -2  21   10.28    6.78
   6  -2  22    5.09    7.61
   6  -1 -19   -3.53    5.34
   6  -1 -18   19.83    4.34
   6  -1 -17    4.67    4.67
   6  -1 -16   -3.09    3.51
   6  -1 -15  103.55    7.25
   6  -1 -14   13.82    3.71
   6  -1 -13  173.73    6.88
   6  -1 -12    8.32    2.26
   6  -1 -11    1.27    1.99
   6  -1 -10    5.36    2.43
   6  -1  -9    1.00    1.85
   6  -1  -8  120.64    4.17
   6  -1  -7  330.93    7.78
   6  -1  -6   61.42    2.79
   6  -1  -5    8.32    1.85
   6  -1  -4   10.81    1.57
   6  -1  -3   98.79    3.30
   6  -1  -2  288.34    8.47
   6  -1  -1   20.15    2.03
   6  -1   0   55.43    3.00
   6  -1   1   43.91    2.68
   6  -1   2    9.76    2.00
   6  -1   3   50.25    3.03
   6  -1   4   16.20    2.30
   6  -1   5  352.45   10.70
   6  -1   6   90.92    3.62
   6  -1   7  123.53    4.23
   6  -1   8    3.26    1.72
   6  -1   9   46.62    3.72
   6  -1  10    9.31    3.69
   6  -1  11   35.39    2.82
   6  -1  12  125.13    5.05
   6  -1  13   18.37    2.24
   6  -1  14   23.01    2.96
   6  -1  15    0.83    3.09
   6  -1  16   78.68    5.68
   6  -1  17   25.35    3.82
   6  -1  18   -3.79    4.48
   6  -1  19    2.24    4.62
   6  -1  20    2.81    4.65
   6  -1  21   -1.71    6.80
   6  -1  22   20.15    5.75
   6  -1  23   -1.96    5.36
   6   0 -19   55.78    6.20
   6   0 -18    3.93    4.10
   6   0 -17   31.95    5.23
   6   0 -16   31.95    5.10
   6   0 -15   53.85    5.40
   6   0 -14   69.29    5.15
   6   0 -13    9.98    3.23
   6   0 -12    4.22    2.24
   6   0 -11    4.51    2.27
   6   0 -10   34.14    2.92
   6   0  -9   27.92    2.38
   6   0  -8    8.05    1.82
   6   0  -7   60.86    2.96
   6   0  -6   28.05    2.27
   6   0  -5    7.92    1.54
   6   0  -4  135.14    3.86
   6   0  -3  142.41    3.68
   6   0  -2  244.20    5.94
   6   0  -1    9.46    1.54
   6   0   0    0.00    1.41
   6   0   1    3.93    1.69
   6   0   2  433.30   10.87
   6   0   3   46.14    2.74
   6   0   4    0.71    1.71
   6   0   5   49.42    2.66
   6   0   6   74.11    2.86
   6   0   7  554.47   12.86
   6   0   8   39.31    2.23
   6   0   9  317.68   12.28
   6   0  10   82.30    3.88
   6   0  11    6.46    2.12
   6   0  12    2.96    1.85
   6   0  13   81.02    3.85
   6   0  14    8.19    2.38
   6   0  15  138.20    5.87
   6   0  16    9.31    2.54
   6   0  17    6.33    3.65
   6   0  18   13.99    3.82
   6   0  19  216.45   15.37
   6   0  20    6.03    3.79
   6   0  21  102.35    9.38
   6   0  22   31.42    7.19
   6   0  23  -13.64    5.53
   6   1 -20   -0.14    3.57
   6   1 -19   18.47    6.02
   6   1 -18   37.83    4.53
   6   1 -17   -1.96    3.67
   6   1 -16   66.36    5.99
   6   1 -15   12.69    3.81
   6   1 -14   14.26    3.68
   6   1 -13   10.59    2.71
   6   1 -12   72.29    3.43
   6   1 -11    4.37    2.23
   6   1 -10    2.68    1.83
   6   1  -9   25.11    2.38
   6   1  -8   80.58    3.62
   6   1  -7   63.30    2.83
   6   1  -6    5.09    1.82
   6   1  -5  254.69    6.44
   6   1  -4   21.01    1.96
   6   1  -3  104.77    2.92
   6   1  -2   21.56    1.44
   6   1  -1  249.04    5.99
   6   1   0  605.36   14.61
   6   1   1   77.83    2.72
   6   1   2   96.21    3.03
   6   1   3   40.81    2.13
   6   1   4  118.57    3.36
   6   1   5  198.67    5.70
   6   1   6   22.11    1.68
   6   1   7  291.57    7.70
   6   1   8   85.56    3.07
   6   1   9   48.91    2.33
   6   1  10    2.38    1.83
   6   1  11   35.81    2.13
   6   1  12  337.45   10.91
   6   1  13  169.37    6.18
   6   1  14   72.49    4.65
   6   1  15   68.70    3.93
   6   1  16   40.67    3.03
   6   1  17   -3.09    2.55
   6   1  18   -0.71    2.26
   6   1  19   27.30    7.08
   6   1  20   54.72    5.44
   6   1  21   37.83    6.73
   6   1  22   15.54    4.50
   6   1  23    1.71    3.98
   6   1  24   24.99    6.18
   6   2 -20    5.64    5.36
   6   2 -19    2.96    4.09
   6   2 -18   29.84    5.06
   6   2 -17   28.05    5.16
   6   2 -16   -2.24    2.66
   6   2 -15    5.09    4.50
   6   2 -14    5.64    3.67
   6   2 -13   28.81    2.93
   6   2 -12   69.68    3.57
   6   2 -11  103.55    3.86
   6   2 -10    2.96    1.85
   6   2  -9  234.28    7.63
   6   2  -8    6.33    1.85
   6   2  -7  259.64    6.50
   6   2  -6   19.83    2.00
   6   2  -5    2.24    1.52
   6   2  -4    6.64    1.83
   6   2  -3   10.43    1.99
   6   2  -2   24.63    1.41
   6   2  -1   11.29    1.11
   6   2   0    2.10    1.00
   6   2   1   21.67    1.66
   6   2   2   17.87    1.71
   6   2   3   17.08    1.37
   6   2   4   39.45    2.54
   6   2   5  109.19    3.98
   6   2   6   92.96    3.44
   6   2   7   46.46    2.59
   6   2   8   50.25    2.35
   6   2   9   25.47    1.80
   6   2  10   12.86    1.88
   6   2  11    9.17    1.58
   6   2  12   46.62    2.59
   6   2  13   52.47    3.44
   6   2  14  440.25   15.45
   6   2  15  362.32   12.21
   6   2  16   96.21    5.12
   6   2  17   55.78    3.91
   6   2  18   61.99    4.48
   6   2  19   13.55    5.51
   6   2  20   -6.46    5.37
   6   2  21   -2.24    4.09
   6   2  22    3.38    4.50
   6   2  23    9.60    5.67
   6   2  24   14.09    6.33
   6   3 -20   33.30    5.75
   6   3 -19    4.51    5.91
   6   3 -18   14.99    4.78
   6   3 -17   -2.81    5.33
   6   3 -16   41.57    5.20
   6   3 -15   31.81    4.29
   6   3 -14   16.10    2.86
   6   3 -13   12.86    2.55
   6   3 -12  419.57   13.62
   6   3 -11   -3.65    2.13
   6   3 -10   16.88    1.95
   6   3  -9  332.67    7.36
   6   3  -8    1.11    2.12
   6   3  -7   93.43    3.44
   6   3  -6   71.88    2.62
   6   3  -5    9.46    4.23
   6   3  -4  310.94    7.12
   6   3  -3   17.47    1.69
   6   3  -2   -1.55    1.42
   6   3  -1    9.90    1.42
   6   3   0  153.38    4.71
   6   3   1  113.20    3.03
   6   3   2 1309.96   31.81
   6   3   3   35.53    3.12
   6   3   4    4.22    2.83
   6   3   5   27.92    3.76
   6   3   6    5.64    0.45
   6   3   7  135.14    4.96
   6   3   8   11.86    1.72
   6   3   9  147.86    6.06
   6   3  10  123.01    4.22
   6   3  11    8.46    1.24
   6   3  12   -0.42    1.13
   6   3  13    2.54    2.27
   6   3  14   49.08    2.83
   6   3  15    2.68    1.71
   6   3  16  126.18    6.13
   6   3  17   20.15    2.78
   6   3  18   50.25    3.88
   6   3  19   39.16    5.50
   6   3  20   -1.71    3.82
   6   3  21   -7.92    5.08
   6   3  22    1.00    4.81
   6   3  23   12.69    3.98
   6   3  24    1.71    4.37
   6   4 -20    0.14    4.27
   6   4 -19   10.81    3.51
   6   4 -18   10.43    3.91
   6   4 -17   80.37    9.36
   6   4 -16   70.68    5.58
   6   4 -15   34.40    3.91
   6   4 -14   11.29    2.95
   6   4 -13  174.67    8.16
   6   4 -12   -2.38    1.97
   6   4 -11    8.32    2.95
   6   4 -10   68.89    3.16
   6   4  -9   11.86    1.96
   6   4  -8   17.17    1.88
   6   4  -7   78.68    3.16
   6   4  -6   -0.42    1.55
   6   4  -5  110.94    3.75
   6   4  -4    4.22    1.41
   6   4  -3  138.48    3.64
   6   4  -2   67.71    2.34
   6   4  -1    9.02    1.42
   6   4   0   33.71    1.65
   6   4   1    0.56    0.56
   6   4   2   16.88    3.41
   6   4   3   56.15    5.16
   6   4   4    5.09    2.14
   6   4   5  311.36    9.22
   6   4   6  107.71    7.39
   6   4   7    6.03    0.41
   6   4   8   72.29    2.02
   6   4   9  548.33   22.80
   6   4  10  713.20   29.17
   6   4  11   26.57    1.83
   6   4  12   21.12    2.07
   6   4  13   18.89    1.86
   6   4  14   91.37    4.77
   6   4  15  154.57    7.09
   6   4  16  106.49    5.15
   6   4  17    6.88    2.37
   6   4  19   59.21    7.12
   6   4  20   91.14    8.84
   6   4  21   29.84    6.09
   6   4  23   -1.27    4.94
   6   4  24   56.85    7.88
   6   5 -19    3.38    3.67
   6   5 -18   -1.96    4.50
   6   5 -17   19.61    4.53
   6   5 -16   26.80    5.65
   6   5 -15    1.00    4.39
   6   5 -14   38.27    3.68
   6   5 -13   40.06    3.61
   6   5 -12   -1.00    2.27
   6   5 -11   21.33    2.41
   6   5 -10   17.87    3.12
   6   5  -9  178.14    5.39
   6   5  -8    2.81    1.83
   6   5  -7  181.01    5.75
   6   5  -6    7.33    1.86
   6   5  -5  112.69    3.78
   6   5  -4   15.82    1.79
   6   5  -3  292.79    7.32
   6   5  -2  410.38   10.11
   6   5  -1  104.29    3.16
   6   5   0  237.20    6.22
   6   5   1   36.96    1.30
   6   5   2   10.28    0.69
   6   5   3   57.57    3.61
   6   5   4   -1.11    1.96
   6   5   5   74.11    3.88
   6   5   6   19.61    5.36
   6   5   7   34.55    1.25
   6   5   8  137.08    4.17
   6   5   9  548.33   16.68
   6   5  10   34.69    2.38
   6   5  11   32.08    2.16
   6   5  12    1.83    1.25
   6   5  13   36.96    2.59
   6   5  14    2.24    1.52
   6   5  15   19.40    2.09
   6   5  16    4.07    1.96
   6   5  17    1.96    3.53
   6   5  18   60.12    5.71
   6   5  19   73.51    7.12
   6   5  20   23.82    3.93
   6   5  21  134.32    9.63
   6   5  22   25.47    5.03
   6   5  23   49.42    8.18
   6   6 -19   -0.28    4.54
   6   6 -18   48.74    6.13
   6   6 -17   15.54    4.22
   6   6 -16    2.10    3.51
   6   6 -15   19.40    3.34
   6   6 -14   37.83    4.53
   6   6 -13   28.17    2.90
   6   6 -12  188.42    7.83
   6   6 -11    9.90    2.54
   6   6 -10    0.71    2.26
   6   6  -9   12.69    2.54
   6   6  -8   28.17    2.52
   6   6  -7  175.93    5.36
   6   6  -6    9.60    1.83
   6   6  -5    7.78    1.99
   6   6  -4   -0.71    1.42
   6   6  -3  238.30    5.87
   6   6  -2   -0.28    1.13
   6   6  -1   31.27    1.99
   6   6   0  150.76    4.37
   6   6   1    8.05    1.41
   6   6   2   30.48    1.58
   6   6   3    8.60    0.97
   6   6   4   26.93    1.35
   6   6   5  370.97    9.15
   6   6   6   70.88    3.40
   6   6   7  218.56    6.32
   6   6   8   53.51    2.61
   6   6   9    7.59    1.71
   6   6  10   14.09    1.51
   6   6  11   13.11    1.38
   6   6  12   89.34    3.82
   6   6  13   75.35    3.71
   6   6  14   93.20    4.58
   6   6  15   10.12    1.96
   6   6  16    4.51    1.82
   6   6  17  121.43    8.63
   6   6  18   37.99    5.41
   6   6  19   28.93    4.22
   6   6  20   -2.81    2.95
   6   6  21   24.41    6.57
   6   6  22    4.22    3.81
   6   7 -18   51.61    7.33
   6   7 -17   21.67    4.98
   6   7 -16   12.86    3.84
   6   7 -15    7.78    3.98
   6   7 -14    5.64    4.12
   6   7 -13   20.47    4.84
   6   7 -12    2.81    2.54
   6   7 -11   35.81    3.55
   6   7 -10    5.47    2.28
   6   7  -9   35.67    3.12
   6   7  -8   35.53    3.40
   6   7  -7  426.41   12.25
   6   7  -6   33.85    2.62
   6   7  -5  152.81    6.16
   6   7  -4   95.50    3.48
   6   7  -3  199.34    5.70
   6   7  -2   29.31    1.93
   6   7  -1   14.52    1.72
   6   7   0    1.55    1.42
   6   7   1    0.14    1.42
   6   7   2   12.03    1.57
   6   7   3    1.55    1.42
   6   7   4  109.19    3.98
   6   7   5  121.95    4.20
   6   7   6   27.17    2.23
   6   7   7    0.42    1.85
   6   7   8    4.22    1.71
   6   7   9    1.11    1.41
   6   7  10    1.71    1.14
   6   7  11   83.60    3.69
   6   7  12   18.08    2.23
   6   7  13   10.97    1.96
   6   7  14   86.67    4.43
   6   7  15   22.67    3.40
   6   7  16   33.30    4.94
   6   7  17    6.03    3.38
   6   7  18   13.64    3.76
   6   7  19    5.75    3.24
   6   7  20   52.81    5.34
   6   7  21    7.21    3.51
   6   7  22   16.40    6.73
   6   8 -17    0.56    4.50
   6   8 -16    6.22    3.96
   6   8 -15   29.58    5.30
   6   8 -14   10.59    4.24
   6   8 -13    5.75    3.53
   6   8 -12   10.12    4.07
   6   8 -11    5.36    2.81
   6   8 -10    3.26    2.52
   6   8  -9    5.47    2.12
   6   8  -8  271.26    9.39
   6   8  -7   18.89    2.58
   6   8  -6    4.78    2.38
   6   8  -5    4.78    1.82
   6   8  -4   98.31    4.00
   6   8  -3    2.24    1.66
   6   8  -2    4.94    1.85
   6   8  -1   38.42    2.21
   6   8   0   54.20    2.62
   6   8   1  117.54    3.61
   6   8   2  393.71   11.77
   6   8   3    9.90    1.72
   6   8   4   12.52    1.42
   6   8   5  199.00    6.70
   6   8   6    9.90    1.88
   6   8   7    8.46    1.52
   6   8   8    1.41    1.55
   6   8   9   15.36    1.86
   6   8  10  165.07    5.50
   6   8  11   72.69    3.03
   6   8  12   38.86    2.51
   6   8  13  104.05    5.33
   6   8  14   59.57    7.15
   6   8  15    4.67    4.36
   6   8  16   15.64    3.57
   6   8  17    1.00    2.96
   6   8  18   18.89    4.64
   6   8  19  105.99    9.53
   6   8  20    5.75    4.89
   6   9 -15    9.02    4.92
   6   9 -14   23.93    4.88
   6   9 -13    5.92    4.68
   6   9 -12    0.56    4.22
   6   9 -11   25.11    4.64
   6   9 -10    2.81    3.21
   6   9  -9    8.88    4.10
   6   9  -8   30.88    3.43
   6   9  -7    5.64    2.65
   6   9  -6   21.45    2.52
   6   9  -5   38.42    2.65
   6   9  -4    9.90    2.69
   6   9  -3   25.83    2.30
   6   9  -2    2.68    2.10
   6   9  -1   22.79    2.27
   6   9   0  165.07    5.50
   6   9   1   47.43    2.62
   6   9   2  142.41    4.82
   6   9   3   17.77    1.51
   6   9   4   52.47    2.41
   6   9   5    3.93    1.97
   6   9   6   12.69    2.37
   6   9   7   98.08    3.76
   6   9   8    3.09    1.55
   6   9   9    2.54    2.12
   6   9  10   63.86    4.37
   6   9  11    3.53    2.10
   6   9  12   44.06    3.78
   6   9  13   29.19    3.85
   6   9  14   21.33    3.51
   6   9  15   16.10    3.14
   6   9  16   25.23    4.53
   6   9  17   -2.10    4.06
   6   9  18   48.59    6.12
   6   9  19   25.83    5.08
   6   9  20   23.70    4.40
   6  10 -14   -0.14    3.71
   6  10 -13    0.14    4.00
   6  10 -12   34.69    4.89
   6  10 -11   -5.75    6.03
   6  10 -10    2.68    3.98
   6  10  -9   41.57    4.75
   6  10  -8   -1.00    3.10
   6  10  -7   -4.78    4.20
   6  10  -6    9.02    2.85
   6  10  -5   -1.55    2.81
   6  10  -4   -3.93    2.12
   6  10  -3   -5.20    2.54
   6  10  -2  107.95    6.18
   6  10  -1   28.05    2.27
   6  10   0   17.67    1.79
   6  10   1    3.38    1.58
   6  10   2    0.56    1.55
   6  10   3   24.17    1.75
   6  10   4    1.96    2.83
   6  10   5   35.25    2.96
   6  10   6    9.60    3.24
   6  10   7    4.78    2.69
   6  10   8   -2.10    3.23
   6  10   9  162.04    8.46
   6  10  10   55.61    4.96
   6  10  11   49.08    4.82
   6  10  12   17.37    3.57
   6  10  13   12.44    3.85
   6  10  14   44.85    4.13
   6  10  15   -4.67    3.79
   6  10  16    4.94    3.54
   6  10  17   12.27    4.91
   6  10  18   33.85    4.43
   6  11 -11    2.54    3.37
   6  11 -10   10.81    3.82
   6  11  -9   34.14    5.13
   6  11  -8   10.28    3.27
   6  11  -7    7.33    3.92
   6  11  -6   -1.27    3.10
   6  11  -5    5.20    3.09
   6  11  -4    9.90    2.99
   6  11  -3   80.58    5.54
   6  11  -2   34.97    3.23
   6  11  -1   -0.14    2.57
   6  11   0   50.59    5.74
   6  11   1   -1.83    4.79
   6  11   2   75.35    7.84
   6  11   3    2.96    4.67
   6  11   4   -0.14    2.71
   6  11   5    3.93    3.82
   6  11   6    3.38    2.66
   6  11   7   19.83    3.81
   6  11   8   30.88    4.48
   6  11   9   -1.83    3.79
   6  11  10    8.32    3.98
   6  11  11    7.59    3.20
   6  11  12    9.60    3.09
   6  11  13    8.74    3.51
   6  11  14   75.97    6.20
   6  11  15   14.09    3.84
   6  12  -8    7.21    4.91
   6  12  -7   17.37    5.34
   6  12  -6   -7.33    4.12
   6  12  -5   27.66    7.87
   6  12  -4    3.09    4.39
   6  12  -3   10.28    3.81
   6  12  -2    4.94    3.96
   6  12  -1   10.12    4.77
   6  12   0    3.26    2.96
   6  12   1   19.73    4.54
   6  12   2    8.60    5.50
   6  12   3   30.09    5.99
   6  12   4   34.55    6.01
   6  12   5   21.45    4.17
   6  12   6   -0.42    3.68
   6  12   7    2.10    3.23
   6  12   8   52.13    5.32
   6  12   9    5.36    3.41
   6  12  10   17.17    5.32
   6  12  11   38.42    5.44
   6  12  12    0.28    3.26
   6  13  -2   -2.81    5.88
   6  13  -1   23.12    6.51
   6  13   1    2.54    4.65
   6  13   2   19.83    5.92
   6  13   3    9.02    7.21
   6  13   4   11.14    4.36
   6  13   5   10.28    5.10
   6  13   6   12.10    6.44
   7  -7  -2    1.71    6.08
   7  -7  -1   24.87    7.22
   7  -7   0    8.19    7.74
   7  -7   1   -0.56    5.20
   7  -7   2   24.63    6.25
   7  -7   3   47.26    7.84
   7  -7   4    0.71    4.67
   7  -7   5   -0.14    5.27
   7  -7   6   -3.65    6.03
   7  -6  -8    8.19    4.34
   7  -6  -7   42.19    8.18
   7  -6  -6    5.20    6.06
   7  -6  -5   14.99    6.61
   7  -6  -4    6.46    7.91
   7  -6  -3    6.46    5.91
   7  -6  -2   -2.81    4.77
   7  -6  -1    9.31    6.74
   7  -6   0   46.14    6.13
   7  -6   1   47.60    7.54
   7  -6   2    3.09    4.64
   7  -6   3    4.51    6.91
   7  -6   4    3.09    5.05
   7  -6   5   27.30    6.33
   7  -6   6    1.55    5.36
   7  -6   7    1.83    4.50
   7  -6   8    4.78    6.18
   7  -6   9   27.17    6.94
   7  -6  10   11.14    8.32
   7  -6  11   38.13    8.66
   7  -6  12   17.67    6.90
   7  -5 -11   12.69    4.40
   7  -5 -10    8.19    4.70
   7  -5  -9   26.31    5.49
   7  -5  -8   -0.28    4.12
   7  -5  -7   72.69    6.27
   7  -5  -6    6.33    4.91
   7  -5  -5   -5.64    4.79
   7  -5  -4  127.52   10.73
   7  -5  -3   42.03    8.77
   7  -5  -2    7.92    4.81
   7  -5  -1   35.96    6.42
   7  -5   0   24.52    5.64
   7  -5   1    2.38    3.67
   7  -5   2  174.35   10.97
   7  -5   3   12.52    5.80
   7  -5   4   87.11    8.21
   7  -5   5  202.71   13.52
   7  -5   6   15.64    5.36
   7  -5   7   22.79    4.54
   7  -5   8    4.07    6.19
   7  -5   9   83.39    9.32
   7  -5  10    8.05    4.78
   7  -5  11   62.35    7.12
   7  -5  12   23.70    6.58
   7  -5  13   -4.78    4.51
   7  -5  14   15.36    5.40
   7  -5  15   22.67    7.91
   7  -4 -13    3.09    4.09
   7  -4 -12    4.22    4.48
   7  -4 -11   14.99    3.95
   7  -4 -10   54.91    5.27
   7  -4  -9    3.26    3.82
   7  -4  -8   -6.03    3.38
   7  -4  -7   20.57    3.23
   7  -4  -6    8.19    3.54
   7  -4  -5   62.55    5.44
   7  -4  -4    6.77    3.40
   7  -4  -3   -4.67    2.98
   7  -4  -2   22.45    7.09
   7  -4  -1   34.97    5.61
   7  -4   0   31.27    4.78
   7  -4   1    6.33    3.23
   7  -4   2   15.07    3.69
   7  -4   3   10.59    3.24
   7  -4   4    0.71    2.96
   7  -4   5  477.38   23.35
   7  -4   6  243.09   10.36
   7  -4   7   97.38    5.16
   7  -4   8    4.37    6.50
   7  -4   9   23.12    4.79
   7  -4  10   10.43    4.37
   7  -4  11    3.53    4.81
   7  -4  12    4.51    4.39
   7  -4  14   15.36    5.49
   7  -4  15    5.75    5.36
   7  -4  16    1.11    4.92
   7  -4  17    2.81    4.77
   7  -3 -15    6.03    4.39
   7  -3 -14   -2.81    6.20
   7  -3 -13   13.64    4.12
   7  -3 -12   39.16    4.91
   7  -3 -11   -1.96    3.92
   7  -3 -10    0.56    3.23
   7  -3  -9  189.73   11.13
   7  -3  -8   26.80    3.93
   7  -3  -7  159.33    7.80
   7  -3  -6    8.88    1.69
   7  -3  -5    8.88    1.27
   7  -3  -4   14.26    3.41
   7  -3  -3    1.27    2.26
   7  -3  -2  109.45    4.72
   7  -3  -1   -1.41    2.26
   7  -3   0    2.24    2.81
   7  -3   1   34.26    3.75
   7  -3   2    1.71    3.69
   7  -3   3   24.28    3.86
   7  -3   4  152.21    6.74
   7  -3   5    6.88    3.81
   7  -3   6  116.76    5.91
   7  -3   7   -0.42    3.12
   7  -3   8   -0.42    3.54
   7  -3   9   30.48    3.29
   7  -3  10    3.79    1.52
   7  -3  11    5.20    1.85
   7  -3  12   14.26    2.43
   7  -3  13    3.38    3.67
   7  -3  14   12.94    4.78
   7  -3  15    0.42    5.39
   7  -3  16   28.30    4.43
   7  -3  17    2.96    5.08
   7  -3  18   15.54    6.64
   7  -3  19    6.03    4.67
   7  -2 -16   -3.53    3.79
   7  -2 -15   77.42    7.53
   7  -2 -14  159.93   10.81
   7  -2 -13    3.38    4.37
   7  -2 -12   12.86    3.41
   7  -2 -11   13.64    3.68
   7  -2 -10   44.22    5.22
   7  -2  -9    2.10    3.23
   7  -2  -8    7.21    2.10
   7  -2  -7   96.67    4.44
   7  -2  -6    1.96    1.54
   7  -2  -5   53.51    3.13
   7  -2  -4   27.17    2.85
   7  -2  -3  108.94    4.96
   7  -2  -2   27.30    2.85
   7  -2  -1    1.83    2.12
   7  -2   0  113.96    5.33
   7  -2   1  144.40    6.27
   7  -2   2  235.38    8.74
   7  -2   3   57.57    3.43
   7  -2   4   16.68    2.72
   7  -2   5   90.47    5.41
   7  -2   6    4.37    2.68
   7  -2   7  101.87    5.27
   7  -2   8   30.48    2.23
   7  -2   9  475.83   16.06
   7  -2  10  235.01    8.74
   7  -2  11   27.30    2.23
   7  -2  12    7.08    3.41
   7  -2  13    4.94    2.54
   7  -2  14   25.83    4.10
   7  -2  15    4.78    3.95
   7  -2  16   -1.71    4.53
   7  -2  17   10.81    6.02
   7  -2  18   18.08    6.46
   7  -2  19   -0.83    4.34
   7  -2  20   -0.42    4.12
   7  -1 -17   13.55    4.54
   7  -1 -16    7.33    4.12
   7  -1 -15   31.54    4.54
   7  -1 -14    1.55    2.96
   7  -1 -13   12.03    3.37
   7  -1 -12   43.43    5.01
   7  -1 -11   33.85    2.62
   7  -1 -10   10.28    2.35
   7  -1  -9   37.55    2.76
   7  -1  -8    2.38    1.97
   7  -1  -7  115.74    4.34
   7  -1  -6   13.82    2.30
   7  -1  -5   15.92    1.80
   7  -1  -4    0.00    1.41
   7  -1  -3   36.53    2.88
   7  -1  -2  212.97    7.28
   7  -1  -1   62.55    3.00
   7  -1   0  174.35    5.96
   7  -1   1   14.62    2.54
   7  -1   2  294.82   12.65
   7  -1   3  159.63    6.60
   7  -1   4    3.53    2.10
   7  -1   5  218.91    8.08
   7  -1   6   38.72    3.10
   7  -1   7   33.85    2.48
   7  -1   8   54.55    2.81
   7  -1   9    2.68    1.99
   7  -1  10    9.02    2.14
   7  -1  11 2273.00   78.13
   7  -1  12   14.62    2.82
   7  -1  13  114.97    5.34
   7  -1  14    1.71    2.69
   7  -1  15   11.86    3.92
   7  -1  16    0.71    3.54
   7  -1  17    0.56    4.36
   7  -1  18   -3.79    4.20
   7  -1  20   -2.10    3.51
   7  -1  21    4.78    6.90
   7   0 -18   13.38    4.09
   7   0 -17   -1.71    3.82
   7   0 -16   13.38    3.91
   7   0 -15  197.67    9.69
   7   0 -14   96.67    7.47
   7   0 -13   32.35    4.99
   7   0 -12  134.32    6.33
   7   0 -11   13.55    2.54
   7   0 -10   33.16    2.74
   7   0  -9    4.51    1.82
   7   0  -8   22.67    1.92
   7   0  -7  149.59    4.65
   7   0  -6   30.48    1.97
   7   0  -5    5.20    1.85
   7   0  -4  303.45    7.85
   7   0  -3    3.38    1.27
   7   0  -2   99.97    3.57
   7   0  -1  162.34    5.15
   7   0   0    6.22    1.96
   7   0   1    0.71    1.57
   7   0   2   16.78    1.95
   7   0   3   56.50    3.57
   7   0   4  184.86    7.43
   7   0   5   83.39    3.91
   7   0   6  153.38    4.71
   7   0   7    2.38    2.13
   7   0   8    8.32    1.85
   7   0   9   11.86    2.13
   7   0  10  122.74    4.22
   7   0  11   34.00    2.90
   7   0  12   -2.96    1.96
   7   0  13  465.02   22.02
   7   0  14    7.59    2.43
   7   0  15   24.41    4.10
   7   0  16   15.26    5.10
   7   0  17    1.71    5.37
   7   0  18    1.27    3.24
   7   0  19    4.51    3.93
   7   0  20   55.08    7.40
   7   0  21    1.83    4.09
   7   0  22    4.78    4.62
   7   1 -18    6.46    4.34
   7   1 -17   17.67    5.89
   7   1 -16    7.21    3.82
   7   1 -15   55.26    4.77
   7   1 -14    1.71    4.09
   7   1 -13   17.37    3.76
   7   1 -12   -3.09    2.55
   7   1 -11  120.12    4.43
   7   1 -10  149.89    5.53
   7   1  -9   93.65    4.13
   7   1  -8    8.60    2.51
   7   1  -7   17.17    1.97
   7   1  -6   67.33    2.54
   7   1  -5  152.81    4.70
   7   1  -4   74.52    2.45
   7   1  -3   47.76    2.30
   7   1  -2  383.42    9.31
   7   1  -1  136.25    3.88
   7   1   0  456.34   11.68
   7   1   1   75.97    3.10
   7   1   2   42.03    2.31
   7   1   3    3.38    1.14
   7   1   4   47.76    2.47
   7   1   5   11.29    1.44
   7   1   6   56.50    2.33
   7   1   7  235.01    6.19
   7   1   8    1.96    1.40
   7   1   9  162.65    4.85
   7   1  10  149.01    4.94
   7   1  11    5.64    2.26
   7   1  12    8.05    2.83
   7   1  13   78.05    4.61
   7   1  14   31.95    2.68
   7   1  15  457.87   23.38
   7   1  16   -3.09    2.38
   7   1  17   71.28    6.61
   7   1  18   84.69    8.09
   7   1  19   44.06    6.63
   7   1  20    7.33    4.62
   7   1  21    6.03    3.98
   7   1  22   36.82    7.78
   7   1  23   21.12    4.81
   7   2 -19   -0.83    6.03
   7   2 -18    8.60    3.84
   7   2 -17   71.69    5.84
   7   2 -16   18.58    4.91
   7   2 -15   11.29    3.51
   7   2 -14    3.38    3.37
   7   2 -13    6.22    2.96
   7   2 -12  130.22    5.70
   7   2 -11   41.12    2.89
   7   2 -10   66.36    3.86
   7   2  -9   17.08    2.55
   7   2  -8   30.88    2.51
   7   2  -7  105.75    3.41
   7   2  -6   32.35    2.16
   7   2  -5   64.62    2.86
   7   2  -4    1.27    1.55
   7   2  -3   22.56    1.58
   7   2  -2   44.06    2.04
   7   2  -1   79.53    2.54
   7   2   0  267.36    7.77
   7   2   1   54.03    2.27
   7   2   2  103.81    3.88
   7   2   3   98.08    4.23
   7   2   4    7.08    1.14
   7   2   5   81.02    3.85
   7   2   6   -0.42    1.27
   7   2   7  182.92    6.43
   7   2   8   70.88    3.40
   7   2   9   97.84    3.29
   7   2  10   63.30    2.45
   7   2  11   96.90    5.15
   7   2  12   85.12    4.60
   7   2  13  106.49    4.91
   7   2  14  132.12    6.01
   7   2  15   56.32    3.38
   7   2  16  151.64    7.02
   7   2  17    9.02    2.85
   7   2  18    1.41    4.37
   7   2  19   49.92    4.86
   7   2  20    7.08    5.37
   7   2  21   17.17    3.93
   7   2  22   -2.38    3.81
   7   2  23   18.89    4.64
   7   3 -19    1.83    3.95
   7   3 -18   -8.32    4.94
   7   3 -17   42.65    4.96
   7   3 -16   -3.09    5.47
   7   3 -15    1.96    3.53
   7   3 -14   12.94    3.93
   7   3 -13   -8.88    7.22
   7   3 -12   -1.83    1.96
   7   3 -11  195.33    5.64
   7   3 -10   65.40    3.27
   7   3  -9  392.78   10.83
   7   3  -8   -1.71    1.83
   7   3  -7  174.35    5.02
   7   3  -6   92.51    3.20
   7   3  -5   48.91    2.65
   7   3  -4  145.56    4.30
   7   3  -3  276.37    6.71
   7   3  -2   14.09    1.42
   7   3  -1    8.32    1.30
   7   3   0   -1.27    1.42
   7   3   1   27.04    2.10
   7   3   2  177.82    5.70
   7   3   3   81.23    2.35
   7   3   4   20.47    0.86
   7   3   5  345.80   18.54
   7   3   6    6.03    0.82
   7   3   7   17.47    1.30
   7   3   8    7.59    0.99
   7   3   9  260.42    8.05
   7   3  10   29.58    4.91
   7   3  11   16.40    2.69
   7   3  12   98.08    4.47
   7   3  13   12.10    1.57
   7   3  14   82.30    3.67
   7   3  15    0.28    1.57
   7   3  16   -0.28    2.41
   7   3  17    5.75    4.22
   7   3  18  330.07   18.12
   7   3  19  176.24   13.24
   7   3  20   57.75    6.32
   7   3  21   40.81    5.61
   7   3  22   12.10    3.55
   7   3  23    1.27    3.67
   7   4 -19   16.20    4.78
   7   4 -18    2.81    3.65
   7   4 -17   14.99    4.23
   7   4 -16  102.11    7.21
   7   4 -15    1.11    3.79
   7   4 -14   38.42    4.27
   7   4 -13    3.09    3.09
   7   4 -12   27.92    3.02
   7   4 -11    9.31    2.54
   7   4 -10   41.72    2.92
   7   4  -9   12.10    2.40
   7   4  -8   -1.71    1.71
   7   4  -7    2.10    1.69
   7   4  -6  365.95    9.55
   7   4  -5  242.71    6.66
   7   4  -4  250.55    6.39
   7   4  -3   41.57    1.99
   7   4  -2    1.41    1.13
   7   4  -1   77.42    3.76
   7   4   0    3.53    0.99
   7   4   1   34.69    1.25
   7   4   2   86.22    6.40
   7   4   3   14.62    5.44
   7   4   4    2.68    2.52
   7   4   5  191.71    7.23
   7   4   6    2.81    5.49
   7   4   7  135.70   10.24
   7   4   8    6.03    4.78
   7   4   9  199.67    8.05
   7   4  10    3.09    1.00
   7   4  11   93.20    5.05
   7   4  12  119.87    7.28
   7   4  13  204.74    8.15
   7   4  14  221.73    9.19
   7   4  15  249.04    9.36
   7   4  16   -1.00    4.10
   7   4  17   -1.83    2.12
   7   4  18   26.31    4.75
   7   4  19   41.27    5.34
   7   4  20   15.54    4.50
   7   4  21    2.54    5.22
   7   4  22    3.65    5.36
   7   4  23   53.33    8.15
   7   5 -18   10.74    4.36
   7   5 -17    4.07    3.12
   7   5 -16    6.77    4.51
   7   5 -15   21.88    4.55
   7   5 -14    5.64    3.50
   7   5 -13    0.71    3.54
   7   5 -12   23.12    3.20
   7   5 -11   -1.27    2.12
   7   5 -10    2.10    2.10
   7   5  -9    0.14    2.57
   7   5  -8    8.46    2.43
   7   5  -7  129.13    4.05
   7   5  -6   19.83    2.00
   7   5  -5    4.51    1.57
   7   5  -4  132.94    3.55
   7   5  -3    3.38    1.40
   7   5  -2  283.12    6.39
   7   5  -1    1.41    1.55
   7   5   0    3.93    0.99
   7   5   1   75.55    2.27
   7   5   2    5.75    2.96
   7   5   3   50.25    4.71
   7   5   4   68.70    3.93
   7   5   5  158.14    6.87
   7   5   6  147.56   10.39
   7   5   7  259.26   17.20
   7   5   8   13.82    4.23
   7   5   9  354.68    9.84
   7   5  10   36.24    1.58
   7   5  11   73.29    3.05
   7   5  12   -1.11    1.96
   7   5  13  202.71    6.77
   7   5  14    7.33    1.86
   7   5  15   13.11    1.72
   7   5  16    6.03    2.68
   7   5  17    1.83    2.26
   7   5  18   13.64    2.81
   7   5  19   -2.10    2.51
   7   5  20    4.78    2.54
   7   5  21   44.37    5.37
   7   5  22   51.10    6.80
   7   5  23   17.37    3.96
   7   6 -18    7.33    4.62
   7   6 -17   74.32    6.56
   7   6 -16    0.14    4.15
   7   6 -15    5.75    3.82
   7   6 -14   31.27    4.24
   7   6 -13   11.45    3.93
   7   6 -12   61.24    4.46
   7   6 -11   62.17    3.55
   7   6 -10   20.57    3.13
   7   6  -9   66.74    3.30
   7   6  -8    5.47    2.38
   7   6  -7    1.00    2.13
   7   6  -6  149.89    4.65
   7   6  -5    9.98    1.72
   7   6  -4    0.28    1.57
   7   6  -3  186.48    4.86
   7   6  -2  207.81    4.79
   7   6  -1   30.88    2.37
   7   6   0   12.86    1.54
   7   6   1    1.71    0.83
   7   6   2   15.92    0.85
   7   6   3   10.74    4.20
   7   6   4    4.78    2.38
   7   6   5   12.44    3.36
   7   6   6   47.43    8.01
   7   6   7  510.63   20.39
   7   6   8   13.28    6.50
   7   6   9  250.55    7.52
   7   6  10  141.57    3.96
   7   6  11  186.15    6.81
   7   6  12   27.55    2.74
   7   6  13   16.10    1.80
   7   6  14   15.82    1.71
   7   6  15   24.41    3.05
   7   6  16   85.12    6.36
   7   6  17   63.11    5.85
   7   6  18   -0.28    2.41
   7   6  19   78.05    7.97
   7   6  20   28.43    4.30
   7   6  21   79.74    7.63
   7   6  22    0.71    2.96
   7   7 -17    8.19    4.07
   7   7 -16   19.73    4.64
   7   7 -15    3.38    3.81
   7   7 -14   17.08    4.51
   7   7 -13   -1.71    4.81
   7   7 -12   41.12    3.96
   7   7 -11   17.37    3.67
   7   7 -10    5.92    2.37
   7   7  -9    6.46    2.12
   7   7  -8   11.45    2.00
   7   7  -7    1.27    2.12
   7   7  -6   54.55    3.51
   7   7  -5  116.51    4.61
   7   7  -4   10.74    2.26
   7   7  -3  113.71    4.05
   7   7  -2   13.64    1.66
   7   7  -1    2.10    1.27
   7   7   0  220.67    6.35
   7   7   1  222.43    7.80
   7   7   2   83.16    3.24
   7   7   3   96.67    3.50
   7   7   4   28.05    1.25
   7   7   5  219.97    5.64
   7   7   6  227.42    8.23
   7   7   7   12.52    1.02
   7   7   8   22.00    1.45
   7   7   9    9.17    1.44
   7   7  10   32.49    2.44
   7   7  11   11.29    2.23
   7   7  12   11.69    2.27
   7   7  13   10.74    1.71
   7   7  14  131.58    9.81
   7   7  15   12.03    3.13
   7   7  16   -1.71    2.98
   7   7  17   30.23    3.40
   7   7  18    9.60    3.54
   7   7  19    3.26    3.95
   7   7  20    4.51    3.38
   7   7  21   -2.54    5.22
   7   7  22    0.56    3.37
   7   8 -16   10.97    4.96
   7   8 -15   13.99    4.26
   7   8 -14    7.92    4.34
   7   8 -13    5.20    3.53
   7   8 -12   18.18    4.05
   7   8 -11   10.28    3.81
   7   8 -10    8.74    3.93
   7   8  -9    1.83    3.24
   7   8  -8   94.81    4.62
   7   8  -7    8.60    2.37
   7   8  -6    3.26    1.85
   7   8  -5    3.93    2.54
   7   8  -4    3.38    1.83
   7   8  -3    1.11    1.83
   7   8  -2    1.96    1.40
   7   8  -1    2.54    1.71
   7   8   0   74.93    3.09
   7   8   1    3.38    1.40
   7   8   2  211.59    8.29
   7   8   3    2.54    3.10
   7   8   4   84.04    3.27
   7   8   5  122.48    4.74
   7   8   6   92.74    8.93
   7   8   7    3.53    1.57
   7   8   8   17.77    2.00
   7   8   9   35.25    3.10
   7   8  10    8.74    1.55
   7   8  11   44.37    2.85
   7   8  12  163.25    7.28
   7   8  13    4.07    1.82
   7   8  14  222.08   10.97
   7   8  15    4.67    2.82
   7   8  16    9.46    3.51
   7   8  17    1.41    3.95
   7   8  18   14.52    4.26
   7   8  19    0.14    2.85
   7   8  20    4.51    3.78
   7   9 -14    0.56    3.92
   7   9 -13    7.92    4.22
   7   9 -12   95.04    7.18
   7   9 -11    5.75    3.93
   7   9 -10  114.97    6.63
   7   9  -9    2.81    2.82
   7   9  -8   -1.55    3.10
   7   9  -7    0.83    2.81
   7   9  -6    8.19    3.67
   7   9  -5  141.29    7.06
   7   9  -4   53.51    2.95
   7   9  -3   -0.83    1.54
   7   9  -2    0.42    1.99
   7   9  -1    1.71    1.42
   7   9   0   31.54    2.27
   7   9   1    3.26    1.41
   7   9   2  570.23   16.44
   7   9   3   46.94    2.12
   7   9   4   33.30    1.78
   7   9   5   63.68    3.03
   7   9   6   12.52    1.85
   7   9   7    4.78    1.40
   7   9   8    0.28    1.42
   7   9   9  129.41    7.29
   7   9  10    5.36    1.71
   7   9  11   33.04    3.55
   7   9  12    1.11    1.68
   7   9  13   42.81    4.05
   7   9  14    3.38    2.66
   7   9  15    8.46    2.83
   7   9  16   14.26    3.23
   7   9  17   -3.93    3.53
   7   9  19   28.17    5.29
   7  10 -13   -1.55    4.39
   7  10 -12    1.55    4.23
   7  10 -11    5.36    3.07
   7  10 -10   23.93    3.95
   7  10  -9   -0.71    4.53
   7  10  -8   22.11    3.91
   7  10  -7    1.71    3.10
   7  10  -6    9.02    3.07
   7  10  -5    7.08    3.67
   7  10  -4   93.20    5.05
   7  10  -3   18.78    2.68
   7  10  -2    2.24    1.96
   7  10  -1   20.04    2.44
   7  10   0   -1.27    1.55
   7  10   1   65.78    3.67
   7  10   2   -2.68    1.40
   7  10   3   26.80    1.97
   7  10   4    6.77    1.42
   7  10   5   66.93    4.67
   7  10   6   44.37    4.58
   7  10   7    9.02    2.57
   7  10   8   15.64    2.16
   7  10   9   32.63    3.93
   7  10  10   18.18    2.93
   7  10  11    1.41    1.83
   7  10  12    1.41    1.97
   7  10  13   20.57    4.41
   7  10  14    1.83    2.96
   7  10  15    1.00    2.85
   7  10  16   18.58    4.09
   7  10  17    3.38    3.93
   7  11 -10   -4.94    4.37
   7  11  -9   73.51    6.73
   7  11  -8   19.61    4.41
   7  11  -7    4.78    3.37
   7  11  -6   43.27    3.75
   7  11  -5   36.39    4.16
   7  11  -4   12.86    2.64
   7  11  -3  139.03    7.84
   7  11  -2    1.00    2.41
   7  11  -1    5.36    2.09
   7  11   0    3.26    4.12
   7  11   1   39.02    4.75
   7  11   2    0.71    2.82
   7  11   3    8.19    3.81
   7  11   4    0.00    1.41
   7  11   5   41.43    4.43
   7  11   6   -1.71    2.43
   7  11   7    3.53    2.68
   7  11   8   10.43    3.37
   7  11   9   45.33    5.44
   7  11  10   -2.81    2.66
   7  11  11    1.11    1.83
   7  11  12   -3.93    3.38
   7  11  13    6.33    3.95
   7  11  14   34.55    3.62
   7  11  15    9.90    4.41
   7  12  -7    6.22    4.50
   7  12  -6    9.76    6.08
   7  12  -5   -0.56    4.36
   7  12  -4    2.10    3.51
   7  12  -3    2.24    4.37
   7  12  -2    9.46    5.12
   7  12  -1   13.28    3.64
   7  12   0   83.60    8.90
   7  12   1    9.02    3.50
   7  12   2    0.14    3.29
   7  12   3    2.96    3.68
   7  12   4   19.20    3.85
   7  12   5   35.53    8.77
   7  12   6   72.29    6.26
   7  12   7   22.22    5.03
   7  12   8   -3.53    3.65
   7  12   9    2.54    4.50
   7  12  10   -3.79    4.20
   7  12  11   13.99    4.79
   7  12  12    0.42    2.98
   7  13  -1    7.92    3.95
   7  13   0    5.20    5.09
   7  13   1   -1.83    4.09
   7  13   2    3.65    2.95
   7  13   3   12.69    5.25
   7  13   4   26.20    4.98
   7  13   5   21.33    5.60
   7  13   6    5.47    5.61
   8  -6  -1   11.29    5.91
   8  -6   0   85.12    8.54
   8  -6   1   31.02    6.35
   8  -6   2   32.90    7.90
   8  -6   3   40.36    7.99
   8  -6   4   33.04    6.01
   8  -6   5    2.96    4.78
   8  -6   6   -4.37    5.06
   8  -5  -7    3.93    4.39
   8  -5  -6    4.67    5.80
   8  -5  -5  -13.28    6.92
   8  -5  -4    8.88    6.09
   8  -5  -3   16.88    5.37
   8  -5  -2   17.87    5.63
   8  -5  -1    3.93    6.88
   8  -5   0   74.11    8.39
   8  -5   1    6.03    4.78
   8  -5   2   14.26    7.90
   8  -5   3   -6.03    4.50
   8  -5   4    4.37    4.22
   8  -5   5    5.09    4.67
   8  -5   6    0.42    6.37
   8  -5   7   -0.83    3.93
   8  -5   8   -7.46    4.34
   8  -5   9   41.12    6.54
   8  -5  10   16.50    6.66
   8  -5  11   14.09    5.26
   8  -5  12    0.83    4.62
   8  -4 -10   55.61    6.56
   8  -4  -9    6.46    4.34
   8  -4  -8    6.88    3.68
   8  -4  -7   15.82    3.78
   8  -4  -6   -0.14    4.43
   8  -4  -5   11.86    3.51
   8  -4  -4   -3.53    3.53
   8  -4  -3   17.67    6.90
   8  -4  -2   -2.54    4.50
   8  -4  -1   47.93    6.42
   8  -4   0   10.97    4.33
   8  -4   1    2.54    4.23
   8  -4   2   94.12    7.84
   8  -4   3   -1.00    4.10
   8  -4   4    5.36    3.41
   8  -4   5    1.83    4.37
   8  -4   6   56.85    6.44
   8  -4   7    4.22    6.19
   8  -4   8    5.64    4.51
   8  -4   9    5.36    4.23
   8  -4  10   14.81    5.20
   8  -4  11   -0.71    5.25
   8  -4  12    9.17    5.75
   8  -4  13    2.96    5.94
   8  -4  14   46.62    8.11
   8  -4  15    1.83    4.50
   8  -3 -12   13.28    4.24
   8  -3 -11   24.87    4.62
   8  -3 -10   41.72    5.82
   8  -3  -9    5.92    3.41
   8  -3  -8   -4.22    3.21
   8  -3  -7   45.33    4.48
   8  -3  -6   12.27    4.41
   8  -3  -5   16.88    3.91
   8  -3  -4   39.45    3.88
   8  -3  -3    8.19    3.40
   8  -3  -2    5.47    2.95
   8  -3  -1   30.23    4.57
   8  -3   0    3.93    2.68
   8  -3   1    6.03    3.50
   8  -3   2   24.99    3.79
   8  -3   3   21.01    3.05
   8  -3   4    5.75    3.24
   8  -3   5    8.32    3.50
   8  -3   6   -3.53    4.64
   8  -3   7   86.89    6.42
   8  -3   8   13.28    6.06
   8  -3   9  519.79   26.54
   8  -3  10    3.26    4.54
   8  -3  11    8.88    5.39
   8  -3  12    0.83    4.62
   8  -3  13   23.01    5.92
   8  -3  14    1.00    4.24
   8  -3  15    5.75    4.78
   8  -3  16   21.01    4.79
   8  -3  17   16.50    7.23
   8  -2 -14  122.74    9.48
   8  -2 -13    0.42    4.81
   8  -2 -12   37.25    5.80
   8  -2 -11   11.86    3.68
   8  -2 -10    1.41    3.53
   8  -2  -9  141.85    8.77
   8  -2  -8   42.50    4.95
   8  -2  -7    5.75    4.10
   8  -2  -6   75.76    4.55
   8  -2  -5   73.10    4.67
   8  -2  -4    9.31    2.98
   8  -2  -3  191.71    8.22
   8  -2  -2    9.98    2.55
   8  -2  -1   22.11    2.79
   8  -2   0   27.55    2.86
   8  -2   1   47.43    3.76
   8  -2   2   53.51    4.86
   8  -2   3  103.81    5.81
   8  -2   4  107.46    5.17
   8  -2   5   22.11    3.13
   8  -2   6  115.23    5.87
   8  -2   7    9.17    2.66
   8  -2   8   12.52    3.12
   8  -2   9   -1.41    3.24
   8  -2  10   51.44    2.89
   8  -2  11   49.42    3.17
   8  -2  12    3.53    3.53
   8  -2  13    4.22    3.95
   8  -2  14   -6.33    6.03
   8  -2  15   12.44    6.03
   8  -2  16   -7.78    5.77
   8  -2  17    6.33    5.08
   8  -2  18    9.17    4.24
   8  -2  19   12.44    5.53
   8  -1 -15   32.35    5.13
   8  -1 -14   15.26    5.94
   8  -1 -13   -2.38    3.67
   8  -1 -12   62.55    5.44
   8  -1 -11   12.94    3.24
   8  -1 -10   11.14    3.81
   8  -1  -9    1.55    3.53
   8  -1  -8   -0.28    3.12
   8  -1  -7    7.21    2.68
   8  -1  -6    4.22    2.40
   8  -1  -5  118.05    4.39
   8  -1  -4   11.86    2.54
   8  -1  -3   24.87    2.85
   8  -1  -2   91.82    4.55
   8  -1  -1   -0.83    2.38
   8  -1   0   97.60    4.46
   8  -1   1   42.81    3.26
   8  -1   2   25.70    3.37
   8  -1   3   21.67    3.10
   8  -1   4   92.06    4.78
   8  -1   5   82.95    4.54
   8  -1   6   73.51    4.48
   8  -1   7   -3.53    3.65
   8  -1   8    6.22    2.55
   8  -1   9    3.26    1.54
   8  -1  10    0.42    1.99
   8  -1  11    2.38    2.98
   8  -1  12    1.11    1.96
   8  -1  13  152.21    7.91
   8  -1  14   51.27    5.44
   8  -1  15    3.65    2.95
   8  -1  16   -5.20    4.23
   8  -1  17   13.38    4.70
   8  -1  18    5.75    4.22
   8  -1  19   -3.26    3.82
   8  -1  20   57.75    8.66
   8   0 -16    5.36    4.68
   8   0 -15    6.64    5.39
   8   0 -14   21.67    4.75
   8   0 -13   -1.83    5.20
   8   0 -12   -1.71    3.98
   8   0 -11   -4.67    4.10
   8   0 -10   92.29    6.84
   8   0  -9   30.09    3.91
   8   0  -8   20.25    2.24
   8   0  -7    7.46    2.14
   8   0  -6   30.88    2.24
   8   0  -5    9.60    1.69
   8   0  -4    3.38    1.14
   8   0  -3   88.89    4.03
   8   0  -2   71.69    3.62
   8   0  -1  229.22    7.19
   8   0   0   28.43    2.79
   8   0   1   64.24    3.24
   8   0   2  152.81    4.99
   8   0   3    0.83    2.10
   8   0   4   14.35    1.97
   8   0   5    2.38    2.82
   8   0   6    8.60    2.23
   8   0   7    4.94    2.27
   8   0   8   63.11    3.20
   8   0   9    4.22    1.95
   8   0  10  208.84    6.87
   8   0  11  163.55    5.16
   8   0  12  217.16    6.66
   8   0  13    2.24    1.96
   8   0  14   -1.27    2.68
   8   0  15   15.92    4.36
   8   0  16    0.42    3.26
   8   0  17    2.68    3.65
   8   0  18    2.38    3.67
   8   0  19    7.92    4.95
   8   0  20    9.90    6.05
   8   1 -16    7.46    5.51
   8   1 -15   55.43    5.30
   8   1 -14    8.60    3.98
   8   1 -13    2.24    3.37
   8   1 -12   12.69    3.81
   8   1 -11    4.67    4.67
   8   1 -10    3.79    2.27
   8   1  -9   42.34    3.24
   8   1  -8  195.01    6.63
   8   1  -7   75.76    3.31
   8   1  -6   80.58    3.62
   8   1  -5  186.48    5.51
   8   1  -4    0.56    1.55
   8   1  -3   38.72    1.92
   8   1  -2   -0.71    1.28
   8   1  -1  231.39    7.22
   8   1   0  243.46    7.04
   8   1   1   31.27    2.52
   8   1   2  346.23   10.60
   8   1   3    2.38    1.69
   8   1   4   54.55    2.81
   8   1   5   17.47    2.28
   8   1   6    5.20    1.24
   8   1   7   -0.56    1.41
   8   1   8   31.95    2.14
   8   1   9    7.33    1.54
   8   1  10   69.29    3.16
   8   1  11   23.12    1.95
   8   1  12   81.44    3.43
   8   1  13   21.67    2.54
   8   1  14   21.12    4.26
   8   1  15   14.52    3.53
   8   1  16  404.62   29.15
   8   1  17   33.45    5.36
   8   1  18   30.75    6.58
   8   1  19   -5.47    3.38
   8   1  20   34.26    5.43
   8   1  22    0.83    4.50
   8   2 -17   44.53    4.44
   8   2 -16    9.17    3.67
   8   2 -15   11.29    4.07
   8   2 -14    8.05    3.64
   8   2 -13    2.81    3.21
   8   2 -12   37.99    3.95
   8   2 -11    2.96    2.26
   8   2 -10   40.36    3.02
   8   2  -9   23.59    2.43
   8   2  -8  705.61   18.92
   8   2  -7   15.26    2.23
   8   2  -6   11.69    2.27
   8   2  -5  173.42    5.01
   8   2  -4    5.36    1.54
   8   2  -3   73.10    2.44
   8   2  -2    1.41    1.27
   8   2  -1   19.30    1.47
   8   2   0    2.68    1.71
   8   2   1   79.74    3.40
   8   2   2   36.96    1.88
   8   2   3  105.26    4.62
   8   2   4    2.38    1.14
   8   2   5   -1.27    1.69
   8   2   6  136.80    5.27
   8   2   7   36.24    2.43
   8   2   8   20.15    2.03
   8   2   9    1.71    2.12
   8   2  10    3.53    1.42
   8   2  11   26.07    1.69
   8   2  12   16.10    2.00
   8   2  13    1.11    1.41
   8   2  14   40.96    2.74
   8   2  15    2.38    3.53
   8   2  16    2.38    2.82
   8   2  17    2.54    3.24
   8   2  18   21.12    3.93
   8   2  19   -1.71    4.81
   8   2  20   14.09    3.84
   8   2  21   11.29    3.84
   8   2  22    0.71    3.82
   8   3 -17   13.28    5.54
   8   3 -16   -2.24    3.95
   8   3 -15    5.20    4.23
   8   3 -14   10.81    3.82
   8   3 -13   26.93    3.07
   8   3 -12   66.93    3.89
   8   3 -11  101.87    5.75
   8   3 -10    0.83    2.24
   8   3  -9  141.57    4.53
   8   3  -8  282.73    7.19
   8   3  -7   54.91    2.64
   8   3  -6   -0.42    1.55
   8   3  -5  455.33   11.66
   8   3  -4  270.09    7.81
   8   3  -3   23.12    1.72
   8   3  -2    1.00    1.42
   8   3  -1    0.83    1.13
   8   3   0   75.14    3.71
   8   3   1   26.68    2.21
   8   3   2    4.67    1.28
   8   3   3   11.29    1.11
   8   3   4  275.58    7.49
   8   3   5  184.21   10.63
   8   3   6  138.76    5.03
   8   3   7   77.42    2.92
   8   3   8    4.22    0.83
   8   3   9  127.79    4.30
   8   3  10    8.46    1.52
   8   3  11   35.25    2.96
   8   3  12    0.14    2.14
   8   3  13   15.64    1.88
   8   3  14   34.26    2.64
   8   3  15  154.86   12.70
   8   3  16   60.86    5.56
   8   3  17    4.37    4.22
   8   3  18   29.58    4.53
   8   3  19    1.96    4.62
   8   3  20   15.92    3.98
   8   3  21    4.67    3.79
   8   3  22   42.65    6.67
   8   4 -17    1.41    4.09
   8   4 -16    5.20    3.68
   8   4 -15   86.67    7.08
   8   4 -14    1.96    3.53
   8   4 -13   34.14    4.16
   8   4 -12    3.09    2.79
   8   4 -11   17.87    3.21
   8   4 -10   11.69    2.52
   8   4  -9   24.87    2.72
   8   4  -8    1.00    1.85
   8   4  -7  181.64    5.44
   8   4  -6   26.68    2.58
   8   4  -5   20.57    2.16
   8   4  -4  574.21   15.93
   8   4  -3   28.81    1.79
   8   4  -2   -0.56    1.25
   8   4  -1  102.83    4.09
   8   4   0   58.29    2.54
   8   4   1   39.31    1.64
   8   4   2   45.97    1.93
   8   4   3   -3.09    3.51
   8   4   4    0.00    1.41
   8   4   5    0.14    4.00
   8   4   6   22.00    6.02
   8   4   7    3.53    5.22
   8   4   8    7.92    5.34
   8   4   9   26.31    6.70
   8   4  10   65.58    2.89
   8   4  11    4.78    0.99
   8   4  12   14.35    2.07
   8   4  13    5.64    2.14
   8   4  14   25.94    2.30
   8   4  15    8.19    2.99
   8   4  16   -2.38    2.13
   8   4  17   16.68    3.00
   8   4  18  136.25    9.15
   8   4  19   28.81    4.46
   8   4  20   25.94    5.68
   8   4  21   13.38    3.13
   8   4  22    8.32    3.98
   8   5 -17   -1.27    4.37
   8   5 -16    4.78    4.10
   8   5 -15    2.10    3.65
   8   5 -14   22.56    4.85
   8   5 -13   -5.09    3.37
   8   5 -12   91.82    6.37
   8   5 -11   62.55    4.31
   8   5 -10    8.60    2.79
   8   5  -9   45.81    3.21
   8   5  -8   -2.38    1.83
   8   5  -7  163.55    5.47
   8   5  -6   39.76    2.55
   8   5  -5    8.05    1.69
   8   5  -4   65.78    3.09
   8   5  -3   10.59    1.55
   8   5  -2    4.37    3.07
   8   5  -1   48.59    2.31
   8   5   0   11.69    0.97
   8   5   1    6.64    0.55
   8   5   2  137.37    8.35
   8   5   3  123.01    7.37
   8   5   4  146.12    8.90
   8   5   5   60.86    4.44
   8   5   6    0.83    6.03
   8   5   7   -3.53    6.91
   8   5   8   47.26    7.02
   8   5   9    3.26    5.10
   8   5  10  118.05    7.99
   8   5  11  453.81   13.66
   8   5  12    6.03    0.82
   8   5  13  108.70    4.22
   8   5  14   11.69    2.44
   8   5  15   -3.09    2.38
   8   5  16  141.57   10.74
   8   5  17    4.22    3.21
   8   5  18    1.71    2.27
   8   5  19    3.53    3.65
   8   5  20    3.79    2.82
   8   5  21   -3.79    2.82
   8   5  22    9.90    3.67
   8   6 -16   -0.71    3.96
   8   6 -15   -2.38    3.81
   8   6 -14   73.29    6.30
   8   6 -13   15.36    3.91
   8   6 -12    3.26    2.96
   8   6 -11    0.00    1.41
   8   6 -10    1.83    2.54
   8   6  -9   24.52    3.30
   8   6  -8  191.71    6.91
   8   6  -7  171.85    6.54
   8   6  -6   41.57    2.90
   8   6  -5   10.81    1.72
   8   6  -4  100.92    3.58
   8   6  -3   43.27    2.03
   8   6  -2   -2.54    1.82
   8   6  -1  597.78   15.68
   8   6   0   13.64    1.14
   8   6   1  100.20    2.85
   8   6   2   78.89    5.70
   8   6   3    4.78    4.62
   8   6   4  117.54    7.98
   8   6   5   13.99    4.36
   8   6   6   68.30    9.22
   8   6   7    4.51    7.06
   8   6   8   94.81    8.56
   8   6   9   14.81    3.93
   8   6  10   12.10    5.20
   8   6  11  118.05   10.32
   8   6  12   78.89    3.16
   8   6  13   10.43    1.30
   8   6  14   59.57    3.30
   8   6  15   31.54    3.86
   8   6  16   14.52    2.99
   8   6  17   10.97    3.23
   8   6  18   -0.71    2.13
   8   6  19   -1.11    2.23
   8   6  20   59.02    6.20
   8   6  21    2.38    3.07
   8   7 -15   -0.14    4.15
   8   7 -14    3.26    4.12
   8   7 -13   16.88    4.98
   8   7 -12    9.46    3.79
   8   7 -11    3.09    2.96
   8   7 -10   -0.14    3.57
   8   7  -9    3.93    2.96
   8   7  -8    0.28    2.41
   8   7  -7   12.94    4.19
   8   7  -6    1.41    1.97
   8   7  -5   69.88    3.78
   8   7  -4    9.31    1.66
   8   7  -3   54.55    2.45
   8   7  -2   86.22    3.53
   8   7  -1   -1.96    1.83
   8   7   0  239.03    6.25
   8   7   1  247.18    6.73
   8   7   2   18.58    4.81
   8   7   3   13.99    3.29
   8   7   4   54.91    5.81
   8   7   5   13.64    3.07
   8   7   6  350.66   20.01
   8   7   7   29.31    7.08
   8   7   8   11.69    6.91
   8   7   9   35.96    5.98
   8   7  10    1.96    5.75
   8   7  11   29.06    1.54
   8   7  12   11.53    0.97
   8   7  13   -1.27    1.55
   8   7  14   55.08    3.88
   8   7  15   40.36    3.31
   8   7  16   10.97    1.96
   8   7  17    0.28    1.99
   8   7  18   96.90    9.35
   8   7  19    6.64    2.93
   8   7  21   -1.83    2.54
   8   8 -14   -5.36    4.40
   8   8 -13    9.31    3.55
   8   8 -12  148.72    9.26
   8   8 -11    2.68    4.09
   8   8 -10    1.27    5.36
   8   8  -9    0.56    3.23
   8   8  -8    2.54    2.68
   8   8  -7   -0.42    2.83
   8   8  -6  131.03    6.80
   8   8  -5   44.70    3.17
   8   8  -4    2.96    1.42
   8   8  -3    5.92    1.57
   8   8  -2    5.20    1.57
   8   8  -1   50.25    2.69
   8   8   0   34.55    2.51
   8   8   1    3.79    1.38
   8   8   2   12.69    1.10
   8   8   3  280.72    9.15
   8   8   4   36.24    1.58
   8   8   5   47.11    3.75
   8   8   6  303.45   19.04
   8   8   7   32.08    8.47
   8   8   8  155.16   10.65
   8   8   9   15.54    1.03
   8   8  10   19.20    1.25
   8   8  11   92.74    5.03
   8   8  12   13.38    2.09
   8   8  13    5.09    1.72
   8   8  14   65.20    4.60
   8   8  15   57.04    4.67
   8   8  16   36.82    3.45
   8   8  17    4.94    2.27
   8   8  18    4.37    2.83
   8   8  19    5.47    2.12
   8   8  20   28.68    5.72
   8   9 -13   -0.28    3.55
   8   9 -12    4.37    3.98
   8   9 -11   52.64    4.65
   8   9 -10   20.04    3.61
   8   9  -9   13.28    3.64
   8   9  -8    4.37    3.07
   8   9  -7   -1.41    2.26
   8   9  -6    5.20    2.98
   8   9  -5   45.81    4.17
   8   9  -4    5.75    2.28
   8   9  -3  141.29    6.20
   8   9  -2    7.59    1.96
   8   9  -1  116.51    5.39
   8   9   0   55.96    3.02
   8   9   1    5.75    1.82
   8   9   2  397.02   14.66
   8   9   3   33.04    2.45
   8   9   4    1.55    1.42
   8   9   5    0.71    0.99
   8   9   6   15.54    1.13
   8   9   7    8.19    1.57
   8   9   8   40.06    3.16
   8   9   9    2.54    1.40
   8   9  10    1.11    1.41
   8   9  11   22.22    2.35
   8   9  12    1.00    1.28
   8   9  13    6.46    2.12
   8   9  14   13.38    2.26
   8   9  15    1.41    2.40
   8   9  16   62.55    5.26
   8   9  17    0.56    3.09
   8   9  18   -0.28    2.13
   8  10 -11    9.76    4.07
   8  10 -10   -4.94    3.96
   8  10  -9   13.99    4.62
   8  10  -8    0.42    3.40
   8  10  -7    3.09    2.79
   8  10  -6    1.00    2.41
   8  10  -5   42.03    4.16
   8  10  -4    4.67    2.57
   8  10  -3    2.54    3.37
   8  10  -2   26.07    2.55
   8  10  -1   51.95    3.60
   8  10   0   29.71    2.20
   8  10   1   42.19    2.93
   8  10   2   38.86    2.82
   8  10   3  156.64    6.54
   8  10   4   13.28    1.82
   8  10   5   26.20    2.92
   8  10   6   56.50    5.53
   8  10   7   37.69    3.36
   8  10   8    2.96    1.55
   8  10   9   -1.41    1.83
   8  10  10   -1.55    1.42
   8  10  11   81.44    6.01
   8  10  12   -0.42    1.41
   8  10  13   -0.56    2.38
   8  10  14  105.02    8.04
   8  10  15   10.12    2.95
   8  10  16   18.78    2.58
   8  10  17    3.79    2.54
   8  11  -9    5.75    3.93
   8  11  -8   54.03    4.19
   8  11  -7   34.97    3.65
   8  11  -6    7.33    4.50
   8  11  -5    5.36    2.52
   8  11  -4    2.68    2.52
   8  11  -3   28.68    3.95
   8  11  -2   -0.28    2.27
   8  11  -1    1.27    1.99
   8  11   0   -4.22    3.67
   8  11   1    3.65    3.54
   8  11   2   64.62    5.54
   8  11   3   90.92    6.35
   8  11   4   54.20    5.41
   8  11   5    4.22    2.83
   8  11   6   36.53    4.02
   8  11   7   21.12    3.50
   8  11   8    8.05    2.43
   8  11   9   71.47    5.82
   8  11  10   44.06    4.10
   8  11  11    4.67    2.98
   8  11  12   16.68    3.20
   8  11  13    7.21    3.26
   8  11  14   11.86    2.95
   8  12  -5    4.07    5.51
   8  12  -4    7.08    4.55
   8  12  -3   77.42    8.15
   8  12  -2    1.96    4.23
   8  12  -1   17.37    5.64
   8  12   0   14.35    3.78
   8  12   1    2.10    4.20
   8  12   2    2.38    3.07
   8  12   3   93.43    8.26
   8  12   4   31.15    4.10
   8  12   5    5.20    2.27
   8  12   6   57.75    5.41
   8  12   7    4.67    6.06
   8  12   8   43.27    5.01
   8  12   9   13.99    3.55
   8  12  10   91.37    5.91
   8  12  11   -2.38    3.53
   9  -4  -5   21.33    5.26
   9  -4  -4    3.93    5.37
   9  -4  -3   28.43    5.82
   9  -4  -2    3.26    4.67
   9  -4  -1   42.96    8.25
   9  -4   0    7.59    4.51
   9  -4   1   17.47    4.96
   9  -4   2    8.74    6.18
   9  -4   3   18.47    4.09
   9  -4   4    3.79    4.07
   9  -4   5   29.19    6.16
   9  -4   6    7.21    6.18
   9  -4   7    0.28    4.96
   9  -4   8   23.93    5.12
   9  -4   9    2.96    4.37
   9  -4  10    0.42    6.23
   9  -4  11   24.63    7.19
   9  -3  -8    0.28    3.55
   9  -3  -7   11.29    3.36
   9  -3  -6  107.46    7.13
   9  -3  -5   75.35    6.39
   9  -3  -4   39.31    4.47
   9  -3  -3    5.20    3.68
   9  -3  -2   53.68    8.53
   9  -3  -1    9.76    4.82
   9  -3   0   -3.53    5.80
   9  -3   1   -2.38    7.88
   9  -3   2   75.55    7.02
   9  -3   3    4.07    6.03
   9  -3   4    5.09    4.07
   9  -3   5   12.03    5.51
   9  -3   6   -1.27    4.67
   9  -3   7    2.96    3.96
   9  -3   8   74.73    7.39
   9  -3   9    2.96    3.10
   9  -3  10    0.42    3.82
   9  -3  11   13.38    6.08
   9  -3  12   10.28    5.64
   9  -3  13   18.78    6.49
   9  -3  14   13.38    5.03
   9  -2 -11    5.36    3.68
   9  -2 -10   36.67    4.75
   9  -2  -9    9.76    4.96
   9  -2  -8   10.74    5.68
   9  -2  -7   42.50    7.43
   9  -2  -6    9.02    3.36
   9  -2  -5    6.88    3.24
   9  -2  -4   64.82    5.92
   9  -2  -3    3.26    3.13
   9  -2  -2   30.23    3.65
   9  -2  -1   51.44    4.77
   9  -2   0   -2.54    3.82
   9  -2   1   27.30    4.47
   9  -2   2   49.92    5.03
   9  -2   3   12.94    3.68
   9  -2   4    6.03    4.67
   9  -2   5    9.02    3.78
   9  -2   6   26.31    3.78
   9  -2   7    1.96    3.09
   9  -2   8    6.03    3.98
   9  -2   9   -0.28    3.12
   9  -2  10   -4.94    3.64
   9  -2  11   34.26    5.70
   9  -2  12   -1.41    5.50
   9  -2  13    5.75    4.10
   9  -2  14    1.00    4.10
   9  -2  15    1.55    3.93
   9  -2  16    5.47    5.33
   9  -1 -12   -5.47    3.78
   9  -1 -11    8.88    3.96
   9  -1 -10    1.11    4.06
   9  -1  -9   16.88    4.98
   9  -1  -8    3.38    3.93
   9  -1  -7   58.47    4.91
   9  -1  -6    3.38    3.10
   9  -1  -5    3.53    2.81
   9  -1  -4   13.64    3.68
   9  -1  -3    2.68    2.68
   9  -1  -2   10.43    3.84
   9  -1  -1   38.42    3.82
   9  -1   0    2.54    2.54
   9  -1   1  179.09   11.13
   9  -1   2   -5.47    2.66
   9  -1   3   29.19    4.10
   9  -1   4   36.96    5.20
   9  -1   5    2.68    3.98
   9  -1   6    5.20    2.98
   9  -1   7    7.46    2.79
   9  -1   8   23.01    3.99
   9  -1   9   18.78    5.36
   9  -1  10    5.92    3.64
   9  -1  11    3.93    3.38
   9  -1  12    1.96    5.19
   9  -1  13   11.29    3.84
   9  -1  14  308.02   19.59
   9  -1  15  154.86   11.82
   9  -1  16   91.14    9.29
   9  -1  17   21.45    6.16
   9   0 -13   22.11    4.36
   9   0 -12   37.55    5.25
   9   0 -11   66.55    5.43
   9   0 -10   70.28    6.18
   9   0  -9   16.40    4.53
   9   0  -8    5.20    3.36
   9   0  -7    0.42    3.40
   9   0  -6   88.23    5.13
   9   0  -5   40.51    3.17
   9   0  -4    7.21    2.81
   9   0  -3  121.16    4.96
   9   0  -2   63.48    3.60
   9   0  -1   23.12    2.62
   9   0   0    2.81    2.66
   9   0   1   37.55    2.62
   9   0   2   18.08    2.23
   9   0   3  124.59    5.84
   9   0   4   53.51    4.17
   9   0   5    0.28    1.85
   9   0   6   94.81    4.62
   9   0   7   10.43    2.14
   9   0   8   29.31    4.50
   9   0   9    3.53    2.95
   9   0  10   10.28    2.98
   9   0  11   43.91    3.47
   9   0  12    1.00    2.41
   9   0  13    1.11    2.23
   9   0  14   18.58    2.57
   9   0  15    9.46    3.21
   9   0  16  102.11    6.25
   9   0  17    2.38    3.37
   9   0  18    5.20    2.98
   9   0  19    6.64    6.06
   9   1 -14    2.10    3.92
   9   1 -13   32.90    3.95
   9   1 -12   37.69    5.68
   9   1 -11    4.94    4.22
   9   1 -10   20.57    4.53
   9   1  -9    3.93    4.10
   9   1  -8    1.96    3.23
   9   1  -7   85.35    5.71
   9   1  -6    0.56    3.23
   9   1  -5    8.46    2.28
   9   1  -4   20.47    2.37
   9   1  -3  132.12    6.27
   9   1  -2   24.87    2.72
   9   1  -1   98.31    4.47
   9   1   0   26.20    2.07
   9   1   1   61.99    3.17
   9   1   2   78.89    3.58
   9   1   3  154.86    5.91
   9   1   4   -0.14    1.72
   9   1   5    5.64    2.26
   9   1   6    4.37    2.13
   9   1   7   13.28    1.99
   9   1   8    3.93    1.83
   9   1   9    1.27    1.42
   9   1  10   -0.14    1.99
   9   1  11  289.55   10.50
   9   1  12   -1.83    1.96
   9   1  13    7.78    2.98
   9   1  14   19.73    3.06
   9   1  15    4.94    2.27
   9   1  16   12.86    3.67
   9   1  17    5.47    3.38
   9   1  18   52.47    6.36
   9   1  19  120.64   90.51
   9   1  20    8.19    5.64
   9   2 -15   41.27    5.19
   9   2 -14    1.71    3.54
   9   2 -13    7.21    4.07
   9   2 -12   14.09    3.57
   9   2 -11    6.33    4.48
   9   2 -10   42.65    4.19
   9   2  -9    5.92    3.82
   9   2  -8   76.17    5.17
   9   2  -7   41.12    4.26
   9   2  -6    3.26    1.85
   9   2  -5   12.03    1.97
   9   2  -4  314.72    8.01
   9   2  -3    8.19    1.30
   9   2  -2  153.98    6.19
   9   2  -1  124.86    4.78
   9   2   0   12.10    1.41
   9   2   1   58.47    3.09
   9   2   2    7.59    1.44
   9   2   3    9.17    1.44
   9   2   4   15.36    2.23
   9   2   5    2.54    1.82
   9   2   6   -1.96    1.83
   9   2   7    0.42    1.85
   9   2   8   20.69    2.16
   9   2   9    0.28    1.85
   9   2  10   52.81    2.76
   9   2  11    5.09    2.26
   9   2  12    8.19    5.50
   9   2  13   15.54    2.72
   9   2  14    8.74    2.38
   9   2  15    2.10    5.47
   9   2  16    0.56    2.52
   9   2  17   37.83    5.26
   9   2  18   61.99    7.11
   9   2  19    6.46    2.96
   9   2  20   58.29    6.35
   9   3 -15    5.64    4.12
   9   3 -14   20.90    5.10
   9   3 -13    1.00    2.85
   9   3 -12    0.00    1.41
   9   3 -11   49.42    4.17
   9   3 -10   28.81    3.44
   9   3  -9   29.58    2.58
   9   3  -8  186.80    6.49
   9   3  -7  175.30    6.60
   9   3  -6    2.54    1.55
   9   3  -5    8.32    1.72
   9   3  -4   24.17    2.21
   9   3  -3   55.08    2.28
   9   3  -2    1.11    1.25
   9   3  -1  129.68    4.60
   9   3   0   26.20    1.82
   9   3   1   56.32    6.06
   9   3   2  102.35    5.53
   9   3   3   61.60    2.79
   9   3   4   69.49    2.58
   9   3   5   10.28    1.14
   9   3   6   57.94    2.52
   9   3   7   33.30    1.78
   9   3   8    6.22    0.83
   9   3   9    7.78    0.99
   9   3  10   71.28    2.81
   9   3  11    1.27    0.86
   9   3  12    5.20    1.85
   9   3  13   14.81    2.28
   9   3  14    2.38    1.97
   9   3  15    6.88    2.55
   9   3  16   -0.83    2.24
   9   3  17   23.35    3.79
   9   3  18   13.64    2.98
   9   3  19   -1.83    3.09
   9   3  20    3.65    3.09
   9   3  21   16.68    4.95
   9   4 -15   33.45    5.08
   9   4 -14    4.22    4.10
   9   4 -13    3.38    3.23
   9   4 -12   44.06    5.05
   9   4 -11    1.83    3.79
   9   4 -10   -0.83    2.52
   9   4  -9    5.36    2.69
   9   4  -8  146.42    5.75
   9   4  -7   30.36    2.62
   9   4  -6  103.31    4.10
   9   4  -5   -1.27    1.69
   9   4  -4    4.94    1.69
   9   4  -3 1296.24   26.51
   9   4  -2   30.23    1.83
   9   4  -1   23.24    1.95
   9   4   0   17.87    1.41
   9   4   1    2.10    1.41
   9   4   2   24.87    1.42
   9   4   3   35.53    4.24
   9   4   4   67.91    6.85
   9   4   5   12.44    4.27
   9   4   7   -3.26    5.78
   9   4   8   -9.90    5.39
   9   4   9   71.69    8.25
   9   4  10    6.03    4.67
   9   4  11    8.46    0.83
   9   4  12   12.10    0.99
   9   4  13    4.94    1.42
   9   4  14    9.02    2.28
   9   4  15   23.24    2.52
   9   4  16   21.67    3.10
   9   4  17    3.26    1.97
   9   4  18   16.78    4.09
   9   4  19    1.71    3.54
   9   4  20    5.92    4.10
   9   4  21    4.78    2.96
   9   5 -15    8.19    4.22
   9   5 -14    0.56    3.37
   9   5 -13    8.60    3.41
   9   5 -12   41.72    5.22
   9   5 -11   -1.83    2.83
   9   5 -10    6.64    3.37
   9   5  -9    0.14    3.14
   9   5  -8    6.64    2.82
   9   5  -7   94.81    4.16
   9   5  -6   27.04    2.83
   9   5  -5    6.88    1.57
   9   5  -4   52.30    2.58
   9   5  -3  272.83    7.46
   9   5  -2  173.42    5.63
   9   5  -1  253.95    7.57
   9   5   0   -0.14    0.86
   9   5   1  105.02    7.78
   9   5   2   33.16    6.98
   9   5   3    3.65    4.09
   9   5   4   98.08    7.99
   9   5   5    5.09    3.81
   9   5   6  151.34   10.52
   9   5   7   20.47    8.91
   9   5   8   43.43    6.57
   9   5   9    1.55    4.65
   9   5  10   20.69    5.72
   9   5  11    8.60    7.32
   9   5  12  221.38   14.13
   9   5  13   14.09    1.24
   9   5  14    4.94    1.52
   9   5  15    7.21    1.72
   9   5  16    1.41    1.97
   9   5  17    7.08    2.27
   9   5  18    6.46    2.54
   9   5  19   17.87    4.22
   9   5  20   63.48    5.49
   9   5  21   18.47    4.70
   9   6 -14   26.20    4.37
   9   6 -13  129.13    9.18
   9   6 -12   47.43    4.91
   9   6 -11   17.47    3.37
   9   6 -10   39.02    4.46
   9   6  -9    0.28    3.55
   9   6  -8   95.50    6.50
   9   6  -7   -4.22    3.21
   9   6  -6   64.62    5.16
   9   6  -5    1.27    2.12
   9   6  -4    4.07    1.54
   9   6  -3   26.93    1.97
   9   6  -2  159.33    5.99
   9   6  -1   82.09    2.79
   9   6   0    1.96    0.56
   9   6   1 1107.84   49.01
   9   6   2    4.78    5.34
   9   6   3   53.68    6.26
   9   6   4   14.62    6.18
   9   6   5   54.37    6.82
   9   6   6    1.27    6.49
   9   6   7   15.26    8.63
   9   6   8    9.31    6.23
   9   6   9  -13.11    7.99
   9   6  10   -6.46    5.19
   9   6  11   64.24    7.42
   9   6  12    1.27    5.65
   9   6  13   -0.56    4.22
   9   6  14   23.93    2.09
   9   6  15   -0.28    1.42
   9   6  16   30.63    3.16
   9   6  17    0.42    2.27
   9   6  18   -0.28    2.69
   9   6  19    9.90    3.21
   9   6  20   12.69    3.38
   9   7 -14    1.96    4.09
   9   7 -13   -3.65    3.54
   9   7 -12   15.54    4.50
   9   7 -11   18.18    3.64
   9   7 -10    8.88    4.53
   9   7  -9    3.79    2.82
   9   7  -8   25.11    2.98
   9   7  -7   41.57    4.44
   9   7  -6   17.37    3.57
   9   7  -5   31.42    2.66
   9   7  -4   12.52    2.69
   9   7  -3  168.75    8.33
   9   7  -2   54.55    3.33
   9   7  -1   -0.71    1.42
   9   7   0  299.74    9.46
   9   7   1  128.86    7.54
   9   7   2   91.82    7.28
   9   7   3  105.50    8.53
   9   7   4    7.46    4.34
   9   7   5   15.36    4.47
   9   7   6    4.22    6.35
   9   7   7   65.78    9.25
   9   7   8  124.59    9.28
   9   7   9   -4.37    5.22
   9   7  10   47.93    7.23
   9   7  11   31.54    9.07
   9   7  12  -15.82    8.22
   9   7  13   70.28   12.94
   9   7  14   39.31    2.83
   9   7  15  165.69    9.48
   9   7  16   10.28    2.28
   9   7  17   10.59    2.24
   9   7  18    5.47    2.55
   9   7  19    2.96    2.54
   9   7  20    9.02    2.57
   9   8 -13   12.86    5.37
   9   8 -12   25.23    5.61
   9   8 -11   48.59    5.63
   9   8 -10    6.33    5.92
   9   8  -9    3.53    3.26
   9   8  -8    4.78    3.21
   9   8  -7   18.78    3.50
   9   8  -6   39.45    4.47
   9   8  -5    9.17    2.95
   9   8  -4   17.87    2.90
   9   8  -3   19.30    2.82
   9   8  -2    2.81    1.66
   9   8  -1   -1.55    3.37
   9   8   0    5.09    1.13
   9   8   1    5.64    0.68
   9   8   2  178.78    9.21
   9   8   3   68.30    6.87
   9   8   4    5.64    3.10
   9   8   5  171.54    9.02
   9   8   7   -7.46    7.59
   9   8   8   -2.96    6.22
   9   8   9  131.85   11.73
   9   8  10   12.52    6.22
   9   8  11    6.64    6.36
   9   8  12   12.94    6.75
   9   8  13    7.46    5.19
   9   8  14   -8.05    5.94
   9   8  15   59.39    5.85
   9   8  16    4.07    2.12
   9   8  17    6.46    1.99
   9   8  18   21.88    3.55
   9   8  19   20.47    9.46
   9   9 -11    6.33    3.82
   9   9 -10    6.88    3.81
   9   9  -9   37.55    4.37
   9   9  -8   41.72    4.75
   9   9  -7    3.79    3.10
   9   9  -6   20.15    2.66
   9   9  -5    2.54    2.54
   9   9  -4   -1.55    2.40
   9   9  -3   61.60    4.85
   9   9  -2    1.55    2.13
   9   9  -1    5.64    1.97
   9   9   0   34.83    2.81
   9   9   1  114.72    5.34
   9   9   2   17.17    1.68
   9   9   3  194.67    6.95
   9   9   4   38.42    4.86
   9   9   5    8.19    2.85
   9   9   7   33.30    9.73
   9   9   8   79.31   13.11
   9   9   9  187.77   15.30
   9   9  10    3.26    7.21
   9   9  11   33.30    6.99
   9   9  12    0.56    6.33
   9   9  13   -2.68    7.21
   9   9  14   -4.22    6.64
   9   9  15   40.96    9.42
   9   9  16   10.59    6.33
   9   9  17   34.83    7.29
   9  10 -10    5.64    3.21
   9  10  -9    0.71    3.13
   9  10  -8    8.05    3.37
   9  10  -7   15.26    3.53
   9  10  -6    6.33    2.69
   9  10  -5   27.79    3.64
   9  10  -4   67.71    4.70
   9  10  -3   -1.27    2.41
   9  10  -2   31.54    3.47
   9  10  -1    2.81    2.10
   9  10   0   20.25    2.24
   9  10   1   20.04    2.23
   9  10   2   10.28    1.83
   9  10   3   -1.71    1.42
   9  10   4   39.16    2.82
   9  10   5    2.96    1.27
   9  10   6   78.89    7.18
   9  10   7   -7.21    8.35
   9  10   8    4.37    7.05
   9  10   9    7.21    8.73
   9  10  10   81.44   11.36
   9  10  11    6.33    7.47
   9  10  12   10.59    7.88
   9  10  13   44.06    8.19
   9  10  14   24.99    8.08
   9  10  15   10.81   10.00
   9  10  16   -7.46    7.33
   9  11  -7    4.51    4.09
   9  11  -6   16.40    3.27
   9  11  -5   14.52    4.26
   9  11  -4   15.07    3.51
   9  11  -3    2.68    2.68
   9  11  -2    7.92    2.27
   9  11  -1  103.31    7.97
   9  11   0    4.07    1.96
   9  11   1   44.53    3.96
   9  11   4    7.78    1.99
   9  11   5    0.83    1.82
   9  11   6   -1.00    2.13
   9  11   8    4.67    9.45
   9  11   9    2.96    8.05
   9  11  10   -6.77    8.02
   9  11  11   22.79    9.07
   9  11  12   25.70    7.59
   9  11  13   41.88    9.69
   9  12  -3   -0.83    2.95
   9  12  -2   25.70    3.98
   9  12  -1    9.60    2.95
   9  12   0    3.65    3.23
   9  12   1    4.22    2.83
   9  12   2   -1.41    3.24
   9  12   3   -3.53    2.54
   9  12   4   17.77    3.50
   9  12   5   14.52    3.07
   9  12   9    8.74    7.02
  10  -3  -3   46.94    8.31
  10  -3  -2   18.37    6.92
  10  -3  -1   -3.53    4.10
  10  -3   0    1.00    3.96
  10  -3   1   11.69    5.36
  10  -3   2   13.99    4.62
  10  -3   3   11.14    3.41
  10  -3   4   17.08    6.47
  10  -3   5    0.42    3.68
  10  -3   6    8.74    5.06
  10  -3   7   12.69    6.35
  10  -3   8   28.17    4.67
  10  -3   9    9.31    3.26
  10  -2  -6   60.12    6.08
  10  -2  -5   -0.56    3.51
  10  -2  -4   81.87    6.23
  10  -2  -3   19.30    3.75
  10  -2  -2   -0.56    4.22
  10  -2  -1    1.41    3.24
  10  -2   0   19.83    4.34
  10  -2   1   44.22    5.37
  10  -2   2   47.43    5.40
  10  -2   3   -7.46    4.94
  10  -2   4    2.81    3.10
  10  -2   5    1.96    4.79
  10  -2   6   -1.11    3.51
  10  -2   7   10.97    4.96
  10  -2   8   43.58    5.49
  10  -2   9   23.59    5.19
  10  -2  10    2.81    4.50
  10  -2  11   21.45    4.40
  10  -2  12    3.09    4.92
  10  -1  -9   11.29    4.55
  10  -1  -8    9.17    3.96
  10  -1  -7   -2.24    3.51
  10  -1  -6   18.37    4.68
  10  -1  -5   -1.83    3.37
  10  -1  -4    0.14    5.57
  10  -1  -3   25.83    3.98
  10  -1  -2    4.94    3.12
  10  -1  -1  116.51    7.18
  10  -1   0   10.97    3.54
  10  -1   1   13.99    3.29
  10  -1   2    7.92    3.41
  10  -1   3    0.42    4.96
  10  -1   4   53.85    5.92
  10  -1   5   -2.68    4.09
  10  -1   6    5.47    2.55
  10  -1   7    1.71    2.12
  10  -1   8    3.65    4.09
  10  -1   9    4.67    2.82
  10  -1  10    3.38    4.68
  10  -1  11   11.53    3.95
  10  -1  12   30.23    5.88
  10  -1  13    3.65    3.81
  10  -1  14    3.93    3.10
  10  -1  15  178.78   14.61
  10   0 -10   -2.24    5.19
  10   0  -9   28.68    4.96
  10   0  -8  119.09    6.99
  10   0  -7    2.81    4.22
  10   0  -6    5.92    3.64
  10   0  -5   -0.71    3.26
  10   0  -4   13.11    3.10
  10   0  -3   49.42    4.68
  10   0  -2   59.02    5.10
  10   0  -1   19.30    3.65
  10   0   0   61.05    4.82
  10   0   1    0.83    2.66
  10   0   2    3.26    2.40
  10   0   3  163.86    9.12
  10   0   4   10.28    3.50
  10   0   5   19.73    3.48
  10   0   6    3.26    2.83
  10   0   7   -2.54    2.38
  10   0   8   15.26    3.06
  10   0   9    5.36    3.53
  10   0  10   -1.96    3.92
  10   0  11   -1.96    3.53
  10   0  12   -1.00    3.24
  10   0  13  102.59    7.94
  10   0  14   -0.28    2.55
  10   0  15   81.87    6.88
  10   0  16    7.21    5.23
  10   0  17   26.57    4.40
  10   1 -11    0.56    3.78
  10   1 -10    1.55    3.67
  10   1  -9   38.42    4.71
  10   1  -8    4.37    2.98
  10   1  -7    2.10    2.82
  10   1  -6    2.81    2.82
  10   1  -5   14.26    3.23
  10   1  -4   10.28    3.50
  10   1  -3    0.28    3.55
  10   1  -2  172.48    7.80
  10   1  -1    5.20    2.38
  10   1   0    7.78    2.98
  10   1   1   11.14    2.85
  10   1   2    2.68    2.26
  10   1   3    2.96    3.23
  10   1   4   28.93    3.45
  10   1   5    0.56    2.66
  10   1   6  120.91    8.36
  10   1   7   39.16    4.16
  10   1   8    8.05    2.57
  10   1   9   -0.83    2.66
  10   1  10    4.94    2.27
  10   1  11   32.90    2.59
  10   1  12   16.50    2.21
  10   1  13   36.96    3.61
  10   1  14   -2.54    2.38
  10   1  15    3.93    2.12
  10   1  16    2.68    3.23
  10   1  17   17.08    2.85
  10   1  18   55.78    5.15
  10   2 -12   46.46    7.94
  10   2 -11   -1.83    4.79
  10   2 -10    3.26    2.96
  10   2  -9   15.54    3.65
  10   2  -8   10.97    3.69
  10   2  -7   35.81    4.12
  10   2  -6   31.54    4.27
  10   2  -5  379.24   14.81
  10   2  -4   46.94    4.40
  10   2  -3    1.55    4.79
  10   2  -2    1.55    2.69
  10   2  -1   47.43    4.58
  10   2   0    1.27    2.12
  10   2   1   17.08    2.55
  10   2   2   34.55    3.21
  10   2   3    1.55    1.54
  10   2   4   60.86    5.01
  10   2   5   10.12    2.43
  10   2   6   -2.10    1.69
  10   2   7    5.36    2.26
  10   2   9   12.44    2.26
  10   2  10  105.02    6.09
  10   2  11   48.25    2.98
  10   2  12   23.70    2.66
  10   2  13   -1.96    2.40
  10   2  14    0.71    2.13
  10   2  15    2.24    2.66
  10   2  16    8.32    2.95
  10   2  17   14.62    2.35
  10   2  18    4.07    3.26
  10   3 -12   21.01    9.91
  10   3 -11    9.98    3.23
  10   3 -10    2.68    3.23
  10   3  -9   23.93    4.06
  10   3  -8   39.61    3.89
  10   3  -7   58.29    4.36
  10   3  -6  258.88   10.70
  10   3  -5   50.25    3.88
  10   3  -4   55.78    4.43
  10   3  -3   48.42    4.62
  10   3  -2    3.09    1.96
  10   3  -1   17.77    1.80
  10   3   0    6.64    2.69
  10   3   1   45.33    3.51
  10   3   2   14.52    1.99
  10   3   3    4.78    0.83
  10   3   4   31.15    1.72
  10   3   5    9.31    1.02
  10   3   6   11.86    1.14
  10   3   7   17.17    1.58
  10   3   8  340.95   20.61
  10   3   9   24.99    2.37
  10   3  10    5.47    1.66
  10   3  11    7.59    1.71
  10   3  12    3.93    1.55
  10   3  13   79.74    4.46
  10   3  14   23.01    2.51
  10   3  15    0.28    2.27
  10   3  16   10.12    2.57
  10   3  17   14.99    2.58
  10   3  18   13.55    2.54
  10   3  19   33.45    4.12
  10   4 -13   31.27    5.05
  10   4 -12   13.28    4.41
  10   4 -11   20.69    3.67
  10   4 -10   42.03    4.31
  10   4  -9   16.40    3.95
  10   4  -8    5.75    2.79
  10   4  -7   15.92    2.65
  10   4  -6    4.22    3.21
  10   4  -5    2.38    1.69
  10   4  -4  142.98    6.53
  10   4  -3    1.71    1.14
  10   4  -2    0.00    1.41
  10   4  -1  132.12    6.27
  10   4   0   10.59    1.40
  10   4   1   71.28    3.41
  10   4   2    1.00    0.85
  10   4   3    3.38    5.08
  10   4   4    7.59    4.39
  10   4   8    0.56    5.06
  10   4   9    4.07    6.03
  10   4  10   36.24    6.43
  10   4  11   29.31    8.87
  10   4  12   84.25    8.50
  10   4  13    0.71    0.99
  10   4  14    4.22    1.57
  10   4  15    8.46    2.28
  10   4  16    0.42    1.99
  10   4  17   22.11    2.79
  10   4  18    1.00    2.55
  10   4  19    6.64    2.27
  10   5 -13   13.38    5.22
  10   5 -12    4.22    3.37
  10   5 -11   33.45    4.81
  10   5 -10   27.55    3.24
  10   5  -9   24.41    4.10
  10   5  -8   30.48    3.93
  10   5  -7   39.45    4.03
  10   5  -6    4.37    2.38
  10   5  -5   11.69    1.95
  10   5  -4    6.03    1.80
  10   5  -3   17.17    1.97
  10   5  -2    5.36    1.54
  10   5  -1   57.22    3.41
  10   5   0   20.15    2.03
  10   5   1    5.36    4.23
  10   5   2   31.54    5.06
  10   5   3   82.30    5.60
  10   5   4   52.47    5.85
  10   5   5    4.94    4.12
  10   5   8   14.81    8.14
  10   5   9   31.54    6.94
  10   5  10   38.72    8.12
  10   5  11    4.07    6.47
  10   5  12   -5.20    6.06
  10   5  13   34.26    6.40
  10   5  14    7.59    5.75
  10   5  15  173.73   16.27
  10   5  16   13.11    5.77
  10   5  17   27.30    6.46
  10   5  18   -2.68    4.67
  10   5  19    1.11    5.19
  10   6 -12   -1.27    3.24
  10   6 -11   84.91    7.44
  10   6 -10    1.41    5.78
  10   6  -9   36.10    4.85
  10   6  -8   15.92    3.51
  10   6  -7   34.00    3.45
  10   6  -6   34.83    3.92
  10   6  -5    6.22    1.83
  10   6  -4   -1.55    2.26
  10   6  -3   -1.55    1.83
  10   6  -2   14.99    2.02
  10   6  -1   14.26    1.44
  10   6   0    0.14    5.13
  10   6   1   34.97    6.32
  10   6   2  255.46   15.19
  10   6   3   -6.64    6.36
  10   6   4   82.30    8.40
  10   6   5   25.94    4.84
  10   6   8   21.56    6.61
  10   6   9   16.10    6.39
  10   6  10   58.66    9.09
  10   6  11   26.07    6.30
  10   6  12   -9.02    4.78
  10   6  13    8.60    6.47
  10   6  14   14.09    5.53
  10   6  15    2.24    5.19
  10   6  16    0.42    5.67
  10   6  17    5.09    7.08
  10   6  18    8.74    6.03
  10   6  19   32.90    7.08
  10   7 -12   18.89    4.64
  10   7 -11   38.72    5.02
  10   7 -10   18.37    4.27
  10   7  -9    6.22    4.09
  10   7  -8    8.60    2.99
  10   7  -7    8.46    2.28
  10   7  -6   17.47    2.68
  10   7  -5   51.95    4.62
  10   7  -4    2.54    2.27
  10   7  -3    4.78    2.13
  10   7  -2    3.09    1.83
  10   7  -1   15.92    1.52
  10   7   0   -3.38    3.54
  10   7   1    6.64    5.81
  10   7   2    7.21    4.40
  10   7   3   89.34    6.29
  10   7   4   98.08    7.76
  10   7   5    8.32    3.84
  10   7   8   78.05    8.18
  10   7   9   43.12    7.49
  10   7  10  102.59    9.62
  10   7  11   75.35   10.72
  10   7  12   38.86   10.66
  10   7  13   -8.46    7.88
  10   7  14   14.52    9.42
  10   7  15    5.36    5.33
  10   7  16    7.08    6.19
  10   7  17   28.93    7.80
  10   7  18  -11.69    7.06
  10   8 -11   38.13    5.27
  10   8 -10    4.78    3.37
  10   8  -9   16.20    3.06
  10   8  -8   11.86    4.09
  10   8  -7    3.38    3.54
  10   8  -6    5.64    2.54
  10   8  -5    1.83    2.54
  10   8  -4   40.06    3.61
  10   8  -3    0.42    1.99
  10   8  -2   33.85    6.36
  10   8  -1    2.81    1.55
  10   8   0   -0.28    5.81
  10   8   1   57.94    6.15
  10   8   2    3.93    3.96
  10   8   3   23.24    5.95
  10   8   4   -1.11    4.34
  10   8   5    0.14    3.43
  10   8   8   25.83    9.77
  10   8   9    7.78    6.75
  10   8  10   -5.92    5.89
  10   8  11    3.53    7.18
  10   8  12   10.59    7.04
  10   8  13   17.67    7.19
  10   8  14   11.86    6.63
  10   8  15   27.92    7.66
  10   8  16   21.67    9.29
  10   8  17   31.95    8.19
  10   9  -9   12.44    3.27
  10   9  -8   38.56    4.13
  10   9  -7    6.33    2.40
  10   9  -6    8.88    3.26
  10   9  -5    1.71    2.98
  10   9  -4   -2.10    2.51
  10   9  -3    2.96    2.26
  10   9  -2   15.36    4.47
  10   9  -1    1.41    1.69
  10   9   0    4.94    1.00
  10   9   1   16.20    3.54
  10   9   2    2.24    5.19
  10   9   3   10.81    5.78
  10   9   4   27.66    4.37
  10   9   5  185.18   12.61
  10   9   8   -2.96    7.19
  10   9   9  -15.26    7.05
  10   9  10   14.62    9.17
  10   9  11   21.33    9.22
  10   9  12   82.95   11.25
  10   9  13   -1.27    7.21
  10   9  14   10.12    7.18
  10   9  15    4.94    7.76
  10   9  16   12.10    9.33
  10  10  -7   15.82    3.12
  10  10  -6   24.28    4.09
  10  10  -5    1.11    3.93
  10  10  -4   42.34    4.02
  10  10  -3    7.21    2.55
  10  10  -2   19.30    4.39
  10  10  -1    2.81    1.66
  10  10   0   17.67    2.00
  10  10   1    3.53    3.26
  10  10   2    3.79    3.37
  10  10   3   13.28    4.68
  10  10   4   -0.28    4.12
  10  10  10   11.14   11.80
  10  10  11    3.79   11.24
  10  10  12   55.78   12.24
  10  10  13   16.20    8.70
  10  10  14   -7.59    7.73
  10  11  -4    4.94    1.95
  10  11  -3    2.38    3.23
  10  11  -2   23.93    2.90
  10  11   9   -8.32    8.02
  10  11  10   -3.38    8.18
  10  11  11    1.41    7.47
  11  -1  -3   -1.71    8.78
  11  -1  -2    1.00    5.23
  11  -1  -1   37.39    5.51
  11  -1   0   15.82    3.78
  11  -1   1    8.32    4.79
  11  -1   2   15.07    5.34
  11  -1   4   47.26    6.37
  11  -1   5   40.96    4.71
  11  -1   6   13.99    4.79
  11  -1   7   31.95    4.16
  11  -1   8   15.64    6.11
  11  -1   9   11.53    3.06
  11  -1  10   46.14    3.88
  11   0  -6   14.26    6.37
  11   0  -5    3.26    5.65
  11   0  -4    7.33    3.41
  11   0  -3   11.53    3.55
  11   0  -2   37.39    4.65
  11   0  -1   70.88    5.80
  11   0   0    5.20    2.98
  11   0   1    5.36    3.68
  11   0   2   11.14    4.20
  11   0   3    3.93    2.96
  11   0   4   -0.71    4.10
  11   0   5   47.60    5.89
  11   0   6    0.83    2.66
  11   0   7   -1.71    4.09
  11   0   8   -2.68    3.65
  11   0   9   14.62    3.54
  11   0  10   57.39    5.58
  11   0  11   11.14    3.65
  11   0  12   11.69    3.98
  11   0  13    1.83    4.37
  11   1  -8    9.02    3.64
  11   1  -7    3.26    3.51
  11   1  -6   -2.68    3.23
  11   1  -5    7.08    3.54
  11   1  -4   -3.38    2.83
  11   1  -3   11.45    3.37
  11   1  -2   -0.56    3.51
  11   1  -1   -2.81    2.95
  11   1   0    1.83    2.41
  11   1   1   43.58    4.07
  11   1   2   19.40    3.55
  11   1   3    9.76    4.07
  11   1   4   93.20    7.57
  11   1   5   16.40    3.65
  11   1   6  158.43    8.97
  11   1   7    3.53    3.79
  11   1   8    2.81    3.21
  11   1   9    5.36    3.07
  11   1  10   -2.68    2.96
  11   1  11    1.55    2.96
  11   1  12   21.45    3.41
  11   1  13   79.31   11.00
  11   1  14    4.78    3.53
  11   1  15    7.21    4.53
  11   2  -9    7.92    4.34
  11   2  -8    0.71    3.82
  11   2  -7   -2.68    2.96
  11   2  -6   99.97    7.12
  11   2  -5   12.10    2.65
  11   2  -4   12.27    3.91
  11   2  -3    0.00    1.41
  11   2  -2   22.00    3.79
  11   2  -1   41.72    4.30
  11   2   0   74.52    4.30
  11   2   1   -0.14    1.86
  11   2   2    5.75    2.51
  11   2   3    7.21    1.52
  11   2   4    8.88    2.83
  11   2   5   97.60    5.40
  11   2   6    9.60    2.58
  11   2   7    6.64    2.57
  11   2   8   -2.38    2.13
  11   2   9    1.83    2.12
  11   2  10    0.56    2.12
  11   2  11   10.12    2.12
  11   2  12   43.91    3.93
  11   2  13   27.66    2.50
  11   2  14    6.88    1.99
  11   2  15    0.56    1.69
  11   2  16    4.22    2.40
  11   3  -9   -0.42    3.12
  11   3  -8   15.64    3.95
  11   3  -7   91.60    6.82
  11   3  -6    1.11    2.54
  11   3  -5   32.08    4.03
  11   3  -4   17.67    3.99
  11   3  -3   31.68    3.61
  11   3  -2   12.94    3.07
  11   3  -1    3.26    2.83
  11   3   0    0.28    1.71
  11   3   1    7.33    1.86
  11   3   2    3.53    2.10
  11   3   3  109.45    6.71
  11   3   5   -0.28    1.28
  11   3   6    4.07    1.40
  11   3   7    3.26    1.41
  11   3   9    9.02    1.57
  11   3  10   33.04    2.74
  11   3  11    6.46    1.57
  11   3  12    7.92    5.08
  11   3  13   51.78    7.87
  11   3  14   13.28    4.07
  11   3  15   25.94    6.66
  11   3  16   10.59    4.95
  11   4 -10   18.37    3.98
  11   4  -9   24.41    4.70
  11   4  -8    5.20    2.65
  11   4  -7    5.75    3.07
  11   4  -6   10.74    3.43
  11   4  -5    1.41    1.41
  11   4  -4   76.79    3.95
  11   4  -3    6.77    1.42
  11   4  -2    4.22    2.24
  11   4  -1    0.28    1.85
  11   4   0   -0.28    0.85
  11   4   1  147.56    8.36
  11   4   2   -1.27    1.25
  11   4   3   -0.42    5.10
  11   4   4   -0.42    6.80
  11   4  10   13.82    6.18
  11   4  11   -1.71    5.95
  11   4  12    5.20    5.36
  11   4  13    9.60    6.03
  11   4  14   -1.00    8.36
  11   4  15   17.08    7.46
  11   4  16   14.35    6.66
  11   4  17   19.73    4.64
  11   5 -10   11.69    3.98
  11   5  -9    2.38    3.53
  11   5  -8    5.20    3.68
  11   5  -7   -0.42    3.26
  11   5  -6   -0.14    2.85
  11   5  -5   14.09    5.53
  11   5  -4   17.17    2.55
  11   5  -3    2.10    2.51
  11   5  -2   45.33    2.88
  11   5  -1   57.39    4.13
  11   5   0    1.00    1.42
  11   5   1   37.11    7.23
  11   5   2   24.28    5.26
  11   5   3    8.32    5.34
  11   5   4   58.12    5.80
  11   5   5    4.94    5.91
  11   5  10   68.89    7.29
  11   5  11   -3.09    5.92
  11   5  12   14.52    7.52
  11   5  13   59.57    9.90
  11   5  14   22.56    9.70
  11   5  15   88.45   11.62
  11   5  16    6.64    7.46
  11   5  17   11.29    6.46
  11   6  -9    7.59    2.55
  11   6  -8    9.46    3.07
  11   6  -7    1.71    2.98
  11   6  -6   27.04    3.21
  11   6  -5    7.78    2.72
  11   6  -4    3.53    5.34
  11   6  -3   44.70    2.69
  11   6  -2   -0.42    1.71
  11   6  -1    2.96    4.09
  11   6   0    6.33    7.05
  11   6   1   -0.83    5.19
  11   6   2  139.59   10.10
  11   6   3  278.34   17.43
  11   6   4   -9.02    4.64
  11   6   5    8.32    5.63
  11   6   9   15.36    5.77
  11   6  10    8.74    6.18
  11   6  11   13.28    5.63
  11   6  12   10.59    8.73
  11   6  13   73.51   10.79
  11   6  14   52.81    9.66
  11   6  15   31.81    8.18
  11   6  16   14.81    6.30
  11   6  17   -4.51    4.64
  11   7  -9    0.00    1.41
  11   7  -8    8.60    2.51
  11   7  -7   10.97    4.24
  11   7  -6    5.92    3.12
  11   7  -5    3.53    5.08
  11   7  -4   -0.42    2.27
  11   7  -3    3.26    1.85
  11   7  -2    2.38    1.40
  11   7  -1   63.48    8.52
  11   7   0   45.66    5.46
  11   7   1   54.72    7.02
  11   7   2   11.14    6.35
  11   7   3   30.23    5.61
  11   7   4   44.37    6.01
  11   7   5   29.44    6.44
  11   7   9   -1.96    8.45
  11   7  10   50.93    8.14
  11   7  11    7.59    8.18
  11   7  12   71.47    9.84
  11   7  13   15.07    6.73
  11   7  14    0.56    6.47
  11   7  15   13.11    6.11
  11   7  16    3.53    5.49
  11   8  -8   10.81    3.82
  11   8  -7   19.73    4.12
  11   8  -6   16.40    3.95
  11   8  -5    7.21    2.93
  11   8  -4   56.50    4.29
  11   8  -3  -10.43    6.37
  11   8  -2  145.84   11.18
  11   8  -1    0.71    5.39
  11   8   0    1.83    4.79
  11   8   1   11.45    6.91
  11   8   2    7.92    3.81
  11   8   3    1.55    3.67
  11   8   4    5.92    6.19
  11   8   9   23.70    7.87
  11   8  10  129.68   11.36
  11   8  11    2.96    7.08
  11   8  12   17.47    8.43
  11   8  13    8.05    6.94
  11   8  14   -1.83    6.20
  11   8  15   12.44    6.61
  11   9  -6   12.10    3.23
  11   9  -5    6.33    2.69
  11   9  -4    9.60    5.08
  11   9  -3   10.81    5.32
  11   9  -2   10.97    4.79
  11   9  -1    6.77    5.50
  11   9   0    0.00    1.41
  11   9   1   56.68    7.33
  11   9   2   14.52    4.53
  11   9   3   16.50    4.53
  11   9   4   26.93    5.54
  11   9   5   -1.41    5.50
  11   9  10    1.41   10.72
  11   9  11    1.11   10.94
  11   9  12   -8.05   10.18
  11   9  13   59.39   11.53
  11   9  14   16.88    8.29
  11  10  -4   20.57    6.25
  11  10  -3   -3.79    5.92
  11  10  -2   34.97    5.75
  11  10  -1   13.38    4.78
  11  10   0   24.99    5.70
  11  10   1  -11.45    4.91
  11  10   2   26.31    6.33
  11  10   3    1.71    3.54
  11  10  10   -1.96    6.90
  11  10  11   51.95   10.10
  12   1  -1    4.22    2.83
  12   1   0    1.41    2.26
  12   1   1    8.05    3.37
  12   1   2    8.32    4.39
  12   1   3    3.38    2.10
  12   1   4   18.37    3.76
  12   1   5    2.54    2.27
  12   1   6    5.36    3.68
  12   1   7    0.83    2.52
  12   1   8    6.22    3.67
  12   2  -4    1.41    3.67
  12   2  -3    2.81    3.65
  12   2  -2    7.21    3.38
  12   2  -1   17.37    3.57
  12   2   0   79.95    6.16
  12   2   1   25.11    3.57
  12   2   2   -0.42    2.68
  12   2   3    0.83    2.10
  12   2   5   -0.56    2.38
  12   2   6    3.65    2.95
  12   2   7   83.81    7.39
  12   3  -5   29.58    3.75
  12   3  -4    6.88    3.50
  12   3  -3   44.22    3.95
  12   3  -2   67.13    4.86
  12   3  -1   13.99    2.93
  12   3   0   66.55    4.46
  12   3   1    2.38    2.13
  12   3   2    9.60    2.28
  12   3   3   19.83    2.86
  12   3  13    8.60    4.95
  12   4  -6    9.76    3.26
  12   4  -5    1.27    2.81
  12   4  -4   20.69    3.57
  12   4  -3   -1.55    2.69
  12   4  -2    6.33    2.51
  12   4  -1   -0.28    2.27
  12   4   0    1.11    2.12
  12   4   1   20.90    5.64
  12   4   2   42.03    7.39
  12   4   3   67.91    8.81
  12   4  12   -2.24    4.62
  12   4  13    1.27    6.49
  12   5  -6   17.87    3.41
  12   5  -5   36.67    4.17
  12   5  -4    2.81    2.54
  12   5  -3    1.83    2.26
  12   5  -2    6.64    2.38
  12   5  -1    8.32    6.11
  12   5   0   -3.38    5.77
  12   5   1   12.69    5.50
  12   5   2   21.88    7.11
  12   5   3   -7.21    6.05
  12   5   4   17.08    5.40
  12   5  12    5.64    9.31
  12   5  13   29.71    7.77
  12   5  14   -7.08    6.37
  12   6  -6    4.67    2.57
  12   6  -5    7.92    2.68
  12   6  -4    2.54    1.96
  12   6  -3    0.42    6.23
  12   6  -2  172.17   14.34
  12   6  -1   45.66    7.22
  12   6   0   -7.08    6.19
  12   6   1    7.78    5.23
  12   6   2   -1.00    8.22
  12   6   3   43.43    8.45
  12   6   4   91.82    9.79
  12   6  11   39.76    7.64
  12   6  12    0.14    6.43
  12   6  13   -6.64    5.20
  12   6  14    8.19    8.15
  12   7  -5   -3.79    5.50
  12   7  -4   -4.51    4.64
  12   7  -3    0.56    5.61
  12   7  -2    4.67    6.36
  12   7  -1    6.22    5.81
  12   7   0   75.76    9.50
  12   7   1   20.25    8.77
  12   7   2    5.92    4.92
  12   7   3   16.78    5.26
  12   7   4   23.24    5.27
  12   7   5   -5.20    5.36
  12   7  11    2.96    5.53
  12   7  12   44.06    8.52
  12   7  13  -10.97    6.22
  12   8  -4    4.94    8.01
  12   8  -3    8.88    5.23
  12   8  -2   -9.98    5.92
  12   8  -1   -3.26    7.21
  12   8   0   62.55    7.70
  12   8   1    4.94    4.64
  12   8   2   27.79    7.52
  12   8   3    6.88    4.68
  12   8   4   -5.92    7.63
  12   8   5   84.25    8.28
  12   8  11   91.60   11.36
  12   8  12   35.96    6.42
  12   9  -2   18.58    4.09
  12   9  -1    1.96    4.50
  12   9   0   -1.11    6.02
  12   9   1    9.46    4.96
  12   9   2    9.90    5.08
  12   9   3   28.43    5.95
  12   9   4   35.11    6.90
  12   9   5    7.59    4.39
  13   4   3    1.71    5.68
  13   5   1   16.68    6.20
  13   5   2   14.81    9.14
  13   5   3   22.00   11.70
  13   6   1    9.46    8.91
  13   6   2    9.76    5.19
  13   6   3    6.22    5.81
  13   6   4   30.88    8.18
  13   7   3   27.55    7.23
  13   7   4   40.51    9.67

_computing_structure_solution     'SHELXT 2014/4 (Sheldrick, 2014)'
;
_shelx_hkl_checksum              82802
_olex2_submission_special_instructions 'No special instructions were received'
loop_
_space_group_symop_operation_xyz
'x, y, z'
'-x, -y, -z'
loop_
_atom_site_label
_atom_site_type_symbol
_atom_site_fract_x
_atom_site_fract_y
_atom_site_fract_z
_atom_site_U_iso_or_equiv
_atom_site_adp_type
_atom_site_occupancy
_atom_site_site_symmetry_order
_atom_site_calc_flag
_atom_site_refinement_flags_posn
Cl1 Cl 0.14956(7) -0.30963(7) 1.02853(4) 0.04259(19) Uani 1 1 d .
Cl2 Cl -0.08032(7) 0.07681(7) 1.20037(3) 0.04390(19) Uani 1 1 d .
Cl3 Cl 0.31338(7) 0.69741(7) 0.45647(3) 0.04135(19) Uani 1 1 d .
Cl4 Cl 0.06214(6) 1.08193(7) 0.62868(3) 0.03750(18) Uani 1 1 d .
Cl5 Cl 0.99773(7) 0.56232(7) 0.18042(4) 0.0442(2) Uani 1 1 d .
Cl6 Cl 0.74565(7) 0.28640(7) 0.31911(4) 0.0452(2) Uani 1 1 d .
O1 O 0.0500(2) 0.21508(19) 1.11330(10) 0.0454(5) Uani 1 1 d .
H1 H 0.101(3) 0.243(3) 1.0879(15) 0.061(11) Uiso 1 1 d .
O2 O 0.2616(2) -0.1342(2) 0.96135(10) 0.0440(5) Uani 1 1 d .
H2 H 0.294(3) -0.083(3) 0.9415(16) 0.070(12) Uiso 1 1 d .
O3 O 0.33580(18) 1.03504(17) 0.64596(9) 0.0343(5) Uani 1 1 d .
H3 H 0.422(3) 1.009(3) 0.6548(14) 0.066(10) Uiso 1 1 d .
O4 O 0.55995(17) 0.69411(18) 0.49218(9) 0.0371(5) Uani 1 1 d .
H4 H 0.640(3) 0.682(3) 0.5093(16) 0.081(11) Uiso 1 1 d .
O5 O 0.63736(18) 0.50620(19) 0.40212(9) 0.0372(5) Uani 1 1 d .
H5A H 0.605(4) 0.578(4) 0.4273(17) 0.090(13) Uiso 1 1 d .
O6 O 0.85532(19) 0.7591(2) 0.27758(10) 0.0396(5) Uani 1 1 d .
H6 H 0.807(3) 0.821(3) 0.3036(16) 0.067(11) Uiso 1 1 d .
N1 N 0.3842(3) 0.0179(2) 0.89611(12) 0.0489(7) Uani 1 1 d .
N2 N 0.7775(2) 0.6618(2) 0.53614(11) 0.0329(5) Uani 1 1 d .
N3 N 0.2009(3) 0.3153(2) 1.03269(13) 0.0516(7) Uani 1 1 d .
N4 N 0.5794(2) 0.9628(2) 0.67191(11) 0.0352(6) Uani 1 1 d .
C1 C 0.1209(2) -0.1540(2) 1.05285(13) 0.0305(6) Uani 1 1 d .
C2 C 0.0397(2) -0.1054(3) 1.10894(13) 0.0317(6) Uani 1 1 d .
H2A H 0.0000 -0.1566 1.1342 0.038 Uiso 1 1 calc R
C3 C 0.0167(2) 0.0186(3) 1.12818(13) 0.0314(6) Uani 1 1 d .
C4 C 0.0743(3) 0.0948(3) 1.09163(13) 0.0327(6) Uani 1 1 d .
C5 C 0.1551(3) 0.0436(3) 1.03540(13) 0.0340(7) Uani 1 1 d .
H5 H 0.1940 0.0952 1.0099 0.041 Uiso 1 1 calc R
C6 C 0.1808(3) -0.0808(3) 1.01515(13) 0.0316(6) Uani 1 1 d .
C7 C 0.3418(3) 0.0811(3) 0.84380(16) 0.0475(8) Uani 1 1 d .
H7 H 0.2630 0.0803 0.8322 0.057 Uiso 1 1 calc R
C8 C 0.4067(3) 0.1475(3) 0.80561(14) 0.0403(7) Uani 1 1 d .
H8 H 0.3718 0.1907 0.7688 0.048 Uiso 1 1 calc R
C9 C 0.5223(2) 0.1522(2) 0.82012(12) 0.0312(6) Uani 1 1 d .
C10 C 0.5665(3) 0.0858(3) 0.87443(14) 0.0436(7) Uani 1 1 d .
H10 H 0.6451 0.0849 0.8872 0.052 Uiso 1 1 calc R
C11 C 0.4959(3) 0.0212(3) 0.90977(15) 0.0524(8) Uani 1 1 d .
H11 H 0.5292 -0.0242 0.9465 0.063 Uiso 1 1 calc R
C12 C 0.5937(2) 0.2228(3) 0.78052(12) 0.0303(6) Uani 1 1 d .
C13 C 0.5240(3) 0.3335(3) 0.74548(13) 0.0338(7) Uani 1 1 d .
H13 H 0.4295 0.3633 0.7475 0.041 Uiso 1 1 calc R
C14 C 0.5893(3) 0.4003(3) 0.70819(13) 0.0348(7) Uani 1 1 d .
H14 H 0.5394 0.4745 0.6845 0.042 Uiso 1 1 calc R
C15 C 0.7282(2) 0.3606(3) 0.70473(12) 0.0316(6) Uani 1 1 d .
C16 C 0.7972(3) 0.2515(3) 0.74032(13) 0.0359(7) Uani 1 1 d .
H16 H 0.8913 0.2232 0.7393 0.043 Uiso 1 1 calc R
C17 C 0.7319(2) 0.1836(3) 0.77698(13) 0.0346(7) Uani 1 1 d .
H17 H 0.7821 0.1087 0.8002 0.042 Uiso 1 1 calc R
C18 C 0.8015(3) 0.4291(3) 0.66548(13) 0.0362(7) Uani 1 1 d .
H18 H 0.8930 0.4018 0.6704 0.043 Uiso 1 1 calc R
C19 C 0.7548(3) 0.5249(3) 0.62378(13) 0.0339(7) Uani 1 1 d .
H19 H 0.6633 0.5535 0.6185 0.041 Uiso 1 1 calc R
C20 C 0.8321(2) 0.5899(3) 0.58549(13) 0.0309(6) Uani 1 1 d .
C21 C 0.9561(3) 0.5800(3) 0.59701(15) 0.0442(8) Uani 1 1 d .
H21 H 0.9930 0.5316 0.6324 0.053 Uiso 1 1 calc R
C22 C 1.0255(3) 0.6397(3) 0.55742(15) 0.0466(8) Uani 1 1 d .
H22 H 1.1111 0.6315 0.5646 0.056 Uiso 1 1 calc R
C23 C 0.9692(3) 0.7114(3) 0.50739(14) 0.0428(8) Uani 1 1 d .
H23 H 1.0146 0.7540 0.4793 0.051 Uiso 1 1 calc R
C24 C 0.8461(3) 0.7202(3) 0.49872(13) 0.0381(7) Uani 1 1 d .
H24 H 0.8071 0.7707 0.4642 0.046 Uiso 1 1 calc R
C25 C 0.1584(3) 0.3687(3) 0.97866(18) 0.0537(9) Uani 1 1 d .
H25 H 0.0767 0.3689 0.9701 0.064 Uiso 1 1 calc R
C26 C 0.2259(3) 0.4232(3) 0.93471(15) 0.0440(8) Uani 1 1 d .
H26 H 0.1901 0.4610 0.8974 0.053 Uiso 1 1 calc R
C27 C 0.3468(3) 0.4228(2) 0.94510(14) 0.0348(7) Uani 1 1 d .
C28 C 0.3941(3) 0.3625(3) 0.99998(14) 0.0422(7) Uani 1 1 d .
H28 H 0.4782 0.3559 1.0086 0.051 Uiso 1 1 calc R
C29 C 0.3184(3) 0.3120(3) 1.04210(15) 0.0509(8) Uani 1 1 d .
H29 H 0.3519 0.2729 1.0798 0.061 Uiso 1 1 calc R
C30 C 0.4177(3) 0.4887(3) 0.90115(12) 0.0317(6) Uani 1 1 d .
C31 C 0.3454(3) 0.6049(3) 0.87053(13) 0.0380(7) Uani 1 1 d .
H31 H 0.2500 0.6386 0.8762 0.046 Uiso 1 1 calc R
C32 C 0.4090(3) 0.6715(3) 0.83245(13) 0.0389(7) Uani 1 1 d .
H32 H 0.3571 0.7513 0.8127 0.047 Uiso 1 1 calc R
C33 C 0.5491(3) 0.6234(3) 0.82231(13) 0.0342(7) Uani 1 1 d .
C34 C 0.6217(3) 0.5062(3) 0.85210(14) 0.0388(7) Uani 1 1 d .
H34 H 0.7172 0.4710 0.8454 0.047 Uiso 1 1 calc R
C35 C 0.5573(3) 0.4405(3) 0.89104(14) 0.0377(7) Uani 1 1 d .
H35 H 0.6090 0.3614 0.9112 0.045 Uiso 1 1 calc R
C36 C 0.6213(3) 0.6926(3) 0.78303(14) 0.0384(7) Uani 1 1 d .
H36 H 0.7161 0.6556 0.7817 0.046 Uiso 1 1 calc R
C37 C 0.5696(3) 0.8011(3) 0.74908(14) 0.0378(7) Uani 1 1 d .
H37 H 0.4752 0.8378 0.7489 0.045 Uiso 1 1 calc R
C38 C 0.6454(3) 0.8687(3) 0.71199(14) 0.0357(7) Uani 1 1 d .
C39 C 0.7789(3) 0.8414(3) 0.71683(16) 0.0494(8) Uani 1 1 d .
H39 H 0.8244 0.7769 0.7459 0.059 Uiso 1 1 calc R
C40 C 0.8440(3) 0.9076(3) 0.67976(16) 0.0518(9) Uani 1 1 d .
H40 H 0.9351 0.8883 0.6825 0.062 Uiso 1 1 calc R
C41 C 0.7768(3) 1.0015(3) 0.63875(15) 0.0489(8) Uani 1 1 d .
H41 H 0.8203 1.0484 0.6125 0.059 Uiso 1 1 calc R
C42 C 0.6446(3) 1.0268(3) 0.63638(14) 0.0421(7) Uani 1 1 d .
H42 H 0.5976 1.0928 0.6082 0.051 Uiso 1 1 calc R
C43 C 0.3214(2) 0.7994(2) 0.51105(12) 0.0277(6) Uani 1 1 d .
C44 C 0.2043(2) 0.8927(2) 0.54210(12) 0.0312(6) Uani 1 1 d .
H44 H 0.1196 0.9030 0.5327 0.037 Uiso 1 1 calc R
C45 C 0.2102(2) 0.9712(2) 0.58681(12) 0.0271(6) Uani 1 1 d .
C46 C 0.3332(2) 0.9583(2) 0.60107(12) 0.0266(6) Uani 1 1 d .
C47 C 0.4496(2) 0.8661(2) 0.56820(12) 0.0293(6) Uani 1 1 d .
H47 H 0.5344 0.8583 0.5764 0.035 Uiso 1 1 calc R
C48 C 0.4459(2) 0.7851(2) 0.52374(12) 0.0277(6) Uani 1 1 d .
C49 C 0.8896(2) 0.5481(3) 0.24624(13) 0.0318(6) Uani 1 1 d .
C50 C 0.8647(2) 0.4363(2) 0.25480(13) 0.0323(6) Uani 1 1 d .
H50 H 0.9059 0.3676 0.2249 0.039 Uiso 1 1 calc R
C51 C 0.7794(2) 0.4251(2) 0.30720(13) 0.0305(6) Uani 1 1 d .
C52 C 0.7182(2) 0.5255(3) 0.35160(12) 0.0305(6) Uani 1 1 d .
C53 C 0.7431(2) 0.6380(3) 0.34180(13) 0.0314(6) Uani 1 1 d .
H53 H 0.7011 0.7073 0.3714 0.038 Uiso 1 1 calc R
C54 C 0.8286(2) 0.6503(3) 0.28925(13) 0.0319(6) Uani 1 1 d .
loop_
_atom_site_aniso_label
_atom_site_aniso_U_11
_atom_site_aniso_U_22
_atom_site_aniso_U_33
_atom_site_aniso_U_23
_atom_site_aniso_U_13
_atom_site_aniso_U_12
Cl1 0.0446(4) 0.0312(4) 0.0534(5) -0.0061(3) -0.0050(3) -0.0169(3)
Cl2 0.0383(4) 0.0463(4) 0.0371(5) -0.0057(4) 0.0037(3) -0.0102(3)
Cl3 0.0346(4) 0.0524(5) 0.0420(5) -0.0171(4) -0.0049(3) -0.0202(3)
Cl4 0.0239(3) 0.0425(4) 0.0439(5) -0.0108(3) 0.0007(3) -0.0119(3)
Cl5 0.0388(4) 0.0524(5) 0.0422(5) -0.0056(4) 0.0044(3) -0.0225(4)
Cl6 0.0598(5) 0.0314(4) 0.0410(5) -0.0033(3) 0.0036(4) -0.0190(4)
O1 0.0556(13) 0.0357(12) 0.0466(14) -0.0086(10) 0.0046(11) -0.0237(11)
O2 0.0528(13) 0.0407(13) 0.0355(13) -0.0066(10) 0.0088(10) -0.0210(11)
O3 0.0247(10) 0.0380(11) 0.0412(13) -0.0136(9) -0.0059(9) -0.0113(9)
O4 0.0228(10) 0.0459(12) 0.0399(12) -0.0156(10) -0.0043(9) -0.0090(9)
O5 0.0391(11) 0.0380(12) 0.0310(12) -0.0046(10) -0.0009(9) -0.0132(9)
O6 0.0363(11) 0.0354(12) 0.0514(14) -0.0077(11) -0.0039(10) -0.0186(10)
N1 0.0551(17) 0.0418(16) 0.0401(17) 0.0009(13) 0.0076(13) -0.0162(13)
N2 0.0265(12) 0.0363(13) 0.0342(15) -0.0014(11) -0.0075(10) -0.0100(11)
N3 0.0680(19) 0.0397(16) 0.054(2) -0.0046(14) -0.0019(15) -0.0311(14)
N4 0.0328(13) 0.0449(15) 0.0327(15) -0.0048(12) -0.0048(11) -0.0201(12)
C1 0.0293(14) 0.0255(15) 0.0368(18) -0.0001(13) -0.0093(13) -0.0098(12)
C2 0.0261(14) 0.0333(16) 0.0351(18) 0.0049(13) -0.0063(12) -0.0120(12)
C3 0.0231(13) 0.0332(16) 0.0318(17) -0.0007(13) -0.0047(12) -0.0054(12)
C4 0.0317(15) 0.0275(15) 0.0374(18) 0.0001(13) -0.0100(13) -0.0091(12)
C5 0.0375(15) 0.0307(16) 0.0359(18) 0.0042(13) -0.0043(13) -0.0172(13)
C6 0.0308(14) 0.0330(16) 0.0299(17) 0.0001(13) -0.0076(12) -0.0111(13)
C7 0.0397(17) 0.049(2) 0.051(2) 0.0011(17) -0.0013(16) -0.0185(15)
C8 0.0353(16) 0.0448(18) 0.0377(19) 0.0093(15) -0.0090(14) -0.0137(14)
C9 0.0305(15) 0.0300(15) 0.0272(17) -0.0012(13) -0.0061(12) -0.0057(12)
C10 0.0469(18) 0.0480(19) 0.0357(19) 0.0057(15) -0.0129(15) -0.0177(15)
C11 0.068(2) 0.047(2) 0.034(2) 0.0060(16) -0.0083(17) -0.0168(18)
C12 0.0288(14) 0.0325(15) 0.0270(16) -0.0038(13) -0.0067(12) -0.0086(12)
C13 0.0235(14) 0.0411(17) 0.0353(17) -0.0009(14) -0.0071(12) -0.0108(13)
C14 0.0314(15) 0.0364(16) 0.0350(18) 0.0018(13) -0.0096(13) -0.0112(13)
C15 0.0287(15) 0.0340(16) 0.0304(17) -0.0072(13) -0.0034(12) -0.0105(13)
C16 0.0262(14) 0.0389(17) 0.0385(18) -0.0029(14) -0.0086(13) -0.0076(13)
C17 0.0308(15) 0.0340(16) 0.0336(18) 0.0005(13) -0.0096(13) -0.0064(13)
C18 0.0288(15) 0.0397(17) 0.0379(18) -0.0072(15) -0.0031(13) -0.0116(13)
C19 0.0280(14) 0.0414(17) 0.0327(18) -0.0050(14) -0.0042(12) -0.0140(13)
C20 0.0271(14) 0.0305(15) 0.0324(17) -0.0052(13) -0.0039(12) -0.0087(12)
C21 0.0356(16) 0.0513(19) 0.051(2) 0.0118(16) -0.0197(15) -0.0205(15)
C22 0.0318(16) 0.052(2) 0.061(2) 0.0114(17) -0.0177(15) -0.0201(15)
C23 0.0354(16) 0.0494(19) 0.049(2) 0.0066(16) -0.0076(15) -0.0233(15)
C24 0.0322(15) 0.0471(18) 0.0366(18) 0.0080(14) -0.0112(13) -0.0173(14)
C25 0.051(2) 0.047(2) 0.070(3) -0.0058(19) -0.0054(18) -0.0267(17)
C26 0.0451(18) 0.0447(18) 0.050(2) 0.0017(15) -0.0115(15) -0.0249(15)
C27 0.0393(16) 0.0247(15) 0.0397(19) -0.0077(13) -0.0047(14) -0.0117(13)
C28 0.0515(18) 0.0369(17) 0.045(2) -0.0050(15) -0.0109(16) -0.0228(15)
C29 0.078(2) 0.0357(18) 0.044(2) -0.0006(15) -0.0122(18) -0.0268(17)
C30 0.0352(15) 0.0299(15) 0.0303(17) -0.0072(13) -0.0070(12) -0.0117(13)
C31 0.0302(15) 0.0394(17) 0.0409(19) -0.0039(14) -0.0040(13) -0.0108(14)
C32 0.0365(16) 0.0365(17) 0.0376(19) 0.0008(14) -0.0056(13) -0.0090(14)
C33 0.0322(15) 0.0379(17) 0.0328(17) -0.0083(14) -0.0021(13) -0.0144(14)
C34 0.0282(15) 0.0406(18) 0.047(2) -0.0076(15) -0.0071(14) -0.0123(14)
C35 0.0342(16) 0.0321(16) 0.046(2) -0.0033(14) -0.0131(14) -0.0092(13)
C36 0.0282(15) 0.0411(18) 0.0431(19) -0.0088(15) -0.0016(13) -0.0114(14)
C37 0.0278(15) 0.0422(18) 0.0433(19) -0.0070(15) -0.0021(13) -0.0142(14)
C38 0.0289(15) 0.0355(17) 0.0432(19) -0.0121(15) -0.0002(13) -0.0136(13)
C39 0.0337(17) 0.049(2) 0.067(2) 0.0059(17) -0.0129(16) -0.0184(15)
C40 0.0296(16) 0.058(2) 0.073(3) 0.0016(19) -0.0108(16) -0.0224(16)
C41 0.0427(18) 0.066(2) 0.051(2) 0.0026(18) -0.0074(16) -0.0352(17)
C42 0.0425(17) 0.056(2) 0.0382(19) 0.0041(15) -0.0076(14) -0.0299(16)
C43 0.0304(15) 0.0343(15) 0.0240(15) -0.0015(12) -0.0062(12) -0.0176(12)
C44 0.0247(14) 0.0381(16) 0.0336(17) 0.0000(13) -0.0079(12) -0.0144(13)
C45 0.0218(13) 0.0292(15) 0.0288(16) -0.0001(12) -0.0001(11) -0.0103(11)
C46 0.0301(14) 0.0247(14) 0.0285(16) 0.0004(12) -0.0065(12) -0.0140(12)
C47 0.0203(13) 0.0343(15) 0.0354(17) -0.0053(13) -0.0052(12) -0.0120(12)
C48 0.0225(14) 0.0326(15) 0.0270(16) 0.0000(12) -0.0020(11) -0.0110(12)
C49 0.0261(14) 0.0367(16) 0.0311(17) -0.0015(13) -0.0049(12) -0.0111(12)
C50 0.0309(15) 0.0277(15) 0.0319(17) -0.0030(13) -0.0082(13) -0.0039(12)
C51 0.0303(14) 0.0261(15) 0.0326(17) 0.0017(13) -0.0086(12) -0.0081(12)
C52 0.0267(14) 0.0347(16) 0.0265(17) -0.0011(13) -0.0065(12) -0.0080(12)
C53 0.0274(14) 0.0303(15) 0.0311(17) -0.0086(13) -0.0073(12) -0.0041(12)
C54 0.0256(14) 0.0337(16) 0.0378(18) -0.0016(13) -0.0129(13) -0.0102(12)
loop_
_atom_type_symbol
_atom_type_description
_atom_type_scat_dispersion_real
_atom_type_scat_dispersion_imag
_atom_type_scat_source
C C 0.0033 0.0016 'International Tables Vol C Tables 4.2.6.8 and 6.1.1.4'
H H 0.0000 0.0000 'International Tables Vol C Tables 4.2.6.8 and 6.1.1.4'
Cl Cl 0.1484 0.1585 'International Tables Vol C Tables 4.2.6.8 and 6.1.1.4'
N N 0.0061 0.0033 'International Tables Vol C Tables 4.2.6.8 and 6.1.1.4'
O O 0.0106 0.0060 'International Tables Vol C Tables 4.2.6.8 and 6.1.1.4'
loop_
_geom_angle_atom_site_label_1
_geom_angle_atom_site_label_2
_geom_angle_atom_site_label_3
_geom_angle
C4 O1 H1 106(2)
C6 O2 H2 112(2)
C46 O3 H3 111.0(19)
C48 O4 H4 113(2)
C52 O5 H5A 108(2)
C54 O6 H6 112(2)
C11 N1 C7 115.8(3)
C24 N2 C20 118.6(2)
C29 N3 C25 116.6(3)
C42 N4 C38 118.9(2)
C2 C1 Cl1 119.6(2)
C2 C1 C6 121.3(2)
C6 C1 Cl1 119.2(2)
C1 C2 H2A 120.2
C1 C2 C3 119.5(2)
C3 C2 H2A 120.2
C2 C3 Cl2 119.3(2)
C2 C3 C4 120.9(2)
C4 C3 Cl2 119.7(2)
O1 C4 C3 118.4(3)
O1 C4 C5 123.2(3)
C5 C4 C3 118.4(2)
C4 C5 H5 119.0
C4 C5 C6 122.0(3)
C6 C5 H5 119.0
O2 C6 C1 118.8(2)
O2 C6 C5 123.2(3)
C5 C6 C1 118.0(2)
N1 C7 H7 118.3
N1 C7 C8 123.3(3)
C8 C7 H7 118.3
C7 C8 H8 119.5
C7 C8 C9 121.0(3)
C9 C8 H8 119.5
C8 C9 C12 122.4(2)
C10 C9 C8 115.6(3)
C10 C9 C12 122.0(2)
C9 C10 H10 120.2
C11 C10 C9 119.6(3)
C11 C10 H10 120.2
N1 C11 C10 124.7(3)
N1 C11 H11 117.7
C10 C11 H11 117.7
C13 C12 C9 120.8(2)
C17 C12 C9 121.8(2)
C17 C12 C13 117.4(2)
C12 C13 H13 119.3
C14 C13 C12 121.5(2)
C14 C13 H13 119.3
C13 C14 H14 119.5
C13 C14 C15 120.9(3)
C15 C14 H14 119.5
C14 C15 C18 122.6(3)
C16 C15 C14 117.5(2)
C16 C15 C18 119.9(2)
C15 C16 H16 119.3
C17 C16 C15 121.4(2)
C17 C16 H16 119.3
C12 C17 H17 119.4
C16 C17 C12 121.2(3)
C16 C17 H17 119.4
C15 C18 H18 116.2
C19 C18 C15 127.7(2)
C19 C18 H18 116.2
C18 C19 H19 117.2
C18 C19 C20 125.7(2)
C20 C19 H19 117.2
N2 C20 C19 116.3(2)
N2 C20 C21 119.9(2)
C21 C20 C19 123.7(3)
C20 C21 H21 119.8
C22 C21 C20 120.4(3)
C22 C21 H21 119.8
C21 C22 H22 120.6
C23 C22 C21 118.9(3)
C23 C22 H22 120.6
C22 C23 H23 120.7
C24 C23 C22 118.5(3)
C24 C23 H23 120.7
N2 C24 C23 123.7(3)
N2 C24 H24 118.2
C23 C24 H24 118.2
N3 C25 H25 118.1
N3 C25 C26 123.8(3)
C26 C25 H25 118.1
C25 C26 H26 120.1
C25 C26 C27 119.8(3)
C27 C26 H26 120.1
C26 C27 C30 121.4(3)
C28 C27 C26 116.6(3)
C28 C27 C30 122.0(2)
C27 C28 H28 120.1
C29 C28 C27 119.7(3)
C29 C28 H28 120.1
N3 C29 C28 123.5(3)
N3 C29 H29 118.2
C28 C29 H29 118.2
C31 C30 C27 120.6(2)
C35 C30 C27 121.5(3)
C35 C30 C31 117.9(3)
C30 C31 H31 119.3
C32 C31 C30 121.5(3)
C32 C31 H31 119.3
C31 C32 H32 119.7
C31 C32 C33 120.7(3)
C33 C32 H32 119.7
C32 C33 C36 122.6(3)
C34 C33 C32 118.0(3)
C34 C33 C36 119.4(2)
C33 C34 H34 119.4
C35 C34 C33 121.2(2)
C35 C34 H34 119.4
C30 C35 H35 119.6
C34 C35 C30 120.8(3)
C34 C35 H35 119.6
C33 C36 H36 116.2
C37 C36 C33 127.6(3)
C37 C36 H36 116.2
C36 C37 H37 117.2
C36 C37 C38 125.6(3)
C38 C37 H37 117.2
N4 C38 C37 116.5(2)
N4 C38 C39 120.1(3)
C39 C38 C37 123.5(3)
C38 C39 H39 120.0
C40 C39 C38 120.1(3)
C40 C39 H39 120.0
C39 C40 H40 120.3
C41 C40 C39 119.4(3)
C41 C40 H40 120.3
C40 C41 H41 120.7
C40 C41 C42 118.5(3)
C42 C41 H41 120.7
N4 C42 C41 123.0(3)
N4 C42 H42 118.5
C41 C42 H42 118.5
C44 C43 Cl3 119.92(18)
C44 C43 C48 120.4(2)
C48 C43 Cl3 119.69(19)
C43 C44 H44 120.0
C45 C44 C43 120.1(2)
C45 C44 H44 120.0
C44 C45 Cl4 119.67(18)
C44 C45 C46 120.9(2)
C46 C45 Cl4 119.34(19)
O3 C46 C45 119.6(2)
O3 C46 C47 122.4(2)
C47 C46 C45 118.0(2)
C46 C47 H47 119.0
C48 C47 C46 121.9(2)
C48 C47 H47 119.0
O4 C48 C43 119.6(2)
O4 C48 C47 121.7(2)
C47 C48 C43 118.6(2)
C50 C49 Cl5 119.8(2)
C50 C49 C54 120.8(2)
C54 C49 Cl5 119.4(2)
C49 C50 H50 120.2
C49 C50 C51 119.6(2)
C51 C50 H50 120.2
C50 C51 Cl6 120.7(2)
C50 C51 C52 120.7(2)
C52 C51 Cl6 118.6(2)
O5 C52 C51 117.1(2)
O5 C52 C53 124.0(2)
C53 C52 C51 118.9(2)
C52 C53 H53 119.6
C52 C53 C54 120.8(2)
C54 C53 H53 119.6
O6 C54 C49 118.1(2)
O6 C54 C53 122.8(2)
C53 C54 C49 119.1(2)
loop_
_geom_bond_atom_site_label_1
_geom_bond_atom_site_label_2
_geom_bond_distance
Cl1 C1 1.740(3)
Cl2 C3 1.739(3)
Cl3 C43 1.739(2)
Cl4 C45 1.737(3)
Cl5 C49 1.743(3)
Cl6 C51 1.732(3)
O1 H1 0.86(3)
O1 C4 1.361(3)
O2 H2 0.85(3)
O2 C6 1.350(3)
O3 H3 0.92(3)
O3 C46 1.355(3)
O4 H4 0.97(3)
O4 C48 1.356(3)
O5 H5A 0.91(4)
O5 C52 1.356(3)
O6 H6 0.85(3)
O6 C54 1.364(3)
N1 C7 1.333(4)
N1 C11 1.332(4)
N2 C20 1.352(3)
N2 C24 1.336(3)
N3 C25 1.336(4)
N3 C29 1.333(4)
N4 C38 1.349(3)
N4 C42 1.336(3)
C1 C2 1.379(4)
C1 C6 1.394(4)
C2 H2A 0.9500
C2 C3 1.385(4)
C3 C4 1.392(4)
C4 C5 1.386(4)
C5 H5 0.9500
C5 C6 1.389(4)
C7 H7 0.9500
C7 C8 1.379(4)
C8 H8 0.9500
C8 C9 1.388(4)
C9 C10 1.387(4)
C9 C12 1.474(4)
C10 H10 0.9500
C10 C11 1.381(4)
C11 H11 0.9500
C12 C13 1.398(4)
C12 C17 1.394(3)
C13 H13 0.9500
C13 C14 1.376(4)
C14 H14 0.9500
C14 C15 1.400(3)
C15 C16 1.393(4)
C15 C18 1.467(4)
C16 H16 0.9500
C16 C17 1.379(4)
C17 H17 0.9500
C18 H18 0.9500
C18 C19 1.332(4)
C19 H19 0.9500
C19 C20 1.461(4)
C20 C21 1.392(4)
C21 H21 0.9500
C21 C22 1.375(4)
C22 H22 0.9500
C22 C23 1.370(4)
C23 H23 0.9500
C23 C24 1.367(4)
C24 H24 0.9500
C25 H25 0.9500
C25 C26 1.374(4)
C26 H26 0.9500
C26 C27 1.391(4)
C27 C28 1.388(4)
C27 C30 1.479(4)
C28 H28 0.9500
C28 C29 1.383(4)
C29 H29 0.9500
C30 C31 1.393(4)
C30 C35 1.391(4)
C31 H31 0.9500
C31 C32 1.371(4)
C32 H32 0.9500
C32 C33 1.396(4)
C33 C34 1.393(4)
C33 C36 1.465(4)
C34 H34 0.9500
C34 C35 1.377(4)
C35 H35 0.9500
C36 H36 0.9500
C36 C37 1.327(4)
C37 H37 0.9500
C37 C38 1.460(4)
C38 C39 1.398(4)
C39 H39 0.9500
C39 C40 1.367(4)
C40 H40 0.9500
C40 C41 1.367(4)
C41 H41 0.9500
C41 C42 1.378(4)
C42 H42 0.9500
C43 C44 1.380(3)
C43 C48 1.390(3)
C44 H44 0.9500
C44 C45 1.380(3)
C45 C46 1.392(3)
C46 C47 1.387(3)
C47 H47 0.9500
C47 C48 1.387(3)
C49 C50 1.381(3)
C49 C54 1.391(4)
C50 H50 0.9500
C50 C51 1.382(4)
C51 C52 1.398(4)
C52 C53 1.389(4)
C53 H53 0.9500
C53 C54 1.390(4)
loop_
_geom_hbond_atom_site_label_D
_geom_hbond_atom_site_label_H
_geom_hbond_atom_site_label_A
_geom_hbond_distance_DH
_geom_hbond_distance_HA
_geom_hbond_distance_DA
_geom_hbond_angle_DHA
_geom_hbond_site_symmetry_A
O1 H1 N3 0.86(3) 1.86(3) 2.715(3) 176(3) .
O2 H2 N1 0.85(3) 1.91(3) 2.765(3) 174(3) .
O3 H3 N4 0.92(3) 1.69(3) 2.616(3) 179(3) .
O4 H4 N2 0.97(3) 1.64(4) 2.609(3) 178(3) .
O5 H5A Cl3 0.91(4) 2.91(3) 3.373(2) 113(3) .
O5 H5A O4 0.91(4) 1.84(4) 2.739(3) 166(3) .
O6 H6 Cl4 0.85(3) 2.77(3) 3.259(2) 118(2) 2_676
O6 H6 O3 0.85(3) 1.96(3) 2.802(3) 167(3) 2_676
C5 H5 N3 0.95 2.58 3.277(3) 130.4 .
C23 H23 Cl4 0.95 2.87 3.571(3) 131.3 2_676
C25 H25 Cl1 0.95 2.84 3.758(3) 163.1 2_557
C26 H26 Cl5 0.95 2.98 3.741(3) 137.8 2_666
C41 H41 Cl4 0.95 2.93 3.595(3) 128.1 1_655
C47 H47 N4 0.95 2.66 3.315(3) 126.6 .
loop_
_geom_torsion_atom_site_label_1
_geom_torsion_atom_site_label_2
_geom_torsion_atom_site_label_3
_geom_torsion_atom_site_label_4
_geom_torsion
Cl1 C1 C2 C3 -179.85(19)
Cl1 C1 C6 O2 -1.3(3)
Cl1 C1 C6 C5 179.37(19)
Cl2 C3 C4 O1 -1.4(3)
Cl2 C3 C4 C5 177.7(2)
Cl3 C43 C44 C45 178.1(2)
Cl3 C43 C48 O4 1.7(3)
Cl3 C43 C48 C47 -179.0(2)
Cl4 C45 C46 O3 -2.0(3)
Cl4 C45 C46 C47 178.0(2)
Cl5 C49 C50 C51 179.7(2)
Cl5 C49 C54 O6 0.7(3)
Cl5 C49 C54 C53 -179.64(19)
Cl6 C51 C52 O5 1.1(3)
Cl6 C51 C52 C53 -178.95(19)
O1 C4 C5 C6 178.4(2)
O3 C46 C47 C48 177.9(2)
O5 C52 C53 C54 179.2(2)
N1 C7 C8 C9 -0.1(5)
N2 C20 C21 C22 -1.9(4)
N3 C25 C26 C27 1.0(5)
N4 C38 C39 C40 -1.7(4)
C1 C2 C3 Cl2 -177.52(19)
C1 C2 C3 C4 0.0(4)
C2 C1 C6 O2 178.6(2)
C2 C1 C6 C5 -0.8(4)
C2 C3 C4 O1 -178.9(2)
C2 C3 C4 C5 0.1(4)
C3 C4 C5 C6 -0.6(4)
C4 C5 C6 O2 -178.4(2)
C4 C5 C6 C1 0.9(4)
C6 C1 C2 C3 0.3(4)
C7 N1 C11 C10 0.9(4)
C7 C8 C9 C10 0.4(4)
C7 C8 C9 C12 -179.7(3)
C8 C9 C10 C11 0.0(4)
C8 C9 C12 C13 29.9(4)
C8 C9 C12 C17 -150.9(3)
C9 C10 C11 N1 -0.7(5)
C9 C12 C13 C14 -179.9(2)
C9 C12 C17 C16 -179.2(2)
C10 C9 C12 C13 -150.2(3)
C10 C9 C12 C17 29.0(4)
C11 N1 C7 C8 -0.6(4)
C12 C9 C10 C11 -179.9(3)
C12 C13 C14 C15 -0.9(4)
C13 C12 C17 C16 0.0(4)
C13 C14 C15 C16 0.0(4)
C13 C14 C15 C18 179.9(2)
C14 C15 C16 C17 0.9(4)
C14 C15 C18 C19 -7.8(4)
C15 C16 C17 C12 -0.9(4)
C15 C18 C19 C20 -179.7(2)
C16 C15 C18 C19 172.1(3)
C17 C12 C13 C14 0.9(4)
C18 C15 C16 C17 -179.0(2)
C18 C19 C20 N2 165.0(3)
C18 C19 C20 C21 -14.4(4)
C19 C20 C21 C22 177.4(3)
C20 N2 C24 C23 0.1(4)
C20 C21 C22 C23 1.4(5)
C21 C22 C23 C24 -0.2(4)
C22 C23 C24 N2 -0.5(4)
C24 N2 C20 C19 -178.2(2)
C24 N2 C20 C21 1.1(4)
C25 N3 C29 C28 1.3(4)
C25 C26 C27 C28 1.7(4)
C25 C26 C27 C30 -175.6(3)
C26 C27 C28 C29 -2.8(4)
C26 C27 C30 C31 35.2(4)
C26 C27 C30 C35 -147.6(3)
C27 C28 C29 N3 1.4(4)
C27 C30 C31 C32 176.2(2)
C27 C30 C35 C34 -177.1(2)
C28 C27 C30 C31 -142.1(3)
C28 C27 C30 C35 35.2(4)
C29 N3 C25 C26 -2.5(4)
C30 C27 C28 C29 174.5(3)
C30 C31 C32 C33 1.1(4)
C31 C30 C35 C34 0.2(4)
C31 C32 C33 C34 -0.1(4)
C31 C32 C33 C36 -178.7(3)
C32 C33 C34 C35 -0.8(4)
C32 C33 C36 C37 -4.8(4)
C33 C34 C35 C30 0.8(4)
C33 C36 C37 C38 178.1(3)
C34 C33 C36 C37 176.6(3)
C35 C30 C31 C32 -1.2(4)
C36 C33 C34 C35 177.8(2)
C36 C37 C38 N4 168.3(3)
C36 C37 C38 C39 -12.4(4)
C37 C38 C39 C40 179.0(3)
C38 N4 C42 C41 -0.1(4)
C38 C39 C40 C41 0.9(5)
C39 C40 C41 C42 0.2(5)
C40 C41 C42 N4 -0.7(5)
C42 N4 C38 C37 -179.3(2)
C42 N4 C38 C39 1.3(4)
C43 C44 C45 Cl4 -176.4(2)
C43 C44 C45 C46 0.4(4)
C44 C43 C48 O4 -179.1(2)
C44 C43 C48 C47 0.2(4)
C44 C45 C46 O3 -178.8(2)
C44 C45 C46 C47 1.2(4)
C45 C46 C47 C48 -2.1(4)
C46 C47 C48 O4 -179.3(2)
C46 C47 C48 C43 1.4(4)
C48 C43 C44 C45 -1.1(4)
C49 C50 C51 Cl6 179.76(19)
C49 C50 C51 C52 -0.1(4)
C50 C49 C54 O6 -178.8(2)
C50 C49 C54 C53 0.9(4)
C50 C51 C52 O5 -179.1(2)
C50 C51 C52 C53 0.9(4)
C51 C52 C53 C54 -0.8(4)
C52 C53 C54 O6 179.6(2)
C52 C53 C54 C49 0.0(4)
C54 C49 C50 C51 -0.8(4)
