#------------------------------------------------------------------------------
#$Date: 2019-11-26 04:43:35 +0200 (Tue, 26 Nov 2019) $
#$Revision: 242633 $
#$URL: file:///home/coder/svn-repositories/cod/cif/4/13/27/4132713.cif $
#------------------------------------------------------------------------------
#
# This file is available in the Crystallography Open Database (COD),
# http://www.crystallography.net/
#
# All data on this site have been placed in the public domain by the
# contributors.
#
data_4132713
loop_
_publ_author_name
'Ji, Pengfei'
'Drake, Tasha'
'Murakami, Akiko'
'Oliveres, Pau'
'Skone, Jonathan H.'
'Lin, Wenbin'
_publ_section_title
;
 Tuning Lewis Acidity of Metal-Organic Frameworks via Perfluorination of
 Bridging Ligands: Spectroscopic, Theoretical, and Catalytic Studies.
;
_journal_issue                   33
_journal_name_full               'Journal of the American Chemical Society'
_journal_page_first              10553
_journal_page_last               10561
_journal_paper_doi               10.1021/jacs.8b05765
_journal_volume                  140
_journal_year                    2018
_chemical_formula_moiety         'C16 H6 F8 O4'
_chemical_formula_sum            'C16 H6 F8 O4'
_chemical_formula_weight         414.21
_chemical_name_systematic        Me2fBPDC
_space_group_crystal_system      orthorhombic
_space_group_IT_number           61
_space_group_name_Hall           '-P 2ac 2ab'
_space_group_name_H-M_alt        'P b c a'
_atom_sites_solution_hydrogens   difmap
_audit_creation_date             2018-05-28
_audit_creation_method
;
Olex2 1.2
(compiled 2018.05.18 svn.r3508 for OlexSys, GUI svn.r5497)
;
_cell_angle_alpha                90
_cell_angle_beta                 90
_cell_angle_gamma                90
_cell_formula_units_Z            8
_cell_length_a                   7.9565(11)
_cell_length_b                   15.697(2)
_cell_length_c                   24.285(3)
_cell_measurement_reflns_used    7667
_cell_measurement_temperature    100
_cell_measurement_theta_max      14.00
_cell_measurement_theta_min      2.45
_cell_volume                     3033.0(7)
_computing_cell_refinement       'SAINT V.8.35A (Bruker AXS Inc., 2013)'
_computing_data_collection       'APEX3 v.2015.9-0 (Bruker AXS Inc., 2015)'
_computing_data_reduction        'SAINT V.8.35A (Bruker AXS Inc., 2013)'
_computing_molecular_graphics
;
OLEX2: a complete structure solution, refinement and analysis program 
Dolomanov et al., 2009

Mercury: visualization and analysis of crystal structures
Macrae, et al., 2006

O. V. Dolomanov, L. J. Bourhis, R. J. Gildea, J. A. K. Howard and H. Puschmann.
J. Appl. Cryst. (2009). 42, 339-341;

C. F. Macrae, P. R. Edgington, P. McCabe, E. Pidcock, G. P. Shields, R. Taylor,
M. Towler and J. van de Streek, J. Appl. Cryst. (2006). 39, 453-457.
;
_computing_publication_material
;
 APEX3 v.2015.5-2 (Bruker AXS Inc., 2015)
 OLEX2 (Dolomanov et al., 2009)
;
_computing_structure_refinement  'XL-2018/1 (Sheldrick, 2015b)'
_computing_structure_solution    'XT 2014/5 (Sheldrick, 2015a)'
_diffrn_ambient_temperature      100(2)
_diffrn_detector                 'Bruker PHOTON 100'
_diffrn_detector_area_resol_mean 10.4167
_diffrn_detector_type            CMOS
_diffrn_measured_fraction_theta_full 0.998
_diffrn_measured_fraction_theta_max 0.998
_diffrn_measurement_device_type  'Bruker D8 Venture'
_diffrn_measurement_method       'omega and phi scans'
_diffrn_radiation_monochromator  mirrors
_diffrn_radiation_type           synchrotron
_diffrn_radiation_wavelength     0.41328
_diffrn_reflns_av_R_equivalents  0.0872
_diffrn_reflns_av_unetI/netI     0.0455
_diffrn_reflns_Laue_measured_fraction_full 0.998
_diffrn_reflns_Laue_measured_fraction_max 0.998
_diffrn_reflns_limit_h_max       9
_diffrn_reflns_limit_h_min       -9
_diffrn_reflns_limit_k_max       18
_diffrn_reflns_limit_k_min       -18
_diffrn_reflns_limit_l_max       28
_diffrn_reflns_limit_l_min       -28
_diffrn_reflns_number            45592
_diffrn_reflns_point_group_measured_fraction_full 0.998
_diffrn_reflns_point_group_measured_fraction_max 0.998
_diffrn_reflns_theta_full        14.118
_diffrn_reflns_theta_max         14.118
_diffrn_reflns_theta_min         0.975
_diffrn_source                   'micro-focus X-ray tube'
_diffrn_source_type              'INCOATEC ImuS'
_diffrn_standards_number         0
_exptl_absorpt_coefficient_mu    0.192
_exptl_absorpt_correction_T_max  0.7438
_exptl_absorpt_correction_T_min  0.6617
_exptl_absorpt_correction_type   multi-scan
_exptl_absorpt_process_details
'SADABS-2016/2 (Bruker,2016/2) was used for absorption correction. wR2(int) was 0.1177 before and 0.0907 after correction. The Ratio of minimum to maximum transmission is 0.8896. The \l/2 correction factor is Not present.'
_exptl_crystal_colour            'clear greenish colourless'
_exptl_crystal_colour_lustre     clear
_exptl_crystal_colour_modifier   greenish
_exptl_crystal_colour_primary    colourless
_exptl_crystal_density_diffrn    1.814
_exptl_crystal_description       block
_exptl_crystal_F_000             1648
_exptl_crystal_preparation       evaportation
_exptl_crystal_recrystallization_method 'from dichloromethane'
_exptl_crystal_size_max          0.2
_exptl_crystal_size_mid          0.1
_exptl_crystal_size_min          0.1
_refine_diff_density_max         0.177
_refine_diff_density_min         -0.242
_refine_diff_density_rms         0.058
_refine_ls_extinction_method     none
_refine_ls_goodness_of_fit_ref   1.049
_refine_ls_hydrogen_treatment    refall
_refine_ls_matrix_type           full
_refine_ls_number_parameters     277
_refine_ls_number_reflns         2613
_refine_ls_number_restraints     0
_refine_ls_restrained_S_all      1.049
_refine_ls_R_factor_all          0.0436
_refine_ls_R_factor_gt           0.0366
_refine_ls_shift/su_max          0.000
_refine_ls_shift/su_mean         0.000
_refine_ls_structure_factor_coef Fsqd
_refine_ls_weighting_details
'w=1/[\s^2^(Fo^2^)+(0.0528P)^2^+1.3069P] where P=(Fo^2^+2Fc^2^)/3'
_refine_ls_weighting_scheme      calc
_refine_ls_wR_factor_gt          0.0943
_refine_ls_wR_factor_ref         0.1003
_reflns_Friedel_coverage         0.000
_reflns_number_gt                2246
_reflns_number_total             2613
_reflns_threshold_expression     'I > 2\s(I)'
_iucr_refine_instructions_details
;
TITL pbca2_a.res in Pbca
    pbca2_a.res
    created by SHELXL-2018/3 at 22:22:56 on 28-May-2018
REM Old TITL pbca2 in Pbca
REM SHELXT solution in Pbca
REM R1 0.103, Rweak 0.002, Alpha 0.013, Orientation as input
REM Formula found by SHELXT: C16 F8 O4
CELL 0.41328 7.9565 15.6968 24.2853 90 90 90
ZERR 8 0.0011 0.0021 0.0033 0 0 0
LATT 1
SYMM 0.5-X,-Y,0.5+Z
SYMM -X,0.5+Y,0.5-Z
SYMM 0.5+X,0.5-Y,-Z
SFAC C H F O
UNIT 128 48 64 32

L.S. 99
PLAN  20
TEMP 0
BOND $H
LIST 6
fmap 2
acta
REM <olex2.extras>
REM <HklSrc "%.\\pbca2_a.hkl">
REM </olex2.extras>

WGHT    0.052800    1.306900
FVAR       0.18918
F001  3    0.441024    0.257147    0.430742    11.00000    0.02992    0.02737 =
         0.02571    0.00227   -0.00485    0.00332
F002  3    0.172308    0.307250    0.488465    11.00000    0.03512    0.01927 =
         0.03092    0.00339    0.00332   -0.00319
F003  3    0.350138    0.524516    0.367643    11.00000    0.03794    0.02649 =
         0.02669    0.00627    0.00379   -0.00091
F004  3    0.452225    0.144535    0.349098    11.00000    0.03609    0.02566 =
         0.03203   -0.00101   -0.00449    0.00885
F005  3    0.090044    0.433535    0.323564    11.00000    0.03446    0.02546 =
         0.03615    0.00406   -0.00601    0.00682
F006  3    0.348841    0.634919    0.450415    11.00000    0.04236    0.01892 =
         0.03577    0.00339    0.00387   -0.00320
F007  3    0.114710    0.324079    0.239966    11.00000    0.03835    0.03058 =
         0.02943    0.00514   -0.01141   -0.00101
F008  3    0.169797    0.418373    0.571210    11.00000    0.04684    0.02625 =
         0.02639    0.00234    0.00849   -0.00374
O009  4    0.160937    0.655657    0.552437    11.00000    0.03167    0.02397 =
         0.03454   -0.00405   -0.00205    0.00481
O00A  4    0.247779    0.094348    0.254980    11.00000    0.04624    0.02293 =
         0.03025   -0.00215    0.00274   -0.00347
O00B  4    0.345346    0.578181    0.601558    11.00000    0.03695    0.02838 =
         0.03403   -0.00010   -0.00517    0.00175
O00C  4    0.367299    0.193936    0.201945    11.00000    0.05837    0.03653 =
         0.02958   -0.00108    0.00748   -0.00965
C00D  1    0.355565    0.274175    0.384346    11.00000    0.02274    0.02471 =
         0.02333    0.00380   -0.00181   -0.00121
C00E  1    0.267527    0.349619    0.379623    11.00000    0.02304    0.02355 =
         0.02623    0.00448    0.00270   -0.00224
C00F  1    0.217385    0.387908    0.478355    11.00000    0.02385    0.01968 =
         0.03194    0.00449    0.00008   -0.00083
C00G  1    0.258470    0.530117    0.513239    11.00000    0.02308    0.02328 =
         0.02988    0.00127    0.00002    0.00240
C00H  1    0.260839    0.412071    0.425096    11.00000    0.02165    0.02289 =
         0.02761    0.00133   -0.00056    0.00163
C00I  1    0.216436    0.445202    0.521066    11.00000    0.02753    0.02541 =
         0.02504    0.00460    0.00235    0.00072
C00J  1    0.185699    0.363505    0.329827    11.00000    0.02309    0.02196 =
         0.03168    0.00598   -0.00002    0.00083
C00K  1    0.302942    0.497147    0.417440    11.00000    0.02483    0.02543 =
         0.02520    0.00602    0.00117    0.00186
C00L  1    0.262386    0.590051    0.561211    11.00000    0.02392    0.02166 =
         0.03174    0.00297    0.00263   -0.00163
C00M  1    0.301771    0.554341    0.460234    11.00000    0.02615    0.01815 =
         0.03367    0.00410    0.00062   -0.00099
C00N  1    0.283366    0.230756    0.292285    11.00000    0.02518    0.02409 =
         0.02683    0.00234    0.00121   -0.00402
C00O  1    0.195680    0.306404    0.287224    11.00000    0.02565    0.02699 =
         0.02471    0.00555   -0.00425   -0.00395
C00P  1    0.361672    0.215749    0.342182    11.00000    0.02477    0.02151 =
         0.02905    0.00282    0.00051    0.00090
C00Q  1    0.303937    0.171847    0.244169    11.00000    0.03079    0.02597 =
         0.02722    0.00117   -0.00351   -0.00124
C00R  1    0.156009    0.718193    0.596527    11.00000    0.03237    0.02760 =
         0.03583   -0.00784    0.00299    0.00085
C00S  1    0.272132    0.032545    0.211259    11.00000    0.04934    0.02727 =
         0.03173   -0.00555   -0.00317    0.00498
H00A  2    0.259783    0.750145    0.598098    11.00000    0.03123
H00B  2    0.144724    0.688680    0.630168    11.00000    0.03490
H00D  2    0.214582   -0.021478    0.226548    11.00000    0.05225
H00E  2    0.218376    0.052832    0.178252    11.00000    0.05220
H00C  2    0.063813    0.754953    0.589072    11.00000    0.05623
H00F  2    0.391680    0.024645    0.207182    11.00000    0.05431
HKLF 4




REM  pbca2_a.res in Pbca
REM wR2 = 0.1003, GooF = S = 1.049, Restrained GooF = 1.049 for all data
REM R1 = 0.0366 for 2246 Fo > 4sig(Fo) and 0.0436 for all 2613 data
REM 277 parameters refined using 0 restraints

END  
     
WGHT      0.0528      1.3073 

REM Highest difference peak  0.177,  deepest hole -0.242,  1-sigma level  0.058
Q1    1   0.2209  0.2514  0.2921  11.00000  0.05    0.18
Q2    1   0.4963  0.6788  0.4891  11.00000  0.05    0.18
Q3    1   0.2855  0.2030  0.2695  11.00000  0.05    0.15
Q4    1   0.1053  0.8216  0.5569  11.00000  0.05    0.15
Q5    1   0.5002  0.5194  0.4263  11.00000  0.05    0.15
Q6    1   0.3071  0.4470  0.4254  11.00000  0.05    0.15
Q7    1  -0.0517  0.2891  0.2323  11.00000  0.05    0.15
Q8    1   0.5019  0.6792  0.4567  11.00000  0.05    0.15
Q9    1   0.3536  0.0408  0.2920  11.00000  0.05    0.15
Q10   1   0.1779  0.3395  0.5723  11.00000  0.05    0.14
Q11   1   0.2219  0.3438  0.3827  11.00000  0.05    0.14
Q12   1   0.2617  0.2028  0.2051  11.00000  0.05    0.14
Q13   1   0.4477  0.3640  0.4273  11.00000  0.05    0.14
Q14   1   0.0678  0.6984  0.6387  11.00000  0.05    0.14
Q15   1   0.6094  0.1992  0.3459  11.00000  0.05    0.14
Q16   1   0.4865  0.5391  0.6369  11.00000  0.05    0.14
Q17   1   0.2994  0.0645  0.1714  11.00000  0.05    0.13
Q18   1   0.0253  0.3803  0.5960  11.00000  0.05    0.13
Q19   1   0.0257  0.3831  0.5815  11.00000  0.05    0.13
Q20   1   0.3465 -0.0211  0.2313  11.00000  0.05    0.13

  REM The information below was added by Olex2.
  REM
  REM R1 = 0.0366 for 2246 Fo > 4sig(Fo) and 0.0436 for all 49628 data
  REM n/a parameters refined using n/a restraints
  REM Highest difference peak 0.18, deepest hole -0.24
  REM Mean Shift 0, Max Shift 0.000.

  REM +++ Tabular Listing of Refinement Information +++
  REM R1_all = 0.0436
  REM R1_gt = 0.0366
  REM wR_ref = 0.1003
  REM GOOF = 1.049
  REM Shift_max = 0.000
  REM Shift_mean = 0
  REM Reflections_all = 49628
  REM Reflections_gt = 2246
  REM Parameters = n/a
  REM Hole = -0.24
  REM Peak = 0.18
  REM Flack = n/a

  
;
_cod_data_source_file            ja8b05765_si_002.cif
_cod_data_source_block           pbca2_a
_cod_database_code               4132713
_shelx_shelxl_version_number     2018/3
_shelx_space_group_comment
;
The symmetry employed for this shelxl refinement is uniquely defined
by the following loop, which should always be used as a source of
symmetry information in preference to the above space-group names.
They are only intended as comments.
;
_olex2_refinement_description
;
;
_olex2_exptl_crystal_mounting_method loop
_olex2_submission_special_instructions 'No special instructions were received'
loop_
_space_group_symop_operation_xyz
'x, y, z'
'-x+1/2, -y, z+1/2'
'-x, y+1/2, -z+1/2'
'x+1/2, -y+1/2, -z'
'-x, -y, -z'
'x-1/2, y, -z-1/2'
'x, -y-1/2, z-1/2'
'-x-1/2, y-1/2, z'
loop_
_atom_site_label
_atom_site_type_symbol
_atom_site_fract_x
_atom_site_fract_y
_atom_site_fract_z
_atom_site_U_iso_or_equiv
_atom_site_adp_type
_atom_site_occupancy
_atom_site_site_symmetry_order
_atom_site_calc_flag
F001 F 0.44102(13) 0.25715(7) 0.43074(4) 0.0277(3) Uani 1 1 d
F002 F 0.17231(14) 0.30725(6) 0.48847(4) 0.0284(3) Uani 1 1 d
F003 F 0.35014(14) 0.52452(7) 0.36764(4) 0.0304(3) Uani 1 1 d
F004 F 0.45223(14) 0.14453(7) 0.34910(4) 0.0313(3) Uani 1 1 d
F005 F 0.09004(14) 0.43353(7) 0.32356(4) 0.0320(3) Uani 1 1 d
F006 F 0.34884(14) 0.63492(7) 0.45041(5) 0.0324(3) Uani 1 1 d
F007 F 0.11471(14) 0.32408(7) 0.23997(4) 0.0328(3) Uani 1 1 d
F008 F 0.16980(15) 0.41837(7) 0.57121(4) 0.0332(3) Uani 1 1 d
O009 O 0.16094(17) 0.65566(8) 0.55244(6) 0.0301(3) Uani 1 1 d
O00A O 0.24778(19) 0.09435(8) 0.25498(6) 0.0331(3) Uani 1 1 d
O00B O 0.34535(18) 0.57818(9) 0.60156(6) 0.0331(3) Uani 1 1 d
O00C O 0.3673(2) 0.19394(10) 0.20195(6) 0.0415(4) Uani 1 1 d
C00D C 0.3556(2) 0.27417(12) 0.38435(7) 0.0236(4) Uani 1 1 d
C00E C 0.2675(2) 0.34962(12) 0.37962(7) 0.0243(4) Uani 1 1 d
C00F C 0.2174(2) 0.38791(11) 0.47835(8) 0.0252(4) Uani 1 1 d
C00G C 0.2585(2) 0.53012(12) 0.51324(8) 0.0254(4) Uani 1 1 d
C00H C 0.2608(2) 0.41207(12) 0.42510(8) 0.0240(4) Uani 1 1 d
C00I C 0.2164(2) 0.44520(12) 0.52107(7) 0.0260(4) Uani 1 1 d
C00J C 0.1857(2) 0.36351(12) 0.32983(8) 0.0256(4) Uani 1 1 d
C00K C 0.3029(2) 0.49715(12) 0.41744(7) 0.0252(4) Uani 1 1 d
C00L C 0.2624(2) 0.59005(12) 0.56121(8) 0.0258(4) Uani 1 1 d
C00M C 0.3018(2) 0.55434(11) 0.46023(8) 0.0260(4) Uani 1 1 d
C00N C 0.2834(2) 0.23076(12) 0.29228(7) 0.0254(4) Uani 1 1 d
C00O C 0.1957(2) 0.30640(12) 0.28722(7) 0.0258(4) Uani 1 1 d
C00P C 0.3617(2) 0.21575(12) 0.34218(8) 0.0251(4) Uani 1 1 d
C00Q C 0.3039(2) 0.17185(12) 0.24417(8) 0.0280(4) Uani 1 1 d
C00R C 0.1560(3) 0.71819(14) 0.59653(9) 0.0319(5) Uani 1 1 d
C00S C 0.2721(3) 0.03254(14) 0.21126(9) 0.0361(5) Uani 1 1 d
H00A H 0.260(3) 0.7501(14) 0.5981(8) 0.031(6) Uiso 1 1 d
H00B H 0.145(3) 0.6887(15) 0.6302(10) 0.035(6) Uiso 1 1 d
H00D H 0.215(3) -0.0215(17) 0.2265(10) 0.052(7) Uiso 1 1 d
H00E H 0.218(3) 0.0528(17) 0.1783(11) 0.052(7) Uiso 1 1 d
H00C H 0.064(4) 0.7550(17) 0.5891(11) 0.056(8) Uiso 1 1 d
H00F H 0.392(4) 0.0246(17) 0.2072(10) 0.054(7) Uiso 1 1 d
loop_
_atom_site_aniso_label
_atom_site_aniso_U_11
_atom_site_aniso_U_22
_atom_site_aniso_U_33
_atom_site_aniso_U_23
_atom_site_aniso_U_13
_atom_site_aniso_U_12
F001 0.0299(6) 0.0274(6) 0.0257(6) 0.0023(4) -0.0048(4) 0.0033(4)
F002 0.0351(6) 0.0193(5) 0.0309(6) 0.0034(4) 0.0033(5) -0.0032(4)
F003 0.0379(7) 0.0265(6) 0.0267(6) 0.0063(4) 0.0038(4) -0.0009(5)
F004 0.0361(6) 0.0257(6) 0.0320(6) -0.0010(5) -0.0045(5) 0.0088(5)
F005 0.0345(6) 0.0255(6) 0.0361(6) 0.0041(5) -0.0060(5) 0.0068(5)
F006 0.0424(7) 0.0189(6) 0.0358(6) 0.0034(5) 0.0039(5) -0.0032(5)
F007 0.0383(6) 0.0306(6) 0.0294(6) 0.0051(5) -0.0114(5) -0.0010(5)
F008 0.0468(7) 0.0262(6) 0.0264(6) 0.0023(5) 0.0085(5) -0.0037(5)
O009 0.0317(7) 0.0240(7) 0.0345(7) -0.0041(6) -0.0020(6) 0.0048(6)
O00A 0.0462(9) 0.0229(7) 0.0302(7) -0.0022(6) 0.0027(6) -0.0035(6)
O00B 0.0370(8) 0.0284(7) 0.0340(8) -0.0001(6) -0.0052(6) 0.0018(6)
O00C 0.0584(10) 0.0365(8) 0.0296(8) -0.0011(6) 0.0075(7) -0.0097(7)
C00D 0.0227(9) 0.0247(9) 0.0233(9) 0.0038(7) -0.0018(7) -0.0012(7)
C00E 0.0230(9) 0.0235(10) 0.0262(9) 0.0045(7) 0.0027(7) -0.0022(7)
C00F 0.0239(10) 0.0197(9) 0.0319(10) 0.0045(8) 0.0001(7) -0.0008(7)
C00G 0.0231(9) 0.0233(9) 0.0299(10) 0.0013(8) 0.0000(7) 0.0024(7)
C00H 0.0216(9) 0.0229(9) 0.0276(9) 0.0013(7) -0.0006(7) 0.0016(7)
C00I 0.0275(10) 0.0254(10) 0.0250(9) 0.0046(8) 0.0023(7) 0.0007(8)
C00J 0.0231(9) 0.0220(9) 0.0317(10) 0.0060(8) 0.0000(8) 0.0008(8)
C00K 0.0248(9) 0.0254(10) 0.0252(9) 0.0060(8) 0.0012(7) 0.0019(8)
C00L 0.0239(9) 0.0217(9) 0.0317(10) 0.0030(8) 0.0026(8) -0.0016(7)
C00M 0.0262(9) 0.0181(9) 0.0337(10) 0.0041(8) 0.0006(8) -0.0010(7)
C00N 0.0252(10) 0.0241(10) 0.0268(10) 0.0023(8) 0.0012(7) -0.0040(7)
C00O 0.0257(9) 0.0270(10) 0.0247(10) 0.0055(8) -0.0042(7) -0.0039(8)
C00P 0.0248(9) 0.0215(9) 0.0290(10) 0.0028(8) 0.0005(7) 0.0009(7)
C00Q 0.0308(10) 0.0260(10) 0.0272(10) 0.0012(8) -0.0035(8) -0.0012(8)
C00R 0.0324(12) 0.0276(10) 0.0358(12) -0.0078(9) 0.0030(9) 0.0009(9)
C00S 0.0493(14) 0.0273(11) 0.0317(12) -0.0056(9) -0.0032(10) 0.0050(10)
loop_
_atom_type_symbol
_atom_type_description
_atom_type_scat_dispersion_real
_atom_type_scat_dispersion_imag
_atom_type_scat_source
C C 0.0033 0.0016 'International Tables Vol C Tables 4.2.6.8 and 6.1.1.4'
H H 0.0000 0.0000 'International Tables Vol C Tables 4.2.6.8 and 6.1.1.4'
F F 0.0171 0.0103 'International Tables Vol C Tables 4.2.6.8 and 6.1.1.4'
O O 0.0106 0.0060 'International Tables Vol C Tables 4.2.6.8 and 6.1.1.4'
loop_
_geom_angle_atom_site_label_1
_geom_angle_atom_site_label_2
_geom_angle_atom_site_label_3
_geom_angle
C00L O009 C00R 115.01(16)
C00Q O00A C00S 115.13(16)
F001 C00D C00E 119.82(16)
F001 C00D C00P 118.30(16)
C00P C00D C00E 121.87(16)
C00D C00E C00H 121.68(16)
C00D C00E C00J 116.37(17)
C00J C00E C00H 121.94(16)
F002 C00F C00H 119.66(16)
F002 C00F C00I 118.65(16)
C00I C00F C00H 121.67(17)
C00I C00G C00L 120.13(17)
C00M C00G C00I 116.80(17)
C00M C00G C00L 123.03(17)
C00F C00H C00E 121.52(17)
C00K C00H C00E 121.94(17)
C00K C00H C00F 116.51(17)
F008 C00I C00F 118.81(16)
F008 C00I C00G 119.53(16)
C00F C00I C00G 121.64(17)
F005 C00J C00E 119.42(16)
F005 C00J C00O 118.78(16)
C00O C00J C00E 121.78(17)
F003 C00K C00H 119.84(17)
F003 C00K C00M 118.44(16)
C00M C00K C00H 121.70(17)
O009 C00L C00G 110.50(16)
O00B C00L O009 126.07(18)
O00B C00L C00G 123.43(17)
F006 C00M C00G 119.58(16)
F006 C00M C00K 118.70(16)
C00K C00M C00G 121.69(17)
C00O C00N C00Q 121.03(16)
C00P C00N C00O 116.84(17)
C00P C00N C00Q 121.92(17)
F007 C00O C00J 118.77(16)
F007 C00O C00N 119.65(16)
C00J C00O C00N 121.57(17)
F004 C00P C00D 118.80(15)
F004 C00P C00N 119.61(16)
C00D C00P C00N 121.53(17)
O00A C00Q C00N 112.07(16)
O00C C00Q O00A 125.47(18)
O00C C00Q C00N 122.44(18)
O009 C00R H00A 110.9(13)
O009 C00R H00B 108.0(14)
O009 C00R H00C 106.9(16)
H00A C00R H00B 107.6(18)
H00A C00R H00C 111(2)
H00B C00R H00C 113(2)
O00A C00S H00D 103.1(14)
O00A C00S H00E 109.2(16)
O00A C00S H00F 107.0(15)
H00D C00S H00E 112(2)
H00D C00S H00F 112(2)
H00E C00S H00F 113(2)
loop_
_geom_bond_atom_site_label_1
_geom_bond_atom_site_label_2
_geom_bond_distance
F001 C00D 1.343(2)
F002 C00F 1.339(2)
F003 C00K 1.337(2)
F004 C00P 1.340(2)
F005 C00J 1.346(2)
F006 C00M 1.340(2)
F007 C00O 1.345(2)
F008 C00I 1.341(2)
O009 C00L 1.326(2)
O009 C00R 1.453(2)
O00A C00Q 1.322(2)
O00A C00S 1.451(2)
O00B C00L 1.196(2)
O00C C00Q 1.194(2)
C00D C00E 1.381(3)
C00D C00P 1.375(3)
C00E C00H 1.478(3)
C00E C00J 1.391(3)
C00F C00H 1.392(3)
C00F C00I 1.373(3)
C00G C00I 1.387(3)
C00G C00L 1.498(3)
C00G C00M 1.386(3)
C00H C00K 1.389(3)
C00J C00O 1.371(3)
C00K C00M 1.373(3)
C00N C00O 1.383(3)
C00N C00P 1.383(3)
C00N C00Q 1.499(3)
C00R H00A 0.97(2)
C00R H00B 0.94(2)
C00R H00C 0.95(3)
C00S H00D 1.03(3)
C00S H00E 0.96(3)
C00S H00F 0.96(3)
loop_
_refln_index_h
_refln_index_k
_refln_index_l
_refln_F_squared_meas
_refln_F_squared_sigma
1 0 0 0 0.2
1 0 0 0.2 0.2
1 0 0 -0.4 0.2
1 0 0 -0.1 0.1
-1 0 0 -0.3 0.3
-1 0 0 0.2 0.3
-1 0 0 -0.4 0.3
-1 0 0 -0.2 0.2
2 0 0 9999 1440.36
-2 0 0 9896.91 1440.36
-2 0 0 8526.65 1440.36
3 0 0 -0.2 0.4
-3 0 0 -0.2 0.6
3 0 0 0.5 0.5
3 0 0 -0.6 0.5
3 0 0 -0.5 0.4
-3 0 0 -0.2 0.6
-3 0 0 -0.1 0.5
-3 0 0 -0.1 0.4
4 0 0 168.28 26.2
-4 0 0 177.58 26.2
-4 0 0 173.28 26.2
4 0 0 173.98 26.3
-4 0 0 157.88 26.2
4 0 0 180.38 26.2
4 0 0 176.58 26.2
-4 0 0 167.88 26.2
-5 0 0 -0.2 0.6
-5 0 0 0.1 0.6
-5 0 0 -0.2 0.5
-5 0 0 0.2 0.5
5 0 0 -0.3 0.4
5 0 0 0.2 0.5
5 0 0 0.3 0.6
5 0 0 -0.8 0.5
6 0 0 47 7.5
6 0 0 48.4 7.6
-6 0 0 56.29 7.6
-6 0 0 43.5 7.6
6 0 0 47 7.5
-6 0 0 51.89 7.6
7 0 0 0.3 0.8
-7 0 0 0.5 0.8
-7 0 0 -0.7 0.8
7 0 0 0.2 0.8
-7 0 0 -0.1 0.7
-7 0 0 -0.5 0.6
7 0 0 -0.4 0.5
7 0 0 -0.2 0.7
-8 0 0 2.4 1
8 0 0 0.7 0.9
8 0 0 1.8 0.9
8 0 0 1.4 1
8 0 0 2.5 0.7
9 0 0 0.8 1.1
9 0 0 -0.5 0.9
0 -1 0 -0.1 0.2
0 1 0 0 0.1
0 -1 0 -0.1 0.1
0 -1 0 -0.4 0.2
0 1 0 0 0.1
0 1 0 -0.1 0.1
0 -1 0 -0.1 0.2
0 1 0 0.1 0.2
-1 1 0 -0.1 0.4
1 -1 0 -0.6 0.4
1 -1 0 0.3 0.4
-1 1 0 -0.2 0.4
2 -1 0 17 2.6
2 -1 0 20.4 2.7
-2 1 0 18.1 2.7
-2 1 0 23.1 2.7
-2 -1 0 16.1 2.6
-2 1 0 13.8 2.6
2 -1 0 20.3 2.7
-2 -1 0 13 2.5
-2 1 0 20.3 2.7
2 1 0 15.8 2.6
-2 -1 0 16.2 2.5
-2 -1 0 18.3 2.6
2 1 0 14.4 2.5
3 -1 0 0.7 0.6
3 -1 0 0.7 0.5
-3 -1 0 0 0.4
-3 1 0 0 0.6
-3 1 0 1.3 0.7
-3 -1 0 0.1 0.5
-3 1 0 1.4 0.7
3 -1 0 -0.4 0.6
3 1 0 -0.2 0.4
3 -1 0 -0.3 0.5
-3 1 0 -0.7 0.6
-4 1 0 292.37 42.8
4 -1 0 271.87 42.8
4 1 0 289.37 42.8
-4 1 0 252.07 42.8
-4 1 0 293.27 42.8
-4 -1 0 269.87 42.8
-4 -1 0 272.97 42.8
-4 -1 0 260.17 42.8
-4 1 0 310.67 42.8
4 1 0 281.77 42.8
-4 -1 0 271.57 42.8
4 -1 0 287.57 42.8
4 -1 0 299.47 42.8
4 1 0 292.17 42.8
-5 -1 0 0 0.5
-5 1 0 0.5 0.6
-5 1 0 -0.5 0.6
5 -1 0 -0.3 0.6
-5 -1 0 0 0.6
5 1 0 0.3 0.6
5 -1 0 -0.7 0.5
5 1 0 -0.3 0.5
-5 -1 0 0.3 0.5
-5 1 0 1.7 0.8
5 -1 0 -0.7 0.6
-5 -1 0 -0.5 0.5
6 1 0 9.4 2
6 -1 0 10 2
6 1 0 10.2 2
-6 1 0 13.5 2.2
-6 1 0 15.1 2.3
-6 -1 0 13.2 2.1
6 -1 0 11.8 2
-6 -1 0 11.5 2
-6 -1 0 12.5 2
6 -1 0 9.3 2
-6 1 0 13.1 2.1
6 -1 0 10.6 2.1
-6 1 0 11.8 2.2
7 -1 0 -0.5 0.8
7 1 0 1.2 0.7
-7 1 0 0.1 0.8
-7 -1 0 0 0.7
7 -1 0 0.5 0.6
7 -1 0 0.6 0.8
-7 -1 0 0 0.6
-7 1 0 -0.8 0.7
-7 1 0 -1 0.8
-7 -1 0 -0.4 0.7
-7 -1 0 0 0.7
-7 1 0 0.5 0.9
8 -1 0 14.4 2.4
8 -1 0 10.6 2.2
-8 1 0 13.4 2.3
-8 1 0 10.2 2.2
8 1 0 12.3 2.2
8 -1 0 10.6 2
8 1 0 11.7 2.1
-8 1 0 9.8 2.2
-8 1 0 12.9 2.7
9 -1 0 -0.1 1
9 1 0 -0.8 0.8
9 -1 0 -0.1 0.7
9 1 0 1 1
0 2 0 114.09 14.9
0 2 0 103.89 14.9
0 -2 0 81.19 14.9
0 -2 0 91.39 14.9
1 2 0 0 0.3
1 2 0 0.2 0.2
1 -2 0 -0.2 0.6
-1 -2 0 0.3 0.3
-1 2 0 -0.1 0.5
-1 -2 0 0.2 0.4
1 -2 0 0.3 0.5
1 2 0 0 0.3
-1 -2 0 0.3 0.3
1 -2 0 0.4 0.4
-1 2 0 0.2 0.5
1 -2 0 -0.6 0.4
-1 -2 0 0.2 0.2
1 2 0 -0.4 0.3
-1 2 0 -0.2 0.6
2 -2 0 611.74 86.89
-2 -2 0 531.65 86.79
-2 2 0 584.94 86.89
-2 2 0 550.44 86.79
2 2 0 526.25 86.79
2 -2 0 605.44 86.89
2 -2 0 493.05 86.79
-2 2 0 621.04 86.89
-2 2 0 639.84 86.79
2 -2 0 558.54 86.79
-3 2 0 0.9 0.6
3 2 0 0.5 0.4
-3 2 0 0 0.7
3 -2 0 0 0.6
-3 -2 0 0.4 0.4
3 2 0 0.5 0.4
-3 2 0 0.3 0.7
3 -2 0 -0.3 0.6
-3 -2 0 -0.1 0.3
-3 2 0 -0.6 0.7
3 -2 0 -0.2 0.6
3 -2 0 -0.1 0.6
4 -2 0 299.07 44.6
4 2 0 309.97 44.5
-4 2 0 311.57 44.6
4 2 0 304.87 44.5
4 -2 0 296.07 44.6
-4 -2 0 284.67 44.5
-4 2 0 291.37 44.6
-4 -2 0 278.37 44.5
-4 -2 0 283.27 44.5
4 -2 0 271.27 44.6
-5 -2 0 0.2 0.5
5 -2 0 0.3 0.6
5 2 0 0 0.5
5 -2 0 -0.3 0.7
5 -2 0 -0.6 0.5
-5 2 0 0.8 0.8
5 2 0 0.8 0.5
-5 2 0 -1.1 0.7
-5 -2 0 0.6 0.5
-5 2 0 1.6 0.7
-5 -2 0 0.4 0.5
-5 -2 0 -0.2 0.4
-5 2 0 0.2 0.7
-6 2 0 60.59 8.4
-6 -2 0 54.89 8.3
-6 2 0 55.19 8.4
6 -2 0 52.79 8.4
6 -2 0 53.99 8.4
-6 2 0 54.69 8.4
6 2 0 59.29 8.3
-6 -2 0 55.79 8.3
-6 2 0 50.39 8.4
-6 -2 0 55.59 8.3
6 2 0 51.59 8.3
6 -2 0 49.4 8.3
-6 -2 0 50.99 8.3
6 -2 0 48.6 8.4
-7 2 0 0.2 0.8
-7 -2 0 0.6 0.8
-7 2 0 -1.2 0.7
7 -2 0 0 0.7
-7 -2 0 1.6 0.7
-7 2 0 0.1 0.9
-7 -2 0 -1.7 0.6
7 -2 0 1 0.9
-7 -2 0 -0.1 0.6
7 -2 0 -0.6 0.7
7 2 0 0.1 0.7
7 -2 0 1 0.8
-7 2 0 1.1 0.9
7 2 0 -0.1 0.7
-8 2 0 9.3 1.9
8 -2 0 4.9 1.7
8 -2 0 6.5 1.6
-8 2 0 8.1 1.8
8 -2 0 8.6 1.7
8 2 0 10.3 1.6
9 -2 0 0.8 1
9 -2 0 -0.5 1
9 2 0 -0.9 0.7
9 2 0 -1 0.9
9 -2 0 -1.1 1
9 -2 0 -0.4 0.8
0 -3 0 -0.3 0.4
0 3 0 -0.1 0.5
0 -3 0 0 0.5
0 3 0 0.2 0.5
0 -3 0 -0.2 0.7
0 3 0 -0.3 0.5
0 3 0 0.2 0.4
0 -3 0 0.2 0.5
1 -3 0 -0.1 0.6
-1 3 0 0.4 0.6
1 3 0 0.3 0.4
1 -3 0 -0.1 0.6
-1 3 0 0.5 0.6
-1 -3 0 -0.3 0.6
-1 -3 0 -0.1 0.5
-1 3 0 -2 0.6
-1 3 0 -0.6 0.7
1 -3 0 -0.5 0.5
1 -3 0 0.5 0.7
2 -3 0 3796.32 553.54
-2 -3 0 3627.44 553.44
-2 3 0 3609.54 553.44
2 -3 0 3305.97 553.44
-2 -3 0 3398.96 553.44
-2 -3 0 3154.98 553.44
2 3 0 3541.95 553.44
-2 -3 0 3578.44 553.44
-2 3 0 3762.82 553.54
-2 3 0 3787.92 553.44
2 -3 0 3638.14 553.54
2 3 0 3909.21 553.44
-2 3 0 3820.42 553.54
2 -3 0 4052.49 553.54
-3 3 0 0.6 0.8
3 -3 0 -0.6 0.7
-3 3 0 -1.1 0.8
-3 -3 0 0 0.3
3 -3 0 0.3 0.6
3 -3 0 0.7 0.7
4 3 0 230.88 35.7
-4 3 0 227.28 35.9
4 -3 0 259.07 35.9
-4 3 0 248.88 35.9
-4 3 0 240.28 35.8
4 -3 0 232.88 35.8
4 -3 0 233.08 35.8
4 -3 0 196.48 36
-5 3 0 -0.7 0.6
5 -3 0 0.2 0.7
5 3 0 0 0.4
5 -3 0 0 0.6
5 -3 0 0.2 0.7
5 -3 0 -0.5 0.5
-5 -3 0 0.4 0.5
-5 -3 0 0.1 0.5
-5 3 0 -0.3 0.7
-5 3 0 -0.2 0.8
-5 -3 0 -0.4 0.4
5 3 0 -0.3 0.5
-5 3 0 -1.2 0.7
-6 3 0 -0.1 0.7
-6 -3 0 0.5 0.6
-6 3 0 -0.4 0.9
6 -3 0 0 0.7
6 -3 0 -0.2 0.7
-6 -3 0 0.3 0.6
-6 3 0 -0.2 0.7
6 -3 0 -0.1 0.9
-6 3 0 -0.6 0.7
-6 -3 0 -0.1 0.5
6 -3 0 -0.1 0.7
-7 -3 0 0.6 0.6
-7 3 0 -0.7 0.8
-7 3 0 0.6 0.9
7 -3 0 0.4 0.8
7 3 0 -0.1 0.6
-7 -3 0 -0.4 0.6
-7 -3 0 0 0.7
7 -3 0 0.6 0.9
7 3 0 -0.5 0.6
8 3 0 2.8 0.8
-8 3 0 2.6 1.1
-8 3 0 2.7 1.1
8 -3 0 0.6 1
8 -3 0 2 1
-8 3 0 3.2 1.2
-8 3 0 2 1.1
8 3 0 0.9 0.9
8 -3 0 0.6 1
8 -3 0 0.6 0.9
9 -3 0 -1.6 1
9 -3 0 0.7 1.1
9 3 0 -1.4 0.7
9 -3 0 -0.7 0.9
0 -4 0 70.49 12.3
0 4 0 73.29 12.3
0 4 0 76.49 12.3
0 4 0 90.99 12.3
0 -4 0 92.69 12.4
0 -4 0 68.69 12.3
0 -4 0 94.39 12.3
1 -4 0 0.2 0.6
-1 4 0 -0.2 0.7
1 -4 0 -0.3 0.7
-1 4 0 0.6 0.7
-1 -4 0 -0.2 0.5
1 -4 0 0.4 0.7
1 4 0 0 0.4
1 4 0 -0.6 0.5
1 -4 0 -0.2 0.8
-1 -4 0 0.5 0.6
-1 -4 0 0.1 0.6
-1 -4 0 -0.2 0.7
-1 4 0 -1.6 0.6
1 4 0 -1.5 0.7
-1 4 0 1.5 0.8
1 4 0 -0.8 0.4
2 -4 0 66.09 11.6
-2 4 0 71.89 11.6
-2 -4 0 84.89 11.5
2 4 0 73.79 11.5
2 -4 0 75.89 11.6
2 4 0 82.49 11.5
-2 -4 0 64.99 11.5
-2 4 0 78.29 11.6
3 -4 0 0.2 0.6
3 -4 0 0.5 0.7
3 -4 0 0.1 0.7
-3 4 0 1 0.9
-3 -4 0 0.5 0.4
-3 4 0 0.8 0.8
-3 4 0 -0.1 0.8
-3 4 0 -0.6 0.6
-4 4 0 34.5 5.3
4 -4 0 30.2 5.2
-4 4 0 36.5 5.3
-4 4 0 31.6 5.2
4 -4 0 28.9 5.2
-4 4 0 35.6 5.3
4 -4 0 33.1 5.1
4 -4 0 29.9 5.3
-5 4 0 -0.8 0.7
5 -4 0 0.2 0.7
5 -4 0 0.4 0.8
-5 4 0 0.9 0.8
-5 4 0 -1.2 0.9
5 -4 0 0.8 0.7
-5 4 0 -0.5 0.7
5 -4 0 0.6 0.7
-6 -4 0 -0.4 0.5
-6 -4 0 0.4 0.4
-6 4 0 -1.4 0.8
6 -4 0 -1.2 0.6
6 -4 0 0.2 0.7
-6 4 0 0.3 0.8
-6 -4 0 0 0.5
6 -4 0 0.8 1
-6 4 0 0 0.8
-6 4 0 1.2 0.9
6 -4 0 -0.7 0.7
-7 4 0 1.2 1
-7 -4 0 -0.1 0.6
7 -4 0 0.1 1
-7 4 0 -0.7 0.8
7 -4 0 -1.4 0.7
-7 4 0 -0.3 0.9
-7 4 0 0.4 1
8 -4 0 0.7 1
-8 4 0 2.7 1.4
8 4 0 0.6 0.6
8 -4 0 -0.5 0.9
-8 4 0 -0.2 1
-8 4 0 0.1 1
8 -4 0 2 1.1
8 -4 0 0.5 0.9
-8 4 0 1.9 1.3
9 -4 0 0.8 1.1
9 -4 0 0.8 1.1
0 -5 0 -0.3 0.7
0 5 0 0.5 0.6
0 -5 0 -0.3 0.6
0 -5 0 0.6 0.7
0 5 0 0.3 0.7
0 5 0 0.9 0.8
0 -5 0 -1.1 0.9
0 5 0 0.3 0.5
1 -5 0 -0.6 0.6
1 5 0 1.6 0.8
1 5 0 -0.4 0.6
-1 -5 0 0.7 0.6
-1 -5 0 1.3 0.8
1 5 0 -1.1 0.5
-1 5 0 -0.8 0.7
-1 -5 0 0.4 0.7
-1 5 0 -1.6 0.8
1 5 0 -1.2 0.4
1 -5 0 0.2 0.8
-1 -5 0 -1.5 0.5
-2 5 0 39.9 5.2
-2 5 0 38.9 5.3
-2 -5 0 26 5
2 -5 0 34.3 5.1
2 5 0 32.7 5
2 -5 0 34 5.1
2 5 0 33.2 5
2 5 0 31.8 5
2 -5 0 33.7 5.2
2 -5 0 26 5.1
-2 5 0 34.5 5.1
-2 -5 0 29.1 5
2 5 0 32.6 4.9
-2 5 0 34 5.2
3 -5 0 -1.1 0.7
3 5 0 -0.7 0.3
-3 5 0 -0.1 0.8
-3 5 0 -0.3 0.6
-3 5 0 1 0.9
-3 -5 0 -0.7 0.5
3 -5 0 -0.6 0.6
-3 -5 0 0.7 0.5
-3 5 0 -1.4 0.8
3 -5 0 -0.5 0.7
3 5 0 -0.1 0.6
3 -5 0 -0.5 1.1
-3 -5 0 -0.9 0.5
4 -5 0 18.9 2.8
-4 5 0 16.3 2.7
-4 5 0 14.5 2.7
4 -5 0 12 2.6
-4 5 0 17.6 2.9
-4 5 0 16.7 2.9
-4 -5 0 16.1 2.4
4 -5 0 10.4 2.6
-5 5 0 -0.7 0.8
5 -5 0 -1.3 0.6
-5 5 0 0.2 0.8
-5 5 0 -1.3 0.7
-5 5 0 -1.9 0.8
5 -5 0 -0.3 0.7
5 -5 0 0.2 0.7
6 -5 0 18.9 3.5
-6 5 0 21.8 3.6
-6 5 0 22.8 3.5
-6 5 0 20.7 3.5
-6 5 0 13.2 3.4
6 -5 0 22.3 3.5
6 -5 0 22.8 3.6
7 -5 0 0 0.8
-7 5 0 -0.9 0.9
-7 5 0 1.1 1.1
7 -5 0 1.3 0.9
7 -5 0 0 0.8
-7 5 0 -0.7 0.9
-7 5 0 0.7 1
7 -5 0 0.6 1
8 -5 0 -0.5 1
-8 5 0 4 1.3
8 -5 0 0.6 1.1
-8 5 0 0.8 1.1
8 -5 0 2 1.1
9 -5 0 -0.6 1.1
-9 5 0 -1.6 1.1
9 -5 0 0.8 1.1
9 -5 0 1.5 1.1
0 6 0 25.8 4.6
0 -6 0 43.4 4.7
0 6 0 22.4 4.5
0 -6 0 28.3 4.5
0 6 0 27.3 4.5
-1 -6 0 0.1 0.7
-1 6 0 0.3 0.6
-1 6 0 0.5 0.8
1 -6 0 0.8 1.1
-1 -6 0 -0.5 0.7
1 -6 0 0.1 0.8
-1 6 0 0.2 0.7
1 6 0 -0.6 0.4
1 6 0 0 0.5
-1 6 0 0.1 0.8
-1 -6 0 -0.3 0.8
1 -6 0 0.5 0.7
-1 -6 0 0.7 0.6
1 6 0 -0.1 0.7
1 6 0 0.3 0.9
1 -6 0 0.1 0.8
-2 -6 0 12.8 2.9
2 6 0 25.5 2.9
-2 -6 0 31 3
2 -6 0 12.2 3
2 6 0 19.8 2.8
-2 6 0 15.9 3
2 -6 0 15.9 3
2 -6 0 8.4 2.9
2 6 0 17.3 2.9
-2 -6 0 25.7 3.1
-2 6 0 16.8 3
2 -6 0 16.3 3.1
2 6 0 16.5 2.9
-2 6 0 12.3 3
-2 6 0 15.4 3.1
-2 -6 0 23.6 2.9
-3 -6 0 1 0.6
3 -6 0 -0.1 0.8
3 6 0 -0.1 0.4
-3 6 0 0.4 0.8
-3 -6 0 0.3 0.4
3 -6 0 -0.7 0.7
3 -6 0 0.5 0.7
3 6 0 0 0.7
-3 6 0 0 0.7
-3 6 0 0.8 1
-3 6 0 0 0.9
-3 -6 0 -0.5 0.6
-3 -6 0 0.3 0.5
3 -6 0 0.2 0.7
4 -6 0 122.49 18.3
4 -6 0 122.49 18.3
-4 6 0 123.39 18.3
-4 -6 0 121.39 18.1
4 -6 0 116.39 18.2
4 6 0 115.49 18.1
-4 6 0 107.99 18.3
-4 6 0 114.69 18.2
-4 -6 0 116.29 18.1
-4 -6 0 130.69 18.1
-4 -6 0 112.19 18.1
4 -6 0 121.19 18.3
4 6 0 117.49 18.1
-4 6 0 119.79 18.2
-5 6 0 -0.9 0.8
5 -6 0 -0.6 0.9
-5 6 0 0.6 0.9
5 -6 0 -0.5 0.7
-5 6 0 -0.6 0.8
5 -6 0 -0.8 0.7
-5 6 0 1.3 1
6 -6 0 135.79 18.1
6 -6 0 126.69 18
-6 6 0 111.09 18.1
-6 6 0 115.69 18
6 -6 0 117.89 18.1
-6 6 0 118.59 18.1
6 -6 0 98.49 18
-6 6 0 111.49 18
-7 6 0 -0.9 1
-7 6 0 -1 1
7 -6 0 1 1.1
7 -6 0 1.7 1
7 -6 0 0.6 0.9
7 -6 0 1.5 0.9
-8 6 0 3.1 1.4
-8 6 0 5.6 1.5
8 -6 0 2.6 1.2
8 -6 0 2.9 1.3
0 7 0 0.4 0.7
0 -7 0 -0.3 1
0 -7 0 -0.5 0.7
0 7 0 0.4 0.6
0 -7 0 -0.3 0.7
0 7 0 -0.5 0.8
0 -7 0 1 0.8
1 -7 0 0.1 0.8
1 7 0 -0.1 0.7
1 -7 0 -0.6 0.8
-1 7 0 0.2 0.6
1 7 0 -1.2 0.8
1 -7 0 -0.1 0.7
-1 7 0 -0.9 0.9
-1 7 0 0.6 0.6
-1 7 0 0.5 0.9
1 7 0 0.5 0.5
1 -7 0 -0.6 1
2 -7 0 161.38 23.7
2 7 0 143.39 23.6
-2 7 0 170.88 23.7
-2 7 0 167.28 23.7
2 -7 0 149.88 23.7
2 7 0 133.69 23.6
-2 7 0 151.18 23.7
-2 -7 0 148.89 23.6
-2 -7 0 148.59 23.6
-2 -7 0 181.08 23.6
2 7 0 143.49 23.6
-2 7 0 171.18 23.7
-2 -7 0 158.68 23.6
2 -7 0 151.38 23.7
-3 -7 0 -0.1 0.5
3 7 0 0.2 0.3
-3 7 0 0.3 0.8
3 7 0 -0.5 0.4
-3 7 0 0.3 0.9
3 -7 0 -0.7 0.7
3 -7 0 0.3 0.8
-3 7 0 -0.4 0.7
-3 -7 0 -0.2 0.7
-3 7 0 -0.2 1
-3 -7 0 -1.4 0.6
3 -7 0 -0.7 0.7
3 -7 0 -0.4 0.8
-3 -7 0 0.2 0.6
3 7 0 0.1 0.7
3 7 0 -0.2 0.4
-4 -7 0 36.4 5.2
4 -7 0 25.2 5.5
-4 -7 0 35.7 5.2
4 7 0 33.8 5.3
-4 7 0 42.5 5.6
-4 -7 0 32.9 5.3
4 -7 0 32.3 5.5
4 7 0 36.5 5.2
4 -7 0 29.4 5.6
-4 -7 0 29.6 5.2
-4 7 0 29.8 5.5
-5 7 0 -1.2 0.8
5 -7 0 -0.3 0.8
5 -7 0 0.1 0.9
-5 -7 0 -0.3 0.5
-5 -7 0 -0.5 0.6
-5 7 0 -1 1
-5 7 0 1.6 1.1
-5 -7 0 0.2 0.5
-5 -7 0 0.7 0.5
5 -7 0 2.1 0.9
5 -7 0 -0.5 0.9
-6 7 0 3.2 1.1
-6 7 0 0.6 1.1
6 -7 0 1.4 1
6 -7 0 0 0.9
6 -7 0 1 0.9
-6 7 0 1.3 1.1
6 -7 0 0.5 1
7 -7 0 -0.2 1
7 -7 0 0.1 0.9
-7 7 0 0.3 1
7 -7 0 0.2 0.9
-7 7 0 -1.4 1
8 -7 0 1.6 1
8 -7 0 -0.5 1.1
-8 7 0 0.7 1.2
-8 7 0 -1.2 1.1
0 -8 0 193.68 31.3
0 8 0 213.88 31.4
0 -8 0 217.48 31.3
0 8 0 183.38 31.3
0 -8 0 181.88 31.3
0 8 0 213.68 31.3
0 8 0 234.48 31.4
0 -8 0 210.88 31.4
1 -8 0 -0.1 0.7
-1 -8 0 -0.1 0.7
-1 8 0 -1.6 0.4
-1 -8 0 0.8 0.7
1 -8 0 -0.6 0.8
1 -8 0 0.5 0.9
-1 8 0 1.7 0.9
1 8 0 -0.8 0.5
1 -8 0 -0.2 1.1
1 8 0 -0.3 0.8
-1 -8 0 -0.6 0.7
1 8 0 0.1 0.8
-1 8 0 0 0.6
-1 -8 0 0.2 0.8
1 8 0 -0.3 0.5
-1 8 0 1.6 0.9
2 -8 0 116.09 15.4
-2 -8 0 111.49 15.2
-2 -8 0 100.59 15.2
2 8 0 108.39 15.3
2 -8 0 88.79 15.3
2 8 0 102.99 15.2
-2 8 0 101.19 15.3
2 8 0 96.19 15.2
2 -8 0 88.29 15.3
-2 8 0 100.89 15.3
-2 8 0 100.39 15.3
2 -8 0 85.79 15.3
-2 8 0 89.39 15.3
-3 -8 0 -0.7 0.6
-3 8 0 -1.5 0.7
3 -8 0 -0.5 0.7
3 8 0 -0.7 0.8
-3 -8 0 0.9 0.8
-3 8 0 -0.2 0.9
3 8 0 0.3 0.4
3 8 0 -0.2 0.5
-3 -8 0 -0.3 0.9
3 8 0 0.1 0.5
-3 -8 0 -0.2 0.6
-4 8 0 91.79 15.6
-4 -8 0 99.49 15.4
-4 -8 0 93.99 15.4
-4 -8 0 100.79 15.4
4 8 0 99.79 15.4
4 -8 0 106.89 15.6
-4 -8 0 99.79 15.4
-4 8 0 95.79 15.6
4 -8 0 95.29 15.6
4 -8 0 99.59 15.6
-4 8 0 111.89 15.7
-4 8 0 96.89 15.6
4 8 0 122.09 15.5
4 -8 0 97.39 15.6
-5 -8 0 0.1 0.7
5 -8 0 -0.9 0.9
-5 8 0 -0.2 0.9
-5 8 0 -0.4 1
-5 -8 0 -0.1 0.5
5 -8 0 -0.7 0.8
-5 -8 0 -0.5 0.4
5 8 0 -0.4 0.7
-5 8 0 1.9 1
5 -8 0 0.5 0.8
-5 -8 0 -0.3 0.5
5 -8 0 0.5 1
-5 8 0 -0.4 0.9
-6 8 0 6.4 1.7
-6 8 0 5.6 1.6
-6 -8 0 5.6 1.1
6 -8 0 4.1 1.4
6 -8 0 5.4 1.5
7 -8 0 -1.3 0.9
-7 8 0 1.3 1.3
7 -8 0 0.2 1.1
8 -8 0 2 1.5
-8 8 0 0.7 1.3
8 -8 0 1.9 1
-8 8 0 0.8 1.4
0 9 0 -0.2 0.9
0 9 0 -0.3 0.6
0 -9 0 0.8 1
0 -9 0 0.6 0.7
0 9 0 0.2 0.9
0 -9 0 0.1 0.7
0 9 0 -0.5 0.6
0 -9 0 -0.6 0.9
1 9 0 -0.8 0.5
-1 -9 0 0 1
-1 -9 0 -0.4 0.6
1 -9 0 -0.1 0.9
-1 9 0 0.7 0.6
1 -9 0 -0.4 0.7
1 9 0 -0.5 0.5
-1 9 0 -1.7 0.6
-1 9 0 0.2 0.9
-1 -9 0 -0.3 0.8
-1 -9 0 0.2 0.7
1 -9 0 1.8 1.3
-1 9 0 1.9 1
1 -9 0 -0.1 0.9
-2 -9 0 150.38 28.4
-2 9 0 164.68 28.4
2 9 0 225.68 28.4
2 -9 0 197.28 28.5
-2 9 0 176.68 28.4
2 9 0 176.08 28.4
-2 -9 0 205.58 28.4
-2 -9 0 191.48 28.4
2 9 0 188.88 28.4
2 -9 0 183.18 28.5
-2 -9 0 184.38 28.4
3 9 0 -0.8 0.9
-3 9 0 -1.1 0.9
3 9 0 1.1 0.5
3 -9 0 -1.2 1
-3 -9 0 -0.2 0.7
-3 -9 0 -0.4 0.6
3 9 0 0.1 0.6
-3 -9 0 0.3 0.8
-3 9 0 1.3 1.1
3 -9 0 0.2 0.8
-3 9 0 1.1 1
-3 9 0 0.3 0.9
3 -9 0 -0.7 0.8
3 -9 0 1.9 0.9
4 9 0 21.2 3
-4 -9 0 19.5 2.8
-4 9 0 15 3
-4 9 0 10 3
4 -9 0 16.6 3.2
-4 -9 0 21 2.9
-4 9 0 12.1 3
-4 9 0 16 3.2
4 9 0 17 2.8
4 -9 0 15.5 3.1
-4 -9 0 16.3 2.9
-5 -9 0 0.6 0.7
-5 -9 0 -1 0.5
-5 9 0 1.5 1.1
-5 9 0 0 1.1
5 -9 0 0.5 1
5 -9 0 -0.2 0.9
5 9 0 0.5 0.6
5 9 0 -1.5 0.8
-5 -9 0 0.1 0.6
6 -9 0 81.19 12.5
-6 9 0 78.19 12.5
6 -9 0 78.99 12.4
7 -9 0 0.6 1.1
-7 9 0 -0.1 1.3
7 -9 0 2.2 1.2
-7 9 0 -0.7 1.1
-8 9 0 3.2 1.4
8 -9 0 1.1 1.3
-8 9 0 0.5 1.3
0 10 0 16.4 3
0 -10 0 23 3.2
0 10 0 16.3 2.9
0 -10 0 19 3
0 -10 0 16 3.1
0 10 0 23.2 3.3
0 -10 0 10.7 2.9
0 10 0 18.3 3
-1 -10 0 0 0.9
-1 -10 0 0.9 0.8
-1 10 0 -1.2 0.6
1 10 0 0 0.8
1 10 0 0.2 0.6
1 -10 0 -0.2 0.9
1 10 0 0.1 0.6
1 -10 0 0.5 1.2
-1 -10 0 2 0.9
-1 10 0 -0.3 1.2
1 10 0 -1.7 0.8
-1 -10 0 1.1 1
-2 -10 0 169.08 24.5
2 -10 0 163.18 24.5
2 -10 0 161.78 24.6
-2 -10 0 187.38 24.5
2 10 0 162.68 24.4
-2 10 0 162.98 24.6
-2 10 0 164.98 24.5
2 10 0 158.78 24.5
-2 10 0 149.09 24.5
-2 -10 0 161.18 24.5
2 -10 0 170.08 24.6
-2 -10 0 146.69 24.4
-2 10 0 125.29 24.5
2 10 0 164.88 24.4
2 -10 0 150.08 24.5
3 -10 0 -0.5 1
-3 10 0 -0.7 0.9
-3 10 0 -1.1 0.8
3 10 0 -0.4 0.8
-3 10 0 -0.3 1
-3 -10 0 0 0.7
3 -10 0 -0.1 1.3
-3 -10 0 -0.1 1
3 -10 0 -0.1 0.8
-3 -10 0 0 0.8
3 10 0 -0.4 0.5
-3 -10 0 1.2 0.8
3 10 0 0.2 0.7
3 -10 0 0.2 0.9
-3 10 0 -0.2 1
-4 -10 0 3 0.9
-4 -10 0 1.2 0.9
-4 -10 0 0.3 0.7
4 -10 0 1.8 1
-4 -10 0 2.4 1
-4 10 0 3.6 1.4
4 -10 0 0.7 1
4 10 0 2.6 0.7
4 10 0 0.1 0.9
-4 10 0 -0.1 1
-5 10 0 0.9 1.1
5 -10 0 0 1
-5 -10 0 -0.7 0.6
5 -10 0 0 0.9
5 10 0 0 0.6
-5 -10 0 -1.4 0.6
5 10 0 -0.3 0.8
-5 10 0 -1.7 1
-5 -10 0 -0.7 0.9
-6 10 0 4.3 1.9
6 10 0 12.2 1.6
6 10 0 7.4 1.6
6 -10 0 9 2
-6 10 0 7.6 2.1
6 -10 0 5.5 1.9
-7 10 0 -0.4 1.1
-7 10 0 1.2 1.5
7 -10 0 1.7 1.1
7 -10 0 0.6 1.2
0 11 0 -0.7 0.6
0 -11 0 0.6 0.9
0 -11 0 -0.1 0.8
0 11 0 0.8 1
0 11 0 -1 0.5
0 -11 0 1 1.1
0 -11 0 0.4 1
-1 11 0 -0.9 1
1 -11 0 0.7 0.8
-1 -11 0 1.1 0.7
1 11 0 -0.3 0.6
-1 -11 0 -0.2 1
1 -11 0 -1 0.8
1 11 0 -0.2 0.6
1 -11 0 -0.5 1.1
-1 -11 0 0.9 0.8
-1 11 0 0.6 0.8
1 11 0 0.1 0.8
1 -11 0 0.1 1.2
-1 -11 0 -0.4 0.9
-2 11 0 0.5 1.1
-2 -11 0 -0.2 0.7
2 11 0 0.3 0.9
2 11 0 0.3 0.6
2 -11 0 -0.2 0.9
-2 11 0 0 0.7
-2 -11 0 -1.1 0.9
2 -11 0 0.1 1.4
-2 11 0 -0.8 0.9
-2 -11 0 0.1 0.7
2 -11 0 -0.1 0.8
-2 11 0 -1.5 0.9
2 11 0 0.2 0.5
2 11 0 -0.9 0.7
-2 -11 0 1.1 1.1
2 -11 0 -0.8 1.1
3 11 0 0.8 0.6
-3 -11 0 -0.6 0.7
3 11 0 0.1 0.7
-3 11 0 -0.7 1
-3 -11 0 0.9 0.8
3 11 0 -0.7 0.6
3 -11 0 0 0.8
3 11 0 -0.1 0.9
-3 -11 0 -0.5 0.9
3 -11 0 -0.6 0.9
-3 11 0 -0.4 1.1
-3 -11 0 -0.8 0.9
-4 -11 0 5.6 1.4
4 11 0 3.4 1
4 -11 0 2.4 1.3
-4 -11 0 7.2 1.3
4 -11 0 3.4 1.2
-4 -11 0 3.4 1.1
-4 11 0 4.7 1.7
-4 11 0 7 1.7
4 11 0 5.7 1.4
4 11 0 5.1 1.1
4 11 0 4.1 1
-4 -11 0 5.7 1.4
-5 11 0 -2.1 1.1
5 -11 0 -1 0.9
-5 -11 0 -1.7 0.9
-5 -11 0 -1.2 0.7
-5 -11 0 -0.7 0.6
5 11 0 -1.3 0.8
-5 -11 0 0.8 0.8
-5 11 0 2.3 1.3
5 -11 0 -0.7 1
6 11 0 60.89 8.5
6 11 0 54.69 8.4
-6 11 0 51.99 8.9
6 -11 0 44.3 8.8
6 -11 0 48.9 8.8
7 -11 0 0.7 1.2
0 -12 0 60.99 11.3
0 12 0 73.19 11
0 -12 0 69.99 11.1
0 12 0 71.39 11.1
0 -12 0 65.49 11.1
0 -12 0 80.79 11.2
0 12 0 73.29 11.1
1 12 0 -0.3 1
-1 12 0 -0.2 0.7
1 12 0 0.8 0.7
1 -12 0 2.2 1
-1 -12 0 0.9 1.1
-1 -12 0 -0.3 1.1
-1 12 0 1.5 1.1
-1 12 0 1.1 0.9
1 -12 0 1 1.2
1 -12 0 -1.1 1.3
1 -12 0 -0.2 0.9
-1 12 0 -0.2 1.1
1 12 0 0.1 0.7
-2 -12 0 1.4 1
2 12 0 -0.2 0.5
-2 12 0 -0.9 1
2 12 0 0.1 0.8
-2 12 0 1.1 1.1
-2 -12 0 0 1.1
-2 -12 0 0.4 1.1
2 12 0 -0.1 0.7
3 12 0 1.1 0.8
-3 12 0 -0.2 0.9
-3 -12 0 -1 1
-3 -12 0 0.2 1
-3 -12 0 0.8 0.8
3 -12 0 0.2 1.1
-3 12 0 1.2 1.2
-3 -12 0 -0.8 0.7
3 12 0 -0.4 0.8
3 12 0 -0.7 1
3 12 0 1 0.6
3 -12 0 0.4 0.9
-4 12 0 7.5 2.1
-4 -12 0 7.9 1.9
4 12 0 8 1.8
4 -12 0 8.8 1.9
-4 -12 0 9.1 1.7
-4 -12 0 12.6 2
4 12 0 7.6 1.6
-4 -12 0 7.4 1.6
-4 12 0 5.6 2
4 -12 0 8.7 1.9
4 12 0 6.3 1.5
-5 -12 0 0.1 1.1
5 -12 0 0 0.9
5 12 0 0.4 1
5 12 0 0.5 0.7
5 -12 0 -0.2 1.1
-5 12 0 0.2 1.3
-5 12 0 0.4 1.3
6 12 0 17.8 3.1
6 -12 0 16.3 3.3
-7 12 0 -0.4 1.1
7 -12 0 -1.4 1
7 -12 0 1.6 1.4
-7 12 0 -1.3 1.4
0 -13 0 0.4 1
0 13 0 0.2 0.7
0 -13 0 0.9 0.9
0 -13 0 -0.1 1.4
0 13 0 0.1 1
0 13 0 1.5 0.8
0 13 0 -0.7 1
-1 -13 0 -1.6 1.1
-1 -13 0 0 0.8
-1 -13 0 1.5 1
-1 13 0 -0.4 1
-1 13 0 1.2 1.1
1 13 0 0.4 1
1 13 0 1.2 0.8
1 -13 0 -0.2 0.9
1 -13 0 1.2 1
1 13 0 0.3 1
1 13 0 1.5 0.7
-2 -13 0 -0.4 1.2
2 13 0 -1.1 0.6
2 13 0 -0.2 0.6
-2 -13 0 -0.8 1.1
2 -13 0 0.8 0.9
2 -13 0 0.3 1.1
-2 13 0 0.2 1
-2 -13 0 -1 0.7
-2 13 0 -0.5 1
2 13 0 0.3 1.1
-2 -13 0 0.3 0.8
3 13 0 -0.9 0.6
3 13 0 -0.2 0.9
3 -13 0 -0.9 0.8
3 -13 0 0.3 1
-3 13 0 0.2 1
-3 13 0 0.6 1.2
-3 -13 0 0.2 1.1
3 13 0 -0.3 0.7
-3 -13 0 -1.4 1.1
4 13 0 4.6 1
-4 13 0 2.6 1.5
-4 -13 0 3.5 1.4
4 -13 0 5.1 1.4
-4 13 0 6.3 1.8
-4 -13 0 5.7 1.3
-4 -13 0 5.2 1.5
4 -13 0 1.7 1.3
-4 -13 0 3.1 1.2
4 13 0 3.2 1.1
4 13 0 3.6 1.2
4 13 0 7.1 1.6
5 13 0 0.4 0.7
5 13 0 0.1 1.1
5 -13 0 -0.4 1.1
-6 13 0 35.8 7.4
6 -13 0 38.8 7.4
6 13 0 50.29 7
6 -13 0 31.1 7.2
6 13 0 56.09 7.1
-6 13 0 41.5 7.5
0 14 0 57.49 7.8
0 -14 0 49.8 7.6
0 14 0 36 7.6
0 -14 0 46.5 7.5
1 -14 0 0.7 1
-1 -14 0 -0.9 1
-1 -14 0 0.8 1
-1 14 0 -0.2 1
1 14 0 0.5 0.8
1 14 0 -0.1 0.7
-1 14 0 -1.2 1.1
1 -14 0 -1.7 0.9
-1 -14 0 -2.3 1.2
1 14 0 0.2 1.1
1 14 0 -0.2 0.8
-2 -14 0 1.9 1
2 14 0 1.5 0.8
2 -14 0 1.4 1.1
2 -14 0 2.4 1.3
-2 -14 0 3.9 1.4
-2 -14 0 1.8 1.3
2 14 0 1.5 1.2
-2 14 0 2.6 1.4
2 14 0 0.5 0.8
-2 -14 0 1.9 1
2 14 0 0.6 0.9
-3 -14 0 -0.3 0.8
-3 -14 0 -0.1 1.2
3 14 0 -0.3 0.7
3 -14 0 -1.4 0.9
-3 14 0 1.7 1.3
3 -14 0 -0.2 1
-3 -14 0 0.4 1.2
-3 -14 0 -0.6 0.8
-3 14 0 0.5 1.2
4 14 0 39.4 6.4
-4 -14 0 45 6.7
-4 -14 0 50.89 6.8
4 14 0 36.7 6.5
4 14 0 38.4 6.5
5 14 0 -0.7 0.6
5 -14 0 -1.1 1.1
-5 14 0 2.4 1.3
5 14 0 0 0.6
5 14 0 0.1 1.1
5 14 0 0 0.8
-5 14 0 4.1 1.7
-6 14 0 31.1 6.1
6 14 0 40.4 5.8
6 -14 0 25.2 5.8
6 14 0 41.3 5.6
-6 14 0 29.7 6
0 -15 0 -0.4 1
0 -15 0 -0.8 0.9
0 15 0 -1.2 0.9
0 15 0 -0.5 1.2
-1 15 0 1.8 1.2
1 -15 0 0.1 1
1 15 0 -0.7 0.7
-1 -15 0 -0.1 1
1 15 0 -2.2 1
-1 -15 0 1.2 1.1
-1 15 0 0.2 1.3
1 15 0 1.5 1
1 -15 0 -0.8 0.8
-2 -15 0 32.6 4.2
2 -15 0 17.2 3.9
2 -15 0 22.7 4.2
2 15 0 23.9 4
-2 -15 0 20.7 3.9
2 15 0 20.2 3.9
-2 15 0 23.6 4.2
3 15 0 0.4 0.7
3 15 0 -0.7 1
-3 -15 0 -0.5 1
3 15 0 -0.3 0.7
3 15 0 3.1 1.4
-3 -15 0 -0.6 0.8
-3 -15 0 0.1 1.2
-4 -15 0 23.8 3.2
4 15 0 18.3 3.1
4 -15 0 15.8 3.2
-4 -15 0 17 3.2
4 15 0 16.8 2.8
4 15 0 15.2 2.9
-4 15 0 15.3 3.3
4 -15 0 12.8 3
-4 15 0 17 3.3
4 15 0 14 2.9
-5 15 0 0.2 1.4
-5 15 0 0.4 1.2
5 -15 0 -0.5 1.1
5 -15 0 -0.8 1.2
5 15 0 0.2 0.8
5 15 0 0 0.8
0 16 0 6.9 2.1
0 -16 0 10.9 2.2
0 16 0 10 2.3
1 16 0 0.3 1.2
-1 -16 0 1.2 1.1
1 -16 0 -0.3 1.1
-1 -16 0 2.2 1.1
1 -16 0 0.5 1.1
-1 16 0 2.8 1.4
-1 16 0 -0.1 1.1
1 16 0 0.3 1
2 16 0 35.6 7.5
2 16 0 52.79 7.4
-2 -16 0 43.5 7.6
2 16 0 46.4 7.6
-2 -16 0 52.69 7.7
3 -16 0 -0.4 1.2
-3 16 0 -1.4 1.1
-3 16 0 -1.5 1.3
3 -16 0 1.5 1.2
-3 -16 0 0.2 0.9
3 16 0 -0.3 1.2
3 16 0 -0.1 0.8
3 16 0 0.4 1.1
-3 -16 0 0 1.1
4 16 0 29.1 4.5
4 16 0 23.2 4.6
-4 16 0 23.8 4.9
4 -16 0 27.2 4.8
-4 16 0 28.1 4.9
4 16 0 31.7 4.4
4 -16 0 19.8 4.6
0 -17 0 1 1
0 17 0 0.8 1.4
0 17 0 -2.1 1
0 -17 0 -0.1 1.1
1 17 0 -0.2 1.3
1 17 0 -0.6 1.1
-1 -17 0 -0.8 1
-1 17 0 -0.1 1.2
-1 -17 0 1.1 1.1
-2 -17 0 176.48 23.3
2 -17 0 172.88 23.4
2 -17 0 146.79 23.3
-2 -17 0 143.19 23.2
2 17 0 129.09 23.2
2 17 0 153.68 23.3
-2 17 0 142.39 23.4
3 17 0 0.1 0.9
3 17 0 -0.1 1.3
-3 -17 0 1.3 1.2
3 -17 0 -1.2 1.1
3 -17 0 -0.5 1.1
-3 17 0 -2.1 1.3
3 17 0 -0.1 1.1
-3 -17 0 -0.2 0.9
0 18 0 78.49 12.4
1 -18 0 0.4 1.2
1 -18 0 -0.4 1
-1 -18 0 -0.3 1.1
-1 -18 0 0.2 1.1
-1 18 0 0.1 1.4
1 18 0 -0.9 1.3
1 18 0 0.6 1.2
-1 18 0 -1.1 1.1
2 -18 0 4.4 1.6
-2 -18 0 4.2 1.5
2 -18 0 3.4 1.6
2 18 0 1.2 1.3
-2 -18 0 4.3 1.5
-2 18 0 2.7 1.5
-2 18 0 5 1.8
2 18 0 2.9 1.7
1 0 1 -0.3 0.2
-1 0 1 0.1 0.2
1 0 1 0.4 0.2
-1 0 1 0.4 0.4
-1 0 1 -0.6 0.3
1 0 -1 -0.2 0.3
-1 0 -1 0.1 0.3
-1 0 1 0.1 0.3
-1 0 -1 0.4 0.3
-1 0 -1 0.1 0.3
1 0 1 0.2 0.2
1 0 1 0.6 0.3
1 0 -1 -0.2 0.2
-1 0 -1 -0.2 0.3
2 0 -1 0.1 0.4
-2 0 1 -0.1 0.4
2 0 1 0.5 0.4
-2 0 -1 0.6 0.5
-2 0 -1 0.2 0.5
-2 0 1 0.1 0.4
2 0 -1 -0.1 0.3
2 0 -1 -0.2 0.5
-2 0 1 0.2 0.5
3 0 1 -0.8 0.4
-3 0 1 -0.2 0.6
-3 0 -1 0.1 0.6
-3 0 1 -0.6 0.4
-3 0 -1 0.2 0.5
-3 0 1 0.2 0.5
-3 0 -1 0.5 0.5
3 0 -1 0.3 0.5
3 0 1 -0.7 0.5
-3 0 -1 -0.2 0.5
3 0 1 0.3 0.5
3 0 -1 0 0.5
3 0 1 -0.5 0.4
3 0 -1 0.1 0.5
-3 0 1 0.3 0.5
4 0 -1 -0.3 0.5
-4 0 1 -0.6 0.4
-4 0 -1 -0.9 0.5
4 0 -1 0.2 0.6
-4 0 -1 0.8 0.6
4 0 -1 -0.2 0.4
4 0 1 0 0.4
-4 0 1 -0.2 0.6
4 0 1 -1.2 0.5
-4 0 1 -0.3 0.6
4 0 1 -0.2 0.4
-4 0 1 -0.7 0.6
4 0 -1 -0.1 0.5
-4 0 -1 -0.8 0.5
-4 0 -1 -0.4 0.5
-5 0 1 -0.9 0.6
-5 0 1 0.2 0.7
-5 0 -1 0.3 0.6
5 0 1 -0.1 0.5
5 0 -1 0.8 0.4
5 0 1 0.4 0.6
-5 0 -1 -0.7 0.6
-5 0 1 0 0.5
5 0 1 -0.2 0.6
5 0 1 0 0.5
5 0 -1 0.1 0.6
5 0 -1 -0.2 0.5
-5 0 -1 0.1 0.6
-5 0 1 -0.1 0.7
5 0 -1 -0.2 0.5
6 0 -1 -0.5 0.6
6 0 1 0.6 0.7
6 0 1 -0.4 0.5
6 0 1 0.3 0.6
-6 0 -1 -0.2 0.7
-6 0 -1 1.5 0.7
-6 0 -1 -1.4 0.7
6 0 -1 -0.1 0.5
-6 0 -1 0 0.6
6 0 -1 0.6 0.6
-6 0 1 0.1 0.6
-6 0 1 0.1 0.7
6 0 1 -0.1 0.7
-6 0 1 0.1 0.7
7 0 -1 0.7 0.7
7 0 1 0.4 0.7
-7 0 1 1.3 0.8
7 0 1 -0.5 0.7
-7 0 -1 0.1 0.7
-7 0 1 -1 0.7
-7 0 1 -0.1 0.7
-7 0 -1 -0.4 0.7
7 0 1 -0.6 0.7
7 0 1 0.4 0.6
7 0 -1 -0.5 0.7
7 0 -1 0.5 0.7
-7 0 -1 -0.2 0.8
-7 0 1 0.3 0.7
-7 0 -1 -0.2 0.7
7 0 -1 0.3 0.6
-8 0 1 -0.6 0.9
-8 0 -1 0.6 0.8
8 0 -1 0.1 1
8 0 1 1 0.8
8 0 1 1.6 0.9
8 0 1 0.2 0.8
8 0 -1 -0.9 0.8
8 0 1 0.2 0.6
9 0 -1 1.6 0.9
9 0 1 0.8 1.1
9 0 1 0.1 0.9
9 0 1 0.8 0.9
9 0 -1 0.5 1.1
0 -1 -1 -0.5 0.3
0 1 -1 0 0.1
0 -1 -1 0.1 0.2
0 1 1 0 0.2
0 -1 1 -0.3 0.2
0 1 -1 -0.1 0.2
0 -1 1 -0.2 0.2
0 1 -1 0 0.2
0 -1 1 0.1 0.2
0 1 1 0.1 0.2
0 1 -1 0 0.1
0 -1 -1 0.1 0.3
0 -1 -1 0 0.2
0 -1 1 0 0.2
0 1 1 -0.1 0.2
0 1 1 0.3 0.2
-1 1 1 2 0.5
-1 -1 -1 1.6 0.4
-1 -1 -1 2.9 0.4
1 -1 1 2.4 0.5
1 -1 1 1.6 0.5
-1 -1 -1 2.8 0.4
-1 1 1 1 0.4
-1 -1 -1 2.9 0.4
-1 1 -1 3.7 0.6
1 1 1 2.5 0.3
-1 1 -1 1.6 0.5
1 -1 -1 1.6 0.6
1 1 1 0 0.3
1 -1 -1 1.5 0.5
1 1 1 0 0.3
1 1 1 0.9 0.3
2 -1 1 181.38 25.9
-2 -1 -1 142.09 25.8
-2 1 1 183.08 25.9
2 -1 1 162.28 25.9
-2 1 1 178.48 25.9
-2 1 1 178.38 25.9
-2 -1 -1 179.18 25.8
-2 -1 -1 153.78 25.8
2 -1 1 166.38 25.9
-2 1 1 181.38 25.9
2 1 1 181.58 25.8
-2 1 -1 153.48 25.9
-2 1 -1 158.78 25.9
-2 1 -1 163.98 25.9
2 1 1 180.58 25.8
-2 1 -1 173.98 25.9
-3 1 1 58.49 8.9
-3 1 1 69.89 8.9
-3 -1 -1 62.59 8.9
-3 -1 -1 56.29 8.9
3 -1 1 59.89 8.9
-3 1 1 60.29 8.9
3 1 -1 57.49 8.9
-3 -1 -1 61.19 8.9
3 -1 1 64.69 8.9
3 -1 1 68.89 8.9
3 -1 1 54.49 8.9
-3 1 1 53.39 8.9
-3 -1 1 59.49 8.9
-3 1 -1 57.49 8.9
-3 -1 1 53.79 8.8
3 1 1 55.49 8.9
3 -1 -1 63.39 8.9
3 -1 -1 53.49 8.9
3 1 1 50.89 8.9
-3 1 -1 58.79 8.9
3 -1 -1 52.39 8.9
3 -1 -1 55.99 8.9
-3 1 -1 57.19 8.9
3 1 1 59.59 8.9
-3 1 -1 52.69 8.9
-3 -1 1 56.89 8.9
-4 -1 -1 103.89 16.6
4 -1 1 116.99 16.6
-4 -1 -1 106.59 16.6
4 -1 1 101.79 16.6
-4 1 1 117.49 16.6
-4 1 1 106.59 16.6
-4 -1 -1 110.49 16.6
-4 -1 -1 104.69 16.6
-4 1 1 107.29 16.6
4 1 -1 109.49 16.6
4 -1 1 110.29 16.6
-4 1 1 128.09 16.6
4 1 -1 111.79 16.6
4 -1 -1 99.69 16.6
4 1 1 104.39 16.6
4 -1 -1 105.49 16.6
-4 1 -1 109.79 16.6
-4 1 -1 111.49 16.6
4 -1 -1 104.89 16.6
4 1 1 110.49 16.5
4 -1 -1 110.09 16.6
-4 1 -1 97.29 16.6
-4 1 -1 106.79 16.6
-4 -1 1 104.59 16.6
4 1 1 109.19 16.6
-4 -1 1 113.69 16.6
4 1 1 106.69 16.6
-4 -1 1 114.39 16.6
-4 -1 1 108.49 16.6
-5 1 1 2 0.8
-5 1 1 1.9 0.9
5 1 -1 1.2 0.6
5 -1 1 1.8 0.6
-5 -1 -1 0.7 0.6
5 -1 1 0.3 0.7
-5 -1 -1 1.1 0.5
-5 -1 -1 1.8 0.7
5 -1 1 1.3 0.6
-5 -1 -1 1.5 0.7
5 1 -1 1.7 0.6
5 1 1 1.5 0.5
-5 1 -1 0.8 0.7
-5 -1 1 1.4 0.6
5 1 1 1.4 0.6
-5 -1 1 0.5 0.6
5 1 1 2.3 0.6
-5 -1 1 1.1 0.6
-5 -1 1 0.4 0.5
5 1 1 1 0.5
5 -1 -1 -0.2 0.6
5 -1 -1 1 0.7
-5 1 -1 -0.2 0.7
-5 1 -1 0.8 0.7
-5 1 -1 1.7 0.9
5 -1 -1 -0.1 0.6
-6 -1 -1 1.8 0.8
-6 1 1 1.3 0.8
6 -1 1 2.4 0.7
6 -1 1 2.3 0.8
6 -1 1 2.3 0.8
-6 1 1 1.1 0.8
-6 1 1 0.7 0.7
-6 1 1 0.7 0.8
-6 -1 -1 1.4 0.6
6 1 -1 1.3 0.7
6 1 -1 2 0.7
-6 -1 1 2.3 0.7
-6 1 -1 0.7 0.7
-6 -1 1 2.7 1.1
6 1 1 1 0.5
-6 1 -1 2.8 0.9
-6 -1 1 2.3 0.8
6 1 1 1.4 0.7
6 -1 -1 1.1 0.7
6 -1 -1 0 0.7
-6 1 -1 0.3 0.8
-6 -1 1 0.9 0.7
6 -1 -1 0.7 0.7
6 -1 -1 0.5 0.6
6 1 1 2 0.7
-6 1 -1 2.4 0.8
-7 -1 -1 4.1 1.2
-7 1 1 2.5 1.1
7 1 -1 4.5 1.1
-7 1 1 5.4 1.3
-7 1 1 3.8 1.2
-7 -1 -1 5.6 1.3
-7 -1 -1 3.9 1
-7 -1 -1 5.9 1.2
-7 1 1 4.6 1.2
7 -1 1 4.4 1.1
7 -1 -1 4.1 1
-7 -1 1 4.3 1.1
7 -1 -1 6.2 1.3
-7 1 -1 6.1 1.2
7 1 1 6.1 1.2
-7 -1 1 4.3 1.2
-7 1 -1 6.3 1.4
7 1 1 4.1 1.2
-7 -1 1 5.6 1.2
7 -1 -1 3 1.1
-7 1 -1 5.1 1.3
7 -1 -1 4.7 1.2
-7 1 -1 6.6 1.4
7 1 1 4.7 1
8 -1 1 12.7 2.3
-8 1 1 9.6 2.2
8 1 -1 17 2.4
8 -1 1 9.1 2.1
8 -1 1 10.5 2.3
8 -1 1 10.5 2.3
-8 1 1 12.5 2.3
8 1 -1 12.6 2.2
8 -1 -1 14 2.1
-8 1 -1 13.1 2.3
-8 1 -1 10.5 2.2
-8 1 -1 12.2 2.4
8 1 1 9.1 2.2
8 -1 -1 15.9 2.4
-8 1 -1 12.6 2.3
8 -1 -1 12.3 2.4
8 1 1 14.8 2.3
9 1 -1 3.5 1.4
9 1 -1 3.6 1.1
9 -1 1 3.1 1
9 -1 1 2.4 1.2
9 -1 1 2.7 1.2
9 -1 -1 2.4 1.4
9 -1 -1 2.1 0.9
9 1 1 4.1 1.3
9 1 1 5.4 1.3
9 -1 -1 3.8 1.4
0 2 -1 3.1 0.7
0 2 1 4.4 0.7
0 2 1 2.1 0.6
0 -2 1 2.4 0.7
0 -2 1 4.6 0.7
0 2 -1 3.2 0.6
0 -2 -1 2.6 0.7
0 -2 -1 4.2 0.8
1 -2 1 22.9 2.8
1 -2 1 20.5 2.9
1 2 -1 15.8 2.7
1 -2 1 23 2.9
-1 2 1 15.8 2.8
-1 -2 -1 19 2.7
-1 2 1 22.7 2.9
-1 -2 -1 18 2.8
-1 -2 -1 17.1 2.7
-1 2 1 15.9 2.8
-1 2 1 24.8 2.9
-1 -2 -1 21.9 2.8
1 2 -1 18.3 2.7
1 -2 1 13.2 2.8
1 2 1 17.9 2.7
1 2 1 18 2.7
-1 2 -1 16.9 2.8
-1 2 -1 21 2.8
1 -2 -1 14.1 2.8
1 -2 -1 14.8 2.8
1 -2 -1 19.7 2.8
-1 2 -1 20.1 2.8
-1 -2 1 16.6 2.7
1 -2 -1 14.4 2.8
1 2 1 15.6 2.7
-1 -2 1 17.3 2.7
-1 2 -1 16.5 2.8
1 2 1 15.2 2.7
-2 2 1 0.8 0.6
-2 -2 -1 1.8 0.5
-2 2 1 1.4 0.7
2 -2 1 0.3 0.6
2 -2 1 1.1 0.7
2 -2 1 0.4 0.7
2 -2 1 1.2 0.6
-2 2 1 1.1 0.7
-2 -2 -1 2.2 0.5
-2 2 1 2.3 0.8
-2 -2 -1 1.2 0.4
-2 -2 -1 1.1 0.4
-2 2 -1 1.3 0.7
2 -2 -1 0.5 0.7
-2 2 -1 2 0.7
2 -2 -1 2.3 0.7
2 -2 -1 0.4 0.7
2 -2 -1 1 0.5
2 2 1 1 0.3
-2 2 -1 0 0.7
2 2 1 0.8 0.4
2 2 1 1.9 0.4
-2 2 -1 0.6 0.7
-3 -2 -1 203.38 28.8
-3 -2 -1 194.08 28.8
3 -2 1 189.38 28.9
3 -2 1 208.98 28.8
-3 2 1 194.08 28.9
3 -2 1 193.18 28.9
-3 2 1 172.98 28.9
3 -2 1 181.98 28.8
-3 2 1 197.08 28.8
-3 2 1 192.38 28.8
-3 2 -1 197.98 28.9
3 -2 -1 197.78 28.9
-3 2 -1 167.88 28.8
-3 2 -1 173.88 28.8
3 2 1 190.98 28.8
3 -2 -1 207.58 28.9
-3 2 -1 176.88 28.9
3 -2 -1 174.38 28.8
3 -2 -1 173.28 28.8
4 -2 1 72.19 11.7
-4 2 1 81.19 11.8
-4 2 1 76.29 11.8
-4 -2 -1 78.99 11.7
-4 -2 -1 75.59 11.7
-4 -2 -1 77.59 11.7
4 -2 1 66.69 11.7
4 -2 1 77.69 11.8
-4 -2 -1 81.39 11.7
4 -2 -1 74.79 11.7
-4 2 -1 61.69 11.7
4 2 1 72.29 11.7
4 -2 -1 84.39 11.8
4 2 1 78.09 11.7
-4 2 -1 84.39 11.8
4 -2 -1 78.39 11.7
-5 -2 -1 60.79 9.1
5 -2 1 65.19 9.2
-5 2 1 54.89 9.2
5 -2 1 59.89 9.2
5 -2 1 52.69 9.2
5 2 -1 64.29 9.1
-5 -2 -1 52.69 9.1
-5 -2 -1 62.59 9.1
-5 2 1 59.69 9.2
-5 2 1 57.29 9.2
5 2 -1 57.79 9.1
-5 2 1 51.39 9.2
-5 2 -1 57.89 9.2
5 -2 -1 63.09 9.2
-5 -2 1 62.49 9.1
-5 -2 1 55.59 9.1
-5 2 -1 64.39 9.2
5 2 1 63.09 9.1
-5 2 -1 50.59 9.2
-5 -2 1 57.59 9.1
5 -2 -1 68.79 9.2
-5 -2 1 63.29 9.1
5 2 1 60.29 9.1
-5 2 -1 55.19 9.2
5 -2 -1 58.89 9.2
-6 -2 -1 3 0.8
-6 2 1 4.2 1.1
-6 2 1 2.4 0.9
-6 -2 -1 4.2 0.9
-6 2 1 2.6 1.1
6 2 -1 2.8 0.8
-6 -2 -1 3.8 0.9
6 -2 1 2.7 1
6 2 -1 4 0.9
6 -2 1 3.7 1
6 -2 1 4.3 1
-6 2 1 4.4 1.1
6 -2 1 2 0.9
-6 2 -1 4 1.1
6 -2 -1 3.8 1.5
-6 2 -1 2.5 1.1
-6 -2 1 3.4 0.9
6 -2 -1 3.9 1
6 2 1 2.9 0.9
-6 -2 1 3.9 0.8
-6 2 -1 5.8 1.2
6 -2 -1 2.4 1.1
-6 -2 1 2.8 0.8
-6 -2 1 2.8 0.9
6 2 1 4.5 0.9
-6 2 -1 1.9 1
6 -2 -1 2.8 1
7 2 -1 4 1.1
-7 2 1 5.4 1.3
7 -2 1 4.4 1.2
-7 -2 -1 4.9 1.1
-7 -2 -1 4 1.1
-7 2 1 5.7 1.4
7 -2 1 3.5 1.2
-7 2 1 5 1.3
7 -2 1 3.5 1.2
-7 2 1 5.6 1.2
-7 -2 -1 4.8 1
7 2 -1 5.2 1.1
7 -2 1 3.5 1.2
7 -2 -1 5.5 1.2
-7 -2 1 4.9 1.1
7 2 1 4.1 1.1
-7 2 -1 4.7 1.3
-7 2 -1 2.9 1.2
-7 2 -1 3.8 1.3
7 -2 -1 4.1 1.2
-7 2 -1 5.9 1.4
-7 -2 1 5.5 1
7 -2 -1 4.3 1.4
-7 -2 1 5.1 1.1
7 -2 -1 5 1.2
-8 2 1 -0.3 1.1
8 -2 1 0.4 0.8
-8 2 1 -1.8 0.7
-8 2 1 -0.6 0.9
8 2 -1 0.6 0.8
8 -2 1 -0.2 0.8
8 -2 1 0.2 1
8 -2 -1 0.5 0.8
-8 2 -1 -1.2 0.8
8 2 1 -0.1 0.8
8 2 1 0.5 0.7
8 -2 -1 0.2 1
-8 2 -1 -0.1 1.1
-8 2 -1 -0.3 1
8 -2 -1 -1.6 1
8 -2 -1 1.2 1.2
9 -2 1 14.8 3.1
9 2 -1 18.4 3
9 -2 1 15.7 2.9
9 -2 1 18.9 3.1
9 2 -1 21.6 3.2
9 -2 1 18.1 3.1
9 -2 -1 20.2 3.2
9 -2 -1 19.5 3.1
9 -2 -1 17.3 3.2
9 2 1 14.6 3
9 -2 -1 13.4 2.9
9 2 1 16.9 3
0 3 -1 -0.3 0.5
0 -3 1 -0.8 0.6
0 3 -1 0.9 0.5
0 -3 -1 -1.1 0.5
0 -3 1 0 0.5
0 -3 1 -0.6 0.5
0 3 1 1 0.5
0 -3 -1 0.4 0.5
0 -3 -1 0.2 0.6
0 -3 1 -0.8 0.5
0 3 1 -0.5 0.6
0 3 -1 0.7 0.6
0 -3 -1 -0.9 0.7
0 3 -1 -0.4 0.5
0 3 1 1 0.5
0 3 1 -0.1 0.5
1 -3 1 228.28 39.5
1 -3 1 220.78 39.4
1 -3 1 268.47 39.5
1 -3 1 267.37 39.5
-1 -3 -1 222.98 39.4
-1 -3 -1 262.57 39.4
-1 3 1 278.17 39.5
-1 3 1 270.57 39.5
-1 3 1 256.17 39.5
-1 3 1 288.27 39.5
-1 3 -1 280.57 39.5
1 -3 -1 264.07 39.5
-1 3 -1 250.57 39.5
1 -3 -1 251.07 39.5
-1 3 -1 286.67 39.5
1 3 1 294.37 39.4
-1 -3 1 250.27 39.4
-1 -3 1 258.67 39.4
1 -3 -1 231.58 39.5
1 3 1 259.77 39.4
-1 -3 1 288.37 39.4
-1 3 -1 227.08 39.5
2 -3 1 902.91 130.99
-2 -3 -1 918.81 130.89
2 -3 1 983 130.99
-2 -3 -1 919.91 130.89
-2 3 1 891.11 130.99
2 -3 1 879.31 130.99
-2 3 1 832.52 130.99
-2 3 1 711.63 130.99
-2 3 1 894.91 130.99
2 -3 1 915.31 130.99
-2 3 -1 801.02 130.99
2 3 1 828.92 130.89
2 3 1 750.82 130.89
-2 3 -1 798.32 130.99
2 3 1 868.81 130.89
2 -3 -1 858.51 130.99
-2 3 -1 827.82 130.99
2 -3 -1 860.11 130.99
2 -3 -1 878.01 130.99
2 -3 -1 903.91 130.99
-3 3 1 362.56 53.39
3 -3 1 387.76 53.39
-3 3 1 302.57 53.39
-3 -3 -1 366.86 53.29
-3 -3 -1 354.06 53.29
3 -3 1 317.07 53.39
3 -3 -1 342.87 53.39
-3 3 -1 373.86 53.39
3 -3 -1 315.47 53.39
-3 3 -1 312.47 53.39
3 3 1 354.46 53.29
3 -3 -1 416.76 53.39
-4 3 1 42.6 6.9
-4 -3 -1 45.7 6.8
4 -3 1 45 6.9
4 -3 1 38.5 6.9
4 -3 1 42.4 6.9
-4 -3 -1 49.4 6.8
4 -3 1 46.9 7
-4 3 1 45.4 6.9
-4 -3 -1 47.9 6.8
-4 -3 -1 46.9 6.8
-4 3 1 45.9 6.9
-4 3 1 42.8 7
4 3 1 40.2 6.8
-4 3 -1 42.7 6.9
-4 3 -1 47.4 7
4 3 1 38.5 6.8
4 -3 -1 40.7 6.9
-4 3 -1 45.4 7
4 -3 -1 44.8 6.9
4 -3 -1 47.3 6.9
-4 3 -1 47.7 7
5 -3 1 117.49 19.3
5 -3 1 137.19 19.4
-5 -3 -1 131.79 19.2
5 -3 1 112.29 19.3
-5 3 1 130.49 19.3
-5 3 1 139.39 19.3
-5 -3 -1 133.09 19.2
-5 3 1 133.29 19.4
-5 -3 -1 127.09 19.2
-5 3 1 127.39 19.3
5 -3 1 134.49 19.3
-5 3 -1 108.79 19.3
5 3 1 121.99 19.2
5 -3 -1 115.19 19.3
5 -3 -1 138.29 19.3
-5 3 -1 126.09 19.3
-5 3 -1 130.19 19.3
5 -3 -1 123.39 19.3
5 -3 -1 99.99 19.3
5 3 1 125.69 19.2
-5 3 -1 137.29 19.4
-6 3 1 4.5 1.2
6 -3 1 4.9 1.3
-6 -3 -1 5.7 1
-6 3 1 6.5 1.3
6 -3 1 3.7 1.2
-6 -3 -1 4.9 1
6 -3 1 3.4 1.2
6 -3 1 4.3 1.2
-6 3 1 4.2 1.3
-6 3 1 3.4 1.2
-6 -3 -1 4.6 1
-6 -3 1 4.2 0.9
6 3 1 3.3 1
6 -3 -1 5.4 1.3
6 -3 -1 7.2 1.2
6 -3 -1 7.1 1.3
-6 3 -1 4.9 1.3
-6 3 -1 4.8 1.3
6 3 1 4.4 1
6 -3 -1 5.1 1.2
-6 -3 1 4.9 1
-6 3 -1 4.1 1.3
-6 -3 1 5.2 1
-6 3 -1 5.5 1.4
-6 -3 1 3.9 0.9
-7 3 1 -0.7 0.8
7 -3 1 -0.6 0.7
7 3 -1 -0.5 0.6
7 -3 1 0.1 0.7
-7 3 1 -0.4 1
-7 -3 -1 0.2 0.6
7 -3 1 -0.5 0.9
-7 3 1 -1.3 0.8
-7 -3 -1 -0.6 0.7
-7 -3 1 -0.1 0.6
7 -3 -1 0.3 0.9
-7 3 -1 -0.6 1
-7 -3 1 0 0.6
-7 3 -1 -0.7 0.8
7 3 1 -0.2 0.7
-7 -3 1 0.2 0.6
7 -3 -1 1.4 0.9
7 -3 -1 -0.7 0.9
7 -3 -1 -0.5 0.8
7 3 1 0.4 0.6
8 -3 1 0.9 1
8 -3 1 -0.7 0.8
8 3 -1 -0.3 0.6
-8 3 1 -0.1 1.1
-8 3 1 -1 0.9
-8 3 1 -1.1 1
8 3 -1 0.1 0.9
-8 3 1 -0.1 0.9
8 -3 1 -1 1
-8 3 -1 0.8 1
8 -3 -1 -0.3 0.9
8 -3 -1 0.2 0.8
8 -3 -1 -1.7 0.8
-8 3 -1 0.3 1
8 -3 -1 -1.8 1
-8 3 -1 1.7 1.1
-8 3 -1 -0.2 0.9
8 3 1 -0.1 0.7
9 -3 1 13.2 2.4
9 3 -1 12.2 2.1
9 3 -1 13.3 2.3
9 -3 1 9.4 2.3
9 -3 1 10.8 2.5
9 -3 -1 15 2.5
9 -3 -1 15 2.6
9 -3 -1 8.3 2.2
9 3 1 10.5 2.1
9 3 1 13.8 2.3
9 -3 -1 14.3 2.4
0 -4 1 42.6 7.2
0 4 -1 41.5 7.2
0 -4 -1 45.3 7.3
0 4 1 35.7 7.2
0 -4 1 49.8 7.3
0 4 -1 46.3 7.2
0 4 -1 42.3 7.2
0 -4 -1 47 7.2
0 -4 1 53.39 7.2
0 -4 -1 40.1 7.2
0 -4 1 49.9 7.2
0 4 -1 49.5 7.2
0 4 1 48.8 7.2
0 4 1 59.19 7.2
0 4 1 42 7.3
0 -4 -1 55.89 7.2
-1 -4 -1 26.4 2.9
1 4 -1 16.9 2.8
-1 -4 -1 18.8 2.8
-1 4 1 15.2 2.9
1 -4 1 26.6 3
1 4 -1 24.9 2.9
-1 4 1 13.2 2.8
-1 4 1 19.4 2.9
1 4 -1 11.2 2.7
-1 4 1 11.3 2.9
1 -4 1 17.2 2.9
-1 -4 -1 22.7 2.8
1 -4 1 16.7 2.9
1 4 -1 20.5 2.8
-1 -4 -1 16 2.8
1 -4 1 14.7 2.9
1 -4 -1 12.6 2.8
-1 4 -1 14.5 2.9
-1 4 -1 17.6 2.9
-1 -4 1 19.1 2.8
-1 -4 1 21.1 2.8
-1 -4 1 15.7 2.8
-1 4 -1 17.1 2.9
1 -4 -1 14.9 2.9
-1 4 -1 14.1 2.9
1 -4 -1 13.2 2.9
1 4 1 21.4 2.8
-1 -4 1 29 3
1 -4 -1 13.4 2.8
-2 -4 -1 215.48 35
-2 4 1 211.78 35.1
2 -4 1 199.98 35
-2 4 1 235.88 35.1
-2 -4 -1 235.68 35
2 -4 1 218.48 35
2 4 -1 217.48 35
-2 -4 -1 231.18 35
2 -4 -1 232.18 35
-2 -4 1 237.78 35
2 4 1 222.28 35
-2 4 -1 246.78 35.1
-2 -4 1 234.08 35
2 4 1 239.68 35
2 4 1 250.87 35
2 -4 -1 265.37 35.1
-2 -4 1 241.18 35
2 -4 -1 194.28 35.1
-2 4 -1 232.28 35.1
-3 4 1 25.8 4.9
-3 -4 -1 27.1 4.7
-3 -4 -1 30.7 4.7
-3 4 1 26.7 4.9
3 -4 1 28.7 4.9
-3 4 1 46.1 5.2
-3 -4 -1 29.5 4.7
-3 4 1 32.3 4.9
3 -4 -1 31.3 5
3 -4 -1 25.7 4.9
-3 4 -1 41.2 5.1
-3 4 -1 40.5 5.1
3 4 1 30.6 4.7
3 -4 -1 24.3 4.8
-3 4 -1 31.8 4.9
3 -4 -1 27.4 5
-3 4 -1 35.4 5
3 4 1 32.7 4.7
-4 4 1 9.2 1.5
-4 4 1 6 1.6
-4 -4 -1 8.1 1.2
-4 -4 -1 8.2 1.2
-4 4 1 7.6 1.5
4 -4 1 5.7 1.5
4 -4 1 5.6 1.4
-4 4 1 9.3 1.7
-4 -4 -1 7.3 1.2
4 -4 1 5.8 1.4
4 -4 1 4.9 1.4
4 4 1 6.9 1.2
4 -4 -1 6 1.4
4 4 1 7.2 1.2
4 -4 -1 4 1.4
-4 4 -1 5.6 1.5
-4 4 -1 6 1.4
4 -4 -1 5.1 1.4
4 -4 -1 5.5 1.4
-4 4 -1 9.5 1.6
-4 4 -1 6.8 1.6
-5 4 1 3.3 1.3
5 -4 1 3.8 1.1
5 -4 1 4.6 1.1
-5 4 1 4.2 1.2
-5 -4 -1 5.2 0.9
-5 4 1 3.7 1.3
-5 -4 -1 3.8 0.8
-5 -4 -1 4.4 0.9
-5 -4 -1 4.9 0.9
5 -4 1 4.6 1.2
5 -4 1 4.8 1.3
-5 4 1 3.2 1.1
-5 4 -1 4.4 1.3
5 4 1 5.4 0.9
5 4 1 4.7 0.9
5 -4 -1 4.7 1.2
5 -4 -1 3.8 1.2
-5 4 -1 3.7 1.2
-5 4 -1 3 1.2
5 -4 -1 3.4 1.1
5 -4 -1 3.7 1.1
-5 4 -1 4.4 1.2
-6 4 1 8.5 1.8
-6 -4 -1 7.5 1.6
-6 4 1 11.3 2
-6 -4 -1 8.3 1.6
6 -4 1 8.7 1.8
-6 -4 -1 10.5 1.6
-6 4 1 8.1 1.9
6 -4 1 6.2 1.8
6 -4 1 7.8 1.9
-6 4 1 9 1.9
-6 -4 -1 9.5 1.6
6 -4 -1 7.4 1.8
6 -4 -1 8.4 1.8
-6 4 -1 10.5 1.9
6 -4 -1 6.2 1.7
-6 4 -1 9.4 1.9
6 4 1 13 1.6
6 4 1 11.6 1.7
6 -4 -1 8.2 1.9
-7 4 1 0.8 1.1
-7 4 1 0.3 1.1
7 -4 1 1.9 1.1
-7 -4 -1 0.5 0.6
7 -4 1 -0.3 0.9
-7 4 1 0.8 1
7 -4 1 1.3 0.9
-7 4 1 0.3 0.9
-7 4 -1 0.7 0.9
7 -4 -1 1.6 0.9
7 -4 -1 1 0.9
7 -4 -1 0.9 1
7 4 1 1.9 0.7
-7 4 -1 0.9 1
-7 4 -1 0.9 1
7 4 1 1.8 0.7
-7 4 -1 -0.6 1
7 -4 -1 2.3 1
-8 4 1 0.2 1
-8 4 1 0.7 1
8 -4 1 0.3 0.9
8 -4 1 -0.1 0.9
-8 4 1 1.6 1.1
8 -4 1 1.2 1
8 -4 1 -0.3 0.9
-8 4 1 -1.6 0.9
-8 4 -1 -0.4 1.1
8 4 1 1 0.7
-8 4 -1 -0.9 0.9
8 -4 -1 -0.8 0.9
8 4 1 0.2 0.7
8 -4 -1 -0.9 0.9
8 -4 -1 0 1.1
-8 4 -1 0.4 1
9 -4 1 -0.2 0.9
9 -4 1 -0.1 1.1
9 -4 -1 1.9 1.3
9 4 1 1.2 0.9
9 -4 -1 0 1.1
9 4 1 0.4 0.8
9 -4 -1 -0.3 1
0 5 -1 0.3 0.5
0 5 1 -0.3 0.6
0 5 -1 -0.7 0.7
0 -5 1 -0.7 0.7
0 -5 -1 -0.3 0.6
0 -5 1 -0.1 0.6
0 -5 -1 -2 0.7
0 -5 -1 0.4 0.8
0 -5 1 -1 0.7
0 5 1 0.7 0.9
0 5 -1 -0.1 0.6
0 5 -1 0.2 0.7
0 5 1 -1.3 0.7
0 -5 -1 -0.8 0.9
0 5 1 -0.2 0.6
0 -5 1 -1.6 0.7
-1 5 1 2.3 1.1
-1 -5 -1 5.3 1.2
-1 -5 -1 5.5 1.1
1 5 -1 4.8 1
1 5 -1 5.1 1
-1 5 1 4 1.2
-1 -5 -1 7.6 1.2
1 5 -1 5.1 1
-1 -5 -1 6.6 1.3
1 -5 1 2.8 1.1
1 -5 1 3.7 1.1
1 5 -1 3.7 1.1
1 -5 -1 4.8 1.2
-1 -5 1 5.1 1
1 5 1 5.8 1
1 5 1 5.5 1.3
1 5 1 6.7 1.1
1 -5 -1 7.5 1.3
1 5 1 5.2 1.1
-1 -5 1 5.5 1.3
-1 5 -1 4.6 1.2
-1 -5 1 3.6 1.1
-1 -5 1 4.6 1
-1 5 -1 2.9 1.1
-2 -5 -1 53.79 8.2
2 -5 1 45.3 8.2
2 5 -1 57.19 8.1
-2 -5 -1 57.09 8.1
-2 5 1 58.99 8.2
2 5 -1 42.3 8.1
2 -5 1 54.89 8.2
-2 5 1 52.59 8.3
-2 -5 -1 59.49 8.2
2 -5 1 49.7 8.2
-2 5 1 54.99 8.3
2 5 -1 50.49 8.1
-2 -5 -1 51.69 8.2
-2 5 1 50.99 8.2
2 -5 1 52.09 8.2
2 5 1 51.09 8.1
-2 -5 1 56.09 8.1
-2 5 -1 56.09 8.3
2 5 1 56.49 8.1
2 5 1 53.99 8.2
2 -5 -1 53.49 8.2
-2 -5 1 50.19 8.1
2 -5 -1 48.6 8.3
-2 -5 1 57.89 8.1
-2 -5 1 62.59 8.2
-2 5 -1 40.9 8.2
-2 5 -1 57.89 8.2
2 5 1 57.19 8.1
2 -5 -1 46.2 8.2
-2 5 -1 51.89 8.3
2 -5 -1 43.2 8.2
-3 -5 -1 22.8 3.6
-3 -5 -1 24 3.6
-3 -5 -1 25.9 3.7
3 -5 1 23.5 3.8
-3 5 1 26 3.9
-3 5 1 21.1 3.9
3 5 -1 21.1 3.6
-3 5 1 25.1 3.9
-3 5 1 21.5 3.8
-3 -5 -1 22.9 3.6
3 -5 1 17.3 3.8
-3 5 -1 37.2 4.1
-3 5 -1 14.8 3.7
-3 -5 1 24.7 3.6
-3 -5 1 20.4 3.6
3 -5 -1 26.2 3.9
-3 5 -1 22.4 3.9
3 5 1 22.9 3.6
-3 5 -1 25.1 3.9
3 5 1 32.8 3.8
-4 -5 -1 33.2 5.2
4 -5 1 26.3 5.5
-4 5 1 39.9 5.6
-4 5 1 48.2 5.7
-4 -5 -1 33.8 5.2
-4 5 1 37.3 5.5
4 -5 1 36.9 5.4
-4 -5 -1 38.1 5.3
4 -5 1 34 5.5
4 -5 1 28.3 5.5
-4 5 1 33.1 5.5
-4 5 -1 30.1 5.5
-4 5 -1 47.2 5.7
4 -5 -1 29 5.5
4 5 1 34.4 5.2
-4 5 -1 35.3 5.5
4 -5 -1 27 5.4
4 -5 -1 30.2 5.5
4 5 1 33.7 5.3
-4 5 -1 29.6 5.5
5 -5 1 1 0.9
-5 -5 -1 1.1 0.5
-5 -5 -1 1 0.5
-5 5 1 1.4 0.8
-5 -5 -1 1 0.5
-5 5 1 -0.6 0.7
-5 -5 -1 0.6 0.5
-5 5 1 0.3 1
5 -5 1 1 0.8
-5 5 1 0.8 1
5 -5 1 0.9 0.8
5 -5 -1 0.5 0.8
5 5 1 1 0.4
-5 5 -1 1.7 1
-5 5 -1 0.4 0.9
5 5 1 0.3 0.6
5 -5 -1 0.2 0.7
5 -5 -1 1 0.8
-5 5 -1 -0.5 0.8
-6 -5 -1 0 0.5
-6 -5 -1 0.2 0.5
-6 5 1 0.2 1
6 -5 1 0 0.8
-6 5 1 -1.3 1
-6 5 1 -0.2 0.8
6 -5 1 -0.5 0.7
6 -5 1 1.3 0.9
-6 -5 -1 -0.2 0.5
-6 -5 -1 -0.3 0.5
-6 5 1 0 0.8
6 5 1 0.3 0.5
6 -5 -1 -0.1 0.8
-6 5 -1 -0.1 0.9
-6 5 -1 0.4 1
6 -5 -1 -0.4 0.8
6 -5 -1 0.7 0.9
-6 5 -1 -0.4 0.9
-6 5 -1 -0.3 1
7 -5 1 20.4 3.2
-7 5 1 14.6 3.1
-7 5 1 18.8 3.1
7 -5 1 21 3.2
-7 5 1 18.3 3.2
7 -5 1 16.3 3
-7 5 1 12.1 3
-7 5 -1 15.6 3
7 -5 -1 15.9 3
-7 5 -1 19.7 3.2
-7 5 -1 17.6 3.2
-7 5 -1 16.9 3.1
7 -5 -1 15.8 3.2
7 -5 -1 15.5 3
7 -5 -1 19.2 3.1
-8 5 1 8 2.1
-8 5 1 11.2 2.1
8 -5 1 7.1 2
8 -5 1 9.9 2.1
8 -5 1 12 2.1
-8 5 -1 9.4 2.1
-8 5 -1 8 2.1
8 -5 -1 9.6 2.1
8 -5 -1 11.2 2.3
8 -5 -1 10.3 2
9 -5 1 0.8 1.1
9 -5 1 1.3 1.1
9 -5 1 2.9 1.2
9 -5 -1 3.4 1.2
9 -5 -1 -0.5 1.1
-9 5 -1 1.1 1.2
9 -5 -1 2.1 1.1
0 -6 1 22.9 2.9
0 6 -1 13.7 2.8
0 -6 -1 13.7 2.7
0 6 -1 16.2 2.8
0 6 1 14.7 2.8
0 6 1 10.3 2.7
0 -6 -1 18.8 2.8
0 -6 1 26.5 2.9
-1 -6 -1 3.7 1.3
1 -6 1 5.4 1.3
1 -6 1 6.9 1.5
1 6 -1 9.4 1.3
1 -6 1 5.7 1.4
-1 -6 -1 6.6 1.3
-1 6 1 4.3 1.2
-1 -6 -1 5.2 1.4
1 -6 1 5 1.4
-1 6 1 5.2 1.4
-1 -6 -1 5.6 1.3
-1 6 1 4.1 1.4
1 6 -1 11 1.3
-1 6 1 4.2 1.2
1 6 -1 7.7 1.2
1 6 -1 10.5 1.5
-1 -6 1 7.4 1.4
1 -6 -1 6.4 1.4
-1 6 -1 6.4 1.3
1 6 1 7.3 1.4
-1 -6 1 6.3 1.3
1 6 1 4.6 1.4
1 6 1 5 1.2
-1 -6 1 5.2 1.2
1 -6 -1 6 1.4
-1 6 -1 5.5 1.4
1 -6 -1 4.9 1.5
-1 6 -1 8.1 1.4
-1 6 -1 3.3 1.3
1 -6 -1 6.6 1.4
1 6 1 7.7 1.2
-1 -6 1 5 1.2
-2 6 1 214.18 31.5
-2 6 1 221.38 31.5
2 -6 1 188.78 31.5
-2 -6 -1 209.38 31.4
2 -6 1 185.78 31.5
2 -6 1 190.18 31.5
-2 -6 -1 237.18 31.4
2 6 -1 188.38 31.4
2 6 -1 192.78 31.4
2 6 -1 224.48 31.4
-2 -6 -1 218.08 31.4
-2 6 1 185.78 31.5
-2 6 1 239.48 31.5
-2 -6 -1 224.38 31.4
2 -6 1 189.98 31.5
2 6 1 246.18 31.4
-2 6 -1 213.58 31.5
2 -6 -1 195.18 31.5
-2 6 -1 205.48 31.5
-2 -6 1 210.98 31.4
2 -6 -1 177.48 31.4
-2 -6 1 201.08 31.4
-2 6 -1 177.58 31.4
2 -6 -1 205.88 31.5
-2 -6 1 196.38 31.4
2 6 1 207.18 31.4
-2 6 -1 206.88 31.5
-2 -6 1 218.88 31.4
2 6 1 200.48 31.4
3 6 -1 176.18 24.7
-3 -6 -1 175.98 24.8
3 -6 1 155.48 24.9
-3 -6 -1 151.28 24.8
3 6 -1 164.48 24.8
3 -6 1 147.69 24.8
-3 6 1 153.98 24.9
3 -6 1 138.29 24.8
-3 6 1 158.58 24.9
-3 6 1 191.68 24.9
-3 6 1 135.09 24.8
-3 -6 -1 191.28 24.8
3 -6 1 138.49 24.8
-3 -6 -1 144.19 24.7
3 6 1 179.88 24.8
-3 6 -1 163.98 24.9
-3 6 -1 143.29 24.9
3 -6 -1 145.29 24.9
-3 6 -1 146.89 24.8
3 -6 -1 160.28 24.9
-3 -6 1 186.48 24.8
-3 -6 1 157.98 24.8
3 -6 -1 173.28 24.9
3 6 1 158.68 24.7
-3 -6 1 181.38 24.8
3 6 1 165.88 24.8
-3 6 -1 163.68 24.9
-3 -6 1 165.78 24.8
-4 6 1 3 1
4 -6 1 1.7 0.9
-4 6 1 3.3 1.1
4 -6 1 1.5 0.9
-4 6 1 3.4 1.2
-4 -6 -1 3.5 0.7
-4 6 1 4.1 1.3
4 -6 1 1.9 1
-4 -6 -1 2.9 0.8
4 -6 1 1.1 1
-4 -6 -1 2.8 0.7
-4 -6 -1 3.6 0.7
4 -6 -1 3.8 1.2
4 -6 -1 3.4 1.1
4 6 1 1.8 0.6
-4 6 -1 2.5 1.1
4 -6 -1 3.6 1
-4 6 -1 2.7 1
-4 6 -1 3.4 1.1
4 -6 -1 2.9 1
4 6 1 4.5 0.9
-4 6 -1 1.7 1
-4 -6 1 2.2 0.7
-5 -6 -1 14.4 2
-5 6 1 14.2 2.9
5 -6 1 12.7 2.5
5 -6 1 11.7 2.3
-5 -6 -1 11.9 2
-5 6 1 10.9 2.3
-5 -6 -1 10.2 2
-5 6 1 10.5 2.3
-5 -6 -1 12 2
5 -6 1 8.4 2.2
-5 6 -1 13.2 2.5
-5 6 -1 12.8 2.3
5 -6 -1 10.9 2.4
5 -6 -1 11.8 2.4
5 -6 -1 12.6 2.4
5 6 1 13 2
-5 6 -1 12.9 2.4
-5 6 -1 10.2 2.3
5 6 1 16.5 2.2
-6 -6 -1 6.4 1.2
6 -6 1 6.5 1.7
-6 6 1 6.5 1.6
-6 -6 -1 6.4 1.2
6 -6 1 6.4 1.6
6 -6 1 5.6 1.5
-6 6 1 6.2 1.7
-6 -6 -1 6.5 1.2
-6 6 1 7.7 1.8
-6 6 1 8.8 1.7
6 -6 1 5.8 1.6
6 -6 -1 5.3 1.5
-6 6 -1 6.9 1.7
-6 6 -1 6.1 1.7
6 -6 -1 8.5 1.8
6 -6 -1 7.5 1.6
6 -6 -1 8.3 1.7
-6 6 -1 5 1.6
7 -6 1 10 2.1
-7 6 1 12.9 2.4
7 -6 1 8.2 2
7 -6 1 8 2.1
-7 6 1 9.4 2.2
-7 6 1 9 2.1
7 -6 -1 11.1 2.3
7 -6 -1 12.7 2.3
-7 6 -1 14.5 2.4
7 -6 -1 8.7 2.1
-7 6 -1 14.3 2.5
7 -6 -1 12.1 2.3
-8 6 1 3.7 1.6
-8 6 1 3.5 1.3
8 -6 1 3.2 1.3
8 -6 1 2.5 1.2
8 -6 1 1.2 1.1
8 -6 -1 1.3 1.3
-8 6 -1 2.9 1.4
8 -6 -1 3.8 1.3
8 -6 -1 3 1.1
-8 6 -1 3.9 1.4
0 -7 -1 0 0.6
0 -7 -1 1.8 1.1
0 7 1 -0.3 0.8
0 -7 1 -0.7 0.6
0 -7 1 0.5 1
0 -7 1 0.6 0.8
0 -7 -1 0 0.8
0 7 1 -1.1 1
0 -7 1 0.1 0.8
0 -7 -1 -0.3 0.8
0 7 -1 -0.1 0.5
0 7 1 0.8 0.6
1 7 -1 12.2 1.8
1 -7 1 10.5 2
1 7 -1 10.2 1.9
1 -7 1 13.5 2.1
1 7 -1 6.8 1.9
-1 7 1 6.9 1.8
-1 7 1 9.1 2
-1 -7 -1 17.4 2.1
-1 7 1 8.9 2
-1 -7 -1 11.3 1.9
-1 7 1 16 2.1
1 -7 1 10.2 1.9
1 -7 1 12.3 2.1
1 -7 -1 8.3 2
-1 7 -1 9.3 2
-1 7 -1 8 1.8
-1 7 -1 9.9 1.9
1 7 1 13.8 2.1
1 -7 -1 12.5 2
1 7 1 15.6 2
-1 7 -1 4.9 1.8
1 -7 -1 9.1 2.2
1 -7 -1 10.8 2
-2 -7 -1 135.99 17.8
-2 7 1 120.19 17.8
-2 -7 -1 96.69 17.7
2 7 -1 129.39 17.7
2 7 -1 122.99 17.7
-2 7 1 101.19 17.8
-2 -7 -1 126.99 17.7
-2 7 1 104.99 17.8
2 -7 1 124.69 17.8
2 -7 1 95.99 17.8
2 -7 1 104.79 17.8
2 -7 1 101.69 17.8
2 7 -1 128.89 17.7
-2 -7 -1 117.49 17.8
2 7 -1 112.79 17.8
-2 7 1 101.29 17.8
-2 7 -1 127.69 17.8
2 7 1 104.69 17.7
-2 -7 1 111.89 17.8
2 -7 -1 116.09 17.9
-2 -7 1 130.69 17.7
2 7 1 121.99 17.8
-2 -7 1 108.99 17.7
-2 7 -1 115.29 17.8
2 -7 -1 104.99 17.8
2 7 1 112.09 17.7
-2 7 -1 116.39 17.8
-2 7 -1 111.99 17.9
-2 -7 1 138.49 17.8
-3 7 1 178.08 28.4
3 -7 1 186.28 28.4
3 -7 1 194.18 28.4
-3 -7 -1 171.18 28.2
3 7 -1 189.38 28.3
3 -7 1 192.28 28.4
3 7 -1 180.58 28.2
-3 7 1 192.28 28.4
3 -7 1 212.98 28.4
-3 7 1 152.18 28.3
-3 -7 -1 205.78 28.3
-3 7 1 170.88 28.4
3 7 -1 169.88 28.2
-3 -7 -1 193.78 28.3
-3 -7 -1 175.08 28.3
-3 7 -1 181.38 28.4
3 7 1 179.38 28.2
-3 -7 1 185.28 28.3
-3 -7 1 176.28 28.2
3 -7 -1 182.08 28.4
-3 -7 1 192.18 28.2
-3 7 -1 182.08 28.4
3 7 1 184.68 28.2
3 -7 -1 169.48 28.4
3 -7 -1 189.88 28.4
-3 7 -1 184.58 28.4
3 7 1 217.38 28.3
-3 7 -1 196.78 28.4
3 7 1 181.08 28.2
3 -7 -1 177.38 28.4
-3 -7 1 209.38 28.3
-4 -7 -1 26.2 4.2
4 7 -1 27.5 4.1
-4 -7 -1 23.8 4.1
4 -7 1 27.4 4.4
4 7 -1 27.4 4.1
4 -7 1 24.2 4.4
-4 7 1 19.2 4.3
-4 -7 -1 34.5 4.3
-4 7 1 28.3 4.4
4 -7 1 22.6 4.4
-4 -7 -1 27 4.1
4 7 1 32.9 4.2
4 7 1 26 4.1
-4 -7 1 26.6 4.1
-4 -7 1 23.4 4.1
4 -7 -1 28.7 4.5
-4 7 -1 22.2 4.4
-4 -7 1 29.5 4.2
-4 7 -1 24.8 4.4
-4 -7 1 27 4.1
-4 7 -1 19.1 4.4
-4 7 -1 26 4.4
4 -7 -1 24.3 4.4
-5 7 1 3 1.1
-5 -7 -1 3.5 0.8
-5 7 1 5.5 1.3
5 -7 1 2.6 1.1
-5 -7 -1 3 0.9
-5 -7 -1 3.9 0.9
5 -7 1 1.4 1
5 -7 1 2.7 1.2
5 -7 1 4.6 1.4
-5 -7 -1 3.1 0.8
-5 7 1 6.4 1.5
-5 7 1 4 1.3
5 -7 -1 1.9 1.2
5 -7 -1 3.8 1.3
-5 7 -1 2.8 1.2
-5 7 -1 3.9 1.2
-5 7 -1 6.5 1.4
5 7 1 2.7 1
5 -7 -1 4.5 1.2
5 7 1 3.6 0.8
5 -7 -1 6.3 1.3
6 -7 1 18 3.5
-6 7 1 24.8 3.7
-6 -7 -1 19.6 3.2
6 -7 1 18.3 3.6
-6 7 1 19.6 3.5
6 -7 1 17.8 3.4
-6 7 1 23.9 3.7
-6 -7 -1 23.9 3.3
6 -7 1 17.1 3.5
-6 -7 -1 24.5 3.3
6 -7 -1 19.2 3.5
6 -7 -1 15.6 3.5
6 -7 -1 23.4 3.8
-6 7 -1 18.9 3.6
6 -7 -1 19.8 3.5
-6 7 -1 12.5 3.5
-6 7 -1 18.5 3.6
7 -7 1 0.2 1.1
7 -7 1 0.7 1.5
7 -7 1 1.3 1
-7 7 1 1.9 1.4
-7 7 1 1.5 1.3
7 -7 -1 2.3 1.1
-7 7 -1 2.4 1.2
-7 7 -1 1.4 1.2
7 -7 -1 1.5 1
7 -7 -1 2.1 1.2
8 -7 1 6.2 1.8
-8 7 1 8.2 1.9
8 -7 1 8 1.8
-8 7 1 9.9 2.1
-8 7 -1 8.7 2
8 -7 -1 6.2 1.8
-8 7 -1 7.4 1.9
8 -7 -1 6 1.7
0 8 1 20.9 3.5
0 -8 1 12.8 3.5
0 8 -1 24.4 3.5
0 -8 -1 19 3.5
0 -8 1 18.2 3.4
0 -8 -1 20.6 3.6
0 -8 1 25.2 3.6
0 8 -1 28.7 3.6
0 8 -1 30.3 3.7
0 8 -1 19.9 3.5
0 8 1 29.5 3.6
0 -8 -1 25.3 3.6
0 -8 1 15.1 3.4
0 -8 -1 19 3.5
0 8 1 15.2 3.4
-1 8 1 240.48 37.4
-1 8 1 226.28 37.4
1 8 -1 254.67 37.3
1 -8 1 245.98 37.4
-1 -8 -1 253.17 37.4
1 -8 1 263.27 37.4
1 -8 1 239.88 37.4
-1 -8 -1 233.58 37.3
1 8 -1 271.87 37.4
1 -8 1 208.38 37.4
-1 8 1 231.88 37.4
-1 -8 -1 283.57 37.4
-1 -8 -1 239.78 37.3
1 -8 -1 270.17 37.4
-1 -8 1 242.28 37.3
-1 -8 1 226.68 37.3
-1 -8 1 221.98 37.4
1 8 1 244.48 37.4
-1 8 -1 242.68 37.4
1 8 1 267.27 37.4
-1 8 -1 205.18 37.4
1 -8 -1 253.77 37.4
1 8 1 235.68 37.3
1 -8 -1 233.18 37.4
-1 8 -1 277.67 37.4
-1 8 -1 249.48 37.4
1 8 1 270.47 37.3
-1 -8 1 234.48 37.3
1 -8 -1 238.98 37.4
-2 8 1 44.9 7.4
2 -8 1 36.9 7.5
-2 -8 -1 48.6 7.4
-2 8 1 46.2 7.4
-2 -8 -1 41.7 7.3
2 -8 1 55.49 7.5
-2 -8 -1 48.8 7.3
2 8 -1 46.9 7.3
2 8 -1 46.1 7.3
-2 8 1 53.39 7.5
2 -8 1 31.6 7.4
2 -8 1 46.1 7.6
2 8 -1 48.9 7.4
-2 8 1 45.1 7.6
-2 -8 -1 43 7.4
-2 8 -1 29.8 7.4
2 8 1 44.9 7.4
2 -8 -1 49.8 7.6
2 -8 -1 49.9 7.5
-2 -8 1 47 7.3
-2 8 -1 53.49 7.4
2 8 1 60.79 7.4
-2 -8 1 53.89 7.3
-2 8 -1 51.59 7.4
2 -8 -1 44.2 7.4
-2 8 -1 57.79 7.5
2 -8 -1 45.1 7.4
2 8 1 49.5 7.3
-3 8 1 20.8 3.7
3 8 -1 16.7 3.2
-3 -8 -1 16.5 3.4
3 8 -1 20.1 3.3
3 8 -1 21.3 3.5
-3 -8 -1 26.4 3.5
-3 8 1 18.9 3.6
3 8 -1 21.7 3.4
3 -8 1 18.5 3.5
3 -8 -1 21.7 3.7
-3 -8 1 25.1 3.5
-3 -8 1 22.4 3.4
-3 8 -1 15.4 3.9
3 8 1 24.8 3.6
3 -8 -1 16.9 3.5
3 8 1 24.8 3.4
-3 8 -1 15.3 3.5
-3 8 -1 17.5 3.6
-3 -8 1 30.8 3.5
3 8 1 24.1 3.4
-3 -8 1 19.9 3.5
3 8 1 24.8 3.4
4 -8 1 0.5 0.9
4 8 -1 0.7 0.7
-4 8 1 3.2 1.2
-4 8 1 1.6 1.1
-4 -8 -1 1.5 0.8
-4 8 1 2.7 1
4 8 -1 0.8 0.5
-4 -8 -1 2.6 0.8
-4 8 1 1.6 1.1
4 -8 1 2.5 1
-4 -8 -1 2.7 0.8
-4 -8 -1 1.5 0.7
4 8 1 0.9 0.5
-4 -8 1 1.5 0.8
-4 8 -1 -0.2 0.9
-4 -8 1 2.2 0.8
4 -8 -1 1.9 1.1
-4 -8 1 1.6 0.7
4 8 1 0.9 0.8
4 -8 -1 1.6 1.1
-4 8 -1 1.7 1
4 -8 -1 1 0.9
-4 8 -1 2.7 1
-4 -8 1 1.2 0.6
-4 8 -1 1.6 1.1
4 -8 -1 0.9 0.8
5 -8 1 8 1.9
-5 8 1 7 2
5 -8 1 5.1 1.9
-5 -8 -1 10.3 1.6
5 -8 1 9 1.9
-5 -8 -1 9 1.6
-5 8 1 7.2 1.9
-5 8 1 7.4 1.9
5 -8 1 5.9 1.8
-5 -8 -1 11.9 1.6
-5 -8 -1 7.9 1.6
-5 8 1 5.2 1.9
5 -8 -1 7.7 1.9
-5 8 -1 6.2 1.9
-5 8 -1 7.2 1.9
5 8 1 11 1.8
-5 -8 1 13.1 1.6
5 -8 -1 5.7 1.8
5 8 1 7.9 1.5
-5 -8 1 12.7 1.7
5 -8 -1 8.9 1.9
-5 -8 1 7.3 1.5
-5 8 -1 7.7 1.9
-5 -8 1 9.6 1.5
5 -8 -1 6 1.9
-6 -8 -1 6.5 1.3
6 -8 1 3.6 1.4
-6 -8 -1 7.1 1.2
-6 8 1 5 1.6
-6 8 1 4.1 1.6
6 -8 1 6.3 1.7
6 -8 -1 6.2 1.6
-6 8 -1 6.5 1.7
6 -8 -1 6.8 1.7
6 -8 -1 7.6 1.7
-6 8 -1 3.3 1.6
6 8 1 9 1.4
-7 8 1 17.3 2.9
7 -8 1 12 2.6
-7 8 1 11.5 2.7
7 -8 1 11.5 2.5
-7 8 -1 13.7 2.7
7 -8 -1 12.3 2.5
7 -8 -1 13.5 2.6
-8 8 1 3.5 1.7
8 -8 1 2.9 1.5
-8 8 1 6.6 1.7
8 -8 1 7.6 1.9
-8 8 -1 7.2 1.9
8 -8 -1 3.6 1.4
-8 8 -1 6.4 1.7
8 -8 -1 6.7 1.6
0 9 1 -0.9 0.5
0 -9 -1 0.4 0.8
0 -9 -1 0.1 1
0 -9 1 -1 0.7
0 -9 -1 -0.5 0.8
0 9 1 0.3 0.6
0 9 -1 0.2 0.6
0 -9 1 0.7 1.1
0 9 -1 0.6 0.9
0 -9 -1 0.3 0.7
0 9 -1 -0.3 0.6
0 -9 1 0.1 0.7
0 -9 1 0.9 0.9
0 9 1 0.1 1
0 9 1 1.7 0.9
0 9 -1 -0.8 0.8
-1 -9 -1 50.69 8.1
1 -9 1 57.89 8.2
1 -9 1 54.09 8.1
-1 9 1 57.99 8.4
1 9 -1 43.8 8
-1 -9 -1 56.39 8.1
-1 9 1 48.7 8
1 9 -1 54.09 8
1 -9 1 54.69 8.1
-1 9 1 40.1 8.1
1 -9 1 47.4 8
1 9 -1 56.19 8
-1 9 1 55.39 8
-1 9 -1 49.8 8
1 -9 -1 44.3 8
1 9 1 51.99 8
-1 -9 1 54.09 8
1 -9 -1 57.49 8.1
-1 -9 1 52.99 8.1
1 9 1 46.1 7.9
-1 9 -1 53.39 8
1 9 1 60.29 8.1
-1 9 -1 48.2 8.2
1 -9 -1 56.89 8.3
-1 -9 1 45.2 8
1 -9 -1 52.29 8.3
-1 9 -1 49.4 8.1
-2 -9 -1 182.38 23.8
2 -9 1 143.99 23.8
-2 9 1 137.29 23.8
2 9 -1 158.78 23.7
2 -9 1 168.28 23.9
-2 -9 -1 188.18 23.8
2 9 -1 156.58 23.7
-2 -9 -1 174.48 23.8
-2 -9 -1 159.38 23.7
2 9 -1 141.49 23.7
-2 9 1 130.59 23.8
2 -9 -1 174.08 23.9
-2 9 -1 160.98 23.8
-2 -9 1 155.38 23.7
2 9 1 175.28 23.8
-2 -9 1 184.38 23.7
-2 -9 1 184.48 23.8
2 9 1 121.29 23.7
-2 9 -1 129.09 23.8
-2 -9 1 135.59 23.7
2 -9 -1 129.89 23.8
2 9 1 151.78 23.7
-3 9 1 0.4 1
3 -9 1 0.6 0.8
3 -9 1 1 1
-3 9 1 -0.3 0.8
-3 9 1 0 0.9
3 -9 1 2.6 1
3 9 -1 -0.2 0.6
3 9 -1 0.5 0.4
-3 9 1 3.2 1.2
-3 -9 -1 0.1 0.7
-3 -9 -1 0.3 0.9
-3 -9 -1 0.6 0.6
3 -9 1 0.5 0.8
3 9 -1 1.7 0.9
-3 -9 -1 0.1 0.8
-3 -9 1 1.4 0.7
3 -9 -1 0.7 0.8
-3 -9 1 0.7 0.7
3 9 1 1.5 0.9
-3 9 -1 0 1
3 -9 -1 3.1 1.3
3 9 1 0.6 0.7
3 -9 -1 0.9 0.9
-3 9 -1 -0.2 0.8
3 -9 -1 0.4 0.9
-3 9 -1 1.1 1.1
-3 9 -1 -0.6 0.9
3 9 1 0.2 0.5
-3 -9 1 1.3 0.9
3 9 1 0.4 0.7
-4 -9 -1 17.9 2.6
-4 -9 -1 18.1 2.5
-4 9 1 11.8 2.7
4 9 -1 13.3 2.3
-4 -9 -1 12 2.3
-4 9 1 10.4 2.6
4 9 -1 16.1 2.5
4 -9 1 9.9 2.6
4 -9 1 9.3 2.6
-4 9 1 12.1 2.6
-4 9 1 20 3
4 -9 1 10.5 2.6
4 9 1 19.5 2.6
-4 -9 1 16.3 2.5
-4 9 -1 8.9 2.5
-4 9 -1 10.6 2.6
-4 -9 1 19.2 2.4
-4 -9 1 18.8 2.4
4 9 1 13.4 2.3
-4 9 -1 10.9 2.6
4 -9 -1 10.9 2.5
-4 9 -1 10.1 2.7
4 -9 -1 18.5 2.9
-5 9 1 4.3 1.4
-5 -9 -1 2.3 0.9
-5 -9 -1 3.8 0.9
5 -9 1 2.3 1.2
-5 9 1 6.1 1.5
5 -9 1 1.9 1.2
-5 -9 -1 4.8 0.9
5 9 -1 3.3 0.9
5 9 -1 2.2 0.8
-5 -9 1 2.9 0.8
-5 9 -1 1 1.1
-5 -9 1 3.7 0.8
5 9 1 4 0.9
5 -9 -1 2.1 1.2
-5 -9 1 2.5 1
-5 9 -1 1.5 1.2
-5 -9 1 2.6 0.9
5 -9 -1 3.5 1.1
5 9 1 2.4 1.1
6 -9 1 3.4 1.4
-6 9 1 3.8 1.5
-6 9 1 3.6 1.5
6 -9 1 3.3 1.3
6 -9 -1 6.4 1.5
6 9 1 4.6 0.9
6 -9 -1 4.6 1.5
-6 9 -1 5.7 1.7
6 9 1 3.1 1.2
-6 9 -1 2.8 1.3
7 -9 1 3.3 1.4
7 -9 1 0 1
-7 9 1 1.2 1.3
-7 9 1 -1.1 1.2
7 -9 -1 0.7 1.2
-7 9 -1 -1.2 1.1
-7 9 -1 -1.1 1.2
7 -9 -1 0.8 1.1
-8 9 1 -2 1.1
8 -9 1 -1.1 1.1
8 -9 1 0.7 1.1
-8 9 1 1.3 1.2
8 -9 -1 -0.3 1.2
-8 9 -1 0.4 1.3
8 -9 -1 0.8 1.2
-8 9 -1 2 1.3
0 -10 -1 227.18 35.6
0 10 -1 246.28 35.6
0 -10 1 218.78 35.6
0 -10 -1 204.78 35.6
0 10 1 237.78 35.6
0 10 1 240.78 35.6
0 10 1 210.18 35.6
0 -10 1 243.28 35.6
0 10 -1 228.38 35.6
0 -10 -1 236.78 35.6
0 -10 -1 247.88 35.7
0 10 1 229.28 35.6
0 10 -1 246.88 35.6
0 -10 1 281.57 35.7
0 -10 1 210.78 35.6
1 10 -1 118.19 17.7
-1 10 1 95.69 17.7
1 10 -1 135.49 17.7
1 -10 1 118.79 17.8
1 10 -1 124.19 17.7
1 -10 1 116.49 17.8
-1 -10 -1 104.69 17.7
-1 10 1 120.59 17.8
-1 -10 -1 115.79 17.7
1 10 -1 97.39 17.7
-1 -10 -1 125.69 17.7
-1 10 1 128.29 17.8
-1 -10 -1 102.09 17.7
1 -10 -1 140.69 17.8
-1 10 -1 122.59 17.7
-1 -10 1 105.69 17.7
-1 -10 1 124.89 17.7
1 10 1 117.79 17.7
1 10 1 121.89 17.7
1 -10 -1 110.69 17.8
1 -10 -1 136.59 17.8
1 10 1 114.99 17.7
1 -10 -1 105.99 17.7
-1 -10 1 112.89 17.7
-1 -10 1 93.29 17.7
-1 10 -1 111.99 17.7
1 10 1 104.79 17.7
2 -10 1 0.5 0.9
2 -10 1 -2.3 1.2
-2 -10 -1 1.3 0.9
-2 -10 -1 1.2 0.9
2 10 -1 0.4 0.6
2 10 -1 0.9 0.9
-2 10 1 0.8 0.8
-2 10 1 0.8 1
2 10 -1 1.3 0.6
2 10 -1 0.2 0.7
2 -10 1 0.1 0.9
-2 10 1 0 0.8
-2 -10 -1 1 1
-2 -10 -1 -0.6 1
-2 10 1 0.6 1
2 -10 1 1.3 1
-2 10 -1 -0.1 0.9
2 10 1 2.1 0.7
-2 -10 1 0 0.9
-2 -10 1 0.2 0.7
2 -10 -1 -0.7 1.2
2 10 1 0.9 0.5
2 10 1 0.6 1
2 -10 -1 1.9 1.1
-2 -10 1 0.9 0.7
-2 10 -1 0.4 1
2 10 1 -0.2 0.8
-2 -10 1 1.3 0.9
2 -10 -1 0.3 0.8
2 -10 -1 1.9 1.1
-2 10 -1 0.5 0.7
-2 10 -1 0.7 0.9
-3 10 1 2 1.2
3 10 -1 2 0.8
-3 10 1 2.1 1.2
-3 -10 -1 3.2 1.1
-3 -10 -1 4.2 1.1
3 -10 1 1.3 1.3
-3 10 1 3.5 1.1
3 10 -1 1.9 0.8
-3 -10 -1 2.7 0.9
-3 10 1 2.8 1.3
3 10 -1 3.7 1.1
3 -10 1 -0.6 0.9
-3 -10 -1 4.1 1.1
3 10 -1 1.8 0.6
3 -10 1 3.3 1.1
3 -10 1 2.3 1.1
-3 -10 1 2.5 0.9
-3 -10 1 3.8 1.1
3 -10 -1 1.8 1.1
-3 10 -1 2.4 1.1
3 -10 -1 5.4 1.6
-3 10 -1 2.6 1.3
3 10 1 1.3 1.1
-3 10 -1 0.9 1.2
-3 10 -1 1.8 1.1
-3 -10 1 1.6 0.9
3 10 1 3.3 0.9
-3 -10 1 2.2 1.1
3 -10 -1 2.4 1.1
3 -10 -1 1.6 1
3 10 1 3.9 0.9
-4 -10 -1 39.7 6.2
-4 -10 -1 39.8 6.2
-4 10 1 33.4 6.4
4 -10 1 31.9 6.4
4 -10 1 36.7 6.4
-4 -10 -1 36.3 6.3
-4 10 1 41.1 6.5
4 10 -1 40.8 6.2
-4 -10 -1 44.3 6.3
4 10 1 41.1 6.1
-4 10 -1 38.2 6.6
-4 -10 1 38.8 6.2
4 10 1 46 6.3
-4 10 -1 27.2 6.3
4 -10 -1 40 6.6
-4 -10 1 42 6.2
4 10 1 37 6.1
4 10 1 38.1 6.1
-4 -10 1 44.6 6.2
5 10 -1 16.1 3
-5 -10 -1 14.9 3
-5 -10 -1 21.4 3.3
-5 10 1 20.5 3.5
-5 10 1 13.6 3.3
5 -10 1 18.6 3.4
5 10 -1 19.5 3.1
5 -10 1 12.7 3.3
-5 -10 -1 20.4 3.1
-5 -10 1 22.7 3.1
-5 -10 1 23.4 3.2
-5 -10 1 22.8 3.1
-5 10 -1 22.5 3.7
-5 10 -1 18.2 3.4
5 10 1 19.4 3.2
5 -10 -1 13.8 3.3
5 -10 -1 13 3.3
-6 10 1 8.9 2.4
6 -10 1 8.4 2.2
-6 10 1 9.1 2.2
6 -10 1 7.8 2.1
-6 10 -1 7.4 2.2
6 -10 -1 11.4 2.2
-6 10 -1 10 2.3
6 -10 -1 7.8 2.2
6 10 1 17 2.1
6 10 1 11.9 1.8
-7 10 1 -2.2 1.1
7 -10 1 -1.9 1
7 -10 1 -0.4 1.2
-7 10 1 2.1 1.5
7 -10 -1 1.6 1.3
7 -10 -1 1.8 1.1
-7 10 -1 0.7 1.2
-7 10 -1 -2.6 1.1
0 -11 -1 -0.3 0.7
0 -11 1 0.3 1.2
0 11 -1 0.3 0.7
0 11 1 0.9 1.1
0 -11 1 0 0.9
0 -11 -1 0.7 1.1
0 -11 1 -0.4 0.8
0 11 -1 -0.5 1
0 11 -1 -0.2 0.6
0 -11 -1 -0.4 0.8
0 11 1 -0.3 1
0 -11 -1 0.6 1.1
0 11 1 0.5 0.7
0 11 1 -1 0.6
-1 -11 -1 5.9 1.7
-1 11 1 6.3 1.5
1 -11 1 10.5 2
-1 11 1 10.8 1.9
-1 11 1 6.3 1.7
1 11 -1 7.6 1.7
1 -11 1 4.3 1.5
1 11 -1 7 1.4
-1 -11 -1 10.3 1.8
1 -11 1 7.5 1.8
1 11 -1 3.4 1.4
1 11 -1 10.4 1.6
1 -11 1 2.3 1.4
1 -11 -1 5.9 1.8
-1 11 -1 6 1.7
1 -11 -1 6.7 1.6
1 -11 -1 9.7 2
-1 -11 1 8.3 1.7
-1 -11 1 8.2 1.7
-1 -11 1 6.7 1.7
1 11 1 9.1 1.5
-1 11 -1 8.3 1.7
-1 -11 1 6 1.5
-1 11 -1 6.8 1.6
1 11 1 6.2 1.6
1 11 1 6.8 1.4
1 -11 -1 10 1.8
2 -11 1 42.2 6.9
-2 11 1 36.4 6.9
-2 -11 -1 40.1 6.7
2 -11 1 33.9 6.8
2 11 -1 40.7 6.6
-2 -11 -1 36.6 6.8
2 -11 1 40.7 6.9
2 11 -1 38.8 6.6
2 11 -1 44.8 6.6
-2 -11 -1 57.59 7
-2 11 1 32.8 6.7
2 -11 1 40.8 6.9
-2 11 1 36.7 6.8
-2 11 1 42.2 7
-2 -11 -1 40.4 6.6
2 11 -1 52.89 6.7
-2 11 -1 39.9 6.9
2 -11 -1 28.6 6.9
-2 -11 1 42.9 6.6
-2 11 -1 57.49 7.2
2 -11 -1 35.8 6.8
2 11 1 41.1 6.6
-2 -11 1 45.3 6.9
-2 -11 1 48.2 6.8
-2 11 -1 36.7 6.8
-2 -11 1 55.19 6.7
2 -11 -1 43.1 6.9
2 11 1 47.9 7
2 -11 -1 54.79 7.1
-2 11 -1 47.7 6.9
2 11 1 42.1 6.8
3 -11 1 12.5 3.5
-3 -11 -1 28.1 3.6
3 -11 1 17.1 3.7
-3 11 1 17.2 3.7
3 11 -1 18.5 3.6
-3 11 1 29.6 4.1
3 11 -1 20.2 3.5
-3 -11 -1 28.8 3.7
3 11 -1 28.7 3.6
-3 -11 -1 19 3.6
-3 -11 -1 30.4 3.8
-3 11 -1 17.8 3.8
3 -11 -1 19.7 3.8
-3 -11 1 21 3.5
3 11 1 24 3.8
-3 -11 1 24.8 3.6
3 11 1 23.8 3.6
-3 11 -1 15.9 3.7
3 -11 -1 18 3.7
-3 -11 1 21.2 3.6
3 11 1 21.1 3.6
3 11 1 17.4 3.4
-3 -11 1 19.3 3.6
4 -11 1 -0.2 1
-4 -11 -1 0.2 1
4 11 -1 1.9 0.7
-4 -11 -1 1.1 0.9
4 -11 1 1.4 1.1
-4 -11 -1 3.8 1.3
4 11 -1 3.1 1
-4 11 1 3 1.3
4 11 -1 3.2 0.8
-4 11 1 3.3 1.4
4 11 -1 2.3 0.7
-4 -11 -1 1.8 0.9
-4 11 -1 1.7 1.1
-4 -11 1 2 1.1
4 11 1 1.2 0.8
-4 -11 1 1.6 0.8
4 -11 -1 0.5 1
-4 -11 1 2.5 0.9
-4 11 -1 3 1.4
4 11 1 2.3 0.8
4 -11 -1 2 1.3
-4 -11 1 1.9 1
-5 -11 -1 -1.4 0.8
-5 -11 -1 -0.2 0.8
5 -11 1 -0.7 0.9
-5 -11 -1 0.7 1
-5 11 1 -1.9 1
-5 -11 -1 0.1 0.7
5 -11 1 0.6 1.1
5 11 -1 -0.5 0.8
-5 11 1 2.2 1.4
-5 11 -1 0.5 1.1
5 -11 -1 -0.4 1
-5 -11 1 -0.2 0.7
5 -11 -1 -1.8 1
5 11 1 0.9 1.1
-5 11 -1 1.3 1.3
-5 -11 1 1.2 0.9
6 -11 1 24.6 4.9
6 11 -1 29.2 4.6
-6 11 1 30.6 5.2
-6 11 1 30.6 5.2
6 -11 1 28.9 5
6 11 -1 30.1 4.7
-6 11 -1 24.8 5
-6 11 -1 23.3 4.9
6 11 1 37.3 4.8
6 -11 -1 27.4 5
7 -11 1 6.1 1.8
7 -11 -1 4.1 1.7
7 11 1 9 1.6
0 -12 -1 46.5 7.3
0 12 1 43 7
0 -12 -1 47.6 7.4
0 -12 -1 35.4 7.2
0 -12 1 40.2 7.2
0 12 -1 61.39 7.3
0 12 -1 34.7 7.1
0 -12 1 40.8 7.3
0 12 1 50.49 7.4
0 12 -1 43.2 7
0 -12 -1 49.8 7.3
0 12 1 54.99 7.5
0 -12 1 48.2 7.4
0 12 1 43.7 7.2
0 12 -1 42.8 7.2
-1 -12 -1 31.4 4.9
-1 12 1 30.1 4.8
-1 12 1 25.6 4.9
1 -12 1 32 5
1 12 -1 31.9 4.8
1 12 -1 28.1 4.9
1 12 -1 20.5 4.6
1 -12 1 42.7 5.1
-1 12 1 34.8 4.9
-1 -12 -1 35.7 5
-1 12 1 27.6 5
1 -12 1 31.2 4.9
1 -12 1 26.3 5
1 12 1 26.8 4.8
1 -12 -1 24.4 4.8
1 12 1 36.1 4.8
-1 -12 1 36.2 5
-1 12 -1 24.2 4.8
-1 -12 1 37 4.9
1 12 1 26.8 4.7
1 12 1 27.4 4.9
-1 12 -1 20.9 4.7
-1 12 -1 44.9 5.3
1 -12 -1 30.7 5.1
-1 -12 1 30.8 5.1
1 -12 -1 20.6 4.9
1 -12 -1 27.6 4.9
-1 12 -1 21.4 4.8
2 12 -1 14.2 2.4
-2 -12 -1 14.7 2.7
-2 12 1 13.3 2.8
2 -12 1 12.1 2.6
-2 -12 -1 20.9 3
2 12 -1 14.4 2.5
-2 12 1 11.6 2.6
2 12 -1 13.3 2.4
2 12 -1 18.9 2.7
2 -12 -1 9.5 2.4
-2 12 -1 12.7 2.6
2 12 1 11.1 2.4
-2 -12 1 14 2.5
2 12 1 12.3 2.3
-2 -12 1 15.4 2.7
-2 -12 1 15.8 2.6
2 12 1 11.3 2.4
-2 -12 1 11 2.6
-2 12 -1 14.7 2.7
-3 -12 -1 0.3 1.1
-3 -12 -1 0 1
3 12 -1 0.9 0.8
3 -12 1 -0.8 0.9
3 -12 1 0.6 0.9
3 12 -1 -0.2 0.9
-3 -12 -1 0 0.8
-3 12 1 -1.9 1
-3 12 1 2.2 1.3
3 12 -1 -0.3 0.6
-3 -12 -1 0.2 0.8
3 12 1 0.3 0.8
-3 -12 1 -0.7 1.1
3 -12 -1 -1 0.8
3 12 1 -0.1 0.6
-3 -12 1 -0.9 1
-3 12 -1 -1 1
3 12 1 0.2 1
-3 -12 1 0.2 0.7
3 12 1 0.7 0.6
3 -12 -1 0.1 0.9
-3 -12 1 0.5 0.8
-3 12 -1 -0.4 0.9
4 12 -1 13.9 2.5
4 12 -1 13.7 2.4
-4 -12 -1 12.5 2.7
-4 -12 -1 17.5 2.6
-4 -12 -1 13.4 2.6
4 -12 1 11.3 2.7
4 12 -1 10.3 2.5
-4 12 1 15.4 3
4 12 -1 13.9 2.4
-4 12 1 12.3 2.8
-4 -12 -1 13.6 2.5
4 -12 1 10.5 2.7
4 12 1 15.7 2.5
-4 -12 1 16.2 2.6
-4 -12 1 22.3 2.9
4 -12 -1 13.9 2.8
4 -12 -1 11 2.6
-4 -12 1 13.8 2.6
4 12 1 19.1 2.6
-4 12 -1 10.3 2.7
-4 12 -1 14 2.9
4 12 1 14.3 2.7
-4 -12 1 14.6 2.5
-5 12 1 33.7 5.9
5 -12 1 34.5 5.9
-5 12 1 34.8 5.9
-5 -12 -1 36.5 5.7
5 12 -1 42.1 5.5
5 12 -1 38.8 5.7
-5 12 -1 41.5 6.1
5 -12 -1 23.7 5.6
-5 12 -1 27.4 5.9
5 12 1 38.9 5.7
5 12 1 35.5 5.5
5 -12 -1 22.5 5.7
6 12 -1 1.2 0.9
6 12 1 -0.4 1
6 -12 -1 -1.7 0.9
6 12 1 -0.4 0.7
7 -12 1 22.9 4.2
7 -12 1 28.8 4.5
-7 12 1 14.8 4.2
-7 12 1 21.2 4.3
-7 12 -1 27.2 4.6
7 -12 -1 25.9 4.4
7 -12 -1 20.8 4.2
7 12 1 27.4 4
-7 12 -1 26.4 4.3
0 -13 1 0.7 1.4
0 13 1 -0.5 1.1
0 13 -1 -0.3 0.7
0 -13 -1 -1.5 1.2
0 13 1 0 0.7
0 13 1 -0.4 1
0 -13 1 -0.1 0.8
0 13 -1 0.4 0.7
0 13 1 0.3 0.8
0 13 -1 -0.2 0.9
0 13 -1 1.4 1.2
0 -13 1 0 0.9
0 -13 -1 -1 0.9
1 -13 1 0.8 0.8
1 13 -1 -0.1 0.7
-1 -13 -1 -0.9 1.1
-1 -13 -1 0.1 0.8
1 -13 1 -0.8 0.9
1 13 -1 -1.4 0.8
1 13 -1 -0.3 1
-1 13 1 1 1.3
-1 -13 -1 0 1.1
1 13 -1 0.2 0.6
-1 -13 -1 1.3 1
-1 13 1 0.3 1.1
1 -13 -1 1.4 1
1 13 1 0.3 0.6
1 13 1 1.5 1.2
1 13 1 0.6 1
1 13 1 -0.4 0.7
-1 -13 1 0.6 1.3
-1 -13 1 0.1 0.8
-1 -13 1 -0.1 0.7
1 -13 -1 0.7 1
-1 13 -1 -0.7 1.1
-1 13 -1 0 0.9
2 13 -1 8.1 1.7
-2 13 1 11 2.1
2 13 -1 10.5 1.7
-2 -13 -1 11.5 2.1
-2 13 1 5 1.8
-2 -13 -1 11 1.9
2 13 -1 8.4 1.9
-2 -13 -1 5.1 1.9
2 -13 1 6.7 1.7
2 -13 1 7.9 1.9
-2 -13 -1 7.5 1.7
-2 -13 1 7.1 1.7
2 -13 -1 7.9 1.9
2 13 1 7.8 1.7
2 -13 -1 5.9 1.8
-2 -13 1 10.3 2.1
-2 -13 1 7.3 1.9
-2 13 -1 6 1.8
-2 13 -1 7.5 2
2 13 1 9.4 1.9
2 13 1 5.9 1.5
-2 -13 1 9 1.8
3 -13 1 2.1 1.2
-3 -13 -1 4.2 1.4
3 13 -1 5.8 1.1
-3 13 1 4.6 1.5
3 -13 1 2.7 1.3
-3 13 1 2.9 1.4
-3 -13 -1 4.7 1.4
3 13 -1 2.8 1.1
3 13 -1 4.9 1.2
3 -13 -1 3.7 1.4
-3 -13 1 4 1.3
-3 13 -1 4.5 1.6
-3 -13 1 5.8 1.6
3 13 1 2.1 1
-3 13 -1 5.2 1.5
-3 -13 1 3.5 1.4
3 13 1 3.5 1
3 -13 -1 0.3 1.1
-4 13 1 18.4 4.6
4 -13 1 25.1 4.6
-4 -13 -1 33.7 4.7
4 13 -1 33.6 4.5
-4 13 1 33.1 4.9
4 13 -1 34.4 4.3
-4 -13 -1 37.4 4.6
-4 -13 -1 20.5 4.3
-4 -13 -1 27.2 4.5
4 -13 1 17.6 4.5
4 13 -1 24.8 4.4
-4 -13 1 26.5 4.5
-4 -13 1 28.4 4.4
4 -13 -1 18.6 4.5
-4 13 -1 25.7 4.7
-4 13 -1 24 4.7
-4 -13 1 27.9 4.4
4 13 1 25.2 4.2
4 13 1 20.1 4.4
-4 -13 1 34.4 4.6
4 13 1 22 4.3
4 13 1 25 4.3
4 -13 -1 30.4 4.7
5 13 -1 8.8 1.9
5 13 -1 13.9 2.2
5 13 1 11.6 1.8
5 13 1 8.4 1.8
5 -13 -1 5.2 2
5 13 1 11 1.8
5 13 1 11.1 2.1
6 13 -1 1.6 1
-6 13 1 1.9 1.6
6 13 -1 -0.1 0.8
-6 13 1 -0.8 1.3
6 -13 1 -1 1.2
6 -13 1 0.4 1.2
-6 13 -1 -1.2 1.2
6 -13 -1 -1.1 1.1
6 -13 -1 0.9 1.3
6 13 1 0.4 1
6 13 1 0.1 0.8
-6 13 -1 -0.5 1.4
0 -14 1 10.3 1.9
0 14 1 6.7 1.8
0 -14 -1 8.7 1.9
0 14 -1 6.4 1.9
0 -14 -1 6.2 1.8
0 -14 1 5.8 1.7
0 14 -1 7.4 1.8
0 14 1 8.3 2
-1 14 1 29 4.9
-1 14 1 26.4 4.8
1 -14 1 20.2 4.6
1 -14 1 30.5 4.8
-1 -14 -1 27.6 4.6
1 14 -1 31.7 4.8
1 14 -1 29.1 4.8
1 14 -1 21.5 4.5
-1 -14 -1 32.3 4.8
1 14 -1 25.8 4.6
1 14 1 29.2 4.6
-1 14 -1 27.6 4.8
1 -14 -1 21.1 4.6
-1 -14 1 32.5 4.7
-1 14 -1 23.4 4.6
1 -14 -1 46.7 5.2
1 14 1 28 5.1
-1 -14 1 26 4.7
1 14 1 27.4 4.7
1 14 1 27.4 4.8
2 -14 1 10.1 2.5
2 14 -1 13.6 2.5
2 14 -1 16.6 2.4
2 14 -1 14.6 2.4
2 14 -1 13.1 2.3
2 -14 1 11.7 2.4
-2 14 1 10.8 2.6
-2 -14 -1 15 2.6
-2 -14 -1 7.4 2.1
-2 -14 -1 13.7 2.6
-2 -14 -1 8.7 2.3
2 14 1 13.2 2.3
-2 -14 1 12.9 2.3
2 14 1 12.2 2.6
2 -14 -1 12 2.5
-2 -14 1 14.7 2.6
-2 -14 1 11.4 2.3
2 14 1 20 2.7
2 -14 -1 11.7 2.5
2 14 1 9.7 2.1
-2 14 -1 7.7 2.4
-2 -14 1 10.8 2.5
-2 14 -1 10.8 2.5
-3 -14 -1 3.8 1.3
-3 14 1 2.9 1.5
3 14 -1 4 1.1
3 14 -1 4.6 1.3
3 14 -1 4.7 1.3
-3 -14 -1 4.9 1.3
3 -14 1 4.2 1.5
3 14 -1 4.5 1.4
-3 -14 -1 5 1.6
3 -14 1 5.8 1.6
-3 14 1 4.6 1.7
3 14 1 1.8 1.4
-3 -14 1 5.9 1.6
3 -14 -1 1.1 1.3
3 -14 -1 5.5 1.6
3 14 1 3.3 1.1
-3 14 -1 4.4 1.7
3 14 1 3.5 1
-3 -14 1 4.8 1.6
-3 14 -1 6 1.6
-3 -14 1 4 1.4
-3 -14 1 6.8 1.4
-4 -14 -1 11.7 2.2
4 14 -1 7.9 1.7
4 14 -1 5.6 1.5
-4 -14 -1 8.2 1.8
4 14 -1 5.8 1.7
-4 -14 -1 9.5 2.1
-4 -14 1 7.4 1.9
-4 -14 1 11.3 2.1
4 14 1 9.2 1.8
4 14 1 10 1.8
4 14 1 9.7 1.7
5 14 -1 4 0.9
-5 14 1 6.2 2
5 14 -1 3.6 0.9
5 14 -1 4.1 1.2
5 14 -1 5.4 1.4
5 -14 1 1.6 1.5
-5 14 1 2.6 1.6
5 14 1 4.1 1.5
5 14 1 4.4 1.1
5 -14 -1 3.5 1.5
-5 14 -1 5 1.6
5 14 1 4.6 1.2
-5 14 -1 4 1.7
5 -14 -1 1 1.2
6 14 -1 -0.5 1
6 14 -1 -0.5 0.8
-6 14 1 -0.2 1.3
6 -14 1 1.3 1.3
-6 14 1 2.1 1.6
-6 14 -1 -0.3 1.4
6 14 1 -1.3 1.1
-6 14 -1 -0.2 1.5
6 -14 -1 -1.5 1.1
6 14 1 -0.1 0.8
6 -14 -1 -0.4 1.1
0 -15 -1 0.3 1.1
0 -15 -1 -0.3 0.9
0 15 -1 -1.5 1.1
0 -15 1 1.7 1.1
0 15 1 2 1.3
0 15 1 -0.8 1
0 -15 1 -0.3 0.9
0 15 -1 -0.3 1
-1 15 1 7.5 1.9
1 15 -1 10.7 2.1
-1 15 1 6 1.9
-1 -15 -1 6.7 1.8
1 15 -1 8.6 1.7
1 -15 1 7.7 1.9
1 -15 1 10.5 2
1 15 -1 7.5 1.8
-1 -15 -1 4 1.6
-1 15 -1 8.1 2
-1 15 -1 9.2 2
1 -15 -1 4.9 1.6
1 -15 -1 8.5 2
1 15 1 7.3 2
-1 -15 1 7 1.8
1 15 1 6 1.8
-1 -15 1 10 1.9
2 -15 1 21.2 3.8
2 15 -1 20 3.6
2 15 -1 27.1 3.9
-2 -15 -1 23.1 3.7
2 -15 1 28.1 4
-2 -15 -1 27.4 3.8
-2 15 1 16.7 3.8
2 15 -1 16.1 3.6
2 15 -1 20.7 3.5
-2 15 -1 14.4 3.7
2 -15 -1 27.7 4
2 -15 -1 17.7 3.7
-2 -15 1 23.9 3.7
2 15 1 16.4 3.6
-2 15 -1 14.4 3.7
2 15 1 23.8 3.9
-2 -15 1 21.5 3.6
2 15 1 20.7 3.6
3 15 -1 0.4 0.8
3 15 -1 0.4 1.1
-3 -15 -1 1.3 1.1
-3 -15 -1 1.2 1.4
3 15 -1 0.3 0.7
-3 -15 -1 1.9 1
3 15 -1 0.8 1.2
-3 -15 1 0.7 1
3 15 1 1 0.8
-3 -15 1 2.5 1.4
-3 -15 1 1.8 1.3
3 15 1 3.8 1.5
-3 -15 1 1.6 1
3 15 1 1.2 0.8
3 15 1 3.1 1.1
4 -15 1 3.8 1.6
-4 -15 -1 7.2 1.7
-4 -15 -1 7.3 1.5
4 15 -1 5.1 1.1
4 -15 1 3.4 1.4
-4 15 1 1.5 1.5
4 15 -1 4.4 1.3
4 15 -1 7 1.7
4 15 -1 5.5 1.3
-4 15 1 2.2 1.6
4 15 1 3.6 1.3
-4 15 -1 5.9 1.9
-4 15 -1 2.8 1.5
-4 -15 1 8.2 1.8
4 -15 -1 5 1.5
4 -15 -1 3.6 1.6
4 15 1 5 1.7
4 15 1 3.6 1.2
4 15 1 3.5 1.1
5 -15 1 -2 1.2
5 15 -1 0.2 0.8
-5 15 1 2.3 1.7
5 -15 1 1.2 1.1
-5 15 1 1 1.4
5 15 -1 0.6 0.7
-5 15 -1 1.6 1.5
5 15 1 0.1 0.8
5 15 1 -0.6 1.2
5 15 1 1.5 0.9
5 -15 -1 3.2 1.5
-5 15 -1 0.9 1.4
5 15 1 1.1 0.8
0 -16 1 -1.2 0.9
0 16 1 0.3 1.3
0 -16 -1 0.2 1
0 16 -1 0.8 1.3
0 16 1 1.8 1.3
0 16 -1 1.1 1.2
1 16 -1 4.5 1.4
1 -16 1 2.5 1.4
1 16 -1 2.6 1.4
-1 16 1 3.1 1.5
1 -16 1 2.5 1.2
-1 -16 -1 5.1 1.6
-1 16 1 1.6 1.3
-1 -16 1 -0.3 1
1 16 1 3.4 1.5
1 -16 -1 4 1.4
-1 -16 1 1.8 1.2
1 16 1 3 1.5
-1 16 -1 2.3 1.3
1 -16 -1 2.3 1.6
-1 16 -1 3.8 1.6
2 16 -1 44.7 6.1
2 16 -1 47.2 5.9
2 16 -1 36.2 5.9
-2 -16 -1 37 5.9
-2 -16 -1 33.6 5.9
-2 16 -1 26.7 6
-2 -16 1 26.9 5.8
-2 -16 1 32.8 5.8
2 16 1 30.8 6
2 16 1 38.9 5.8
3 16 -1 10.1 2.1
3 16 -1 12.5 2.4
-3 16 1 8.3 2.4
3 -16 1 7.6 2.4
3 -16 1 13.2 2.6
-3 -16 -1 11.2 2.3
3 16 -1 15 2.4
3 16 -1 8.3 2.4
-3 -16 -1 18.2 2.6
-3 16 1 9.5 2.6
-3 -16 1 16.2 2.5
3 16 1 9.1 2.1
3 16 1 12.2 2.6
3 -16 -1 16.5 2.8
3 16 1 11.1 2.4
-3 16 -1 7.5 2.5
-3 -16 1 18.5 2.7
3 -16 -1 9.9 2.4
-3 16 -1 8.6 2.4
4 16 -1 29.6 4.6
4 16 -1 31.1 4.5
-4 16 1 18.2 4.6
4 16 -1 24.1 4.2
4 -16 1 25 4.7
-4 16 1 20.5 4.7
4 -16 -1 28.6 4.8
4 16 1 28.9 4.4
4 16 1 26.4 4.6
4 16 1 26.3 4.3
4 -16 -1 26.7 4.7
-4 16 -1 21.7 4.5
-4 16 -1 27.3 4.8
0 17 1 -0.2 1.2
0 17 -1 0.2 1.1
0 -17 1 -0.5 1
0 -17 1 0.3 1
0 17 -1 -0.9 1.3
0 -17 -1 -1.3 1
0 17 1 -0.8 1.3
0 -17 -1 -0.5 1.1
1 17 -1 8.7 1.9
-1 -17 -1 10.8 2.2
-1 -17 -1 5.5 1.9
1 17 -1 7.6 2.1
-1 17 -1 7.8 2.2
1 17 1 6.1 2
-1 -17 1 5.7 1.8
-1 -17 1 9.1 2
2 -17 1 3.3 1.6
2 17 -1 6.9 1.7
-2 -17 -1 7 1.7
2 -17 1 6.9 1.9
-2 17 1 3.4 1.8
-2 -17 -1 3.9 1.5
-2 17 1 5.7 1.9
-2 -17 1 2.8 1.4
-2 17 -1 4.4 1.7
2 -17 -1 4.8 1.6
-2 17 -1 5.4 1.9
-2 -17 1 9 1.8
2 17 1 2.7 1.6
2 -17 -1 9 2
2 17 1 4 1.4
3 -17 1 -0.6 1.1
3 17 -1 0 1.3
-3 17 1 -1 1.4
3 -17 1 0.4 1.3
3 17 -1 1.6 1.2
3 17 -1 -0.2 0.7
-3 -17 -1 -0.4 0.9
-3 -17 -1 -1.1 1
-3 17 -1 -0.2 1.3
-3 17 -1 0.4 1.4
3 17 1 -0.8 0.8
-3 -17 1 2.2 1.2
3 17 1 -0.7 1.3
3 -17 -1 0.5 1.4
3 -17 -1 0.1 1.1
-3 -17 1 1 1.1
3 17 1 -0.3 1.1
0 18 -1 13.3 3
0 -18 -1 20.3 3.4
1 18 -1 5.8 1.6
-1 -18 -1 3.8 1.5
1 -18 1 4.4 1.7
-1 18 1 2.6 1.7
-1 18 1 4.7 1.7
-1 -18 -1 4.6 1.7
1 18 -1 6 1.8
1 -18 1 4.4 1.6
-1 -18 1 9.6 1.9
-1 18 -1 6.2 1.7
1 18 1 3 1.7
-1 -18 1 4.7 1.6
-1 18 -1 2.3 1.7
1 -18 -1 7.3 1.8
1 -18 -1 3.7 1.6
1 18 1 3.4 1.5
-2 18 1 2 1.7
2 -18 1 6.1 1.7
2 -18 1 3.2 1.7
-2 18 1 2.2 1.6
-2 -18 -1 3.2 1.4
-2 -18 -1 6.2 1.8
2 18 -1 3.6 1.7
2 18 -1 5.3 1.6
2 18 1 5.2 1.8
-2 -18 1 5.8 1.6
2 18 1 7.8 1.8
-2 -18 1 6.5 1.7
-2 18 -1 4.1 1.7
2 -18 -1 3 1.5
2 -18 -1 5.5 1.7
-2 18 -1 2.2 1.7
0 0 2 223.38 36.1
0 0 2 269.27 36.1
0 0 2 251.07 36.1
0 0 -2 241.68 36.1
0 0 2 230.78 36.1
0 0 -2 208.78 36.1
-1 0 2 743.43 127.89
1 0 2 720.03 127.89
-1 0 2 917.81 127.89
-1 0 2 877.41 127.89
-1 0 -2 830.82 127.89
-1 0 -2 820.02 127.89
1 0 -2 833.12 127.89
1 0 -2 929.11 127.89
-1 0 2 761.22 127.89
1 0 -2 903.31 127.89
1 0 2 916.41 127.89
-2 0 -2 342.47 52.39
-2 0 -2 375.26 52.39
2 0 -2 348.57 52.39
2 0 -2 344.27 52.39
-2 0 2 343.97 52.39
-2 0 2 312.57 52.39
2 0 -2 319.97 52.39
-2 0 -2 336.87 52.39
-2 0 2 359.16 52.39
-2 0 -2 347.57 52.39
2 0 2 363.26 52.49
3 0 -2 114.09 19.4
-3 0 2 127.39 19.5
3 0 2 123.19 19.5
3 0 -2 120.49 19.4
-3 0 -2 133.59 19.5
3 0 2 142.19 19.5
3 0 2 126.19 19.4
-3 0 -2 138.79 19.5
-3 0 2 120.79 19.4
-3 0 -2 147.59 19.5
3 0 2 128.29 19.5
-3 0 -2 112.19 19.5
-3 0 2 137.79 19.5
3 0 -2 121.19 19.5
-4 0 2 16.7 3.4
-4 0 2 26.1 3.5
4 0 -2 22.5 3.5
4 0 2 28.1 3.6
4 0 -2 19.8 3.4
4 0 2 18.5 3.5
-4 0 -2 29.8 3.6
-4 0 -2 28.2 3.6
-4 0 2 19.3 3.5
-4 0 -2 22.6 3.5
4 0 -2 18.5 3.4
-4 0 -2 18.9 3.5
4 0 -2 20.7 3.5
-4 0 2 21.2 3.5
4 0 2 24.2 3.5
4 0 2 25 3.5
-5 0 2 128.49 20.3
-5 0 -2 127.69 20.3
5 0 2 132.09 20.3
5 0 -2 128.99 20.3
5 0 -2 137.19 20.3
5 0 2 131.29 20.3
-5 0 2 141.29 20.3
5 0 2 121.59 20.3
-5 0 2 145.59 20.3
-5 0 2 130.99 20.3
-5 0 -2 128.49 20.3
5 0 -2 134.89 20.2
5 0 -2 138.69 20.3
6 0 -2 117.09 16.7
-6 0 -2 100.49 16.7
6 0 -2 113.29 16.7
-6 0 -2 110.19 16.7
6 0 2 114.79 16.7
6 0 2 107.79 16.7
6 0 2 122.19 16.8
-6 0 -2 107.09 16.7
6 0 2 107.59 16.7
-6 0 2 103.99 16.7
6 0 -2 104.39 16.6
-6 0 2 112.49 16.7
-6 0 -2 99.09 16.7
-7 0 -2 5.3 1.2
7 0 -2 4.4 1.2
-7 0 -2 4.9 1.2
7 0 2 3.2 1.2
-7 0 2 6.9 1.3
-7 0 -2 4.4 1.3
-7 0 2 4.2 1.2
7 0 -2 6.1 1.3
7 0 2 3.4 1.3
-7 0 -2 4.1 1.2
7 0 2 5.9 1.1
-7 0 2 4.3 1.2
7 0 2 4.1 1.2
-7 0 2 4 1.2
8 0 2 9.4 1.9
-8 0 -2 7.9 2
-8 0 -2 12.4 2.1
8 0 2 9.9 2
8 0 2 13.8 2.1
8 0 -2 9 1.9
8 0 -2 13.2 2.2
9 0 2 1.2 0.7
9 0 -2 0.4 0.9
9 0 2 1.6 1
9 0 -2 0.3 1.2
0 1 2 0 0.2
0 1 -2 0.4 0.3
0 -1 -2 0 0.3
0 -1 2 -0.2 0.3
0 1 -2 -0.2 0.1
0 -1 -2 0.4 0.2
0 -1 2 -0.2 0.3
0 1 2 -0.1 0.3
0 1 -2 0.1 0.2
0 -1 -2 -0.7 0.3
0 1 -2 0.1 0.2
0 -1 2 0.2 0.2
0 -1 2 0.2 0.3
0 1 2 0.1 0.3
0 1 2 -0.1 0.3
0 -1 -2 -0.4 0.3
1 -1 2 99.19 15.3
-1 1 2 94.79 15.2
-1 1 2 115.99 15.3
-1 -1 -2 104.29 15.2
-1 -1 -2 102.09 15.2
-1 -1 -2 95.09 15.2
1 -1 2 92.89 15.3
-1 1 -2 104.59 15.3
-1 1 -2 107.69 15.3
1 1 2 90.39 15.2
1 -1 -2 102.59 15.3
1 1 2 91.49 15.2
1 -1 -2 103.19 15.3
-2 1 2 85.79 11
2 -1 2 73.19 11
-2 1 2 59.49 11
2 -1 2 73.69 11
-2 -1 -2 73.89 11
2 -1 2 83.99 11
-2 -1 -2 71.29 11
-2 1 2 65.79 11
2 -1 2 67.99 11
-2 1 2 78.19 11
-2 1 -2 71.59 11
2 1 2 63.29 11
-2 1 -2 67.09 11
2 -1 -2 74.69 11
2 1 2 74.39 11
-2 1 -2 73.69 11
-2 1 -2 70.39 11
-3 1 2 141.79 20.8
-3 1 2 148.69 20.9
-3 -1 -2 141.79 20.8
-3 -1 -2 142.89 20.8
3 -1 2 155.18 20.9
3 1 -2 110.99 20.8
3 -1 2 145.09 20.9
-3 -1 -2 131.49 20.8
-3 1 2 137.99 20.8
3 -1 2 137.39 20.8
-3 -1 -2 140.39 20.8
3 -1 2 133.79 20.8
-3 1 2 132.89 20.8
3 1 -2 139.19 20.8
3 1 2 143.89 20.8
-3 1 -2 141.59 20.8
3 -1 -2 129.99 20.8
3 -1 -2 148.49 20.9
-3 -1 2 150.58 20.8
3 1 2 126.59 20.8
-3 1 -2 128.39 20.8
-3 1 -2 131.49 20.8
3 -1 -2 134.09 20.8
3 1 2 133.19 20.8
3 -1 -2 140.89 20.8
-3 -1 2 127.39 20.8
-3 -1 2 142.19 20.8
3 1 2 132.29 20.8
-3 1 -2 119.49 20.8
-4 -1 -2 400.46 55.89
-4 -1 -2 352.96 55.79
4 -1 2 358.96 55.89
4 -1 2 418.96 55.89
-4 -1 -2 362.86 55.79
-4 -1 -2 336.97 55.79
4 1 -2 360.56 55.79
4 1 -2 372.56 55.79
4 -1 2 319.87 55.89
-4 1 2 383.56 55.89
-4 1 2 342.27 55.89
-4 1 2 362.16 55.89
-4 1 2 374.66 55.89
4 -1 2 349.27 55.89
-4 -1 2 358.46 55.79
4 1 2 383.66 55.79
-4 1 -2 377.06 55.89
4 1 2 367.66 55.79
4 -1 -2 393.76 55.89
4 -1 -2 381.06 55.79
4 -1 -2 357.96 55.89
-4 1 -2 369.56 55.89
4 -1 -2 352.36 55.89
-4 -1 2 332.07 55.79
-4 -1 2 360.06 55.79
4 1 2 417.46 55.89
-5 -1 -2 1.7 0.7
5 -1 2 0.2 0.5
-5 1 2 1.8 0.8
-5 -1 -2 1.2 0.7
5 1 -2 1.3 0.5
5 -1 2 0.4 0.6
5 -1 2 -0.4 0.6
-5 -1 -2 1 0.6
5 1 -2 1.3 0.7
-5 -1 -2 0.1 0.6
-5 1 2 0 0.7
-5 -1 2 0.3 0.6
-5 -1 2 -0.1 0.5
-5 -1 2 1.1 0.5
5 1 2 1.4 0.5
5 -1 -2 1.7 0.6
5 1 2 -0.3 0.5
5 -1 -2 1.2 0.7
5 1 2 1.1 0.5
5 -1 -2 1.5 0.6
-5 1 -2 0.3 0.7
-5 -1 2 0.2 0.6
-5 1 -2 1.4 0.7
-5 1 -2 0.5 0.7
5 1 2 0.9 0.6
-5 1 -2 0.6 0.7
6 -1 2 22 3.4
6 1 -2 19.7 3.3
6 -1 2 13.1 3.3
-6 1 2 23.8 3.5
-6 -1 -2 17.2 3.3
-6 -1 -2 18 3.3
6 -1 2 19.4 3.3
6 1 -2 19.1 3.3
-6 1 2 18.5 3.3
-6 1 2 21.6 3.5
-6 1 2 16.4 3.3
-6 -1 -2 22.9 3.4
-6 1 -2 19.5 3.4
6 1 2 22.9 3.3
6 1 2 20 3.3
-6 -1 2 21.2 3.3
-6 1 -2 22.3 3.5
6 -1 -2 22.8 3.5
6 -1 -2 21.7 3.3
-6 -1 2 21.1 3.3
-6 1 -2 24.8 3.5
-6 1 -2 17.6 3.3
-6 -1 2 19.2 3.3
6 1 2 17.2 3.3
-6 -1 2 26.5 3.4
6 -1 -2 22.7 3.4
6 -1 -2 23.2 3.4
-7 -1 -2 15.5 2.4
-7 1 2 13 2.4
-7 1 2 14.9 2.5
7 -1 2 13.9 2.6
-7 -1 -2 15.7 2.5
7 1 -2 13.7 2.4
-7 -1 -2 13.2 2.4
-7 1 2 11.8 2.4
-7 -1 -2 14.3 2.4
7 1 -2 12.7 2.4
7 -1 2 15.4 2.5
7 -1 2 12.6 2.4
-7 1 2 14.8 2.5
7 -1 2 12.3 2.3
7 -1 -2 15.7 2.4
-7 -1 2 13.5 2.4
7 1 2 13.7 2.3
-7 -1 2 11.7 2.3
7 -1 -2 15.7 2.4
7 -1 -2 12 2.4
-7 -1 2 13.9 2.3
7 1 2 16.1 2.5
7 1 2 10.3 2.2
7 -1 -2 12.9 2.5
-7 1 -2 12.3 2.5
7 1 2 19.3 2.5
-7 1 -2 16.4 2.6
-7 1 -2 11.9 2.5
-7 1 -2 11.8 2.4
-8 -1 -2 -0.4 0.8
8 1 -2 -0.6 0.7
8 -1 2 -0.5 0.8
-8 1 2 -0.8 0.8
8 1 -2 1.6 1.1
8 -1 2 1.2 1
8 -1 2 -0.7 0.7
8 -1 2 1.5 0.9
8 1 2 0.5 0.9
8 -1 -2 0.7 1.1
-8 1 -2 -0.3 0.8
8 -1 -2 0.4 0.8
8 1 2 -0.5 0.8
8 -1 -2 1 0.9
8 -1 -2 -0.3 0.7
-8 1 -2 0.6 1
-8 1 -2 0.5 1
9 -1 2 2.3 1.1
9 -1 2 0.9 0.8
9 -1 2 -0.7 0.9
9 -1 2 0.8 1
9 1 -2 0.2 1.1
9 1 -2 0.5 0.8
9 1 2 1.9 1.1
9 1 2 -0.4 1
9 -1 -2 0.3 0.7
9 -1 -2 1.4 1
9 -1 -2 -0.6 0.8
9 -1 -2 0.1 1.2
0 2 -2 463.15 74.49
0 2 2 502.85 74.49
0 -2 2 477.85 74.49
0 2 -2 450.65 74.49
0 -2 -2 504.55 74.49
0 2 2 539.55 74.49
0 -2 2 492.55 74.49
1 -2 2 16.9 3.8
-1 -2 -2 26.1 3.8
1 -2 2 15.9 3.8
-1 2 2 22.1 3.8
1 2 -2 22.7 3.8
1 -2 2 26.9 3.9
-1 2 2 29.7 3.8
1 -2 2 29.6 3.9
-1 2 2 22.5 3.9
1 2 -2 26.7 3.8
-1 -2 -2 25.1 3.8
-1 2 2 25.1 3.9
1 -2 -2 26.6 3.8
1 2 2 25.1 3.8
1 2 2 21.5 3.8
-1 -2 2 25.1 3.8
-1 2 -2 27.4 3.9
1 -2 -2 23.9 3.8
-1 2 -2 26.3 3.9
-1 -2 2 27.3 3.8
-1 2 -2 26.1 3.8
-1 -2 2 22.7 3.8
-1 -2 2 22.1 3.8
1 -2 -2 28.4 3.9
-1 2 -2 23.1 3.9
1 -2 -2 29.4 3.9
2 -2 2 602.74 83.09
-2 2 2 520.25 83.09
-2 2 2 553.84 83.09
2 -2 2 549.45 83.09
-2 -2 -2 584.24 82.99
-2 2 2 588.94 83.09
2 -2 2 592.04 83.09
2 -2 2 504.05 83.09
-2 -2 -2 511.35 82.99
-2 2 2 542.15 83.09
-2 2 -2 550.44 83.09
-2 2 -2 543.95 83.09
2 2 2 537.95 82.99
2 -2 -2 531.65 83.09
-2 2 -2 553.24 83.09
-2 2 -2 526.45 83.09
2 -2 -2 538.35 83.09
2 -2 -2 518.05 83.09
2 2 2 512.95 82.99
2 -2 -2 565.84 83.09
3 -2 2 6.5 1.2
3 -2 2 4.5 1.2
-3 2 2 6.4 1.3
-3 2 2 5.3 1.2
-3 -2 -2 6.2 1.1
3 -2 2 3.6 1.1
-3 -2 -2 8.2 1.1
-3 2 2 5.1 1.3
3 -2 2 6.3 1.3
-3 2 2 6.5 1.2
-3 -2 -2 7.5 1.1
-3 -2 -2 5.6 1.1
3 -2 -2 4.8 1.1
3 2 2 6.3 1.1
-3 2 -2 4.1 1.3
-3 2 -2 7 1.3
-3 2 -2 3.7 1.1
3 2 2 6.9 1
3 -2 -2 5.3 1.2
3 2 2 6 1
3 -2 -2 4.9 1.3
-3 2 -2 6.1 1.2
3 -2 -2 4.9 1.2
-4 -2 -2 24.1 3.3
4 -2 2 22.2 3.5
4 -2 2 17.7 3.4
-4 -2 -2 23.8 3.3
-4 2 2 19.5 3.4
-4 -2 -2 18.8 3.2
-4 -2 -2 24.3 3.3
4 -2 2 18.8 3.4
-4 2 2 26.9 3.6
4 2 2 20.9 3.2
4 -2 -2 20 3.4
-4 2 -2 18 3.4
4 2 2 20.1 3.2
4 2 2 20 3.2
-4 2 -2 20.1 3.5
-4 2 -2 21.6 3.5
4 -2 -2 21.3 3.4
4 -2 -2 20.2 3.4
4 2 2 19.3 3.3
-4 2 -2 21.3 3.4
5 -2 2 50.79 7.2
-5 -2 -2 47 7.1
-5 2 2 45.6 7.1
-5 2 2 40 7.1
-5 2 2 47.7 7.2
5 -2 2 43.7 7.1
-5 2 2 44.7 7.2
5 2 -2 46.7 7
-5 -2 -2 51.49 7.1
5 2 -2 51.09 7.1
5 -2 2 43.5 7.2
-5 -2 -2 44.1 7.1
5 -2 2 43.3 7.2
5 2 2 46.8 7.1
5 -2 -2 44.7 7.2
-5 -2 2 44 7
-5 -2 2 41.6 7
5 2 2 45.2 7
-5 2 -2 40.7 7.2
-5 2 -2 45.3 7.2
5 2 2 47.9 7.1
-5 -2 2 48 7
5 -2 -2 42.8 7.1
-5 2 -2 44.5 7.2
5 2 2 43.8 7.1
-5 2 -2 53.39 7.2
-5 -2 2 47.5 7.1
5 -2 -2 48.4 7.2
6 2 -2 -0.2 0.7
6 2 -2 -0.6 0.5
-6 -2 -2 0.7 0.5
-6 2 2 0 0.7
-6 -2 -2 -0.8 0.5
-6 2 2 0.4 0.7
-6 2 2 -0.9 0.8
-6 2 2 0 0.8
6 -2 2 -0.9 0.7
6 -2 2 0.3 0.7
6 -2 2 -0.3 0.7
6 -2 2 -1.6 0.6
-6 2 -2 -0.1 0.8
6 -2 -2 0.7 0.6
6 2 2 -0.4 0.6
-6 2 -2 0.5 0.7
6 -2 -2 0.4 0.8
6 -2 -2 1.3 0.9
6 2 2 -0.3 0.6
-6 2 -2 0.8 0.8
-6 -2 2 0.1 0.5
-6 -2 2 0.1 0.5
-6 2 -2 -0.5 0.8
-6 -2 2 0.8 0.6
-6 -2 2 -0.9 0.5
-7 -2 -2 1.1 0.7
-7 2 2 1.4 1
7 2 -2 2.6 0.7
-7 2 2 1 1
7 -2 2 1.8 1
-7 -2 -2 1.4 0.8
-7 -2 -2 2.8 0.8
7 2 -2 1.3 0.9
7 -2 2 2.3 1
-7 2 2 2.6 1
7 -2 2 0.6 0.9
-7 2 2 2.9 1.1
7 -2 2 2.7 0.9
-7 -2 -2 2 0.9
-7 2 -2 2.7 1
-7 2 -2 2.1 1
-7 2 -2 2.7 1.1
-7 -2 2 2.3 0.8
7 2 2 1.9 0.8
-7 2 -2 1.6 1
7 -2 -2 2.2 0.9
-7 -2 2 2.1 0.8
7 -2 -2 1.7 0.9
7 -2 -2 3.5 1.4
-7 -2 2 1.8 0.7
8 -2 2 3.3 1.3
-8 2 2 4.1 1.2
8 -2 2 3.3 1.2
8 2 -2 3.7 1.2
-8 2 2 3.2 1.2
8 -2 2 2.8 1.2
8 2 -2 5.2 1.1
8 -2 2 3.2 1.3
-8 2 2 4.5 1.4
-8 2 -2 4.8 1.4
8 -2 -2 4 1.1
-8 2 -2 5.2 1.4
8 -2 -2 4.4 1.2
8 -2 -2 4.7 1.4
8 -2 -2 4.5 1.3
-8 2 -2 3.3 1.3
8 2 2 6 1.2
-8 2 -2 5.5 1.4
8 2 2 4.1 1.2
9 -2 2 4 1.4
9 2 -2 6.4 1.3
9 -2 2 4.2 1.3
9 -2 2 2.4 1.3
9 -2 2 5.5 1.6
9 2 2 5.7 1.4
9 2 2 6.8 1.4
9 -2 -2 3.3 1.3
9 -2 -2 5.4 1.7
9 -2 -2 4.4 1.2
9 -2 -2 8.8 1.7
0 -3 2 0.7 0.5
0 3 2 -0.1 0.6
0 -3 -2 -0.1 0.7
0 3 2 0.4 0.5
0 3 -2 0.1 0.6
0 -3 -2 -0.2 0.5
0 -3 2 0.2 0.5
0 -3 2 0.3 0.5
0 3 2 0.1 0.5
0 3 -2 -0.4 0.4
0 3 -2 0.5 0.6
0 -3 -2 0.3 0.5
0 3 -2 -0.7 0.4
0 -3 2 -0.9 0.6
0 -3 -2 -0.7 0.7
0 3 2 0.7 0.6
-1 -3 -2 89.69 14.2
-1 3 2 102.29 14.2
1 -3 2 96.69 14.2
-1 -3 -2 114.39 14.2
1 -3 2 97.19 14.3
1 -3 2 93.49 14.3
1 3 -2 72.89 14.2
-1 -3 -2 101.59 14.2
-1 3 2 92.09 14.3
1 -3 2 82.19 14.2
-1 3 2 107.19 14.3
-1 3 2 88.29 14.2
1 3 -2 86.09 14.2
-1 -3 -2 107.39 14.2
-1 3 -2 83.09 14.2
-1 3 -2 80.99 14.2
1 3 2 99.69 14.2
-1 -3 2 89.49 14.2
1 -3 -2 84.19 14.2
1 -3 -2 82.99 14.2
1 3 2 107.79 14.2
-1 -3 2 105.29 14.2
1 3 2 87.79 14.2
-1 3 -2 84.79 14.2
1 3 2 90.09 14.2
-1 3 -2 94.19 14.2
-1 -3 2 103.29 14.2
1 -3 -2 88.29 14.2
1 -3 -2 83.09 14.3
-2 3 2 128.69 18.3
2 -3 2 131.59 18.4
2 -3 2 120.79 18.3
-2 3 2 139.49 18.3
-2 -3 -2 99.49 18.3
-2 3 2 124.89 18.4
2 -3 2 118.19 18.3
-2 3 2 131.69 18.3
2 -3 2 97.09 18.3
-2 -3 -2 141.69 18.3
-2 -3 -2 105.59 18.3
-2 3 -2 134.99 18.3
-2 3 -2 115.99 18.3
2 3 2 122.99 18.3
2 3 2 107.59 18.3
-2 3 -2 111.09 18.3
2 -3 -2 108.79 18.3
2 -3 -2 144.99 18.4
2 3 2 106.79 18.2
2 -3 -2 128.79 18.3
-2 3 -2 131.29 18.3
-3 3 2 8 1.5
3 -3 2 5.9 1.4
3 -3 2 8.6 1.5
-3 -3 -2 10.4 1.3
-3 -3 -2 8.9 1.3
-3 -3 -2 8.2 1.3
-3 -3 -2 7.3 1.2
-3 3 2 4.8 1.5
3 -3 -2 5.9 1.4
-3 3 -2 4.7 1.4
3 3 2 8.8 1.3
-3 3 -2 5.7 1.5
3 -3 -2 6 1.4
3 -3 -2 5.5 1.4
3 3 2 6.4 1.2
-4 3 2 31.8 5.3
-4 3 2 37 5.5
4 -3 2 38.7 5.5
-4 3 2 38.1 5.5
-4 -3 -2 30.5 5.2
-4 3 2 32.7 5.4
4 -3 2 31.3 5.4
-4 -3 -2 33.6 5.2
4 -3 2 40.4 5.5
4 -3 2 32 5.3
-4 -3 -2 31 5.2
-4 -3 -2 32.6 5.2
4 -3 -2 30.8 5.3
-4 3 -2 39.8 5.5
4 3 2 38.5 5.2
-4 3 -2 40.9 5.5
4 3 2 34.9 5.2
-4 3 -2 37 5.5
4 -3 -2 29.9 5.4
4 -3 -2 38.4 5.5
-4 3 -2 24.5 5.3
5 -3 2 61.39 9.5
-5 -3 -2 59.99 9.4
-5 3 2 60.99 9.5
-5 -3 -2 71.79 9.4
-5 3 2 54.79 9.5
-5 -3 -2 60.69 9.4
-5 3 2 63.89 9.5
5 -3 2 59.79 9.5
-5 3 2 61.29 9.5
5 -3 2 50.99 9.4
5 -3 2 63.89 9.5
-5 3 -2 56.99 9.5
-5 3 -2 57.59 9.5
5 3 2 68.79 9.4
5 -3 -2 58.19 9.5
5 -3 -2 54.59 9.5
5 -3 -2 55.49 9.4
-5 3 -2 56.89 9.5
5 3 2 60.89 9.3
-5 3 -2 70.19 9.5
5 -3 -2 62.19 9.4
-6 3 2 47.9 7.2
6 -3 2 40.9 7.2
6 -3 2 43.6 7.2
6 -3 2 39.8 7.2
-6 3 2 45.2 7.2
-6 -3 -2 48.9 7.1
-6 3 2 43.6 7.3
-6 3 2 44 7.2
6 -3 2 43.8 7.2
-6 -3 -2 47.2 7.1
6 -3 -2 44 7.2
6 -3 -2 45.4 7.1
-6 -3 2 49.9 7.1
6 3 2 47.6 7.1
-6 3 -2 46.3 7.2
6 3 2 44.5 7.1
-6 3 -2 51.79 7.4
-6 3 -2 43.1 7.2
6 -3 -2 47.8 7.2
6 -3 -2 47 7.4
-6 3 -2 44.3 7.2
-7 3 2 3 1.2
7 -3 2 4 1.4
7 -3 2 2 0.9
-7 -3 -2 1.8 0.7
-7 -3 -2 0.6 0.8
-7 3 2 3 1.2
-7 3 2 1 0.9
7 -3 2 1.4 0.9
-7 3 2 2.6 1.1
7 3 2 2.5 0.8
7 -3 -2 2.1 1.1
7 -3 -2 3.2 1.2
-7 3 -2 0.8 1
7 -3 -2 1.7 0.9
-7 3 -2 0 1.2
7 -3 -2 2.4 1
-7 -3 2 1.2 0.6
-7 3 -2 1.1 1
-8 3 2 -0.7 1
-8 3 2 -0.9 0.9
-8 3 2 -2 0.9
8 -3 2 0.1 1
-8 3 2 -1.3 0.9
8 -3 2 2.1 1.1
-8 3 -2 0 1
8 -3 -2 0.1 0.9
8 -3 -2 -1.2 1.1
-8 3 -2 -0.5 0.8
8 -3 -2 -0.4 1
-8 3 -2 -1.3 1
8 -3 -2 1.4 0.9
8 3 2 -1.5 0.7
-8 3 -2 -0.5 1
8 3 2 2.3 1.1
9 -3 2 0.4 1.1
9 -3 2 0.4 1.1
9 -3 2 -1.5 1
9 -3 2 0.1 1.1
9 -3 -2 -0.1 1.1
9 -3 -2 -0.1 1.1
9 3 2 -0.2 0.8
9 -3 -2 -0.2 1
9 -3 -2 0.3 1
9 3 2 0 0.9
0 -4 2 16.5 2.6
0 -4 2 18.1 2.6
0 4 -2 14.3 2.6
0 -4 -2 15.2 2.6
0 4 2 20 2.7
0 -4 2 10.9 2.5
0 4 2 14.8 2.6
0 4 -2 23.4 2.7
0 4 -2 12.9 2.5
0 -4 -2 19.9 2.6
0 4 2 14.9 2.5
0 -4 -2 11.2 2.6
0 -4 2 12.2 2.5
0 4 -2 14.3 2.5
0 -4 -2 14.9 2.6
0 4 2 27.4 2.8
-1 4 2 45.2 7
1 -4 2 47.7 7
-1 4 2 48.7 7
1 4 -2 39.5 6.9
-1 4 2 41.3 7
-1 -4 -2 50.19 7
-1 -4 -2 41.9 6.9
1 4 -2 42.8 6.9
1 4 -2 49.99 6.9
-1 4 2 47.7 7.1
1 4 -2 45.8 6.9
1 -4 2 47.5 7
1 -4 2 47.7 7
-1 -4 -2 46.2 7
-1 -4 -2 40.1 6.9
1 -4 -2 39.8 7
-1 4 -2 39 7
-1 -4 2 50.19 6.9
1 -4 -2 41.2 7.1
1 -4 -2 43 7
-1 4 -2 41.3 7
-1 4 -2 40.6 7
1 -4 -2 40.2 7
-1 4 -2 43.2 7
-1 -4 2 49.99 6.9
-1 -4 2 54.19 7
-1 -4 2 47.9 6.9
-2 -4 -2 173.88 24.4
-2 4 2 150.18 24.5
2 -4 2 135.69 24.4
2 4 -2 173.18 24.4
-2 4 2 158.68 24.5
-2 -4 -2 155.88 24.4
-2 -4 -2 184.68 24.4
-2 -4 -2 152.68 24.4
2 -4 2 158.38 24.5
2 4 2 154.08 24.4
2 4 2 156.78 24.4
-2 4 -2 155.58 24.5
2 -4 -2 157.48 24.5
-2 -4 2 153.08 24.4
2 -4 -2 153.68 24.5
-2 -4 2 167.58 24.4
2 4 2 167.58 24.4
-2 -4 2 155.78 24.4
-2 4 -2 160.88 24.5
2 4 2 161.28 24.4
-3 4 2 51.59 7.8
3 -4 2 53.79 7.8
-3 -4 -2 54.49 7.6
-3 4 2 50.09 7.7
-3 4 2 48.2 7.7
-3 4 2 48.4 7.7
-3 -4 -2 49.7 7.6
3 -4 2 38 7.7
-3 -4 -2 51.19 7.6
-3 -4 -2 54.69 7.6
3 -4 -2 52.79 7.7
-3 4 -2 58.59 7.8
-3 4 -2 48.6 7.7
-3 4 -2 43.4 7.7
3 -4 -2 46.7 7.7
-3 4 -2 43.5 7.7
3 4 2 40.6 7.6
3 -4 -2 54.49 7.8
3 4 2 50.69 7.6
3 -4 -2 49.99 7.7
3 4 2 49.9 7.6
-4 -4 -2 36.5 5.1
4 -4 2 34.1 5.2
-4 4 2 34.5 5.4
-4 -4 -2 30.4 5
4 -4 2 33.6 5.3
-4 -4 -2 35 5
-4 -4 -2 32 5
-4 4 2 42.7 5.4
4 -4 2 28.1 5.3
-4 4 2 47.9 5.5
4 -4 2 27.7 5.2
-4 4 2 25 5.2
4 4 2 32.4 5
4 4 2 30.2 5
-4 4 -2 44 5.5
4 -4 -2 29.5 5.3
-4 4 -2 29.9 5.3
4 -4 -2 36 5.3
-4 4 -2 36.4 5.3
4 -4 -2 26.3 5.2
-4 4 -2 36.2 5.3
4 -4 -2 29.1 5.2
-5 -4 -2 120.49 19.2
5 -4 2 119.69 19.3
-5 -4 -2 121.49 19.2
-5 4 2 125.29 19.3
5 -4 2 124.29 19.3
5 -4 2 127.89 19.3
-5 -4 -2 123.89 19.2
-5 4 2 123.89 19.3
-5 4 2 128.09 19.3
-5 4 2 136.29 19.3
5 -4 2 121.89 19.3
-5 -4 -2 134.79 19.2
5 -4 -2 133.19 19.3
-5 4 -2 125.09 19.3
5 -4 -2 103.39 19.3
5 4 2 133.09 19.2
5 4 2 134.29 19.2
-5 4 -2 108.69 19.3
-5 4 -2 124.19 19.3
5 -4 -2 126.49 19.3
-5 4 -2 128.59 19.3
5 -4 -2 127.99 19.3
6 -4 2 35.6 5
-6 4 2 36 5.1
-6 -4 -2 29.8 4.7
-6 -4 -2 25.3 4.7
-6 -4 -2 29.1 4.7
6 -4 2 33 4.9
6 -4 2 30.9 5
-6 -4 -2 28.8 4.7
-6 4 2 30.4 5
-6 4 2 31.7 5
-6 4 2 29.8 4.9
6 4 2 31 4.7
6 -4 -2 35.6 5
-6 4 -2 26.3 4.9
-6 4 -2 29.4 4.9
6 -4 -2 29.5 4.9
6 4 2 29.9 4.7
6 -4 -2 28.4 4.9
6 -4 -2 27.5 5
-7 4 2 3.2 1.4
-7 -4 -2 6.7 1.1
7 -4 2 4.7 1.3
-7 -4 -2 5.1 1.1
-7 -4 -2 4.5 1.1
-7 4 2 6.3 1.4
-7 4 2 7.6 1.7
-7 -4 -2 7.9 1.2
-7 4 2 3.6 1.3
7 -4 2 2.4 1.2
7 -4 2 6 1.4
7 -4 -2 7.1 1.6
7 -4 -2 5.5 1.4
-7 4 -2 5.3 1.5
-7 4 -2 4.5 1.5
7 4 2 3.2 1.1
7 4 2 3.4 1.1
7 -4 -2 4.7 1.4
-7 4 -2 5.3 1.4
-8 4 2 10.9 2.2
8 -4 2 12.7 2.3
8 -4 2 9 2.1
-8 4 2 6.4 2.1
-8 4 2 10.7 2.3
-8 4 2 6.9 2.1
8 -4 2 9.3 2.1
-8 4 -2 8.7 2.1
8 4 2 11.7 1.9
-8 4 -2 14.1 2.4
-8 4 -2 12.1 2.3
8 -4 -2 12.7 2.4
8 -4 -2 12.4 2.2
8 -4 -2 10.9 2.3
9 -4 2 1.2 1.1
9 -4 2 -0.2 1
9 -4 2 -0.3 1.1
9 -4 -2 -1.1 1.1
9 4 2 -0.8 0.8
9 -4 -2 0.2 1.1
9 -4 -2 -0.8 1
9 -4 -2 0.3 1
0 -5 2 0.4 0.8
0 5 -2 0 0.5
0 -5 2 0 0.7
0 -5 -2 0.3 0.7
0 5 2 -0.3 0.9
0 5 2 -0.8 0.7
0 -5 -2 -0.7 0.8
0 -5 -2 2.1 1
0 5 2 -0.1 0.6
0 -5 -2 0.4 0.7
0 -5 2 -0.2 0.6
0 5 2 0 0.6
0 5 -2 1.1 0.7
0 5 -2 0 0.7
0 -5 2 -0.2 0.7
-1 5 2 6.3 1.6
-1 -5 -2 7.3 1.3
-1 5 2 8.1 1.5
-1 -5 -2 4 1.3
1 -5 2 8.1 1.5
-1 -5 -2 8.6 1.5
1 5 -2 5.8 1.4
1 5 -2 10.9 1.3
1 5 -2 7.7 1.3
-1 -5 -2 4.8 1.4
1 5 -2 7 1.3
1 -5 2 7.6 1.5
1 5 2 9.7 1.6
-1 -5 2 7.5 1.3
-1 5 -2 5.3 1.4
-1 -5 2 7 1.3
-1 -5 2 6.8 1.4
-1 5 -2 5 1.5
1 -5 -2 7.1 1.4
1 5 2 7.6 1.3
1 5 2 7.7 1.3
1 -5 -2 5.1 1.4
-1 -5 2 5.8 1.3
1 5 2 7 1.4
-2 5 2 7.7 1.6
2 5 -2 9.4 1.4
-2 5 2 6.5 1.7
-2 -5 -2 9.7 1.5
2 5 -2 7.8 1.5
-2 5 2 7.7 1.7
2 -5 2 6.4 1.6
2 -5 2 7.6 1.7
-2 5 2 7.1 1.7
2 -5 2 5.3 1.5
-2 -5 -2 9 1.6
-2 -5 -2 5.5 1.5
2 5 -2 11 1.5
-2 -5 -2 10.2 1.5
2 -5 2 5 1.6
-2 5 -2 8.5 1.6
-2 -5 2 6.9 1.4
-2 -5 2 7.7 1.4
2 5 2 8.1 1.4
2 -5 -2 10.3 1.7
-2 -5 2 14.5 1.6
2 5 2 6.6 1.5
2 -5 -2 7.6 1.7
2 5 2 9.8 1.5
-2 5 -2 7.2 1.7
-2 5 -2 7.1 1.7
2 -5 -2 5.2 1.7
-2 -5 2 10.2 1.5
-2 5 -2 8.8 1.7
2 -5 -2 6.5 1.6
2 5 2 8.1 1.6
-3 5 2 247.58 38.7
-3 5 2 241.08 38.7
-3 -5 -2 262.67 38.6
3 -5 2 264.17 38.7
3 -5 2 284.37 38.7
3 -5 2 226.18 38.7
-3 -5 -2 284.27 38.6
-3 5 2 235.78 38.7
-3 5 2 266.07 38.7
-3 -5 -2 215.88 38.6
-3 -5 -2 227.58 38.6
-3 5 -2 276.37 38.7
3 5 2 246.78 38.6
3 5 2 266.57 38.6
-3 5 -2 245.48 38.7
3 -5 -2 277.97 38.7
3 5 2 233.28 38.6
-3 5 -2 247.18 38.7
3 -5 -2 281.37 38.7
3 5 2 237.88 38.6
-3 5 -2 285.77 38.7
4 -5 2 228.28 35.3
4 -5 2 212.98 35.3
-4 -5 -2 215.48 35.2
-4 5 2 251.87 35.3
-4 -5 -2 230.88 35.2
-4 5 2 232.18 35.3
-4 5 2 238.38 35.3
-4 5 2 235.58 35.3
-4 -5 -2 263.97 35.2
-4 -5 -2 191.68 35.2
4 -5 2 224.18 35.3
4 -5 2 244.18 35.3
-4 5 -2 250.07 35.3
4 5 2 230.48 35.2
4 -5 -2 245.88 35.3
-4 5 -2 205.48 35.3
4 -5 -2 222.98 35.3
4 -5 -2 258.17 35.3
4 5 2 228.88 35.2
-4 5 -2 223.38 35.3
-4 5 -2 238.48 35.3
-5 -5 -2 26.8 3.9
-5 -5 -2 27 3.9
-5 -5 -2 23.2 3.9
-5 5 2 23.9 4.1
-5 5 2 16.7 4
-5 5 2 34.7 4.4
-5 -5 -2 25.9 3.9
-5 5 2 27.3 4.2
5 -5 2 20.8 4.1
5 -5 2 27.7 4.3
5 -5 -2 25 4.2
5 -5 -2 24 4.1
5 -5 -2 25.6 4.2
5 -5 -2 24.8 4.1
-5 5 -2 18.8 4.1
5 5 2 22.9 3.8
5 5 2 26.9 3.9
-6 5 2 3.7 1.1
-6 5 2 1.8 1
-6 5 2 2.4 1.2
6 -5 2 2.6 1.1
6 -5 2 2 1
-6 -5 -2 3.7 0.8
6 -5 2 2 1
-6 -5 -2 2.4 0.8
-6 -5 -2 3.2 0.8
6 -5 2 3.2 1
-6 -5 -2 4.1 0.8
6 5 2 2.5 0.7
-6 5 -2 0.9 1.1
6 -5 -2 3 1.2
-6 5 -2 4.4 1.2
-6 5 -2 0.4 1
-6 5 -2 3.5 1.2
6 5 2 5.1 0.9
6 -5 -2 3.7 1.1
6 -5 -2 3.2 1.2
7 -5 2 12.3 2.6
-7 5 2 20.3 3
-7 5 2 13 2.6
7 -5 2 12.5 2.6
-7 5 2 12.1 2.6
7 -5 2 12.5 2.5
7 -5 2 12.3 2.6
-7 5 2 13 2.7
-7 5 -2 9.7 2.5
7 5 2 16.6 2.3
-7 5 -2 15.7 2.8
-7 5 -2 16.2 2.8
7 -5 -2 10.4 2.5
-7 5 -2 12.4 2.6
7 -5 -2 14.8 2.8
7 5 2 19.6 2.4
7 -5 -2 11.4 2.5
-8 5 2 14.3 2.2
8 -5 2 7.8 2
-8 5 2 13.3 2.4
-8 5 2 8.9 2.1
8 -5 2 7.1 1.9
8 -5 2 10.1 2
8 -5 -2 9.8 2.1
8 -5 -2 8.3 1.9
-8 5 -2 7.5 2.1
8 -5 -2 8.2 2.1
-8 5 -2 8.7 2.2
8 5 2 9.5 1.8
9 -5 2 4.8 1.5
9 -5 2 5 1.6
9 -5 2 5.2 1.6
9 5 2 5.1 1.2
9 -5 -2 4.7 1.6
9 -5 -2 7.5 1.7
9 -5 -2 3.9 1.5
-9 5 -2 6.5 1.8
0 6 2 438.06 55.59
0 -6 -2 371.76 55.49
0 6 -2 350.16 55.49
0 -6 2 347.77 55.49
0 -6 -2 303.47 55.49
0 6 2 376.76 55.59
0 6 -2 377.86 55.49
1 6 -2 138.09 22.2
1 6 -2 173.88 22.2
1 6 -2 149.49 22.2
-1 -6 -2 153.58 22.2
-1 -6 -2 127.89 22.3
1 6 -2 161.18 22.3
-1 -6 -2 147.69 22.2
-1 6 2 125.39 22.3
1 -6 2 139.29 22.3
-1 6 2 114.19 22.3
-1 6 2 150.78 22.3
-1 6 2 127.29 22.2
1 -6 2 145.99 22.3
1 -6 2 154.88 22.3
1 -6 2 146.29 22.3
-1 -6 -2 140.09 22.3
1 -6 -2 169.08 22.3
1 6 2 134.99 22.2
1 6 2 158.08 22.2
-1 6 -2 122.19 22.3
1 -6 -2 170.68 22.3
1 -6 -2 152.78 22.3
-1 -6 2 124.69 22.2
-1 -6 2 159.38 22.2
1 -6 -2 131.19 22.3
1 6 2 178.48 22.3
-1 6 -2 143.19 22.3
-1 -6 2 156.58 22.3
-1 -6 2 156.78 22.2
-1 6 -2 113.99 22.3
2 6 -2 1.5 0.5
-2 -6 -2 1.5 0.8
-2 6 2 0.3 0.9
-2 -6 -2 2.8 0.8
-2 -6 -2 0.7 0.6
-2 6 2 0 0.8
2 -6 2 0.7 0.8
2 -6 2 1.1 0.8
2 6 -2 1.8 0.7
-2 6 2 -0.2 1
2 6 -2 2 0.5
2 6 -2 2.8 0.6
2 -6 2 2 0.9
2 -6 2 0.9 0.8
-2 6 2 0.6 0.7
-2 -6 2 1 0.6
2 6 2 1.7 0.5
-2 6 -2 0.8 1
-2 -6 2 1.2 0.6
2 -6 -2 3.1 0.9
-2 -6 2 1.3 0.7
2 6 2 -0.4 0.7
2 -6 -2 1.6 1
2 6 2 1.8 0.9
2 6 2 2.1 0.6
-2 6 -2 1 0.8
-2 6 -2 1.5 0.9
2 -6 -2 1.3 0.8
-2 6 -2 2.1 0.9
-2 -6 2 2.5 0.9
2 -6 -2 0.8 0.8
-3 -6 -2 78.09 12.4
-3 6 2 83.09 12.5
-3 -6 -2 81.39 12.4
-3 6 2 71.79 12.5
3 -6 2 80.09 12.5
3 6 -2 84.19 12.4
3 -6 2 80.39 12.5
3 -6 2 81.09 12.5
3 6 -2 85.79 12.3
-3 -6 -2 78.49 12.4
-3 6 2 67.79 12.5
-3 -6 -2 80.89 12.4
3 -6 2 84.79 12.5
-3 6 2 77.29 12.5
3 6 2 77.89 12.4
3 6 2 83.49 12.4
-3 6 -2 79.99 12.5
3 -6 -2 76.59 12.5
3 -6 -2 81.39 12.5
3 6 2 70.79 12.4
-3 6 -2 73.59 12.5
-3 6 -2 81.49 12.5
-3 -6 2 94.59 12.4
-3 -6 2 82.39 12.4
-3 -6 2 84.89 12.3
-3 6 -2 86.59 12.5
3 -6 -2 83.69 12.5
-3 -6 2 78.39 12.3
4 -6 2 2.9 1.1
4 -6 2 3.4 1.1
-4 6 2 3.1 1.1
-4 -6 -2 4.2 0.9
-4 -6 -2 4.8 0.9
-4 -6 -2 6.2 0.9
-4 -6 -2 5.3 0.9
4 -6 2 4.2 1.2
-4 6 2 3 1.1
4 -6 2 3 1.2
-4 6 2 3.2 1.2
-4 6 2 5.9 1.4
-4 6 -2 1.8 1.1
4 -6 -2 2.9 1.1
4 -6 -2 5.1 1.3
4 -6 -2 3.6 1.2
-4 6 -2 2 1.2
4 6 2 3.3 0.8
4 6 2 5.6 1.1
-4 6 -2 4.6 1.2
4 -6 -2 2.9 1.2
-4 6 -2 3.2 1.3
-5 -6 -2 40.5 6.2
-5 -6 -2 41.4 6.2
-5 -6 -2 44 6.2
5 -6 2 32.1 6.5
5 -6 2 40.1 6.5
-5 6 2 46.8 6.5
-5 -6 -2 39.3 6.2
-5 6 2 47.4 6.7
5 -6 2 35.8 6.5
5 -6 2 36.1 6.5
5 -6 -2 31.8 6.4
-5 6 -2 40.1 6.6
-5 6 -2 40 6.5
5 -6 -2 46.5 6.7
5 6 2 43 6.3
-5 6 -2 35.7 6.5
5 6 2 39.3 6.2
-5 6 -2 45.1 6.6
5 -6 -2 38 6.7
-6 6 2 0.4 1.1
-6 -6 -2 1.3 0.6
6 -6 2 0.7 1
-6 -6 -2 1.9 0.6
6 -6 2 0.5 0.8
-6 -6 -2 1.8 0.6
6 -6 2 0.1 0.8
-6 6 2 1.9 1.1
6 -6 2 -0.1 0.7
-6 6 2 1.3 1
-6 6 2 1.4 1
-6 -6 -2 -0.4 0.6
-6 6 -2 0.2 0.9
-6 6 -2 2.2 1.2
6 -6 -2 0.4 0.9
6 -6 -2 -0.3 0.8
6 -6 -2 2.4 1.1
-6 6 -2 3 1.2
6 -6 -2 2.1 1.1
6 6 2 0.3 0.5
6 6 2 2.7 0.7
7 -6 2 37.7 5.7
-7 6 2 31.4 5.6
-7 6 2 28.9 5.6
7 -6 2 29.7 5.5
-7 6 2 26.9 5.5
7 -6 2 30.7 5.6
-7 6 -2 36.5 5.7
-7 6 -2 34 5.7
7 -6 -2 32.4 5.7
7 -6 -2 25.7 5.5
7 -6 -2 37.4 5.7
7 -6 -2 36.2 5.5
7 6 2 35 5.3
7 6 2 38.7 5.2
-8 6 2 -0.2 1.1
8 -6 2 1.3 1.1
-8 6 2 0.3 1.2
8 -6 2 0.6 1
8 -6 2 1.4 1
8 -6 -2 -0.7 0.9
8 -6 -2 0.9 1.1
-8 6 -2 1.4 1.3
8 -6 -2 1.1 1.1
-8 6 -2 1 1.1
0 7 -2 -0.5 0.7
0 7 2 -0.4 0.5
0 -7 -2 0.3 0.7
0 -7 2 -0.7 0.8
0 -7 2 0.5 0.8
0 -7 2 -1.4 0.6
0 -7 -2 -0.4 0.7
0 7 -2 0.7 0.6
0 7 2 -0.2 0.8
0 -7 2 0 0.9
0 -7 -2 0.1 1
0 7 -2 0.8 0.7
0 7 2 0.8 1
0 -7 -2 -0.2 0.9
1 -7 2 224.68 39
1 -7 2 276.67 39
-1 7 2 271.97 39
1 -7 2 235.38 39
1 7 -2 263.07 39
1 -7 2 253.47 39
-1 -7 -2 257.37 39.1
-1 7 2 264.27 39.1
-1 -7 -2 261.57 39
1 7 -2 250.17 39
1 7 -2 275.77 39
-1 7 -2 293.07 39
-1 7 -2 235.08 39
1 7 2 271.77 39
-1 7 -2 254.37 39
-1 7 -2 239.78 39
-1 -7 2 242.18 39
1 -7 -2 266.87 39
1 -7 -2 246.68 39.1
1 -7 -2 279.67 39
1 7 2 245.08 39
1 -7 -2 212.88 39
2 -7 2 0.4 0.7
2 7 -2 0.1 0.5
2 7 -2 0.5 0.7
2 7 -2 0.7 0.4
2 -7 2 0 0.8
-2 -7 -2 0.5 0.6
-2 -7 -2 0.3 0.7
-2 7 2 -1 0.7
-2 7 2 0.3 0.9
2 -7 2 0.5 0.8
2 7 -2 -0.6 0.4
2 -7 2 0.2 0.8
-2 7 2 -1 0.6
-2 7 2 1 0.9
2 -7 -2 1 0.9
-2 7 -2 0.9 0.8
2 7 2 0.2 0.8
-2 -7 2 0.4 0.5
-2 7 -2 0.2 1
2 7 2 0.2 0.6
2 7 2 0.3 0.4
-2 -7 2 0.6 0.7
-2 7 -2 -0.5 0.6
2 -7 -2 0 0.8
-2 -7 2 0.2 0.6
-2 7 -2 0.9 0.8
-2 -7 2 -1.7 0.7
3 -7 2 185.18 26.7
3 -7 2 178.28 26.7
3 7 -2 179.88 26.6
-3 -7 -2 187.38 26.6
3 -7 2 166.58 26.7
3 -7 2 180.48 26.7
-3 -7 -2 162.58 26.6
-3 7 2 148.09 26.6
-3 7 2 157.08 26.7
-3 -7 -2 195.18 26.6
3 7 -2 178.98 26.6
-3 7 2 164.18 26.7
-3 7 2 157.98 26.7
-3 7 -2 146.49 26.7
3 -7 -2 179.78 26.7
3 -7 -2 158.28 26.7
3 -7 -2 179.78 26.7
3 7 2 168.18 26.6
-3 7 -2 180.88 26.7
-3 -7 2 166.88 26.6
-3 7 -2 188.78 26.7
-3 -7 2 167.38 26.6
3 7 2 177.38 26.6
3 -7 -2 176.08 26.7
-3 7 -2 161.78 26.7
-3 -7 2 183.08 26.6
-3 -7 2 178.18 26.6
3 7 2 169.68 26.6
3 7 2 211.48 26.6
-4 -7 -2 2.3 0.6
4 7 -2 0.4 0.6
-4 -7 -2 1.3 0.6
4 -7 2 1.1 0.8
-4 -7 -2 2.4 0.7
4 -7 2 1 0.9
-4 7 2 2.4 1
-4 7 2 3.8 1.1
-4 -7 -2 0.5 0.7
4 -7 2 -0.1 0.7
4 -7 2 0 0.8
-4 -7 2 1.5 0.6
-4 -7 2 0.4 0.6
4 -7 -2 0.6 1
-4 7 -2 1.5 0.8
-4 -7 2 1.7 0.6
4 7 2 0.2 0.5
4 -7 -2 1.9 0.9
-4 7 -2 0.8 0.9
-4 7 -2 0.1 1
4 7 2 1.8 0.9
-4 -7 2 1.1 0.5
-4 7 -2 -1.3 0.9
5 -7 2 1.4 0.9
-5 7 2 -0.4 1
-5 7 2 1 0.9
-5 -7 -2 0.2 0.6
-5 -7 -2 0.5 0.5
-5 7 2 -0.2 0.9
-5 -7 -2 0.1 0.5
5 -7 2 -0.1 0.8
-5 -7 -2 0.8 0.6
5 -7 2 0.7 0.8
5 -7 2 1 0.9
-5 7 2 0.1 1
-5 7 -2 0.7 0.9
-5 7 -2 -0.6 1
5 -7 -2 0.7 0.9
5 7 2 0.7 0.5
5 -7 -2 0.4 0.8
-5 7 -2 1.9 1
5 7 2 -0.1 0.8
5 -7 -2 1.7 1.1
-5 7 -2 -1.4 0.9
5 -7 -2 0.8 0.8
6 -7 2 34 5.9
6 -7 2 27 5.9
-6 -7 -2 34.3 5.6
-6 7 2 28.7 5.9
-6 -7 -2 37.9 5.6
-6 -7 -2 38.5 5.6
-6 7 2 34.5 6
-6 7 2 41.2 6
-6 -7 -2 38.8 5.6
-6 7 -2 35.1 6.1
6 7 2 38.4 5.6
6 7 2 43.4 5.7
6 -7 -2 30.6 5.9
6 -7 -2 41.8 6.2
-6 7 -2 33.8 6
6 -7 -2 29.1 5.9
6 -7 -2 30.9 5.9
-7 7 2 0.6 1.1
7 -7 2 0.3 1
7 -7 2 -0.2 0.9
-7 7 2 0.6 1.1
-7 7 -2 -0.3 1.1
7 -7 -2 -1.1 0.9
7 -7 -2 0.3 1.1
7 7 2 0.7 0.8
7 -7 -2 -0.1 0.9
-7 7 -2 -0.3 1.1
8 -7 2 0.1 0.9
8 -7 2 0.2 1.2
-8 7 2 0.7 1.3
-8 7 2 0.9 1.2
8 -7 -2 1.1 1
-8 7 -2 1.3 1.3
-8 7 -2 -0.4 1.1
0 8 -2 143.59 22.9
0 8 -2 139.79 22.8
0 8 -2 172.98 22.9
0 -8 2 139.19 22.9
0 8 2 170.58 22.9
0 -8 -2 176.18 23
0 -8 -2 138.49 22.9
0 -8 -2 120.79 22.8
0 8 -2 139.39 22.9
0 -8 2 160.08 22.9
0 -8 -2 143.19 22.9
0 -8 2 146.59 22.9
0 -8 2 162.78 22.9
-1 -8 -2 394.66 59.49
1 8 -2 372.86 59.39
1 -8 2 438.16 59.49
-1 8 2 371.66 59.49
-1 8 2 356.26 59.49
1 -8 2 451.45 59.49
1 8 -2 368.96 59.49
-1 8 2 372.86 59.49
1 8 -2 416.76 59.49
-1 -8 -2 435.56 59.49
1 -8 2 424.16 59.49
-1 -8 -2 344.47 59.49
-1 8 2 419.86 59.49
-1 -8 -2 452.55 59.49
1 -8 2 375.06 59.49
1 8 2 332.77 59.49
1 -8 -2 420.86 59.49
1 8 2 341.37 59.39
-1 8 -2 400.16 59.49
-1 8 -2 408.26 59.49
1 8 2 375.36 59.39
-1 8 -2 430.86 59.49
-1 8 -2 451.25 59.49
-1 -8 2 366.66 59.49
1 8 2 346.57 59.39
1 -8 -2 378.36 59.49
1 -8 -2 363.56 59.49
-1 -8 2 378.26 59.49
1 -8 -2 363.16 59.49
-2 -8 -2 78.59 10.3
2 -8 2 63.39 10.4
-2 8 2 63.19 10.3
-2 -8 -2 75.69 10.4
-2 8 2 72.59 10.4
-2 8 2 69.99 10.5
2 8 -2 73.49 10.3
-2 -8 -2 67.99 10.3
2 -8 2 67.79 10.4
2 8 -2 68.29 10.3
2 -8 2 71.09 10.4
-2 8 2 61.29 10.4
-2 -8 -2 73.79 10.4
2 -8 2 60.89 10.4
2 8 -2 64.09 10.2
2 -8 -2 53.99 10.4
-2 8 -2 62.59 10.4
-2 8 -2 71.79 10.4
-2 8 -2 61.99 10.4
2 8 2 59.69 10.3
2 8 2 66.39 10.3
-2 8 -2 57.19 10.4
2 -8 -2 60.09 10.4
2 -8 -2 66.09 10.4
-2 -8 2 69.49 10.3
-2 -8 2 65.99 10.3
2 -8 -2 66.29 10.4
2 8 2 75.89 10.4
3 -8 2 6.1 1.5
-3 8 2 5.3 1.5
3 -8 2 5.3 1.5
3 8 -2 10.4 1.5
3 8 -2 7.1 1.4
3 8 -2 8.4 1.3
3 -8 2 6.2 1.7
-3 -8 -2 9.1 2.2
-3 -8 -2 11.2 1.5
3 8 -2 6.6 1.2
3 -8 2 2.7 1.4
-3 8 2 6.1 1.6
-3 -8 -2 7.5 1.4
-3 -8 2 8.7 1.5
-3 -8 2 9.7 1.5
-3 8 -2 5.5 1.6
-3 -8 2 10.2 1.4
-3 -8 2 7.3 1.3
-3 8 -2 6.7 1.6
3 -8 -2 8.5 1.8
3 -8 -2 6.2 1.6
-3 8 -2 5.2 1.6
3 8 2 5.6 1.3
3 8 2 7.2 1.4
-3 8 -2 4.2 1.4
3 8 2 5.3 1.5
4 -8 2 65.59 11.8
4 8 -2 83.19 11.6
4 -8 2 74.39 11.9
4 8 -2 79.39 11.6
-4 -8 -2 64.39 11.6
-4 8 2 77.59 11.9
-4 8 2 62.89 11.8
-4 -8 -2 90.09 11.7
-4 8 2 71.09 11.8
-4 -8 -2 75.59 11.7
-4 8 2 69.49 11.8
4 -8 -2 61.59 11.8
4 -8 -2 69.89 11.8
-4 -8 2 77.59 11.6
4 8 2 75.19 11.6
4 -8 -2 81.49 11.9
-4 8 -2 75.59 11.9
-4 -8 2 83.19 11.7
-4 8 -2 71.79 11.8
-4 8 -2 80.99 11.9
4 8 2 72.39 11.6
4 -8 -2 76.89 11.8
4 8 2 81.29 11.7
4 8 2 73.69 11.7
-4 -8 2 79.29 11.6
-4 -8 2 81.99 11.6
-4 8 -2 74.89 11.8
5 -8 2 14.1 2.7
-5 8 2 11 2.6
5 -8 2 12.8 2.6
5 -8 2 10.9 2.5
-5 8 2 8.3 2.8
5 -8 2 13.7 2.8
-5 -8 -2 19.1 2.4
-5 -8 -2 11.1 2.2
-5 8 2 10.2 2.6
-5 -8 -2 14.9 2.3
-5 8 2 17.5 2.8
5 -8 -2 11.3 2.5
-5 8 -2 10.5 2.6
-5 8 -2 11.8 2.6
-5 -8 2 21.3 2.4
-5 8 -2 14 2.7
5 -8 -2 16 2.8
5 8 2 12.6 2.4
5 -8 -2 10.4 2.6
5 -8 -2 21.3 3
-6 8 2 20 3.7
6 -8 2 20.4 3.5
-6 -8 -2 21.8 3.3
-6 8 2 22.3 3.8
-6 -8 -2 20 3.3
6 -8 2 16.9 3.5
-6 -8 -2 18.7 3.2
6 8 2 23.1 3.4
6 -8 -2 14.4 3.5
-6 8 -2 21 3.6
6 -8 -2 17.5 3.5
-6 8 -2 28.1 3.9
6 -8 -2 19.8 3.7
7 -8 2 21.2 3.6
-7 8 2 29.2 4
-7 8 2 23.1 3.8
7 -8 2 22.4 3.6
7 -8 -2 20.3 3.6
7 -8 -2 11.5 3.4
-7 8 -2 20.7 3.7
-8 8 2 0.5 1.4
8 -8 2 1.9 1.3
-8 8 2 1.9 1.4
-8 8 -2 2 1.3
-8 8 -2 1.3 1.3
8 -8 -2 3 1.3
8 -8 -2 0.6 1.3
0 9 2 0 0.6
0 -9 2 0.7 0.8
0 9 -2 -0.4 0.5
0 -9 2 -1.4 0.8
0 -9 2 -0.6 0.6
0 -9 -2 0 0.8
0 9 2 0 0.5
0 9 2 1.6 1.1
0 -9 -2 0.7 1
0 9 -2 0.2 0.6
0 9 -2 -0.8 0.9
0 -9 -2 -0.7 1
0 9 -2 -0.8 0.7
0 -9 -2 0.3 0.7
0 9 2 0.2 0.8
0 -9 2 -0.8 0.9
1 9 -2 3 1
1 -9 2 2 1
-1 -9 -2 2.8 1
1 9 -2 4.7 1
1 9 -2 3.6 0.9
-1 9 2 4.1 1.3
-1 9 2 2.5 0.9
-1 9 2 1.7 0.9
-1 9 2 3.3 1.1
-1 -9 -2 1.6 1
-1 -9 -2 1.5 0.9
1 -9 2 2.2 1.2
-1 -9 -2 1.1 1.1
1 -9 2 2.6 1.2
1 -9 2 2.7 1
1 9 -2 2 1
-1 9 -2 1.5 1.1
-1 -9 2 3.5 1.2
1 -9 -2 2.6 1.3
-1 9 -2 5 1.1
-1 9 -2 3.7 1.1
1 -9 -2 4.2 1.2
1 9 2 3.7 1.1
1 9 2 3.4 0.9
-1 -9 2 2.7 1.1
-1 -9 2 1.9 0.9
1 9 2 3.2 1.2
-1 -9 2 2.2 0.9
1 -9 -2 3.3 1.2
1 -9 -2 2.4 1
-2 -9 -2 55.19 6.3
2 -9 2 34.7 6.3
2 9 -2 46.8 6.2
-2 -9 -2 37.5 6.2
-2 -9 -2 37.7 6
2 9 -2 46.7 6
2 -9 2 28.4 6.3
-2 -9 -2 51.09 6.3
-2 9 2 42 6.3
-2 9 2 24.4 6.1
-2 9 2 30.1 6.1
2 -9 2 37.1 6.3
2 -9 2 35.6 6.3
-2 9 2 35.4 6.3
2 9 -2 33.4 6
-2 9 -2 56.59 6.5
-2 -9 2 37.2 6
-2 -9 2 40.6 6.2
-2 -9 2 39.8 6
-2 -9 2 38.6 6
2 9 2 41.5 6
2 9 2 40.9 6
-2 9 -2 24.8 6.2
2 -9 -2 42.7 6.3
2 9 2 47.7 6.2
-2 9 -2 30.4 6.2
2 9 2 37.5 6
2 -9 -2 37.8 6.3
-2 9 -2 29.8 6.1
2 -9 -2 48.9 6.4
2 -9 -2 33.7 6.2
3 -9 2 344.57 53.59
3 9 -2 337.87 53.39
3 9 -2 326.07 53.39
3 9 -2 335.07 53.39
3 -9 2 324.57 53.59
-3 -9 -2 347.57 53.39
-3 9 2 373.86 53.49
3 -9 2 356.96 53.49
-3 9 2 364.56 53.59
-3 9 2 386.76 53.59
-3 9 2 380.46 53.49
-3 -9 -2 353.26 53.49
-3 -9 -2 404.86 53.49
3 9 2 388.96 53.49
3 -9 -2 329.67 53.49
-3 -9 2 352.36 53.39
3 -9 -2 302.27 53.49
3 9 2 349.96 53.39
3 9 2 381.96 53.49
-3 9 -2 384.66 53.59
-3 9 -2 404.06 53.59
3 -9 -2 313.67 53.49
-3 9 -2 321.57 53.49
3 -9 -2 290.27 53.49
-3 9 -2 324.67 53.49
3 9 2 358.36 53.39
4 9 -2 33.9 4.2
-4 9 2 24.1 4.4
4 -9 2 25.3 4.3
4 9 -2 26.9 4.1
-4 -9 -2 39.3 4.3
4 -9 2 18.7 4.2
-4 9 2 18 4.3
-4 9 2 21.4 4.3
-4 9 2 22.4 4.3
-4 -9 -2 19.7 4.1
-4 -9 -2 24.4 4.2
4 -9 2 25.4 4.5
-4 -9 -2 25.3 4.1
4 -9 2 21.8 4.3
4 9 2 31.7 4.1
-4 -9 2 25.7 4.1
-4 9 -2 19.4 4.2
-4 -9 2 24.3 4.1
-4 -9 2 33.5 4.1
4 9 2 26.2 4.2
-4 -9 2 25.1 4.1
-4 9 -2 26.4 4.4
4 -9 -2 24.1 4.5
4 -9 -2 22.3 4.4
4 -9 -2 18 4.2
-4 9 -2 30.8 4.5
-4 9 -2 27.6 4.4
-5 -9 -2 24.4 4
-5 9 2 19.2 4.2
-5 -9 -2 32.2 4.1
-5 -9 -2 22.9 3.9
5 9 -2 29.1 3.9
5 9 -2 23.5 3.8
-5 9 2 21 4.2
5 -9 2 19.4 4.2
5 -9 2 29.1 4.4
-5 9 -2 22 4.3
-5 -9 2 25.5 3.8
5 -9 -2 20 4.1
-5 9 -2 23.8 4.3
-5 -9 2 31.9 4
-5 -9 2 21.8 3.9
-5 -9 2 24.5 3.8
5 9 2 23.6 4
5 -9 -2 21.2 4.2
6 -9 2 -0.5 1
6 -9 2 -0.7 0.9
-6 9 2 1.8 1.3
-6 9 2 0.3 1.2
6 9 2 -0.1 0.9
-6 9 -2 1.3 1.1
6 -9 -2 1.2 1
6 9 2 1.1 0.6
6 -9 -2 -0.8 1.2
-6 9 -2 -0.4 1.1
-7 9 2 46.7 7.7
-7 9 2 43.7 7.7
7 -9 2 44.6 7.6
7 -9 2 35.3 7.5
7 9 2 52.39 7.2
-7 9 -2 57.79 7.8
7 -9 -2 45.1 7.7
-7 9 -2 47.3 7.7
7 -9 -2 39.8 7.6
8 -9 2 16.9 3.2
8 -9 2 18.6 3.4
-8 9 2 18.2 3.5
-8 9 2 19.6 3.5
8 -9 -2 14.2 3.2
-8 9 -2 22.3 3.7
8 -9 -2 17.2 3.2
-8 9 -2 13.6 3.2
0 -10 2 47.7 6.6
0 10 -2 41.2 6.6
0 -10 -2 47.2 7
0 10 -2 43.1 6.5
0 -10 -2 32.7 6.7
0 -10 2 41.3 6.6
0 -10 -2 42.5 6.8
0 -10 -2 39.3 6.8
0 10 -2 32.2 6.6
0 10 2 44.5 6.8
0 10 2 40.9 6.5
0 10 2 39 6.5
0 -10 2 56.69 7
0 10 -2 48.2 6.8
0 -10 2 40 6.7
-1 10 2 37.2 7
-1 -10 -2 47.4 6.8
1 10 -2 38.6 6.7
1 10 -2 35.6 6.7
-1 -10 -2 31.9 6.8
1 10 -2 51.09 7
-1 10 2 35.2 6.8
-1 10 2 41 7
1 -10 2 57.99 7.2
-1 10 2 44.2 6.8
1 -10 2 57.19 7.2
1 10 -2 38.4 6.8
-1 -10 -2 45.3 6.8
-1 -10 -2 52.39 6.8
-1 -10 2 59.89 7.1
1 -10 -2 45.4 6.8
1 10 2 43.3 6.7
-1 10 -2 45.1 6.8
1 -10 -2 57.89 7.2
-1 10 -2 41.3 7
1 10 2 42.4 7
-1 -10 2 47.9 7
1 -10 -2 39.2 7
-1 -10 2 38.3 6.7
1 10 2 34 6.8
-1 -10 2 44.8 6.8
-1 10 -2 52.39 7.7
1 -10 -2 47.2 7
1 10 2 39.5 6.9
2 -10 2 1.4 0.9
-2 10 2 2.6 1.1
-2 -10 -2 3.4 1.1
2 10 -2 2 1
2 -10 2 1 1
-2 10 2 2.2 1
2 -10 2 -0.2 1
2 10 -2 -0.3 0.7
-2 -10 -2 2 0.9
2 10 -2 1.4 0.7
-2 -10 -2 1.5 1.1
-2 10 2 3.2 1.2
2 -10 2 0.7 1
-2 10 2 3.4 1.1
-2 -10 -2 2.2 0.8
2 10 2 1.5 0.7
2 10 2 2.2 0.7
-2 -10 2 3.2 0.9
2 -10 -2 1.8 1.2
-2 10 -2 1.3 1
2 -10 -2 0.9 0.9
-2 -10 2 1.4 0.8
-2 10 -2 1.9 0.9
-2 -10 2 0.3 0.8
-2 10 -2 1 0.8
2 -10 -2 2 1.3
2 10 2 1 0.9
2 10 2 0.3 1
-2 10 -2 1.1 1.1
2 -10 -2 1.3 0.9
-3 10 2 66.29 10.3
3 -10 2 57.49 10.2
3 -10 2 63.19 10.2
-3 -10 -2 70.29 10.2
-3 -10 -2 70.59 10.1
3 -10 2 56.59 10.2
-3 10 2 60.79 10.2
3 10 -2 69.09 10.1
-3 -10 -2 72.89 10.2
-3 10 2 73.09 10.3
3 10 -2 74.19 10.2
-3 10 2 64.69 10.2
-3 -10 -2 69.89 10.1
3 -10 2 71.19 10.3
3 10 -2 79.59 10.1
3 10 -2 62.59 10
-3 10 -2 54.09 10.2
3 -10 -2 74.59 10.4
-3 10 -2 63.39 10.2
-3 -10 2 56.39 10.1
-3 -10 2 80.09 10.2
3 10 2 66.89 10.1
3 10 2 66.29 10.1
-3 -10 2 51.89 10.1
3 -10 -2 61.59 10.2
-3 10 -2 70.49 10.3
3 10 2 76.59 10.2
-3 10 -2 64.99 10.3
-3 -10 2 57.09 10.1
3 -10 -2 59.89 10.2
3 -10 -2 53.79 10.2
3 10 2 60.99 10.1
-4 -10 -2 6.3 1.3
4 -10 2 6.3 1.5
4 -10 2 2.7 1.2
-4 -10 -2 5 1.1
-4 10 2 3.2 1.3
-4 -10 -2 5.6 1.1
-4 -10 -2 2 1.1
-4 10 2 4.1 1.5
4 10 2 2.6 0.9
-4 10 -2 2.7 1.3
4 10 2 2.6 1.2
-4 -10 2 4.3 1.2
-4 -10 2 4 1
4 10 2 3.9 1.3
-4 10 -2 2.1 1.3
4 -10 -2 3.2 1.3
-4 -10 2 3.6 0.9
5 -10 2 15 3.3
-5 -10 -2 16.4 3.1
-5 10 2 20.7 3.6
-5 -10 -2 20.3 3.1
-5 -10 -2 19.1 3.2
-5 -10 -2 25.7 3.2
5 10 -2 16.9 2.9
-5 10 2 19.3 3.4
5 -10 2 14.3 3.3
5 10 -2 20.9 3.1
5 10 2 16.2 3.2
5 -10 -2 11.2 3.1
-5 -10 2 21.8 3.1
-5 10 -2 16.8 3.4
-5 -10 2 19.8 3
-5 -10 2 21.1 3
5 10 2 20.3 3.1
5 -10 -2 11.5 3.2
-5 10 -2 14.7 3.4
-6 10 2 0.5 1.3
-6 10 2 0.6 1.3
6 -10 2 0.9 1
6 -10 2 0.3 1.1
6 10 2 0.4 1
-6 10 -2 0.7 1.3
6 -10 -2 0.8 1
6 -10 -2 0.7 1.1
-6 10 -2 0.4 1
-7 10 2 0 1.3
-7 10 2 -2.4 1
7 -10 2 1.5 1.4
7 -10 2 0.4 1
-7 10 -2 -0.8 1.3
-7 10 -2 -1 1.1
7 10 2 1.2 1
7 -10 -2 0.5 1.2
7 -10 -2 1.7 1.1
0 -11 -2 0.5 1.2
0 -11 -2 -1 0.7
0 11 -2 0.2 0.7
0 -11 2 0.3 0.9
0 11 2 0.6 1.1
0 11 -2 0.4 1
0 -11 2 1 0.9
0 11 2 0.6 0.9
0 11 2 0.5 0.7
0 11 2 -0.3 0.6
0 -11 -2 -0.9 1
0 -11 -2 -0.6 0.8
0 11 -2 -0.8 0.6
-1 -11 -2 63.39 9.8
-1 11 2 76.39 10
1 -11 2 62.69 9.8
1 11 -2 62.29 9.7
1 11 -2 56.99 9.8
-1 11 2 107.69 10.7
1 11 -2 56.89 9.7
-1 11 2 58.39 9.8
1 -11 2 58.49 9.8
1 11 -2 71.79 9.8
1 -11 2 60.99 10
-1 11 2 65.69 9.8
1 -11 2 71.29 9.9
1 -11 -2 63.09 9.9
-1 11 -2 62.59 9.8
-1 -11 2 64.69 9.8
1 11 2 60.89 9.7
-1 -11 2 57.89 9.8
-1 -11 2 56.99 9.8
-1 -11 2 82.09 9.8
1 11 2 60.39 9.7
-1 11 -2 61.69 9.9
1 -11 -2 55.79 9.8
1 -11 -2 51.59 10
1 11 2 60.69 9.8
1 -11 -2 64.59 9.8
-1 11 -2 65.09 9.8
-1 11 -2 54.79 9.8
2 11 -2 86.49 11.8
-2 -11 -2 82.89 11.9
-2 -11 -2 68.39 11.8
2 -11 2 74.09 11.9
2 -11 2 81.09 11.9
2 11 -2 99.89 11.8
2 11 -2 84.29 11.9
-2 11 2 73.99 11.9
-2 11 2 81.99 12
-2 -11 -2 87.69 11.9
-2 11 2 70.99 12
-2 -11 -2 70.29 11.9
2 11 -2 86.29 11.8
-2 11 2 66.49 11.9
2 -11 2 81.19 12.1
2 -11 2 80.89 11.9
-2 -11 2 75.89 11.9
2 -11 -2 62.19 11.9
2 11 2 85.29 11.9
2 11 2 80.39 11.9
-2 11 -2 77.89 11.9
-2 11 -2 70.79 11.9
-2 -11 2 74.89 11.8
-2 -11 2 60.69 11.9
-2 -11 2 68.89 11.8
-2 11 -2 67.69 12
2 11 2 71.59 11.9
2 -11 -2 60.69 12.1
-2 11 -2 73.39 11.9
2 -11 -2 79.49 11.9
2 -11 -2 72.19 11.9
3 -11 2 25.7 5.6
-3 -11 -2 33 5.5
3 11 -2 37.8 5.5
3 11 -2 36.1 5.4
3 11 -2 38.2 5.6
-3 11 2 33.3 5.7
3 -11 2 35 5.7
-3 -11 -2 28 5.6
-3 -11 -2 34.1 5.7
-3 -11 -2 38.3 5.6
-3 11 2 26.7 5.6
3 11 2 35.4 5.4
-3 -11 2 54.49 5.8
3 -11 -2 22.2 5.5
-3 11 -2 37.1 5.8
-3 11 -2 36.8 5.9
-3 -11 2 32.3 5.6
-3 -11 2 38.1 5.6
3 11 2 44.7 5.7
3 11 2 31.5 5.4
3 11 2 33.5 5.6
3 -11 -2 26.4 5.6
-3 -11 2 37.8 5.4
4 -11 2 6.6 1.8
4 11 -2 12.7 1.7
4 11 -2 8 1.7
-4 11 2 4.3 1.9
-4 -11 -2 7.8 1.8
4 -11 2 8.8 2
-4 -11 -2 6.4 1.7
4 11 -2 8.3 1.4
4 11 -2 4.8 1.4
-4 -11 -2 12.1 1.8
-4 -11 -2 10.9 1.7
-4 11 2 8.7 2
4 -11 -2 7.3 1.8
-4 11 -2 7.9 2
-4 -11 2 5.6 1.7
4 11 2 6.4 1.6
4 -11 -2 7 1.9
-4 -11 2 10.4 1.8
4 11 2 10.1 1.8
-4 11 -2 8.5 2.1
-4 -11 2 9.2 1.7
-4 -11 2 9.9 1.7
4 11 2 12.8 2.1
-5 -11 -2 15 2.9
5 -11 2 12.8 3
-5 11 2 15.2 3.3
5 -11 2 12.9 3.1
-5 -11 -2 16.2 3
-5 11 2 14.5 3.2
-5 -11 -2 21 3
5 11 -2 12.9 2.9
5 11 -2 22.1 3
-5 -11 -2 23 3.1
-5 11 -2 17.1 3.3
-5 11 -2 14.2 3.2
5 11 2 30.4 3.3
5 -11 -2 14.8 3.1
5 -11 -2 13 3.1
-5 -11 2 25.3 3.1
5 11 2 14.5 2.8
6 -11 2 5.9 1.7
6 -11 2 3.7 1.5
-6 11 2 7.2 1.9
-6 11 2 3.3 1.6
6 -11 -2 4.3 1.6
6 11 2 6.4 1.2
-6 11 -2 3.4 1.5
6 11 2 6.7 1.5
6 -11 -2 3.4 1.4
7 -11 -2 0.1 1.1
7 11 2 1.6 1.1
-7 11 -2 -2.2 1.1
0 -12 2 3.7 1.1
0 -12 2 2.3 1.2
0 -12 2 2.5 1.1
0 12 -2 2.1 1.2
0 -12 -2 1.6 1.4
0 -12 2 3.7 1.6
0 12 -2 5 1.3
0 12 2 1.4 1.2
0 -12 -2 3.9 1.5
0 -12 -2 1.8 1.1
0 -12 -2 4.2 1.2
0 12 -2 0.9 1
0 12 2 2.4 0.9
0 12 2 1.7 0.9
0 12 -2 2.7 0.9
0 12 2 3.4 1.2
-1 12 2 51.49 7.4
-1 -12 -2 42.6 7.2
1 -12 2 48.5 7.4
1 -12 2 46.3 7.4
1 12 -2 50.59 7.4
1 -12 2 53.69 7.4
-1 -12 -2 40.8 7.2
-1 12 2 40.1 7.3
1 12 -2 51.79 7.1
-1 12 2 46.8 7.1
-1 -12 -2 39.8 7.3
-1 -12 -2 56.99 7.5
1 12 -2 48.1 7.1
1 -12 2 57.49 7.6
-1 -12 2 45.4 7.2
-1 -12 2 31.9 7.1
1 -12 -2 45 7.5
1 12 2 36.5 7.1
1 -12 -2 43.9 7.3
-1 12 -2 43.6 7.3
-1 -12 2 46.9 7.4
-1 12 -2 50.99 7.4
1 12 2 40.4 7
1 12 2 38.9 7.3
1 -12 -2 45 7.3
-1 12 -2 36.2 7.3
-1 -12 2 58.89 7.5
-1 12 -2 36.7 7.1
1 12 2 54.79 7.4
2 12 -2 2.5 1.3
-2 12 2 3.9 1.6
2 12 -2 5.5 1.1
-2 12 2 7.9 1.7
2 -12 2 5 1.5
2 12 -2 4.9 1.2
-2 -12 -2 4.2 1.4
-2 -12 -2 9.7 1.7
2 12 -2 6.8 1.4
2 -12 -2 5.3 1.4
2 -12 -2 4.1 1.3
2 12 2 5.4 1.5
-2 -12 2 2.8 1.2
-2 -12 2 5.2 1.4
-2 -12 2 3.6 1.2
2 12 2 4.9 1.1
2 12 2 6.9 1.3
-2 12 -2 3.2 1.3
-2 -12 2 3.2 1.4
-2 12 -2 3.3 1.5
3 12 -2 0.2 0.9
-3 -12 -2 3 1
3 12 -2 1.1 0.9
-3 -12 -2 2 1.1
-3 -12 -2 2.5 1
3 12 -2 1.4 0.6
3 -12 2 0.4 1
-3 12 2 1.8 1.2
-3 -12 -2 1.4 1.2
-3 12 2 -1.3 1.1
3 12 -2 0.3 0.7
3 -12 2 0.1 0.9
3 12 2 -0.2 1.1
3 12 2 0.4 1
-3 -12 2 1.7 0.9
-3 12 -2 2.1 1.1
3 -12 -2 1.8 1.2
3 12 2 -0.4 0.7
-3 -12 2 2.3 0.9
-3 12 -2 1.5 1.3
3 -12 -2 0.4 0.8
-3 -12 2 1 1
-3 -12 2 2.3 1.2
3 12 2 0.5 0.6
4 -12 2 -0.2 1
-4 12 2 0.3 1.3
4 12 -2 0.8 0.6
4 12 -2 0.2 0.5
-4 -12 -2 -0.3 0.8
-4 -12 -2 -0.2 0.8
-4 -12 -2 -0.3 1.1
4 12 -2 0.3 0.7
-4 12 2 0.1 1.3
4 -12 2 1.8 1
4 12 -2 0.9 1
-4 -12 -2 -0.6 1
4 12 2 0.8 0.9
-4 -12 2 -1.1 0.7
4 -12 -2 0.5 1
4 12 2 -2.1 1.1
4 12 2 1 0.6
-4 -12 2 0.7 0.8
-4 -12 2 1 1.2
4 -12 -2 -0.3 1.1
-4 12 -2 -2.3 1.2
4 12 2 0.2 0.6
-4 -12 2 -1.9 0.9
-4 12 -2 -1.1 1.1
-5 -12 -2 96.39 13.4
5 12 -2 85.99 13.3
-5 -12 -2 82.19 13.3
-5 12 2 77.79 13.5
5 12 -2 81.89 13.3
-5 12 2 78.99 13.5
5 12 2 90.69 13.2
5 -12 -2 79.39 13.5
-5 12 -2 81.89 13.5
5 12 2 107.59 13.4
5 -12 -2 68.39 13.4
5 12 2 93.09 13.3
-5 12 -2 91.59 13.6
6 12 -2 3 1
6 12 -2 2.2 0.8
6 12 2 1.4 1.3
6 -12 -2 3.2 1.3
6 12 2 1.8 0.9
-7 12 2 4.7 1.8
7 -12 2 2.2 1.4
7 -12 2 10.1 2
-7 12 2 6.6 1.9
7 12 2 6.5 1.9
-7 12 -2 4 1.7
-7 12 -2 4.4 1.7
7 -12 -2 3.6 1.5
7 -12 -2 2 1.6
7 12 2 8.6 1.6
0 -13 2 1.4 1
0 13 2 0.4 0.7
0 13 -2 0.5 0.7
0 -13 2 1.1 0.9
0 -13 -2 -0.4 0.8
0 13 2 0.9 1.2
0 13 2 -0.6 1.1
0 13 2 -0.2 0.8
0 13 -2 -0.5 1
0 -13 2 1.1 1.5
0 13 -2 -0.1 0.6
0 13 -2 0 0.8
1 13 -2 3.7 1.3
1 13 -2 5.8 1.2
-1 -13 -2 7.6 1.6
-1 13 2 4.4 1.5
1 13 -2 3.6 1.4
-1 -13 -2 4.3 1.6
-1 -13 -2 6.5 1.5
1 13 -2 6.5 1.4
1 -13 2 5.7 1.5
1 -13 2 4.1 1.4
-1 13 2 4.9 1.6
-1 -13 -2 4.8 1.6
-1 -13 2 4.3 1.4
-1 -13 2 7.1 1.6
1 13 2 4.6 1.2
1 13 2 2 1.4
1 -13 -2 3.5 1.3
-1 13 -2 3.3 1.5
1 13 2 2.2 1.1
-1 13 -2 5.2 1.5
-1 -13 2 2.6 1.2
-1 -13 2 5.4 1.7
1 13 2 7.8 1.5
1 -13 -2 3.3 1.3
2 13 -2 36 5.9
-2 13 2 34.3 6
2 13 -2 33 5.8
-2 13 2 26.6 5.9
-2 -13 -2 47.1 6.2
2 -13 2 28.7 5.9
-2 -13 -2 42.5 6
2 13 -2 41.4 5.9
-2 -13 -2 35.8 6
-2 -13 -2 33.2 5.8
-2 -13 2 33.1 5.9
2 -13 -2 29.4 5.9
-2 13 -2 34.9 6
2 13 2 41.3 5.9
2 13 2 37.2 5.8
2 13 2 43.8 6
2 13 2 32.4 6
-2 13 -2 22.4 5.9
-2 -13 2 49.4 6.1
2 -13 -2 42.5 6.1
-2 -13 2 25.8 5.8
-2 -13 2 46.6 5.8
-3 -13 -2 7.1 1.7
3 13 -2 5.4 1.4
3 -13 2 6.6 1.8
3 13 -2 7.9 1.8
3 13 -2 9.5 1.7
-3 -13 -2 6.1 1.9
3 -13 2 5.5 1.8
3 13 -2 10.1 1.7
-3 13 2 7.1 1.9
-3 -13 -2 12.6 2
-3 13 2 2.5 1.7
-3 -13 2 9 2
3 13 2 8.3 2.1
3 13 2 9.8 1.7
3 -13 -2 7.2 1.8
-3 -13 2 7.6 1.8
3 13 2 9.7 1.8
-3 13 -2 6.2 1.8
-3 13 -2 7.5 2
3 -13 -2 10.8 2
3 13 2 6.6 1.5
-3 -13 2 7.9 1.7
-4 13 2 0.2 1.3
4 13 -2 0.5 0.8
-4 13 2 -0.1 1.2
-4 -13 -2 1.1 1
-4 -13 -2 1.2 1.2
-4 -13 -2 0.4 1.1
4 13 -2 0.9 0.7
4 -13 2 1 1.1
4 13 -2 0.9 1.1
4 -13 2 1.8 1.2
-4 -13 2 -1.3 1.1
4 13 2 -0.2 0.7
4 13 2 2 1.4
-4 -13 2 0.1 1.1
4 -13 -2 0.1 1
-4 -13 2 0.6 0.8
4 13 2 1.5 0.9
-4 13 -2 -0.6 1.2
-4 13 -2 0.4 1.3
4 -13 -2 -0.8 1
-4 -13 2 1.3 0.9
4 13 2 0.3 0.7
5 13 -2 1.5 0.9
5 13 -2 4.1 1.2
5 13 2 2 0.9
5 -13 -2 2 1.2
5 13 2 3.1 1
5 13 2 1.9 1.4
-6 13 2 2.7 1.6
6 -13 2 2 1.4
6 -13 2 1 1.2
6 13 -2 2.8 1.1
-6 13 2 -0.5 1.2
6 13 2 1.6 0.9
-6 13 -2 0.9 1.5
6 13 2 -0.6 1.2
6 -13 -2 0.8 1.2
-6 13 -2 -0.6 1.2
6 -13 -2 1.5 1.4
0 -14 -2 25.3 3.5
0 -14 2 16.2 3.2
0 14 -2 18 3.2
0 14 2 14.5 3.2
0 -14 -2 19.9 3.4
0 -14 2 19 3.3
0 14 2 12.4 3.3
0 14 -2 17.9 3.4
1 14 -2 12.1 2.8
1 14 -2 15.2 3
-1 14 2 15.6 3
1 -14 2 13.5 2.8
-1 -14 -2 27.1 3.3
-1 -14 -2 14.9 2.8
-1 14 2 14.8 3.1
1 -14 2 16.5 3.1
1 14 -2 20.8 3
1 14 -2 15.5 2.8
1 -14 -2 14.5 2.9
1 -14 -2 13.4 2.9
1 14 2 15.9 3
1 14 2 11.9 3
1 14 2 14.6 2.8
-1 14 -2 17.5 3
-1 14 -2 11.6 3
-1 -14 2 20.6 3.1
-1 -14 2 13.5 2.8
2 14 -2 25.1 3.6
2 -14 2 16.5 3.4
-2 14 2 24.8 3.8
-2 14 2 20.3 3.7
2 -14 2 20.6 3.6
2 14 -2 21.7 3.5
-2 -14 -2 19.3 3.6
-2 -14 -2 21.5 3.5
2 14 -2 20.5 3.4
2 14 -2 21.4 3.6
-2 -14 -2 28.7 4.8
-2 -14 2 21.4 3.6
-2 -14 2 16.4 3.6
2 14 2 14.9 3.2
-2 14 -2 16.1 3.5
-2 -14 2 16.5 3.4
2 14 2 17.6 3.6
2 -14 -2 25.9 3.8
2 14 2 16.9 3.5
2 14 2 21.6 3.4
2 -14 -2 15.4 3.4
-2 -14 2 23.7 3.6
-3 14 2 1 1.2
3 14 -2 0.3 1.1
-3 14 2 -0.4 1.2
-3 -14 -2 1.9 1.3
-3 -14 -2 -1.3 0.9
3 14 -2 0.1 0.7
3 -14 2 -0.6 0.9
3 -14 2 -0.4 1.1
-3 -14 -2 -0.6 1.1
3 14 -2 1.2 0.9
3 14 -2 0.6 0.8
-3 -14 -2 -0.6 0.8
3 14 2 0.6 0.8
-3 -14 2 0.5 0.9
-3 -14 2 1.4 1.4
-3 -14 2 -1.6 0.7
3 -14 -2 0.5 1.1
-3 14 -2 -1.3 1.2
3 14 2 0.4 0.7
3 14 2 0.7 1.2
-3 14 -2 0.1 1.2
3 -14 -2 -0.7 0.9
4 14 -2 18.1 2.9
-4 -14 -2 19.3 3
-4 -14 -2 13 2.7
4 14 -2 15.5 2.7
-4 -14 -2 18.1 2.8
4 14 -2 15.7 2.6
-4 -14 -2 7.6 2.7
4 14 -2 16.1 2.6
4 14 2 14.1 2.9
-4 -14 2 12.1 2.9
4 14 2 16.6 2.8
4 14 2 15.5 2.6
-4 -14 2 14.3 2.9
4 14 2 13.6 2.6
-5 14 2 11.2 2.9
5 14 -2 14.8 2.5
5 -14 2 19 3.2
-5 14 2 10.9 2.8
5 14 -2 16.9 2.7
5 -14 2 10.1 2.7
5 14 2 16.8 2.5
5 -14 -2 14.1 2.9
-5 14 -2 13 2.8
5 14 2 13 2.5
5 -14 -2 11.7 2.8
-5 14 -2 12.2 3
5 14 2 15.6 2.8
6 -14 2 9.6 2.4
6 14 -2 11.1 2
-6 14 2 9.1 2.6
-6 14 2 10.2 2.5
6 -14 2 9.3 2.4
6 14 -2 13.7 2.3
-6 14 -2 15.5 2.9
6 -14 -2 10.2 2.5
6 14 2 10.8 2.1
-6 14 -2 13.7 2.7
6 -14 -2 10 2.5
6 14 2 12.7 2.4
0 15 2 0.7 1.2
0 15 -2 -0.8 1.1
0 -15 -2 -0.5 1
0 -15 2 -0.3 0.9
0 -15 2 -0.4 1
0 15 -2 0.5 1
0 15 2 -0.7 1.3
0 -15 -2 -0.9 0.9
1 15 -2 6.8 1.6
1 15 -2 11.2 2
-1 -15 -2 6.1 1.7
1 -15 2 7 1.8
1 -15 2 3.5 1.8
1 15 -2 7.3 1.9
-1 -15 -2 10 1.9
-1 15 2 10.8 2.2
-1 15 2 3.4 1.8
1 -15 -2 8.3 1.9
-1 -15 2 7.2 1.7
-1 -15 2 8.7 1.9
-1 15 -2 4.8 1.7
1 -15 -2 6.6 1.8
-1 15 -2 6.2 2
1 15 2 6.3 2
1 15 2 10.7 2
2 -15 2 0.8 1.1
-2 15 2 -0.6 1.3
2 15 -2 1 1.2
2 15 -2 1.7 0.8
2 15 -2 0.2 0.8
2 -15 2 0.5 1.1
-2 15 2 0.9 1.3
-2 -15 -2 1.8 1
2 15 -2 0.9 1.1
-2 -15 -2 -0.3 1
-2 15 -2 0.2 1.2
2 15 2 0.1 0.6
-2 15 -2 -0.3 1
2 -15 -2 -0.6 0.9
-2 -15 2 -1.7 0.8
2 -15 -2 2.7 1.4
2 15 2 1.4 1.1
2 15 2 -0.6 1.2
-2 -15 2 0.1 0.9
-3 -15 -2 10.7 2.1
3 15 -2 8.2 1.8
3 15 -2 8.2 2
-3 -15 -2 10.2 2
3 15 -2 8.3 1.7
-3 -15 -2 5.3 2.1
-3 -15 2 10.8 2
-3 -15 2 9.4 2.2
-3 -15 2 6.9 2
3 15 2 9.8 2.1
3 15 2 4.2 2
3 15 2 7.4 1.8
3 15 2 10.1 1.8
-3 -15 2 9.6 2
4 -15 2 26.6 4.8
-4 -15 -2 32.8 4.7
4 15 -2 26.7 4.3
-4 -15 -2 35.8 4.6
4 15 -2 29.9 4.6
4 -15 2 26.8 4.8
-4 15 2 30.9 4.9
-4 -15 -2 22.5 4.5
-4 15 2 21 4.6
4 15 -2 25.7 4.3
4 15 -2 31.7 4.5
4 -15 -2 22.3 4.7
-4 15 -2 18.2 4.6
-4 15 -2 24 4.8
4 15 2 20.9 4.5
4 15 2 22.7 4.3
-4 -15 2 30.4 4.7
4 -15 -2 31 4.8
4 15 2 26.2 4.4
5 15 -2 7.3 1.5
5 -15 2 4.7 1.7
-5 15 2 5.8 2
-5 15 2 6.8 2
5 15 -2 5.9 1.3
5 15 -2 6.7 1.3
5 15 -2 6.5 1.8
5 -15 2 8.5 2.1
5 15 2 9 1.6
5 15 2 8.4 1.5
-5 15 -2 4.2 1.9
5 15 2 5 1.8
5 -15 -2 4.6 1.9
5 15 2 6.1 1.5
-5 15 -2 4.4 1.9
0 -16 -2 3.5 1.4
0 -16 -2 2.7 1.3
0 16 2 4.4 1.7
0 -16 2 3.2 1.5
0 16 -2 3.5 1.4
0 16 2 4.2 1.6
0 16 -2 3.5 1.6
-1 -16 -2 5.8 1.6
1 16 -2 9.5 2
1 -16 2 6.5 1.7
-1 16 2 5.5 1.8
1 16 -2 7.2 1.7
-1 16 2 2.2 1.6
-1 -16 -2 4.7 1.5
1 -16 2 4.8 1.6
-1 16 -2 6.3 1.9
1 -16 -2 6.1 1.6
-1 16 -2 4.4 1.6
-1 -16 2 7.4 1.6
1 16 2 8 2
1 16 2 6.5 1.7
1 -16 -2 3.6 1.7
-1 -16 2 5.2 1.5
-2 -16 -2 2.2 1.2
2 16 -2 3.3 1.3
-2 -16 -2 6.6 1.6
2 16 -2 3.1 1.6
2 16 2 2.6 1.5
2 16 2 3.5 1.6
-2 16 -2 3.6 1.6
-2 -16 2 2.1 1.2
-2 -16 2 3.3 1.3
-3 -16 -2 -0.4 1
3 -16 2 -0.6 1.1
-3 16 2 0.4 1.5
3 16 -2 -0.4 0.8
3 -16 2 -0.9 1.1
3 16 -2 0.1 1.2
3 16 -2 -1 1
-3 -16 -2 -0.9 0.9
3 16 -2 0.3 0.7
-3 16 2 -0.1 1.3
3 -16 -2 -0.3 1
3 -16 -2 0.1 1.1
-3 -16 2 1 1.1
-3 -16 2 1.2 1.2
-3 16 -2 0.6 1.5
3 16 2 0.1 0.8
3 16 2 -0.5 1.3
-3 16 -2 -0.7 1.1
3 16 2 0 1
4 -16 2 4.4 1.6
4 16 -2 9.6 1.9
4 16 -2 6.7 1.4
-4 16 2 6.2 2
-4 16 2 5.5 1.8
4 16 -2 6.5 1.5
4 -16 2 8.9 2
4 16 -2 5.4 1.3
-4 16 -2 3.5 1.7
4 -16 -2 6.4 1.8
4 16 2 2.8 1.5
4 -16 -2 5.2 1.6
-4 16 -2 2.5 1.7
4 16 2 4.9 1.3
4 16 2 8.8 1.9
4 16 2 2.7 1.3
0 17 2 -1.5 1.2
0 -17 2 -2.1 0.8
0 17 2 -0.3 1.1
0 17 -2 0 1.4
0 -17 2 -0.1 1.1
0 17 -2 -0.4 1.1
0 -17 -2 0.5 1.2
0 -17 -2 -1.1 1
-1 -17 -2 2 1.2
1 17 -2 0.8 1.2
1 17 -2 0.6 1.4
-1 -17 -2 0.9 1.1
-1 -17 2 2 1.3
1 17 2 0.6 1.5
-1 17 -2 2.3 1.4
1 17 2 3.1 1.3
-1 -17 2 2.7 1.2
2 17 -2 6 1.6
2 17 -2 5.3 1.8
-2 17 2 3.1 1.8
2 -17 2 7.4 2.1
2 -17 2 4.3 1.6
-2 17 2 4.3 1.8
-2 -17 -2 8.1 1.8
-2 -17 -2 6 1.6
2 17 2 4.7 2
-2 -17 2 6.6 1.7
-2 17 -2 4.7 1.9
2 -17 -2 5.7 1.8
2 -17 -2 4.8 1.7
-2 17 -2 4.8 1.7
-2 -17 2 7.5 1.7
2 17 2 6.6 1.9
-3 17 2 4.8 1.8
3 -17 2 5.9 1.8
-3 17 2 2.5 1.8
3 17 -2 4.4 1.6
-3 -17 -2 6.7 1.7
3 17 -2 5.1 1.7
3 -17 2 6.5 1.8
3 17 -2 5.2 1.4
-3 -17 -2 5.5 1.5
3 17 2 6.1 1.9
3 17 2 5.1 1.3
3 17 2 6.4 1.7
-3 -17 2 6.4 1.6
-3 17 -2 3.8 1.9
3 -17 -2 5.2 1.8
-3 17 -2 6 1.8
3 -17 -2 3.1 1.6
-3 -17 2 5.3 1.8
0 18 2 3 1.7
0 -18 -2 6.3 1.7
0 18 -2 4.5 1.6
-1 18 2 -0.2 1.3
-1 -18 -2 -1.2 1.1
-1 18 2 1.5 1.4
1 -18 2 0.9 1.2
1 -18 2 1.6 1.3
1 18 -2 2 1.5
-1 -18 2 0 1.1
-1 18 -2 0.4 1.5
-1 18 -2 -1 1.1
1 -18 -2 0.4 1.1
-1 -18 2 -1.2 1
1 18 2 -1.4 1.2
1 18 2 1.5 1.4
1 -18 -2 0.8 1.3
2 18 -2 0.1 1.2
2 18 -2 1.5 1.4
2 -18 2 0.6 1.3
-2 18 2 1.4 1.6
-2 -18 -2 1.2 1.2
2 -18 2 -0.9 1.1
-2 18 2 1 1.4
-2 -18 -2 0.7 1.1
2 -18 -2 0.8 1.2
2 18 2 0.3 1.1
-2 -18 2 2.6 1.3
-2 18 -2 -0.1 1.3
2 18 2 0.7 1.3
2 -18 -2 1.8 1.4
-2 18 -2 2.1 1.7
-2 -18 2 0.2 1.1
0 0 -3 -0.4 0.3
0 0 3 0 0.3
0 0 -3 0.2 0.3
0 0 3 -0.2 0.3
-1 0 -3 -0.2 0.4
-1 0 3 -0.5 0.4
1 0 3 0 0.3
-1 0 3 -0.4 0.3
-1 0 3 -0.2 0.4
1 0 -3 0.2 0.3
1 0 3 0.2 0.4
1 0 -3 -0.7 0.4
-1 0 3 -0.2 0.4
-1 0 -3 0.2 0.5
1 0 -3 -0.3 0.3
1 0 3 -0.8 0.4
1 0 3 -0.7 0.3
1 0 -3 0.2 0.4
-1 0 -3 0.5 0.4
2 0 -3 -0.1 0.3
2 0 -3 0.3 0.5
2 0 3 0.6 0.4
-2 0 3 0.8 0.4
-2 0 -3 0.3 0.5
-2 0 -3 0.4 0.5
2 0 3 -0.6 0.5
-2 0 -3 0.2 0.5
2 0 3 -0.6 0.4
-2 0 -3 -0.4 0.5
-2 0 3 0.2 0.4
-3 0 -3 0.4 0.5
3 0 3 -0.1 0.4
-3 0 -3 -0.2 0.6
3 0 -3 -0.8 0.5
3 0 -3 0.4 0.6
3 0 3 0.1 0.5
3 0 3 -0.5 0.4
-3 0 -3 0.9 0.6
-3 0 3 0.1 0.6
3 0 -3 0.4 0.4
3 0 3 -0.3 0.5
-3 0 3 -0.9 0.6
-3 0 -3 -0.1 0.5
4 0 -3 -0.2 0.5
4 0 3 1.5 0.6
-4 0 3 -0.5 0.5
4 0 3 0.4 0.5
-4 0 3 0.2 0.7
-4 0 -3 0.1 0.5
-4 0 3 0.6 0.7
4 0 -3 0.2 0.4
-4 0 -3 0.4 0.6
-4 0 -3 -0.8 0.5
-4 0 3 0.2 0.5
4 0 -3 0 0.5
-4 0 -3 -1.1 0.5
4 0 -3 0.1 0.4
4 0 3 0.1 0.5
5 0 3 0.4 0.6
-5 0 -3 0 0.5
-5 0 3 -0.5 0.5
-5 0 -3 -0.1 0.6
5 0 -3 0.2 0.6
5 0 -3 -0.5 0.4
-5 0 3 0.2 0.5
-5 0 -3 -0.5 0.6
-5 0 -3 0.4 0.6
-5 0 3 0.4 0.6
5 0 -3 -0.2 0.4
-5 0 3 -0.3 0.6
5 0 3 1.1 0.5
5 0 -3 -1.1 0.6
5 0 3 -0.3 0.5
6 0 3 0.6 0.7
6 0 3 -0.1 0.7
6 0 -3 -0.7 0.7
-6 0 -3 0.2 0.7
6 0 -3 -0.2 0.6
-6 0 -3 -0.3 0.6
-6 0 3 0.1 0.7
-6 0 3 0.8 0.8
6 0 -3 -0.1 0.7
6 0 3 -0.2 0.5
-6 0 -3 0.1 0.7
-6 0 -3 1.1 0.6
-7 0 3 -0.5 0.7
-7 0 -3 0 0.7
-7 0 3 0.8 0.9
7 0 3 -0.1 0.8
-7 0 3 -0.9 0.7
-7 0 -3 -0.2 0.8
-7 0 -3 0 0.8
-7 0 -3 -0.4 0.7
7 0 3 0.9 0.8
7 0 -3 -0.5 0.7
7 0 3 -0.2 0.7
-7 0 3 0 0.8
7 0 -3 -0.2 0.9
8 0 -3 1.1 1
-8 0 -3 0.2 0.8
8 0 -3 0.2 0.8
-8 0 -3 -0.6 0.9
8 0 3 0.5 0.9
8 0 3 0.8 0.7
-8 0 -3 -0.8 0.8
-8 0 -3 -0.5 0.9
8 0 3 -0.1 0.9
9 0 -3 -1.5 1
9 0 3 -0.8 0.9
9 0 -3 0.5 0.9
9 0 3 -0.3 0.7
0 -1 3 -0.1 0.3
0 -1 -3 0.2 0.4
0 1 3 0.3 0.4
0 1 3 0.1 0.4
0 -1 3 -0.1 0.3
0 1 -3 -0.3 0.3
0 1 -3 -0.2 0.3
0 -1 -3 -0.3 0.4
1 1 -3 36.4 5.1
-1 1 3 36.8 5.2
1 1 -3 32 5.1
1 -1 3 30.6 5.2
1 1 -3 34.6 5.1
-1 -1 -3 30.2 5.2
-1 1 3 34 5.2
-1 -1 -3 43 5.2
1 -1 3 36.5 5.2
1 -1 3 28.8 5.2
1 -1 3 33.2 5.2
1 1 -3 31.8 5.1
-1 1 -3 32.3 5.2
1 1 3 33.6 5.2
-1 1 -3 26.1 5.2
1 1 3 25.2 5.2
1 -1 -3 36.8 5.2
-1 -1 3 36.9 5.1
-1 -1 3 35.6 5.1
1 -1 -3 30.3 5.2
-1 -1 3 33.4 5.1
-1 1 -3 35.5 5.2
-1 1 -3 29.5 5.2
-1 -1 3 34.3 5.1
1 1 3 38.4 5.2
2 -1 3 1321.97 183.68
-2 -1 -3 1399.66 183.68
-2 -1 -3 1219.98 183.58
-2 1 3 1043.2 183.58
2 1 -3 1241.58 183.58
-2 1 3 1284.37 183.68
-2 -1 -3 1207.48 183.58
2 -1 3 1272.37 183.68
-2 1 3 1063.59 183.58
2 -1 3 1116.09 183.68
-2 1 3 1204.28 183.68
2 1 -3 1320.47 183.58
2 -1 3 1166.48 183.68
-2 -1 -3 1063.79 183.58
2 -1 -3 1240.58 183.58
-2 1 -3 1313.97 183.68
2 1 3 1154.28 183.58
-2 -1 3 1184.88 183.58
2 -1 -3 1222.88 183.68
2 -1 -3 1144.49 183.58
-2 -1 3 1192.68 183.58
2 1 3 1180.28 183.68
-2 1 -3 1296.17 183.68
2 1 3 1225.08 183.58
-2 1 -3 1140.49 183.68
-2 1 -3 1181.58 183.68
-3 1 3 184.18 29
3 -1 3 161.88 29
-3 1 3 198.58 29
-3 1 3 180.68 29
3 -1 3 195.78 29
3 -1 3 194.78 29
3 -1 3 197.48 29
-3 -1 -3 208.28 29
3 1 -3 194.38 29
-3 -1 -3 194.08 29
-3 1 3 198.58 29
-3 -1 -3 193.68 29
-3 -1 -3 197.28 29
3 -1 -3 190.18 29
3 -1 -3 208.58 29
3 -1 -3 199.48 29
3 1 3 196.58 29
3 1 3 183.08 29
-3 1 -3 203.88 29
-3 1 -3 169.98 29
-3 -1 3 169.58 29
3 -1 -3 219.78 29
-3 1 -3 173.88 29
3 1 3 187.98 29
-3 1 -3 167.28 29
3 1 3 184.78 29
-3 -1 3 189.88 29
4 -1 3 341.07 50.49
-4 -1 -3 335.87 50.49
4 -1 3 309.27 50.49
4 -1 3 319.67 50.49
-4 -1 -3 343.57 50.49
-4 1 3 342.67 50.49
-4 1 3 355.06 50.49
-4 -1 -3 314.37 50.39
4 1 -3 355.46 50.39
4 1 -3 341.17 50.39
-4 1 3 298.27 50.49
-4 1 3 328.07 50.49
-4 -1 -3 326.57 50.49
4 -1 -3 320.47 50.49
-4 -1 3 344.27 50.39
-4 1 -3 333.87 50.49
4 1 3 341.77 50.49
4 1 3 326.97 50.39
-4 1 -3 317.37 50.49
4 1 3 326.47 50.49
-4 -1 3 330.97 50.39
4 -1 -3 341.77 50.49
-4 -1 3 320.27 50.39
4 1 3 348.87 50.49
4 -1 -3 335.87 50.49
4 -1 -3 309.67 50.49
-5 1 3 32.2 4.8
5 1 -3 31.8 4.6
5 -1 3 28.9 4.6
-5 1 3 41.8 4.9
-5 -1 -3 31.3 4.6
-5 -1 -3 22.9 4.6
5 1 -3 29.7 4.6
5 -1 3 36.5 4.9
5 -1 3 22.8 4.7
5 -1 -3 29.4 4.6
5 -1 -3 37.2 4.9
5 -1 -3 32.3 4.7
-5 -1 3 26.8 4.6
-5 1 -3 29.4 4.7
-5 1 -3 33.6 4.8
5 -1 -3 25.8 4.6
-5 1 -3 32.7 4.8
-5 -1 3 31.5 4.6
-5 1 -3 26.5 4.7
-5 -1 3 28.8 4.6
5 1 3 26.6 4.6
-5 -1 3 28.4 4.6
5 1 3 30.8 4.7
5 1 3 27.6 4.6
-6 -1 -3 2.1 0.9
-6 -1 -3 4.2 0.9
-6 1 3 3.5 1
6 -1 3 2.3 0.9
6 -1 3 3.5 1
6 -1 3 2 0.9
6 -1 3 2 0.9
-6 -1 -3 3.3 1
-6 -1 -3 3.1 1
-6 1 3 3.2 1.1
-6 1 3 2.8 1
6 1 -3 3.1 0.8
6 1 -3 4.9 1
-6 1 3 3.3 1
-6 1 -3 2.4 0.9
-6 1 -3 2.9 1.1
6 -1 -3 3.5 0.9
-6 1 -3 4 1.1
6 -1 -3 3 1
6 1 3 3.7 1
6 -1 -3 4 0.9
-6 -1 3 3.4 0.9
-6 -1 3 3.4 0.9
-6 1 -3 2.5 0.9
6 1 3 3.3 1
-6 -1 3 4.1 1
6 -1 -3 3.6 1.1
6 1 3 3.4 0.9
-6 -1 3 4.9 1
6 1 3 2.2 0.8
-7 1 3 21.4 3.8
7 -1 3 25.3 3.7
7 -1 3 27.7 3.8
7 1 -3 25.5 3.7
-7 1 3 23.8 3.7
-7 -1 -3 24.4 3.7
-7 -1 -3 24.8 3.7
7 -1 3 28 3.9
7 1 -3 25.3 3.6
-7 -1 -3 24.5 3.7
-7 -1 -3 17.9 3.6
7 -1 3 20.5 3.7
-7 1 3 21.7 3.7
-7 1 3 17.7 3.6
7 -1 -3 17.4 3.5
-7 1 -3 19.7 3.7
-7 -1 3 23.7 3.6
-7 1 -3 21.4 3.7
7 1 3 19.7 3.6
-7 -1 3 25.3 3.8
-7 1 -3 19.7 3.7
7 1 3 20.5 3.5
7 -1 -3 26 3.7
-7 -1 3 22.1 3.6
7 -1 -3 18.7 3.5
-7 1 -3 25.3 3.8
7 1 3 16.1 3.5
-7 -1 3 27.6 3.7
7 1 3 22.6 3.7
7 -1 -3 25.8 3.8
8 -1 3 -0.2 0.8
8 1 -3 1.4 0.8
-8 1 3 -0.5 0.9
8 -1 3 1.4 0.9
-8 -1 -3 0.7 0.9
8 -1 3 -1.4 0.8
8 -1 -3 0.3 1
8 -1 -3 0.6 0.6
8 -1 -3 0.2 0.7
8 1 3 -0.2 0.8
8 1 3 0.9 1
8 1 3 -0.3 0.6
8 -1 -3 0.2 0.8
-8 1 -3 1 1
8 1 3 0.1 0.9
-8 1 -3 0.4 1
9 -1 3 -0.9 1
9 1 -3 1.4 0.9
9 -1 3 0.5 0.8
9 1 -3 2.3 1.1
9 -1 3 1.2 1
9 -1 3 -0.4 1
9 1 3 0.7 1
9 -1 -3 1.4 1.2
9 1 3 0.4 1
9 -1 -3 -0.4 1
0 -2 3 551.84 83.49
0 -2 -3 595.14 83.49
0 2 -3 489.85 83.49
0 -2 -3 618.74 83.49
0 2 -3 529.65 83.49
0 2 3 480.25 83.49
0 -2 3 591.54 83.59
0 -2 -3 612.14 83.49
0 2 3 502.75 83.49
0 -2 3 603.24 83.49
0 2 3 549.85 83.49
0 2 -3 509.65 83.49
0 2 3 499.05 83.49
0 -2 -3 500.75 83.49
0 2 -3 612.54 83.49
-1 -2 -3 97.09 13.8
-1 -2 -3 78.19 13.8
1 -2 3 88.09 13.8
1 -2 3 83.09 13.8
1 2 -3 79.59 13.7
-1 -2 -3 92.09 13.8
-1 2 3 108.49 13.8
-1 2 3 94.89 13.8
-1 2 3 97.09 13.8
1 -2 3 112.89 13.8
1 2 -3 87.49 13.7
1 -2 3 96.59 13.8
-1 2 3 86.19 13.8
-1 -2 -3 78.09 13.8
1 2 3 83.79 13.8
-1 -2 3 89.49 13.7
1 2 3 77.99 13.8
1 -2 -3 106.29 13.8
-1 -2 3 87.99 13.7
1 -2 -3 74.69 13.8
-1 -2 3 88.69 13.7
1 2 3 92.69 13.8
-1 2 -3 103.29 13.8
-1 -2 3 100.29 13.7
1 2 3 80.09 13.8
-1 2 -3 94.89 13.8
1 -2 -3 85.19 13.8
-1 2 -3 100.29 13.8
1 -2 -3 83.69 13.8
-1 2 -3 101.69 13.8
-2 -2 -3 874.51 126.39
2 -2 3 932.71 126.49
-2 -2 -3 801.62 126.39
-2 -2 -3 792.02 126.39
-2 2 3 690.63 126.39
2 -2 3 863.11 126.39
-2 2 3 764.22 126.39
-2 -2 -3 810.22 126.39
-2 2 3 917.41 126.39
2 -2 3 898.61 126.49
-2 2 3 758.82 126.39
2 2 3 757.82 126.39
-2 2 -3 782.12 126.39
2 2 3 905.91 126.39
2 2 3 926.11 126.39
2 -2 -3 846.42 126.39
-2 2 -3 876.81 126.39
-2 2 -3 861.61 126.39
2 -2 -3 726.63 126.39
2 2 3 893.11 126.39
2 -2 -3 899.41 126.49
-2 2 -3 712.93 126.39
3 -2 3 7.5 1.3
3 -2 3 8 1.4
-3 2 3 4.7 1.3
-3 2 3 5.9 1.2
-3 -2 -3 5 1.1
-3 2 3 7.8 1.4
-3 -2 -3 5.6 1.2
-3 2 3 7.3 1.3
-3 -2 -3 8 1.2
3 -2 3 6.6 1.3
-3 2 -3 5 1.3
3 -2 -3 6.1 1.3
3 -2 -3 7.2 1.3
3 -2 -3 6.7 1.3
3 2 3 8.9 1.2
3 2 3 5.2 1.1
3 2 3 5.1 1.1
3 2 3 5.2 1.1
3 -2 -3 4 1.2
-3 2 -3 6 1.3
-4 -2 -3 327.37 48.1
-4 2 3 316.37 48.2
4 -2 3 318.77 48.2
4 -2 3 307.87 48.1
4 -2 3 306.67 48.2
-4 -2 -3 315.47 48.1
-4 -2 -3 301.37 48.1
-4 2 3 286.67 48.2
-4 -2 -3 318.87 48.1
4 -2 -3 316.27 48.2
4 2 3 325.37 48.1
4 -2 -3 323.67 48.1
-4 2 -3 320.87 48.2
4 2 3 341.97 48.1
4 2 3 344.07 48.1
4 2 3 297.27 48.1
-4 2 -3 295.47 48.2
5 -2 3 13.2 2.4
-5 2 3 15.8 2.5
5 -2 3 13.2 2.4
-5 -2 -3 17.6 2.4
5 -2 3 11.8 2.4
-5 2 3 10.1 2.3
5 -2 3 13.5 2.5
-5 2 3 17 2.5
-5 -2 -3 11.1 2.3
-5 2 3 14.1 2.4
-5 -2 -3 17.5 2.6
-5 -2 -3 17.9 2.4
-5 2 -3 13.5 2.4
5 2 3 14.3 2.3
5 2 3 9.8 2.2
5 2 3 14.7 2.3
5 -2 -3 14.2 2.4
5 -2 -3 12.1 2.4
5 -2 -3 11.2 2.4
-5 2 -3 16.2 2.5
-5 2 -3 14.4 2.4
-5 2 -3 19.8 2.6
5 -2 -3 15.6 2.4
5 2 3 13.7 2.3
6 -2 3 40.3 6
-6 -2 -3 38.3 5.9
6 -2 3 38.5 6.1
6 -2 3 49.99 6.4
-6 -2 -3 36 5.9
-6 2 3 38.6 6.1
-6 2 3 50.99 6.3
-6 2 3 33 6
6 -2 3 39.5 6
-6 -2 -3 33.6 5.9
-6 2 3 41.8 6.2
-6 2 -3 37.6 6.1
-6 2 -3 45.1 6.2
6 -2 -3 35 5.9
-6 -2 3 39 5.9
6 2 3 46.6 6
-6 -2 3 38.5 5.9
-6 -2 3 38.3 5.9
-6 2 -3 38.8 6.2
6 2 3 32.7 5.9
-6 2 -3 34.7 6.1
-6 -2 3 37.4 5.9
6 -2 -3 36.1 6.1
6 -2 -3 36 6.2
6 2 3 37.3 5.9
-7 2 3 20.9 2.9
7 2 -3 15.9 2.6
7 2 -3 16.7 2.5
-7 2 3 12.5 2.7
7 -2 3 16.3 2.8
-7 2 3 12.8 2.8
-7 -2 -3 15 2.7
-7 -2 -3 13.2 2.6
7 -2 3 15.5 2.7
-7 -2 -3 19.4 2.7
-7 -2 -3 17.6 2.7
-7 2 3 10.4 2.6
-7 2 -3 11.9 2.7
7 -2 -3 18.1 2.9
7 2 3 18.2 2.7
-7 2 -3 17.9 2.9
-7 -2 3 15.2 2.6
7 2 3 15.5 2.7
-7 2 -3 16 2.9
7 -2 -3 13.8 2.7
-7 -2 3 13.8 2.6
-7 -2 3 16.3 2.7
7 -2 -3 16.2 2.7
7 2 3 15.2 2.5
8 -2 3 15.8 3.2
8 -2 3 13.9 3.1
8 2 -3 17.3 3.1
8 2 -3 18.6 3
8 -2 3 19.3 3.1
-8 2 3 18.7 3.2
-8 2 3 12.8 3.1
8 -2 3 22.7 3.3
8 -2 -3 19 3.1
-8 2 -3 18.4 3.2
8 -2 -3 17.4 3.2
8 -2 -3 19.1 3.2
-8 2 -3 17 3.2
8 2 3 20.2 3.1
-8 2 -3 23.2 3.4
8 2 3 18.1 3.2
-8 2 -3 19.6 3.3
9 -2 3 1.5 1.2
9 -2 3 1.4 1.2
9 2 -3 3.6 1
9 -2 3 3.8 1.3
9 2 3 3.4 1.2
9 -2 -3 3.8 1.3
9 -2 -3 2.6 1
9 -2 -3 3.5 1.5
9 2 3 3.4 1.1
0 -3 -3 0.6 0.6
0 -3 -3 0.5 0.8
0 3 -3 -0.8 0.4
0 3 -3 -0.7 0.6
0 3 3 0.1 0.6
0 3 3 0 0.5
0 -3 3 -0.1 0.5
0 -3 3 0.6 0.5
0 3 -3 -0.3 0.6
0 -3 -3 0.1 0.5
0 3 -3 0.1 0.4
0 -3 3 -1.2 0.6
0 3 3 -1.2 0.6
0 -3 3 -0.6 0.5
0 3 3 1 0.7
0 -3 -3 0.2 0.7
-1 3 3 46.6 7.3
1 -3 3 47.5 7.3
-1 -3 -3 53.39 7.3
-1 -3 -3 45.9 7.3
1 -3 3 41 7.4
-1 3 3 46.7 7.4
1 -3 3 49.6 7.4
1 -3 3 49.1 7.4
-1 3 3 43.8 7.4
1 3 -3 53.09 7.3
1 3 -3 49.99 7.3
-1 -3 -3 48.6 7.3
-1 -3 -3 45 7.3
-1 3 3 53.49 7.4
1 3 3 40.3 7.3
1 3 3 49 7.3
1 -3 -3 49.7 7.4
-1 -3 3 47.2 7.3
-1 3 -3 43.7 7.3
1 3 3 46.4 7.3
1 -3 -3 42.7 7.3
-1 3 -3 47.8 7.4
1 -3 -3 43 7.3
-1 3 -3 42.8 7.3
1 3 3 46.3 7.3
-1 -3 3 48.9 7.3
-1 3 -3 56.39 7.4
1 -3 -3 52.89 7.4
-2 3 3 564.44 84.39
-2 -3 -3 557.04 84.29
-2 3 3 558.44 84.39
-2 -3 -3 509.95 84.29
-2 3 3 546.55 84.39
-2 3 3 519.85 84.39
-2 -3 -3 625.84 84.29
2 -3 3 596.74 84.39
2 -3 3 608.14 84.39
2 -3 3 562.84 84.39
-2 3 -3 539.95 84.39
2 -3 -3 507.75 84.39
2 3 3 475.35 84.29
2 3 3 536.65 84.29
-2 3 -3 553.24 84.39
2 -3 -3 595.04 84.39
2 3 3 517.65 84.29
2 -3 -3 551.54 84.39
-2 3 -3 619.64 84.39
-2 3 -3 527.45 84.39
2 3 3 587.34 84.29
-3 -3 -3 24.1 3.9
3 -3 3 32.9 4.1
-3 -3 -3 26.8 3.9
-3 3 3 37.2 4.3
3 -3 3 30.4 4.2
-3 -3 -3 21.8 3.9
-3 3 3 24.6 4.1
-3 -3 -3 23.2 3.9
3 3 3 19.4 3.8
-3 3 -3 19.9 4
-3 3 -3 27.6 4.1
-3 3 -3 31.9 4.2
3 3 3 23.5 3.9
3 3 3 24.1 3.9
-3 3 -3 28.2 4.1
3 -3 -3 29.4 4.1
3 -3 -3 32.8 4.1
3 -3 -3 27.9 4
-4 -3 -3 34.8 6.2
-4 3 3 42.3 6.4
-4 -3 -3 37.4 6.2
-4 -3 -3 36.7 6.2
-4 3 3 41.2 6.3
4 -3 3 41.5 6.4
4 -3 3 40.2 6.3
-4 3 3 46.5 6.3
-4 3 3 41.7 6.4
4 -3 3 40.1 6.3
-4 -3 -3 41.9 6.2
4 -3 3 42.6 6.4
-4 3 -3 42.4 6.4
-4 3 -3 43.4 6.4
4 -3 -3 47.4 6.4
-4 3 -3 39.4 6.3
4 3 3 42.4 6.2
-4 3 -3 44.3 6.4
4 3 3 37.7 6.2
4 3 3 40.4 6.2
4 -3 -3 38.1 6.3
4 3 3 38.7 6.2
4 -3 -3 42.6 6.4
-5 3 3 5.1 1.2
-5 3 3 2.8 1
-5 -3 -3 3.2 0.9
-5 3 3 2.3 1.1
5 -3 3 3.9 1.1
-5 -3 -3 4.6 0.9
5 -3 3 4.3 1.1
-5 3 3 3.4 1
5 -3 3 3.3 1
5 -3 3 2.7 1
-5 -3 -3 3.8 0.9
-5 -3 -3 3.3 0.8
-5 3 -3 5.5 1.1
5 -3 -3 4.8 1.1
5 3 3 3.1 0.8
5 -3 -3 3.6 1
-5 3 -3 3.9 1.1
5 3 3 3.4 0.8
-5 3 -3 3.9 1.1
5 3 3 4.4 0.9
5 -3 -3 3.1 1.1
5 3 3 3.3 0.8
5 -3 -3 4.9 1.1
-5 3 -3 3.4 1.2
6 -3 3 32.8 5.5
-6 3 3 31.2 5.5
-6 3 3 33.1 5.6
-6 3 3 31.6 5.5
6 -3 3 34.3 5.6
6 -3 3 38.1 5.4
6 -3 3 32.6 5.5
-6 3 3 33.4 5.6
-6 -3 -3 35.9 5.3
-6 3 -3 39.6 5.6
6 3 3 31 5.3
-6 3 -3 32.7 5.6
6 -3 -3 27.9 5.4
6 -3 -3 35.6 5.6
-6 3 -3 39.8 5.7
-6 3 -3 41.5 5.7
6 3 3 34.8 5.3
6 -3 -3 32.5 5.6
6 -3 -3 36.7 5.6
-7 3 3 1 1
7 -3 3 -1.1 0.7
7 -3 3 -0.2 0.8
-7 3 3 0.2 1
-7 3 3 -1.8 0.8
-7 -3 -3 0.8 0.7
-7 -3 -3 -0.6 0.7
-7 3 3 -0.8 0.8
7 -3 3 -0.2 0.8
-7 -3 -3 0.3 0.7
-7 3 -3 -0.1 0.8
7 -3 -3 0.2 0.8
7 3 3 0.2 0.7
-7 3 -3 1.2 1
-7 3 -3 1.1 1
-7 3 -3 -0.5 0.9
7 -3 -3 -0.4 0.8
-7 -3 3 -0.8 0.5
7 -3 -3 0.5 0.9
7 -3 -3 0.5 1.1
-8 3 3 1 1
8 -3 3 2.5 1.1
8 -3 3 1.3 1
-8 3 3 1.7 1.2
-8 3 3 3.1 1.1
8 -3 3 0.4 1
8 -3 -3 1.2 0.9
8 -3 -3 1 1.1
8 3 3 1.2 0.9
-8 3 -3 -0.1 1.1
-8 3 -3 2.1 1.1
8 -3 -3 2.9 1.2
-8 3 -3 0.4 1
-8 3 -3 -0.3 0.9
8 -3 -3 1.7 1.2
8 3 3 1.8 0.8
9 -3 3 2.6 1.3
9 -3 3 4.6 1.4
9 -3 3 3.6 1.2
9 -3 -3 2.9 1.2
9 -3 -3 5.7 1.5
9 3 3 4.4 1.3
9 -3 -3 3.2 1.3
9 -3 -3 4.2 1.2
9 3 3 3.4 1.1
0 -4 3 39.9 5.4
0 4 3 30.5 5.3
0 -4 -3 38.4 5.4
0 4 -3 33.4 5.4
0 4 -3 24.1 5.3
0 -4 3 37.6 5.4
0 -4 -3 35.4 5.4
0 4 3 27.4 5.4
0 -4 3 36.5 5.4
0 4 -3 33.8 5.3
0 -4 -3 35.3 5.4
0 -4 3 38.2 5.4
0 4 3 33.9 5.3
0 -4 -3 36.4 5.5
0 4 3 41.9 5.4
0 4 -3 33 5.4
-1 4 3 6.3 1.4
1 -4 3 4.7 1.2
1 4 -3 6.3 1.2
1 4 -3 4.8 1.1
1 -4 3 4.3 1.2
-1 -4 -3 9 1.4
1 -4 3 6.8 1.3
-1 4 3 5.8 1.3
1 -4 3 5.2 1.3
1 4 -3 6.9 1.2
1 4 -3 7.9 1.1
-1 4 3 3.7 1.3
-1 -4 -3 7.2 1.2
-1 -4 -3 3.9 1.2
-1 -4 -3 6 1.2
-1 4 3 5 1.2
-1 4 -3 4.3 1.3
1 4 3 7 1.2
1 -4 -3 5.9 1.3
-1 -4 3 6.1 1.2
1 -4 -3 7.5 1.5
1 4 3 7.9 1.4
-1 -4 3 6.3 1.2
-1 4 -3 10.6 1.4
1 -4 -3 4.2 1.2
-1 4 -3 2.3 1.2
-1 -4 3 5.3 1.1
1 4 3 6.8 1.3
1 -4 -3 5.5 1.2
-1 4 -3 5.5 1.3
-1 -4 3 8.8 1.2
-2 4 3 -0.5 0.8
-2 4 3 0 0.9
-2 -4 -3 -0.2 0.5
2 4 -3 1.1 0.4
-2 -4 -3 1.1 0.6
2 -4 3 -0.5 0.6
-2 -4 -3 0.6 0.6
2 -4 3 0.2 0.7
-2 -4 -3 0.6 0.7
2 -4 -3 0.5 0.7
2 -4 -3 0.6 0.8
-2 -4 3 0 0.4
-2 4 -3 -0.2 0.7
2 4 3 0.1 0.4
-2 4 -3 1.5 0.8
2 4 3 -0.4 0.4
2 4 3 0.5 0.7
2 4 3 1.4 0.7
-3 4 3 48.3 7.9
3 -4 3 52.49 8
3 -4 3 47.3 8
-3 4 3 52.09 8
-3 -4 -3 50.19 7.9
3 -4 3 48.1 8
-3 4 3 50.79 8
-3 4 3 46.8 8
-3 -4 -3 56.59 7.9
-3 -4 -3 51.69 7.9
-3 -4 -3 52.19 7.9
-3 4 -3 45.4 8
3 4 3 49.4 7.9
3 -4 -3 51.09 8
3 -4 -3 43.8 8
3 -4 -3 51.49 7.9
-3 4 -3 50.19 8
3 4 3 55.39 7.9
3 4 3 47.7 7.8
3 -4 -3 54.49 8
3 4 3 59.09 7.9
-3 4 -3 54.39 8
-3 4 -3 50.29 8
-4 4 3 78.69 14.5
-4 4 3 101.79 14.5
4 -4 3 89.39 14.5
-4 -4 -3 98.99 14.4
4 -4 3 107.49 14.6
-4 -4 -3 101.49 14.4
4 -4 3 86.99 14.5
4 -4 3 88.99 14.5
-4 -4 -3 105.29 14.4
-4 -4 -3 84.09 14.4
-4 4 3 95.19 14.6
-4 4 -3 93.29 14.5
4 -4 -3 108.49 14.5
-4 4 -3 98.99 14.5
4 4 3 92.09 14.4
-4 4 -3 80.69 14.5
4 -4 -3 108.49 14.6
4 4 3 90.29 14.4
4 -4 -3 86.09 14.5
-4 4 -3 97.69 14.5
4 4 3 96.19 14.4
4 -4 -3 93.39 14.5
4 4 3 90.79 14.4
5 -4 3 62.79 9.8
-5 4 3 47 9.7
5 -4 3 64.49 9.7
5 -4 3 58.89 9.7
-5 -4 -3 67.59 9.7
-5 4 3 68.59 9.8
-5 4 3 61.19 9.8
-5 4 3 52.69 9.7
5 -4 3 68.59 9.8
-5 -4 -3 64.39 9.6
-5 -4 -3 61.59 9.6
-5 -4 -3 60.79 9.6
5 -4 -3 56.69 9.7
5 4 3 67.49 9.6
-5 4 -3 60.29 9.8
5 4 3 68.09 9.6
5 -4 -3 57.49 9.7
5 -4 -3 71.59 9.8
-5 4 -3 60.59 9.8
-5 4 -3 66.39 9.8
-5 4 -3 67.19 9.8
5 -4 -3 66.19 9.8
-6 -4 -3 124.49 18.3
-6 4 3 116.39 18.4
-6 4 3 126.69 18.4
-6 4 3 122.09 18.4
6 -4 3 117.69 18.4
6 -4 3 116.19 18.4
-6 4 3 113.69 18.3
-6 -4 -3 105.79 18.3
-6 -4 -3 121.99 18.3
6 -4 -3 127.79 18.4
6 -4 -3 120.89 18.3
6 -4 -3 123.39 18.4
6 -4 -3 124.29 18.4
-6 4 -3 116.29 18.4
-6 4 -3 119.69 18.4
-7 4 3 3.4 1.3
-7 -4 -3 2.8 0.8
7 -4 3 1.7 1
-7 4 3 2.5 1.1
7 -4 3 2.2 1.1
7 -4 3 3.6 1.1
-7 -4 -3 1.4 0.8
-7 4 3 2.9 1.1
-7 -4 -3 3 0.9
7 -4 3 2.5 1.1
7 -4 -3 1.9 1.2
7 -4 -3 4.4 1.2
-7 4 -3 1.8 1.1
7 -4 -3 4.2 1.2
-7 4 -3 5.4 1.4
7 -4 -3 2.5 1
7 4 3 3.2 0.9
-7 4 -3 3.8 1.3
-8 4 3 32.8 5.5
-8 4 3 34.3 5.6
8 -4 3 30.8 5.4
-8 4 3 29.4 5.5
-8 4 3 35.2 5.5
8 -4 3 21.6 5.4
8 -4 3 35.2 5.6
-8 4 -3 30.8 5.5
8 4 3 50.49 6.2
8 -4 -3 32.3 5.4
8 -4 -3 35.2 5.6
-8 4 -3 29.3 5.5
8 4 3 36.5 5.3
-8 4 -3 35.9 5.6
8 -4 -3 41.6 5.7
9 -4 3 1.1 1.1
9 -4 3 2 1.2
9 -4 3 1.6 1.1
9 -4 -3 0.9 1.3
9 -4 -3 0.8 1.2
-9 4 -3 1.2 1.2
9 4 3 -0.5 0.9
9 -4 -3 -0.2 1.2
9 4 3 0.1 0.9
0 -5 -3 -0.6 0.6
0 5 -3 -1 0.6
0 5 3 -0.9 0.8
0 5 -3 1.7 0.6
0 -5 -3 0.3 0.9
0 5 -3 -0.3 0.8
0 5 3 -0.6 0.5
0 -5 3 -0.7 0.6
0 5 3 0.2 0.9
0 -5 -3 0.2 0.9
0 5 3 0.5 0.6
0 -5 3 0.7 0.8
0 5 -3 -0.6 0.6
0 -5 3 0.7 0.7
0 -5 3 0.4 0.7
0 -5 -3 -0.4 0.7
-1 5 3 173.68 27.3
-1 -5 -3 184.18 27.3
1 -5 3 186.28 27.3
1 -5 3 181.78 27.3
-1 5 3 191.58 27.3
1 5 -3 157.98 27.2
1 5 -3 173.28 27.2
1 5 -3 167.08 27.2
1 5 -3 160.38 27.2
-1 -5 -3 206.28 27.3
-1 -5 -3 204.08 27.3
-1 -5 -3 211.58 27.3
1 5 3 169.08 27.2
1 5 3 183.18 27.3
-1 -5 3 177.78 27.2
-1 -5 3 203.08 27.3
-1 5 -3 148.79 27.3
-1 5 -3 143.79 27.3
-1 -5 3 186.98 27.2
-1 -5 3 193.68 27.2
1 -5 -3 189.78 27.3
1 -5 -3 165.88 27.3
1 5 3 164.08 27.2
-2 5 3 612.54 88.49
2 5 -3 642.14 88.39
-2 5 3 580.64 88.39
2 -5 3 473.85 88.39
-2 5 3 575.54 88.39
2 -5 3 555.54 88.39
-2 5 3 584.64 88.49
2 5 -3 567.54 88.29
-2 -5 -3 531.35 88.39
-2 -5 -3 610.64 88.39
-2 -5 -3 570.04 88.39
2 -5 3 680.83 88.49
2 5 -3 617.54 88.39
-2 -5 -3 602.84 88.39
-2 -5 3 580.54 88.29
2 -5 -3 621.44 88.39
-2 -5 3 650.33 88.39
2 5 3 507.65 88.39
2 5 3 653.53 88.39
2 -5 -3 562.24 88.39
-2 5 -3 556.94 88.39
-2 -5 3 558.44 88.29
2 -5 -3 537.45 88.49
2 5 3 598.24 88.39
2 5 3 504.55 88.39
-2 5 -3 606.64 88.49
-2 5 -3 569.74 88.39
-2 5 -3 556.14 88.39
-2 -5 3 582.94 88.39
2 -5 -3 580.14 88.39
-3 -5 -3 82.49 12.4
-3 5 3 84.49 12.5
3 -5 3 85.59 12.5
3 -5 3 74.09 12.5
-3 -5 -3 79.79 12.4
-3 5 3 59.99 12.5
-3 -5 -3 75.49 12.4
-3 -5 -3 86.69 12.4
3 -5 3 88.59 12.5
-3 5 3 86.99 12.5
-3 5 3 77.69 12.5
-3 5 -3 85.49 12.5
-3 5 -3 71.49 12.5
3 -5 -3 84.79 12.5
-3 5 -3 75.69 12.5
-3 5 -3 74.69 12.5
3 -5 -3 75.89 12.5
3 -5 -3 78.19 12.5
3 -5 -3 95.39 12.5
3 5 3 78.59 12.4
3 5 3 87.79 12.4
3 5 3 85.19 12.4
4 -5 3 61.99 9.4
-4 -5 -3 56.49 9.3
-4 5 3 59.89 9.4
-4 5 3 60.69 9.4
4 -5 3 63.89 9.4
4 -5 3 65.09 9.5
-4 -5 -3 62.19 9.3
-4 5 3 61.59 9.5
-4 -5 -3 62.89 9.3
-4 -5 -3 58.09 9.3
4 -5 3 55.79 9.4
-4 5 3 77.59 9.5
4 5 3 56.49 9.3
-4 5 -3 49.6 9.4
4 -5 -3 59.49 9.4
4 -5 -3 78.19 9.5
4 5 3 60.69 9.2
4 5 3 60.89 9.3
4 5 3 67.19 9.3
-4 5 -3 58.59 9.4
4 -5 -3 47.6 9.4
-4 5 -3 53.79 9.4
-4 5 -3 59.39 9.4
4 -5 -3 65.39 9.4
-5 5 3 16.9 2.9
-5 -5 -3 18.3 2.6
-5 -5 -3 15.6 2.5
5 -5 3 20 3
-5 -5 -3 13.9 2.5
-5 5 3 16.5 2.9
-5 5 3 12.1 2.7
5 -5 3 16.9 2.8
-5 -5 -3 17 2.5
-5 5 3 11.8 2.7
5 -5 -3 17.9 2.8
5 5 3 14.6 2.5
5 5 3 14.5 2.6
5 -5 -3 15.3 2.8
5 -5 -3 13.8 2.7
5 -5 -3 14.7 2.8
-6 -5 -3 0.7 0.6
6 -5 3 1.4 0.9
-6 5 3 0.9 0.9
-6 -5 -3 0.8 0.7
-6 5 3 0.8 0.8
6 -5 3 -0.7 0.7
6 -5 3 0.1 0.7
-6 5 3 -0.2 1
-6 -5 -3 0.4 0.6
6 -5 3 1.4 0.9
6 -5 -3 1.1 0.9
-6 5 -3 0.8 1.1
-6 5 -3 0.5 1
6 5 3 -0.2 0.6
6 -5 -3 -1.4 0.9
-6 5 -3 -0.1 0.9
6 -5 -3 1 1.1
-6 5 -3 1.1 1
-7 5 3 9.4 2
7 -5 3 7.4 1.9
7 -5 3 8.9 2
-7 -5 -3 10.3 1.8
7 -5 3 7.6 2
-7 5 3 11 2.1
7 -5 3 8.2 2
-7 5 3 7.2 2.1
-7 5 3 10 2.1
7 -5 -3 11.4 2.1
7 5 3 12.4 1.8
7 -5 -3 8.8 1.9
-7 5 -3 13 2.2
-7 5 -3 9.7 2.2
7 -5 -3 8.8 2.2
7 5 3 10.3 1.8
-7 5 -3 10.5 2.2
-8 5 3 1.1 1.3
-8 5 3 -1.1 1.1
8 -5 3 0.8 1.1
-8 5 3 2.2 1.1
-8 5 -3 2.7 1.2
8 -5 -3 0.3 1
-8 5 -3 1.3 1.2
8 5 3 0.4 0.7
8 -5 -3 0.3 1
8 -5 -3 0.6 1.2
8 -5 -3 1.5 1.1
0 -6 -3 27.3 4.6
0 6 3 15.5 4.5
0 -6 -3 34.5 4.7
0 -6 -3 42.3 4.8
0 -6 3 35.9 4.6
0 -6 -3 28.6 4.6
0 6 -3 30 4.6
0 6 3 29.2 4.6
0 -6 3 39.3 4.7
0 6 3 19.7 4.5
-1 -6 -3 45.9 6.9
-1 6 3 49.2 7.1
1 -6 3 43.2 7
1 -6 3 51.79 7
-1 6 3 53.49 7.2
-1 6 3 42.7 6.9
1 6 -3 46.6 6.9
1 -6 3 46.7 7
-1 -6 -3 45.2 6.9
1 6 -3 54.89 6.9
1 6 -3 35.5 6.9
1 -6 3 46 7
-1 6 3 43.9 6.9
1 6 -3 46.5 6.9
1 -6 -3 43.8 7
1 6 3 60.59 7.2
-1 -6 3 43.2 6.9
1 -6 -3 39.5 7
-1 6 -3 44.7 7
1 6 3 40.7 6.9
-1 -6 3 50.09 6.9
-1 6 -3 37.5 6.9
1 -6 -3 47.5 7
-1 -6 3 46.4 6.9
-1 -6 3 53.39 6.9
-1 6 -3 37.7 6.9
1 6 3 36.7 6.9
-1 6 -3 33.3 7
1 -6 -3 40.7 6.9
2 6 -3 36.2 5.6
-2 -6 -3 36 5.7
-2 -6 -3 34.8 5.7
-2 6 3 46.7 6
2 -6 3 31.3 5.8
-2 6 3 39.4 5.8
2 6 -3 34.2 5.7
-2 6 3 39.5 5.8
-2 -6 -3 36.9 6.2
2 -6 3 35.9 5.7
2 6 -3 35.3 5.6
2 -6 3 41.7 5.9
2 6 -3 33.5 5.6
-2 6 3 54.29 6.1
2 -6 3 39.4 5.9
-2 6 -3 35.3 5.8
2 6 3 36.5 5.6
-2 6 -3 40 5.9
2 6 3 33 5.6
-2 -6 3 35.1 5.6
-2 -6 3 42.1 5.7
-2 -6 3 32.9 5.6
2 -6 -3 38.6 5.9
-2 -6 3 33.4 5.7
2 6 3 35.2 5.8
2 -6 -3 35.4 5.9
-2 6 -3 39.1 6
2 -6 -3 35.6 5.8
2 6 3 41.5 5.8
-2 6 -3 30.2 5.8
2 -6 -3 41.1 5.8
-3 6 3 3.5 1.3
-3 -6 -3 4.1 1
3 6 -3 5.7 0.9
-3 -6 -3 5.1 1
-3 -6 -3 2.8 1
3 -6 3 5.7 1.2
-3 -6 -3 5.3 1.1
3 -6 3 2.6 1.1
-3 6 3 2.6 1.2
3 -6 3 4.5 1.2
-3 6 3 3.7 1.2
-3 6 3 5.3 1.2
3 -6 3 7.1 1.3
3 6 -3 3.3 0.9
-3 6 -3 3.4 1.1
-3 6 -3 3.5 1.2
3 6 3 3.2 0.9
-3 -6 3 5.5 0.9
-3 -6 3 4.4 1
3 -6 -3 5.2 1.3
-3 6 -3 10.1 1.6
3 6 3 3.3 1
3 6 3 2.9 1.1
-3 -6 3 3.5 0.9
3 -6 -3 6.1 1.3
-3 6 -3 3.5 1.2
3 -6 -3 4.2 1.2
-4 -6 -3 44.3 6.2
-4 -6 -3 40.4 6.1
-4 -6 -3 42 6.2
4 -6 3 46.2 6.3
-4 6 3 36.2 6.4
-4 -6 -3 37.7 6.2
-4 6 3 49.7 6.6
-4 6 3 35.4 6.4
4 -6 3 50.19 6.6
-4 6 3 40.2 6.4
4 6 3 40.9 6.2
-4 6 -3 42.4 6.5
4 -6 -3 40.6 6.5
4 -6 -3 41.6 6.4
4 6 3 38.4 6.2
4 -6 -3 32.9 6.4
-4 6 -3 29.3 6.3
4 6 3 35.7 6.1
4 -6 -3 46.8 6.4
4 6 3 38.6 6.1
5 -6 3 196.18 30.6
-5 6 3 187.18 30.6
-5 -6 -3 187.48 30.5
-5 -6 -3 233.28 30.5
-5 -6 -3 196.48 30.5
-5 -6 -3 220.28 30.5
-5 6 3 196.98 30.6
5 -6 3 210.58 30.6
5 -6 3 186.78 30.6
5 -6 3 204.48 30.6
5 -6 -3 157.38 30.6
-5 6 -3 197.58 30.6
-5 6 -3 195.58 30.6
5 -6 -3 209.08 30.6
5 6 3 206.38 30.5
5 -6 -3 191.98 30.6
-6 6 3 13.9 2.8
6 -6 3 11.1 2.8
6 -6 3 14.1 2.8
-6 -6 -3 16.8 2.6
-6 6 3 13.7 2.9
-6 6 3 13.7 2.8
-6 -6 -3 18.9 2.6
-6 6 3 16.5 3
6 -6 3 9.4 2.7
-6 -6 -3 16.6 2.6
6 -6 3 17.3 2.9
6 6 3 18.4 2.7
-6 6 -3 15.7 2.9
6 -6 -3 14.7 2.8
6 -6 -3 14 2.8
6 -6 -3 16.1 3
6 -6 -3 14 2.8
-6 6 -3 18.5 3
-6 6 -3 14.8 2.9
-6 6 -3 18.8 3.1
6 6 3 16.6 2.6
7 -6 3 22.1 3.5
-7 6 3 14.3 3.5
-7 6 3 24 3.7
7 -6 3 14.2 3.3
-7 6 3 17.1 3.4
7 -6 3 17.5 3.4
7 6 3 22.8 3.2
-7 6 -3 20.7 3.6
7 -6 -3 20.2 3.6
7 -6 -3 17 3.5
7 -6 -3 19.5 3.5
-7 6 -3 21.9 3.6
7 6 3 18.9 3.2
7 -6 -3 20.9 3.4
-8 6 3 -0.6 1.1
8 -6 3 0.5 1.1
-8 6 3 1.3 1.3
8 -6 3 -0.8 0.9
8 6 3 1.6 0.8
8 6 3 0.4 0.8
8 -6 -3 -1.7 0.9
-8 6 -3 1.6 1.2
8 -6 -3 0.2 1
-8 6 -3 -0.4 1.1
8 -6 -3 -1 1.1
0 -7 -3 1.3 1
0 7 3 0.6 1
0 7 -3 0.3 0.7
0 -7 -3 -0.6 0.7
0 -7 3 -0.8 0.7
0 7 3 0.6 0.8
0 7 -3 0.6 0.6
0 7 -3 0 0.9
0 7 3 1.5 0.8
0 -7 3 -0.7 0.7
0 7 3 1.5 0.6
0 -7 -3 0.6 0.8
0 -7 3 0.1 0.8
0 -7 3 -0.3 0.8
0 7 -3 -0.5 0.6
0 -7 -3 -0.4 0.9
-1 -7 -3 14.6 2.1
-1 7 3 10.8 2.1
1 -7 3 10.6 2
1 -7 3 12.1 2.1
1 7 -3 9.4 1.8
1 7 -3 10.1 1.9
-1 -7 -3 10.5 2
-1 7 3 8.7 1.8
-1 7 3 8.2 2
-1 -7 -3 15.2 2
-1 -7 -3 10.9 1.9
1 7 -3 7.6 1.7
1 -7 3 11.6 2
1 -7 3 9.1 2
-1 7 3 8.4 1.9
-1 7 -3 12.1 2.1
1 7 3 8.2 1.8
-1 -7 3 7.3 1.8
1 -7 -3 8.1 1.9
-1 7 -3 11.3 2
1 -7 -3 11.8 2.1
-1 7 -3 13.7 2
-1 -7 3 12.1 1.9
1 7 3 8.5 2
-1 7 -3 11.8 2
1 7 3 9.3 1.9
1 -7 -3 13.5 2.2
1 -7 -3 13.9 2.1
2 7 -3 2.6 0.7
-2 7 3 2.2 1
2 7 -3 2 0.7
-2 7 3 2.6 1.3
2 -7 3 1.6 1
-2 7 3 2.1 0.9
2 7 -3 3 0.9
2 7 -3 3.9 0.8
-2 7 3 3.4 1
2 -7 3 2.5 1
-2 -7 -3 1.9 0.7
-2 -7 -3 2 0.9
2 -7 3 1.2 1
2 -7 -3 1.7 1
-2 -7 3 2 1
2 -7 -3 2.2 1
2 7 3 1.7 0.9
2 -7 -3 1 0.9
-2 -7 3 2.5 0.8
2 7 3 2.7 0.7
-2 7 -3 1.4 0.9
2 -7 -3 2.7 1.1
-2 -7 3 1.6 0.8
2 7 3 3.8 1
-2 7 -3 1.4 0.8
-2 -7 3 3.8 0.8
-3 7 3 -0.2 0.7
3 7 -3 -0.6 0.4
3 -7 3 -0.7 0.7
3 -7 3 0.9 0.8
3 -7 3 -0.9 0.8
-3 -7 -3 -0.4 0.5
-3 7 3 -1.4 0.7
-3 7 3 -0.9 0.9
3 -7 3 0.5 0.8
3 7 -3 0.9 0.6
-3 7 3 -0.5 0.8
-3 -7 -3 0.1 0.6
3 -7 -3 -0.4 0.7
3 7 3 -0.5 0.4
3 -7 -3 -0.1 0.9
-3 7 -3 0 0.8
-3 7 -3 0.5 0.8
-3 -7 3 -1 0.4
-3 7 -3 -1.3 0.9
-3 -7 3 -0.9 0.5
3 7 3 -0.4 0.6
3 7 3 -1.3 0.8
3 -7 -3 0.9 0.9
-3 -7 3 -0.6 0.6
-3 7 -3 2.2 1
-3 -7 3 0.5 0.5
3 7 3 0.3 0.5
4 -7 3 22.3 4.6
4 -7 3 29 4.8
-4 7 3 26.1 4.9
4 -7 3 27.1 4.8
-4 7 3 24.3 4.7
-4 -7 -3 30.5 4.5
4 -7 3 31.2 5.2
-4 -7 -3 30.8 4.5
-4 7 3 31.3 4.8
4 7 3 27 4.4
4 7 3 29.6 4.5
-4 7 -3 28.7 4.8
-4 7 -3 24.1 4.8
4 -7 -3 32.1 4.9
-4 -7 3 29.9 4.5
4 -7 -3 19.1 4.7
-4 7 -3 24.4 4.8
4 7 3 36.1 4.7
-4 7 -3 36.9 5
4 7 3 31.4 4.5
4 -7 -3 29.6 4.8
5 -7 3 19.3 3.6
5 -7 3 18.6 3.6
5 -7 3 18.6 3.7
-5 -7 -3 26.3 3.5
-5 7 3 14.4 3.6
-5 7 3 23.5 3.7
5 -7 3 18.6 3.6
-5 7 3 22.2 3.8
-5 -7 -3 24 3.4
-5 -7 -3 24.6 3.4
-5 7 -3 19.1 3.7
5 -7 -3 17.5 3.7
-5 7 -3 16.3 3.5
5 7 3 24 3.4
-5 7 -3 20.8 3.7
5 -7 -3 20.4 3.6
5 -7 -3 13.9 3.5
-5 7 -3 29.2 3.9
5 -7 -3 21.8 3.6
5 7 3 19.5 3.5
-6 -7 -3 13.6 1.9
6 -7 3 11.7 2.2
6 -7 3 8.6 1.9
-6 7 3 9.2 2.1
-6 -7 -3 12.4 1.8
6 -7 3 10.9 2.1
-6 7 3 9.2 2.1
-6 -7 -3 9.2 1.7
-6 7 3 9.1 2.2
6 -7 -3 7.8 2
6 -7 -3 7.3 2.1
6 -7 -3 8.3 2.1
6 7 3 11.9 1.9
6 -7 -3 5.1 1.9
6 7 3 11.2 1.7
-6 7 -3 9.7 2.2
-6 7 -3 9 2.1
7 -7 3 7.4 1.7
7 -7 3 4.9 1.6
-7 7 3 5.5 1.8
-7 7 3 5.3 1.8
7 7 3 9.6 1.3
7 7 3 8.7 1.5
-7 7 -3 5.1 1.7
7 -7 -3 4.7 1.6
7 -7 -3 7.6 1.7
7 -7 -3 5.9 1.8
-7 7 -3 4.2 1.7
-8 7 3 1.9 1.3
-8 7 3 -0.2 1.2
8 -7 3 2 1.1
8 -7 -3 1.3 1
8 -7 -3 0.9 1.1
8 7 3 0.6 0.7
8 7 3 1.3 0.9
-8 7 -3 2.5 1.4
-8 7 -3 1.3 1.2
0 8 -3 443.46 77.59
0 -8 -3 455.65 77.59
0 8 -3 486.95 77.59
0 8 -3 535.05 77.59
0 -8 -3 562.94 77.69
0 -8 3 582.54 77.69
0 -8 3 466.85 77.59
0 -8 3 507.45 77.59
0 8 -3 456.15 77.59
0 8 3 520.35 77.59
0 -8 -3 606.94 77.59
0 -8 -3 551.24 77.59
0 -8 3 490.05 77.59
0 8 3 496.85 77.59
-1 -8 -3 332.07 44.4
-1 8 3 327.57 44.4
1 8 -3 271.47 44.3
-1 8 3 280.77 44.4
-1 -8 -3 276.17 44.3
-1 -8 -3 287.17 44.4
1 -8 3 278.67 44.4
1 8 -3 262.97 44.3
-1 -8 -3 314.07 44.3
1 -8 3 292.67 44.4
1 -8 3 309.57 44.4
1 -8 3 307.17 44.4
1 8 -3 276.77 44.3
-1 8 3 288.27 44.4
1 -8 -3 350.46 44.4
1 8 3 322.07 44.4
-1 -8 3 300.97 44.4
-1 -8 3 290.77 44.3
-1 -8 3 284.97 44.3
-1 8 -3 256.47 44.4
1 -8 -3 284.07 44.4
1 -8 -3 286.47 44.4
-1 8 -3 282.47 44.4
-1 -8 3 282.77 44.3
1 -8 -3 303.77 44.4
1 8 3 299.47 44.3
1 8 3 257.87 44.4
-1 8 -3 260.37 44.3
1 8 3 258.07 44.3
-1 8 -3 320.17 44.4
-2 -8 -3 31.6 4.3
-2 8 3 26 4.5
-2 8 3 24.7 4.4
2 -8 3 20.1 4.3
-2 -8 -3 33.5 4.4
-2 -8 -3 25.6 4.4
2 8 -3 23.7 4.2
-2 8 3 22.2 4.5
2 -8 3 29.9 4.5
2 -8 3 20.9 4.4
2 8 -3 32.5 4.4
-2 8 3 33.4 4.5
2 8 -3 29.6 4.2
2 -8 3 23.2 4.4
-2 -8 -3 29.5 4.5
2 -8 -3 28.4 4.5
2 -8 -3 22.5 4.4
2 8 3 32.6 4.5
-2 8 -3 20.9 4.3
2 -8 -3 19.6 4.3
2 8 3 23.2 4.4
2 -8 -3 22.1 4.4
-2 8 -3 25.5 4.4
-2 8 -3 29.6 4.5
-2 8 -3 22.7 4.4
2 8 3 28.9 4.3
-2 -8 3 28.7 4.3
-2 -8 3 34.3 4.4
3 -8 3 162.18 27
-3 -8 -3 181.98 27
-3 -8 -3 185.68 27
3 8 -3 173.68 26.9
-3 -8 -3 178.68 27
3 -8 3 143.19 27
3 8 -3 184.68 26.9
-3 8 3 160.88 27.1
3 -8 3 158.58 27
-3 8 3 185.68 27.1
3 8 -3 211.78 27
3 -8 3 147.59 27
3 8 -3 167.78 26.9
-3 -8 -3 177.28 26.9
-3 8 3 188.28 27.1
-3 8 3 181.08 27
-3 -8 3 202.68 26.9
3 -8 -3 157.28 27.1
-3 8 -3 154.98 27
-3 -8 3 190.08 26.9
3 -8 -3 176.98 27.1
3 8 3 187.58 27
3 -8 -3 161.98 27
-3 8 -3 175.98 27
-3 8 -3 174.18 27.1
3 8 3 168.78 26.9
-3 8 -3 175.08 27
-3 -8 3 182.58 26.9
3 -8 -3 175.98 27.1
3 8 3 178.08 27
-3 -8 3 173.88 26.9
3 8 3 187.68 26.9
-4 8 3 0.3 0.8
4 -8 3 0.6 1
-4 8 3 1.3 1
4 8 -3 1.7 0.6
4 8 -3 1.2 0.7
-4 -8 -3 2 0.7
4 -8 3 -0.6 0.9
-4 8 3 1.9 1.2
-4 -8 -3 1.9 0.8
4 -8 3 1 0.9
-4 -8 -3 1.6 0.9
-4 8 3 1.1 1
-4 -8 3 1.3 0.7
-4 8 -3 0.1 1
-4 8 -3 1.5 0.9
-4 -8 3 0.4 0.8
4 8 3 2.1 0.9
4 8 3 1.3 0.7
4 -8 -3 1.4 1.1
-4 -8 3 1.3 0.6
-4 8 -3 1.5 1.1
4 -8 -3 2.8 1
4 -8 -3 0.9 0.9
4 8 3 0.9 0.5
4 -8 -3 0.7 0.8
-4 8 -3 2 1
-4 -8 3 3.9 0.7
-5 8 3 0.3 1
5 -8 3 1.8 1.1
-5 8 3 3.1 1.1
-5 -8 -3 2.5 0.8
-5 8 3 1.6 1.2
-5 -8 -3 1.7 0.8
-5 8 3 1.1 1.2
5 -8 3 0.8 1
5 -8 3 1.3 0.9
-5 -8 -3 2.3 0.7
5 -8 -3 1.5 1
5 -8 -3 0.4 0.8
-5 8 -3 1 1
-5 8 -3 -0.7 1.1
5 -8 -3 1.5 1.1
5 -8 -3 1.8 1.2
-6 -8 -3 8.8 1.6
-6 -8 -3 10 1.6
-6 -8 -3 10.3 1.6
6 -8 3 6.7 1.7
-6 8 3 9.9 2.1
-6 8 3 9.6 2.1
6 -8 3 6 1.8
6 8 3 9.1 1.7
6 -8 -3 5.2 1.7
-6 8 -3 7.1 1.9
6 -8 -3 6.2 1.7
-6 8 -3 8.7 1.9
6 -8 -3 4 1.7
-7 8 3 1.9 1.3
-7 8 3 -1 1.2
7 -8 3 0.2 1
7 -8 3 3.9 1.3
-7 8 -3 -0.2 1.1
7 8 3 2.2 1
7 8 3 1.4 0.6
7 -8 -3 0.1 1
7 -8 -3 0.1 1.1
-8 8 3 20.7 3.5
-8 8 3 18 3.5
8 -8 3 14.5 3.3
8 -8 3 14.8 3.2
8 8 3 18.9 2.9
8 -8 -3 16.7 3.3
8 8 3 20.2 3.1
-8 8 -3 14.6 3.4
8 -8 -3 23.6 3.5
-8 8 -3 14.4 3.3
0 9 -3 0 0.8
0 9 3 0.4 0.6
0 -9 3 0 0.9
0 -9 3 -0.4 0.8
0 -9 -3 -1 0.7
0 9 -3 0.8 0.7
0 9 -3 -0.3 0.9
0 -9 -3 -1.5 0.9
0 -9 -3 -1.8 0.7
0 -9 3 0.1 0.9
0 9 -3 0.4 0.6
0 9 3 -0.9 0.8
0 -9 -3 1.3 1.1
0 -9 3 0.6 0.7
0 9 3 -0.6 0.5
0 9 3 -0.1 1
1 9 -3 4.2 1
-1 -9 -3 3 0.9
1 9 -3 2.5 1
-1 -9 -3 2.6 1
1 9 -3 3.3 0.8
1 -9 3 3.7 1.3
1 -9 3 3.3 1
-1 -9 -3 1.5 1
1 -9 3 2.3 1
1 9 -3 3.4 0.9
-1 -9 -3 1.5 1.1
-1 9 3 3.1 0.9
1 -9 3 0.1 1
-1 9 3 2.3 1.1
1 9 3 3.7 0.9
-1 9 -3 3.9 1.2
1 9 3 2.6 1.1
-1 -9 3 1.4 1
-1 -9 3 3.3 1
-1 -9 3 3.3 1.2
-1 9 -3 3.2 1
-1 9 -3 1.1 0.8
1 -9 -3 -0.8 1.1
1 -9 -3 1 1.1
1 -9 -3 0.7 1.2
1 9 3 1.6 0.7
-1 -9 3 2.1 0.9
1 9 3 1.4 1
1 -9 -3 2.9 1.8
-2 -9 -3 7.1 1.4
-2 -9 -3 4.6 1.3
-2 -9 -3 6.8 1.3
2 9 -3 5.9 1.2
2 9 -3 7.4 1.3
-2 9 3 4.2 1.3
2 -9 3 7 1.6
-2 -9 -3 7.9 1.6
-2 9 3 3.8 1.3
2 -9 3 7.7 1.6
2 -9 3 4.3 1.3
2 9 -3 5.5 1.3
2 -9 3 5.1 1.4
-2 9 3 4.2 1.5
-2 9 3 8.8 1.6
2 9 3 5.6 1.2
2 -9 -3 4.7 1.4
2 -9 -3 4.9 1.3
-2 -9 3 6.6 1.3
2 9 3 5 1.1
2 -9 -3 7.1 1.7
-2 9 -3 5.4 1.4
-2 9 -3 3.5 1.4
-2 -9 3 7.6 1.3
-2 -9 3 6.7 1.4
-2 -9 3 5.4 1.4
2 9 3 5.4 1.3
-2 9 -3 4.3 1.5
2 -9 -3 5.3 1.5
2 9 3 4.8 1.5
3 9 -3 26.3 4.3
-3 9 3 18.1 4.6
-3 -9 -3 29.7 4.5
3 -9 3 24.5 4.7
-3 9 3 22.6 4.5
3 9 -3 28 4.3
-3 9 3 28 4.7
3 -9 3 30.1 4.7
3 -9 3 28.5 4.7
3 -9 3 19.7 4.5
-3 -9 -3 30.4 4.5
-3 -9 -3 24.5 4.5
-3 -9 -3 26.8 4.5
-3 9 3 24.3 4.6
3 9 -3 32.9 4.5
-3 9 -3 28.9 4.7
-3 9 -3 36.1 4.9
3 -9 -3 32.7 4.9
-3 -9 3 27.9 4.5
-3 9 -3 35 4.8
3 9 3 32.8 4.7
-3 9 -3 18.9 4.6
-3 -9 3 28.5 4.4
3 -9 -3 28.7 4.7
3 -9 -3 28.9 4.7
3 9 3 31.1 4.5
3 9 3 32.3 4.5
3 -9 -3 23.3 4.6
-4 9 3 4.6 1.5
4 -9 3 3.5 1.3
4 -9 3 3.4 1.3
-4 9 3 2.4 1.3
4 -9 3 2.9 1.3
-4 -9 -3 4.6 1.2
-4 -9 -3 8.2 1.3
-4 -9 -3 3.6 1
4 9 -3 4.7 0.9
-4 9 3 3.5 1.3
-4 -9 -3 3.3 1.2
-4 9 3 4.2 1.3
4 9 -3 4.8 1.1
4 -9 3 4.7 2.1
4 -9 -3 3.9 1.3
4 9 3 4.1 1
-4 9 -3 2.7 1.4
-4 -9 3 5.3 1.1
4 -9 -3 4.3 1.5
4 -9 -3 2.9 1.2
-4 -9 3 5.6 1.1
-4 -9 3 6.1 1.1
4 -9 -3 2.4 1.3
4 9 3 3.9 0.9
4 9 3 4.3 1.3
-4 9 -3 4.5 1.4
-4 9 -3 3.2 1.4
4 9 3 4.4 1
-4 -9 3 5.4 1.1
5 -9 3 3.9 1.4
-5 -9 -3 4.4 1.2
-5 -9 -3 5.8 1.3
-5 -9 -3 6.4 1.4
5 -9 3 3.5 1.5
-5 9 3 2.5 1.5
-5 -9 -3 6.6 1.3
-5 9 3 4.9 1.6
-5 -9 3 9 1.2
-5 -9 3 8.2 1.3
5 -9 -3 6.2 1.6
5 9 3 7.1 1.5
5 -9 -3 5.4 1.6
-5 9 -3 4.5 1.6
-5 9 -3 3.3 1.5
6 -9 3 1.7 1.3
-6 9 3 -0.9 1.2
-6 9 3 0.6 1.3
-6 -9 -3 0.5 0.7
6 -9 3 0.2 0.9
-6 9 -3 1 1.3
6 -9 -3 0.4 1.1
-6 9 -3 0.1 1.1
6 9 3 0.3 1
6 -9 -3 -1 0.8
-7 9 3 4.8 1.6
7 -9 3 0.6 1
-7 9 3 1.2 1.4
7 -9 3 2.5 1.4
7 -9 -3 2.9 1.3
-7 9 -3 2.4 1.3
-7 9 -3 2.4 1.5
7 -9 -3 1.2 1.3
7 9 3 2.5 0.7
-8 9 3 10.3 2.7
8 -9 3 19.8 2.9
-8 9 3 10.3 2.7
8 -9 3 9.5 2.6
-8 9 -3 12.5 2.7
8 -9 -3 10.8 2.6
8 -9 -3 11.9 2.6
8 9 3 16.4 2.3
0 -10 3 6.6 1.4
0 -10 3 5.1 1.5
0 10 3 3.9 1.2
0 10 -3 4.1 1.4
0 -10 3 5.5 1.4
0 10 -3 5.6 1.3
0 -10 -3 2.4 1.5
0 10 -3 6.7 1.4
0 -10 -3 4.8 1.4
0 10 -3 5.4 1.2
0 10 3 8.5 1.4
0 -10 3 5.4 1.4
1 10 -3 1 0.6
-1 -10 -3 0.7 0.8
1 -10 3 0.9 1.1
1 -10 3 0.6 0.9
-1 10 3 0.4 0.7
-1 -10 -3 2.7 1.1
-1 10 3 -0.1 0.9
1 10 -3 0.1 0.7
-1 10 3 1.3 1.3
-1 -10 -3 1.2 1
1 -10 3 0.3 1
1 10 -3 1.9 0.8
1 10 -3 -0.8 0.8
1 -10 3 2 0.9
-1 10 3 -0.3 0.6
-1 -10 -3 -0.1 0.8
1 10 3 0.5 0.6
-1 -10 3 2.7 1.2
-1 -10 3 0 0.8
1 -10 -3 -0.1 0.7
1 -10 -3 -0.6 0.8
1 10 3 0.6 0.8
1 10 3 -0.2 1.1
-1 -10 3 0.7 0.8
-1 10 -3 0.2 0.6
1 -10 -3 -0.7 1.1
-1 -10 3 0.8 0.7
1 -10 -3 0.8 1.1
1 10 3 0.9 0.7
2 -10 3 9 2.5
-2 -10 -3 17.4 2.6
-2 -10 -3 23.7 2.9
2 10 -3 17.4 2.5
2 -10 3 18 3
-2 -10 -3 11.9 2.6
-2 10 3 6.9 2.5
2 10 -3 19.1 2.5
2 10 -3 11.9 2.6
-2 -10 -3 21.2 2.7
-2 10 3 11.1 2.6
2 -10 3 15.4 2.8
-2 10 3 11.5 2.5
2 -10 3 17.4 2.8
-2 10 3 14 2.7
-2 10 -3 19.4 2.8
-2 -10 3 14.5 2.6
2 -10 -3 12.1 2.6
-2 -10 3 19.3 2.6
2 -10 -3 10.4 2.7
-2 10 -3 8.4 2.4
-2 10 -3 10 2.6
2 10 3 14.6 2.5
2 10 3 17 2.6
2 -10 -3 13 2.7
2 -10 -3 17.7 2.7
-2 -10 3 18.7 2.6
2 10 3 10.8 2.6
-2 10 -3 14.3 2.6
3 10 -3 50.89 8.2
3 10 -3 56.99 8.3
-3 10 3 53.29 8.4
-3 10 3 48.9 8.3
3 10 -3 58.49 8.2
-3 -10 -3 51.39 8.3
3 -10 3 45.2 8.5
3 -10 3 64.29 8.4
-3 10 3 52.29 8.6
-3 10 3 58.79 8.4
-3 -10 -3 48.9 8.2
3 10 -3 51.19 8.1
-3 -10 -3 51.99 8.3
-3 -10 -3 54.29 8.2
3 -10 3 43.8 8.5
3 -10 3 42 8.4
-3 -10 3 49.4 8.3
-3 -10 3 62.59 8.2
-3 10 -3 56.79 8.4
-3 -10 3 52.89 8.2
3 10 3 49.1 8.2
3 10 3 51.39 8.2
3 -10 -3 57.69 8.4
-3 -10 3 48.8 8.3
-3 10 -3 60.89 8.6
3 10 3 55.39 8.3
3 -10 -3 43.7 8.4
-3 10 -3 40.3 8.4
3 10 3 60.79 8.4
3 -10 -3 59.69 8.4
3 -10 -3 52.79 8.6
-3 10 -3 63.39 8.5
4 10 -3 1.1 0.9
-4 -10 -3 0.9 0.8
4 -10 3 1 1
-4 10 3 0.7 1.2
-4 -10 -3 0.8 0.9
4 -10 3 0 0.9
-4 -10 -3 2 0.8
-4 -10 -3 -0.1 0.9
-4 10 3 1.3 1.2
-4 10 -3 1.5 1.1
4 -10 -3 0.2 1
4 -10 -3 1.4 1.2
-4 10 -3 2 1.3
4 10 3 2.1 1.1
-4 -10 3 1.8 0.9
4 10 3 1.3 0.7
-4 -10 3 2.1 0.8
-4 -10 3 1.1 0.7
4 10 3 1.6 1.4
5 10 -3 2.7 0.8
-5 -10 -3 4.2 1.1
5 -10 3 1.3 1.1
-5 -10 -3 3.3 1
-5 -10 -3 4.6 1.1
5 10 -3 4.8 1
-5 10 3 1.6 1.3
-5 -10 -3 3.4 1.2
5 -10 3 1.1 1.2
-5 10 3 0.9 1.3
-5 10 -3 4.3 1.5
-5 -10 3 4.3 1
5 10 3 3.3 0.8
-5 10 -3 1.4 1.2
-5 -10 3 3.5 0.9
-5 -10 3 4.6 1
5 10 3 3.7 0.9
5 10 3 2.9 0.9
5 -10 -3 4.4 1.3
5 -10 -3 1.8 1.2
5 10 3 2.9 1.2
6 -10 3 3.5 1.4
6 -10 3 2.9 1.2
-6 10 3 0.9 1.4
-6 10 3 2.9 1.5
6 10 3 5.7 1.4
6 10 3 4 1
-6 10 -3 3.5 1.5
6 -10 -3 2.5 1.2
6 -10 -3 1.3 1.3
-6 10 -3 1.1 1.7
7 -10 3 0.5 1
7 -10 3 0.9 1.2
-7 10 3 -1.6 1.2
-7 10 3 -1.4 1.2
7 -10 -3 -0.7 1.1
7 10 3 1.7 1.1
7 -10 -3 0.1 1
-7 10 -3 -0.1 1.2
-7 10 -3 -0.5 1.1
0 -11 3 0.2 1.1
0 11 3 0.8 0.9
0 -11 3 0.4 0.8
0 11 -3 0 0.6
0 11 -3 -0.5 0.6
0 -11 -3 0.3 0.9
0 -11 -3 -0.9 0.9
0 11 -3 -0.8 0.9
0 11 3 1.3 1.2
0 11 3 0.1 0.7
0 -11 -3 0.1 0.7
0 11 3 0.7 0.7
0 -11 -3 0.7 1.2
0 -11 3 -0.4 0.9
0 -11 3 -1.5 0.9
1 -11 3 133.69 21.2
-1 11 3 151.58 21.2
-1 11 3 168.78 21.2
-1 11 3 141.59 21.1
1 -11 3 102.39 21.1
1 -11 3 121.59 21.1
-1 11 3 132.49 21.2
-1 -11 -3 153.88 21.2
1 11 -3 144.39 21.1
1 11 -3 135.69 21.1
1 -11 3 140.69 21.1
1 11 -3 159.58 21.1
1 11 -3 125.99 21.1
-1 -11 3 129.49 21.1
-1 -11 3 130.89 21.1
-1 11 -3 125.69 21.1
-1 11 -3 123.29 21.1
1 11 3 141.99 21.1
1 -11 -3 155.48 21.2
-1 11 -3 120.29 21.1
1 -11 -3 153.88 21.3
-1 -11 3 133.29 21.1
1 -11 -3 130.59 21.1
1 -11 -3 143.69 21.1
-1 11 -3 152.68 21.2
1 11 3 129.19 21.1
-1 -11 3 147.69 21.1
2 -11 3 5.5 1.7
-2 -11 -3 4.9 1.5
2 -11 3 2.9 1.3
-2 11 3 5.2 1.5
2 -11 3 5.2 1.5
-2 11 3 4.2 1.4
-2 -11 -3 5.6 1.4
2 11 -3 7.9 1.3
2 11 -3 5.9 1.3
-2 11 3 3 1.3
-2 -11 -3 7.9 1.7
2 11 -3 4.7 1.2
2 -11 3 6.1 1.7
-2 -11 -3 6.7 1.4
-2 11 3 4.7 1.6
2 11 -3 4.8 1.5
2 11 3 4.8 1.3
2 -11 -3 7.5 1.6
2 -11 -3 2.6 1.6
-2 -11 3 6.5 1.4
2 11 3 4.7 1.3
2 -11 -3 4.4 1.5
2 11 3 6.9 1.2
-2 11 -3 6.6 1.4
-2 11 -3 3.8 1.5
2 11 3 2.7 1.5
-2 -11 3 5.5 1.6
-2 -11 3 7.9 1.5
2 -11 -3 5.3 1.6
-2 11 -3 5.5 1.5
-2 11 -3 5.8 1.5
-2 -11 3 4.8 1.2
3 11 -3 70.39 10.6
-3 -11 -3 72.49 10.7
-3 -11 -3 80.59 10.7
-3 11 3 66.39 10.9
-3 -11 -3 75.09 10.8
3 -11 3 69.69 10.8
-3 11 3 65.89 10.8
3 11 -3 61.09 10.7
3 -11 3 54.99 10.7
3 11 -3 77.79 10.7
-3 -11 -3 81.59 10.8
3 -11 -3 64.19 10.8
-3 -11 3 61.69 10.7
3 11 3 80.69 10.8
-3 -11 3 67.09 10.7
3 11 3 75.59 10.7
-3 11 -3 49.4 10.9
3 11 3 65.49 10.6
-3 -11 3 90.49 10.7
3 11 3 66.89 10.7
3 -11 -3 59.89 10.8
-3 -11 3 65.99 10.7
-3 11 -3 54.79 10.8
-4 -11 -3 5.4 1.3
-4 -11 -3 6.7 1.6
4 -11 3 6.8 1.7
4 11 -3 9.7 1.5
-4 -11 -3 4.9 1.3
4 11 -3 4.8 1.2
-4 -11 -3 6.8 1.5
4 -11 3 7.5 1.7
4 -11 -3 3.2 1.4
4 11 3 5.9 1.4
4 -11 -3 4 1.5
-4 -11 3 8.9 1.5
4 11 3 4.1 1.6
-4 11 -3 2.3 1.6
-4 11 -3 5.6 1.6
4 11 3 3.5 1.2
4 11 3 6 1.2
-4 -11 3 5.6 1.5
-4 -11 3 5.6 1.3
-4 -11 3 5.2 1.2
5 11 -3 2.9 0.9
-5 -11 -3 2.6 1.1
-5 -11 -3 3.4 1
5 11 -3 3.2 0.8
5 -11 3 2.4 1.2
-5 -11 -3 1.2 0.8
-5 11 3 1.7 1.3
5 -11 3 1.1 1.2
-5 -11 -3 4.2 1.1
-5 11 3 1.3 1.3
-5 -11 3 1.4 1
5 11 3 1.1 0.8
-5 11 -3 2.6 1.5
5 -11 -3 2.3 1.3
5 -11 -3 1.1 1
5 11 3 4.5 1.3
5 11 3 0.4 0.6
5 11 3 0.7 0.8
6 -11 3 -0.7 1.1
-6 11 3 -0.9 1.2
6 -11 3 -0.9 0.9
-6 11 3 3.2 1.5
6 -11 -3 2.1 1.2
6 11 3 -0.3 1.1
6 -11 -3 0.4 1.2
-6 11 -3 -2.7 1.1
-6 11 -3 0.7 1.2
6 11 3 -0.4 0.7
7 -11 3 1.8 1.4
-7 11 -3 -1.2 1.1
7 11 3 2.2 0.8
7 -11 -3 0.2 1.1
7 11 3 0.7 1.1
0 -12 -3 -0.2 0.7
0 12 3 -0.5 1.2
0 -12 3 -1.7 1.2
0 12 3 0.6 0.8
0 -12 3 0 0.9
0 -12 3 -1.3 0.8
0 -12 -3 1.3 1.2
0 -12 3 -0.5 0.8
0 12 3 1.1 0.7
0 12 -3 -0.2 0.9
0 -12 -3 0.1 0.9
0 12 -3 1 1
0 -12 -3 -1.5 1.2
0 12 -3 1.3 0.7
0 12 3 2.9 1.1
0 12 -3 0.7 0.8
1 -12 3 58.49 8.4
1 12 -3 40.5 8.3
-1 -12 -3 63.69 8.6
-1 -12 -3 47.2 8.4
1 -12 3 48.8 8.3
1 12 -3 54.39 8.3
1 -12 3 63.89 8.8
-1 12 3 56.19 8.3
-1 -12 -3 44.4 8.4
-1 -12 -3 63.49 8.5
1 -12 3 52.49 8.5
-1 12 3 61.49 8.4
1 12 -3 47.5 8.2
1 -12 -3 40.2 8.4
1 12 3 47.4 8.2
1 12 3 55.19 8.2
-1 -12 3 60.09 8.3
-1 -12 3 74.79 8.8
-1 12 -3 57.89 8.3
-1 12 -3 52.29 8.5
1 12 3 62.29 8.4
-1 12 -3 47.5 8.4
1 -12 -3 51.69 9.1
1 -12 -3 43.5 8.3
-1 12 -3 54.99 8.3
1 12 3 51.39 8.6
-1 -12 3 45.1 8.2
2 -12 3 9.9 3
-2 -12 -3 11.6 3.1
-2 -12 -3 18.7 3.2
2 -12 3 14.8 3
2 12 -3 16.9 3.1
-2 12 3 21.7 3.4
-2 -12 -3 16.8 3.1
-2 12 3 18 3.4
2 12 -3 15.3 3
2 12 -3 21.7 3.1
2 12 -3 18.3 3
-2 12 -3 16.9 3.3
2 -12 -3 18.6 3.2
-2 12 -3 15.9 3.1
-2 -12 3 19.1 3.1
-2 -12 3 17.6 3.1
2 12 3 18.6 3.2
-2 -12 3 24.1 3.4
2 -12 -3 16.7 3.2
-2 -12 3 16.2 3
2 12 3 16.5 3
2 12 3 19 3
-3 -12 -3 4.3 1.4
3 12 -3 4 0.9
-3 -12 -3 3.2 1.2
-3 12 3 2.6 1.4
3 12 -3 1.8 0.9
3 12 -3 2.6 1.2
3 -12 3 3.1 1.3
-3 12 3 4.2 1.5
-3 -12 -3 3.4 1.3
3 -12 3 2.6 1.3
3 12 -3 1.6 1.1
3 -12 -3 2.1 1.2
-3 -12 3 3.1 1.1
3 12 3 3.6 0.9
-3 -12 3 3.8 1.1
-3 -12 3 2.2 1.2
3 12 3 3.2 1.1
3 -12 -3 2.3 1.1
-3 12 -3 0.9 1.1
3 12 3 2.5 0.9
-3 -12 3 2.1 1
-3 12 -3 2.4 1.3
4 12 -3 42 6.6
4 12 -3 39.4 6.4
4 12 -3 41.1 6.3
-4 -12 -3 48.3 6.7
-4 12 3 33.7 6.7
-4 -12 -3 29.6 6.4
-4 -12 -3 40 6.6
4 12 -3 42.9 6.3
-4 -12 -3 45.2 6.5
4 -12 3 35 6.6
4 -12 3 32.2 6.6
-4 12 -3 41.8 6.9
-4 -12 3 44.1 6.4
-4 -12 3 40.3 6.6
4 12 3 39.4 6.4
4 12 3 45.4 6.4
4 12 3 50.59 6.8
-4 -12 3 47.2 6.4
4 -12 -3 33.9 6.6
-4 12 -3 42 6.8
4 -12 -3 33.1 6.6
-4 -12 3 35.8 6.5
4 12 3 45.1 6.5
5 -12 3 58.69 9.8
-5 12 3 49.5 9.8
5 -12 3 54.89 9.7
-5 -12 -3 68.89 9.5
-5 12 3 59.59 9.8
5 12 -3 61.59 9.4
-5 -12 -3 59.19 9.4
5 12 3 58.79 9.4
-5 12 -3 52.79 9.7
5 12 3 68.99 9.4
-5 12 -3 64.49 9.9
5 -12 -3 45.6 9.7
5 12 3 69.29 9.6
6 12 -3 11.8 2
6 12 3 12.1 2.4
6 12 3 13 2.2
6 -12 -3 9.3 2.4
7 -12 3 1 1.4
-7 12 3 3.6 1.5
7 -12 3 1.7 1.2
-7 12 3 3.7 1.7
7 -12 -3 1.9 1.3
7 12 3 -0.1 0.8
-7 12 -3 1.6 1.4
7 12 3 1.7 1.3
-7 12 -3 2.3 1.5
7 -12 -3 1.3 1.4
0 13 3 -0.5 0.6
0 -13 -3 0.1 0.8
0 -13 -3 -0.1 0.9
0 13 3 0.7 1.2
0 13 -3 0 0.9
0 13 -3 -1.2 1
0 13 -3 0.8 0.9
0 -13 3 0.1 0.9
0 13 -3 1.2 0.8
0 -13 3 -0.3 0.9
0 13 3 1.2 1.1
0 -13 3 1.2 1.4
-1 -13 -3 60.79 9
1 13 -3 58.29 8.9
1 13 -3 56.99 9.2
1 -13 3 61.99 9.2
-1 -13 -3 72.39 9.4
1 13 -3 59.59 8.9
-1 -13 -3 53.59 8.9
-1 13 3 41.7 9
-1 13 3 49.8 9.2
1 13 -3 55.69 8.9
1 -13 3 63.39 9.2
1 13 3 68.79 9
1 13 3 52.59 8.9
1 -13 -3 59.79 9
1 13 3 69.79 9.1
-1 13 -3 43.6 9
-1 -13 3 51.89 8.9
1 13 3 65.19 8.9
-1 -13 3 50.19 8.9
-1 -13 3 64.19 9.2
1 -13 -3 58.29 9
-1 -13 3 56.69 9.1
-1 13 -3 42.5 9
-2 -13 -3 19.7 3.5
-2 13 3 24.2 3.8
2 13 -3 22.4 3.5
2 13 -3 25.7 3.5
2 -13 3 19.7 3.6
-2 -13 -3 25.8 3.8
-2 -13 -3 16.1 3.6
-2 13 3 14.6 3.6
-2 -13 -3 19 3.4
2 13 -3 17.1 3.5
-2 -13 3 24.4 3.6
2 13 3 23.2 3.4
2 -13 -3 19.9 3.6
-2 -13 3 24.1 3.5
-2 13 -3 19.5 3.7
-2 -13 3 22.4 3.6
2 -13 -3 14 3.4
2 13 3 14.8 3.4
-2 -13 3 15.5 3.5
2 13 3 16.7 3.3
2 13 3 19.5 3.6
3 13 -3 3.4 0.9
-3 13 3 1.3 1.3
-3 -13 -3 1.5 1.1
3 -13 3 2.1 1.2
3 -13 3 4.5 1.5
-3 -13 -3 2.9 1.4
-3 -13 -3 6.4 1.6
-3 13 3 1.8 1.4
-3 -13 -3 6.4 1.3
3 13 -3 2.7 1
3 13 -3 2.8 1.3
3 -13 -3 3.3 1.4
3 13 3 2 0.9
-3 13 -3 1.4 1.3
-3 -13 3 2.7 1.2
-3 -13 3 5 1.2
-3 -13 3 2.5 1.1
3 13 3 3.8 1.5
-3 13 -3 0.2 1.1
3 -13 -3 2.9 1.1
-3 -13 3 5.1 1.5
3 13 3 3.3 1.1
-4 -13 -3 17.4 2.9
4 -13 3 13 2.9
-4 -13 -3 25.4 3.2
4 13 -3 14.5 2.8
4 -13 3 15.5 3
-4 13 3 11.3 2.9
4 13 -3 15.3 2.5
-4 13 3 12.9 3
4 13 -3 15.6 2.7
-4 -13 3 23.8 3
-4 -13 3 14.2 2.8
4 13 3 13.4 2.6
-4 -13 3 14.9 2.7
4 -13 -3 14.4 2.9
-4 13 -3 12.1 2.9
-4 -13 3 16.8 2.8
4 13 3 16 2.6
4 -13 -3 11.1 2.8
4 13 3 13.2 2.7
-4 13 -3 12.3 3
5 13 -3 0.4 0.8
5 13 -3 0.2 0.9
-5 -13 -3 3 1.2
5 13 3 -0.4 0.7
5 13 3 1.1 0.9
5 -13 -3 0.3 1.3
5 13 3 0.4 1.3
6 -13 3 8 2.2
-6 13 3 9.3 2.5
6 -13 3 7.3 2.2
6 13 -3 10.8 1.9
-6 13 -3 9.4 2.4
6 13 3 9.1 1.8
-6 13 -3 5.9 2.2
6 -13 -3 11.3 2.3
6 13 3 14.9 2.3
6 -13 -3 5.7 2
0 -14 -3 187.88 31
0 14 -3 234.18 31
0 -14 3 242.38 31
0 14 3 196.48 31
0 -14 -3 179.68 30.9
0 14 3 157.48 30.9
0 -14 3 226.78 31
-1 14 3 1.3 1.3
1 14 -3 2.8 1.2
1 -14 3 3.2 1.4
1 14 -3 2.5 1.4
1 14 -3 1.8 0.9
1 -14 3 2.2 1.2
-1 14 3 1.9 1.5
-1 -14 -3 3.5 1.3
1 14 -3 2.9 1.1
-1 -14 -3 3.6 1.2
1 14 3 5.3 1.2
-1 14 -3 2.8 1.5
1 -14 -3 2.4 1.3
-1 14 -3 4.4 1.4
-1 -14 3 1.8 1.7
1 -14 -3 2.9 1.3
-1 -14 3 3.7 1.2
1 14 3 1.4 1.2
1 14 3 2.4 1.5
-1 -14 3 4.8 1.3
-2 14 3 99.99 15.8
2 -14 3 96.79 15.8
2 14 -3 102.89 15.7
-2 -14 -3 118.89 15.9
2 14 -3 108.59 15.7
2 14 -3 83.99 15.7
2 14 -3 104.19 15.7
-2 14 3 97.89 15.9
-2 -14 3 102.39 15.7
2 14 3 104.19 15.7
2 14 3 104.79 15.8
-2 -14 3 103.09 15.8
2 -14 -3 91.39 15.8
-2 -14 3 99.49 15.7
-2 14 -3 90.09 15.8
-2 -14 3 100.09 15.8
2 14 3 126.39 15.9
2 14 3 101.39 15.7
-3 -14 -3 23.6 3.4
3 -14 3 13.5 3.3
3 14 -3 16.3 3
3 -14 3 20.4 3.5
3 14 -3 21.9 3.2
-3 -14 -3 13.3 3.2
3 14 -3 18 3.1
-3 -14 -3 24 3.5
-3 14 3 12.6 3.3
-3 -14 -3 16.9 3.2
-3 14 3 13.3 3.3
3 14 -3 17.9 3.3
-3 -14 3 28.8 3.4
3 14 3 17.3 3.4
3 14 3 17.5 3
3 -14 -3 13.5 3.3
-3 -14 3 17.6 3.2
-3 -14 3 18.4 3.3
-3 14 -3 18.9 3.5
3 14 3 19.4 3.2
3 -14 -3 12.2 3.2
3 14 3 21.4 3.4
-3 14 -3 21.3 3.4
-4 -14 -3 41.2 6.4
-4 -14 -3 39.4 6.5
4 14 -3 39.3 6.1
4 14 -3 43.3 6.2
4 14 -3 46.2 6.5
-4 -14 -3 37 6.5
4 14 -3 41.3 6.1
-4 -14 -3 35 6.3
4 14 3 46.9 6.6
-4 -14 3 36.4 6.5
4 14 3 23.8 6.2
4 14 3 49.5 6.3
4 14 3 37.9 6.2
5 -14 3 4.3 1.6
5 14 -3 7.5 1.6
-5 14 3 2.1 1.8
-5 14 3 6.4 1.9
5 -14 3 3.3 1.5
5 14 -3 5.2 1.3
5 14 3 4.3 1.2
-5 14 -3 5.7 1.8
5 14 3 6.9 1.3
5 -14 -3 4.7 1.6
5 14 3 4.8 1.3
-5 14 -3 6.1 1.9
6 -14 3 3.2 1.8
-6 14 3 5.1 2
6 14 -3 10.6 1.8
6 -14 3 6 1.8
6 14 -3 7.5 1.5
-6 14 3 5.4 2.1
6 14 3 8.5 2
6 14 3 6.7 1.6
-6 14 -3 5.2 2.1
-6 14 -3 7.6 2
6 -14 -3 8.1 2.1
6 -14 -3 6.2 1.9
0 15 3 0.7 1.2
0 -15 3 1.6 1.1
0 15 -3 -1.6 0.9
0 -15 -3 0 0.9
0 -15 3 -0.6 0.9
0 15 -3 -0.7 1.1
0 15 3 1.5 1.3
0 -15 -3 2 1.2
1 15 -3 23.4 4.1
-1 15 3 17.6 4.1
1 15 -3 26.4 4.3
-1 15 3 22.5 4.3
1 -15 3 22.7 4.2
1 -15 3 21.6 4.3
1 15 -3 27.2 4.2
-1 -15 -3 26.3 4.2
-1 -15 -3 25.1 4.2
1 15 3 22.4 4.3
-1 15 -3 30.8 4.5
1 15 3 22.1 4.2
-1 -15 3 26.8 4.2
1 -15 -3 22.6 4.1
1 -15 -3 21 4.1
-1 -15 3 22.5 4.1
-1 15 -3 26 4.5
2 -15 3 8.5 1.9
2 15 -3 4.8 1.3
2 15 -3 6.3 1.4
-2 -15 -3 6.2 1.5
-2 15 3 6.6 2
2 15 -3 3.3 1.5
2 -15 3 6.2 1.7
-2 15 3 6.8 3.1
-2 -15 -3 4.8 1.5
2 15 3 8.1 1.8
2 15 3 5.2 1.8
2 15 3 4.4 1.2
-2 -15 3 4.4 1.3
2 -15 -3 5.1 1.7
-2 -15 3 5.8 1.5
-2 15 -3 4.2 1.5
-2 15 -3 4 1.7
2 -15 -3 2.2 1.4
3 15 -3 5.9 1.6
3 15 -3 6.5 1.9
-3 -15 -3 8.1 1.9
3 15 -3 8.4 1.6
-3 -15 -3 6.7 1.7
-3 -15 -3 7 2.8
-3 -15 3 10.3 2
-3 -15 3 3.6 1.9
-3 -15 3 7.4 1.8
3 15 3 11.2 2.3
-3 -15 3 6.9 1.7
3 15 3 8.3 1.7
3 15 3 7.2 1.6
3 15 3 6.9 1.8
-4 -15 -3 4.2 1.2
-4 -15 -3 1.3 1.2
4 15 -3 1.1 0.7
4 -15 3 0.3 1.2
-4 -15 -3 2.1 1.4
4 15 -3 -1.4 1.2
-4 15 3 3.8 1.6
-4 15 3 3.5 1.6
4 -15 3 1.9 1.2
4 15 -3 2.6 1
4 15 -3 2.1 0.9
-4 15 -3 1.7 1.6
4 -15 -3 0.3 1.2
-4 15 -3 0.2 1.2
4 15 3 1.7 1
4 15 3 1.6 0.9
4 -15 -3 1.6 1.3
4 15 3 1.7 1.5
-5 15 3 4.3 1.8
5 -15 3 0.1 1.3
5 15 -3 1.7 1
-5 15 3 1.4 1.5
5 15 -3 2.6 1.2
5 -15 3 0.6 1.2
5 -15 -3 0.3 1.2
5 -15 -3 0.7 1.2
5 15 3 0.7 0.9
5 15 3 1 1.5
-5 15 -3 0.9 1.5
5 15 3 1 1
-5 15 -3 0.8 1.4
5 15 3 1.9 0.8
0 -16 -3 20.9 3
0 -16 3 14.4 2.9
0 -16 3 11.7 2.6
0 16 3 7.5 2.7
0 -16 -3 20.8 3.1
0 16 3 16 2.9
0 16 -3 16.7 2.8
0 16 -3 9.1 2.8
1 -16 3 5.6 1.6
-1 16 3 4.4 1.8
1 16 -3 5.1 1.7
-1 -16 -3 8.5 1.8
-1 -16 -3 5.6 1.7
-1 16 3 5.1 2
1 -16 3 5.6 1.6
1 16 -3 4.1 1.6
-1 -16 3 5.7 1.6
1 -16 -3 4.4 1.6
-1 16 -3 6.9 2
-1 -16 3 5.5 1.6
-1 16 -3 7 1.7
1 -16 -3 5.3 1.6
1 16 3 10 2
1 16 3 4.9 1.8
-2 -16 -3 1.8 1.2
2 16 -3 2 1.3
2 16 -3 -0.8 1
-2 -16 -3 0.6 1
2 16 3 0.4 1.2
2 16 3 3.6 1.5
-2 -16 3 -1.6 0.9
-2 16 -3 3.6 2.3
-2 -16 3 -0.6 0.9
-3 16 3 12.3 2.7
3 16 -3 15.3 2.4
-3 -16 -3 12.2 2.4
-3 16 3 6.1 2.3
3 16 -3 11.9 2.2
3 16 -3 7.4 2.3
3 -16 3 9.9 2.4
3 16 -3 14 2.2
-3 -16 -3 9.9 2.3
3 -16 3 11.1 2.4
3 16 3 5.9 2.3
-3 16 -3 6.4 2.4
-3 -16 3 11.6 2.3
3 16 3 9.4 2
3 -16 -3 14.5 2.5
-3 -16 3 15.5 2.4
3 -16 -3 13.5 2.5
3 16 3 12.6 2.4
-3 -16 3 7.2 2.3
4 16 -3 -0.3 0.8
4 16 -3 -1 0.7
-4 16 3 0.6 1.5
4 16 -3 0.1 1.3
4 -16 3 -1.8 0.9
4 16 -3 0.5 0.9
4 -16 3 -0.1 1.2
-4 16 3 1.2 1.5
4 -16 -3 -0.1 1.2
-4 16 -3 0.6 1.3
4 -16 -3 1.3 1.2
4 16 3 -0.1 1.1
4 16 3 3.2 1.6
4 16 3 0.3 0.8
-4 16 -3 0.8 1.5
0 -17 3 0.1 1
0 17 -3 -1.4 1.3
0 17 3 1.8 1.4
0 -17 -3 -0.3 1
0 -17 3 -1.2 1.3
0 17 3 1.4 1.4
0 17 -3 -0.1 1.1
0 -17 -3 -1.1 1
1 17 -3 -0.7 1.1
-1 -17 -3 -0.8 1
1 17 -3 1.2 1.4
-1 -17 -3 0.9 1.2
1 17 3 0.5 1.4
1 -17 -3 -0.6 1.1
1 17 3 -0.3 1.2
-1 -17 3 0.8 1.1
-1 -17 3 0.2 1
-1 17 -3 0.3 1.2
2 17 -3 2.6 1.7
-2 -17 -3 8.6 1.9
-2 -17 -3 6.4 1.7
2 -17 3 5 1.8
-2 17 3 2.7 1.8
-2 17 3 6.8 2.1
2 17 -3 5.4 1.6
2 -17 3 5.3 1.7
-2 -17 3 8.9 1.8
-2 -17 3 8.1 1.9
2 17 3 7.8 1.9
2 -17 -3 5.3 1.7
-2 17 -3 7.5 2
2 -17 -3 6.4 2
-2 17 -3 4.3 1.9
2 17 3 9 2.2
3 17 -3 1.6 1
-3 -17 -3 4.7 1.6
-3 17 3 2.7 1.6
3 -17 3 3.8 1.6
3 -17 3 4.2 1.5
3 17 -3 4.3 1.4
-3 -17 -3 3.9 1.4
-3 17 3 6.7 2
3 17 -3 4.6 1.6
-3 17 -3 3.1 1.7
-3 -17 3 3.9 1.4
-3 17 -3 4.6 1.8
3 -17 -3 3.1 1.5
3 -17 -3 5 1.7
3 17 3 3.9 1.4
3 17 3 2.5 1.6
0 -18 -3 23.3 4.3
0 -18 -3 29 4.4
0 18 -3 23.8 4.3
0 18 3 18.8 4.2
-1 -18 -3 2.1 1.4
1 -18 3 2.1 1.4
-1 18 3 2 1.5
1 18 -3 3.9 1.7
1 -18 3 3.3 1.6
-1 18 3 2 1.6
1 18 -3 2 1.4
1 -18 -3 2 1.3
-1 18 -3 5.6 1.8
-1 -18 3 3 1.3
1 -18 -3 3.7 1.5
-1 -18 3 1.7 1.5
-1 18 -3 3 1.5
1 18 3 1.1 1.3
-2 -18 -3 20.9 3.5
2 -18 3 15.9 3.3
-2 -18 3 17 3.3
2 -18 -3 15.4 3.3
0 0 4 182.38 25.7
0 0 -4 143.39 25.7
0 0 -4 169.18 25.7
0 0 4 180.38 25.7
0 0 4 176.68 25.7
0 0 -4 171.68 25.7
0 0 -4 173.68 25.7
0 0 4 155.88 25.7
1 0 -4 224.28 32.7
1 0 4 201.68 32.7
-1 0 -4 197.28 32.7
1 0 4 212.78 32.7
-1 0 4 230.58 32.7
-1 0 -4 215.88 32.7
1 0 4 188.58 32.7
-1 0 -4 218.88 32.7
1 0 4 193.38 32.7
-1 0 4 237.98 32.7
-1 0 -4 226.98 32.7
1 0 -4 225.28 32.7
2 0 4 1046.5 168.18
-2 0 4 1172.58 168.18
-2 0 4 1070.49 168.18
2 0 4 1239.78 168.18
2 0 4 1119.89 168.18
2 0 -4 1147.19 168.18
-2 0 -4 1176.18 168.18
-2 0 -4 1032.7 168.18
-2 0 -4 1086.79 168.18
2 0 -4 1068.09 168.08
2 0 -4 1178.78 168.18
-2 0 4 919.91 168.18
-2 0 -4 1115.09 168.18
-3 0 -4 0.2 0.5
3 0 -4 0 0.3
-3 0 4 0.3 0.5
3 0 -4 -0.2 0.5
3 0 4 0.5 0.5
3 0 -4 -0.2 0.6
-3 0 4 0 0.5
3 0 4 -0.1 0.5
3 0 4 0.3 0.5
-3 0 4 0.2 0.5
-3 0 -4 0.2 0.6
-3 0 -4 -0.2 0.6
-3 0 4 -0.7 0.7
-3 0 -4 -0.1 0.5
3 0 4 0.5 0.6
-4 0 4 250.27 37.2
4 0 -4 236.48 37.1
-4 0 4 207.08 37.2
-4 0 -4 258.27 37.2
-4 0 -4 257.67 37.2
4 0 -4 236.38 37.2
-4 0 4 251.67 37.2
4 0 4 262.07 37.2
4 0 4 244.28 37.2
4 0 -4 266.37 37.2
-4 0 4 232.98 37.2
4 0 -4 246.08 37.1
4 0 4 228.88 37.2
5 0 4 30.6 4.2
5 0 4 36.6 4.1
5 0 -4 25.2 4
-5 0 -4 28.5 4.1
-5 0 -4 24.8 4
5 0 4 19.5 3.9
-5 0 -4 19.9 4
-5 0 4 29.5 4.1
-5 0 -4 25.6 4.1
5 0 -4 20.5 3.8
5 0 -4 26.4 4
-5 0 4 29 4
-5 0 4 24.6 3.9
6 0 4 52.79 8.1
-6 0 -4 52.79 8.1
6 0 -4 54.69 8
6 0 -4 48.9 8.1
-6 0 -4 47.5 8.1
-6 0 4 50.69 8.1
6 0 4 51.79 8
6 0 4 52.29 8.1
-6 0 -4 56.09 8.1
-6 0 -4 49.1 8.1
-6 0 4 54.19 8.1
7 0 -4 10.3 1.6
7 0 4 7.6 1.8
-7 0 -4 6.7 1.6
-7 0 -4 8.7 1.7
7 0 4 6.2 1.5
-7 0 4 8.2 1.6
-7 0 4 9.6 1.7
-7 0 -4 8.6 1.7
-7 0 4 7.5 1.6
7 0 4 6.8 1.6
-7 0 -4 6.2 1.5
-7 0 4 7.9 1.6
-8 0 -4 1.8 0.9
8 0 4 0.2 0.9
-8 0 -4 0.6 0.8
8 0 4 -1.2 0.7
8 0 -4 -1 0.9
8 0 4 1.1 0.9
8 0 4 0.7 1
-8 0 -4 0.6 1
8 0 -4 0.8 0.8
9 0 4 1.1 1
9 0 4 0.1 1.1
9 0 -4 -0.7 0.8
9 0 4 -0.5 0.7
9 0 -4 0.8 1.1
9 0 4 -1.2 0.9
0 -1 4 0.8 0.4
0 -1 -4 -0.1 0.5
0 1 -4 -0.3 0.4
0 1 -4 0.1 0.4
0 -1 -4 0 0.4
0 1 4 -0.1 0.5
0 1 4 -0.9 0.4
0 1 4 -0.2 0.5
0 1 -4 -0.5 0.5
0 -1 -4 -0.3 0.4
0 -1 -4 0.7 0.5
0 1 -4 0.2 0.4
0 1 4 0.2 0.5
0 -1 4 0.4 0.4
1 1 -4 22 3.2
1 -1 4 20.2 3.2
-1 1 4 35.1 3.4
1 1 -4 19.9 3.2
-1 -1 -4 19.7 3.2
-1 1 4 20 3.2
-1 -1 -4 24.8 3.3
-1 -1 -4 19.8 3.3
-1 1 4 21.8 3.3
-1 1 4 20.5 3.2
1 -1 4 25.4 3.3
1 -1 4 23 3.3
1 -1 4 23.7 3.3
-1 1 -4 21.9 3.3
1 -1 -4 18.3 3.2
1 -1 -4 25.2 3.3
-1 -1 4 17.1 3.2
1 1 4 18.2 3.2
-1 1 -4 14.2 3.2
1 -1 -4 20 3.2
1 -1 -4 19.5 3.2
1 1 4 23.3 3.3
-1 -1 4 20.2 3.2
1 1 4 21.6 3.2
-1 1 -4 17.7 3.3
1 1 4 18.5 3.2
2 -1 4 728.13 114.39
2 -1 4 675.23 114.29
2 1 -4 802.52 114.29
-2 -1 -4 771.52 114.29
-2 1 4 851.51 114.39
2 -1 4 767.62 114.39
-2 -1 -4 856.71 114.39
-2 -1 -4 764.42 114.29
-2 1 4 761.22 114.29
-2 1 4 711.33 114.39
-2 1 4 664.93 114.29
2 -1 4 737.53 114.39
-2 -1 4 716.73 114.29
-2 -1 4 738.83 114.29
-2 1 -4 719.13 114.39
2 -1 -4 795.82 114.29
-2 1 -4 687.73 114.29
2 -1 -4 778.12 114.39
-2 -1 4 771.82 114.29
-2 1 -4 704.03 114.29
2 -1 -4 726.23 114.29
-2 1 -4 790.82 114.39
2 1 4 730.23 114.29
2 -1 -4 788.12 114.29
-3 -1 -4 27.6 4.2
-3 -1 -4 23.9 4.2
-3 1 4 27.5 4.3
-3 1 4 28.6 4.2
-3 1 4 26.4 4.2
-3 -1 -4 32.2 4.3
-3 -1 -4 26.9 4.2
3 -1 4 24 4.3
3 1 -4 24 4.2
3 -1 4 27 4.3
3 -1 4 27.4 4.2
-3 1 4 39.9 4.5
3 -1 4 28.2 4.3
3 1 4 28.1 4.2
3 -1 -4 27.4 4.2
3 -1 -4 27.3 4.2
-3 -1 4 25.7 4.2
-3 1 -4 23.4 4.3
3 1 4 28.2 4.2
3 -1 -4 29.8 4.3
-3 1 -4 26.4 4.3
3 1 4 25.4 4.2
-3 -1 4 27 4.2
-3 1 -4 26.7 4.3
3 -1 -4 25.2 4.3
-3 1 -4 30.1 4.3
3 1 4 25.1 4.2
-4 -1 -4 3.8 0.8
-4 -1 -4 2.4 0.7
-4 1 4 2.8 1
4 -1 4 1.9 0.8
4 -1 4 2 0.8
-4 1 4 2.9 0.8
4 1 -4 2.8 0.7
-4 1 4 3.4 0.9
4 1 -4 2.5 0.7
-4 -1 -4 1.8 0.7
-4 -1 -4 3.1 0.8
4 -1 4 2.7 0.9
-4 1 4 3 0.8
4 1 4 2.6 0.7
-4 1 -4 4.9 0.9
-4 1 -4 2.5 0.8
-4 1 -4 2.2 0.8
4 -1 -4 2.2 0.8
-4 -1 4 3.8 0.8
-4 -1 4 2.8 0.7
4 1 4 2.3 0.7
4 1 4 4.5 0.8
4 -1 -4 2.8 0.8
-4 1 -4 1.2 0.9
4 1 4 2.5 0.8
4 -1 -4 3.2 0.7
4 -1 -4 3.3 0.8
-4 -1 4 1.6 0.6
-4 -1 4 3.9 0.8
5 -1 4 4.4 1.1
5 -1 4 7.1 1.3
-5 -1 -4 3.9 1.2
-5 -1 -4 7.3 1.3
5 -1 4 5.7 1.2
-5 1 4 6.6 1.3
5 1 -4 5.5 1.1
5 1 -4 5.7 1.1
5 -1 4 5.3 1.2
-5 -1 -4 7.6 1.2
-5 -1 -4 5.4 1.2
-5 1 4 6.7 1.3
5 -1 -4 4.2 1.1
-5 1 -4 4.6 1.2
-5 1 -4 7.1 1.3
5 1 4 3.8 1.1
5 -1 -4 5.9 1.8
-5 -1 4 6.9 1.2
-5 1 -4 5.1 1.3
5 1 4 5.5 1.1
5 -1 -4 6.6 1.3
-5 -1 4 7.2 1.2
5 1 4 5 1.2
-5 -1 4 5.5 1.1
5 -1 -4 6.4 1.1
-5 -1 4 5.6 1.1
-5 1 -4 5.4 1.3
6 -1 4 -0.1 0.7
-6 1 4 0.9 0.8
-6 -1 -4 -0.2 0.6
-6 -1 -4 0.7 0.7
-6 1 4 1.3 0.8
6 -1 4 1.3 0.7
-6 -1 -4 -1 0.6
-6 -1 -4 0.7 0.6
6 1 -4 0.4 0.7
6 -1 4 0.5 0.7
-6 1 4 0.1 0.7
6 1 -4 0 0.6
-6 1 4 0.6 0.7
6 -1 4 0.6 0.6
-6 -1 4 0.3 0.6
6 -1 -4 -0.8 0.5
-6 1 -4 0.2 0.7
6 -1 -4 0.6 0.8
6 -1 -4 0.9 0.6
-6 1 -4 0.3 0.8
-6 -1 4 -0.1 0.7
6 1 4 0.1 0.7
6 1 4 -0.8 0.7
6 -1 -4 -0.5 0.7
6 1 4 -0.9 0.6
6 1 4 0 0.5
-6 -1 4 0.1 0.6
-6 1 -4 -0.1 0.7
-6 1 -4 0.1 0.7
-6 -1 4 -1.2 0.6
-7 1 4 40.2 6.7
-7 1 4 45.5 6.7
7 -1 4 40.8 6.7
-7 -1 -4 41 6.7
-7 1 4 42 6.7
7 -1 4 42.4 6.6
7 -1 4 41.5 6.7
-7 1 4 47.5 6.7
-7 -1 -4 42.2 6.6
7 1 -4 45.4 6.7
7 1 -4 45 6.6
-7 -1 -4 45.2 6.7
-7 -1 -4 31.1 6.7
7 -1 4 50.79 6.8
7 -1 -4 38.1 6.6
-7 1 -4 43 6.8
7 -1 -4 39.1 6.8
7 1 4 49.4 6.7
-7 1 -4 44.3 6.9
-7 -1 4 41.9 6.6
7 1 4 44.3 6.7
7 1 4 39 6.6
-7 1 -4 42.6 6.7
7 -1 -4 38.9 6.7
-7 -1 4 42 6.7
-7 1 -4 40.9 6.7
-7 -1 4 45.2 6.7
-7 -1 4 44 6.6
8 -1 4 0.8 1
8 -1 4 4.7 1.2
8 1 -4 4.2 1
8 -1 4 3.9 1.2
-8 -1 -4 3.2 1.1
8 -1 4 1.7 0.9
-8 1 -4 3.5 1.3
8 -1 -4 1.8 0.8
8 1 4 4.2 1.2
8 -1 -4 2.8 1.1
8 -1 -4 4 1.3
-8 1 -4 4.3 1.2
-8 1 -4 1.8 1.1
8 1 4 3.1 0.9
8 1 4 2.6 1.1
8 -1 -4 1.7 0.8
9 -1 4 -0.8 0.9
9 -1 4 0.4 1
9 -1 4 0 0.9
9 -1 4 -0.9 0.9
9 1 -4 -0.8 1
9 1 -4 0.1 0.8
9 -1 -4 0.2 0.9
9 -1 -4 0.1 1.1
9 1 4 -1.3 0.9
9 1 4 -0.3 0.7
0 2 4 21.7 3.6
0 -2 -4 34.6 3.7
0 -2 -4 24.6 3.6
0 2 -4 17.8 3.5
0 -2 4 22.5 3.6
0 2 -4 21.7 3.6
0 -2 4 19.8 3.6
0 2 4 18.7 3.6
0 -2 4 24.9 3.6
0 2 -4 30.5 3.6
0 2 -4 23.9 3.6
0 2 4 21.8 3.6
0 -2 -4 21.1 3.6
0 -2 -4 25.3 3.6
0 -2 4 22.8 3.6
1 -2 4 24.2 4.1
-1 2 4 25.8 4.1
-1 -2 -4 25.9 4
-1 -2 -4 21.6 4.1
-1 2 4 30.7 4.2
-1 2 4 27.6 4.1
-1 -2 -4 22.5 4
1 -2 4 24.9 4.1
1 -2 4 35.2 4.2
1 -2 4 26.2 4.1
-1 -2 -4 26.1 4.1
-1 2 4 28.1 4.1
1 2 4 27 4
1 2 4 28.6 4.1
-1 2 -4 23.7 4.1
1 -2 -4 28.5 4.2
-1 2 -4 22.5 4.1
1 -2 -4 25.5 4.1
-1 -2 4 25.3 4
1 -2 -4 27.4 4.1
-1 -2 4 26.4 4
-1 2 -4 24.1 4.1
1 -2 -4 27.9 4.1
1 2 4 24.6 4
1 2 4 23.6 4.1
-1 2 -4 29.5 4.1
-2 2 4 7.5 1.4
2 -2 4 5.5 1.3
-2 2 4 8.3 1.4
2 2 -4 7.5 1.2
2 -2 4 5.9 1.4
2 2 -4 7.1 1.2
2 -2 4 10 1.5
2 -2 4 5 1.3
-2 2 4 6.3 1.5
-2 -2 -4 8.1 1.3
-2 -2 -4 9.2 1.3
-2 -2 -4 7.8 1.3
-2 -2 -4 5.7 1.3
-2 2 4 7.8 1.5
2 2 4 6.7 1.3
2 2 4 7.1 1.3
-2 2 -4 5.9 1.3
-2 -2 4 9.5 1.2
-2 -2 4 8.6 1.2
-2 2 -4 7.3 1.4
2 2 4 6.1 1.2
-2 2 -4 4 1.3
2 2 4 5.1 1.3
-2 2 -4 5.4 1.3
2 -2 -4 5 1.4
-3 2 4 500.85 81.59
3 -2 4 528.35 81.59
3 -2 4 562.64 81.59
-3 -2 -4 537.45 81.59
-3 2 4 614.84 81.69
-3 -2 -4 524.15 81.59
-3 2 4 561.74 81.69
-3 -2 -4 472.05 81.59
-3 -2 -4 576.14 81.59
-3 2 4 537.65 81.59
3 2 4 557.64 81.59
3 -2 -4 474.05 81.59
3 2 4 548.25 81.59
3 2 4 525.55 81.59
-3 2 -4 538.45 81.69
3 -2 -4 568.34 81.59
3 -2 -4 512.45 81.59
-3 2 -4 610.14 81.69
3 2 4 524.25 81.59
3 -2 -4 464.25 81.59
-4 -2 -4 255.37 39.1
4 -2 4 243.88 39.2
-4 -2 -4 262.67 39.1
-4 2 4 273.97 39.2
4 -2 4 223.98 39.1
-4 -2 -4 237.58 39.1
4 -2 4 248.78 39.1
-4 2 4 271.97 39.2
4 -2 4 302.57 39.2
4 -2 -4 271.77 39.1
4 2 4 248.18 39.1
-4 2 -4 285.17 39.2
4 -2 -4 245.58 39.1
-4 2 -4 272.87 39.2
4 2 4 227.98 39.1
-4 2 -4 263.37 39.1
4 2 4 253.97 39.1
-4 2 -4 247.18 39.1
5 -2 4 0.7 0.6
5 -2 4 0.2 0.7
-5 -2 -4 0.9 0.6
-5 -2 -4 -0.2 0.5
-5 2 4 1 0.8
-5 2 4 0 0.6
-5 2 4 0.6 0.6
5 -2 4 -0.5 0.5
5 -2 4 0.5 0.7
-5 2 4 0.5 0.8
5 2 4 0.8 0.6
-5 2 -4 0 0.6
5 -2 -4 1.5 0.7
-5 2 -4 0.3 0.7
5 2 4 0.1 0.5
5 2 4 0.8 0.5
5 -2 -4 1.3 0.7
-5 2 -4 1.5 0.8
-5 2 -4 0.7 0.7
5 -2 -4 -0.3 0.6
5 -2 -4 0.7 0.8
-6 -2 -4 74.79 11.1
-6 2 4 60.49 11.1
-6 -2 -4 71.69 11.1
-6 2 4 71.79 11.1
6 -2 4 65.99 11.1
-6 -2 -4 67.29 11
6 -2 4 86.79 11.2
-6 2 4 72.89 11.1
6 -2 4 64.69 11.1
-6 2 4 77.89 11.1
6 2 -4 74.79 11
6 -2 4 74.39 11.1
-6 -2 -4 76.49 11.1
-6 2 -4 66.99 11.1
6 2 4 71.59 11
-6 -2 4 78.69 11
6 -2 -4 67.19 11.1
-6 2 -4 72.99 11.1
6 -2 -4 68.89 11.1
6 -2 -4 76.99 11.2
-6 -2 4 71.19 11
-6 2 -4 64.59 11.1
-6 2 -4 81.59 11.2
-6 -2 4 68.69 11
-6 -2 4 72.69 11
6 2 4 72.49 11
6 2 4 66.59 11
6 2 4 77.49 11.1
-7 -2 -4 5 1.3
-7 -2 -4 7.9 1.4
7 -2 4 7.9 1.5
-7 2 4 4.3 1.5
7 -2 4 5.6 1.3
7 -2 4 5.6 1.4
7 2 -4 5.4 1.1
-7 -2 -4 5.8 1.3
-7 2 4 5 1.5
-7 2 4 5.7 1.4
-7 -2 -4 5.6 1.4
-7 2 4 4.5 1.4
-7 -2 4 6.6 1.2
7 2 4 6 1.4
7 2 4 6.9 1.3
-7 -2 4 6.7 1.3
7 2 4 5.8 1.2
-7 -2 4 7.4 1.2
7 -2 -4 3.9 1.2
7 2 4 4.2 1.2
-7 2 -4 4.6 1.4
-7 2 -4 6.3 1.5
7 -2 -4 5.7 1.4
7 -2 -4 7.4 1.6
8 2 -4 13.4 2.6
-8 2 4 14.8 2.7
8 -2 4 12.7 2.8
-8 2 4 16.2 3.6
8 -2 4 17.4 2.8
8 2 4 12.9 2.5
-8 2 -4 12.1 2.7
8 -2 -4 18.2 2.8
8 2 4 18.6 2.8
8 2 4 11 2.5
-8 2 -4 18.8 2.9
-8 2 -4 17.7 2.8
8 2 4 16.1 2.6
-8 2 -4 17.1 2.9
8 -2 -4 16 2.6
9 -2 4 2.6 1.2
9 2 -4 1.9 1.1
9 -2 4 2.4 1.2
9 2 -4 2.6 0.9
9 -2 4 0.4 1.1
9 -2 -4 2.1 1.3
9 -2 -4 2.1 0.9
9 2 4 2.8 1.1
9 2 4 1.4 1
0 -3 -4 0.3 0.6
0 -3 -4 0.2 0.5
0 3 -4 0 0.5
0 3 4 -0.1 0.5
0 3 4 0.5 0.6
0 -3 4 -0.4 0.4
0 -3 4 -0.2 0.5
0 3 -4 0.4 0.5
0 -3 -4 1.1 0.7
0 3 4 0.3 0.8
0 3 4 0.1 0.6
0 -3 4 -0.9 0.6
0 3 -4 -0.4 0.5
0 -3 4 0.5 0.6
0 3 -4 -1 0.5
0 -3 -4 0.3 0.8
-1 -3 -4 27.9 3.1
1 -3 4 15.2 3
1 3 -4 13.1 2.9
-1 3 4 24.1 3.1
1 -3 4 15.8 3
-1 -3 -4 30.1 3.1
1 -3 4 25 3.1
-1 3 4 20.6 3.1
-1 3 4 26.3 3.1
-1 -3 -4 23.5 3.1
-1 -3 -4 15.4 3
1 3 -4 20.8 2.9
1 3 -4 17.7 2.9
1 -3 4 18.7 3
-1 3 4 18.7 3.1
1 3 4 14.9 3
1 -3 -4 12.6 3
-1 -3 4 17.1 2.9
1 3 4 19.1 3
1 3 4 17.1 3
1 -3 -4 12.4 3
-1 3 -4 24.7 3.1
-1 -3 4 17.2 2.9
-1 -3 4 20.8 2.9
-1 3 -4 19.6 3.1
-1 3 -4 14.1 3
1 -3 -4 17.1 3.1
1 3 4 24 3
-1 3 -4 16.4 3
1 -3 -4 26.2 3.2
-2 -3 -4 471.45 73.59
2 -3 4 427.16 73.69
-2 -3 -4 453.55 73.59
-2 -3 -4 452.55 73.59
-2 3 4 573.94 73.69
2 -3 4 436.36 73.69
2 3 -4 487.05 73.59
-2 3 4 494.95 73.69
-2 -3 -4 555.34 73.69
2 3 -4 481.05 73.59
-2 3 4 458.75 73.69
-2 3 4 429.46 73.69
2 3 4 483.55 73.59
-2 -3 4 503.05 73.59
2 3 4 460.55 73.69
-2 3 -4 536.15 73.69
2 -3 -4 534.25 73.69
2 -3 -4 507.35 73.69
-2 -3 4 453.85 73.59
2 -3 -4 492.95 73.69
2 -3 -4 460.95 73.69
2 3 4 477.65 73.59
-2 3 -4 513.45 73.69
-3 -3 -4 276.97 44.7
-3 3 4 308.07 44.8
-3 3 4 315.37 44.8
-3 -3 -4 290.37 44.7
-3 -3 -4 274.97 44.7
3 -3 4 288.57 44.8
-3 -3 -4 251.77 44.7
3 -3 -4 258.57 44.7
3 -3 -4 299.47 44.8
-3 3 -4 333.77 44.8
3 3 4 285.87 44.7
3 -3 -4 341.07 44.8
-3 3 -4 283.27 44.8
-3 3 -4 279.57 44.8
-3 3 -4 273.07 44.8
3 3 4 335.97 44.7
3 3 4 315.37 44.7
-4 3 4 25.5 3.7
-4 3 4 21.8 3.8
-4 3 4 17.3 3.6
4 -3 4 15.6 3.7
-4 -3 -4 24.5 3.6
-4 3 4 24.6 3.8
4 -3 4 21.8 3.7
-4 -3 -4 22.4 3.6
-4 -3 -4 22.7 3.5
-4 -3 -4 23.2 3.6
4 -3 4 17.1 3.7
4 -3 4 24.8 3.8
4 3 4 18.5 3.5
4 -3 -4 22.5 3.7
4 3 4 23.4 3.6
-4 3 -4 32.1 3.9
-4 3 -4 24 3.7
4 -3 -4 27.4 3.8
4 3 4 20 3.5
-4 3 -4 27.7 3.8
4 3 4 29.5 3.6
-4 3 -4 21 3.7
4 -3 -4 26.9 3.8
-5 3 4 10.6 2.1
-5 -3 -4 9.9 1.8
5 -3 4 8.9 1.9
-5 -3 -4 10.5 1.8
5 -3 4 9.1 2
5 -3 4 10.3 2
-5 3 4 9.5 1.9
-5 3 4 7.4 2
-5 3 4 7.5 1.9
5 -3 4 7.4 1.9
5 3 4 16.4 1.9
-5 3 -4 11.1 2
5 -3 -4 9.5 1.9
5 3 4 10.9 1.8
5 -3 -4 10.2 2
-5 3 -4 11.9 2
5 -3 -4 11.4 2.1
-5 3 -4 10.7 2
-5 3 -4 9.8 2
5 3 4 11.7 1.8
5 -3 -4 9 1.9
5 3 4 12.1 1.8
-6 3 4 103.19 15.6
-6 3 4 101.99 15.7
6 -3 4 96.19 15.7
-6 3 4 104.09 15.6
-6 -3 -4 101.79 15.6
-6 -3 -4 107.79 15.6
6 -3 4 109.69 15.7
-6 -3 -4 90.09 15.6
-6 -3 -4 102.79 15.6
6 -3 4 112.19 15.7
-6 3 4 104.29 15.7
6 -3 -4 95.49 15.6
6 3 4 95.19 15.5
-6 3 -4 105.09 15.7
6 -3 -4 102.99 15.7
-6 3 -4 109.59 15.7
6 3 4 103.59 15.6
6 3 4 95.69 15.6
6 -3 -4 111.29 15.7
6 -3 -4 89.79 15.7
-7 3 4 -0.4 1
-7 -3 -4 0.2 0.7
7 -3 4 0.2 0.8
-7 -3 -4 -0.2 0.6
-7 3 4 0.8 0.9
-7 3 4 0.4 0.9
7 -3 4 1.6 0.9
-7 -3 -4 -0.1 0.7
7 -3 4 0.2 0.8
-7 3 4 0.7 1
7 3 4 0.3 0.7
-7 3 -4 -2.4 0.9
7 3 4 -0.1 0.7
-7 3 -4 -0.2 0.9
7 -3 -4 1.1 0.8
7 -3 -4 -0.3 0.9
7 3 4 -0.8 0.6
-7 3 -4 -0.1 0.8
7 -3 -4 -0.4 0.8
-7 3 -4 -0.1 0.9
8 -3 4 68.79 10.5
8 -3 4 64.39 10.5
-8 3 4 74.49 10.5
8 -3 4 65.79 10.4
-8 3 4 71.79 10.5
8 -3 4 59.59 10.4
-8 3 4 62.19 10.5
8 -3 -4 72.79 10.5
8 -3 -4 68.59 10.4
-8 3 -4 69.79 10.5
8 -3 -4 65.99 10.5
8 3 4 62.39 10.3
8 3 4 69.69 10.4
-8 3 -4 74.19 10.5
-8 3 -4 57.19 10.4
9 -3 4 11.6 2.1
9 -3 4 8.4 2
9 3 4 11.1 2
9 -3 -4 9.1 1.9
9 -3 -4 9 2.1
9 3 4 11.3 1.9
9 -3 -4 10.7 2
9 -3 -4 4.5 2
0 -4 -4 132.99 21.7
0 -4 -4 156.88 21.7
0 4 -4 144.29 21.6
0 -4 4 142.79 21.7
0 -4 4 151.68 21.7
0 -4 -4 152.08 21.7
0 -4 4 139.69 21.7
0 4 4 133.49 21.7
0 4 -4 145.89 21.7
0 4 4 155.88 21.7
0 -4 -4 139.99 21.7
0 4 -4 152.18 21.7
0 4 -4 136.49 21.6
0 -4 4 127.79 21.6
0 4 4 122.39 21.6
1 4 -4 69.09 11.8
-1 4 4 88.79 11.9
1 -4 4 87.09 11.9
1 4 -4 78.99 11.8
-1 -4 -4 71.99 11.9
1 -4 4 88.59 11.9
1 -4 4 76.99 11.9
-1 -4 -4 91.99 11.9
-1 4 4 89.89 12
1 4 -4 73.79 11.8
1 -4 4 75.09 11.9
1 4 -4 74.49 11.8
-1 -4 -4 84.29 11.9
-1 -4 -4 76.69 11.9
-1 4 4 74.49 11.9
-1 4 4 74.19 11.9
1 4 4 63.59 11.9
1 -4 -4 82.99 12
-1 -4 4 76.69 11.9
1 4 4 77.89 11.9
-1 4 -4 81.69 11.9
-1 4 -4 70.79 11.9
-1 -4 4 86.89 11.8
1 4 4 82.49 11.9
-1 -4 4 78.19 11.9
1 4 4 75.99 11.9
1 -4 -4 79.09 11.9
-1 -4 4 83.19 11.9
1 -4 -4 66.69 11.9
1 -4 -4 64.19 11.9
-1 4 -4 76.29 11.9
-1 4 -4 62.59 11.9
2 -4 4 14.6 3.8
-2 -4 -4 24.5 3.7
2 -4 4 20.1 3.8
-2 -4 -4 25 3.8
-2 4 4 19.1 3.9
2 -4 4 24.6 3.9
-2 -4 -4 31.5 3.8
2 4 -4 23.1 3.7
-2 -4 -4 27.7 3.8
-2 4 4 28.1 4
2 -4 4 23.9 3.9
2 -4 -4 20.8 3.8
-2 -4 4 21.4 3.7
-2 4 -4 21.9 3.8
2 4 4 28.5 3.9
2 4 4 22.4 3.7
-2 -4 4 21.3 3.6
2 4 4 22.8 3.7
-2 4 -4 25 3.9
-2 4 -4 23.9 3.9
2 -4 -4 28.4 3.9
2 4 4 36.9 3.9
-2 4 -4 24.2 3.9
-3 -4 -4 60.59 9.4
-3 4 4 60.09 9.5
-3 -4 -4 53.29 9.4
3 -4 4 64.69 9.5
-3 4 4 66.09 9.5
3 -4 4 53.29 9.5
-3 -4 -4 69.29 9.4
3 -4 4 58.99 9.5
-3 4 4 62.29 9.5
-3 4 4 68.69 9.5
-3 -4 -4 59.99 9.4
3 4 4 64.59 9.4
-3 4 -4 54.79 9.5
-3 4 -4 56.89 9.5
3 4 4 57.99 9.4
3 -4 -4 62.19 9.5
3 -4 -4 61.19 9.4
-3 4 -4 60.09 9.5
3 4 4 64.29 9.4
3 -4 -4 59.89 9.5
3 4 4 56.59 9.3
3 -4 -4 62.59 9.5
-3 4 -4 71.69 9.5
4 -4 4 177.98 27.7
4 -4 4 193.78 27.7
-4 -4 -4 187.38 27.6
-4 4 4 188.88 27.7
4 -4 4 174.58 27.7
-4 -4 -4 185.58 27.6
-4 4 4 204.68 27.7
4 -4 4 193.18 27.7
-4 4 4 168.88 27.7
-4 -4 -4 195.38 27.6
-4 4 4 183.78 27.7
-4 -4 -4 163.58 27.6
4 4 4 175.58 27.6
4 4 4 174.48 27.6
4 -4 -4 177.58 27.7
4 -4 -4 166.18 27.7
-4 4 -4 181.18 27.7
-4 4 -4 173.18 27.7
-4 4 -4 191.58 27.7
4 -4 -4 170.48 27.7
-4 4 -4 162.98 27.7
4 4 4 198.38 27.6
4 4 4 182.78 27.6
-5 -4 -4 33.3 5.2
-5 4 4 39.7 5.5
5 -4 4 37.3 5.4
-5 -4 -4 37.8 5.2
5 -4 4 35.9 5.5
5 -4 4 25.3 5.3
-5 4 4 39.8 5.3
-5 4 4 40.8 5.5
-5 -4 -4 31.8 5.2
-5 4 4 27.8 5.4
-5 4 -4 34.8 5.5
5 4 4 34.3 5.1
5 4 4 31.4 5.2
-5 4 -4 34.9 5.4
5 4 4 32.9 5.2
5 4 4 28.3 5.1
-5 4 -4 34.8 5.5
5 -4 -4 26 5.3
5 -4 -4 33.6 5.4
5 -4 -4 32.9 5.4
-5 4 -4 38.2 5.5
-6 4 4 39.5 5.8
-6 -4 -4 34.3 5.4
6 -4 4 30.7 5.6
-6 -4 -4 35.7 5.4
6 -4 4 28.9 5.6
-6 4 4 40 5.7
-6 4 4 41.6 5.8
6 -4 4 27.5 5.6
-6 -4 -4 36.1 5.4
-6 4 4 26.4 5.6
-6 4 -4 33.3 5.7
6 -4 -4 28.9 5.6
6 -4 -4 35.3 5.7
6 -4 -4 35.6 5.6
-6 4 -4 35.8 5.7
6 -4 -4 36.8 5.8
-6 4 -4 37.9 5.8
-6 4 -4 37.4 5.7
6 4 4 38.4 5.4
7 -4 4 42.6 7
7 -4 4 35.2 7
-7 -4 -4 44.8 6.8
-7 -4 -4 43.5 6.8
7 -4 4 42.7 7.1
7 -4 4 41.5 7
-7 -4 -4 41.2 6.8
-7 4 4 49.4 7.2
-7 4 4 45.9 7.1
-7 4 4 34.6 7
-7 -4 -4 46.8 6.8
7 -4 -4 47.6 7
7 4 4 54.09 6.8
7 -4 -4 47.4 7.2
-7 4 -4 44 7.1
7 -4 -4 41.1 7.1
-7 4 -4 38.9 7
-7 4 -4 46.9 7.1
7 -4 -4 35.3 6.9
-7 4 -4 47.4 7.2
8 -4 4 2.3 1.1
8 -4 4 4.6 1.2
-8 4 4 5 1.5
-8 4 4 2.7 1.2
-8 4 4 2.1 1.3
8 -4 4 2.3 1.2
-8 4 4 3.4 1.3
8 -4 -4 3.7 1.3
8 4 4 4.6 1.2
8 -4 -4 2.5 1.2
8 -4 -4 2 1.3
8 4 4 3 1
-8 4 -4 2.9 1.2
-8 4 -4 4.4 1.4
9 -4 4 7 1.7
9 -4 4 5.5 1.7
9 -4 4 9.8 1.9
9 -4 -4 7.5 1.8
9 4 4 9.3 1.7
9 -4 -4 5.3 1.8
9 4 4 6.2 1.5
9 -4 -4 6.4 1.8
-9 4 -4 9 1.8
0 5 4 -0.7 0.8
0 5 -4 0.7 0.6
0 -5 4 -0.1 0.7
0 5 -4 0 0.8
0 -5 4 -0.8 0.6
0 5 -4 0.1 0.6
0 -5 4 -0.6 0.6
0 5 -4 -1.1 0.5
0 -5 -4 0.9 0.8
0 -5 -4 0.9 0.7
0 -5 4 0 0.7
0 5 4 0.8 0.9
-1 -5 -4 692.93 122.59
-1 -5 -4 789.42 122.49
-1 -5 -4 910.51 122.59
1 -5 4 816.02 122.59
1 5 -4 878.51 122.49
-1 -5 -4 774.52 122.59
1 -5 4 805.52 122.59
-1 5 4 773.82 122.59
-1 5 4 732.83 122.59
-1 5 4 819.42 122.59
1 5 -4 843.52 122.49
-1 5 4 803.52 122.59
1 -5 -4 754.42 122.59
-1 -5 4 908.51 122.49
1 -5 -4 814.92 122.59
1 -5 -4 688.73 122.59
1 5 4 949.9 122.59
-1 -5 4 766.02 122.49
-1 5 -4 799.32 122.59
-1 5 -4 761.02 122.59
1 -5 -4 847.62 122.59
-1 -5 4 787.02 122.49
-2 5 4 145.19 21.7
-2 -5 -4 158.18 21.6
2 -5 4 148.99 21.6
2 -5 4 138.29 21.6
2 -5 4 133.99 21.6
-2 5 4 123.09 21.6
-2 -5 -4 134.29 21.5
-2 5 4 179.48 21.7
2 5 -4 162.68 21.5
-2 5 4 113.99 21.6
2 -5 4 121.59 21.6
-2 -5 -4 132.19 21.6
-2 -5 -4 129.19 21.5
2 5 -4 142.59 21.5
2 5 -4 147.19 21.5
2 -5 -4 152.18 21.6
2 5 4 128.09 21.6
2 5 4 152.78 21.5
-2 -5 4 147.49 21.5
-2 5 -4 154.18 21.6
2 5 4 148.49 21.5
-2 5 -4 129.69 21.6
-2 -5 4 139.99 21.5
-2 -5 4 152.98 21.5
-2 5 -4 136.39 21.6
-2 -5 4 145.69 21.5
-2 5 -4 145.69 21.6
2 5 4 124.99 21.6
2 -5 -4 149.19 21.6
2 -5 -4 126.59 21.6
2 -5 -4 127.69 21.6
-3 -5 -4 51.39 7.6
-3 5 4 48.8 7.6
3 -5 4 49.1 7.6
-3 5 4 49.1 7.7
3 -5 4 47.3 7.7
3 -5 4 52.49 7.7
-3 -5 -4 51.79 7.5
-3 -5 -4 43.9 7.5
-3 -5 -4 48.3 7.5
-3 5 4 48.6 7.6
-3 5 4 48.1 7.8
3 -5 4 47.6 7.6
3 5 4 50.39 7.6
3 -5 -4 49.9 7.7
3 5 4 45.9 7.6
3 -5 -4 42.2 7.6
-3 5 -4 54.29 7.7
-3 5 -4 49.6 7.7
-3 5 -4 47 7.7
3 -5 -4 51.79 7.7
3 5 4 46.9 7.5
-3 5 -4 48.7 7.7
3 -5 -4 49.8 7.6
3 5 4 53.39 7.6
-4 5 4 27.7 4.6
-4 -5 -4 25.7 4.3
4 -5 4 25.7 4.5
-4 5 4 31.2 4.7
4 -5 4 23.8 4.5
-4 -5 -4 27.4 4.3
-4 5 4 30.4 4.5
-4 -5 -4 27.8 4.3
-4 -5 -4 25.2 4.3
-4 5 4 30.3 4.5
4 -5 4 33.5 4.6
4 -5 4 38.3 4.7
4 -5 -4 26.2 4.5
4 5 4 24.1 4.3
4 5 4 26.4 4.3
-4 5 -4 30 4.6
-4 5 -4 30.2 4.6
4 5 4 28.6 4.3
-4 5 -4 28.2 4.6
4 5 4 26.2 4.2
-4 5 -4 29.2 4.6
4 -5 -4 28.6 4.5
4 -5 -4 25.9 4.6
4 -5 -4 25.4 4.5
-5 5 4 17 3.9
-5 -5 -4 22.8 3.8
-5 -5 -4 22.2 3.8
5 -5 4 20.9 4
-5 5 4 22.5 4
-5 5 4 26.7 4
-5 5 4 27.8 4.1
-5 -5 -4 26.6 3.8
5 -5 4 22.6 4
5 -5 -4 19.3 3.9
5 5 4 26.8 3.8
5 -5 -4 25.1 4.1
-5 5 -4 31.2 4.1
5 5 4 23.6 3.7
5 -5 -4 25.3 4
5 -5 -4 18.6 3.9
-5 5 -4 18.7 3.9
5 5 4 23.1 3.7
5 5 4 26.5 3.8
-6 -5 -4 3.5 1
6 -5 4 4 1.2
-6 -5 -4 5.5 1
-6 5 4 4.7 1.3
6 -5 4 4.6 1.3
-6 5 4 2.6 1.3
-6 5 4 5.2 1.3
6 -5 4 5 1.3
6 -5 4 4 1.2
-6 -5 -4 4.9 1.1
-6 5 -4 0.6 1.1
6 -5 -4 4.3 1.5
6 -5 -4 5.5 1.3
6 -5 -4 2.9 1.2
-6 5 -4 3.2 1.3
6 5 4 4 1
-6 5 -4 6.6 1.5
-6 5 -4 3.4 1.3
-7 5 4 0.6 0.9
-7 5 4 -0.9 1
7 -5 4 -0.5 0.9
-7 5 4 0.2 1.1
-7 -5 -4 0 0.7
7 -5 4 0.8 0.8
-7 5 4 0.7 1
-7 -5 -4 0.8 0.7
7 -5 4 0 0.9
7 -5 4 1.5 1
-7 5 -4 1.4 1.1
7 -5 -4 0.2 1
7 5 4 -0.6 0.7
-7 5 -4 1.3 1
7 -5 -4 0.4 1
7 -5 -4 0.8 1.1
-7 5 -4 -0.6 1
8 -5 4 -0.2 1
-8 5 4 -1 1.1
-8 5 4 -0.3 1.2
-8 5 4 0.3 1.1
8 -5 4 0.5 1.1
-8 5 -4 -0.4 1
8 -5 -4 0.5 1
8 -5 -4 1.4 1.1
8 -5 -4 -0.1 0.9
8 5 4 0.4 0.8
8 5 4 0.4 0.8
8 -5 -4 -0.1 1
-8 5 -4 0.3 1
0 -6 -4 168.08 26.8
0 6 4 168.78 26.8
0 -6 4 143.39 26.8
0 -6 -4 197.88 26.8
0 -6 -4 180.88 26.8
0 6 4 177.18 26.8
0 -6 -4 174.38 26.8
0 6 4 183.38 26.8
0 6 4 181.28 26.9
0 -6 4 183.18 26.8
1 6 -4 291.47 45.1
1 6 -4 330.17 45
1 -6 4 302.57 45.1
1 -6 4 305.77 45.1
-1 6 4 312.07 45.1
1 6 -4 310.47 45.1
-1 -6 -4 261.77 45
1 -6 4 323.67 45.1
1 6 -4 277.47 45
-1 -6 -4 262.37 45.1
-1 6 4 334.57 45.1
-1 6 4 295.67 45.1
1 -6 4 282.77 45.1
1 -6 -4 299.27 45.1
-1 6 -4 324.07 45.1
1 6 4 315.37 45.1
1 -6 -4 320.47 45.1
1 -6 -4 303.57 45.1
1 -6 -4 237.98 45.1
1 6 4 274.47 45.1
-1 -6 4 304.27 45
-1 -6 4 271.47 45
-1 6 -4 295.77 45.1
-1 -6 4 270.37 45.1
-1 6 -4 269.77 45.1
-1 6 -4 337.67 45.1
-2 6 4 4.1 1.3
-2 6 4 4.1 1.2
2 -6 4 3.9 1.2
-2 6 4 4.4 1.1
2 6 -4 5.8 0.9
2 -6 4 4.4 1.2
2 -6 4 1.1 1
-2 -6 -4 5.9 1.1
2 6 -4 3.4 0.8
-2 -6 -4 6.6 1.1
2 -6 4 4.7 1.1
2 6 -4 4.1 1
2 6 -4 6.2 1
-2 6 4 4 1.3
-2 -6 4 4.2 1
2 6 4 3.2 0.9
2 -6 -4 4.3 1.2
2 -6 -4 4.5 1.2
-2 6 -4 4 1.1
-2 6 -4 5.1 1.2
2 -6 -4 2.4 1.1
-2 -6 4 5.5 1
-2 -6 4 3.5 1
2 6 4 4.6 1.2
2 -6 -4 2.9 1.1
-2 6 -4 6 1.4
-2 -6 4 2.3 0.9
-2 6 -4 2.9 1
2 6 4 6.6 1.2
-3 6 4 6.9 1.6
3 -6 4 2.5 1.1
-3 6 4 3.8 1.4
-3 6 4 5.7 1.3
3 6 -4 6.5 1
3 -6 4 3.4 1.2
-3 -6 -4 4 1.2
3 6 -4 6.9 1
-3 6 4 2.5 1.2
-3 -6 -4 7.6 1.1
-3 -6 -4 4.3 1.1
3 -6 4 2.4 1.2
3 -6 4 4.6 1.3
-3 -6 4 6.6 1
-3 -6 4 4.7 1
-3 -6 4 8.7 1.2
3 6 4 3.3 1.2
3 -6 -4 4 1.3
-3 6 -4 7 1.5
3 6 4 4.7 1
-3 6 -4 4 1.3
-3 6 -4 4.4 1.3
-3 6 -4 2.6 1.3
-3 -6 4 5.4 1
3 6 4 5.4 1.2
-4 -6 -4 317.67 44.6
4 -6 4 320.17 44.8
-4 -6 -4 329.87 44.6
4 -6 4 266.67 44.7
-4 6 4 265.37 44.7
-4 6 4 338.37 44.8
-4 -6 -4 296.27 44.6
-4 6 4 274.77 44.7
-4 6 4 267.57 44.7
4 -6 -4 292.47 44.7
4 -6 -4 260.77 44.7
-4 6 -4 289.27 44.7
4 6 4 292.77 44.6
4 6 4 285.97 44.6
4 6 4 336.47 44.6
-4 6 -4 282.27 44.7
4 -6 -4 282.57 44.7
4 6 4 280.47 44.6
4 -6 -4 268.77 44.7
-5 -6 -4 65.59 9.7
5 -6 4 63.09 9.9
-5 -6 -4 69.69 9.7
5 -6 4 61.49 9.9
-5 6 4 64.09 9.9
5 -6 4 63.39 9.9
-5 6 4 61.79 9.8
5 -6 4 58.29 9.9
-5 6 4 69.29 10
5 6 4 65.69 9.7
5 -6 -4 63.79 9.9
-5 6 -4 68.69 9.9
5 6 4 65.79 9.7
-5 6 -4 46.3 10.1
5 -6 -4 54.59 9.8
5 6 4 57.99 9.7
-5 6 -4 59.59 9.9
5 -6 -4 62.59 9.9
-5 6 -4 61.89 9.9
6 -6 4 32.4 5.7
-6 6 4 27.3 5.6
-6 6 4 36.9 5.6
-6 -6 -4 31.9 5.3
6 -6 4 29.6 5.5
-6 -6 -4 35.9 5.3
-6 6 4 36.2 5.7
-6 6 4 38.9 5.7
6 -6 4 26.4 5.5
6 -6 4 41.4 5.8
6 6 4 32.2 5.3
6 -6 -4 29.2 5.5
-6 6 -4 36.8 5.7
-6 6 -4 35.3 5.7
6 -6 -4 41.5 5.7
6 -6 -4 32.3 5.6
-6 6 -4 36.9 5.7
6 -6 -4 43.3 5.9
-7 6 4 15.6 2.7
7 -6 4 11.9 2.6
7 -6 4 10.3 2.5
-7 6 4 14.7 2.8
-7 6 4 16.5 2.9
7 -6 4 11.8 2.6
-7 6 -4 14.9 2.9
7 -6 -4 16.8 3
7 6 4 16.8 2.5
7 -6 -4 12.7 2.6
7 -6 -4 12.1 2.7
-7 6 -4 17.2 2.9
8 -6 4 0 1
-8 6 4 -2.5 1.1
-8 6 4 0.6 1.1
8 -6 4 -0.2 1.1
-8 6 -4 -0.8 1
8 -6 -4 0.1 1.2
8 6 4 0.1 0.9
8 -6 -4 -0.1 1
-8 6 -4 -0.1 1
8 -6 -4 1.9 1.2
0 -7 4 0.9 0.9
0 -7 -4 -0.4 1
0 7 4 0.2 0.5
0 7 -4 1.3 0.9
0 -7 -4 1.1 0.8
0 7 -4 -0.1 0.5
0 -7 4 -0.2 0.6
0 7 4 -0.3 0.8
0 7 -4 -0.1 0.6
0 7 -4 0.1 0.7
0 -7 -4 0.9 0.9
0 -7 4 -0.5 0.7
0 -7 -4 0.9 0.8
0 -7 4 0.2 0.8
0 7 4 -1 0.5
-1 -7 -4 25.8 3.5
1 7 -4 20.4 3.3
-1 7 4 17.1 3.5
-1 -7 -4 24.8 3.4
-1 7 4 21.2 3.4
1 -7 4 25 3.6
1 -7 4 17.4 3.3
-1 7 4 19 3.5
1 -7 4 23.1 3.5
-1 -7 -4 22.8 3.5
-1 7 4 16.9 3.3
-1 -7 -4 15.5 3.3
1 7 -4 17.6 3.3
1 -7 4 20.7 3.4
1 7 -4 21.3 3.4
-1 7 -4 15 3.3
-1 -7 4 22.6 3.4
-1 7 -4 12.3 3.3
1 7 4 22 3.5
1 -7 -4 22.7 3.5
1 -7 -4 22.8 3.5
1 7 4 30.3 3.5
1 -7 -4 31.5 3.7
1 7 4 14.4 3.3
-1 7 -4 14 3.3
-1 7 -4 15.6 3.4
-1 -7 4 33.3 3.5
1 7 4 24.2 3.4
1 -7 -4 27.4 3.5
2 7 -4 1.1 0.5
-2 -7 -4 2.8 0.9
2 7 -4 1.9 0.5
2 7 -4 1.8 0.7
-2 -7 -4 1.7 0.9
-2 7 4 0.7 0.9
-2 -7 -4 1.4 0.7
2 -7 4 1.6 0.9
-2 7 4 0.7 1.2
2 -7 4 0.4 0.8
-2 7 4 1.4 1
-2 7 4 0.1 0.8
2 -7 4 0.6 0.9
2 -7 4 0.8 0.8
-2 -7 -4 2.3 0.8
-2 -7 4 1.1 0.7
2 7 4 2.1 0.6
-2 -7 4 1.6 0.7
2 7 4 0.4 0.8
2 -7 -4 0.3 0.8
-2 -7 4 1.6 0.6
2 7 4 0.6 0.9
2 -7 -4 0.6 0.8
-2 -7 4 0.6 0.8
-2 7 -4 1.8 0.8
-2 7 -4 1.3 0.8
2 -7 -4 1 0.9
2 -7 -4 1 0.9
-2 7 -4 0.6 0.8
-3 -7 -4 11.9 2.4
-3 7 4 18.4 2.9
-3 7 4 11 2.7
3 -7 4 14.7 2.7
-3 -7 -4 19.6 2.7
-3 7 4 11.5 2.6
3 7 -4 15.7 2.5
3 7 -4 13.6 2.4
-3 -7 -4 15.3 2.5
-3 7 4 11.3 2.6
3 -7 4 9.7 2.6
3 -7 -4 11.4 2.6
3 7 4 16.5 2.5
3 -7 -4 15.2 2.7
3 7 4 13.2 2.5
3 -7 -4 12.4 2.7
-3 7 -4 16.9 2.8
-3 -7 4 14.5 2.5
-3 -7 4 15.5 2.4
-3 7 -4 14.5 2.7
-3 -7 4 19.2 2.5
-3 -7 4 21.1 2.5
3 7 4 17.6 2.7
-4 7 4 1.2 1
-4 7 4 1.6 0.9
-4 -7 -4 1.2 0.7
4 -7 4 0.7 0.8
-4 -7 -4 0.3 0.6
-4 7 4 1.1 1.1
-4 -7 -4 -0.3 0.5
-4 7 4 -0.1 0.7
4 -7 4 0.7 0.8
4 -7 -4 -0.1 0.8
4 -7 -4 -0.3 0.8
4 7 4 0.8 0.7
4 -7 -4 0.8 0.9
-4 7 -4 -0.5 0.8
4 7 4 1 0.9
-4 7 -4 0.8 0.9
4 7 4 0.9 0.4
-4 7 -4 1.6 1.1
-4 7 -4 1 1
-5 7 4 -1 0.9
-5 -7 -4 -0.3 0.6
-5 -7 -4 -0.1 0.6
-5 7 4 -0.2 1
5 -7 4 -0.9 0.7
-5 7 4 0.1 0.8
5 -7 4 2.5 1.1
-5 7 4 -0.8 1
-5 -7 -4 0.3 0.6
5 -7 4 -0.1 0.8
5 -7 4 -0.1 0.9
5 -7 -4 1.1 0.8
-5 7 -4 -0.8 0.9
5 -7 -4 0.3 0.8
5 7 4 -0.1 0.4
5 -7 -4 -0.7 0.9
5 7 4 0.7 0.7
-5 7 -4 0.6 1
-5 7 -4 -0.3 1
5 -7 -4 -0.5 0.8
-5 7 -4 -0.8 0.8
5 7 4 0.1 0.8
-6 7 4 5.1 1.4
6 -7 4 -0.1 0.8
-6 7 4 -1 0.9
6 -7 4 0.4 0.8
-6 -7 -4 0.1 0.6
-6 7 4 0.5 1.1
-6 -7 -4 1.3 0.7
-6 -7 -4 1 0.7
6 -7 4 0.1 0.8
6 -7 -4 0.7 1
-6 7 -4 0.9 1.1
6 -7 -4 -0.2 1.1
6 7 4 1.3 0.9
6 -7 -4 -0.1 0.8
-6 7 -4 1.6 1.1
6 -7 -4 1.8 1
7 -7 4 0.9 1
-7 7 4 -0.5 1.1
7 -7 4 -2 0.9
-7 7 4 -0.5 1.1
7 -7 -4 -0.7 0.9
7 -7 -4 0.7 1
7 -7 -4 -0.5 1.1
-7 7 -4 0.5 1.2
7 7 4 -0.1 0.9
-7 7 -4 1.9 1.2
-8 7 4 1.3 1.4
8 -7 4 3.6 1.3
-8 7 4 3.1 1.4
8 -7 -4 2.1 1.2
8 -7 -4 0.4 1.3
-8 7 -4 0.3 1.2
8 7 4 3.6 1.1
-8 7 -4 2.8 1.4
0 8 4 503.95 78.19
0 -8 -4 480.65 78.19
0 8 -4 575.14 78.29
0 8 4 488.65 78.29
0 8 -4 464.25 78.19
0 8 -4 543.95 78.19
0 8 4 522.75 78.29
0 -8 -4 544.95 78.19
0 -8 4 528.35 78.19
0 -8 -4 560.44 78.29
0 -8 -4 423.96 78.19
0 -8 4 496.15 78.19
0 8 -4 560.04 78.19
0 -8 4 508.15 78.19
1 8 -4 71.49 11.8
-1 8 4 67.89 11.8
-1 -8 -4 76.59 11.8
1 -8 4 77.39 11.8
1 8 -4 85.09 11.8
-1 -8 -4 77.79 11.8
1 -8 4 77.89 11.8
-1 8 4 80.29 11.8
1 -8 4 75.59 11.9
-1 -8 -4 76.49 11.8
1 -8 4 72.89 11.8
1 8 -4 76.19 11.8
-1 8 4 64.39 11.8
-1 -8 -4 74.29 11.8
-1 8 4 63.69 11.9
-1 8 -4 92.99 11.9
-1 -8 4 82.59 11.8
-1 -8 4 65.29 11.8
1 -8 -4 79.59 11.8
1 8 4 86.49 11.8
-1 -8 4 66.69 11.8
1 -8 -4 81.99 11.8
1 -8 -4 59.99 11.9
1 -8 -4 91.69 11.9
-1 8 -4 74.19 11.8
-1 8 -4 80.49 11.8
-1 -8 4 77.39 11.8
1 8 4 81.89 11.9
1 8 4 75.59 11.8
-1 8 -4 83.19 11.8
1 8 4 77.79 11.8
2 8 -4 37.3 5.1
2 8 -4 34.4 5
-2 8 4 31.2 5.2
2 8 -4 27.9 4.9
2 -8 4 30.5 5.3
-2 -8 -4 37.9 5.1
-2 8 4 27.9 5.1
-2 -8 -4 34.3 5.2
-2 -8 -4 40.8 5.3
-2 -8 -4 33.1 5
2 -8 4 33.1 5.3
2 -8 -4 38.9 5.3
-2 -8 4 33.8 5
2 -8 -4 21.9 5.1
-2 8 -4 26.2 5.2
2 8 4 31.4 5
2 8 4 32.1 5.2
2 8 4 38.6 5.2
2 8 4 28.5 5.1
-2 -8 4 29.8 5
-2 8 -4 25.4 5.1
-3 -8 -4 41.4 6.4
3 -8 4 42.6 6.6
-3 8 4 40.2 6.6
-3 8 4 49.99 6.8
3 8 -4 38.5 6.2
3 -8 4 28.8 6.4
3 8 -4 40.5 6.3
3 8 -4 42.4 6.2
3 -8 4 44.1 6.6
-3 8 4 45 6.4
3 -8 4 38.5 6.5
-3 -8 -4 43.8 6.3
-3 8 4 37.6 6.5
-3 -8 -4 46.3 6.3
3 8 -4 40.3 6.2
-3 -8 -4 37.6 6.3
3 -8 -4 37.3 6.5
-3 8 -4 30.3 6.4
-3 -8 4 40.6 6.2
-3 -8 4 41 6.3
3 8 4 44 6.3
3 -8 -4 45.1 6.4
-3 8 -4 47 6.6
3 8 4 40.6 6.4
3 -8 -4 32.5 6.5
3 -8 -4 34.6 6.5
-3 -8 4 41.4 6.3
-3 8 -4 28.7 6.4
3 8 4 44.5 6.3
-3 -8 4 38.9 6.2
-3 8 -4 36.4 6.6
-4 8 4 3.6 1.3
4 -8 4 4.7 1.4
-4 -8 -4 5.1 1.1
-4 8 4 6.2 1.7
4 8 -4 5.9 1.1
-4 8 4 5.1 1.5
4 -8 4 5 1.4
-4 -8 -4 3.5 1.1
-4 -8 -4 5.1 1.2
-4 -8 -4 5.7 1.2
-4 8 4 4.8 1.3
4 8 -4 6.1 1
4 -8 4 8.3 1.6
4 8 4 4.8 1.1
4 -8 -4 4.5 1.4
-4 -8 4 4.8 1.1
-4 -8 4 5.6 1
4 -8 -4 3.2 1.4
4 8 4 2.3 1
-4 8 -4 2.4 1.3
4 8 4 6.1 1
-4 -8 4 5.3 1
4 -8 -4 4.7 1.3
-4 8 -4 4 1.4
-4 -8 4 4.9 1.1
4 8 4 6 1.4
4 -8 -4 3.1 1.3
-4 8 -4 7.1 1.7
-4 8 -4 2.2 1.3
-5 -8 -4 0.9 0.7
5 -8 4 0.4 0.9
5 -8 4 -0.5 0.9
-5 8 4 0.6 1
-5 -8 -4 0.2 0.7
-5 -8 -4 0.4 0.7
-5 -8 -4 0.9 0.7
-5 8 4 0.1 1.1
5 -8 4 -0.3 1
-5 8 4 0.4 1
-5 8 -4 0.5 1
5 8 4 -0.1 0.4
5 -8 -4 -0.1 1
5 -8 -4 -0.9 0.8
5 8 4 1.4 0.9
5 8 4 0.8 0.6
5 -8 -4 0.7 0.9
5 -8 -4 -0.4 0.9
-5 8 -4 0 1
-6 8 4 8.2 1.9
-6 -8 -4 9.5 1.5
-6 8 4 5.2 1.8
-6 -8 -4 8.1 1.5
6 -8 4 4.3 1.6
-6 -8 -4 7.8 1.5
6 -8 4 9.8 1.9
-6 -8 -4 7.4 1.5
-6 8 -4 7 1.9
6 -8 -4 9.4 1.9
6 -8 -4 4.6 1.7
6 -8 -4 6.5 1.8
6 8 4 8.2 1.7
-6 8 -4 8.3 1.9
7 -8 4 2 1.1
7 -8 4 0.5 1
-7 8 4 1.5 1.3
-7 8 4 2.6 1.3
-7 8 -4 1.3 1.1
7 8 4 0.6 1
7 -8 -4 0.2 1
7 -8 -4 -0.1 1.1
-7 8 -4 -0.1 1.2
8 -8 4 8.8 2.1
8 -8 4 7.8 2
-8 8 4 9.9 2.3
-8 8 4 10 2.4
-8 8 -4 6.6 2.1
8 -8 -4 9 2
8 8 4 9.5 1.9
8 -8 -4 12.4 2.4
-8 8 -4 8.9 2.2
0 9 4 -0.7 0.5
0 -9 -4 -1.4 1
0 9 4 0 0.6
0 9 -4 -0.3 0.9
0 -9 -4 -0.7 1
0 -9 4 -0.5 0.7
0 -9 -4 0.3 0.8
0 9 -4 -0.5 0.5
0 -9 -4 -0.1 0.7
0 -9 4 -0.4 0.7
0 9 4 -0.2 0.9
0 9 -4 -0.7 0.7
0 -9 4 -1.4 0.7
0 9 -4 -0.7 0.6
0 -9 4 -0.4 0.8
1 -9 4 91.99 16.9
1 9 -4 106.39 16.8
1 9 -4 122.99 16.9
1 9 -4 111.09 16.8
1 -9 4 118.89 16.9
-1 -9 -4 107.59 16.9
-1 -9 -4 124.59 16.9
-1 9 4 82.89 16.8
-1 -9 -4 92.29 16.8
1 -9 4 112.09 16.9
1 -9 4 107.09 16.9
-1 -9 -4 129.59 16.9
-1 9 4 126.19 16.9
-1 -9 4 91.89 16.8
1 9 4 98.69 16.9
-1 9 -4 121.29 16.9
-1 -9 4 109.09 16.8
1 -9 -4 109.59 16.9
-1 9 -4 119.89 16.9
1 9 4 97.49 16.9
-1 9 -4 112.89 16.9
1 -9 -4 106.99 17
1 9 4 127.79 16.9
-1 9 -4 104.79 16.9
-1 -9 4 119.69 16.9
-1 -9 4 114.89 16.8
2 -9 4 12.9 2.8
-2 9 4 14.8 2.8
-2 -9 -4 17.4 2.8
-2 9 4 15.8 3.1
2 -9 4 14.7 3
2 9 -4 17.3 2.7
2 -9 4 14.5 2.9
2 9 -4 17.3 2.8
-2 9 4 18.8 3.1
2 -9 4 20.5 3.1
-2 -9 -4 20.9 3
-2 9 4 15.4 2.8
2 9 -4 16 2.8
-2 -9 -4 13.1 2.9
-2 -9 -4 22 2.9
2 9 4 16.8 2.7
2 -9 -4 12.9 3
-2 9 -4 15.9 2.9
2 -9 -4 18.4 3
2 -9 -4 15.2 2.9
-2 -9 4 14 2.8
-2 9 -4 11.7 2.8
-2 9 -4 10.3 2.7
-2 9 -4 21.6 3.2
-2 -9 4 16.6 2.8
-2 -9 4 12.6 2.7
2 -9 -4 16.5 2.9
-2 -9 4 16.6 2.7
2 9 4 19.3 2.9
2 9 4 15.6 2.9
2 9 4 21.7 2.9
3 -9 4 157.38 23.2
-3 9 4 167.08 23.2
3 9 -4 165.48 23
3 9 -4 137.79 23.1
-3 -9 -4 166.38 23
3 -9 4 148.39 23.1
3 -9 4 135.89 23.1
-3 9 4 123.49 23.1
-3 9 4 181.28 23.2
-3 -9 -4 153.98 23.1
-3 9 4 149.88 23.2
-3 -9 -4 170.08 23.1
3 -9 4 124.49 23.1
-3 -9 -4 129.89 23
3 9 -4 131.29 22.9
3 9 -4 154.68 23
3 9 4 158.18 23.1
3 -9 -4 139.19 23.2
3 -9 -4 148.79 23.1
-3 9 -4 141.99 23.1
-3 -9 4 149.29 23
-3 9 -4 159.38 23.2
3 -9 -4 158.08 23.2
3 -9 -4 161.78 23.1
3 9 4 148.29 23
3 9 4 171.38 23.1
-3 9 -4 168.88 23.2
-3 -9 4 129.19 23
-3 9 -4 165.68 23.2
4 9 -4 73.09 11.1
4 -9 4 77.49 11.3
-4 9 4 68.69 11.3
4 9 -4 68.49 11.1
-4 -9 -4 73.19 11.2
4 -9 4 73.39 11.3
-4 -9 -4 63.89 11.2
-4 9 4 71.39 11.2
-4 -9 -4 57.59 11.1
-4 -9 -4 67.89 11.1
-4 9 4 73.89 11.4
-4 9 4 82.89 11.4
4 -9 -4 71.89 11.3
4 9 4 77.99 11.1
4 9 4 77.09 11.2
-4 9 -4 73.79 11.3
-4 -9 4 68.69 11.1
4 -9 -4 79.09 11.3
-4 -9 4 74.09 11.1
-4 -9 4 78.69 11.1
4 9 4 64.79 11.1
4 9 4 72.49 11.1
-4 9 -4 80.79 11.3
4 -9 -4 69.39 11.3
4 -9 -4 74.39 11.3
-4 -9 4 78.69 11.1
-5 9 4 2.4 1.2
5 -9 4 1.8 1
-5 -9 -4 1.4 0.8
-5 -9 -4 1.7 0.8
-5 -9 -4 0.9 0.8
-5 9 4 1.3 1.2
5 -9 4 1.4 1.1
-5 -9 -4 2.6 0.9
5 -9 -4 2.2 1.2
-5 -9 4 3.4 0.7
5 9 4 2.1 0.8
5 9 4 2.5 1.2
-5 9 -4 1.2 1.1
-5 9 -4 1.8 1.2
5 9 4 1.6 0.6
5 9 4 2.7 0.8
5 -9 -4 1.2 1
-5 -9 4 1.8 0.8
6 -9 4 5.9 1.5
-6 -9 -4 5.4 1.2
-6 9 4 3.9 1.6
6 -9 4 4 1.5
-6 -9 -4 5.8 1.3
-6 9 4 4.9 1.7
6 -9 -4 2.8 1.4
-6 9 -4 9.8 1.9
6 9 4 4.2 1.1
6 9 4 7.9 1.5
-6 9 -4 9.2 1.9
6 -9 -4 3.2 1.4
7 -9 4 8.1 1.7
7 -9 4 5.1 1.6
-7 9 4 2.7 1.7
-7 9 4 3.9 1.6
7 -9 -4 5.8 1.7
7 -9 -4 6.8 1.7
7 9 4 6.8 1.5
-7 9 -4 2.4 1.5
-7 9 -4 5.4 1.6
8 -9 4 0.3 1.1
-8 9 4 -0.4 1.4
-8 9 4 0.5 1.4
8 -9 -4 0.4 1.4
8 9 4 1.5 1.1
8 -9 -4 0.4 1.1
0 -10 4 115.79 18
0 10 -4 108.79 17.9
0 10 4 119.69 18
0 -10 4 126.89 18
0 10 -4 123.69 18
0 -10 4 106.19 18
0 -10 -4 142.69 18.1
0 10 -4 118.79 18
0 10 -4 104.19 18
0 -10 -4 117.79 18
0 10 4 120.29 18
0 -10 4 104.39 18
1 10 -4 6.4 1.7
1 -10 4 10.9 2
-1 10 4 7.8 1.8
-1 10 4 10.5 2
1 -10 4 5.4 1.6
1 -10 4 8.3 1.9
1 -10 4 9.5 1.8
1 10 -4 8.7 1.5
1 10 -4 5.1 1.5
-1 -10 -4 6.2 1.9
-1 10 4 7.4 1.6
-1 10 4 7.5 1.7
-1 -10 -4 4.8 1.7
1 10 -4 7.6 1.6
-1 10 -4 10.2 1.8
1 10 4 5.4 1.8
-1 -10 4 16.7 2
-1 10 -4 6.7 1.6
-1 -10 4 10.4 1.7
1 10 4 6.7 1.5
-1 10 -4 8 1.7
1 -10 -4 7.5 1.7
1 -10 -4 6.7 1.8
1 -10 -4 5.6 1.6
-1 -10 4 8.6 1.8
-1 -10 4 8.5 1.7
1 10 4 7.8 1.5
1 -10 -4 10.5 2.1
1 10 4 7.4 1.7
2 -10 4 -1.1 0.7
-2 10 4 0.1 0.9
2 -10 4 -0.1 0.9
-2 10 4 1.1 0.9
-2 -10 -4 -1.4 0.6
-2 -10 -4 0.3 0.9
2 10 -4 -0.7 0.6
-2 10 4 -0.5 1
-2 10 4 -0.3 0.7
2 -10 4 2.9 1.3
2 -10 4 1.7 1.1
-2 -10 -4 -1.2 0.9
2 10 -4 -0.4 0.8
-2 -10 -4 0.2 0.7
-2 -10 4 0.1 1
2 -10 -4 1.2 0.9
-2 10 -4 -0.4 0.6
-2 -10 4 0.4 0.7
2 10 4 0.4 0.5
-2 10 -4 1.4 1.1
2 10 4 -0.1 0.8
-2 -10 4 0.3 0.8
2 10 4 1.2 1
2 -10 -4 0.3 1.1
-2 10 -4 -0.4 0.8
2 10 4 0.4 0.6
2 -10 -4 -0.7 1
-2 -10 4 0.6 0.7
-2 10 -4 -0.8 0.8
2 -10 -4 -0.9 0.9
-3 -10 -4 -0.1 0.7
-3 -10 -4 -1.1 0.9
3 10 -4 0 0.6
-3 10 4 0.1 0.9
3 -10 4 1.8 1
-3 10 4 0.5 1
3 10 -4 1.4 0.5
-3 -10 -4 0 0.7
-3 10 4 0.7 1
3 -10 4 1.2 1.1
3 -10 4 0.8 0.9
-3 10 4 1.9 1.3
-3 -10 -4 0.2 0.9
3 -10 4 0.7 1
3 10 -4 0.1 0.5
3 10 -4 0.8 0.8
-3 10 -4 1 1.2
3 10 4 -0.4 0.5
-3 10 -4 0.8 1.1
3 10 4 -0.2 0.8
-3 10 -4 -0.2 0.8
3 -10 -4 2.1 1.3
-3 10 -4 0.2 0.9
-3 -10 4 0.3 0.7
3 10 4 -0.9 0.9
3 -10 -4 1.1 0.9
-3 -10 4 2.1 1
3 -10 -4 -0.5 0.9
3 -10 -4 2.8 1.1
-3 -10 4 0 0.8
-3 -10 4 0.9 0.7
-4 -10 -4 15 2.8
-4 -10 -4 16.4 2.9
4 -10 4 14.6 3
-4 10 4 10.6 3
-4 -10 -4 18.9 3
4 -10 4 15.9 3.1
4 10 -4 19.5 2.9
-4 -10 -4 17.2 2.9
-4 10 4 16 3.2
4 10 4 16.5 2.9
4 10 4 17.4 2.8
4 10 4 21.9 3.1
-4 10 -4 15.8 3.1
-4 10 -4 11 2.9
4 -10 -4 14.5 3
-4 -10 4 16 2.8
-4 -10 4 20.5 2.8
-4 -10 4 16.6 3.1
5 10 -4 -0.2 0.6
5 -10 4 0.8 1.2
-5 10 4 0.1 1.2
-5 -10 -4 1.9 1
-5 -10 -4 1.2 0.9
5 -10 4 1.4 1
5 10 -4 0.8 0.6
-5 10 4 0.4 1.2
-5 -10 -4 -1.1 0.8
-5 -10 -4 -0.3 0.7
5 10 4 1.8 0.6
5 10 4 0.8 0.8
5 10 4 2.4 0.8
5 10 4 1.9 1.1
5 -10 -4 -0.5 1
-5 -10 4 0.4 0.6
5 -10 -4 1.3 1
-5 -10 4 1.1 0.8
-5 10 -4 2.8 1.3
-5 10 -4 0.1 1
-5 -10 4 1.7 1
6 -10 4 7.6 1.9
-6 10 4 6.7 2
-6 10 4 7.2 2
6 -10 4 8.9 2
6 10 4 8.7 1.6
-6 10 -4 8.8 2
6 10 4 8.4 1.8
6 -10 -4 5.9 1.8
6 -10 -4 6.3 1.8
-6 10 -4 8 2.1
-7 10 4 2.2 1.5
7 -10 4 0.9 1.2
-7 10 4 -0.1 1.3
7 -10 4 -0.1 1
7 -10 -4 -0.1 1
7 10 4 -0.8 1.1
-7 10 -4 0.3 1.3
7 -10 -4 3 1.4
0 -11 -4 -0.9 1.1
0 11 4 1.5 0.8
0 11 4 -0.7 1.1
0 11 4 0.5 0.9
0 -11 4 0.9 1.1
0 -11 -4 0.9 1.1
0 -11 -4 -0.9 0.9
0 11 -4 1.4 1
0 11 -4 0.1 0.6
0 -11 4 0.1 0.8
0 -11 4 -0.6 1
0 -11 -4 -0.2 0.8
0 11 -4 0.4 0.8
0 11 4 1.1 0.7
-1 -11 -4 32 5.5
1 -11 4 32.6 5.5
1 11 -4 46.6 5.6
1 11 -4 29.5 5.2
1 11 -4 29.5 5.2
-1 11 4 26.9 5.2
1 -11 4 34.4 5.4
-1 11 4 35.3 5.5
1 -11 4 27.2 5.3
1 -11 4 43.1 5.5
-1 11 4 24.7 5.3
-1 -11 -4 39.1 5.5
1 11 -4 59.29 5.7
1 11 4 36.3 5.3
-1 11 -4 31.9 5.3
1 -11 -4 25.2 5.3
1 11 4 35.1 5.4
-1 -11 4 31.1 5.3
1 -11 -4 26.7 5.2
1 -11 -4 30.2 5.5
-1 11 -4 36.7 5.3
-1 11 -4 26.4 5.3
1 11 4 29 5.2
-1 11 -4 31.4 5.3
-1 -11 4 39.7 5.4
1 -11 -4 26.4 5.3
-1 -11 4 22 5.2
-1 -11 4 38.7 5.4
2 11 -4 5.8 1.3
2 11 -4 7 1.5
2 -11 4 6.6 1.5
2 -11 4 7.6 1.6
2 11 -4 6.3 1.3
-2 -11 -4 5.5 1.6
2 -11 4 6.9 1.8
-2 11 4 3.5 1.6
-2 11 4 5.5 1.5
-2 -11 -4 4.9 1.5
-2 11 4 5.1 1.5
2 -11 4 5.6 1.6
2 11 -4 8.2 1.3
-2 11 4 4.1 1.4
2 11 4 4.4 1.4
-2 -11 4 6.4 1.6
2 -11 -4 5.6 1.5
-2 11 -4 3.7 1.3
-2 -11 4 7.3 1.5
2 -11 -4 3.5 2
-2 11 -4 6.9 1.5
2 11 4 5.7 1.2
-2 11 -4 1.7 1.3
2 -11 -4 4.9 1.4
-2 -11 4 5.7 1.3
-2 -11 4 5.4 1.3
2 11 4 3.6 1.2
-2 11 -4 4.1 1.6
-3 11 4 1 1.2
-3 -11 -4 0 0.7
3 -11 4 1.3 1
3 -11 4 -0.4 1
3 11 -4 -0.1 0.8
-3 -11 -4 0.8 0.8
3 11 -4 0.1 0.6
-3 -11 -4 0.3 0.9
-3 11 4 -0.1 1
-3 -11 -4 0.6 0.9
3 11 -4 0.5 0.6
-3 11 -4 0.2 1.1
3 -11 -4 -1.7 0.8
-3 -11 4 -0.8 0.8
-3 -11 4 -1.1 0.7
-3 11 -4 1.1 1
3 -11 -4 -0.4 1
-3 -11 4 0 0.7
3 11 4 0.7 1.1
-3 -11 4 2.4 1.1
3 11 4 -0.7 0.8
3 11 4 -0.7 0.5
3 11 4 0 0.6
-4 -11 -4 39 6.2
4 11 -4 37.1 6
-4 -11 -4 41.1 6.3
-4 -11 -4 40.3 6.2
4 -11 4 40.3 6.4
4 11 -4 45.8 6.2
-4 -11 -4 37 6.2
4 -11 4 26 6.2
-4 11 4 33.4 6.4
-4 -11 4 44.1 6.1
4 11 4 38.4 6
-4 -11 4 41.1 6.2
4 11 4 32.9 6.1
-4 -11 4 39.8 6
4 -11 -4 38.2 6.4
4 11 4 40.4 6.3
-4 11 -4 39.8 6.4
4 11 4 33.4 6
-4 11 -4 40.7 6.5
-4 -11 4 42.5 6
-5 -11 -4 13.1 2.6
-5 -11 -4 16.2 2.8
-5 -11 -4 16.2 2.7
-5 11 4 15.1 2.9
5 -11 4 11.2 2.8
5 11 -4 14.8 2.5
-5 11 4 11.8 2.9
5 11 -4 20.8 2.7
-5 -11 -4 18.5 2.7
5 11 4 15.2 2.6
5 11 4 15 2.5
5 -11 -4 15.9 2.9
5 11 4 14.6 2.6
5 -11 -4 10.1 2.7
5 11 4 14.3 2.8
-5 11 -4 10.1 2.9
6 -11 4 0.8 1
-6 11 4 0.6 1.3
6 -11 4 0 1.1
-6 11 4 -0.6 1.3
-6 11 -4 1.8 1.2
6 -11 -4 0.6 0.9
6 -11 -4 1.4 1.2
6 11 4 2.2 1.3
-6 11 -4 0.3 1.3
6 11 4 0.5 0.8
7 -11 4 1.4 1.4
7 11 4 3.2 0.9
-7 11 -4 3.3 1.5
-7 11 -4 1.5 1.4
7 -11 -4 1.5 1.2
7 11 4 0.5 1.2
0 12 4 5.6 1.7
0 -12 -4 4.5 1.7
0 12 4 4.6 1.5
0 -12 4 4.9 1.6
0 12 4 7.2 1.5
0 12 -4 4.9 1.6
0 -12 -4 7.6 1.8
0 12 -4 8.3 1.5
0 -12 -4 6.1 1.6
0 12 4 8.3 1.6
0 12 -4 7.7 1.6
0 -12 4 7.2 1.6
0 -12 4 7.1 1.6
0 -12 4 4.6 1.7
0 -12 -4 3.1 1.3
0 12 -4 5.1 1.5
1 -12 4 34.9 7.1
1 12 -4 45.8 7
1 12 -4 50.19 7.1
-1 -12 -4 42 7.3
-1 -12 -4 48.3 7.2
-1 12 4 43.9 7.2
-1 -12 -4 45 7.3
1 -12 4 56.09 7.5
-1 -12 -4 47.6 7.3
-1 12 4 59.29 7.5
1 -12 4 57.69 7.9
1 -12 4 44.2 7.3
1 12 -4 37 7.1
1 -12 -4 41.8 7.3
1 12 4 34.6 7
-1 -12 4 37.2 7.2
1 12 4 39.4 7.2
1 12 4 45.4 7.3
1 12 4 48.1 7.1
-1 12 -4 45.1 7.3
-1 12 -4 49.3 7.3
-1 -12 4 56.29 7.4
1 -12 -4 42.1 7.2
-1 12 -4 32.7 7.2
-1 12 -4 51.49 7.1
-2 -12 -4 15.6 2.8
2 -12 4 14.4 2.8
-2 -12 -4 15 2.9
2 12 -4 21.2 2.8
2 -12 4 13.3 2.8
-2 -12 -4 13.1 2.7
-2 12 4 10.2 2.8
2 12 -4 12 2.6
2 12 -4 12.4 2.8
2 12 -4 15.5 2.7
-2 12 4 12.3 2.9
-2 -12 -4 15.3 2.9
2 -12 -4 13.4 2.8
2 12 4 12.2 2.6
-2 -12 4 20.2 2.9
-2 -12 4 21.8 2.9
-2 12 -4 14.5 3
2 12 4 21.2 3.1
2 -12 -4 21.1 3.1
-2 -12 4 16 2.9
-2 12 -4 17.4 3
2 12 4 15.9 2.7
-2 -12 4 13.7 2.7
3 -12 4 1.2 1.1
3 12 -4 2.2 0.9
3 12 -4 1.2 1.1
3 12 -4 2.3 0.8
-3 12 4 2.5 1.3
3 -12 4 1.4 1.2
-3 -12 -4 3.1 1.3
-3 12 4 3.2 1.5
-3 -12 -4 4 1.3
3 12 -4 4.7 1
-3 -12 4 2 1.3
-3 12 -4 5.9 1.4
-3 -12 4 2.1 1
-3 -12 4 3.1 1
-3 12 -4 2.3 1.3
3 12 4 1.6 1.1
3 12 4 2.5 0.9
3 -12 -4 2 1.1
3 12 4 2.5 0.9
3 -12 -4 3.6 1.3
-3 -12 4 5.1 1.3
4 12 -4 21.8 3.5
4 12 -4 22.8 3.7
4 -12 4 24.7 4.1
-4 -12 -4 25.8 3.8
4 12 -4 28.4 3.9
4 12 -4 23.5 3.5
-4 12 4 20.5 4
-4 12 4 16.6 3.9
-4 -12 -4 19 3.8
4 -12 4 19.4 3.9
-4 -12 -4 25.2 3.9
-4 12 -4 21.4 4.1
-4 -12 4 26.5 3.9
4 -12 -4 23.5 4
-4 -12 4 24.6 3.9
4 12 4 19.6 4
-4 -12 4 29.9 3.8
4 12 4 20.4 3.7
4 12 4 20 3.8
-4 -12 4 24.5 3.8
-4 12 -4 19.3 3.9
4 -12 -4 14.4 3.8
4 12 4 18.8 3.6
5 12 -4 31.7 4.1
-5 -12 -4 23.3 4.1
-5 -12 -4 30.1 4.3
5 -12 4 19.8 4.2
-5 -12 -4 18.9 4.1
5 -12 4 16.4 4.2
-5 12 4 24.8 4.4
-5 12 4 24.2 4.4
-5 -12 -4 31.7 4.3
5 -12 -4 24 4.3
5 12 4 30.9 4.1
-5 12 -4 22.2 4.4
-5 12 -4 24.9 4.4
5 12 4 23.5 4.3
5 12 4 22.3 4
6 -12 4 2.1 1.8
6 -12 -4 0.4 1
6 12 4 0.8 1.2
-6 12 -4 2.3 1.4
6 12 4 0.6 0.8
-7 12 4 0.4 1.4
-7 12 4 0.2 1.5
7 -12 4 -1.6 1.1
7 -12 4 0.5 1.2
7 12 4 1.1 1.3
-7 12 -4 2.3 1.5
7 -12 -4 -0.6 1.2
7 12 4 0.5 0.8
7 -12 -4 -0.5 1
-7 12 -4 2.9 1.6
0 13 4 -1.5 0.9
0 13 -4 -0.8 0.6
0 13 -4 -0.4 1
0 -13 4 0 1
0 13 -4 0.7 0.8
0 -13 4 1.4 1
0 13 -4 0.4 0.9
0 13 4 0 0.7
0 -13 4 0.5 1.2
0 -13 -4 0.5 0.9
0 13 4 0.7 1.3
0 -13 -4 -0.1 1
1 13 -4 32.8 5.3
-1 13 4 26.7 5.5
-1 -13 -4 36.6 5.5
1 13 -4 32 5.3
-1 13 4 28.8 5.4
1 13 -4 34.9 5.3
1 13 -4 30.7 5.4
-1 -13 -4 33.7 5.3
1 -13 4 35.8 5.4
-1 -13 -4 26.6 5.4
1 -13 4 33 5.4
1 13 4 40.9 5.5
1 13 4 31.5 5.4
-1 13 -4 23.9 5.3
-1 -13 4 33.3 5.5
-1 -13 4 33.5 5.4
1 -13 -4 31.8 5.4
-1 13 -4 31.4 5.4
1 13 4 36.3 5.4
1 13 4 41.9 5.7
-1 -13 4 37 5.5
1 -13 -4 23 5.2
-1 -13 4 34 5.4
-2 -13 -4 30.1 5.8
-2 -13 -4 35.6 6
2 13 -4 35.4 5.9
2 13 -4 29.5 5.9
-2 13 4 25.5 5.9
2 -13 4 38.7 6
2 13 -4 38.5 5.9
2 13 -4 32.5 5.7
-2 13 4 36.5 6
-2 -13 -4 34.3 5.8
2 -13 4 38.2 6
-2 -13 -4 38.3 6
2 13 4 35.3 5.9
2 -13 -4 42.5 6.1
-2 -13 4 37.8 5.9
2 -13 -4 41.2 6.1
-2 -13 4 34.2 5.9
2 13 4 31.9 5.7
-2 -13 4 33.7 5.8
2 13 4 31.1 5.8
-2 13 -4 54.79 6.7
-2 13 -4 36.5 6
-2 -13 4 51.49 6.1
2 13 4 38.7 6
-3 -13 -4 13.9 2.8
-3 13 4 20.5 3.2
3 13 -4 11.9 2.5
3 -13 4 11.9 2.8
-3 -13 -4 17.3 2.9
3 13 -4 11.5 3
3 13 -4 12.5 2.5
3 13 -4 19.3 2.7
-3 -13 -4 12.6 2.6
-3 -13 -4 15.1 2.7
-3 13 4 9.2 2.8
3 -13 4 14.7 2.8
-3 13 -4 12 2.9
-3 -13 4 16.2 2.7
3 -13 -4 15.8 2.9
-3 13 -4 13.9 2.8
-3 -13 4 18 2.9
-3 -13 4 20.7 2.9
3 13 4 10.2 2.5
3 -13 -4 19.4 3
3 13 4 15.1 3
-3 -13 4 14.5 2.7
4 -13 4 20.6 5.3
4 -13 4 19.5 5.3
4 13 -4 31.5 5.1
4 13 -4 39.1 5.1
-4 -13 -4 41.5 5.6
-4 13 4 23.6 5.5
4 13 -4 34.3 5.3
-4 -13 -4 24.8 5.4
4 13 -4 40.1 5.5
-4 13 4 31 5.5
-4 -13 -4 36.9 5.4
4 13 4 30.5 5.5
-4 -13 4 36.9 5.5
-4 13 -4 34.1 5.7
-4 -13 4 33.4 5.4
4 -13 -4 38.6 5.7
4 13 4 29 5.3
4 -13 -4 31.6 5.5
-4 13 -4 34.4 5.6
4 13 4 32.5 5.3
-4 -13 4 41.8 5.5
4 13 4 33 5.3
-4 -13 4 35.2 5.4
-5 -13 -4 6.9 1.5
5 13 -4 2.8 1.3
5 13 -4 5.4 1.2
5 13 4 4 1
5 13 4 3.1 1.2
5 13 4 3.9 1.2
-6 13 4 2.7 1.6
6 -13 4 1.2 1.4
6 -13 4 -0.2 1.1
-6 13 4 4.1 1.7
6 13 -4 1.6 1
6 13 4 2.8 1.4
6 -13 -4 1.1 1.2
-6 13 -4 4.9 1.7
-6 13 -4 2 1.4
6 13 4 2.6 1
6 -13 -4 0.2 1.2
0 14 4 434.16 56.69
0 -14 4 405.96 56.59
0 -14 4 366.16 56.59
0 14 -4 311.37 56.59
0 14 4 343.27 56.59
0 -14 -4 369.86 56.59
-1 -14 -4 82.99 9.7
1 14 -4 78.19 9.7
1 -14 4 58.29 9.6
-1 14 4 44.3 9.8
1 14 -4 58.49 9.6
1 14 -4 62.59 9.6
-1 -14 -4 67.39 9.6
-1 14 4 56.19 9.8
1 -14 4 59.69 9.6
1 14 -4 56.29 9.8
1 -14 -4 66.49 9.7
1 -14 -4 61.79 9.8
-1 14 -4 51.69 9.8
1 14 4 51.09 9.7
-1 -14 4 60.89 9.6
1 14 4 62.99 9.5
1 14 4 59.99 9.9
-1 -14 4 54.89 9.6
-1 14 -4 57.29 9.6
-1 -14 4 64.59 10
-2 14 4 40.2 7.9
2 14 -4 60.49 8.1
-2 14 4 36.8 8
2 14 -4 45.7 7.7
-2 -14 -4 55.69 7.8
2 14 -4 56.69 7.7
-2 -14 -4 41.5 8
2 -14 4 46.9 8
2 14 4 62.39 8.1
-2 -14 4 54.69 8
-2 -14 4 36.7 7.8
-2 14 -4 58.39 8.2
2 14 4 57.59 8.1
-2 -14 4 47.6 7.9
2 -14 -4 51.09 8
2 14 4 54.59 7.8
-2 -14 4 44.6 8
2 14 4 43.3 7.7
-2 14 -4 48.8 7.9
-3 -14 -4 32.5 6.5
-3 -14 -4 51.19 6.7
-3 14 4 44.4 6.8
-3 -14 -4 36.5 6.2
3 14 -4 39.1 6.2
3 14 -4 38.2 6.2
3 14 -4 42.9 6.1
-3 14 4 34.2 6.3
3 -14 4 29.3 6.2
3 14 -4 44.8 6.4
-3 -14 -4 44 6.3
3 -14 4 25.8 6.2
3 14 4 32.3 6.2
-3 -14 4 36.3 6.2
-3 -14 4 40.6 6.4
3 14 4 50.59 6.6
-3 14 -4 29.8 6.4
-3 -14 4 40.3 6.3
3 14 4 34.7 6.1
3 14 4 42.2 6.3
-3 14 -4 39 6.4
3 -14 -4 44.4 6.5
3 -14 -4 48.3 6.6
4 14 -4 -0.7 1
-4 -14 -4 1.2 1.3
4 14 -4 0.8 0.7
-4 -14 -4 -1 1.1
-4 -14 -4 0.5 1
4 14 -4 1.2 0.8
-4 -14 -4 2.6 1
-4 -14 4 0.1 1
4 14 4 1.4 1.4
4 14 4 1 0.9
5 14 -4 1 1.1
-5 14 4 -1.7 1.3
5 -14 4 -0.3 1
-5 14 4 1.4 1.5
5 -14 4 1.6 1.3
5 14 -4 -1.1 0.7
5 -14 -4 1 1.1
5 14 4 0.1 0.7
5 14 4 0.6 0.9
5 14 4 -0.6 1.4
5 14 4 -0.5 0.9
-5 14 -4 -0.6 1.3
-5 14 -4 -0.5 1.2
6 -14 4 0.6 1.2
6 -14 -4 -0.2 1.1
0 15 4 -0.2 1.4
0 15 4 -0.7 1.1
0 -15 4 -0.6 0.9
0 -15 4 -1.4 1
0 -15 -4 0.3 1.1
0 15 -4 0.1 1.2
0 -15 -4 1.2 1
0 15 -4 0.1 1
-1 -15 -4 9.3 2.2
1 -15 4 11.6 2.5
1 15 -4 10.8 2.2
-1 -15 -4 12.6 2.3
-1 15 4 8.4 2.4
-1 15 4 11 2.3
1 15 -4 8.5 2.3
1 -15 4 10.9 2.3
1 15 -4 10.3 2.1
1 15 4 10.1 2.3
-1 15 -4 8 2.1
1 -15 -4 13.4 2.4
1 15 4 8.6 2.3
-1 -15 4 11.9 2.3
-1 15 -4 6.1 2.2
1 -15 -4 9.4 2.3
-1 -15 4 12.2 2.2
2 15 -4 21.6 3.3
2 -15 4 15.7 3.2
-2 -15 -4 18.2 3.2
-2 15 4 14.8 3.3
2 -15 4 14.1 3.1
-2 -15 -4 17 3.2
2 15 -4 20.3 3.1
2 15 -4 20.8 3.1
2 15 -4 18.6 3.3
-2 -15 4 13 3.2
-2 15 -4 15.9 3.2
2 15 4 17.4 3.4
-2 15 -4 15.5 3.3
2 -15 -4 14.8 3.2
2 15 4 15.7 3.2
-2 -15 4 15.1 3
2 -15 -4 15 3.1
-2 -15 4 17.5 3.1
2 15 4 15.9 3
3 15 -4 5.9 1.6
-3 -15 -4 10.1 1.9
-3 -15 -4 9.4 1.8
3 15 -4 9.4 1.7
3 15 -4 5 1.8
3 15 4 4.8 2.2
-3 -15 4 4.2 1.6
-3 -15 4 8.7 1.7
3 15 4 8.8 1.9
-3 -15 4 5.4 1.8
3 15 4 7.6 1.6
-3 -15 4 5.2 1.8
4 15 -4 19.4 3.3
-4 15 4 21.7 3.6
-4 15 4 12.2 3.3
-4 -15 -4 16.4 3.2
4 15 -4 16 2.9
-4 -15 -4 17 3.2
4 -15 4 23.6 3.6
4 -15 4 16.5 3.3
4 15 -4 19.8 3
-4 -15 -4 13.4 3
4 15 -4 24.4 3.2
4 15 4 28.2 3.7
4 -15 -4 18.4 3.4
4 15 4 16.9 3.1
-4 15 -4 14.6 3.4
4 15 4 10 2.9
4 15 4 17.6 3
4 -15 -4 16.4 3.3
-4 15 -4 15 3.3
5 15 -4 6.7 1.6
-5 15 4 6.9 2.1
5 15 -4 8.3 1.9
5 -15 4 7.5 2
5 -15 4 9.2 2.2
-5 15 4 6.9 2.2
-5 15 -4 8.4 2.2
5 15 4 5.4 1.5
5 15 4 7.3 1.7
-5 15 -4 6.4 1.9
5 -15 -4 4.2 1.9
5 15 4 8.8 2.2
5 -15 -4 7.4 1.9
5 15 4 7.7 1.5
0 16 -4 49.5 7.8
0 16 4 36.8 7.7
0 -16 4 40.7 7.5
0 -16 -4 55.49 7.8
0 -16 -4 45.1 7.6
0 16 -4 53.79 7.8
0 16 4 40.4 7.6
0 -16 4 62.59 7.9
-1 -16 -4 47.1 7
-1 16 4 37.3 6.9
-1 16 4 28.8 6.9
1 16 -4 47.3 6.9
-1 -16 -4 26.7 6.7
1 -16 4 44.5 7
1 16 -4 36.3 6.9
1 -16 4 52.59 7.2
-1 16 -4 54.79 7.2
-1 -16 4 38.4 6.9
1 -16 -4 47.1 7
1 -16 -4 52.19 7.1
-1 16 -4 35.2 6.9
-1 -16 4 46.7 7
1 16 4 43.6 7.1
1 16 4 51.69 7
2 16 -4 0.3 1
-2 -16 -4 -0.8 1
-2 -16 -4 -0.9 0.9
2 16 -4 -1.1 1.2
2 16 4 -0.5 1.3
-2 -16 4 1.9 1.2
2 16 4 0.9 1.3
-2 -16 4 0.8 1
3 16 -4 -0.2 1.2
-3 16 4 2.9 1.5
3 -16 4 1.6 1.2
3 16 -4 3.1 1.1
-3 -16 -4 2.1 1.3
3 -16 4 2.3 1.3
3 16 -4 1.3 1
3 16 -4 1 0.9
-3 16 4 2.6 1.5
-3 -16 4 0.6 1.1
3 16 4 1.2 1.6
3 16 4 3.6 1.4
-3 -16 4 3.1 1.2
-3 16 -4 -0.2 1.4
-3 -16 4 0.7 1.4
3 -16 -4 1.3 1.5
3 16 4 1.8 0.9
3 -16 -4 -0.1 1.2
4 16 -4 30.5 4.5
4 16 -4 28.2 4.7
-4 16 4 18.7 4.7
-4 -16 -4 35.3 4.8
4 -16 4 25 4.8
4 16 -4 28.8 4.4
4 -16 4 21 4.7
4 16 -4 42.1 4.9
4 -16 -4 19.5 4.7
-4 16 -4 22.8 4.8
4 -16 -4 21.2 4.7
4 16 4 38.1 5.1
-4 16 -4 29.2 4.8
4 16 4 30.2 4.7
4 16 4 22 4.4
0 17 4 2.3 1.5
0 -17 4 0 1
0 -17 -4 -0.9 1.2
0 -17 4 1.5 1.2
0 17 4 -1.8 1.2
0 17 -4 0.2 1.1
0 17 -4 0.9 1.4
-1 -17 -4 31.8 4.9
-1 17 4 25 5
1 17 -4 30.7 4.8
-1 -17 -4 26 4.7
1 17 -4 26.9 4.9
-1 -17 4 32.5 4.9
1 17 4 17.8 4.8
-1 -17 4 27.7 4.8
-1 17 -4 31.9 4.9
1 -17 -4 25 4.7
1 17 4 27.7 4.8
2 17 -4 3 1.6
2 17 -4 8.5 1.6
2 -17 4 5 1.5
-2 -17 -4 7.6 1.7
-2 17 4 4.5 1.8
-2 17 4 5.5 1.9
-2 -17 -4 8.1 1.8
2 -17 4 4.7 1.7
2 17 4 4.7 1.8
-2 17 -4 5.3 1.8
2 -17 -4 3.6 1.5
-2 -17 4 6 1.7
-2 -17 4 4.6 1.4
2 17 4 2.3 1.6
2 -17 -4 4.4 1.8
-2 17 -4 4.7 1.8
3 17 -4 31 4.2
-3 -17 -4 23 4.2
-3 17 4 22.6 4.4
3 -17 4 19.8 4.2
3 -17 4 40.6 4.8
3 17 -4 31.1 4.2
-3 -17 -4 19.9 4.1
3 17 -4 27.7 4.4
-3 17 4 14.4 4.2
3 -17 -4 15.7 4
3 17 4 21.6 4.3
-3 17 -4 21.5 4.2
3 -17 -4 31.4 4.7
-3 -17 4 30 4.3
3 17 4 19.2 4.1
0 18 -4 4.7 1.6
0 18 4 4.3 1.9
0 -18 -4 1 1.3
0 -18 -4 1.9 1.3
1 18 -4 -0.9 1.3
1 -18 4 0.2 1.3
1 -18 4 0.4 1.2
-1 18 4 -0.4 1.5
-1 18 4 0.4 1.4
1 18 -4 0.7 1.2
-1 18 -4 -0.7 1.3
1 -18 -4 0.6 1.2
1 18 4 1.7 1.4
-1 -18 4 0.9 1.3
1 -18 -4 -0.1 1.2
-1 -18 4 0.6 1.1
-1 18 -4 0.3 1.2
0 0 -5 -0.2 0.5
0 0 5 -0.3 0.5
0 0 -5 -0.4 0.4
0 0 5 -0.6 0.4
0 0 5 0.2 0.4
0 0 -5 -0.1 0.5
0 0 -5 0.2 0.5
0 0 5 -0.4 0.5
-1 0 -5 0.1 0.6
1 0 5 0.1 0.5
-1 0 5 1.1 0.5
-1 0 -5 -1 0.5
-1 0 5 0.4 0.6
1 0 -5 0.8 0.4
1 0 5 -0.3 0.5
1 0 5 -0.3 0.5
1 0 -5 -0.8 0.5
-1 0 -5 0.5 0.5
-1 0 5 -0.3 0.5
1 0 5 0 0.5
-1 0 5 0.3 0.6
1 0 -5 -0.3 0.4
1 0 -5 -0.1 0.5
2 0 -5 0 0.5
-2 0 5 0.7 0.5
2 0 5 -0.5 0.5
-2 0 -5 0.8 0.6
-2 0 5 -0.2 0.5
-2 0 5 0.7 0.7
2 0 -5 0.3 0.4
-2 0 5 -0.5 0.5
-2 0 -5 0.3 0.5
2 0 -5 0.8 0.5
-2 0 -5 0.3 0.6
-2 0 -5 0.2 0.6
2 0 -5 -0.8 0.5
2 0 5 0.1 0.5
-3 0 -5 -1 0.6
3 0 5 -0.3 0.5
-3 0 5 0.9 0.7
-3 0 5 -0.2 0.5
-3 0 -5 -1 0.5
3 0 -5 0.5 0.4
3 0 -5 0.4 0.5
3 0 5 -0.4 0.5
3 0 -5 0.1 0.4
-3 0 5 0.5 0.6
-3 0 -5 -0.2 0.5
-3 0 5 -0.4 0.5
3 0 -5 -0.3 0.5
3 0 5 -0.3 0.4
-3 0 -5 -0.6 0.6
3 0 5 0.7 0.7
4 0 -5 -1.1 0.5
-4 0 5 -1.8 0.6
4 0 5 -0.2 0.6
4 0 5 0 0.5
-4 0 -5 -0.5 0.6
-4 0 -5 0.5 0.6
4 0 5 -0.4 0.5
-4 0 5 0.7 0.5
-4 0 5 -0.6 0.6
-4 0 -5 -0.3 0.6
4 0 -5 0.4 0.4
4 0 -5 0.2 0.6
-4 0 5 -0.1 0.5
-4 0 -5 0.3 0.6
4 0 -5 -0.4 0.4
-5 0 -5 -0.3 0.6
-5 0 5 -0.3 0.6
5 0 5 -0.3 0.5
5 0 -5 0.5 0.4
5 0 5 0.2 0.7
5 0 -5 0.2 0.4
5 0 5 -0.9 0.5
-5 0 -5 -0.9 0.6
-5 0 5 0.3 0.6
-5 0 5 1.8 0.6
5 0 -5 0.2 0.6
-5 0 -5 -0.4 0.6
5 0 -5 -0.5 0.6
5 0 5 1.1 0.6
-5 0 5 -0.3 0.7
-5 0 -5 -0.4 0.6
6 0 -5 -1.8 0.6
6 0 5 -0.3 0.6
6 0 5 -0.8 0.7
-6 0 -5 0.3 0.6
-6 0 -5 -0.5 0.6
6 0 -5 -0.2 0.7
-6 0 -5 -0.3 0.8
6 0 5 0.2 0.6
-6 0 5 -1.3 0.7
-6 0 5 1.1 0.8
-6 0 -5 -0.2 0.6
6 0 5 -0.9 0.6
-7 0 5 0 0.8
7 0 5 0.6 0.9
-7 0 -5 0 0.7
7 0 -5 1.2 0.8
-7 0 -5 -1.9 0.8
7 0 5 1.3 0.9
-7 0 -5 0.4 0.7
7 0 5 -1.1 0.7
-7 0 -5 0 0.8
7 0 5 0.6 0.8
-7 0 5 -0.5 0.7
-7 0 5 0.6 0.8
-7 0 5 0.3 0.8
8 0 -5 -0.7 0.8
8 0 5 0.1 0.9
8 0 5 -0.6 0.7
-8 0 -5 0.5 0.8
8 0 5 -0.1 0.7
-8 0 -5 -1.3 0.9
-8 0 -5 -0.3 0.9
8 0 -5 -0.4 0.9
9 0 -5 -0.4 1
9 0 5 0.6 1
9 0 5 1.6 1.1
9 0 5 -1.8 0.7
9 0 -5 0.5 0.9
9 0 5 0.7 1.1
0 1 5 -0.2 0.6
0 1 -5 0.7 0.5
0 -1 -5 -0.1 0.5
0 1 -5 -0.3 0.5
0 -1 5 0.2 0.5
0 -1 -5 -0.3 0.5
0 -1 -5 -0.1 0.5
0 1 5 0.1 0.5
0 -1 5 -0.4 0.5
0 1 -5 0.4 0.4
0 -1 5 0.3 0.4
0 1 5 0.7 0.5
0 -1 5 -0.9 0.5
0 1 -5 0 0.4
0 -1 -5 0.7 0.5
0 1 5 0.1 0.5
-1 1 5 153.58 29
1 -1 5 209.58 29
-1 -1 -5 184.88 29
1 1 -5 198.78 29
1 1 -5 201.08 29
-1 1 5 175.88 29
1 1 -5 225.18 29
-1 1 5 205.08 29
1 -1 5 171.78 29
1 -1 5 184.98 29
-1 -1 -5 187.18 29
-1 1 5 176.98 29
-1 -1 -5 182.28 29
1 1 -5 200.58 29
1 -1 5 178.58 29
-1 -1 5 191.78 29
1 1 5 174.78 29
1 1 5 186.88 29
-1 1 -5 187.08 29
-1 -1 5 191.58 29
-1 1 -5 208.18 29
1 -1 -5 172.98 29
-1 1 -5 188.98 29
1 -1 -5 222.48 29
1 -1 -5 194.78 29
1 1 5 193.88 29
1 -1 -5 170.78 29
-1 1 -5 205.68 29
1 1 5 209.48 29
-1 -1 5 185.78 29
-2 1 5 322.87 43
-2 1 5 284.67 43
-2 -1 -5 290.87 43
2 -1 5 289.27 43
2 1 -5 288.47 42.9
-2 -1 -5 294.77 43
2 -1 5 268.97 43
-2 -1 -5 256.87 43
-2 -1 -5 258.47 43
-2 1 5 303.07 43
2 -1 5 284.87 43
-2 1 5 262.77 43
2 -1 5 304.87 43
2 1 -5 270.57 42.9
-2 -1 5 258.07 42.9
-2 1 -5 306.07 43
-2 1 -5 296.67 43
2 -1 -5 297.37 43
-2 1 -5 244.98 43
2 -1 -5 256.87 43
2 1 5 281.37 43
2 -1 -5 322.07 43
-2 -1 5 259.67 42.9
-2 1 -5 277.77 43
2 -1 -5 283.67 43
-3 -1 -5 185.18 30.5
-3 1 5 201.88 30.5
3 1 -5 228.28 30.5
3 -1 5 202.28 30.5
-3 1 5 186.98 30.5
3 1 -5 218.38 30.5
-3 -1 -5 200.18 30.5
3 -1 5 191.18 30.5
-3 -1 -5 216.48 30.5
-3 1 5 188.78 30.5
-3 -1 -5 199.58 30.5
3 1 5 184.58 30.5
-3 -1 5 188.68 30.5
3 1 5 215.88 30.5
3 -1 -5 198.48 30.5
-3 1 -5 197.08 30.5
3 -1 -5 192.28 30.5
-3 -1 5 187.58 30.5
3 1 5 192.38 30.5
-3 1 -5 201.48 30.5
3 1 5 184.68 30.5
-3 -1 5 204.38 30.5
3 -1 -5 202.38 30.5
3 -1 -5 232.68 30.5
4 -1 5 6.7 1.2
-4 -1 -5 6.3 1.1
-4 1 5 6.7 1.3
4 -1 5 4.8 1.1
-4 1 5 3.9 1.1
-4 1 5 4.2 1.1
4 -1 5 6.1 1.2
4 1 -5 5.7 1.1
-4 -1 -5 6 1.2
4 -1 5 6.4 1.3
4 1 -5 4.2 1
-4 1 5 7.7 1.3
-4 -1 5 5 1
-4 -1 5 5.7 1.1
-4 1 -5 5.8 1.2
4 -1 -5 4 1
-4 -1 5 5.9 1
4 1 5 6.7 1.2
-4 1 -5 5.1 1.1
4 -1 -5 6.7 1.2
-4 -1 5 6.6 1.2
4 -1 -5 5.2 1.1
4 1 5 5.7 1.1
-4 1 -5 3.5 1.2
-4 1 -5 5 1.3
5 -1 5 22 3.7
-5 -1 -5 27.3 3.7
5 -1 5 19.9 3.6
5 -1 5 22.4 3.7
-5 -1 -5 20.9 3.6
5 1 -5 25.4 3.6
-5 -1 -5 25 3.7
5 -1 5 25.5 3.7
-5 1 5 28.6 3.8
-5 -1 -5 24.7 3.7
-5 1 5 26.8 3.7
5 1 -5 24.1 3.6
-5 -1 5 17.5 3.5
-5 -1 5 23.6 3.5
-5 1 -5 25.6 3.7
-5 1 -5 14.4 3.6
5 1 5 20.5 3.6
5 1 5 27.3 3.6
-5 1 -5 18.9 3.7
5 1 5 22.4 3.6
-5 1 -5 16.9 3.6
5 -1 -5 24.3 3.7
5 -1 -5 18.9 3.5
-5 -1 5 21.5 3.5
-5 -1 5 23.1 3.6
5 -1 -5 22.8 3.5
-6 1 5 28.6 4
6 -1 5 21 4
-6 -1 -5 20 3.9
-6 -1 -5 23.1 3.9
6 -1 5 24.5 3.9
-6 -1 -5 26 4
-6 1 5 22.9 3.9
6 1 -5 26.5 3.9
-6 1 5 23.1 3.9
-6 1 5 20.4 3.9
6 1 -5 23.9 3.8
-6 -1 -5 22.2 3.9
6 -1 5 22.1 3.9
6 -1 5 24.2 4
-6 -1 5 25 3.9
-6 1 -5 25.7 4
6 -1 -5 25 3.8
-6 1 -5 24.6 4
-6 1 -5 23.7 4
-6 -1 5 25 3.8
6 1 5 24.1 3.9
6 -1 -5 25.7 3.8
6 -1 -5 21 3.9
6 1 5 29.4 4
6 1 5 23 3.8
-6 -1 5 22.3 3.8
-6 1 -5 22.5 3.9
-6 -1 5 25.8 3.9
6 -1 -5 19.7 3.9
-7 -1 -5 6.7 1.6
7 1 -5 6.4 1.6
-7 -1 -5 8.8 1.7
7 -1 5 5.6 1.6
7 -1 5 9 1.8
7 1 -5 8.4 1.6
-7 -1 -5 10.3 1.8
-7 1 5 12.5 1.9
7 -1 5 6.6 1.7
-7 1 5 6.8 1.7
-7 -1 -5 11.9 1.9
-7 1 5 8.3 1.7
-7 1 5 8.7 1.7
-7 1 -5 8.4 1.8
7 1 5 7.5 1.7
-7 -1 5 6.2 1.7
-7 -1 5 8.9 1.6
-7 1 -5 10.7 1.9
-7 -1 5 8.8 1.7
7 -1 -5 8.9 1.6
-7 -1 5 9.6 1.6
7 1 5 7.4 1.5
7 -1 -5 5.5 1.5
7 -1 -5 9.6 1.7
7 1 5 11.1 1.8
7 -1 -5 7.9 1.8
7 1 5 9.8 1.8
8 -1 5 2.9 1.1
8 -1 5 3.8 1.2
8 1 -5 4.1 1
-8 -1 -5 3.8 1.1
8 -1 5 2.6 1.2
8 -1 5 5.2 1.1
8 1 5 4.3 1.2
8 1 5 3.6 1
-8 1 -5 3.4 1.2
8 -1 -5 2.1 0.9
-8 1 -5 1.1 1
8 -1 -5 5.5 1.3
8 -1 -5 2.9 1.3
8 1 5 3.4 1.1
-8 1 -5 3.3 1.2
-8 1 -5 4.2 1.3
9 1 -5 1.4 1.1
9 1 -5 0.1 0.8
9 -1 5 -1.3 1.5
9 -1 5 -0.1 1.1
9 -1 5 -0.7 1
9 -1 5 0.4 1
9 1 5 0.9 1
9 -1 -5 0.4 0.9
9 1 5 2.1 1.1
9 1 5 1.8 0.9
9 -1 -5 1 1.1
0 -2 -5 15.9 1.9
0 -2 -5 6.6 1.6
0 2 5 11.9 1.7
0 2 -5 16.4 1.7
0 2 5 6.8 1.6
0 -2 5 11.2 1.6
0 2 5 14 1.7
0 2 -5 8.4 1.6
0 -2 5 11.2 1.6
0 -2 5 8.6 1.6
0 -2 -5 9.8 1.6
0 2 -5 7.3 1.6
0 2 -5 4.5 1.5
0 -2 -5 8.5 1.6
0 -2 5 11.8 1.7
0 2 5 6.8 1.6
-1 -2 -5 392.96 60.89
-1 2 5 424.06 60.89
1 2 -5 378.16 60.89
1 -2 5 407.16 60.89
-1 2 5 361.36 60.89
-1 -2 -5 374.36 60.89
-1 -2 -5 378.46 60.89
1 -2 5 338.27 60.89
-1 2 5 331.47 60.89
-1 -2 -5 390.16 60.89
-1 2 5 396.36 60.89
1 -2 5 414.56 60.89
1 -2 5 380.06 60.89
1 -2 -5 428.06 60.99
1 2 5 418.26 60.89
1 2 5 387.26 60.89
-1 -2 5 363.86 60.89
-1 2 -5 423.66 60.89
-1 -2 5 466.35 60.89
1 -2 -5 416.86 60.89
1 -2 -5 378.76 60.89
1 2 5 438.46 60.89
-1 2 -5 429.96 60.99
1 2 5 394.96 60.89
-1 2 -5 434.06 60.89
-1 2 -5 400.86 60.89
1 -2 -5 425.86 60.89
-1 -2 5 441.76 60.89
-2 2 5 288.87 44.6
-2 2 5 304.17 44.6
-2 -2 -5 284.27 44.6
-2 2 5 263.07 44.6
2 2 -5 317.37 44.5
2 -2 5 309.97 44.6
2 -2 5 281.77 44.6
2 2 -5 314.67 44.5
-2 -2 -5 295.07 44.6
-2 -2 -5 289.67 44.6
-2 -2 -5 302.07 44.6
-2 2 5 301.37 44.6
2 -2 5 298.97 44.6
2 -2 5 268.07 44.6
-2 2 -5 266.87 44.6
-2 2 -5 271.57 44.6
-2 2 -5 323.87 44.6
2 2 5 266.67 44.6
2 2 5 262.57 44.6
2 2 5 314.17 44.6
2 -2 -5 285.97 44.6
2 2 5 290.97 44.6
-2 2 -5 344.47 44.6
-2 -2 5 275.77 44.5
2 -2 -5 300.77 44.6
-3 2 5 38.8 6.5
3 -2 5 41.3 6.5
3 -2 5 47.1 6.5
-3 -2 -5 41 6.5
3 2 -5 39.9 6.4
-3 -2 -5 41.7 6.5
-3 2 5 46.9 6.5
-3 -2 -5 41.3 6.5
-3 2 5 44.5 6.5
3 -2 5 40 6.5
-3 2 5 35.3 6.6
-3 -2 -5 39.3 6.4
-3 2 -5 44.1 6.5
3 2 5 49 6.5
-3 -2 5 39.4 6.4
3 -2 -5 39.3 6.5
-3 2 -5 32.8 6.5
3 2 5 44.9 6.4
3 2 5 39.3 6.4
-3 2 -5 38.1 6.5
3 -2 -5 43.8 6.5
3 -2 -5 41.6 6.5
3 -2 -5 44.8 6.5
3 2 5 40.2 6.4
-3 2 -5 48 6.5
-3 -2 5 42.9 6.4
4 -2 5 -0.2 0.6
-4 2 5 1.2 0.9
-4 -2 -5 0.7 0.6
4 -2 5 1.4 0.7
4 -2 5 0.7 0.7
4 -2 5 -0.5 0.5
-4 2 5 0.3 0.8
-4 2 -5 -0.2 0.6
4 -2 -5 -0.1 0.6
4 2 5 -0.4 0.6
4 -2 -5 -0.9 0.7
-4 2 -5 0.5 0.6
-4 2 -5 1.4 0.7
4 -2 -5 -0.4 0.5
4 2 5 0.1 0.4
4 2 5 1.3 0.6
-4 2 -5 0.8 0.7
5 -2 5 78.69 11.9
-5 -2 -5 79.39 11.9
-5 2 5 64.99 11.9
-5 -2 -5 86.09 11.9
-5 2 5 77.79 12
-5 -2 -5 80.79 11.9
5 -2 5 73.29 11.9
-5 2 5 78.69 11.9
5 -2 5 78.39 11.9
5 -2 5 83.29 12
-5 2 5 68.99 11.9
5 2 5 77.99 11.9
-5 -2 5 80.69 11.9
5 2 5 81.09 11.9
5 -2 -5 75.19 11.9
-5 2 -5 74.09 11.9
-5 -2 5 76.19 11.8
5 -2 -5 85.99 12
5 2 5 67.19 11.9
5 -2 -5 107.09 12.1
-5 -2 5 74.49 11.8
-5 2 -5 72.59 11.9
-5 2 -5 76.49 11.9
5 2 5 72.59 11.9
-5 2 -5 72.99 12
5 -2 -5 86.09 11.9
-6 2 5 7.8 1.8
-6 -2 -5 11.6 1.8
-6 -2 -5 11.1 1.8
-6 -2 -5 10.5 1.8
-6 2 5 9.5 1.9
-6 -2 -5 8.5 1.8
6 -2 5 7.2 1.7
-6 2 5 9.1 1.9
6 -2 5 11.1 1.9
6 -2 5 10 1.9
6 -2 5 8.9 1.8
-6 2 5 11.4 2
-6 2 -5 10 1.9
-6 2 -5 8.1 1.8
-6 -2 5 7.2 1.6
-6 -2 5 10.7 1.7
6 2 5 9 1.8
-6 2 -5 8.6 1.9
6 -2 -5 9.9 1.9
6 2 5 12.2 1.8
-6 2 -5 13.7 2.1
6 -2 -5 9.2 1.9
6 -2 -5 8 1.7
6 2 5 10.5 1.7
-6 -2 5 8.3 1.6
6 2 5 9.2 1.8
7 2 -5 23.1 3.2
-7 2 5 19.1 3.4
-7 -2 -5 18.3 3.2
-7 -2 -5 19 3.3
7 -2 5 14.7 3.2
7 -2 5 19.4 3.4
7 -2 5 17.7 3.4
-7 -2 -5 21.1 3.3
7 -2 5 18.1 3.4
-7 2 5 19.2 3.4
-7 -2 -5 21.1 3.3
-7 2 5 16.1 3.3
-7 2 5 18.2 3.3
7 2 -5 17.7 3.1
7 2 5 22.5 3.3
7 -2 -5 20 3.4
-7 2 -5 17.9 3.3
-7 2 -5 18.7 3.4
7 2 5 20.8 3.5
7 2 5 23.3 3.2
7 -2 -5 18.5 3.2
-7 -2 5 25 3.3
-7 -2 5 17.1 3.1
7 -2 -5 16.5 3.4
7 2 5 27.6 3.5
-7 2 -5 16.3 3.3
-7 2 -5 18.5 3.4
8 2 -5 8.5 1.4
8 -2 5 7.2 1.6
8 -2 5 9 1.9
8 2 -5 8.1 1.5
-8 -2 -5 5 1.6
8 -2 5 8.4 1.7
-8 2 5 6.3 1.6
-8 2 -5 8.3 1.8
8 2 5 8.6 1.6
-8 2 -5 5 1.6
8 2 5 4.1 1.5
8 -2 -5 7.7 1.7
-8 2 -5 6.7 1.7
-8 2 -5 7.5 1.7
8 2 5 10.1 1.8
8 -2 -5 7 1.5
8 2 5 6.6 1.4
9 -2 5 9.3 1.9
9 -2 5 7 1.7
9 2 -5 10.2 1.6
9 -2 5 9.8 1.9
9 -2 5 8.3 1.9
9 2 5 7.7 1.8
9 2 5 4.4 1.5
9 -2 -5 8.6 2
9 2 5 7.9 1.6
9 -2 -5 7 1.5
0 -3 5 -1.3 0.5
0 -3 -5 0.2 0.7
0 3 5 -0.3 0.6
0 3 5 0 0.5
0 3 -5 -0.4 0.5
0 -3 -5 -0.4 0.6
0 3 5 0.5 0.7
0 -3 -5 1 0.8
0 -3 5 -0.3 0.6
0 -3 5 0.2 0.6
0 3 -5 -0.1 0.5
0 -3 5 0.3 0.5
0 -3 -5 0.1 0.7
0 3 -5 1.1 0.6
0 3 -5 -0.7 0.4
0 3 5 0.2 0.7
1 -3 5 32.7 4
1 -3 5 21.7 3.9
-1 3 5 29.5 4
1 3 -5 24.3 3.8
-1 -3 -5 38.9 4
1 3 -5 25.4 3.8
1 -3 5 23.5 4
-1 -3 -5 25.8 3.9
1 -3 5 25 4
1 3 -5 22.3 3.8
-1 3 5 29.4 4
-1 3 5 22.2 4
-1 -3 -5 21.2 3.9
-1 -3 -5 21 3.9
-1 3 5 24.9 4
1 3 -5 28.7 3.8
-1 3 -5 17.8 3.9
-1 3 -5 25.9 4
-1 -3 5 22 3.8
1 3 5 26.6 3.9
1 3 5 28.9 4
1 -3 -5 17.2 3.9
-1 3 -5 28.8 4
-1 -3 5 21.2 3.8
-1 -3 5 25.9 3.9
1 -3 -5 16.3 3.9
-1 3 -5 37.4 4.1
1 -3 -5 27.1 4
1 3 5 24.7 3.9
-1 -3 5 23.1 3.8
1 -3 -5 34.3 4.1
1 3 5 22.3 3.9
-2 3 5 76.09 10.4
-2 -3 -5 69.79 10.3
-2 3 5 71.09 10.4
2 -3 5 54.59 10.3
-2 -3 -5 74.29 10.3
2 -3 5 60.49 10.4
-2 3 5 67.79 10.4
2 3 -5 73.69 10.3
-2 -3 -5 67.89 10.3
-2 -3 -5 64.69 10.3
-2 3 5 63.89 10.4
2 -3 -5 66.29 10.4
-2 -3 5 68.19 10.3
2 3 5 64.19 10.3
-2 3 -5 69.09 10.4
2 -3 -5 64.79 10.4
2 -3 -5 62.69 10.4
2 3 5 72.39 10.3
-2 3 -5 63.19 10.4
2 3 5 57.39 10.3
2 3 5 77.79 10.3
3 -3 5 -1.1 0.7
-3 3 5 1.1 0.8
-3 -3 -5 0.4 0.6
-3 3 5 -0.3 0.9
3 -3 5 0.7 0.6
-3 3 5 1.4 0.9
-3 -3 -5 0.3 0.5
-3 -3 -5 1.6 0.6
-3 3 -5 0.9 0.7
3 3 5 0.7 0.6
3 -3 -5 -0.1 0.7
-3 3 -5 -0.4 0.6
3 3 5 0.5 0.6
3 -3 -5 -0.4 0.6
-3 3 -5 1.3 0.8
-3 3 -5 0.7 0.7
3 3 5 0.6 0.4
4 -3 5 8.6 1.4
-4 3 5 5.2 1.2
-4 3 5 5.5 1.2
4 -3 5 4.5 1.1
-4 -3 -5 7.5 1.2
-4 -3 -5 4.9 1.1
4 -3 5 5.8 1.2
-4 -3 -5 4.9 1.3
4 -3 5 4.9 1.2
-4 3 5 4.3 1.3
-4 3 5 3 1.3
-4 3 -5 4.7 1.2
-4 3 -5 4.9 1.2
-4 3 -5 6.5 1.3
4 -3 -5 5.3 1.2
4 -3 -5 4.8 1.2
4 3 5 5.1 1
-4 3 -5 6 1.3
4 3 5 4.2 1
4 3 5 6.3 1.2
4 -3 -5 3.5 1.2
4 3 5 5 1.1
-5 3 5 93.49 15.6
5 -3 5 97.89 15.6
-5 3 5 111.49 15.7
5 -3 5 89.99 15.6
5 -3 5 123.49 15.7
-5 -3 -5 87.99 15.5
5 -3 5 101.69 15.6
-5 -3 -5 99.89 15.5
-5 3 5 106.69 15.6
-5 -3 -5 101.99 15.5
5 -3 -5 108.29 15.6
-5 3 -5 112.49 15.6
-5 3 -5 95.89 15.6
5 3 5 99.09 15.5
-5 3 -5 98.39 15.6
5 3 5 96.69 15.5
5 -3 -5 97.49 15.6
5 -3 -5 111.89 15.6
5 3 5 101.39 15.5
5 -3 -5 110.09 15.6
-5 3 -5 102.59 15.6
-6 3 5 9.2 1.6
6 -3 5 6.3 1.5
6 -3 5 8.2 1.7
-6 3 5 8.7 1.6
-6 -3 -5 8 1.5
-6 -3 -5 7.1 1.4
-6 3 5 9.9 1.8
-6 -3 -5 8.2 1.4
6 -3 5 9.4 1.7
-6 3 5 4.8 1.6
-6 -3 -5 6.5 1.5
6 -3 -5 8.5 1.6
6 3 5 6.7 1.4
6 -3 -5 5.5 1.5
6 -3 -5 8.4 1.7
6 -3 -5 8.3 1.6
6 3 5 7.2 1.4
-6 3 -5 7.1 1.6
-6 3 -5 4.3 1.5
-7 3 5 21.3 4.4
-7 -3 -5 25.2 4.4
-7 3 5 25 4.5
-7 3 5 29.1 4.6
-7 -3 -5 32.9 4.4
7 -3 5 28.5 4.5
7 -3 5 25.2 4.5
-7 -3 -5 29.1 4.4
7 -3 5 29.3 4.7
-7 3 5 21.3 4.5
7 -3 5 30.2 4.6
-7 -3 -5 27 4.4
7 3 5 32.4 4.5
7 -3 -5 20.2 4.4
-7 3 -5 28.3 4.6
7 3 5 30.3 4.4
7 -3 -5 24.7 4.4
7 3 5 25.9 4.3
-7 3 -5 26.7 4.5
7 -3 -5 25.2 4.6
7 3 5 34.9 4.5
7 -3 -5 23.5 4.6
8 -3 5 101.39 15.4
-8 3 5 105.09 15.4
8 -3 5 104.59 15.4
8 -3 5 85.29 15.3
-8 3 5 104.39 15.4
-8 3 5 110.99 15.4
8 -3 -5 92.99 15.3
-8 3 -5 104.69 15.4
8 3 5 93.19 15.2
-8 3 -5 91.69 15.4
8 -3 -5 97.19 15.3
8 3 5 102.89 15.3
8 3 5 102.49 15.3
8 -3 -5 100.49 15.4
-8 3 -5 104.79 15.4
9 -3 5 -0.1 1.1
9 -3 5 1.9 1.1
9 -3 5 -0.6 1
9 3 5 -0.2 0.9
9 -3 -5 0 0.9
9 3 5 0.6 1
9 -3 -5 0.6 1.2
9 -3 -5 0.2 1
9 -3 -5 0.8 1.2
0 -4 5 808.12 142.39
0 -4 -5 906.31 142.39
0 4 -5 1081.59 142.39
0 4 -5 920.81 142.39
0 -4 5 1059.09 142.39
0 4 5 1009.2 142.39
0 4 5 977.7 142.39
0 -4 5 845.82 142.39
0 -4 5 901.31 142.39
0 -4 -5 859.51 142.39
1 4 -5 23.5 3.2
-1 -4 -5 17.5 3.2
-1 -4 -5 16.5 3.2
1 -4 5 19.5 3.2
-1 4 5 24.1 3.4
1 4 -5 20 3.1
1 -4 5 13.9 3.2
1 4 -5 17.6 3.1
-1 -4 -5 22.4 3.3
-1 -4 -5 19.9 3.2
1 4 -5 16.5 3.1
-1 4 5 23.3 3.5
-1 4 -5 20.5 3.3
1 4 5 20.8 3.3
-1 4 -5 11.8 3.2
1 -4 -5 23.8 3.3
1 4 5 20.3 3.3
1 4 5 24.2 3.2
-1 -4 5 22.8 3.2
1 -4 -5 22.4 3.3
-1 -4 5 19.2 3.2
-1 -4 5 18.5 3.1
1 4 5 26.3 3.3
-1 -4 5 21.3 3.2
-2 -4 -5 16.9 3.1
-2 4 5 18.5 3.3
2 4 -5 16.6 3
2 4 -5 17.5 3
-2 -4 -5 24.2 3.2
2 -4 5 14.7 3.1
2 4 -5 17.4 3
2 -4 5 16.1 3.1
-2 -4 -5 25.2 3.2
2 -4 5 10.8 3.1
-2 4 5 22.3 3.3
-2 4 5 20.2 3.2
-2 -4 -5 34.7 3.3
2 -4 5 19.8 3.2
-2 4 5 17 3.2
2 -4 -5 18.5 3.2
-2 4 -5 20.8 3.2
-2 -4 5 16 3
2 4 5 22.3 3.2
2 4 5 24.3 3.2
-2 4 -5 33 3.4
-2 -4 5 17.4 3
-2 4 -5 19.1 3.2
2 -4 -5 18.1 3.1
-2 -4 5 18 3
2 4 5 23.9 3.1
2 4 5 28.9 3.2
2 -4 -5 17.6 3.2
-2 4 -5 21.2 3.2
3 -4 5 42.9 7.6
-3 -4 -5 39.8 7.5
-3 4 5 50.39 7.6
-3 -4 -5 48.1 7.5
3 -4 5 45.9 7.9
-3 4 5 43.5 7.6
-3 -4 -5 48.4 7.5
3 -4 5 49.2 7.6
-3 4 5 53.99 7.6
-3 -4 -5 49.99 7.5
3 -4 5 51.59 7.6
-3 4 5 47.3 7.7
3 -4 -5 45.8 7.6
3 -4 -5 51.19 7.6
-3 4 -5 52.39 7.6
-3 4 -5 50.09 7.6
3 -4 -5 49.5 7.6
3 4 5 49.6 7.5
3 4 5 46.5 7.5
3 -4 -5 49.4 7.6
3 4 5 46.9 7.5
-3 4 -5 56.29 7.6
-3 4 -5 53.59 7.6
3 4 5 49.2 7.5
-4 4 5 114.29 15
4 -4 5 92.49 14.9
4 -4 5 99.19 14.9
-4 4 5 108.99 15
4 -4 5 106.59 14.9
-4 4 5 103.49 14.9
-4 -4 -5 103.99 14.8
-4 -4 -5 88.79 14.8
-4 4 5 99.49 14.9
4 -4 5 91.89 14.9
-4 4 -5 107.19 14.9
4 4 5 85.79 14.8
4 4 5 92.79 14.8
4 4 5 90.29 14.8
-4 4 -5 87.69 14.9
4 4 5 98.99 14.8
-4 4 -5 102.29 14.9
4 -4 -5 96.59 14.9
-4 4 -5 94.09 14.9
4 -4 -5 90.49 14.9
4 -4 -5 101.09 14.9
5 -4 5 33.2 5.5
-5 -4 -5 34 5.2
-5 -4 -5 33.3 5.2
-5 -4 -5 31.6 5.2
5 -4 5 24.9 5.3
-5 4 5 30.2 5.4
-5 4 5 39.8 5.5
-5 4 5 33 5.4
-5 4 5 28.2 5.3
5 4 5 34 5.2
5 4 5 36.5 5.2
-5 4 -5 33.7 5.4
5 -4 -5 45.6 5.6
5 -4 -5 39.7 5.4
5 -4 -5 28.5 5.3
5 4 5 31.4 5.1
-6 4 5 1.6 0.9
-6 -4 -5 2.3 0.8
6 -4 5 1 0.9
6 -4 5 2.2 1
-6 -4 -5 3.3 0.9
-6 -4 -5 2 0.8
-6 4 5 4.1 1.2
6 -4 5 0.8 0.9
6 -4 5 1.2 0.9
-6 4 5 2.3 0.9
-6 -4 -5 1.5 0.8
-6 4 5 2.3 1.2
6 4 5 2.6 0.8
6 4 5 1.5 0.7
6 -4 -5 2 1.1
-6 4 -5 1.7 1.1
-6 4 -5 2.9 1
6 -4 -5 3.8 1.2
6 -4 -5 2.5 0.9
-6 4 -5 1 0.9
-6 4 -5 2.2 1
6 4 5 3.2 0.8
6 4 5 1.8 0.7
6 -4 -5 2.5 1
-7 -4 -5 35.6 5.5
7 -4 5 38.1 5.8
-7 4 5 34.9 5.8
7 -4 5 27.1 5.7
-7 4 5 32 5.8
-7 -4 -5 34.3 5.5
-7 -4 -5 34.4 5.5
7 -4 5 32.4 5.7
-7 4 5 39.3 5.8
-7 -4 -5 35.2 5.5
7 -4 5 38.3 5.9
-7 4 -5 31.7 5.8
-7 4 -5 38.6 5.8
7 -4 -5 32.9 5.8
7 -4 -5 36 5.7
7 -4 -5 38.9 5.9
-7 4 -5 32.8 5.9
7 4 5 33 5.5
7 4 5 38.5 5.5
7 -4 -5 32.9 5.7
-7 4 -5 45.3 5.9
8 -4 5 9.1 1.7
-8 4 5 5.8 1.7
8 -4 5 3.6 1.4
-8 4 5 4.9 1.6
-8 4 5 5.8 1.6
-8 4 5 5.7 1.6
8 -4 5 8.3 2.1
-8 4 -5 7.6 1.6
8 -4 -5 5 1.6
8 4 5 7.8 1.4
8 4 5 9 1.5
-8 4 -5 5.1 1.5
8 -4 -5 5.1 1.6
8 -4 -5 3.2 1.4
9 -4 5 1.3 1.1
9 -4 5 3.2 1.2
9 -4 5 -0.3 1
9 4 5 0.7 1
9 -4 -5 1.2 1.1
9 -4 -5 0.6 1.2
9 4 5 0.9 1
-9 4 -5 2.7 1.3
0 -5 5 -0.2 0.6
0 5 -5 -0.2 0.6
0 -5 -5 1.3 0.8
0 -5 -5 0.3 0.6
0 -5 5 0.2 0.7
0 5 5 0 0.9
0 5 5 -0.4 1
0 -5 5 -1.1 1
0 -5 5 0.1 0.7
0 5 -5 0.3 0.8
0 5 -5 0.1 0.5
1 -5 5 6.1 1.4
1 5 -5 7.1 1.1
1 5 -5 4.7 1.2
-1 5 5 3.4 1.4
-1 5 5 8.1 1.4
1 -5 5 5.8 1.3
1 5 -5 7.8 1.2
1 -5 5 3.3 1.2
1 -5 5 4.1 1.2
-1 5 5 4 1.4
-1 -5 -5 10.6 1.4
-1 -5 -5 6.4 1.3
-1 5 5 4.5 1.3
1 5 -5 6.2 1.1
1 -5 -5 5.2 1.5
1 -5 -5 4.4 1.2
-1 5 -5 5.1 1.3
-1 5 -5 5.3 1.4
-1 -5 5 8.3 1.2
-1 5 -5 6.6 1.4
1 -5 -5 5.2 1.4
-1 -5 5 7.4 1.3
-1 -5 5 6.1 1.2
-1 -5 5 4.9 1.2
-1 5 -5 7.6 1.4
1 -5 -5 6.4 1.3
2 -5 5 457.75 79.99
2 5 -5 557.04 79.99
2 5 -5 555.44 79.89
2 -5 5 474.85 79.99
-2 5 5 519.75 80.09
-2 -5 -5 586.44 79.99
-2 5 5 514.85 79.99
2 5 -5 537.15 79.99
-2 -5 -5 537.85 79.99
2 -5 5 543.75 79.99
-2 5 5 550.54 79.99
-2 5 5 491.65 79.99
2 -5 5 468.05 79.99
2 5 -5 461.45 79.89
2 -5 -5 507.95 79.99
2 -5 -5 535.15 79.99
-2 5 -5 510.75 79.99
-2 -5 5 458.95 79.99
2 -5 -5 510.75 79.99
-2 -5 5 524.25 79.89
-2 5 -5 541.45 79.99
2 5 5 565.24 79.99
2 5 5 612.64 79.99
-2 5 -5 499.55 79.99
2 5 5 481.55 79.99
2 -5 -5 547.85 80.09
-2 5 -5 540.05 79.99
-2 -5 5 551.74 79.99
2 5 5 550.14 79.99
-2 -5 5 570.94 79.99
-3 5 5 17.6 3
-3 -5 -5 17.6 2.8
3 -5 5 15.7 2.9
3 -5 5 17.4 3.1
-3 -5 -5 20.9 2.9
-3 5 5 16.1 2.9
3 -5 5 14.9 3
3 -5 5 14.4 2.9
-3 5 5 19.9 3.1
-3 5 5 16.6 3.1
3 5 5 18 2.9
-3 5 -5 21.4 3.1
-3 -5 5 15.5 2.7
3 5 5 16.8 2.8
3 -5 -5 20.8 3
-3 5 -5 22.4 3.1
-3 5 -5 12 2.9
3 -5 -5 16.8 3.1
3 -5 -5 20.5 3
3 5 5 22.8 2.9
-3 -5 5 16.4 2.7
3 -5 -5 17.2 3
-3 5 -5 15.6 3
4 -5 5 47.5 7.8
-4 5 5 43.7 7.8
-4 -5 -5 46.4 7.7
-4 -5 -5 54.09 7.7
4 -5 5 51.29 7.8
-4 5 5 55.89 7.8
4 -5 5 59.79 7.9
4 -5 5 47.3 7.8
-4 5 5 72.49 9
-4 5 -5 51.29 7.8
-4 5 -5 57.09 7.8
-4 5 -5 50.89 7.8
4 -5 -5 44.9 7.8
4 5 5 46.7 7.6
4 -5 -5 49.6 7.8
4 5 5 48.1 7.7
4 -5 -5 55.19 7.8
4 -5 -5 46.9 7.8
4 5 5 43.8 7.7
-4 5 -5 52.29 7.9
-5 5 5 64.39 9.4
5 -5 5 57.09 9.4
-5 5 5 62.99 9.5
-5 -5 -5 55.99 9.3
5 -5 5 63.79 9.4
-5 -5 -5 54.09 9.3
5 -5 5 61.59 9.4
-5 5 5 59.79 9.4
5 -5 5 65.59 9.4
-5 -5 -5 57.49 9.3
-5 5 5 66.29 9.5
5 -5 -5 49.99 9.4
5 5 5 61.39 9.2
-5 5 -5 58.69 9.4
-5 5 -5 56.39 9.4
5 -5 -5 57.69 9.4
5 -5 -5 61.49 9.4
-5 5 -5 63.69 9.4
5 5 5 61.09 9.3
5 5 5 66.89 9.3
-5 5 -5 50.39 9.4
5 -5 -5 69.79 9.4
6 -5 5 4.2 1.3
-6 -5 -5 2.6 1
-6 5 5 3 1.3
6 -5 5 3.9 1.2
-6 -5 -5 4 1
6 -5 5 3.9 1.3
-6 -5 -5 4.1 1
-6 -5 -5 4.4 1
-6 5 5 2.9 1.1
-6 5 5 4.8 1.5
-6 5 5 3.9 1.2
6 -5 5 4.8 1.2
6 5 5 3.7 0.9
6 5 5 3.6 0.9
6 5 5 3.1 0.8
6 -5 -5 4.8 1.2
-6 5 -5 2.6 1.2
-6 5 -5 4.7 1.4
6 5 5 5.9 1.1
6 -5 -5 2.1 1.2
6 -5 -5 3.1 1.2
-6 5 -5 3.5 1.2
-7 5 5 0.3 1
-7 5 5 -0.2 1.1
-7 5 5 0.3 0.9
-7 -5 -5 -0.3 0.7
7 -5 5 -1 0.7
7 -5 5 -0.6 0.9
-7 -5 -5 0.5 0.7
7 -5 5 -0.4 0.8
-7 5 5 -0.7 0.9
-7 -5 -5 0.5 0.7
-7 5 -5 0.5 0.9
7 -5 -5 0.6 1.1
7 -5 -5 1.2 1.1
7 -5 -5 -0.1 1
-7 5 -5 0 1
7 5 5 0.4 0.6
7 5 5 0.1 0.7
7 -5 -5 1 1.1
-8 5 5 -0.2 1.1
-8 5 5 3.8 1.4
8 -5 5 0.3 1
8 -5 5 -0.1 1
8 -5 5 0.5 0.9
-8 5 5 2.2 1.3
8 -5 -5 0.8 1.2
8 -5 -5 1.2 1.2
-8 5 -5 4.1 1.2
8 -5 -5 1 1
8 5 5 1.4 0.8
8 5 5 1.5 0.9
8 -5 -5 1.6 1.1
-8 5 -5 0.2 1
0 -6 5 57.19 10.6
0 -6 5 69.19 10.6
0 -6 5 76.99 10.7
0 -6 5 63.09 10.6
0 6 5 69.99 10.7
0 6 -5 66.99 10.6
0 6 5 59.39 10.6
0 -6 -5 75.39 10.6
0 -6 -5 74.29 10.7
0 6 5 71.89 10.6
0 -6 -5 77.59 10.6
0 6 5 62.99 10.7
0 -6 -5 80.09 10.7
-1 6 5 193.68 30.2
-1 -6 -5 212.48 30.2
-1 6 5 165.78 30.3
-1 6 5 197.58 30.3
1 -6 5 196.38 30.3
-1 -6 -5 194.58 30.3
1 6 -5 192.48 30.2
1 6 -5 203.18 30.2
1 6 -5 189.98 30.2
-1 -6 -5 238.28 30.3
1 6 -5 198.48 30.2
1 -6 5 205.48 30.3
1 -6 5 218.18 30.3
-1 6 5 171.58 30.2
1 -6 5 178.48 30.2
-1 -6 -5 164.38 30.2
1 6 5 196.28 30.3
1 6 5 176.98 30.2
1 -6 -5 226.88 30.3
-1 -6 5 185.58 30.2
1 -6 -5 198.68 30.3
-1 6 -5 180.48 30.2
1 -6 -5 196.18 30.2
1 6 5 162.78 30.2
1 6 5 233.08 30.3
-1 6 -5 195.58 30.2
-1 6 -5 219.38 30.3
-1 -6 5 231.38 30.2
-1 -6 5 226.58 30.2
1 -6 -5 207.58 30.3
-1 6 -5 188.08 30.2
-1 -6 5 216.38 30.2
-2 -6 -5 51.79 7.9
-2 6 5 51.19 8
2 6 -5 50.69 7.9
2 6 -5 45.5 7.9
2 6 -5 50.89 7.9
2 -6 5 44.9 8
2 6 -5 54.79 7.9
2 -6 5 49.5 8
2 -6 5 56.79 8.1
-2 6 5 45.4 8
-2 -6 -5 46.1 7.9
2 -6 5 45.6 8
-2 -6 -5 54.59 8
-2 6 5 57.39 8.1
-2 6 5 51.49 8.1
2 6 5 44.5 8
-2 -6 5 48.9 7.9
-2 -6 5 57.79 7.9
2 -6 -5 52.79 8
2 -6 -5 44.1 8
-2 6 -5 46.4 8
2 -6 -5 49 8
-2 -6 5 63.59 7.9
-2 6 -5 51.39 8
-2 6 -5 52.09 8
2 6 5 57.39 8
-2 -6 5 57.29 7.9
-2 6 -5 46.2 8
2 -6 -5 51.09 8
3 -6 5 15.4 2.6
3 -6 5 13.7 2.6
-3 -6 -5 16 2.5
-3 6 5 19.8 2.9
-3 -6 -5 13.2 2.5
-3 6 5 19.1 2.8
3 6 -5 17.4 2.4
-3 6 5 11.1 2.6
3 -6 5 12.8 2.7
-3 6 5 12.7 2.6
3 -6 5 10.2 2.5
3 6 -5 15.6 2.4
-3 -6 -5 12.5 2.5
-3 6 -5 12.9 2.7
-3 -6 5 18.6 2.4
3 -6 -5 10.1 2.6
-3 6 -5 14.5 2.7
-3 -6 5 15.7 2.4
-3 -6 5 15.2 2.4
3 6 5 13.8 2.6
-3 6 -5 14.2 2.7
-3 6 -5 14.7 2.7
3 6 5 16.7 2.6
-3 -6 5 15.5 2.4
3 -6 -5 11.8 2.6
-4 -6 -5 84.79 12.7
-4 -6 -5 81.89 12.7
4 -6 5 76.49 12.8
-4 -6 -5 74.29 12.7
-4 6 5 87.59 12.8
-4 6 5 80.29 12.9
-4 6 5 84.99 12.8
-4 6 5 76.49 12.8
4 -6 5 82.09 12.8
4 6 5 83.79 12.7
4 -6 -5 84.29 12.8
4 6 5 102.89 12.7
4 -6 -5 82.19 12.8
-4 6 -5 89.89 12.8
4 -6 -5 77.09 12.8
-4 6 -5 81.99 12.8
4 -6 -5 86.59 12.8
4 6 5 76.39 12.6
5 -6 5 49.9 6.5
-5 6 5 32.3 6.3
5 -6 5 42.5 6.4
5 -6 5 44.8 6.4
-5 6 5 42.9 6.5
5 -6 5 36.3 6.3
-5 6 5 35.1 6.3
-5 -6 -5 37.8 6.1
-5 -6 -5 36.4 6.1
-5 -6 -5 39.1 6.1
-5 6 5 45.6 6.4
-5 -6 -5 41.4 6.1
5 -6 -5 38.4 6.3
5 6 5 33 6.1
-5 6 -5 32.4 6.3
-5 6 -5 39 6.4
5 -6 -5 41.7 6.4
-5 6 -5 48 6.6
5 6 5 40.1 6.1
-5 6 -5 33.8 6.3
5 -6 -5 41.6 6.3
5 6 5 39.4 6
-6 6 5 32.1 5.6
-6 6 5 32.6 5.6
-6 6 5 27.6 5.6
-6 -6 -5 35.7 5.4
-6 -6 -5 32.7 5.4
6 -6 5 39 5.8
-6 -6 -5 36.4 5.4
6 -6 5 32 5.5
6 -6 5 42 5.8
-6 6 5 32.8 5.6
6 -6 -5 27.9 5.5
-6 6 -5 41.2 5.7
6 6 5 33.9 5.4
6 6 5 36.7 5.3
6 -6 -5 28.2 5.5
6 -6 -5 36.2 5.6
-6 6 -5 32.5 5.7
-6 6 -5 29.7 5.6
6 -6 -5 39.3 5.8
-7 -6 -5 2.6 0.9
-7 6 5 2.8 1.2
-7 6 5 2.9 1.2
-7 6 5 2.5 1.3
7 -6 5 -0.2 1
7 -6 5 2.7 1.2
7 -6 -5 0.9 1.1
7 -6 -5 2.2 1.1
-7 6 -5 0 1.1
-7 6 -5 0.3 1
7 -6 -5 1.4 1.1
7 6 5 2.3 0.7
7 -6 -5 1 1
7 6 5 4.2 1.1
8 -6 5 8 1.9
-8 6 5 4 1.9
-8 6 5 8 2.1
8 -6 5 9.3 2
8 -6 -5 8.6 1.9
-8 6 -5 7.4 1.9
8 6 5 6.1 1.7
-8 6 -5 9.9 2
8 6 5 10.1 1.6
8 -6 -5 7.4 1.9
8 -6 -5 7.2 1.9
0 -7 -5 0.5 0.9
0 7 5 0.5 0.6
0 -7 -5 0 0.7
0 7 -5 0.3 0.6
0 7 -5 -0.3 0.8
0 -7 -5 0.1 0.8
0 -7 5 1.2 0.8
0 7 5 0.3 0.6
0 -7 5 0.5 0.7
0 -7 -5 1.3 1.1
0 -7 5 0.2 0.7
0 7 -5 0.4 0.5
0 7 -5 -0.6 0.7
0 -7 5 -0.5 0.8
0 7 5 0.8 1.1
-1 -7 -5 34.1 5.8
1 -7 5 35.2 5.8
-1 -7 -5 40.2 5.9
1 7 -5 34.5 5.7
1 -7 5 50.09 6.1
-1 -7 -5 59.39 6.1
1 7 -5 37.3 5.8
-1 7 5 30.5 5.7
1 7 -5 36.2 5.7
1 -7 5 46 6
1 -7 5 29.1 5.8
-1 7 5 35.2 5.8
-1 -7 -5 38.8 5.8
-1 7 -5 41.1 5.8
-1 7 -5 37.3 5.7
1 7 5 28.7 5.8
-1 7 -5 30.9 5.8
1 7 5 38.7 5.7
1 -7 -5 34.4 5.9
-1 -7 5 35.9 5.8
1 -7 -5 32.6 5.8
1 -7 -5 36.8 5.8
-1 7 -5 31.6 5.8
1 7 5 45 5.9
1 7 5 32.1 5.7
1 -7 -5 41 6
2 -7 5 4 1.1
-2 7 5 3.4 1.1
-2 -7 -5 3 1.1
2 -7 5 2.5 1
2 7 -5 3 0.9
2 7 -5 2.8 0.7
-2 7 5 2.7 1
2 -7 5 4.6 1.3
-2 7 5 4.4 1.2
2 7 -5 3.6 0.7
2 7 -5 3.3 0.8
-2 7 5 1 1.2
-2 -7 -5 1.4 0.8
-2 -7 -5 1.6 0.9
-2 -7 -5 3.6 1
2 -7 5 2.4 1
2 -7 -5 3.2 1
2 7 5 3.4 0.8
2 -7 -5 3.3 1.2
-2 -7 5 3.4 0.9
2 -7 -5 3.7 1
2 7 5 2.6 0.7
-2 -7 5 1.9 0.9
2 7 5 3.6 1.2
-2 7 -5 0.7 0.8
-2 -7 5 2.9 0.9
2 -7 -5 2.3 1
-2 -7 5 3.5 0.8
-2 7 -5 1.2 1
-2 7 -5 5.2 1.1
-2 7 -5 2.1 1
2 7 5 3.5 1.1
-3 -7 -5 1.3 0.8
3 7 -5 1.7 0.6
3 -7 5 0.2 0.7
-3 -7 -5 1 0.6
-3 -7 -5 2.3 0.7
3 -7 5 0.8 0.9
-3 7 5 0.7 0.9
3 7 -5 1.4 0.5
-3 -7 -5 1.7 0.9
-3 7 5 1.1 0.9
-3 -7 5 1.6 0.6
-3 -7 5 1.1 0.5
-3 -7 5 0.9 0.6
-3 -7 5 1.6 0.7
3 -7 -5 -0.2 0.8
-3 7 -5 2.3 1.1
3 7 5 1 0.9
-3 7 -5 0.8 0.8
3 -7 -5 0 0.8
3 7 5 2 1
3 7 5 0.3 0.5
-4 7 5 1.7 1.1
-4 7 5 2.4 1.1
-4 -7 -5 2.2 0.9
4 -7 5 4.6 1.3
-4 7 5 2 1
-4 -7 -5 1.8 0.8
-4 -7 -5 2.4 0.8
-4 7 5 1.3 1
-4 -7 -5 1.8 0.8
4 -7 5 0.7 0.9
-4 7 -5 4 1.1
4 7 5 2.1 0.7
4 7 5 2.6 1
4 7 5 2.1 0.9
4 -7 -5 1.8 1.1
-4 -7 5 2.8 0.6
4 -7 -5 1.7 1
-4 7 -5 1.8 1.1
4 -7 -5 2.5 1
-4 7 -5 2 1.2
4 -7 -5 0.9 1
-4 7 -5 2.7 1.1
-4 -7 5 3.3 0.6
4 7 5 1.8 0.7
-5 7 5 8.6 1.9
-5 -7 -5 6.5 1.4
5 -7 5 9.1 1.8
-5 7 5 8.8 1.7
5 -7 5 3.9 1.5
-5 -7 -5 7.7 1.4
5 -7 5 6 1.5
-5 7 5 7.1 1.6
5 -7 5 8 1.7
-5 -7 -5 5.1 1.4
-5 -7 -5 10 1.5
-5 7 5 6.1 1.6
5 7 5 8.4 1.5
5 -7 -5 6.1 1.6
-5 7 -5 7.3 1.8
5 -7 -5 5 1.5
5 -7 -5 6.5 1.7
-5 7 -5 7.1 1.7
5 7 5 5.4 1.2
5 -7 -5 6.6 1.6
-5 7 -5 7.8 1.7
5 7 5 7.6 1.4
-5 7 -5 6.4 1.7
-6 -7 -5 4.1 1
6 -7 5 5.7 1.4
-6 -7 -5 4 1
-6 7 5 0.5 1.3
6 -7 5 3.6 1.2
-6 -7 -5 4.8 1
-6 -7 -5 2.9 1
-6 7 5 4.8 1.5
6 7 5 3.7 1.1
-6 7 -5 3.1 1.3
6 -7 -5 4.5 1.3
6 -7 -5 2.1 1.1
6 -7 -5 3.2 1.4
6 -7 -5 4.1 1.3
6 7 5 3.8 0.9
-6 7 -5 5.6 1.4
-7 7 5 1.4 1.3
-7 7 5 1.4 1.3
7 -7 5 2.8 1.2
7 -7 5 1.9 1.1
7 -7 -5 3.7 1.2
7 7 5 3.1 0.8
7 -7 -5 1.9 1.2
7 -7 -5 2.1 1.1
-7 7 -5 2.4 1.2
7 7 5 1.6 1
-8 7 5 17.3 3.5
8 -7 5 21.8 3.7
8 -7 5 21.9 3.5
-8 7 5 13.8 3.5
-8 7 -5 23.9 3.7
8 7 5 21 3.3
8 -7 -5 15.4 3.4
-8 7 -5 18.7 3.5
8 7 5 17.8 3.2
8 -7 -5 20.2 3.4
0 8 -5 69.79 12.1
0 -8 -5 80.29 12.2
0 -8 5 81.09 12.2
0 8 -5 69.89 12.1
0 -8 5 88.39 12.2
0 8 -5 91.29 12.2
0 8 -5 83.49 12.2
0 -8 -5 70.59 12.2
0 -8 -5 69.09 12.2
0 -8 -5 77.99 12.2
0 8 5 79.29 12.1
0 8 5 81.19 12.3
0 -8 5 71.99 12.1
0 -8 5 93.29 12.2
0 8 5 84.09 12.2
1 -8 5 1.2 1
1 8 -5 1.1 0.8
1 -8 5 0.4 0.8
-1 -8 -5 1.2 0.8
1 8 -5 0.9 0.6
1 8 -5 0.5 0.5
-1 8 5 0.2 0.7
1 -8 5 0.5 0.8
-1 -8 -5 0 0.9
1 8 -5 -0.1 0.6
-1 -8 -5 0.1 1.1
1 -8 5 1.5 0.9
-1 8 5 1.3 1.2
-1 8 5 0.2 0.6
-1 8 5 -0.4 0.8
-1 -8 -5 0 0.7
-1 8 -5 0.5 0.8
-1 -8 5 0.5 0.7
1 8 5 1.1 1
-1 8 -5 2.6 1
-1 -8 5 -0.9 0.7
1 -8 -5 0.2 1.1
1 -8 -5 -0.3 0.9
1 8 5 0.8 0.6
1 8 5 1.2 0.9
1 -8 -5 1.4 0.9
-1 -8 5 0.9 0.7
-1 -8 5 1.3 0.8
-1 8 -5 -1.1 0.6
1 -8 -5 0.9 0.8
-1 8 -5 -0.9 1
1 8 5 0.6 0.5
-2 8 5 32 6.2
-2 -8 -5 35 6.2
2 8 -5 40.5 6
2 8 -5 36.3 6.1
2 -8 5 28.3 6.2
-2 8 5 34.5 6.2
2 8 -5 41 6
-2 -8 -5 38.8 6.1
-2 -8 -5 46.1 6.2
2 -8 5 36.8 6.3
-2 -8 -5 35 6.2
2 8 5 46.3 6.3
2 -8 -5 37.4 6.3
2 -8 -5 45 6.3
-2 8 -5 37.9 6.1
2 8 5 41.1 6
2 8 5 40.3 6.2
2 8 5 37.4 6
-2 8 -5 34.2 6.2
-2 -8 5 40.9 6.1
-2 -8 5 41.7 6.1
-3 8 5 0.1 0.7
-3 -8 -5 0.2 0.7
3 8 -5 0 0.6
-3 8 5 1.7 1.2
3 8 -5 -0.1 0.4
-3 -8 -5 0.4 0.6
3 -8 5 -0.2 0.8
-3 -8 -5 0.2 0.8
3 8 -5 0 0.5
3 -8 5 0.5 0.9
-3 8 5 1 1.1
-3 -8 -5 0 0.8
3 8 -5 -0.8 0.4
3 -8 5 -0.1 0.8
-3 8 5 -0.1 0.8
3 -8 5 -0.3 0.7
-3 -8 5 0.2 0.6
3 -8 -5 -0.5 0.9
3 -8 -5 -0.6 0.7
-3 -8 5 -0.6 0.7
3 8 5 0.2 0.5
-3 8 -5 1.1 0.9
-3 -8 5 -0.4 0.5
3 8 5 -0.2 0.5
3 8 5 1.2 0.8
3 8 5 0.6 0.9
-3 8 -5 -0.1 0.7
-3 8 -5 -1.2 0.8
-3 -8 5 1.8 0.7
-3 8 -5 1.1 1
3 -8 -5 -0.2 0.9
4 8 -5 42.4 6.4
4 -8 5 49.3 7
-4 -8 -5 45.1 6.5
4 -8 5 46.2 6.7
-4 8 5 41.5 6.8
-4 8 5 42.7 6.8
-4 -8 -5 39.2 6.5
-4 8 5 34.5 6.8
-4 -8 -5 40 6.5
-4 8 5 41.6 6.8
-4 -8 -5 42.7 6.5
4 -8 5 36.9 6.8
4 -8 5 63.19 7.1
4 8 -5 42.9 6.4
-4 -8 5 45.1 6.4
-4 -8 5 40.1 6.5
-4 -8 5 47 6.5
-4 -8 5 40 6.4
-4 8 -5 63.49 7.1
4 8 5 27.6 6.6
4 -8 -5 40.6 6.8
-4 8 -5 39.7 6.8
-4 8 -5 38.2 6.7
4 -8 -5 36.9 6.8
4 -8 -5 46.5 6.8
4 8 5 37.8 6.5
4 -8 -5 40.8 6.8
4 8 5 35.1 6.5
-4 8 -5 48.5 6.9
-5 8 5 -1.3 1.1
-5 8 5 0.1 1
5 -8 5 -1.2 0.9
-5 -8 -5 0.1 0.6
-5 -8 -5 -0.6 0.7
-5 -8 -5 0 0.7
-5 -8 -5 0.5 0.7
-5 8 5 1.2 0.9
5 -8 5 0.8 0.9
-5 8 -5 0 0.9
5 8 5 1.1 1
5 8 5 -0.1 0.8
5 -8 -5 -0.7 0.9
5 -8 -5 1.2 1
5 -8 -5 -0.5 0.9
5 -8 -5 -0.4 1
5 8 5 0.7 0.7
-5 8 -5 -0.8 1
-6 -8 -5 7.1 1.5
-6 8 5 8 2
-6 8 5 4.3 1.8
6 -8 5 6.1 1.7
6 -8 5 4.9 1.6
-6 -8 -5 8.7 1.6
-6 -8 -5 10.7 1.6
-6 -8 -5 7.9 1.5
-6 8 -5 8 1.8
6 8 5 7 1.7
-6 8 -5 8.5 2
6 -8 -5 9.5 1.9
6 -8 -5 6 1.7
6 -8 -5 10.6 1.9
-7 8 5 0 1.1
7 -8 5 2.5 1.1
7 -8 5 0 1
-7 8 5 1.5 1.3
7 -8 -5 2.6 1.3
-7 8 -5 0.4 1.1
7 8 5 0.9 0.7
-7 8 -5 0.9 1.2
7 8 5 1.6 1
7 -8 -5 -0.8 1
-8 8 5 0.1 1.2
8 -8 5 0.3 1
8 -8 5 0.3 1.1
-8 8 5 0.2 1.2
8 -8 -5 0.3 1.3
8 -8 -5 1.4 1.1
-8 8 -5 -0.2 1.1
8 8 5 -0.6 0.6
8 8 5 -0.2 1
-8 8 -5 -0.4 1.1
0 -9 5 -0.7 0.6
0 -9 -5 0.7 0.8
0 9 -5 0.7 0.6
0 9 -5 -0.3 0.9
0 9 -5 -0.9 0.7
0 9 -5 0.3 0.7
0 -9 -5 1.9 1.1
0 -9 5 -1.1 0.8
0 -9 5 0.1 0.7
0 -9 -5 0.9 0.8
0 9 5 -0.6 0.6
0 -9 5 0.1 0.8
0 9 5 0 1.3
0 -9 -5 2.6 1.3
-1 9 5 1.8 0.8
1 -9 5 2.5 1.2
1 9 -5 4.2 1
-1 -9 -5 4.1 1.1
-1 -9 -5 2.8 1
1 9 -5 1.3 1
1 9 -5 1.2 0.7
-1 -9 -5 1.7 1.2
-1 -9 -5 3.5 1.2
1 9 -5 3.5 1
1 -9 5 3.8 1.2
-1 -9 5 1.5 0.9
-1 9 -5 2.5 0.9
-1 9 -5 1.7 1.4
-1 -9 5 4.5 1
1 -9 -5 2.3 1.2
-1 -9 5 1.7 0.9
1 9 5 2.9 0.8
-1 -9 5 2.6 0.9
1 -9 -5 4.3 1.3
1 9 5 2.5 0.8
1 9 5 1.2 1.1
1 9 5 1.7 1.1
2 -9 5 1 0.9
2 9 -5 -0.4 0.7
-2 -9 -5 0.9 0.9
-2 9 5 0.9 1
-2 9 5 1 0.8
2 9 -5 0.3 0.6
-2 -9 -5 0.1 0.7
-2 -9 -5 1.1 0.9
-2 9 5 -1.3 1.1
2 -9 5 -0.5 1
2 -9 5 1.9 0.9
-2 9 5 0.5 0.9
-2 -9 -5 0.3 0.8
2 9 -5 0.4 0.5
2 -9 5 0.4 0.8
2 -9 -5 -0.3 1
2 -9 -5 1.7 1
2 9 5 0.3 0.9
-2 -9 5 -0.6 0.6
-2 -9 5 -0.3 0.7
2 9 5 1.1 0.6
-2 -9 5 1.2 0.7
2 -9 -5 -0.8 0.7
2 9 5 0 0.5
-2 9 -5 -0.4 0.6
-2 -9 5 -0.8 0.8
2 -9 -5 0.6 0.9
-2 9 -5 0.2 0.8
-2 9 -5 1.1 0.9
-2 9 -5 0.3 1
2 9 5 -0.4 0.9
3 -9 5 11.5 2.5
3 9 -5 13.2 2.4
3 -9 5 13 2.6
-3 -9 -5 12.5 2.4
-3 -9 -5 12.4 2.4
3 9 -5 15.6 2.2
-3 -9 -5 18.3 2.5
-3 9 5 11.9 2.5
3 -9 5 11.8 2.5
3 -9 5 8.5 2.5
-3 9 5 17.7 2.7
-3 9 5 16.3 2.8
-3 9 5 12.6 2.6
3 9 -5 12.9 2.2
-3 -9 -5 15.7 2.6
3 -9 -5 10.9 2.5
3 -9 -5 10.2 2.6
3 9 5 19.2 2.7
-3 -9 5 18.4 2.4
-3 9 -5 10.6 2.5
-3 9 -5 12.6 2.6
3 -9 -5 12.5 2.6
-3 9 -5 14.2 2.6
3 9 5 13.9 2.4
-3 -9 5 14 2.3
-3 9 -5 11.3 2.6
3 -9 -5 14.4 2.6
3 9 5 11 2.4
-4 -9 -5 2.7 1
4 -9 5 3.8 1.2
-4 9 5 3.5 1.2
-4 9 5 5 1.5
4 -9 5 3.4 1.3
4 9 -5 4.5 1.3
-4 -9 -5 4.6 1.2
-4 9 5 0.6 1.2
-4 -9 -5 3.4 1.1
-4 -9 -5 3.5 1
4 9 5 4.9 1.4
4 -9 -5 3.2 1.3
4 -9 -5 1.4 1
4 9 5 3.3 1.1
-4 -9 5 5.2 1.2
-4 -9 5 3.9 0.9
-4 -9 5 5.3 1
4 9 5 4.4 1
-4 9 -5 1.6 1.3
-4 -9 5 3.1 0.9
4 -9 -5 2.8 1.3
4 -9 -5 3.8 1.4
-4 9 -5 3.3 1.3
-5 -9 -5 15.5 2.7
-5 -9 -5 13.3 2.7
-5 9 5 10.5 2.9
-5 -9 -5 17.8 2.7
-5 9 5 13 3
5 -9 5 19.8 3.1
5 -9 5 15.7 3
-5 -9 -5 17.6 2.7
5 9 5 17.6 2.7
5 9 5 12.8 2.5
-5 9 -5 14 3
5 9 5 21.5 3
5 9 5 13.6 2.7
5 -9 -5 14 3
-5 9 -5 20.5 3.2
-5 -9 5 17.4 2.6
-5 -9 5 16.6 2.6
5 -9 -5 13.4 2.8
-6 -9 -5 10 1.8
-6 9 5 6.2 2.1
-6 -9 -5 10.7 2.2
-6 -9 -5 10.6 1.8
6 -9 5 9.1 2
6 -9 5 9 2
-6 9 5 9.8 2.2
6 9 5 6.5 1.9
-6 9 -5 14.3 2.4
6 -9 -5 7.7 1.9
6 -9 -5 8.7 2.1
-6 9 -5 6.8 2
6 9 5 9.8 1.7
7 -9 5 1.1 1.3
7 -9 5 1.5 1.1
-7 9 5 3 1.5
-7 9 5 4.2 1.7
7 9 5 3.4 0.9
7 -9 -5 4 1.3
7 9 5 3.4 1.3
7 -9 -5 1.5 1.3
-7 9 -5 3.1 1.5
-7 9 -5 4.6 1.5
-8 9 5 -0.1 1.4
-8 9 5 0.9 1.3
8 -9 5 -0.4 1
8 -9 -5 0.9 1.2
8 9 5 -0.7 1.1
8 -9 -5 2 1.5
8 9 5 0.4 0.7
0 -10 5 36.8 6.8
0 -10 -5 46.2 7
0 10 -5 40.3 7
0 10 -5 39.4 6.7
0 -10 -5 56.19 6.8
0 -10 -5 49.99 7
0 10 5 37.2 6.6
0 10 5 50.89 6.9
0 -10 5 36.4 6.7
0 10 -5 41.6 6.6
0 -10 5 42.8 6.8
0 10 5 38.9 6.9
0 -10 -5 40.8 6.9
0 -10 5 42.4 6.6
1 -10 5 22.7 3.7
-1 -10 -5 18.8 3.7
-1 10 5 21.6 3.7
-1 10 5 17.5 3.8
1 10 -5 12.2 3.4
1 -10 5 24.1 3.8
1 10 -5 29.4 3.8
-1 -10 -5 23.7 3.8
1 10 -5 19.9 3.7
1 10 -5 21.9 3.6
1 -10 5 23.9 3.8
-1 10 5 23.9 3.7
-1 10 5 23.5 3.9
1 -10 5 15.3 3.6
1 10 5 23.3 3.6
-1 10 -5 24 3.7
1 10 5 24.6 3.8
-1 -10 5 27.5 3.7
1 -10 -5 22.8 3.7
-1 10 -5 19.9 3.7
1 -10 -5 25.4 3.9
-1 -10 5 34.2 4
1 -10 -5 20.5 3.8
1 -10 -5 25.2 3.8
-1 10 -5 22.8 3.8
-1 10 -5 16.1 3.5
-1 -10 5 21.8 3.7
-1 -10 5 19.3 3.6
2 -10 5 0 0.9
-2 10 5 2.4 1.1
-2 -10 -5 1.2 0.9
2 -10 5 -0.5 0.9
-2 10 5 1.1 1.3
-2 10 5 0 0.8
2 10 -5 1.1 0.6
2 10 -5 0.9 0.9
-2 -10 -5 1.9 0.9
2 10 -5 0.8 0.7
-2 -10 -5 1.4 1
-2 -10 -5 3.2 1.1
2 -10 5 -1.2 1.1
2 -10 5 0.5 1.1
-2 10 5 0.9 0.9
-2 -10 5 1.8 0.8
-2 10 -5 0.5 0.7
2 -10 -5 2.1 0.9
2 10 5 1.5 0.7
-2 -10 5 3.1 0.9
2 -10 -5 1 1.3
2 -10 -5 -0.4 1.1
-2 -10 5 1.2 0.9
-2 10 -5 0.5 0.9
-2 10 -5 0.2 1
2 10 5 2.6 1
-2 -10 5 1.4 0.9
2 -10 -5 1.3 1.1
2 10 5 4.1 1.3
-2 10 -5 2.5 1
2 10 5 0.4 0.5
3 10 -5 12.3 1.9
3 -10 5 8.5 2.2
-3 -10 -5 11.7 2.2
-3 -10 -5 12.6 2.2
3 10 -5 13.1 2.1
-3 10 5 8.7 2.4
3 10 -5 10.8 2.1
-3 -10 -5 8.9 2
3 10 -5 12.9 2
-3 10 5 17.4 2.6
3 -10 5 7.9 2.1
-3 -10 -5 12.8 2.2
-3 10 -5 11.9 2.4
3 10 5 10.8 2
3 10 5 9.6 2.1
-3 -10 5 11 2
-3 10 -5 10.9 2.3
-3 -10 5 13.1 2.1
-3 -10 5 12.9 2.2
3 -10 -5 9.6 2.2
3 -10 -5 10.2 2.3
3 -10 -5 13.2 2.4
3 10 5 8.8 2
3 10 5 14.3 2.4
-3 -10 5 9.8 2.2
4 -10 5 2 1
-4 -10 -5 0.4 1
-4 10 5 1.6 1.3
4 10 -5 1.4 0.7
-4 -10 -5 2.4 0.9
4 10 -5 2.2 0.9
4 -10 5 0.9 1.1
-4 -10 -5 3.5 1.1
-4 10 5 2.5 1.2
-4 -10 -5 1.6 0.9
-4 -10 5 1.7 0.7
4 10 5 1.6 1.1
-4 10 -5 2.2 1.3
4 10 5 0.9 0.7
-4 -10 5 1.2 0.9
-4 -10 5 1.3 0.8
4 -10 -5 0.8 0.9
4 10 5 2 0.8
-4 10 -5 1.4 1.2
4 10 5 2.5 1
-5 -10 -5 1 0.7
-5 -10 -5 -0.1 0.8
-5 -10 -5 -0.6 0.8
-5 10 5 0.9 1.2
5 -10 5 1.1 1
-5 -10 -5 1.3 0.9
5 -10 5 1.1 1.1
-5 10 5 1.2 1.3
-5 10 -5 0.8 1.1
5 -10 -5 1.7 1.2
5 -10 -5 -0.2 0.9
-5 -10 5 -0.2 0.8
5 10 5 0.6 1.1
5 10 5 0.5 0.8
-5 10 -5 -0.3 1.1
5 10 5 1.1 0.8
6 -10 5 0.5 1.1
-6 10 5 -1.4 1.1
-6 10 5 -1.7 1.1
6 -10 5 -1 0.9
6 -10 -5 0.4 1
6 10 5 -0.1 1.2
6 -10 -5 0 1.1
6 10 5 -0.1 0.7
-6 10 -5 -0.1 1.1
-7 10 5 0.7 1.3
7 -10 5 2 1.2
-7 10 5 0.2 1.4
7 -10 -5 1.4 1.1
7 10 5 1.5 1.2
7 -10 -5 -0.3 1.1
0 11 -5 -0.2 0.6
0 -11 5 -0.6 0.9
0 -11 -5 -0.6 0.7
0 -11 -5 1 0.9
0 11 5 -0.6 0.5
0 11 -5 0.4 0.7
0 -11 5 1.5 0.9
0 -11 5 -1 1
0 11 5 -0.6 0.9
0 11 -5 0.2 0.8
0 -11 -5 0.3 1.2
0 -11 5 -0.4 0.9
0 11 5 -0.7 1.1
0 11 -5 -0.4 1
0 11 5 0.2 0.8
0 -11 -5 -0.2 1.1
-1 11 5 4.6 1.5
1 -11 5 8.1 1.6
1 11 -5 4.8 1.4
1 -11 5 3 1.4
-1 11 5 6.6 1.8
-1 -11 -5 6.1 1.7
1 11 -5 4.2 1.5
1 11 -5 7.4 1.4
1 11 -5 7.1 1.4
1 -11 5 7.5 1.8
-1 -11 -5 6.7 1.7
-1 11 5 4.6 1.5
-1 -11 -5 6.2 1.5
-1 -11 -5 5.6 1.4
1 -11 5 4.3 1.6
1 11 5 7.7 1.5
1 11 5 8.3 2
1 -11 -5 5.2 1.6
-1 -11 5 7.4 1.5
1 -11 -5 9.5 1.7
1 11 5 6.2 1.7
-1 11 -5 12 1.8
-1 11 -5 7.3 1.6
-1 -11 5 5.8 1.5
-1 -11 5 5.4 1.5
-1 11 -5 6.9 1.7
1 -11 -5 7.9 1.8
-1 -11 5 3.6 1.3
-1 11 -5 4.2 1.4
1 -11 -5 6 1.8
1 11 5 6.5 1.4
-2 11 5 224.28 32.3
2 11 -5 217.48 32.3
2 -11 5 171.08 32.6
2 -11 5 217.28 32.3
2 11 -5 212.68 32.2
2 11 -5 204.78 32.2
2 -11 5 192.68 32.3
-2 -11 -5 240.78 32.3
-2 11 5 196.38 32.4
2 11 -5 205.28 32.2
-2 -11 -5 206.18 32.3
-2 -11 5 188.38 32.2
2 -11 -5 233.18 32.3
-2 11 -5 207.68 32.3
-2 -11 5 196.38 32.3
-2 11 -5 220.08 32.4
2 11 5 230.78 32.2
-2 11 -5 198.58 32.3
-2 -11 5 193.18 32.2
-2 11 -5 241.48 32.3
-2 -11 5 212.78 32.2
2 -11 -5 196.08 32.3
2 11 5 237.18 32.2
-3 -11 -5 0.6 1.1
-3 11 5 1 1.1
-3 -11 -5 1.6 0.9
-3 -11 -5 2.2 0.9
3 -11 5 1.9 1.1
3 11 -5 1.9 0.7
-3 -11 -5 2.2 1.1
3 11 -5 3.5 1.1
-3 11 5 1.8 1.3
3 11 -5 2.1 0.8
3 -11 5 0.3 1
3 -11 -5 1.7 1.1
-3 11 -5 2.3 1.1
-3 11 -5 -0.5 1
3 11 5 3.2 1
3 11 5 1 0.7
3 11 5 1.1 0.7
-3 -11 5 1.8 1.1
-3 -11 5 2 0.8
3 11 5 1.1 1.1
-3 -11 5 2.6 1.2
3 -11 -5 2.4 1.1
-3 -11 5 1.8 0.9
4 -11 5 -0.5 0.9
-4 -11 -5 1.4 1
4 11 -5 0.9 0.8
-4 11 5 1.5 1.3
-4 -11 -5 0.1 0.8
4 11 -5 0.6 0.7
-4 -11 -5 -0.2 0.9
4 -11 5 -0.6 1
-4 -11 -5 1.2 0.8
4 -11 -5 0.9 1.2
4 11 5 0.8 0.6
-4 -11 5 1.3 1
-4 -11 5 1.7 0.8
-4 11 -5 1.3 1.2
4 11 5 0.3 0.7
-4 -11 5 0.7 0.7
4 -11 -5 2 1.2
4 11 5 0.3 0.9
-4 11 -5 0.2 1
-4 -11 5 0.1 1
4 11 5 0.8 1.2
5 11 -5 11.7 1.9
-5 11 5 8.5 2.3
-5 -11 -5 16.4 2.3
-5 -11 -5 9.4 2.1
5 -11 5 11.3 2.3
-5 -11 -5 12.3 2.1
5 11 -5 11.9 2
-5 -11 -5 15.3 2.2
-5 11 5 10.1 2.4
5 11 5 12.2 2.1
-5 11 -5 7.6 2.2
5 -11 -5 7.1 2.2
5 -11 -5 7 2.1
5 11 5 10.6 2
5 11 5 11.9 2.3
-6 11 5 -0.4 1.2
-6 11 5 1.9 1.4
6 -11 5 1.6 1.1
6 -11 5 0.4 1.3
6 11 5 2.1 1.2
6 -11 -5 1 1.2
-6 11 -5 -0.7 1.2
6 11 5 0.6 0.6
-6 11 -5 2.3 1.3
6 -11 -5 2.1 1.1
6 11 5 -0.3 0.7
7 -11 5 -1 1.1
7 11 5 1.2 1.3
7 11 5 0.8 0.8
-7 11 -5 -0.7 1.2
7 -11 -5 -1.1 1.2
-7 11 -5 0.5 1.3
0 -12 -5 100.79 17.3
0 12 -5 120.49 17.3
0 -12 -5 113.59 17.4
0 -12 5 111.09 17.3
0 12 5 110.09 17.3
0 12 5 131.19 17.4
0 12 5 101.69 17.3
0 -12 -5 112.99 17.4
0 -12 5 135.09 17.4
0 -12 -5 107.99 17.3
0 12 -5 116.39 17.4
0 12 -5 119.39 17.3
0 -12 5 133.49 17.4
0 12 5 94.49 17.3
0 12 -5 91.29 17.2
-1 -12 -5 64.09 11.5
1 -12 5 72.19 11.6
1 -12 5 63.39 11.5
-1 12 5 85.59 11.7
1 12 -5 80.29 11.6
1 12 -5 78.99 11.5
-1 -12 -5 66.19 11.6
-1 -12 -5 74.99 11.6
-1 -12 -5 68.59 11.5
1 -12 5 69.09 11.5
1 12 -5 69.99 11.5
1 12 5 87.59 11.6
-1 12 -5 75.69 11.6
1 12 5 66.19 11.5
-1 -12 5 75.49 11.6
-1 12 -5 74.49 11.5
-1 12 -5 105.89 11.7
-1 -12 5 79.69 11.6
-1 12 -5 71.99 11.5
1 12 5 76.79 11.6
1 -12 -5 63.79 11.5
1 12 5 76.49 11.6
1 -12 -5 80.09 11.6
-2 12 5 97.29 15.6
2 12 -5 115.09 15.4
2 12 -5 107.29 15.4
-2 -12 -5 88.59 15.5
-2 12 5 80.69 15.5
2 -12 5 104.79 15.5
2 12 -5 112.79 15.5
-2 -12 -5 120.79 15.6
-2 -12 -5 91.89 15.5
-2 -12 -5 116.69 15.6
2 -12 5 103.29 15.5
2 12 -5 106.99 15.5
-2 12 -5 105.89 15.6
-2 -12 5 112.59 15.5
2 12 5 99.79 15.5
-2 12 -5 100.69 15.6
2 12 5 103.09 15.4
2 -12 -5 78.79 15.5
-2 -12 5 99.79 15.5
-2 -12 5 89.29 15.4
-2 -12 5 89.59 15.4
2 12 5 104.29 15.6
2 -12 -5 83.79 15.5
2 12 5 101.79 15.5
-3 12 5 3.2 1.5
-3 -12 -5 4 1.3
3 12 -5 5.4 1.3
3 12 -5 4.5 1.1
-3 -12 -5 6.9 1.7
-3 -12 -5 3.6 1.3
-3 12 5 2.6 1.6
3 12 -5 3.8 1.4
3 12 -5 6 1.2
3 -12 5 7.9 1.6
-3 -12 -5 3.8 1.4
3 -12 5 7.5 1.7
-3 12 -5 4 1.6
-3 -12 5 6.5 1.6
3 12 5 6.3 1.3
-3 -12 5 5.6 1.3
3 12 5 6 1.6
3 -12 -5 3.7 1.4
3 -12 -5 6.9 1.6
-3 12 -5 2.5 1.5
-3 -12 5 6.6 1.6
-3 -12 5 7.4 1.4
3 12 5 5.8 1.2
4 12 -5 17 2.6
4 -12 5 12.2 3
-4 -12 -5 16.6 2.9
4 12 -5 18.8 2.8
4 12 -5 17.9 2.6
4 -12 5 12.2 3
-4 12 5 16.5 3.2
-4 12 5 15.7 3.3
4 12 -5 21.7 3
-4 -12 -5 14.5 3
-4 -12 5 18.6 2.8
-4 12 -5 14.3 3
4 12 5 14.8 2.9
4 -12 -5 15.4 3.1
-4 12 -5 15.4 3.2
4 -12 -5 12.8 2.9
4 12 5 20.1 2.8
4 12 5 6.8 2.8
-4 -12 5 17.3 2.9
-4 -12 5 12.5 2.7
-4 -12 5 25.9 3.1
5 12 -5 8.6 1.5
-5 -12 -5 5.6 1.7
-5 12 5 7.8 2
-5 -12 -5 8.3 1.6
-5 12 5 8.3 2.1
-5 -12 -5 5.6 1.6
5 -12 5 8.1 2.1
5 12 5 7.6 1.8
5 -12 -5 3.9 1.8
5 12 5 4.4 1.4
5 -12 -5 3.2 1.6
5 12 5 9.3 1.7
-5 12 -5 8.6 2
-5 12 -5 5.6 1.9
6 -12 5 -1 1.2
6 12 5 -0.4 1.1
6 -12 -5 0.5 1.2
6 12 5 1.4 0.7
-6 12 -5 1.4 1.5
6 12 5 1 0.9
-6 12 -5 3.7 1.5
6 12 5 1.5 0.9
0 13 -5 -1.3 0.8
0 13 -5 0.5 1
0 13 -5 -0.7 0.6
0 13 5 0 1
0 -13 -5 -0.6 0.8
0 -13 5 2.2 1
0 13 -5 -0.3 0.7
0 13 5 -0.6 1.3
0 -13 -5 0.3 1.1
0 -13 5 -1.2 0.9
0 -13 5 1.3 1.2
1 13 -5 21.3 3.3
1 13 -5 20.1 3.3
-1 -13 -5 17.5 3.2
-1 -13 -5 17.9 3.6
1 -13 5 22.4 3.5
-1 -13 -5 22.9 3.5
1 13 -5 17.6 3.2
1 13 -5 16.1 3.4
1 -13 5 16.6 3.3
-1 13 5 14.1 3.3
-1 13 -5 20.3 3.4
1 -13 -5 20.5 3.4
1 13 5 19.2 3.4
-1 -13 5 19.7 3.5
-1 -13 5 17.5 3.3
1 13 5 14.3 3.2
-1 -13 5 20.4 3.3
-1 -13 5 28.5 3.7
-1 13 -5 17.1 3.4
1 13 5 13.4 3.1
1 -13 -5 18.6 3.4
2 13 -5 155.08 21.7
-2 -13 -5 146.99 21.7
-2 -13 -5 111.99 21.7
2 13 -5 138.99 21.6
2 13 -5 146.29 21.7
2 -13 5 149.19 21.8
-2 13 5 121.79 21.8
2 13 -5 153.38 21.7
-2 -13 -5 126.99 21.7
-2 13 5 171.38 21.9
2 -13 5 145.99 21.8
-2 -13 -5 146.19 21.8
2 13 5 143.59 21.8
-2 -13 5 140.79 21.7
-2 -13 5 143.39 21.7
-2 -13 5 142.29 21.7
2 -13 -5 146.79 21.8
-2 -13 5 136.19 21.7
2 13 5 136.79 21.7
-2 13 -5 120.59 21.7
2 13 5 137.49 21.7
2 -13 -5 136.19 21.8
2 13 5 153.78 21.7
-3 -13 -5 1 1.2
-3 -13 -5 0.8 0.9
-3 -13 -5 0.5 1.1
3 13 -5 0.3 0.6
3 13 -5 -0.4 0.6
3 13 -5 -1.2 1
-3 13 5 0.3 1.1
3 13 -5 -0.3 0.7
3 -13 5 -0.7 1
-3 13 5 -1.5 1.2
3 -13 5 1.4 1.1
-3 -13 -5 -1.3 0.8
-3 -13 5 0 0.8
3 13 5 0.3 0.7
-3 13 -5 1.5 1.2
-3 -13 5 -1.5 0.9
-3 -13 5 0.5 1.3
3 -13 -5 1.1 1.2
3 13 5 -2.2 1.2
3 13 5 0.1 0.7
3 -13 -5 0.6 0.9
-3 -13 5 0.2 0.8
3 13 5 -0.6 0.9
-3 13 -5 1.9 1.1
-4 -13 -5 4.8 1.5
4 13 -5 3.8 1
-4 -13 -5 4.2 1.4
4 -13 5 2.4 1.4
4 13 -5 2.9 1.3
-4 -13 -5 6.4 1.4
4 -13 5 3.7 1.5
-4 13 5 2.3 1.7
4 13 -5 4.1 1.2
-4 13 5 3.1 1.6
4 13 -5 5.1 1
-4 -13 -5 6.2 1.4
4 13 5 2.3 1.6
4 13 5 5.3 1.2
4 -13 -5 3.5 1.5
-4 -13 5 4.3 1.3
-4 13 -5 4.5 1.6
-4 -13 5 6 1.4
-4 -13 5 3.6 1.5
4 -13 -5 4 1.5
4 13 5 4.1 1.4
4 13 5 5 1.2
-4 -13 5 6 1.3
-4 13 -5 7.7 1.8
-5 -13 -5 7.2 1.7
5 13 -5 5.6 1.3
5 13 -5 5.5 1.4
5 13 5 3.7 1.2
-5 13 -5 6.7 2.4
5 13 5 5.8 1.4
5 13 5 5.1 1.3
-6 13 5 1.7 1.8
6 -13 5 0.3 1.2
6 13 -5 3.5 0.9
-6 13 5 7.1 1.8
6 -13 5 3.9 1.5
6 13 -5 3.3 1
6 -13 -5 2.5 1.5
-6 13 -5 3.5 1.6
6 13 5 1.3 1.1
6 -13 -5 4.6 1.4
-6 13 -5 4.2 1.6
6 13 5 4.1 1.1
0 14 -5 60.79 11.1
0 14 -5 73.39 10.9
0 14 5 73.19 11.1
0 -14 -5 71.29 10.9
0 -14 -5 73.79 11.3
0 14 5 66.39 11
0 -14 5 66.79 10.9
0 -14 5 71.19 10.9
-1 14 5 161.78 23.5
-1 14 5 160.88 23.6
-1 -14 -5 136.39 23.4
-1 -14 -5 141.49 23.5
1 14 -5 151.68 23.5
1 14 -5 133.09 23.4
1 14 -5 137.69 23.4
1 14 -5 146.39 23.4
1 -14 5 146.09 23.5
1 -14 5 164.68 23.5
-1 14 -5 178.28 23.5
-1 -14 5 145.29 23.5
1 -14 -5 157.18 23.5
1 14 5 151.78 23.5
1 14 5 134.29 23.5
1 -14 -5 163.78 23.5
-1 -14 5 180.58 23.5
-1 -14 5 169.88 23.5
-2 -14 -5 0 1
-2 -14 -5 -0.8 0.9
2 14 -5 -0.2 0.8
-2 14 5 -1.7 1.2
2 14 -5 -0.3 0.7
2 -14 5 -0.7 0.9
-2 14 5 -0.6 1.1
2 14 -5 -0.7 1
2 -14 5 -0.2 1.1
2 14 5 1 1.1
2 14 5 1.3 0.8
-2 -14 5 -0.3 0.9
2 -14 -5 -0.6 1
2 -14 -5 1.2 1.2
-2 -14 5 1.5 1.4
-2 14 -5 2.4 1.4
-2 -14 5 0.2 0.9
-2 14 -5 -0.1 1
2 14 5 1 1.4
-2 -14 5 -0.4 1.1
-3 14 5 13.5 2.9
-3 -14 -5 11.7 2.5
3 14 -5 19.7 2.7
3 14 -5 12.8 2.4
-3 14 5 9.4 2.7
3 -14 5 14.9 2.7
3 14 -5 15.5 2.4
3 -14 5 12.4 2.8
-3 -14 -5 13.5 2.6
3 14 -5 11 2.7
3 14 5 12.1 2.4
3 14 5 17.6 3
-3 -14 5 13.9 2.7
-3 -14 5 13.3 2.6
-3 -14 5 22.7 2.8
3 -14 -5 13.9 2.8
3 14 5 12.3 2.5
3 -14 -5 12.6 2.7
3 14 5 12.4 2.9
-3 14 -5 7.1 2.7
-3 -14 5 12.4 2.7
-3 14 -5 12.8 2.7
4 14 -5 3.8 1
4 14 -5 9.2 1.7
-4 -14 -5 2.9 1.5
-4 -14 -5 4.6 1.4
-4 -14 -5 6.5 1.6
-4 -14 -5 3.6 1.4
4 14 5 4.9 1.7
4 14 5 4.4 1.2
4 14 5 3.5 1.2
-4 -14 5 4.9 1.5
-5 14 5 -0.4 1.4
-5 14 5 2.2 1.4
5 -14 5 2 1.3
5 -14 5 0.5 1.1
5 14 -5 2.9 1.1
5 14 -5 1.1 0.9
5 -14 -5 1.4 1.3
-5 14 -5 -0.6 1.3
5 14 5 0.6 1.5
5 -14 -5 2.7 1.3
5 14 5 1.6 0.9
5 14 5 1.6 0.8
-5 14 -5 -1 1.4
5 14 5 1.7 1.2
0 -15 5 -1.6 0.9
0 15 5 -1 1.1
0 -15 5 -0.5 1
0 15 -5 0.2 1.2
0 -15 -5 0.1 0.9
0 15 5 0.2 1.5
0 -15 -5 -0.4 1.1
0 15 -5 0.9 1.1
1 15 -5 2.2 1
1 -15 5 1.3 1.2
-1 -15 -5 2.5 1.2
1 -15 5 2.1 1.1
1 15 -5 5.8 1.6
1 15 -5 3.4 1.2
-1 -15 -5 2.2 1.2
-1 15 5 2.5 1.3
-1 15 5 2.3 1.6
-1 15 -5 0.6 1.3
1 -15 -5 3.4 1.3
1 -15 -5 4.6 1.4
1 15 5 1.6 1.5
-1 -15 5 1.2 1.1
-1 -15 5 1.8 1.2
-1 15 -5 1.4 1.2
1 15 5 3 1.3
2 15 -5 79.09 13.2
-2 -15 -5 72.49 13.2
2 15 -5 87.59 13.1
-2 -15 -5 94.29 13.2
2 15 -5 70.99 13.1
2 15 -5 80.69 13.1
2 -15 5 85.69 13.2
-2 15 5 86.19 13.4
2 -15 -5 85.09 13.3
2 15 5 98.69 13.3
-2 15 -5 98.19 13.4
2 -15 -5 87.99 13.3
2 15 5 81.79 13.3
-2 -15 5 96.19 13.2
-2 -15 5 86.29 13.2
-2 15 -5 73.89 13.2
3 15 -5 8.1 2
3 15 -5 12.7 2.2
-3 -15 -5 12.1 2.3
-3 -15 -5 11.3 2.2
3 15 -5 12.8 2.5
3 15 5 9.2 2.4
-3 -15 5 10.3 2.3
-3 -15 5 13.3 2.3
-3 -15 5 10.8 2.2
3 15 5 10.6 2.3
-3 -15 5 9.1 2.5
4 15 -5 14.3 2.3
4 15 -5 16.2 3.4
-4 -15 -5 10.9 2.4
4 -15 5 8.6 2.4
-4 15 5 9.1 2.7
4 -15 5 15.8 2.8
4 15 -5 13.9 2.2
-4 -15 -5 11.2 2.4
4 15 -5 15.1 2.2
-4 15 5 11.7 2.7
4 15 5 14.9 2.8
4 15 5 14 2.3
-4 15 -5 9.9 2.6
4 15 5 11.2 2.4
4 15 5 9.8 2.2
4 -15 -5 7.7 2.4
-4 15 -5 9.4 2.5
4 -15 -5 8.4 2.6
-5 15 5 1.9 1.8
5 15 -5 5.5 1.5
5 15 -5 5.4 1.6
5 -15 5 5.8 1.8
-5 15 5 6.4 2
5 -15 5 7.5 2
5 15 5 7.4 1.5
-5 15 -5 6.7 1.9
5 -15 -5 4.9 1.7
5 15 5 6.9 1.4
-5 15 -5 4.7 2
5 15 5 5.7 2.1
5 -15 -5 7.8 2.1
0 16 5 -0.7 1.2
0 16 -5 0.5 1.1
0 16 5 -0.5 1.4
0 -16 -5 -1.5 0.9
0 -16 5 0.5 1
0 16 -5 -0.9 1.2
0 -16 5 -0.9 1
0 -16 -5 0.2 1.2
-1 -16 -5 11.4 2.6
1 16 -5 13.3 2.6
1 16 -5 14 2.7
-1 16 5 11.8 2.9
1 -16 5 8.4 2.5
-1 16 5 11.3 2.8
-1 -16 -5 15.3 2.8
1 -16 5 15.8 2.8
-1 16 -5 17.8 2.8
-1 -16 5 17.9 2.8
1 16 5 14.5 2.9
1 -16 -5 13 2.7
1 16 5 11 2.9
1 -16 -5 11.1 2.7
-1 -16 5 10.7 2.5
-1 16 -5 14.7 2.9
-2 -16 -5 0.4 1
-2 -16 -5 0.8 1.2
2 16 -5 2.5 1.1
-2 16 5 0.3 1.5
2 16 -5 1.4 1.3
2 16 5 2.8 1.6
2 -16 -5 1.3 1.4
2 16 5 -1.1 1.1
2 -16 -5 3.5 1.4
-2 -16 5 3.4 1.2
-2 -16 5 -0.2 1.1
3 -16 5 12.6 2.8
3 16 -5 14.8 2.7
-3 -16 -5 10.1 2.7
-3 16 5 15.4 3.1
3 16 -5 19.2 3.1
3 -16 5 10.7 2.8
3 16 -5 14.5 2.8
-3 -16 -5 19.5 3.1
-3 16 5 13 3.2
3 16 -5 14.3 2.7
3 16 5 23.2 3.4
3 -16 -5 13 2.9
3 16 5 13.9 2.9
3 -16 -5 12.8 2.9
-3 -16 5 18.3 3.2
-3 16 -5 13.3 3
3 16 5 16.4 2.7
-3 16 -5 18.8 3.3
-3 -16 5 16 2.9
-3 -16 5 14.8 2.8
4 16 -5 9.8 1.9
4 -16 5 8 2.2
-4 -16 -5 12.9 2.2
4 -16 5 12.9 2.5
4 16 -5 11.8 1.9
-4 16 5 6.3 2.2
4 16 -5 16.8 2.3
4 16 -5 10.9 2.2
-4 16 5 5.8 2.2
4 16 5 7.1 2.1
4 16 5 12.4 2
4 -16 -5 5.3 2.1
4 -16 -5 3.6 1.9
-4 16 -5 9.1 2.3
-4 16 -5 8.6 2.3
4 16 5 10.7 2.5
0 17 -5 0.7 1.3
0 -17 5 0 1
0 -17 5 0.4 1.2
0 17 5 1.5 1.3
0 17 -5 -0.6 1
1 17 -5 4.9 1.5
1 17 -5 2.8 1.5
-1 17 5 2.9 1.5
-1 -17 -5 1 1.1
-1 -17 -5 1.5 1.3
-1 17 5 1.7 1.5
-1 -17 5 1.7 1.2
1 -17 -5 -0.3 1.3
1 17 5 3.4 1.5
-1 17 -5 1.5 1.5
1 -17 -5 2.8 1.4
-1 -17 5 3.9 1.4
1 17 5 1.3 1.6
-2 -17 -5 5.1 1.7
-2 17 5 4.4 1.9
2 -17 5 5.1 1.8
2 17 -5 6.2 1.9
2 -17 5 6.5 1.8
-2 -17 -5 8 1.9
-2 17 5 4 1.8
2 17 -5 4.4 1.6
-2 -17 5 4 1.6
-2 17 -5 6.5 1.8
2 -17 -5 5.1 1.8
-2 17 -5 6.3 2.1
-2 -17 5 10 1.8
2 17 5 11.3 2.4
2 -17 -5 7.1 1.9
2 17 5 4.7 1.9
3 -17 5 1.4 1.4
-3 17 5 0.4 1.5
3 17 -5 0.8 0.9
-3 -17 -5 0.8 1.1
3 17 -5 3.9 1.5
-3 -17 -5 4.3 1.5
-3 17 5 3.7 1.8
3 17 -5 0.9 1
3 -17 5 1.9 1.3
3 -17 -5 0 1.1
3 -17 -5 -0.5 1.3
3 17 5 7.3 2
-3 17 -5 1.4 1.4
3 17 5 1.9 1.4
0 18 -5 8.4 1.9
0 18 5 7.3 2.3
0 18 5 7.5 2.1
0 -18 -5 4.9 1.8
0 -18 -5 5.5 1.7
1 -18 5 1.5 1.1
1 18 -5 -0.5 1.3
1 -18 5 -0.6 1.2
-1 -18 -5 1 1.5
1 18 -5 -1.1 1
-1 18 5 -0.9 1.4
-1 18 5 2.9 1.7
1 18 5 -0.7 1.3
-1 -18 5 -1.4 1
-1 18 -5 -1.2 1.3
1 -18 -5 2.2 1.3
-1 18 -5 0.3 1.2
1 -18 -5 4 1.6
-1 -18 5 1.6 1.3
0 0 -6 723.83 111.89
0 0 -6 752.32 111.89
0 0 6 751.32 111.89
0 0 6 776.62 111.89
0 0 6 761.82 111.89
0 0 6 650.63 111.89
-1 0 -6 162.78 22.2
-1 0 -6 141.49 22.2
-1 0 6 161.88 22.2
-1 0 6 144.69 22.2
1 0 6 142.09 22.2
-1 0 6 143.09 22.2
1 0 -6 147.79 22.2
-1 0 -6 132.99 22.2
1 0 6 130.79 22.2
1 0 -6 160.38 22.2
1 0 6 138.09 22.2
1 0 -6 137.09 22.2
-1 0 -6 145.39 22.2
-1 0 6 156.98 22.2
1 0 6 151.98 22.2
1 0 -6 134.19 22.2
2 0 6 309.37 51.29
-2 0 6 359.76 51.29
-2 0 -6 333.27 51.29
-2 0 -6 353.76 51.29
2 0 -6 327.37 51.19
2 0 -6 362.96 51.29
-2 0 6 312.87 51.29
-2 0 6 335.47 51.29
2 0 -6 357.86 51.29
-2 0 6 330.47 51.29
-2 0 -6 364.06 51.29
-2 0 -6 352.96 51.29
2 0 -6 326.57 51.29
2 0 6 325.37 51.29
2 0 6 302.77 51.29
-3 0 6 9.2 1.6
-3 0 6 8.3 1.6
-3 0 -6 11.5 1.7
-3 0 6 8.4 1.6
3 0 -6 9.7 1.6
3 0 -6 6.7 1.6
3 0 6 9.5 1.7
-3 0 6 14.4 1.9
3 0 6 7.9 1.6
3 0 -6 9.1 1.5
3 0 -6 8.4 1.6
-3 0 -6 12.1 1.7
4 0 6 0.2 0.5
4 0 6 0.6 0.7
4 0 6 0.6 0.5
-4 0 6 0 0.5
-4 0 6 -0.1 0.6
4 0 -6 -1 0.5
4 0 6 0.9 0.6
4 0 -6 0.6 0.4
-4 0 -6 0.5 0.7
-4 0 -6 -0.2 0.6
-4 0 -6 0.9 0.7
4 0 -6 1.1 0.4
-4 0 6 0.7 0.6
-4 0 6 0.9 0.8
-4 0 -6 -0.5 0.6
4 0 -6 -0.3 0.6
5 0 6 7.4 1.4
5 0 6 4.8 1.3
-5 0 6 7 1.3
5 0 -6 5 1.2
5 0 -6 8.4 1.4
-5 0 6 10.8 1.6
5 0 -6 6.8 1.2
-5 0 -6 7.8 1.4
-5 0 6 5.1 1.4
-5 0 -6 7.4 1.5
-5 0 -6 8.3 1.5
5 0 -6 8.4 1.4
5 0 6 8 1.4
5 0 6 7.9 1.5
-5 0 -6 6.3 1.4
-6 0 6 0.7 0.8
-6 0 6 0.7 0.8
-6 0 6 -0.3 0.8
6 0 6 1 0.8
6 0 -6 -0.1 0.8
-6 0 -6 -0.8 0.6
6 0 6 1.4 0.7
6 0 6 -0.2 0.8
-6 0 -6 0.5 0.8
6 0 -6 1 0.7
-6 0 -6 2.3 0.7
6 0 6 1.1 0.7
-6 0 -6 0.5 0.8
-7 0 6 35 5.5
7 0 6 30.7 5.5
7 0 6 29.7 5.4
-7 0 6 28.6 5.3
-7 0 6 32.9 5.4
-7 0 -6 34.5 5.5
-7 0 6 32.5 5.4
-7 0 -6 35.9 5.5
-7 0 -6 32.9 5.5
7 0 6 36.2 5.3
7 0 -6 37.1 5.4
7 0 6 40 5.6
8 0 6 4.2 1.2
-8 0 -6 2.1 1.1
8 0 -6 6.4 1.3
8 0 6 6.1 1.4
8 0 6 3.8 1.1
-8 0 -6 5.2 1.3
-8 0 -6 2.5 1.3
8 0 -6 2.2 1.3
-8 0 -6 4.5 1.2
9 0 6 45.6 8.4
9 0 6 60.59 8.6
9 0 -6 62.89 8.5
9 0 -6 53.49 8.6
9 0 6 51.99 8.6
0 -1 -6 0.3 0.5
0 1 6 0.2 0.6
0 1 -6 0.3 0.5
0 -1 6 0 0.6
0 1 -6 0.4 0.6
0 1 -6 0 0.5
0 -1 -6 0.9 0.6
0 -1 -6 -0.4 0.5
0 1 6 -0.7 0.6
0 1 6 0.3 0.6
0 -1 6 0.4 0.5
0 -1 6 0 0.6
0 -1 -6 -0.3 0.6
0 1 6 0.3 0.6
0 -1 6 0.6 0.6
-1 -1 -6 352.76 52.79
-1 1 6 368.36 52.79
-1 -1 -6 359.86 52.79
1 -1 6 324.17 52.79
-1 -1 -6 344.37 52.79
-1 1 6 383.46 52.79
1 -1 6 362.56 52.79
1 1 -6 336.27 52.79
-1 -1 -6 353.36 52.79
-1 1 6 408.06 52.79
1 -1 -6 334.97 52.79
-1 -1 6 376.16 52.79
1 1 6 370.36 52.79
-1 -1 6 350.16 52.79
-1 -1 6 363.16 52.79
1 1 6 312.07 52.79
1 -1 -6 322.87 52.79
1 1 6 321.57 52.79
-1 1 -6 313.27 52.79
1 -1 -6 352.96 52.79
1 1 6 311.17 52.79
1 -1 -6 322.57 52.79
-1 1 -6 340.37 52.79
-1 1 -6 292.87 52.79
-1 -1 6 364.66 52.79
-1 1 -6 386.16 52.79
-2 1 6 33.3 4.5
-2 -1 -6 29 4.4
-2 -1 -6 26.3 4.4
2 -1 6 34.1 4.5
2 1 -6 29.7 4.3
-2 1 6 31.2 4.4
2 1 -6 28.6 4.3
-2 -1 -6 27.6 4.4
2 -1 6 28.9 4.4
2 -1 6 27.3 4.4
2 -1 6 31.2 4.4
-2 -1 -6 29.6 4.4
-2 1 6 28.5 4.4
-2 1 6 21.1 4.3
2 1 -6 26.1 4.3
2 1 -6 25.3 4.3
2 -1 -6 24.1 4.3
2 1 6 30.4 4.4
-2 1 -6 28.9 4.4
-2 -1 6 27 4.3
2 -1 -6 27.9 4.4
-2 -1 6 24 4.3
-2 1 -6 29.7 4.4
2 -1 -6 20.5 4.3
2 1 6 28.5 4.4
-2 1 -6 34.5 4.5
-2 -1 6 28.2 4.3
-2 -1 6 29.8 4.3
2 -1 -6 35.1 4.5
2 1 6 25 4.3
3 -1 6 523.85 79.39
3 -1 6 489.55 79.39
3 1 -6 464.95 79.39
3 1 -6 498.35 79.39
-3 1 6 570.54 79.49
-3 1 6 515.55 79.39
-3 -1 -6 440.76 79.39
3 -1 6 483.55 79.39
3 1 -6 555.14 79.39
3 1 6 548.55 79.39
-3 -1 6 584.84 79.39
-3 -1 6 544.85 79.39
-3 1 -6 592.04 79.49
-3 -1 6 535.45 79.39
3 1 6 506.15 79.39
3 -1 -6 503.45 79.39
3 -1 -6 545.15 79.39
-3 1 -6 522.75 79.49
3 1 6 505.05 79.39
3 -1 -6 538.65 79.39
-3 -1 6 552.44 79.39
-3 1 -6 497.25 79.39
-3 1 -6 499.05 79.39
3 -1 -6 508.05 79.39
4 -1 6 56.99 8.9
4 -1 6 52.49 8.8
-4 -1 -6 62.09 8.8
4 1 -6 62.29 8.8
4 -1 6 54.99 8.8
-4 -1 -6 53.99 8.8
4 -1 6 57.99 8.8
-4 1 6 53.79 8.9
-4 1 6 60.59 8.8
-4 -1 -6 50.59 8.8
-4 1 6 52.19 8.8
-4 -1 -6 58.29 8.8
-4 1 6 51.69 8.8
4 1 -6 59.19 8.8
-4 -1 6 60.59 8.8
-4 1 -6 50.29 8.8
4 1 6 50.29 8.8
4 1 6 57.89 8.8
4 1 6 60.49 8.8
-4 1 -6 59.39 8.9
4 -1 -6 65.79 8.8
4 -1 -6 54.49 8.8
-4 -1 6 56.09 8.8
4 -1 -6 61.69 8.8
-4 -1 6 58.79 8.8
-4 -1 6 58.59 8.8
4 -1 -6 60.79 8.8
-5 1 6 26.6 3.5
5 1 -6 20.1 3.3
5 1 -6 20.3 3.3
-5 -1 -6 25.9 3.5
-5 1 6 18.1 3.4
5 -1 6 21.4 3.5
-5 -1 -6 25.5 3.5
5 -1 6 19.1 3.4
5 -1 6 25.1 3.5
5 -1 6 22.1 3.5
-5 -1 -6 21 3.4
-5 -1 -6 20.1 3.4
-5 1 6 21.5 3.5
-5 -1 6 20.7 3.4
-5 -1 6 26.1 3.4
-5 1 -6 20.2 3.5
-5 -1 6 19.2 3.3
-5 1 -6 16 3.4
-5 -1 6 24.1 3.4
5 -1 -6 15.7 3.3
5 -1 -6 15.9 3.3
-5 1 -6 18.2 3.5
5 1 6 19.9 3.4
5 1 6 19.9 3.4
5 1 6 23.6 3.5
-5 1 -6 23 3.5
5 1 6 23.4 3.5
5 -1 -6 23.6 3.5
-6 -1 -6 90.19 12.7
-6 1 6 86.09 12.7
6 -1 6 90.89 12.7
6 -1 6 81.09 12.7
6 -1 6 88.59 12.7
-6 1 6 85.19 12.7
-6 -1 -6 72.59 12.7
6 -1 6 83.39 12.7
6 1 -6 81.09 12.7
-6 -1 -6 78.49 12.7
-6 -1 -6 92.39 12.7
-6 1 6 75.09 12.7
-6 1 6 82.49 12.7
-6 1 -6 85.49 12.7
6 1 6 79.29 12.7
-6 -1 6 83.89 12.7
-6 -1 6 78.69 12.7
6 1 6 78.49 12.6
-6 1 -6 74.19 12.7
-6 1 -6 84.29 12.7
6 -1 -6 86.19 12.7
6 1 6 78.99 12.7
6 -1 -6 82.39 12.7
-6 1 -6 83.59 12.7
6 1 6 79.29 12.7
-6 -1 6 87.59 12.6
6 -1 -6 86.29 12.7
-6 -1 6 74.59 12.6
7 1 -6 25.5 4
7 1 -6 27.4 4
-7 -1 -6 33.8 4.2
-7 1 6 25.9 4.1
-7 -1 -6 28.1 4.1
7 -1 6 23.4 4.2
-7 1 6 28.9 4.2
-7 1 6 23.6 4
7 -1 6 22.6 4.1
-7 1 6 23 4.1
-7 -1 -6 21.2 4
-7 -1 -6 25.8 4
7 1 6 25.4 4.1
7 -1 -6 26.8 4.1
-7 -1 6 22.1 3.9
7 1 6 19.6 3.9
-7 -1 6 19.8 3.9
7 -1 -6 23.1 3.9
7 -1 -6 21 4
7 1 6 27.5 4.1
-7 -1 6 31.6 4.1
-7 -1 6 24 3.9
7 -1 -6 21.1 3.9
-7 1 -6 27.5 4.1
7 1 6 25.5 4.1
-7 1 -6 22.3 4
-8 -1 -6 -0.2 0.9
8 -1 6 -0.1 0.9
-8 -1 -6 1.7 1.1
8 -1 6 2.2 1
8 1 -6 1 0.7
8 1 6 0.4 0.9
8 -1 -6 0.2 1.1
-8 1 -6 1 0.9
8 1 6 1.5 0.9
8 1 6 2 0.9
-8 1 -6 1.1 0.9
-8 1 -6 2.4 1
8 -1 -6 0.7 1
-8 1 -6 -0.7 1
9 -1 6 1.6 1.2
9 1 -6 4.2 1.5
9 -1 6 5.7 1.5
9 1 -6 2.6 1.1
9 -1 6 3.2 1.3
9 -1 -6 3.1 1.2
9 1 6 5.1 1.4
9 1 6 1.2 1
9 1 6 3.7 1.1
9 1 6 5.9 1.4
9 -1 -6 4.2 1.5
0 2 -6 65.29 8.9
0 -2 6 57.99 8.8
0 -2 6 60.19 8.9
0 -2 6 58.39 8.9
0 -2 -6 52.79 8.9
0 -2 -6 44.4 8.8
0 2 -6 57.79 8.9
0 2 -6 61.89 8.9
0 2 6 62.69 8.9
0 2 6 52.99 8.9
0 -2 6 57.69 8.8
0 2 6 51.89 8.9
0 -2 -6 61.39 8.9
0 2 -6 54.19 8.8
0 -2 -6 58.49 8.9
0 2 6 65.19 8.9
1 -2 6 238.18 33.1
-1 2 6 180.28 33.1
-1 -2 -6 207.48 33.1
1 2 -6 239.88 33.1
-1 -2 -6 226.28 33.1
-1 -2 -6 186.28 33.1
-1 2 6 237.08 33.1
1 2 -6 244.58 33.1
-1 2 6 237.58 33.1
-1 -2 -6 234.68 33.1
1 -2 6 195.98 33.1
1 -2 6 205.48 33.1
1 2 -6 195.78 33.1
-1 2 6 210.78 33.1
1 2 6 246.18 33.1
1 2 6 227.98 33.1
-1 -2 6 197.18 33.1
1 -2 -6 224.68 33.1
-1 -2 6 197.48 33.1
-1 2 -6 221.38 33.1
1 -2 -6 238.48 33.1
1 -2 -6 188.58 33.1
-1 2 -6 200.78 33.1
1 2 6 242.98 33.1
1 -2 -6 234.98 33.1
-1 2 -6 214.08 33.1
-1 -2 6 222.28 33.1
-1 2 -6 203.28 33.1
-1 -2 6 218.48 33.1
-2 -2 -6 167.98 25.9
-2 -2 -6 184.58 25.9
-2 2 6 163.98 25.9
2 -2 6 162.88 25.9
-2 -2 -6 163.98 25.9
2 2 -6 198.68 25.8
-2 2 6 177.68 25.9
-2 2 6 150.18 25.9
2 2 -6 178.28 25.8
2 2 -6 166.88 25.8
2 -2 6 179.88 25.9
-2 2 6 161.88 25.9
-2 -2 6 151.78 25.8
2 -2 -6 187.08 25.9
2 -2 -6 179.48 25.9
-2 -2 6 181.48 25.8
-2 -2 6 164.18 25.8
-2 2 -6 161.68 25.9
2 2 6 159.78 25.9
2 2 6 167.98 25.9
2 -2 -6 156.78 25.9
-2 2 -6 169.28 25.9
2 -2 -6 162.98 25.9
2 2 6 167.78 25.9
-3 2 6 142.39 20.8
-3 2 6 121.39 20.8
-3 -2 -6 127.89 20.8
-3 2 6 141.49 20.8
3 2 -6 126.29 20.7
-3 -2 -6 128.09 20.8
3 -2 6 155.28 20.8
3 -2 6 141.49 20.8
3 -2 6 142.99 20.8
3 -2 -6 144.79 20.8
3 -2 -6 150.98 20.8
3 2 6 121.59 20.7
-3 -2 6 138.59 20.7
3 2 6 124.59 20.7
3 -2 -6 139.29 20.8
-3 2 -6 149.79 20.8
-3 2 -6 113.89 20.8
3 -2 -6 163.48 20.8
-3 2 -6 128.89 20.8
-3 -2 6 130.59 20.7
-3 2 -6 151.48 20.8
3 2 6 129.49 20.7
4 -2 6 6.2 1.4
4 2 -6 6.9 1.1
4 -2 6 8.8 1.5
4 -2 6 6.4 1.3
-4 -2 -6 5.8 1.3
-4 2 6 8 1.4
-4 -2 -6 5.5 1.3
4 -2 6 8.2 1.4
-4 -2 -6 6.1 1.3
-4 -2 -6 6.1 1.3
-4 2 6 6.4 1.5
-4 2 6 5.3 1.5
-4 2 -6 7.2 1.5
-4 2 -6 7 1.4
4 2 6 5.7 1.3
-4 -2 6 6.7 1.2
-4 2 -6 6.5 1.4
4 -2 -6 5.2 1.3
4 2 6 6.9 1.2
-4 2 -6 5.6 1.3
4 -2 -6 6.4 1.3
4 -2 -6 6.1 1.3
4 2 6 4.6 1.2
-4 -2 6 9 1.2
5 -2 6 34.9 5.9
-5 -2 -6 38.1 5.8
-5 2 6 41 5.9
-5 2 6 36.3 6
5 -2 6 38 6
5 -2 6 40.5 5.9
-5 2 6 38.5 5.9
5 -2 6 34.7 5.8
-5 2 6 36.3 5.8
5 2 -6 41.1 5.8
-5 -2 -6 40.5 5.8
-5 -2 -6 35.6 5.8
-5 2 -6 44.7 6.1
-5 -2 6 34.9 5.7
5 2 6 34 5.8
-5 2 -6 41.3 6.1
5 -2 -6 38.1 5.9
5 -2 -6 41 5.9
-5 -2 6 36.7 5.7
5 -2 -6 38.1 5.8
-5 2 -6 36.7 6
5 2 6 35.1 5.8
-5 -2 6 37.7 5.8
-5 -2 6 38.5 5.8
5 2 6 32.5 5.8
-5 2 -6 29.5 5.9
6 -2 6 62.39 10.5
6 -2 6 64.89 10.5
6 -2 6 64.39 10.6
-6 -2 -6 69.79 10.5
-6 2 6 61.99 10.5
-6 -2 -6 67.49 10.5
-6 -2 -6 58.89 10.5
6 2 -6 68.89 10.4
-6 -2 -6 69.79 10.5
-6 2 6 66.49 10.6
-6 2 6 77.49 10.6
-6 2 6 62.09 10.5
6 -2 -6 67.19 10.6
-6 -2 6 67.69 10.4
6 -2 -6 68.59 10.5
6 2 6 63.39 10.5
-6 2 -6 62.79 10.6
6 -2 -6 72.49 10.5
6 2 6 71.19 10.5
6 2 6 77.59 10.5
-6 -2 6 74.29 10.5
-6 2 -6 74.99 10.6
-7 2 6 4.6 1.2
-7 -2 -6 2.3 1
-7 -2 -6 2.8 1
-7 2 6 4.3 1.3
-7 2 6 3.5 1.1
7 -2 6 2.8 1.1
-7 2 6 3.9 1.2
-7 -2 -6 4.7 1.1
-7 -2 -6 2.1 1.1
7 2 -6 3.8 0.8
7 -2 6 5.4 1.3
7 -2 -6 3.7 1
-7 2 -6 4.1 1.1
-7 2 -6 2.9 1.1
7 -2 -6 3.8 1.3
-7 2 -6 2.6 1.2
7 -2 -6 5.1 1.2
-7 -2 6 3.8 1
7 2 6 2.8 1
-7 2 -6 2.7 1.1
7 2 6 4 1.1
7 2 6 4.9 1.1
8 -2 6 0.3 0.9
-8 2 6 0.9 0.9
8 -2 6 0.9 1
-8 -2 -6 -0.7 0.8
8 -2 6 0.4 0.9
8 -2 6 -0.2 0.9
8 2 6 -1 0.8
8 -2 -6 2.6 1.1
8 2 6 0.5 0.8
-8 2 -6 0.5 1
8 -2 -6 0.2 1
8 2 6 -0.7 0.8
-8 2 -6 -0.2 0.8
8 2 6 -0.8 1.4
-8 2 -6 0.9 0.8
8 -2 -6 -0.1 0.8
9 -2 6 1.6 1
9 -2 6 0.7 1
9 -2 -6 1.1 1.2
9 2 6 1.1 0.9
9 -2 -6 0.8 0.9
0 -3 6 0.3 0.6
0 3 6 -0.3 0.7
0 3 -6 -0.5 0.5
0 -3 6 -0.4 0.6
0 -3 -6 -0.8 0.7
0 3 6 0.1 0.6
0 -3 -6 -0.5 0.6
0 3 -6 -0.2 0.5
0 -3 6 0.2 0.6
0 3 6 1.4 0.6
0 3 -6 0.6 0.5
0 -3 -6 -1.2 0.6
0 3 -6 -1 0.6
0 -3 -6 0.2 0.7
0 -3 6 -0.1 0.5
0 3 6 -0.1 0.6
1 -3 6 66.59 11.3
1 -3 6 73.39 11.3
-1 -3 -6 75.89 11.3
-1 3 6 83.89 11.3
1 -3 6 62.19 11.3
-1 -3 -6 69.39 11.3
-1 3 6 70.69 11.3
1 3 -6 74.99 11.2
1 3 -6 85.79 11.3
-1 -3 -6 95.79 11.3
-1 3 6 74.59 11.3
-1 3 6 64.49 11.3
1 3 -6 72.99 11.2
1 3 -6 70.39 11.2
-1 -3 -6 71.19 11.3
-1 3 -6 87.49 11.3
1 3 6 70.79 11.3
-1 -3 6 65.79 11.2
-1 3 -6 72.19 11.3
1 3 6 72.29 11.3
-1 3 -6 62.09 11.3
1 -3 -6 75.99 11.3
1 3 6 72.19 11.3
1 -3 -6 72.29 11.3
-1 -3 6 87.59 11.2
-1 3 -6 66.39 11.3
1 -3 -6 77.59 11.3
-1 -3 6 73.69 11.2
-1 -3 6 78.69 11.3
1 -3 -6 70.09 11.3
1 3 6 63.79 11.3
2 3 -6 74.79 11.6
2 -3 6 88.19 11.7
-2 -3 -6 69.29 11.7
2 3 -6 76.19 11.6
-2 -3 -6 74.69 11.6
2 -3 6 74.29 11.7
-2 -3 -6 79.39 11.7
2 -3 6 63.59 11.7
2 3 -6 72.39 11.6
-2 3 6 76.19 11.7
2 -3 6 68.49 11.7
-2 -3 -6 78.09 11.7
-2 3 6 86.19 11.8
2 3 6 83.79 11.7
-2 -3 6 78.69 11.6
-2 3 -6 80.39 11.7
-2 3 -6 76.09 11.7
-2 -3 6 71.99 11.6
-2 3 -6 78.99 11.7
2 3 6 68.69 11.6
2 3 6 81.29 11.6
2 3 6 73.39 11.6
-2 3 -6 75.39 11.7
2 -3 -6 79.69 11.7
-3 3 6 3.5 1
-3 3 6 3.9 1.2
3 -3 6 4.3 1.1
3 -3 6 3.3 1
-3 3 6 4 1.2
3 -3 6 2.7 1
3 3 -6 4.4 0.7
-3 3 6 4.5 1
-3 3 -6 3.7 1
3 3 6 4.6 0.8
-3 3 -6 3.3 1
3 -3 -6 3 1
3 3 6 4.1 0.9
-3 3 -6 2.2 1
-3 -3 6 3.6 0.7
-3 -3 6 3.3 0.7
3 -3 -6 1.3 0.9
3 3 6 2.9 0.9
-3 3 -6 3.8 1
3 -3 -6 5.4 1.1
4 -3 6 3.6 1
-4 3 6 4.4 1.2
-4 3 6 4 1
-4 3 6 3 0.9
-4 -3 -6 3.5 0.8
-4 -3 -6 2.2 0.8
4 -3 6 2.7 1
4 -3 6 3.1 1
-4 3 6 3.1 1.2
4 -3 6 2.6 0.9
-4 -3 -6 3.5 0.9
-4 3 -6 3.4 1
4 3 6 3.5 0.8
-4 3 -6 2 0.9
4 3 6 3 0.9
-4 3 -6 3.6 1
4 -3 -6 2.8 1.1
-4 3 -6 3.9 1
4 -3 -6 4.1 0.9
4 -3 -6 4.4 1
4 -3 -6 3.2 1
4 3 6 1.9 0.8
-5 -3 -6 1.5 0.6
-5 -3 -6 1.1 0.7
-5 3 6 -1.2 0.8
-5 -3 -6 0.3 0.6
-5 -3 -6 1.8 0.7
-5 3 6 1.7 1
5 -3 6 -0.7 0.6
-5 3 6 3.5 0.9
5 -3 6 1.7 0.8
-5 3 6 1.1 0.8
5 -3 6 -0.2 0.6
-5 3 -6 0.5 0.8
5 -3 -6 1.8 0.7
5 3 6 0.1 0.6
5 3 6 1.6 0.7
5 3 6 0.4 0.5
5 -3 -6 -0.1 0.8
-5 3 -6 0.3 0.7
-5 3 -6 2 0.9
-5 3 -6 -0.1 0.7
6 -3 6 1.7 0.9
-6 -3 -6 1.8 0.8
-6 -3 -6 1.9 0.8
-6 3 6 0.9 1
6 -3 6 3.3 1
-6 3 6 3.3 1
6 -3 6 2 0.9
-6 3 6 2.1 1
-6 3 6 3.1 1.1
-6 -3 -6 3 0.9
-6 -3 -6 2.6 0.9
6 3 6 1.7 0.7
-6 3 -6 0.1 0.8
6 -3 -6 1.7 0.9
-6 3 -6 2.6 1.1
6 3 6 1.9 0.8
-6 3 -6 2.7 1
6 -3 -6 1.8 1
6 -3 -6 2.1 0.9
6 3 6 2.7 0.8
-6 3 -6 3 1
6 -3 -6 2 1
-7 -3 -6 33.5 4.6
7 -3 6 26.4 4.5
-7 3 6 26.3 4.6
-7 -3 -6 31.3 4.6
-7 -3 -6 27.4 4.5
-7 3 6 28.5 4.7
7 -3 6 35.3 4.8
7 -3 6 40.6 4.9
7 -3 6 32.5 4.8
-7 3 6 29.9 4.6
-7 3 6 27.3 4.7
-7 -3 -6 26.6 4.5
-7 3 -6 27.7 4.7
-7 3 -6 25.8 4.6
-7 3 -6 32.6 4.8
-7 3 -6 25.9 4.6
7 -3 -6 21.6 4.5
7 3 6 21.6 4.4
7 -3 -6 24.9 4.5
7 -3 -6 22.9 4.6
7 3 6 33.4 4.5
7 -3 -6 24.7 4.6
7 3 6 30.1 4.5
8 -3 6 60.79 10
8 -3 6 72.49 10
8 -3 6 66.49 9.9
-8 3 6 64.49 10
-8 3 6 63.49 9.9
8 -3 -6 64.29 10
8 -3 -6 57.59 9.8
8 3 6 71.69 9.9
-8 3 -6 72.49 10
8 3 6 65.49 9.9
8 -3 -6 58.49 9.9
-8 3 -6 70.49 10
8 3 6 52.39 9.8
9 -3 6 -0.5 0.9
9 -3 6 0.1 0.9
9 -3 6 0.7 1
9 -3 -6 -1 1.1
-9 3 -6 0.9 0.9
9 3 6 0 0.9
9 -3 -6 0.4 0.9
9 -3 -6 0.7 1
9 -3 -6 -0.9 1.1
0 4 -6 4.5 1.2
0 -4 -6 6 1.3
0 4 -6 9.1 1.3
0 4 6 5.8 1.4
0 -4 6 7.1 1.3
0 -4 6 7.5 1.3
0 4 -6 6.9 1.3
0 -4 6 6.8 1.3
0 4 -6 8.8 1.3
0 -4 -6 5.7 1.3
0 4 6 4.5 1.3
0 -4 6 4.5 1.2
1 -4 6 48.4 8
1 4 -6 46.2 7.9
1 4 -6 65.09 7.9
1 4 -6 58.39 7.9
-1 -4 -6 41.7 7.9
-1 4 6 39.6 8
-1 4 6 47.9 8
-1 -4 -6 46.8 7.9
1 -4 6 60.29 8
-1 -4 6 50.79 7.9
1 -4 -6 49.8 8
-1 4 -6 50.89 8
1 -4 -6 49.5 8
1 4 6 55.79 8
1 4 6 50.79 8
-1 -4 6 60.39 7.9
-1 -4 6 47.6 7.9
1 4 6 47.2 8
-1 -4 6 55.49 7.9
2 4 -6 391.66 62.79
2 4 -6 439.66 62.79
-2 -4 -6 442.96 62.79
2 -4 6 421.66 62.79
-2 -4 -6 424.26 62.79
2 -4 6 383.76 62.79
-2 4 6 471.65 62.89
2 4 -6 445.26 62.79
-2 4 6 393.36 62.89
-2 4 6 393.36 62.79
2 4 -6 444.86 62.79
2 -4 6 388.56 62.79
-2 4 6 386.76 62.79
2 -4 -6 456.85 62.79
2 -4 -6 411.56 62.79
-2 4 -6 363.96 62.79
-2 4 -6 373.16 62.79
-2 4 -6 378.56 62.79
-2 -4 6 424.46 62.79
-2 -4 6 383.26 62.79
2 4 6 409.06 62.79
-2 -4 6 435.46 62.79
-2 -4 6 396.66 62.79
2 4 6 400.36 62.79
-2 4 -6 418.46 62.79
2 -4 -6 459.65 62.89
2 4 6 377.86 62.79
2 -4 -6 432.26 62.89
-3 -4 -6 0.2 0.6
-3 -4 -6 0.4 0.7
3 -4 6 -0.6 0.7
-3 4 6 -0.2 0.7
-3 4 6 -0.1 0.7
-3 4 6 0.5 0.9
3 -4 6 -0.4 0.6
-3 4 6 0.5 1
3 4 -6 -0.7 0.3
3 -4 6 0.6 0.7
-3 4 -6 -0.4 0.8
3 -4 -6 0.1 0.7
-3 -4 6 0.6 0.4
3 4 6 0.7 0.6
3 -4 -6 1.1 0.7
-3 -4 6 0.3 0.4
3 -4 -6 0.4 0.7
-3 4 -6 0.3 0.7
3 -4 -6 0.4 0.7
3 4 6 0.3 0.4
3 4 6 0 0.6
-3 4 -6 -0.4 0.7
-3 4 -6 -0.1 0.6
4 -4 6 2.1 1.1
-4 4 6 4.1 1.1
-4 4 6 6.1 1.4
4 -4 6 2.1 1
-4 -4 -6 3.8 1
-4 4 6 4.6 1.1
-4 -4 -6 3.5 1
4 -4 6 4.4 1.2
-4 4 6 3.7 1.3
-4 -4 -6 4.8 1
-4 -4 -6 4.4 1
4 -4 6 4 1.2
-4 4 -6 6.8 1.3
4 -4 -6 3.5 1.1
-4 4 -6 5.8 1.3
4 4 6 4 0.9
4 4 6 5.9 1.1
-4 4 -6 4.6 1.2
4 -4 -6 4.1 1.1
4 -4 -6 5.2 1.2
4 4 6 4.8 1.1
4 -4 -6 5.7 1.2
-4 4 -6 3.9 1.1
5 -4 6 110.49 20.6
-5 4 6 122.89 20.6
-5 -4 -6 136.29 20.5
-5 4 6 139.29 20.6
-5 -4 -6 135.59 20.5
-5 4 6 137.29 20.6
-5 -4 -6 135.79 20.5
-5 4 6 128.99 20.6
5 -4 6 141.89 20.6
-5 -4 -6 135.19 20.5
5 -4 -6 142.39 20.6
5 4 6 128.89 20.5
5 4 6 150.08 20.5
5 -4 -6 131.09 20.6
5 -4 -6 125.59 20.6
5 4 6 132.69 20.5
5 -4 -6 136.59 20.6
-5 4 -6 126.69 20.6
5 4 6 145.49 20.5
6 -4 6 0 0.7
-6 -4 -6 -0.7 0.7
-6 4 6 -1.3 0.9
6 -4 6 0.5 0.8
-6 4 6 -0.1 0.8
-6 -4 -6 0.5 0.6
6 -4 6 -0.4 0.8
6 -4 6 0.5 0.8
-6 -4 -6 0.1 0.6
-6 -4 -6 -0.1 0.7
-6 4 6 -0.5 0.9
-6 4 6 -1 0.6
6 -4 -6 0.7 0.8
-6 4 -6 0.8 1
6 -4 -6 0.8 0.8
6 -4 -6 1.4 1
-6 4 -6 0.7 0.8
6 4 6 0.3 0.5
6 4 6 -0.8 0.5
6 4 6 -1 0.7
6 4 6 -1.3 0.6
6 -4 -6 -0.3 0.9
-6 4 -6 0.7 0.9
-6 4 -6 -1.3 0.8
7 -4 6 2.5 1.2
-7 -4 -6 3.7 1
-7 4 6 1.5 1.3
-7 4 6 4.1 1.2
-7 -4 -6 4.7 1.1
-7 -4 -6 6.2 1.2
7 -4 6 2.4 1.2
7 -4 6 2.1 1.1
-7 -4 -6 6.1 1.2
-7 4 6 2.1 1.1
-7 4 6 4.7 1.4
7 -4 6 5.3 1.3
7 4 6 3.4 1.1
7 4 6 4.3 1
-7 4 -6 3.4 1.3
-7 4 -6 1.9 1.2
-7 4 -6 4.3 1.4
7 -4 -6 4.5 1.3
7 4 6 6 1.2
7 -4 -6 2.7 1.1
7 4 6 4.1 1
7 -4 -6 1.7 1.1
7 -4 -6 5.9 1.7
-8 4 6 82.69 11
8 -4 6 66.49 11.3
8 -4 6 67.69 10.9
-8 4 6 65.99 11
-8 4 6 77.79 10.9
-8 4 6 68.49 10.9
8 -4 -6 68.19 10.9
8 -4 -6 64.59 10.9
8 -4 -6 44.4 11
-8 4 -6 65.99 10.9
-8 4 -6 76.19 11
8 4 6 71.89 10.8
8 4 6 75.29 10.8
8 -4 -6 81.39 11.1
0 -5 -6 -0.5 0.8
0 -5 -6 0 0.6
0 -5 -6 0.1 0.9
0 -5 6 0.2 0.6
0 -5 -6 -0.2 0.8
0 5 6 0.1 1
0 5 6 0.2 1
0 5 6 0 0.6
0 5 -6 0.6 0.6
0 5 6 -0.5 0.6
0 -5 6 -0.5 0.7
-1 5 6 265.27 36.9
-1 5 6 254.87 36.9
1 -5 6 254.57 36.9
1 5 -6 256.07 36.8
-1 -5 -6 232.68 36.9
-1 -5 -6 247.18 36.9
1 5 -6 240.98 36.8
-1 5 6 243.98 36.9
1 5 -6 221.68 36.8
1 5 -6 274.17 36.8
1 -5 6 238.48 36.9
-1 -5 -6 228.28 36.9
1 -5 6 238.98 36.9
-1 -5 -6 222.58 36.9
-1 5 6 265.67 37
1 -5 6 250.67 36.9
-1 5 -6 209.18 36.9
-1 -5 6 259.67 36.9
1 5 6 243.68 36.9
-1 -5 6 284.67 36.9
1 -5 -6 209.88 36.9
1 5 6 235.28 36.9
1 -5 -6 260.37 36.9
-1 5 -6 198.58 36.9
-1 -5 6 267.27 36.9
1 -5 -6 214.08 36.9
-1 5 -6 219.08 36.9
-1 5 -6 235.58 36.9
-2 -5 -6 102.29 16.3
2 -5 6 88.09 16.3
2 -5 6 85.19 16.3
-2 -5 -6 113.29 16.3
-2 5 6 99.09 16.4
-2 5 6 105.89 16.4
-2 5 6 112.29 16.4
2 5 -6 108.49 16.3
2 -5 6 110.09 16.4
2 5 -6 108.09 16.3
2 5 -6 112.19 16.3
2 5 -6 107.69 16.2
2 -5 6 110.59 16.4
-2 5 6 101.19 16.4
-2 -5 -6 114.99 16.3
2 -5 -6 120.19 16.4
2 5 6 98.09 16.3
-2 -5 6 113.99 16.3
2 -5 -6 123.79 16.4
2 -5 -6 103.09 16.4
2 5 6 102.09 16.3
-2 5 -6 100.49 16.3
-2 -5 6 106.69 16.3
-2 5 -6 115.49 16.4
-2 5 -6 107.79 16.4
2 -5 -6 93.09 16.4
-2 5 -6 109.79 16.4
-2 -5 6 111.19 16.3
-2 -5 6 102.89 16.3
3 5 -6 124.19 17.4
-3 5 6 113.39 17.6
3 -5 6 143.99 17.6
-3 -5 -6 135.59 17.5
3 -5 6 113.89 17.6
-3 5 6 104.69 17.6
-3 -5 -6 98.79 17.5
-3 -5 -6 114.79 17.5
3 -5 6 111.69 17.6
3 -5 6 128.29 17.6
-3 5 6 115.89 17.6
3 5 -6 120.49 17.4
-3 5 6 104.19 17.6
3 5 6 110.79 17.5
-3 5 -6 110.79 17.6
3 5 6 108.99 17.5
-3 5 -6 117.89 17.6
3 5 6 111.19 17.5
3 -5 -6 119.79 17.6
3 -5 -6 103.59 17.6
-3 -5 6 122.19 17.4
-3 -5 6 107.19 17.4
-3 5 -6 111.99 17.6
3 -5 -6 94.19 17.5
-3 -5 6 108.69 17.4
-3 5 -6 113.59 17.6
3 -5 -6 119.39 17.6
-4 -5 -6 417.26 59.39
-4 5 6 411.16 59.59
4 -5 6 372.56 59.49
-4 -5 -6 363.66 59.39
-4 -5 -6 374.66 59.39
-4 5 6 377.66 59.49
-4 5 6 421.96 59.59
-4 -5 -6 407.46 59.39
4 -5 6 368.76 59.49
-4 5 6 424.46 59.59
4 5 6 366.56 59.39
4 -5 -6 376.86 59.49
-4 5 -6 381.06 59.49
4 5 6 419.86 59.39
4 -5 -6 360.86 59.49
-4 5 -6 392.26 59.49
4 -5 -6 454.45 59.49
4 5 6 370.36 59.39
4 5 6 363.46 59.39
4 -5 -6 406.86 59.49
-5 -5 -6 44.4 6.4
-5 5 6 45.1 6.8
5 -5 6 31.2 6.6
-5 5 6 32.7 6.5
-5 5 6 44.7 6.5
5 -5 6 41.5 6.7
-5 -5 -6 43.7 6.4
5 -5 6 44.2 6.7
-5 5 6 38.6 6.7
5 -5 6 36 6.6
-5 -5 -6 43 6.4
5 -5 -6 37.8 6.6
-5 5 -6 44.7 6.7
5 -5 -6 36.2 6.7
5 5 6 40 6.4
5 -5 -6 41.3 6.5
-5 5 -6 41 6.7
5 5 6 44.7 6.4
5 5 6 40.4 6.3
5 5 6 41.3 6.4
-6 5 6 3.7 1
6 -5 6 2.6 1
6 -5 6 2.3 1
-6 5 6 4.7 1.3
6 -5 6 2.6 1
-6 -5 -6 1.9 0.8
6 -5 6 2.6 1.1
-6 -5 -6 2.1 0.8
-6 -5 -6 3 1
-6 5 6 1 1
-6 -5 -6 2.6 0.9
-6 5 6 7.2 1.5
6 -5 -6 2.1 1
6 -5 -6 2.4 1.2
6 5 6 1.7 0.7
6 5 6 2.8 0.9
6 -5 -6 2.5 1
6 5 6 3 0.8
-6 5 -6 1.8 1.2
-6 5 -6 0.9 1
-6 5 -6 3.7 1.1
-6 5 -6 0.3 1
-7 5 6 0.7 1
-7 5 6 1.9 1.1
-7 -5 -6 0.4 0.8
7 -5 6 2.1 1
-7 5 6 0.6 1.1
-7 -5 -6 3.3 0.9
7 -5 6 1.4 1
-7 5 6 1.9 1.2
-7 -5 -6 0.7 0.8
7 -5 6 1.1 1
-7 -5 -6 2.8 0.9
-7 5 -6 3.4 1.2
7 -5 -6 1.8 1.1
-7 5 -6 2.3 1.1
7 -5 -6 1.4 1
7 -5 -6 2.7 1.2
7 -5 -6 1.8 1.1
7 5 6 1.9 0.9
7 5 6 1.3 0.8
7 5 6 2.2 0.8
-8 5 6 6.7 1.6
-8 5 6 7.1 1.9
-8 5 6 4.1 1.6
8 -5 6 7.8 1.7
8 -5 6 4.7 1.6
8 -5 -6 6 1.7
8 5 6 6.4 1.3
-8 5 -6 6 1.6
-8 5 -6 5.8 1.6
8 -5 -6 6.2 1.6
8 -5 -6 3 1.6
8 5 6 6.3 1.4
8 -5 -6 6.6 1.6
0 -6 -6 378.26 61.49
0 6 6 418.06 61.59
0 -6 -6 399.56 61.59
0 -6 6 344.37 61.49
0 6 -6 384.16 61.49
0 6 -6 394.06 61.49
0 6 -6 416.36 61.49
0 -6 -6 438.46 61.49
0 -6 -6 400.26 61.49
0 6 6 431.86 61.49
0 6 6 444.26 61.59
0 6 6 409.76 61.49
0 6 -6 418.16 61.49
0 -6 6 353.66 61.49
0 -6 6 412.66 61.49
0 -6 6 427.76 61.49
1 6 -6 402.76 62.49
-1 6 6 414.56 62.59
1 6 -6 411.26 62.49
1 -6 6 398.16 62.49
-1 6 6 421.16 62.59
1 -6 6 395.66 62.59
-1 6 6 426.56 62.59
-1 -6 -6 414.26 62.59
1 6 -6 370.26 62.49
-1 -6 -6 455.15 62.59
1 -6 6 485.75 62.59
-1 -6 -6 344.17 62.49
-1 -6 -6 395.86 62.49
-1 6 6 368.36 62.59
-1 -6 6 389.26 62.49
-1 6 -6 420.36 62.59
1 -6 -6 428.36 62.59
1 6 6 439.86 62.49
-1 -6 6 364.86 62.49
1 -6 -6 379.96 62.59
1 -6 -6 437.46 62.59
-1 6 -6 388.96 62.49
1 6 6 471.05 62.69
1 -6 -6 404.76 62.59
1 6 6 431.36 62.49
-1 6 -6 454.45 62.59
2 -6 6 41 7
-2 -6 -6 41.5 6.9
2 6 -6 45.3 6.9
2 -6 6 48.3 7.1
-2 -6 -6 44.6 7
-2 6 6 44.4 7
2 -6 6 46.1 7
2 -6 6 45.1 7.1
2 6 -6 47.8 6.9
2 6 -6 46.7 6.9
-2 -6 -6 49.4 7
-2 6 6 47.4 7.2
-2 -6 -6 36.5 7
-2 6 6 41.2 7
-2 6 6 41 7.2
2 -6 -6 41 7.2
-2 -6 6 36.8 6.9
-2 -6 6 42.1 6.9
-2 -6 6 49.1 6.9
2 -6 -6 55.99 7.1
2 6 6 48.6 7.1
2 6 6 46.5 7
-2 6 -6 43.4 7.1
2 6 6 49.2 7
2 -6 -6 47.8 7.1
-2 6 -6 44.8 7
-2 -6 6 42.3 7
2 -6 -6 46.2 7.1
2 6 6 43.2 7
-2 6 -6 46.4 7
-2 6 -6 45.8 7
-3 -6 -6 15.6 3.1
-3 6 6 18.8 3.3
3 6 -6 17.3 3
-3 -6 -6 18.1 3.1
3 -6 6 21.2 3.3
-3 6 6 14 3.2
-3 -6 -6 24.6 3.1
3 -6 6 16.6 3.2
3 6 -6 16.5 2.9
-3 -6 -6 18.4 3.1
-3 6 6 20.1 3.3
3 -6 6 15.3 3.2
3 -6 6 16 3.2
-3 6 6 19.4 3.4
-3 -6 6 28.2 3.1
-3 6 -6 13.9 3.1
-3 -6 6 19.4 3
3 -6 -6 15.2 3.2
3 -6 -6 18.9 3.2
-3 -6 6 22.6 3
-3 -6 6 19.6 3
-3 6 -6 17.5 3.3
3 -6 -6 16 3.2
3 6 6 19.2 3.1
3 -6 -6 13.8 3.2
3 6 6 24 3.2
3 6 6 21.5 3.2
-3 6 -6 21.8 3.4
-3 6 -6 15.1 3.1
-4 6 6 77.69 10.9
-4 6 6 66.49 10.9
4 -6 6 60.49 10.9
4 -6 6 63.09 10.9
-4 -6 -6 62.49 10.8
-4 -6 -6 71.19 10.8
-4 -6 -6 70.89 10.8
-4 -6 -6 74.39 10.9
4 -6 6 76.29 11
-4 6 -6 71.29 11
4 6 6 75.49 10.9
-4 6 -6 75.39 11
4 6 6 71.49 10.9
-4 6 -6 72.59 11
4 6 6 78.49 10.9
4 -6 -6 63.29 10.9
4 -6 -6 69.19 10.9
4 6 6 72.89 10.9
-4 6 -6 64.09 10.9
5 -6 6 9.2 2.1
5 -6 6 13.9 2.4
-5 -6 -6 10.9 2
-5 -6 -6 12.2 2
5 -6 6 8.8 2.1
-5 -6 -6 13 2.1
-5 -6 -6 13 2.1
-5 6 6 8.9 2.1
-5 6 6 12.8 2.2
5 -6 6 6.8 2
5 -6 -6 13.4 2.3
-5 6 -6 12.7 2.3
-5 6 -6 9.3 2.2
5 6 6 12.8 2.1
-5 6 -6 11.9 2.3
5 6 6 12.4 1.9
-5 6 -6 8.7 2.2
5 -6 -6 14.4 2.3
5 -6 -6 11.1 2.3
5 6 6 11.6 2.1
6 -6 6 0.8 0.9
-6 6 6 -0.1 0.9
-6 -6 -6 1 0.7
-6 6 6 1.3 1.2
6 -6 6 1.3 1.1
-6 -6 -6 0.7 0.8
-6 6 6 1.3 1.1
6 -6 6 0.2 0.9
-6 6 6 0.3 1
-6 -6 -6 0.3 0.7
6 -6 -6 1.5 1
-6 6 -6 1 1
6 -6 -6 2.2 1.1
6 6 6 1.1 0.6
6 6 6 0.7 0.5
6 6 6 0.7 0.8
-6 6 -6 1.3 1.1
6 -6 -6 2.2 1
6 -6 -6 1.8 0.9
6 6 6 1.4 0.8
-7 6 6 1.9 1.2
-7 -6 -6 1.2 0.8
7 -6 6 0.4 1
7 -6 6 0.7 1.2
-7 6 6 0.7 1.3
7 -6 -6 -0.2 1
7 6 6 0.5 0.9
-7 6 -6 1 1
7 -6 -6 1.5 1.2
7 -6 -6 1.9 1.1
7 -6 -6 0.1 0.9
7 6 6 2.2 0.7
-7 6 -6 2.3 1.1
-8 6 6 3.1 1.5
-8 6 6 2.1 1.4
8 -6 6 0 1.1
-8 6 -6 2.3 1.1
8 -6 -6 0.6 1.3
8 -6 -6 1 1.1
8 -6 -6 1.7 1.2
-8 6 -6 0 1
8 6 6 0.8 0.7
8 6 6 0.8 0.9
0 -7 6 -0.7 0.7
0 7 6 0 0.6
0 -7 6 0.9 0.8
0 -7 6 -1.2 0.7
0 7 6 -0.4 0.5
0 -7 -6 -0.8 0.7
0 -7 6 0 0.7
0 -7 -6 -1.3 0.9
0 7 -6 0.1 0.6
0 7 6 -0.9 1
0 7 6 1.1 0.9
0 7 -6 -0.6 0.8
0 -7 -6 0 1
0 -7 -6 0.8 0.8
0 7 -6 0.5 0.6
0 7 -6 -0.4 0.5
-1 -7 -6 15.1 3.1
-1 7 6 12.2 3.1
-1 7 6 16.6 3.3
-1 -7 -6 21.4 3.3
-1 -7 -6 13.2 3.2
1 -7 6 23.5 3.4
1 7 -6 22.5 3.2
-1 7 6 17.7 3.3
1 -7 6 30.8 3.5
-1 7 6 19.1 3.2
1 7 -6 20.3 3.1
1 -7 6 8.7 3.1
1 7 -6 19 3.2
-1 -7 -6 22.4 3.3
1 -7 6 14.9 3.2
-1 -7 6 23.7 3.2
-1 -7 6 24.6 3.3
1 7 6 26.1 3.5
1 -7 -6 22.5 3.4
1 -7 -6 21.7 3.3
-1 7 -6 18.4 3.2
1 7 6 21 3.3
-1 7 -6 21.1 3.2
1 7 6 21.6 3.2
-1 -7 6 18.3 3.2
1 -7 -6 22.7 3.3
1 7 6 17.2 3.1
-1 7 -6 25.1 3.4
-1 7 -6 16.9 3.2
1 -7 -6 19.5 3.4
-1 -7 6 17 3.2
2 7 -6 2.6 0.9
2 -7 6 2.1 1.2
2 -7 6 3.8 1.2
2 7 -6 5.3 1
2 -7 6 3.7 1.2
-2 7 6 5.6 1.3
-2 -7 -6 7.3 1.3
2 -7 6 3.1 1.2
2 7 -6 5.3 0.9
2 7 -6 3.8 0.9
-2 7 6 4.2 1.3
-2 -7 -6 6.8 1.3
-2 7 6 4.2 1.2
-2 -7 -6 7.9 1.5
-2 7 6 2.1 1.4
-2 -7 6 4.4 1
2 -7 -6 3.5 1.2
-2 7 -6 3.1 1.1
-2 -7 6 4.7 1.1
2 7 6 5 1
2 7 6 4.3 1
-2 7 -6 4.8 1.2
-2 -7 6 5.6 1.1
2 -7 -6 7.6 1.4
2 -7 -6 8 1.5
-2 -7 6 3.6 1.1
-2 7 -6 8.3 1.5
2 -7 -6 4.5 1.3
2 7 6 4.2 1.3
-2 7 -6 4 1.3
2 7 6 5.4 1.3
-3 -7 -6 4.5 1.1
-3 -7 -6 4.5 1
-3 -7 -6 4.2 1
3 7 -6 4.9 0.8
3 7 -6 4.2 0.8
-3 7 6 1.5 1
3 -7 6 3.6 1
3 -7 6 1.2 1
3 -7 6 3.6 1.2
-3 7 6 3.2 1.1
-3 -7 -6 3 0.9
-3 -7 6 2.9 0.8
3 7 6 2.6 0.9
3 7 6 3.3 0.8
3 -7 -6 2.5 1
-3 -7 6 3.2 0.8
-3 7 -6 3.1 1.2
-3 7 -6 2.2 1
3 7 6 2.4 1.1
-3 7 -6 2.6 1.3
-3 -7 6 2.4 0.7
3 7 6 2.3 1.1
-3 7 -6 3.3 1.2
-3 -7 6 2.9 0.9
-4 -7 -6 183.88 27.9
-4 -7 -6 172.38 27.9
4 -7 6 178.78 28
-4 7 6 182.48 28
-4 7 6 209.18 28.1
-4 -7 -6 170.98 27.9
-4 7 6 185.58 28.1
-4 7 6 180.78 28
4 -7 6 148.99 28
4 -7 6 182.38 28
-4 -7 -6 193.18 27.9
4 7 6 209.78 28
-4 -7 6 187.38 27.8
-4 7 -6 198.48 28
-4 7 -6 194.98 28
4 7 6 154.38 27.9
-4 7 -6 176.08 28
4 -7 -6 183.78 28
4 -7 -6 186.58 28.1
-4 7 -6 182.58 28
4 -7 -6 160.28 28
-4 -7 6 204.48 27.8
4 -7 -6 173.28 28
5 -7 6 24.6 5.1
-5 -7 -6 33.8 4.9
-5 -7 -6 34.2 4.9
5 -7 6 32.2 5.3
-5 7 6 25.3 5.1
-5 7 6 29.8 5.3
5 -7 6 26.1 5.2
5 -7 6 35.1 5.3
-5 -7 -6 32.5 5
-5 7 6 28.3 5.1
-5 -7 -6 29.3 4.9
-5 7 6 27.9 5.1
5 7 6 35.1 5.1
5 -7 -6 30.6 5.2
5 7 6 29.8 4.9
5 -7 -6 23 5
5 -7 -6 25.1 5
-5 7 -6 38.5 5.3
-5 7 -6 28.8 5.2
5 -7 -6 31.3 5.2
-5 7 -6 43.7 5.4
5 7 6 36.2 5
6 -7 6 3 1.2
6 -7 6 3.3 1.1
-6 -7 -6 2.8 0.9
-6 -7 -6 3.3 1
-6 7 6 2.6 1.3
-6 7 6 1.3 1.2
-6 -7 -6 2.2 0.9
-6 -7 -6 3.6 0.9
-6 7 -6 2.1 1.2
6 -7 -6 1.9 1.1
-6 7 -6 4 1.3
6 7 6 3.3 0.8
6 -7 -6 3 1.2
6 7 6 2.3 0.7
6 -7 -6 3.9 1.2
6 7 6 2.7 1.1
6 7 6 4 1
6 -7 -6 3.2 1.3
7 -7 6 25.3 4.6
7 -7 6 27.4 4.7
-7 7 6 22.4 4.6
-7 7 6 24.6 4.7
7 7 6 31 4.5
-7 7 -6 30.7 4.8
7 -7 -6 22.2 4.5
7 7 6 32.9 4.3
7 -7 -6 20.5 4.5
8 -7 6 0.2 1
-8 7 6 0.4 1.3
-8 7 6 -1.3 1.1
8 -7 6 0 1.1
-8 7 -6 0.2 1.1
8 -7 -6 0.4 1
8 7 6 1.6 0.8
-8 7 -6 2.7 1.2
8 -7 -6 -0.3 1.2
8 7 6 0.9 0.9
0 8 6 17.7 4.5
0 -8 -6 33.1 4.5
0 -8 -6 28.3 4.4
0 8 -6 23.4 4.3
0 8 6 34.4 4.7
0 8 -6 28.7 4.4
0 -8 6 25.4 4.3
0 8 6 25.6 4.3
0 -8 6 27 4.4
0 8 -6 31.1 4.4
0 -8 6 23.1 4.4
0 8 -6 20.2 4.3
0 8 6 25 4.4
0 -8 -6 23.3 4.4
0 -8 -6 28.2 4.5
0 -8 6 40.7 4.6
1 -8 6 10.1 1.8
-1 8 6 7.6 1.7
-1 -8 -6 9 1.8
1 -8 6 9.8 2
1 8 -6 6.4 1.5
1 8 -6 7.2 1.6
-1 8 6 10.3 1.8
-1 8 6 8.4 1.9
1 8 -6 14.8 2
-1 -8 -6 9.2 1.8
1 -8 6 12.1 1.9
1 8 -6 10.9 1.7
-1 -8 -6 7.2 1.6
1 -8 6 12.8 1.9
-1 -8 -6 6.4 1.8
-1 8 6 5.6 1.7
1 -8 -6 7 1.7
1 -8 -6 9 1.8
1 8 6 13.8 1.9
1 8 6 6.4 1.7
-1 8 -6 7.7 1.7
1 8 6 7.3 1.6
-1 8 -6 8 1.7
-1 -8 6 9.4 1.8
-1 8 -6 7.1 1.8
-1 -8 6 9.4 1.7
1 -8 -6 8 2
1 -8 -6 6.1 1.8
-1 -8 6 6.3 1.6
1 8 6 10.4 2
-1 -8 6 11.6 1.8
2 -8 6 14.8 2.5
-2 -8 -6 15.4 2.4
2 8 -6 12.4 2.2
2 -8 6 12.8 2.5
2 8 -6 11.5 2.3
-2 -8 -6 14.3 2.3
-2 8 6 13.5 2.4
-2 -8 -6 11.7 2.2
-2 -8 -6 15.6 2.4
2 8 -6 13.2 2.1
-2 8 6 13.2 2.4
2 8 6 12.7 2.4
-2 8 -6 16 2.5
-2 -8 6 14 2.2
-2 -8 6 11.9 2.2
2 -8 -6 5.5 2.3
2 8 6 11.8 2.2
2 8 6 11.5 2.4
-2 -8 6 15 2.3
2 8 6 11.2 2.2
-3 8 6 3.4 1.3
3 8 -6 2.3 0.5
3 8 -6 1.3 0.7
-3 8 6 0.6 0.9
-3 -8 -6 2.1 0.7
3 -8 6 0.9 0.8
3 -8 6 0.8 1.1
-3 -8 -6 1.8 0.8
-3 8 6 1.4 1
3 -8 6 1.2 1
3 -8 6 2.4 0.9
-3 -8 -6 1.8 0.8
3 8 -6 0.9 0.6
-3 -8 -6 2.5 0.9
3 8 -6 2.2 0.5
-3 8 6 1.7 1.1
-3 -8 6 1 0.6
3 -8 -6 -0.8 0.8
3 -8 -6 0.5 1
-3 -8 6 1 0.8
3 8 6 1.2 1.1
3 8 6 0.9 0.6
3 8 6 1.1 0.6
-3 8 -6 1.6 0.9
3 -8 -6 1.1 1
3 8 6 3.1 1
-3 8 -6 0.9 1
-3 -8 6 2 0.7
-3 8 -6 1.8 1.1
-3 8 -6 0.1 0.9
4 -8 6 1.3 0.9
-4 8 6 2.1 1
-4 -8 -6 1.8 0.7
-4 -8 -6 0.8 0.8
4 8 -6 -0.3 0.5
4 8 -6 0.6 0.5
-4 8 6 0.1 0.9
-4 8 6 -0.4 1.2
-4 -8 -6 0.8 0.7
4 -8 6 -0.4 0.9
-4 -8 -6 0.1 0.7
4 -8 6 -0.1 0.9
-4 8 6 -0.6 1
-4 8 -6 1.1 1.1
4 8 6 0.8 0.7
4 -8 -6 -0.4 0.8
4 8 6 0 1
4 8 6 1.1 0.6
-4 8 -6 0.1 1.1
-4 -8 6 0 0.5
-4 8 -6 0.9 1
4 -8 -6 0 0.9
-4 -8 6 -0.6 0.5
-4 -8 6 -0.6 0.7
4 8 6 -0.1 0.8
4 -8 -6 1.5 0.9
-4 8 -6 0.5 0.9
4 -8 -6 -0.7 1
-4 -8 6 0.3 0.5
-5 8 6 0.5 1
5 -8 6 -0.4 0.8
5 -8 6 0.1 0.8
-5 -8 -6 0 0.7
-5 -8 -6 -0.4 0.6
-5 -8 -6 0 0.8
-5 8 6 0.3 1.1
-5 -8 -6 0.5 0.7
-5 8 6 -1.6 0.9
5 8 6 0.3 0.8
-5 8 -6 0.1 0.9
5 8 6 0.4 0.9
5 -8 -6 1.5 1
5 -8 -6 0.4 1
5 -8 -6 0.3 0.9
-5 8 -6 0.7 1.1
5 8 6 -0.2 0.6
5 -8 -6 0.3 0.9
6 -8 6 3.1 1.3
-6 -8 -6 4.8 1.1
6 -8 6 4.4 1.3
-6 8 6 3.2 1.5
-6 -8 -6 4.1 1.1
-6 8 6 3.8 1.5
-6 -8 -6 4.9 1.1
-6 -8 -6 4.5 1.1
6 8 6 3.5 1.3
-6 8 -6 3.6 1.4
6 8 6 5.3 1.2
6 -8 -6 3 1.4
6 8 6 5 0.9
-6 8 -6 5 1.5
6 -8 -6 3.4 1.3
-7 8 6 5.4 1.8
-7 8 6 3.7 1.8
7 -8 6 11.1 1.9
7 -8 6 3.5 1.5
7 -8 -6 4.8 1.5
-7 8 -6 8.1 1.8
7 8 6 8 1.6
-7 8 -6 5.8 1.7
7 8 6 5.6 1.2
7 -8 -6 5.2 1.7
8 -8 6 4.1 1.6
-8 8 6 6.7 1.8
8 -8 6 3.5 1.5
-8 8 6 3.2 1.7
8 -8 -6 5 1.5
8 8 6 3.9 1.4
-8 8 -6 5.6 1.8
8 8 6 5 1.1
8 -8 -6 5 1.7
-8 8 -6 3.5 1.5
0 9 -6 0 0.6
0 -9 6 -1.2 0.8
0 -9 6 -1.2 0.6
0 -9 6 -0.6 0.7
0 9 6 -0.1 0.5
0 -9 6 -0.6 0.7
0 9 -6 -0.2 0.5
0 9 -6 0.5 0.9
0 -9 -6 -1.1 1
0 -9 -6 -0.6 1.1
0 9 -6 0.3 0.7
1 -9 6 4.5 1.3
-1 9 6 6 1.4
1 9 -6 3.5 0.9
-1 9 6 2.8 1
-1 -9 -6 5.6 1.4
1 9 -6 3 1.1
-1 9 6 3.6 1.5
-1 -9 -6 1.9 1.2
-1 -9 -6 5.3 1.2
1 9 -6 4.1 1
1 -9 6 5.2 1.4
-1 -9 -6 4.1 1.1
-1 9 6 2.4 1
1 9 -6 4.6 1
1 9 6 4.5 1
-1 -9 6 2.9 1.1
-1 -9 6 5.3 1.1
-1 -9 6 6.1 1.3
1 -9 -6 1.2 1
-1 9 -6 3 1
1 -9 -6 2.7 1.3
1 9 6 2.1 1.2
1 9 6 3.7 1
-1 -9 6 2.8 1
1 -9 -6 4.4 1.4
1 -9 -6 2.6 1.1
1 9 6 5 1.3
-2 9 6 59.79 9.7
2 9 -6 67.09 9.6
-2 9 6 58.29 9.9
-2 -9 -6 64.89 9.7
2 -9 6 65.19 9.7
-2 -9 -6 53.09 9.6
-2 -9 -6 65.59 9.7
-2 -9 -6 56.79 9.6
-2 9 6 69.19 9.7
2 -9 6 63.59 9.7
2 -9 6 56.29 9.7
2 9 -6 55.19 9.5
-2 9 6 55.59 9.7
2 9 -6 68.49 9.6
2 -9 6 63.49 9.8
-2 9 -6 60.09 9.7
-2 9 -6 53.49 9.7
-2 9 -6 61.89 9.7
2 9 6 60.09 9.6
-2 -9 6 72.39 9.6
-2 -9 6 50.39 9.6
-2 -9 6 75.89 9.6
2 9 6 66.99 9.7
2 -9 -6 57.49 9.7
2 9 6 65.49 9.6
-2 -9 6 70.59 9.6
2 -9 -6 58.79 9.7
2 9 6 55.79 9.7
2 -9 -6 59.09 9.8
-2 9 -6 73.99 9.7
2 -9 -6 56.19 9.7
-3 -9 -6 7.8 1.5
-3 -9 -6 4.3 1.4
3 9 -6 6 1.2
3 9 -6 5.5 1
3 -9 6 2 1.2
3 -9 6 3.5 1.5
-3 9 6 4.1 1.6
3 -9 6 6.5 1.5
-3 9 6 5.5 1.5
3 9 -6 5.4 1
-3 9 6 4.5 1.4
-3 -9 -6 6.3 1.3
-3 9 6 4.1 1.5
-3 -9 -6 4.7 1.2
3 -9 6 3.4 1.3
-3 -9 6 6.2 1.2
3 9 6 5.2 1.4
-3 9 -6 5.6 1.5
-3 -9 6 6.6 1.3
-3 9 -6 5.7 1.4
3 9 6 6.6 1.6
3 9 6 5.8 1.2
3 -9 -6 6.4 1.6
-3 -9 6 6.5 1.2
-3 9 -6 3.1 1.4
3 -9 -6 4.1 1.5
-3 9 -6 5.2 1.4
3 -9 -6 4.6 1.4
3 -9 -6 7.5 1.6
3 9 6 5.1 1.1
-4 -9 -6 34.4 5.4
-4 9 6 23.8 5.7
-4 -9 -6 35.4 5.6
-4 9 6 35 5.8
4 -9 6 27.2 5.6
4 -9 6 35.7 5.7
4 9 -6 37.8 5.4
4 9 -6 33.4 5.3
-4 -9 -6 38.5 5.6
-4 -9 -6 39.2 5.6
-4 -9 6 35.1 5.5
4 -9 -6 25.6 5.6
-4 -9 6 36.4 5.4
4 9 6 35 5.5
4 9 6 47.5 5.8
4 -9 -6 29 5.7
4 9 6 40.8 5.6
-4 9 -6 32.5 5.7
-4 -9 6 32 5.4
4 9 6 30.1 5.4
4 -9 -6 33.7 5.8
-4 -9 6 36.8 5.4
5 -9 6 2 1.2
-5 -9 -6 3.3 1
5 -9 6 1.9 1.1
-5 -9 -6 0.8 0.8
-5 -9 -6 3.9 0.9
-5 9 6 1.4 1.2
-5 9 6 2.4 1.4
-5 -9 -6 2.3 0.9
5 9 6 3.1 1.3
-5 -9 6 2.9 0.8
-5 9 -6 2.6 1.3
-5 -9 6 2.3 0.7
5 -9 -6 1.6 1.1
5 9 6 2.3 0.9
-5 9 -6 2.4 1.1
5 9 6 3.5 1.1
5 -9 -6 2.7 1.1
-6 -9 -6 0.8 0.8
-6 -9 -6 2.3 0.9
-6 -9 -6 1.3 0.9
6 -9 6 1 1
-6 9 6 2.5 1.2
-6 -9 -6 0 0.7
6 -9 6 0.5 0.9
-6 9 6 -0.5 1.1
6 9 6 0.4 0.5
6 9 6 0.7 0.8
-6 9 -6 0.2 1.1
6 -9 -6 0.9 1.2
6 -9 -6 1.4 1.1
6 9 6 1 1.2
-6 9 -6 0.4 1.2
6 9 6 0.6 0.7
7 -9 6 0 1.2
7 -9 6 1.5 1.1
-7 9 6 0.1 1.3
-7 9 6 -0.1 1.1
-7 9 -6 0.7 1.2
-7 9 -6 -0.6 1.3
7 9 6 0.6 0.7
7 -9 -6 -0.1 1
7 -9 -6 -0.3 1.1
7 9 6 1.7 1.2
0 10 6 78.69 12.3
0 -10 -6 86.49 12.4
0 -10 6 64.59 12.3
0 -10 -6 95.39 12.3
0 10 6 80.29 12.4
0 10 -6 81.29 12.3
0 10 -6 67.79 12.2
0 10 6 87.79 12.3
0 -10 6 89.49 12.4
0 -10 -6 78.99 12.3
0 -10 -6 76.19 12.4
0 10 6 74.09 12.3
1 -10 6 25.1 4.3
-1 10 6 21.1 4.1
-1 10 6 22.7 4.3
-1 10 6 19.5 4.2
1 -10 6 27.8 4.3
1 10 -6 23.2 4.2
1 10 -6 28.5 4.1
-1 -10 -6 23.1 4.3
1 -10 6 25.5 4.2
1 10 -6 29 4.3
1 -10 6 40.2 4.6
1 10 -6 29.6 4.2
-1 10 6 21.2 4.1
-1 -10 6 22.4 4.2
-1 -10 6 34.4 4.4
1 -10 -6 21.7 4.3
1 10 6 34.8 4.3
1 -10 -6 24.6 4.2
-1 10 -6 22.1 4.2
1 -10 -6 29.9 4.4
-1 -10 6 28.5 4.2
-1 10 -6 15.7 4
-1 -10 6 21 4.1
1 -10 -6 28.9 4.4
1 10 6 24.2 4.1
-1 10 -6 27.3 4.2
-1 10 -6 22 4.2
-2 10 6 59.39 8.5
-2 -10 -6 54.39 8.1
-2 -10 -6 48.5 8.2
2 10 -6 46.9 8.1
-2 10 6 45 8.2
2 -10 6 41.8 8.3
-2 -10 -6 45.3 8.1
2 10 -6 70.59 8.1
2 10 -6 57.49 8
-2 10 6 52.79 8.4
-2 10 6 54.69 8.1
2 10 -6 54.09 8
-2 -10 -6 41.1 8.2
2 -10 6 56.89 8.2
2 -10 6 59.49 8.2
-2 10 -6 63.69 8.2
2 -10 -6 53.89 8.3
-2 -10 6 56.39 8.1
-2 10 -6 52.59 8.4
-2 -10 6 43.8 8
2 10 6 37.9 8
2 10 6 61.99 8.5
-2 10 -6 49.7 8.1
2 -10 -6 55.89 8.5
2 -10 -6 51.19 8.1
-2 -10 6 58.09 8.1
-2 10 -6 48.7 8.1
2 10 6 52.39 8
2 10 6 46.3 8.2
2 -10 -6 48.3 8.3
-2 -10 6 45.6 8.1
3 10 -6 46.5 7.1
-3 10 6 38.4 7.3
-3 -10 -6 39.4 7.1
-3 -10 -6 53.89 7.2
3 10 -6 41.9 7
3 10 -6 42.1 7
3 -10 6 41.6 7.3
-3 10 6 43.9 7.4
3 10 -6 48.9 7
3 -10 6 50.49 7.4
-3 -10 -6 48.6 7.3
-3 -10 -6 41.6 7.1
-3 -10 6 45.6 7.1
3 10 6 39 7
-3 10 -6 36.9 7.3
-3 -10 6 48.9 7.1
3 10 6 44.6 7.2
3 -10 -6 48.2 7.4
3 10 6 56.79 7.4
3 10 6 46.7 7.1
-3 10 -6 58.89 7.5
-3 -10 6 44.1 7.1
3 -10 -6 46.3 7.4
-3 -10 6 46.4 7.1
-4 10 6 44.9 9.4
4 -10 6 60.09 9.3
-4 -10 -6 60.19 9.2
-4 -10 -6 60.89 9.2
-4 10 6 49 9.4
4 -10 6 70.59 9.3
-4 -10 -6 61.19 9.1
-4 -10 -6 55.79 9.1
4 10 -6 54.19 9.1
4 -10 -6 47.4 9.3
-4 -10 6 63.69 9.1
-4 -10 6 67.29 9.1
-4 -10 6 63.39 9.1
4 10 6 52.19 9.1
4 10 6 52.19 9.1
-4 10 -6 60.99 9.6
4 10 6 59.59 9.1
-4 10 -6 57.19 9.3
4 -10 -6 56.69 9.2
4 10 6 67.89 9.3
5 -10 6 8.6 1.9
-5 -10 -6 6.4 1.7
-5 -10 -6 7.2 1.7
-5 -10 -6 12.3 1.8
-5 10 6 9.4 2.2
-5 10 6 5.4 2
5 10 -6 8.4 1.5
5 -10 6 7.2 1.9
-5 -10 -6 6.8 1.6
5 10 6 12.3 2
-5 10 -6 9.2 2
5 -10 -6 9.7 2
5 10 6 10 1.8
-5 10 -6 9.1 2.1
-5 -10 6 10.3 2.1
5 -10 -6 8.4 1.9
5 10 6 6 1.6
-6 10 6 19.1 3.4
6 -10 6 15.2 3.1
-6 -10 -6 21.9 3.1
6 -10 6 10.9 3
6 10 6 19.9 3
6 10 6 17.5 3.1
-6 10 -6 19.1 3.3
6 -10 -6 13.1 3.2
6 10 6 13.7 2.9
6 -10 -6 15.7 3.1
-6 10 -6 22.6 3.5
6 10 6 19.1 2.8
-7 10 6 0.6 1.3
-7 10 6 1.3 1.5
7 -10 6 -0.3 1
7 -10 -6 -0.4 1.1
7 10 6 -0.2 1.2
7 -10 -6 1.7 1.1
0 -11 6 -2.1 0.9
0 11 -6 0.3 1
0 -11 -6 -0.1 0.9
0 -11 6 -0.3 1
0 -11 6 -1.4 0.6
0 11 6 0.5 1.3
0 11 6 0.5 0.7
0 -11 -6 -1.1 1.1
0 11 -6 -0.9 0.7
0 11 -6 0.2 0.6
0 -11 -6 1.3 1.3
0 11 6 0.1 0.7
0 11 6 1.5 1.1
0 11 -6 0 0.7
0 -11 -6 -0.4 0.9
0 -11 6 0 0.8
1 -11 6 4.2 1.3
1 11 -6 4.6 1.1
1 -11 6 2.8 1.4
-1 11 6 3.8 1.1
1 -11 6 5 1.4
1 -11 6 4.1 1.3
-1 -11 -6 5.3 1.2
-1 -11 -6 4.3 1.3
-1 -11 -6 6.1 1.6
-1 11 6 2.8 1.5
-1 11 6 2.4 1.2
-1 11 6 1.4 1.2
-1 -11 -6 4.1 1.4
1 11 -6 3.2 1.1
1 11 -6 5.4 1.2
1 11 6 4.3 1.2
-1 -11 6 3.4 1.2
-1 11 -6 4.1 1.3
-1 -11 6 1.6 1.2
1 -11 -6 6.3 1.5
1 11 6 4.3 1.2
1 -11 -6 6.6 1.5
-1 -11 6 3.7 1.3
1 -11 -6 4.6 1.6
1 11 6 2 1.3
1 -11 -6 3.6 1.5
-1 11 -6 4.1 1.5
-1 11 -6 5.2 1.3
1 11 6 2.4 1.4
-1 11 -6 5.6 1.3
-2 -11 -6 0.9 0.9
-2 -11 -6 -0.1 1
2 11 -6 -0.4 0.6
-2 11 6 0.9 1.3
-2 11 6 0.8 1.2
-2 -11 -6 -0.7 0.9
2 11 -6 1.1 0.6
2 11 -6 0.2 0.6
2 11 -6 1.1 0.9
-2 -11 -6 -1.1 0.7
2 -11 6 -0.7 0.8
2 -11 6 1.8 1
2 -11 -6 0.4 1
-2 -11 6 0.6 0.8
-2 11 -6 1.5 1
2 11 6 0.1 0.5
-2 -11 6 0 0.8
-2 -11 6 -0.1 0.9
2 11 6 1 1.1
-2 11 -6 1.1 1.1
2 -11 -6 -0.7 0.9
2 11 6 0.6 0.7
-2 -11 6 1.2 0.8
3 11 -6 3.6 1
-3 -11 -6 2.4 1.2
-3 -11 -6 3.1 1.2
-3 11 6 5.6 1.8
3 -11 6 4.3 1.4
3 11 -6 1.4 1.1
-3 11 6 2.4 1.3
3 -11 6 4 1.3
3 -11 -6 3.3 1.3
3 -11 -6 2.4 1.2
3 11 6 3.3 0.9
-3 11 -6 4.6 1.3
-3 -11 6 4.4 1
-3 -11 6 2.8 1.1
-3 -11 6 2.8 1.3
3 11 6 2.1 0.9
-3 11 -6 1.3 1.2
3 11 6 4.1 1.2
-3 -11 6 4.1 1.1
-4 -11 -6 37.4 6.8
4 -11 6 45.6 7.1
-4 11 6 33.7 7
-4 -11 -6 34.5 6.8
-4 -11 -6 39.8 6.9
4 -11 6 38.5 7
4 11 -6 48.7 6.7
4 11 -6 46.3 6.7
4 11 6 44.7 6.7
-4 -11 6 46.6 6.7
-4 -11 6 52.49 6.8
-4 11 -6 43.7 7
4 11 6 47.4 7.1
4 -11 -6 27.6 6.8
4 11 6 37.6 7.2
-4 -11 6 41.3 6.7
-4 11 -6 36.3 7.1
-4 -11 6 47.6 6.7
4 11 6 44.6 6.7
-5 11 6 0.4 1.2
5 11 -6 0.5 0.6
-5 -11 -6 0.3 0.9
-5 -11 -6 0.1 0.9
5 -11 6 1.8 1.1
-5 11 6 0.9 1.3
5 11 -6 0.3 0.7
-5 -11 -6 2.7 0.9
5 -11 6 0.4 1.1
-5 -11 -6 1 1
5 -11 -6 1.3 1
5 11 6 -0.4 0.7
5 11 6 -0.2 0.5
-5 11 -6 -0.1 1.1
5 11 6 2.3 1
5 11 6 -0.1 1.3
5 -11 -6 0.6 1.1
-6 11 6 -0.8 1.3
-6 11 6 -1 1.2
6 -11 6 -1.8 0.9
6 -11 -6 -0.7 1
6 11 6 0.2 1.2
6 -11 -6 -0.9 1.1
6 11 6 -1.2 0.7
6 11 6 1.3 0.8
6 11 6 -0.6 0.6
7 -11 6 9.4 2.2
7 -11 6 8.7 2.2
7 11 6 9.5 2.3
7 -11 -6 7.3 2.1
7 11 6 11.9 2
-7 11 -6 9 2.4
-7 11 -6 12.7 2.5
0 -12 6 726.03 99.49
0 12 6 654.33 99.49
0 -12 6 580.54 99.49
0 12 -6 654.43 99.49
0 -12 6 720.83 99.49
0 12 6 595.14 99.49
0 -12 -6 559.44 99.49
0 12 -6 618.54 99.49
0 -12 -6 709.93 99.49
0 12 6 739.23 99.49
0 -12 6 576.24 99.49
0 12 -6 605.84 99.39
0 12 6 757.12 99.59
0 12 -6 675.63 99.49
1 -12 6 12.9 2.6
-1 -12 -6 16.8 3
1 12 -6 24.1 2.9
-1 12 6 12.7 2.8
1 12 -6 15.7 2.7
-1 -12 -6 17.3 2.7
1 12 -6 10.5 2.4
1 -12 6 18.5 2.8
-1 -12 -6 12.4 2.9
-1 12 6 17.7 3
-1 -12 -6 11.5 2.6
1 12 6 10.2 2.6
1 12 6 12.8 2.6
1 -12 -6 14.1 2.7
1 -12 -6 14.7 2.7
1 12 6 12.6 2.6
-1 -12 6 11.2 2.5
1 12 6 7.2 2.6
-1 -12 6 12.3 2.7
-1 -12 6 19.6 2.7
-1 12 -6 18.7 2.8
-1 12 -6 11.4 2.5
-1 12 -6 14.3 2.8
-1 -12 6 19.3 2.8
-2 -12 -6 155.08 24.3
2 12 -6 182.98 24.3
-2 -12 -6 146.59 24.2
2 12 -6 178.18 24.2
-2 -12 -6 150.68 24.2
-2 12 6 130.89 24.3
2 -12 6 148.69 24.3
-2 12 6 123.69 24.3
2 12 -6 163.08 24.2
2 12 -6 155.08 24.2
2 -12 6 175.88 24.3
-2 -12 -6 156.88 24.3
2 12 6 163.18 24.2
2 12 6 133.09 24.3
-2 -12 6 161.48 24.2
2 -12 -6 185.78 24.4
-2 -12 6 161.58 24.3
2 -12 -6 137.69 24.3
2 12 6 162.08 24.3
2 12 6 159.18 24.2
-2 12 -6 205.78 24.4
-2 -12 6 176.38 24.3
-2 -12 6 136.39 24.2
-3 -12 -6 4.9 1.5
-3 12 6 2.1 1.6
-3 12 6 5.9 1.7
-3 -12 -6 3.1 1.2
3 -12 6 4.6 1.4
3 12 -6 4.5 1.1
-3 -12 -6 5.4 1.3
3 12 -6 4.4 1.3
3 -12 6 4.5 1.5
3 12 -6 4.6 1.1
-3 -12 -6 6.2 1.5
3 12 -6 4.8 1.4
-3 12 -6 4.6 1.4
-3 12 -6 3.9 1.6
-3 -12 6 3.5 1.2
-3 -12 6 3.4 1.3
3 -12 -6 3.4 1.4
3 12 6 5.9 1.2
3 -12 -6 6.2 1.5
-3 -12 6 6.7 1.6
3 12 6 2.8 1.1
3 12 6 5.2 1.6
-3 -12 6 3.7 1.3
-4 12 6 4 1.4
-4 -12 -6 3.9 1.2
4 -12 6 3.2 1.4
-4 12 6 4.1 1.7
4 12 -6 4.2 1.1
4 12 -6 4.6 0.9
4 12 -6 4.4 0.9
-4 -12 -6 2.7 1.3
-4 -12 -6 3.6 1.4
4 -12 6 3.7 1.4
4 12 -6 4.5 1.2
-4 -12 -6 4.9 1.6
-4 -12 6 3.6 1.1
-4 -12 6 3.5 1.4
-4 -12 6 4.2 1.2
4 12 6 2.8 1
4 -12 -6 3.1 1.5
4 12 6 2.1 1.2
4 12 6 4 1.6
4 12 6 5.3 1.3
-4 12 -6 5.2 1.6
-4 -12 6 8.1 1.5
-4 12 -6 2.8 1.3
-5 -12 -6 17.1 2.9
-5 12 6 12.8 3.1
-5 -12 -6 17.1 2.9
5 -12 6 17.2 3.1
5 12 -6 18.6 2.7
-5 12 6 11.5 2.9
5 12 6 18.3 2.8
-5 12 -6 13.9 3
5 12 6 12.9 2.7
5 -12 -6 12.4 2.9
5 -12 -6 11.2 2.8
-5 12 -6 17.5 3.3
6 -12 6 -0.1 1.3
6 -12 6 -0.2 1.1
6 12 6 -0.6 1.3
6 12 6 -0.1 0.9
6 12 6 0.7 0.9
-6 12 -6 -0.3 1.1
-6 12 -6 -0.7 1.2
0 13 6 0.3 1
0 13 6 1.7 1.3
0 13 -6 -0.7 0.6
0 -13 -6 1.5 1
0 13 -6 0.8 0.8
0 -13 6 0.6 0.9
0 13 -6 -0.1 0.9
0 13 -6 0.9 1.1
0 -13 6 -0.2 0.8
0 -13 -6 0.1 1
1 13 -6 55.49 11
1 13 -6 86.99 11.1
1 -13 6 54.19 11
-1 -13 -6 60.69 11.1
1 13 -6 56.59 11
1 13 -6 89.79 11.2
-1 13 6 77.59 11.2
1 -13 6 80.79 11.1
-1 -13 -6 73.49 11.1
-1 13 -6 63.99 11.1
-1 -13 6 93.59 11.2
1 -13 -6 70.79 11.1
-1 13 -6 89.69 11.3
1 13 6 74.89 11.1
-1 -13 6 70.29 11.1
1 13 6 68.09 11
1 -13 -6 79.19 11.2
-1 -13 6 73.69 11.1
-1 -13 6 61.49 11.1
-2 -13 -6 4.1 1.3
-2 13 6 0.4 1.2
2 -13 6 4.3 1.4
2 13 -6 2.9 1.3
2 13 -6 3.8 1.1
2 -13 6 2 1.2
-2 -13 -6 1.5 1.1
2 13 -6 4.2 1.1
-2 13 6 4.4 1.7
-2 -13 -6 1.6 1.4
2 -13 -6 2.1 1.2
-2 -13 6 2 1.2
2 13 6 1.1 1.4
-2 -13 6 2 1.3
-2 -13 6 2.3 1.1
-2 -13 6 0.6 1
2 -13 -6 4.2 1.3
2 13 6 3.5 1.2
2 13 6 2.9 0.9
-2 13 -6 2.3 1.2
2 13 6 1.4 1
-3 -13 -6 40.7 6.4
3 13 -6 45 6.5
-3 13 6 29.6 6.5
3 13 -6 48.9 6.4
-3 -13 -6 54.19 6.6
-3 13 6 36 6.6
3 -13 6 41.4 6.6
3 -13 6 51.09 6.8
3 13 -6 33.6 6.1
3 13 -6 46.9 6.2
-3 -13 -6 37.7 6.5
-3 -13 -6 39.7 6.5
-3 13 -6 31.4 6.4
-3 -13 6 36.2 6.4
-3 -13 6 55.39 6.6
3 -13 -6 29.1 6.3
3 13 6 37.4 6.6
-3 -13 6 36.7 6.3
-3 13 -6 39.2 6.6
3 -13 -6 30.7 6.4
3 13 6 42 6.2
3 13 6 35.2 6.3
-4 -13 -6 4.2 1.3
4 13 -6 3.9 1
4 -13 6 4 1.4
4 13 -6 4.7 1.2
4 13 -6 5.6 1.1
-4 13 6 5 1.8
-4 -13 -6 3 1.3
4 -13 6 7.4 1.8
-4 -13 -6 4.7 1.5
-4 -13 -6 3.9 1.4
-4 13 6 5.6 1.6
4 13 -6 4.9 1.4
4 13 6 4.1 1.1
-4 -13 6 6.8 1.5
4 -13 -6 5.5 1.7
-4 -13 6 3.6 1.2
-4 13 -6 3.5 1.6
4 13 6 5 1.7
-4 13 -6 5.9 1.6
4 -13 -6 4 1.5
4 13 6 2.9 1.1
5 13 -6 -0.4 0.8
-5 -13 -6 1.1 0.9
5 13 -6 1.4 0.9
5 -13 6 -0.8 1
-5 -13 -6 2.2 1.2
5 -13 6 0.4 1.1
5 13 6 1.7 0.8
5 13 6 2.3 1.4
-5 13 -6 2.8 1.5
5 13 6 0.7 1
-5 13 -6 0.2 1.1
5 13 6 -0.6 0.8
-6 13 6 2.6 1.8
6 13 -6 4.8 1.1
6 13 -6 6.2 1.1
6 -13 6 3.6 1.4
6 -13 6 5.5 1.7
-6 13 -6 2.6 1.5
-6 13 -6 3.5 1.7
6 -13 -6 1.9 1.5
6 13 6 3.5 1.1
6 -13 -6 4.7 1.5
6 13 6 4.4 1.3
0 14 -6 15.8 2.9
0 -14 -6 10.9 2.9
0 14 6 19.7 3.2
0 -14 6 16.1 2.9
0 -14 -6 18.8 3
0 -14 6 15.7 2.8
0 14 6 12.8 3
0 14 -6 11.1 2.8
-1 14 6 8.8 1.9
1 14 -6 7.1 1.6
-1 -14 -6 7.4 1.8
1 14 -6 6.6 1.8
1 -14 6 5.1 1.7
1 14 -6 10.8 1.9
-1 14 6 7.6 2.1
-1 -14 -6 7.4 1.7
1 -14 6 7 1.9
1 14 -6 6.2 1.5
-1 14 -6 6.8 1.9
-1 -14 6 7.7 2.1
1 -14 -6 6.5 1.8
1 -14 -6 6.8 1.8
-1 -14 6 7.1 1.7
1 14 6 7.8 2.1
-1 14 -6 7 1.8
-1 -14 6 4.9 1.6
1 14 6 4.4 1.6
-2 -14 -6 69.59 9.7
2 14 -6 54.49 9.6
-2 14 6 45.7 9.8
-2 14 6 58.79 9.9
2 -14 6 60.49 9.9
2 -14 6 58.79 9.7
2 14 -6 71.69 9.7
-2 -14 -6 70.19 9.7
-2 -14 6 66.89 9.9
2 14 6 56.69 9.5
-2 14 -6 71.39 9.8
2 14 6 64.19 9.7
-2 -14 6 61.49 9.8
-2 -14 6 59.49 9.6
-2 14 -6 63.59 9.9
2 -14 -6 65.49 9.9
2 -14 -6 52.89 9.8
-2 -14 6 61.29 9.6
2 14 6 52.09 9.8
3 -14 6 0.5 1.1
3 14 -6 0.2 0.8
3 -14 6 0.5 1.2
-3 -14 -6 0.4 1
3 14 -6 -0.4 0.6
-3 14 6 0 1.1
3 14 -6 1 1.1
-3 -14 -6 -0.6 0.9
-3 14 6 0.4 1.3
3 14 -6 2.3 0.8
3 -14 -6 1.3 1.2
-3 -14 6 0.2 1.3
3 14 6 0.4 0.7
3 14 6 -1.7 1.3
-3 -14 6 0.1 0.9
3 -14 -6 0.4 1.1
-3 -14 6 0.9 1
3 14 6 0.9 0.8
-3 14 -6 -0.1 1.1
-3 -14 6 0.1 0.9
-3 14 -6 -1.2 1.2
4 14 -6 0.9 0.8
-4 -14 -6 1.2 1
4 14 -6 1.2 0.7
-4 -14 -6 0.5 1.2
4 14 -6 1.8 1.1
-4 -14 -6 0.2 1
4 14 6 0.3 0.8
4 14 6 2.3 1.2
4 14 6 2 1.4
5 14 -6 16.6 2.3
5 -14 6 10.3 2.5
-5 14 6 11 2.5
-5 14 6 6.5 2.4
5 -14 6 11.4 2.4
5 14 -6 13.5 2.1
-5 14 -6 11.4 2.5
5 14 6 12.3 2.6
5 -14 -6 6.8 2.2
-5 14 -6 6 2.3
5 -14 -6 11 2.5
5 14 6 11.4 2.1
5 14 6 12 2.3
0 15 6 3.7 1.6
0 15 -6 -0.8 1.2
0 -15 6 -0.9 0.8
0 -15 6 1 1.1
0 -15 -6 0.4 0.9
0 -15 -6 1.1 1.1
0 15 -6 -0.3 1
0 15 6 1 1.2
-1 -15 -6 3.3 1.2
-1 -15 -6 2.7 1.2
1 15 -6 2.4 1.1
1 -15 6 3.1 1.5
1 -15 6 0.5 1.1
1 15 -6 3.1 1
-1 15 6 2.5 1.4
1 15 -6 -0.2 1.2
-1 15 6 3.8 1.8
1 15 6 1.9 1.5
1 -15 -6 0.4 1.2
-1 15 -6 1.5 1.3
1 -15 -6 1.2 1.1
1 15 6 2.5 1.3
-1 -15 6 1.4 1.1
-1 -15 6 1.7 1.1
-1 15 -6 2.6 1.2
-2 15 6 19.6 3.5
2 -15 6 17.9 3.3
2 15 -6 15.5 3.1
2 15 -6 22.4 3.4
2 15 -6 14.7 3
2 15 -6 22.5 3.4
-2 -15 -6 16.2 3.2
-2 15 6 16 3.5
-2 -15 -6 21.7 3.5
2 -15 6 14.6 3.3
-2 -15 6 22.1 3.3
-2 15 -6 20.1 3.5
2 -15 -6 14.9 3.4
-2 15 -6 18 3.4
2 -15 -6 12.4 3.2
-2 -15 6 17.6 3.2
2 15 6 15 3.4
2 15 6 16.4 3.4
-2 -15 6 18.1 3.4
3 15 -6 12.7 2.2
-3 15 6 6.8 2.2
-3 15 6 5.3 2.1
3 15 -6 6.1 1.8
-3 -15 -6 9.9 2
-3 -15 -6 8.2 2
3 15 -6 10.1 1.8
-3 -15 6 11.4 2
3 -15 -6 9.7 2.2
3 15 6 6 1.9
3 15 6 9.3 2.3
-3 -15 6 4.3 2
3 -15 -6 8.8 2.1
-3 -15 6 9.4 2.1
-3 -15 6 10.8 2
-4 15 6 -0.9 1.4
4 15 -6 0.8 0.8
4 -15 6 0.7 1.2
4 15 -6 0 0.7
-4 -15 -6 2 1.2
-4 15 6 4.8 1.8
-4 -15 -6 0.4 1.1
4 15 -6 0 0.8
4 -15 6 0.6 1.3
4 15 -6 5 2.2
4 15 6 0.6 0.8
4 15 6 2.1 1.6
4 -15 -6 0.2 1.1
4 -15 -6 -0.8 1.1
-4 15 -6 0.7 1.2
-4 15 -6 3.6 1.6
4 15 6 1.1 1.3
5 -15 6 7.6 1.9
5 -15 6 6.7 1.9
-5 15 6 5.4 2
5 15 -6 6.4 1.6
5 15 -6 9.8 1.8
-5 15 6 9.2 2.2
-5 15 -6 6.3 1.9
-5 15 -6 2.7 1.8
5 15 6 11.9 2.4
5 -15 -6 5.9 1.8
5 15 6 5.7 1.5
5 15 6 6.4 1.5
0 -16 -6 28 4.8
0 16 -6 28.4 4.9
0 16 6 26 5
0 -16 -6 30.1 4.8
0 16 6 25.3 4.8
0 -16 6 19.2 4.6
0 16 -6 37 4.9
0 -16 6 31.2 4.8
1 -16 6 124.69 16.8
-1 16 6 95.69 16.7
1 16 -6 120.89 16.8
1 16 -6 97.09 16.6
1 -16 6 110.39 16.7
-1 -16 -6 102.19 16.7
-1 -16 -6 122.09 16.7
-1 -16 6 113.99 16.7
-1 -16 6 105.89 16.7
1 16 6 114.39 16.8
-1 16 -6 93.29 16.7
-1 16 -6 116.29 16.7
1 16 6 88.79 16.7
-2 16 6 31.9 6.1
2 16 -6 37.8 6
2 16 -6 31.8 5.9
-2 16 6 26.2 6.1
2 16 -6 31.9 6.1
-2 -16 -6 44 6.2
-2 -16 -6 35.3 6
-2 -16 6 40.7 6.2
2 -16 -6 36.9 6.2
2 16 6 37.1 6.2
2 16 6 39.7 6.4
2 -16 -6 34.5 6.1
-2 -16 6 50.79 6.3
-3 -16 -6 1.3 1.1
-3 16 6 3.1 1.7
-3 16 6 1.1 1.5
3 16 -6 1.4 0.9
3 16 -6 1.2 1.4
3 16 -6 3.7 1
3 -16 6 3.6 1.4
3 -16 6 -0.3 1.2
-3 -16 -6 3.3 1.3
3 16 -6 0.3 1
-3 -16 6 2.2 1.5
3 -16 -6 2.6 1.4
-3 16 -6 1.6 1.5
-3 16 -6 0 1.2
3 16 6 1.6 1.6
3 16 6 2.6 1.4
-3 -16 6 2.4 1.1
3 -16 -6 5.1 1.5
-4 16 6 0.5 1.4
4 16 -6 0.9 0.8
4 16 -6 1.5 0.8
4 16 -6 2.2 1.1
4 -16 6 -0.4 1.3
-4 -16 -6 0.5 1.1
4 -16 6 0.9 1.3
4 16 -6 1.2 1.3
-4 16 6 -2.1 1.4
4 16 6 0.4 1.6
4 16 6 -0.8 1.2
-4 16 -6 0.9 1.3
-4 16 -6 1.8 1.6
4 -16 -6 1.4 1.3
4 16 6 -0.3 0.8
4 -16 -6 0.1 1.2
0 -17 6 0 1.1
0 -17 6 -0.2 0.9
0 17 6 1.5 2.1
0 17 -6 -1.6 1
0 17 -6 2.8 1.6
-1 -17 -6 0.5 1.1
-1 17 6 3.1 1.5
1 17 -6 1.1 1.5
1 17 -6 0 1.3
-1 -17 -6 1 1.3
-1 17 6 -0.3 1.4
1 -17 -6 1.6 1.4
-1 -17 6 2.6 1.2
-1 -17 6 0.9 1.2
1 17 6 -1.3 1.6
1 17 6 0.6 1.3
1 -17 -6 3.2 1.3
2 -17 6 0 1.2
-2 -17 -6 -1.1 1.1
2 -17 6 -0.3 1.1
2 17 -6 -1.1 1.2
-2 -17 -6 0 1
-2 17 6 0.6 1.4
2 17 -6 0.4 1
2 -17 -6 -1 1.2
2 17 6 0 1.5
-2 -17 6 1.7 1.2
2 -17 -6 1 1.4
-2 17 -6 2.9 1.4
-2 17 -6 0.3 1.4
-2 -17 6 0.2 1
-3 -17 -6 3.2 1.5
3 -17 6 2.4 1.5
-3 -17 -6 4.4 1.8
-3 17 6 5.3 1.8
3 17 -6 3.4 1.2
3 -17 6 5.9 1.7
3 17 -6 3.1 1.2
3 17 -6 4.9 1.7
-3 17 6 3.9 1.9
3 -17 -6 3.7 1.5
3 17 6 4.1 1.8
-3 17 -6 1.9 1.7
3 -17 -6 4.5 1.7
3 17 6 3.2 1.5
-3 17 -6 2.8 1.4
0 -18 -6 1 1.4
0 -18 -6 0.9 1.2
0 18 -6 -0.3 1.1
0 18 6 1 1.5
0 18 6 -0.1 1.4
0 -18 6 -0.7 1
-1 -18 -6 1.9 1.4
1 -18 6 1.3 1.3
-1 -18 6 1.4 1.4
1 -18 -6 3.6 1.5
0 0 7 -0.3 0.5
0 0 -7 0.1 0.6
0 0 7 0.1 0.6
0 0 7 0.4 0.6
0 0 -7 0.2 0.6
0 0 -7 0.1 0.5
0 0 7 -1 0.7
0 0 -7 0 0.6
1 0 -7 0.3 0.5
1 0 7 0.8 0.6
1 0 7 0 0.5
1 0 -7 0.1 0.5
-1 0 7 0.1 0.6
-1 0 -7 0.9 0.6
1 0 -7 0.1 0.6
-1 0 -7 0.2 0.6
-1 0 7 -0.2 0.6
1 0 7 0.2 0.5
-1 0 -7 -0.7 0.5
-1 0 -7 0.4 0.7
-1 0 7 -0.4 0.5
1 0 -7 0.8 0.5
-1 0 7 -0.1 0.6
1 0 7 0.4 0.6
-2 0 7 0.1 0.6
-2 0 -7 -0.4 0.6
2 0 -7 -0.2 0.5
-2 0 7 0.2 0.6
2 0 -7 -1.6 0.5
2 0 7 -1 0.6
-2 0 7 -0.1 0.5
-2 0 -7 -0.1 0.6
2 0 -7 0 0.4
2 0 7 -0.4 0.6
-2 0 7 -1.8 0.6
2 0 -7 0.2 0.5
3 0 7 0.6 0.6
-3 0 7 -0.8 0.5
3 0 7 0.4 0.7
3 0 7 -0.3 0.4
-3 0 7 -0.1 0.5
3 0 7 -0.1 0.4
-3 0 7 -0.3 0.5
-3 0 -7 0.3 0.6
3 0 -7 0.1 0.5
3 0 -7 0 0.4
3 0 -7 0 0.5
-3 0 -7 -0.3 0.6
3 0 -7 0.1 0.6
-3 0 7 0 0.7
-3 0 -7 0.7 0.6
-3 0 -7 0.5 0.6
-4 0 -7 0.2 0.6
4 0 -7 0.2 0.5
-4 0 7 0.4 0.5
4 0 7 0.9 0.5
4 0 -7 0.3 0.4
-4 0 -7 0.4 0.6
4 0 -7 0.4 0.6
-4 0 -7 -0.1 0.6
-4 0 7 0.4 0.5
4 0 -7 0.5 0.6
4 0 7 -0.3 0.5
-4 0 7 -0.4 0.6
4 0 7 -0.1 0.5
-4 0 7 -0.4 0.7
-5 0 7 0.5 0.6
5 0 -7 -0.6 0.6
5 0 -7 0.2 0.5
5 0 7 0.1 0.7
5 0 -7 0.5 0.4
-5 0 -7 0.7 0.7
-5 0 7 -0.9 0.8
5 0 7 -0.3 0.5
5 0 -7 -0.3 0.6
-5 0 -7 0 0.7
5 0 7 -0.3 0.6
-5 0 7 0 0.8
5 0 7 0.1 0.5
-5 0 -7 0.8 0.6
-5 0 -7 -0.3 0.6
-6 0 -7 0.5 0.7
-6 0 7 0.1 0.8
-6 0 -7 -0.4 0.7
-6 0 -7 -0.7 0.7
-6 0 7 0.7 0.8
-6 0 7 0.6 0.6
6 0 7 0.1 0.6
6 0 -7 1.6 0.8
6 0 7 -0.5 0.6
-6 0 -7 -0.2 0.8
6 0 7 0.1 0.8
6 0 7 0.7 0.7
-7 0 7 -0.1 0.7
7 0 7 0.1 0.7
7 0 7 -0.6 0.7
7 0 7 0.5 0.8
-7 0 7 1.4 1
-7 0 -7 0.3 0.9
-7 0 7 -1 0.8
7 0 -7 0.4 0.9
-7 0 7 0 0.7
-7 0 -7 0.5 0.8
8 0 7 -1.3 0.8
-8 0 -7 0.2 0.8
8 0 7 -0.1 1
8 0 -7 -1.7 0.8
8 0 -7 0.7 1
8 0 7 0.2 0.8
-8 0 -7 -0.5 0.9
8 0 7 1.3 1
-8 0 -7 2.7 1.1
-8 0 -7 0.7 0.9
9 0 7 -2.1 0.9
9 0 -7 -0.2 1.1
9 0 -7 -2.3 0.9
9 0 7 1 1
9 0 7 0.7 1.1
0 1 -7 0.6 0.6
0 -1 -7 -0.1 0.7
0 1 7 -0.3 0.6
0 1 -7 0.1 0.5
0 -1 -7 0.3 0.6
0 1 -7 -0.1 0.5
0 1 7 1.1 0.6
0 -1 7 -0.7 0.6
0 1 7 -0.2 0.6
0 1 7 0.1 0.7
0 -1 7 0 0.6
0 -1 -7 -0.3 0.6
0 -1 7 -0.6 0.6
0 -1 -7 0.1 0.6
0 -1 7 0.3 0.6
1 -1 7 65.09 10
-1 1 7 71.29 9.9
-1 -1 -7 71.79 10
-1 -1 -7 56.69 10
-1 1 7 47.9 9.9
1 -1 7 59.29 9.9
1 1 -7 63.69 9.9
-1 1 7 58.79 10
-1 -1 -7 60.79 9.9
-1 -1 -7 63.89 10
1 -1 7 53.49 9.9
1 -1 7 68.99 10
-1 1 7 68.09 10
-1 -1 7 67.19 9.9
-1 -1 7 56.29 9.9
-1 -1 7 68.09 9.9
-1 1 -7 59.39 10
1 1 7 73.69 10
-1 1 -7 77.39 10
1 1 7 67.29 9.9
1 1 7 64.59 10
1 1 7 61.89 9.9
1 -1 -7 69.29 10
1 -1 -7 69.59 9.9
-1 1 -7 64.29 10
1 -1 -7 68.49 9.9
-1 -1 7 67.89 9.9
-1 1 -7 72.39 10
1 -1 -7 62.59 9.9
-2 -1 -7 -0.2 0.6
2 1 -7 1.3 0.5
-2 1 7 0.9 0.6
-2 1 7 0.9 0.6
2 -1 7 1 0.6
2 -1 7 0.2 0.7
2 1 -7 1.1 0.5
2 1 -7 0.6 0.6
-2 1 7 -0.5 0.8
-2 1 7 0.6 0.7
2 1 -7 1.3 0.4
-2 -1 -7 0 0.7
2 -1 -7 0.9 0.5
-2 -1 7 0.9 0.5
2 -1 -7 0.4 0.6
-2 -1 7 0.6 0.6
-2 1 -7 0.3 0.6
-2 -1 7 0.4 0.6
2 -1 -7 0.4 0.7
2 1 7 -0.3 0.5
-2 1 -7 0.5 0.6
-2 -1 7 0.1 0.5
2 -1 -7 -0.8 0.5
2 1 7 0.5 0.6
-3 1 7 6.1 1.2
-3 1 7 4.3 0.9
-3 1 7 3.7 0.9
-3 1 7 2.4 0.8
-3 -1 -7 3 0.9
3 -1 7 2.9 0.8
3 1 -7 3.9 0.8
3 1 -7 2.3 0.6
3 -1 7 2.7 0.9
3 1 -7 3.2 0.7
3 -1 7 2.9 1
-3 -1 -7 3.5 0.9
3 1 -7 3 0.7
3 -1 7 2.4 0.8
-3 -1 -7 3.4 1
-3 -1 7 3.8 0.9
3 1 7 2.9 0.9
-3 -1 7 4.2 0.8
-3 -1 7 1.6 0.8
-3 1 -7 2.8 0.9
-3 1 -7 2.1 0.9
3 1 7 2.8 0.8
-3 1 -7 3.9 0.9
3 -1 -7 3.3 0.7
-3 1 -7 2.9 0.9
3 -1 -7 3 0.9
3 -1 -7 4.4 0.9
3 1 7 3.7 0.8
3 -1 -7 2.7 0.9
-4 -1 -7 48.3 7.4
4 -1 7 44.8 7.4
-4 -1 -7 49.2 7.4
-4 1 7 50.19 7.5
4 1 -7 50.29 7.4
4 -1 7 51.69 7.5
-4 1 7 49.9 7.5
4 1 -7 53.79 7.4
-4 -1 -7 46.7 7.4
4 -1 7 50.49 7.4
-4 -1 -7 47.8 7.4
4 -1 -7 43.4 7.4
-4 1 -7 50.59 7.5
-4 1 -7 56.89 7.5
4 1 7 49.2 7.4
-4 -1 7 42.1 7.4
4 -1 -7 43.5 7.4
4 -1 -7 43 7.4
4 1 7 44.3 7.4
-4 1 -7 47.9 7.4
4 -1 -7 51.29 7.4
-4 -1 7 45.8 7.4
4 1 7 49.7 7.4
4 1 7 45.1 7.4
-4 -1 7 48.3 7.4
-4 1 -7 45.4 7.5
-4 -1 7 49 7.4
5 -1 7 11.1 1.8
-5 1 7 7.3 1.7
-5 -1 -7 6.2 1.5
5 -1 7 7.4 1.6
-5 -1 -7 8.1 1.7
-5 1 7 9.5 1.6
-5 -1 -7 10.4 1.7
-5 1 7 8.5 1.8
5 -1 7 7.4 1.6
5 1 -7 9.3 1.6
5 1 -7 5.9 1.5
5 -1 7 7.5 1.6
-5 -1 -7 10.2 1.7
-5 1 -7 10.1 1.8
-5 1 -7 5.9 1.6
-5 -1 7 11.6 1.7
5 -1 -7 7.9 1.6
-5 1 -7 6.7 1.7
5 1 7 9.6 1.7
5 -1 -7 8 1.5
5 1 7 8.7 1.6
-5 -1 7 9.7 1.6
5 -1 -7 8 1.6
5 1 7 12.4 1.7
-5 -1 7 8.7 1.5
5 1 7 9.1 1.6
-5 1 -7 7.8 1.7
-5 -1 7 9.9 1.5
-6 1 7 7.2 1.5
-6 -1 -7 7.2 1.5
6 1 -7 7.2 1.3
6 -1 7 4.9 1.3
-6 1 7 6.5 1.4
6 -1 7 6.4 1.4
-6 1 7 5.8 1.5
-6 -1 -7 5.8 1.3
-6 -1 -7 8.7 1.5
6 -1 7 7.8 1.6
-6 1 7 6.7 1.4
-6 -1 -7 6.3 1.4
-6 1 -7 8 1.5
-6 -1 7 5.5 1.4
6 1 7 5.7 1.4
6 -1 -7 5.4 1.4
-6 -1 7 5.7 1.4
6 1 7 9.1 1.5
-6 1 -7 6.4 1.5
6 -1 -7 8.5 1.5
-6 -1 7 7.8 1.4
-6 -1 7 6 1.3
-6 1 -7 5.7 1.5
6 1 7 6.2 1.4
6 -1 -7 7 1.5
6 1 7 6.3 1.4
7 1 -7 35.4 6.4
-7 1 7 41.9 6.7
7 1 -7 38.6 6.4
7 -1 7 45.6 6.8
-7 1 7 42.7 6.5
7 -1 7 48.7 6.6
-7 1 7 45.3 6.5
-7 -1 -7 42.3 6.5
-7 1 7 37.5 6.6
7 -1 7 38.4 6.6
-7 -1 -7 45.9 6.5
-7 -1 -7 26.8 6.5
7 -1 -7 41.4 6.6
7 -1 -7 44.4 6.4
7 -1 -7 38.8 6.4
-7 -1 7 39.7 6.5
-7 1 -7 34.9 6.6
-7 1 -7 44.5 6.7
7 1 7 42.2 6.5
-7 1 -7 40.9 6.6
7 -1 -7 42.8 6.6
7 1 7 41.9 6.4
-7 -1 7 43.6 6.6
-7 -1 7 44.9 6.4
7 1 7 47.4 6.9
-7 1 -7 41.9 6.6
8 1 -7 13.5 2
8 -1 7 9.2 2.1
-8 -1 -7 12.4 2.1
8 -1 7 13.8 2.3
-8 -1 -7 10.6 2.1
-8 -1 -7 6.1 1.9
-8 -1 -7 9.4 2.1
8 -1 7 10 2.1
8 -1 7 11.2 2.7
-8 1 -7 9 2.1
-8 1 -7 11 2.1
8 1 7 9.8 2.1
8 1 7 11.7 2
8 1 7 9.4 2
8 -1 -7 9 2.1
8 -1 -7 9.7 2.1
-8 1 -7 9.4 2.1
8 1 7 10.7 2
9 1 -7 7.7 1.6
9 -1 7 6.8 1.8
9 -1 7 7.4 1.9
9 -1 -7 10 1.9
9 1 7 7.2 1.7
9 1 7 9.6 1.9
9 1 7 6.4 1.6
9 -1 -7 6.6 1.9
9 1 7 8.3 1.8
0 2 7 19.3 2.8
0 2 -7 16.5 2.7
0 2 -7 12.4 2.6
0 2 7 11.9 2.6
0 -2 -7 13.3 2.6
0 2 -7 29.6 2.9
0 -2 7 17.2 2.7
0 -2 -7 12.6 2.6
0 -2 7 18.7 2.7
0 2 7 18.6 2.7
0 2 7 13 2.7
0 -2 -7 11.2 2.6
0 2 -7 21.1 2.7
0 -2 -7 20.3 2.8
0 -2 7 17.5 2.7
0 -2 7 22.3 2.7
-1 2 7 33.9 5.4
-1 -2 -7 33.9 5.4
-1 2 7 32.2 5.4
1 -2 7 30.1 5.3
1 2 -7 34.8 5.3
1 2 -7 31.6 5.3
-1 -2 -7 34.3 5.4
-1 -2 -7 34.7 5.3
1 -2 7 33.2 5.4
-1 2 7 38 5.3
1 2 -7 37.8 5.3
-1 -2 -7 33.7 5.4
1 2 -7 28.8 5.3
-1 2 7 34.4 5.4
-1 2 -7 33.6 5.4
1 -2 -7 41.6 5.4
-1 2 -7 32.2 5.3
-1 -2 7 36.9 5.3
1 2 7 29.9 5.3
1 -2 -7 34.3 5.4
-1 -2 7 36.2 5.3
1 2 7 33.7 5.4
1 2 7 32.1 5.3
-1 -2 7 42.3 5.3
1 2 7 34.3 5.4
1 -2 -7 33.6 5.3
1 -2 -7 31.5 5.4
-1 -2 7 35.1 5.3
2 -2 7 49.3 9.5
2 2 -7 57.89 9.5
2 -2 7 55.99 9.5
2 2 -7 63.89 9.5
2 2 -7 63.99 9.5
2 -2 7 59.49 9.5
-2 2 7 59.59 9.6
-2 2 7 66.29 9.6
2 -2 7 59.09 9.5
-2 -2 -7 55.19 9.5
-2 2 7 52.29 9.5
2 2 -7 63.49 9.5
-2 -2 7 72.89 9.5
-2 -2 7 65.09 9.5
-2 -2 7 63.89 9.5
-2 2 -7 54.99 9.5
-2 2 -7 66.19 9.6
-2 -2 7 65.09 9.5
2 -2 -7 66.99 9.6
-2 2 -7 67.69 9.6
-2 2 -7 67.09 9.5
2 -2 -7 57.89 9.5
2 -2 -7 63.19 9.6
2 2 7 62.79 9.5
2 -2 -7 62.19 9.6
3 2 -7 68.59 9.9
3 2 -7 67.69 9.9
-3 -2 -7 70.49 9.9
-3 2 7 70.89 10
3 -2 7 60.69 10
-3 -2 -7 62.79 9.9
-3 2 7 61.89 10
-3 -2 -7 65.59 9.9
-3 -2 -7 56.29 9.9
3 2 7 64.09 9.9
-3 -2 7 60.49 9.9
-3 -2 7 66.69 9.9
-3 2 -7 58.39 10
-3 -2 7 62.89 9.9
3 2 7 62.89 9.9
3 -2 -7 63.79 10
3 -2 -7 71.29 9.9
-3 2 -7 68.19 10
-3 -2 7 64.09 9.9
3 2 7 56.99 9.9
-3 2 -7 60.49 10
-3 2 -7 70.59 10
3 -2 -7 66.09 9.9
-4 2 7 121.89 19
-4 2 7 122.49 18.9
-4 2 7 122.79 18.9
-4 -2 -7 109.79 18.9
4 2 -7 127.49 18.8
4 -2 7 115.19 18.9
4 -2 7 121.69 18.9
4 2 -7 118.39 18.8
-4 -2 -7 113.89 18.9
-4 -2 -7 124.49 18.9
-4 2 7 126.49 19
4 -2 7 118.99 18.9
4 -2 7 131.99 19
-4 -2 -7 112.89 18.9
-4 -2 7 129.59 18.8
-4 -2 7 125.99 18.9
-4 2 -7 113.69 18.9
-4 2 -7 116.09 18.9
4 -2 -7 140.39 19
4 -2 -7 149.59 18.9
-4 -2 7 127.59 18.8
4 2 7 118.99 18.9
-4 2 -7 133.59 19
-4 2 -7 114.09 18.9
4 2 7 120.59 18.9
4 2 7 128.89 18.9
-4 -2 7 127.59 18.8
4 -2 -7 124.09 18.9
5 -2 7 35.8 5.1
-5 -2 -7 32.4 5
-5 -2 -7 33.9 4.9
-5 2 7 37.2 5.2
5 2 -7 26.4 4.8
-5 2 7 26.6 5
5 -2 7 40.9 5.2
-5 -2 -7 31.5 5
-5 2 7 37.4 5.1
5 -2 7 31.2 5
-5 2 7 27.2 4.9
5 2 -7 32.2 4.8
5 -2 7 30.1 5
5 -2 -7 31.8 5
-5 2 -7 29.7 5
5 2 7 30.7 5
-5 -2 7 27.9 4.8
5 -2 -7 29.3 4.9
-5 2 -7 28.9 5
-5 -2 7 29.8 4.8
5 2 7 30.3 4.9
-5 -2 7 32.9 4.8
-5 -2 7 31.8 4.9
-5 2 -7 32.9 5.2
-5 2 -7 36.1 5.1
-6 -2 -7 12.1 2.6
-6 -2 -7 16.2 2.6
-6 2 7 12.5 2.7
6 2 -7 16.7 2.5
6 -2 7 15.7 2.8
6 -2 7 13.2 2.7
-6 2 7 11.7 2.6
-6 2 7 19.6 2.8
6 -2 7 15.8 2.7
-6 2 7 14.6 2.6
-6 -2 -7 16.7 2.7
6 2 7 14.9 2.6
6 -2 -7 13.7 2.6
-6 -2 7 16 2.4
-6 2 -7 17.1 2.8
-6 -2 7 13.4 2.4
6 2 7 13.7 2.5
6 -2 -7 14.4 2.8
-6 2 -7 17.4 2.8
6 -2 -7 12.1 2.6
-6 -2 7 16.9 2.6
-6 -2 7 14.7 2.5
6 2 7 15.1 2.6
6 2 7 18.7 2.7
-7 -2 -7 4.8 1.2
-7 2 7 3.6 1.3
-7 2 7 2.6 1.1
7 -2 7 3.4 1.2
-7 -2 -7 4.4 1.1
7 -2 7 3.4 1.1
7 -2 7 4.5 1.1
-7 -2 -7 3.2 1
-7 2 7 3.4 1.2
7 2 -7 2.8 0.9
7 -2 7 3.7 1.3
-7 2 7 3.1 1.1
7 2 7 3.2 1
7 -2 -7 3.9 1.2
7 -2 -7 3.5 1.2
7 2 7 3.8 1.1
7 2 7 2.6 1
-7 2 -7 3 1.1
-7 2 -7 3.3 1.1
-7 2 -7 3.5 1.1
7 2 7 3.6 1
-7 2 -7 3.8 1.4
7 -2 -7 3.8 1
8 2 -7 11.7 2.4
8 -2 7 12.5 2.7
8 -2 7 15 2.8
8 2 -7 15.4 2.5
8 -2 7 14.6 2.6
-8 -2 -7 18.3 2.7
8 -2 -7 13.9 2.5
8 -2 -7 16.4 2.8
8 2 7 18.9 2.8
-8 2 -7 13.9 2.7
-8 2 -7 16.5 2.8
8 2 7 13.2 2.5
8 -2 -7 12.1 2.6
8 2 7 14.1 2.6
-8 2 -7 14.4 2.7
9 -2 7 -1.2 0.9
9 -2 7 1 1
9 -2 7 0.3 0.9
9 -2 -7 -0.3 1.2
9 2 7 1.2 1
9 -2 -7 -0.3 0.8
9 2 7 -1.4 0.9
9 2 7 0.6 1
9 2 7 0.5 0.8
0 3 -7 0 0.6
0 3 7 -1 0.7
0 -3 -7 -0.5 0.7
0 -3 7 0.6 0.6
0 -3 7 -0.5 0.6
0 3 -7 -0.1 0.5
0 3 7 -0.6 0.8
0 -3 7 0.9 0.6
0 3 -7 0.5 0.6
0 -3 -7 0.2 0.6
0 3 -7 -0.5 0.5
0 -3 7 0.4 0.6
-1 -3 -7 362.76 63.29
1 3 -7 414.66 63.29
1 3 -7 416.46 63.29
-1 3 7 375.56 63.29
1 -3 7 417.36 63.29
1 3 -7 467.25 63.29
1 3 -7 373.06 63.29
-1 3 7 446.86 63.29
-1 -3 -7 419.56 63.29
1 -3 7 377.16 63.29
-1 3 -7 371.26 63.29
-1 -3 7 436.26 63.29
-1 -3 7 447.16 63.29
-1 3 -7 400.26 63.29
-1 -3 7 479.55 63.29
1 3 7 439.16 63.29
1 3 7 443.36 63.29
-1 -3 7 415.76 63.29
1 -3 -7 395.86 63.29
2 -3 7 41 7.2
-2 3 7 45.3 7.3
-2 -3 -7 47.2 7.2
-2 3 7 48.4 7.2
2 3 -7 44.4 7.1
2 3 -7 46.1 7.1
2 -3 7 41.7 7.2
2 -3 7 51.09 7.2
2 -3 7 41.7 7.2
2 3 -7 43.2 7.1
2 3 -7 47.8 7.1
-2 -3 -7 48.6 7.2
-2 3 7 44.6 7.2
-2 3 7 51.09 7.2
-2 3 -7 46.8 7.2
-2 -3 7 50.99 7.1
-2 -3 7 47.3 7.1
2 3 7 52.59 7.2
-2 3 -7 46.8 7.2
-2 3 -7 47.1 7.2
2 3 7 45.7 7.2
-2 3 -7 49.9 7.2
-2 -3 7 41.3 7.1
-3 -3 -7 29.6 5
-3 3 7 45.6 5.3
-3 -3 -7 37.3 5.1
-3 3 7 32.1 5
3 -3 7 40.2 5.2
3 3 -7 29.4 4.9
-3 3 7 29.6 5.1
-3 -3 -7 30.7 5
-3 3 7 31.6 5.2
3 -3 7 36 5.1
3 3 -7 31 4.9
3 -3 7 33 5.1
3 3 7 30 5
3 3 7 28.5 5
3 -3 -7 26.4 5
-3 -3 7 32.4 4.9
-3 3 -7 37.6 5.1
-3 -3 7 33.3 4.9
3 -3 -7 21.4 5
-3 -3 7 33.4 4.9
-3 3 -7 46.1 5.3
3 3 7 32.7 5
-3 3 -7 33.4 5.2
-3 -3 7 29.6 4.9
-3 3 -7 26 5.1
3 -3 -7 35 5.2
3 -3 -7 35 5.1
-4 3 7 5.5 1.8
4 -3 7 9.3 1.7
4 -3 7 6.5 1.7
-4 3 7 8.8 1.7
4 -3 7 8.4 1.7
-4 3 7 14.2 1.9
-4 -3 -7 8.8 1.7
-4 3 7 10.1 1.9
-4 -3 -7 7.5 1.6
-4 -3 -7 11.2 1.8
4 -3 7 8.1 1.8
-4 -3 -7 13.5 1.8
4 -3 -7 9.6 1.7
-4 3 -7 6.4 1.7
4 3 7 8.9 1.6
4 -3 -7 11.1 1.9
-4 3 -7 9.1 1.8
4 -3 -7 6.4 1.7
4 -3 -7 10.4 1.8
-4 3 -7 8 1.8
4 3 7 8.6 1.7
-4 3 -7 8 1.8
-4 -3 7 9.6 1.5
4 3 7 11.3 1.7
-5 3 7 37.7 6.3
-5 -3 -7 41.1 6.3
-5 3 7 42.7 6.3
5 -3 7 42.5 6.5
-5 3 7 38 6.5
-5 -3 -7 32.9 6.2
-5 -3 -7 35.6 6.2
-5 3 7 41.6 6.5
5 -3 7 41 6.3
-5 -3 -7 40.1 6.3
5 -3 7 47.8 6.5
5 -3 -7 43.1 6.4
5 3 7 37.9 6.2
5 3 7 39.3 6.2
5 -3 -7 44.8 6.3
5 -3 -7 37.8 6.3
5 3 7 42.1 6.3
-5 3 -7 48.4 6.6
-6 3 7 35.5 6
-6 -3 -7 33.8 6
6 -3 7 34.2 6
-6 3 7 38.5 6.1
6 -3 7 42 6
-6 -3 -7 41.1 5.9
-6 -3 -7 40.6 5.9
6 -3 7 38.9 6.1
-6 3 7 39 6.2
6 -3 7 48 6.4
-6 -3 -7 39.1 5.9
-6 3 7 38.5 6.1
6 -3 -7 37 5.9
6 3 7 35.7 5.9
6 -3 -7 40.5 6.1
-6 3 -7 26 6
-6 3 -7 27.5 6
6 3 7 37.4 5.9
6 3 7 39.3 5.9
-6 3 -7 45.4 6.2
-6 3 -7 39.6 6.2
6 -3 -7 34.3 6
6 -3 -7 41.8 5.9
-7 -3 -7 37 5.6
7 -3 7 36.7 5.8
-7 3 7 35.2 5.7
-7 3 7 34.7 5.6
-7 -3 -7 32.5 5.6
-7 -3 -7 36.5 5.6
-7 -3 -7 36.8 5.6
7 -3 7 34 5.8
7 -3 7 35.6 5.7
-7 3 7 28.2 5.6
-7 3 -7 33.1 5.7
7 3 7 36.9 5.5
7 -3 -7 33.3 5.6
-7 3 -7 32.1 5.7
7 -3 -7 26.1 5.5
7 3 7 38.5 5.5
7 3 7 37.7 5.5
7 -3 -7 41.2 5.7
-7 3 -7 33.2 5.7
7 -3 -7 33.1 5.7
8 -3 7 -0.1 1
8 -3 7 0.2 1
-8 3 7 -0.1 0.9
8 -3 7 0 0.9
8 -3 -7 1.2 0.9
8 -3 -7 1 0.8
8 3 7 0.8 0.8
8 -3 -7 -0.6 1.1
-8 3 -7 0.5 0.9
8 -3 -7 0 1.2
8 3 7 -0.3 0.8
8 3 7 -0.4 0.7
-8 3 -7 0.8 0.9
0 4 -7 279.17 37.9
0 -4 -7 213.58 37.9
0 -4 -7 242.28 37.9
0 4 -7 261.17 37.9
0 -4 -7 241.38 37.9
0 4 7 247.58 37.9
0 -4 7 230.28 37.9
0 4 7 245.58 37.9
0 -4 7 242.58 37.9
0 -4 -7 284.47 37.9
-1 4 7 220.68 32.8
-1 -4 -7 224.48 32.7
1 4 -7 215.18 32.7
-1 -4 -7 249.58 32.9
1 -4 7 204.98 32.7
1 4 -7 197.58 32.7
1 -4 7 217.48 32.7
-1 -4 -7 201.98 32.7
-1 4 7 207.98 32.7
1 4 -7 217.48 32.7
1 -4 7 218.78 32.8
-1 4 7 236.38 32.8
-1 4 7 236.78 32.8
1 -4 7 237.18 32.8
-1 -4 -7 204.18 32.7
1 4 -7 204.48 32.7
1 -4 -7 196.58 32.7
1 -4 -7 213.88 32.7
-1 -4 7 209.18 32.7
-1 -4 7 237.28 32.7
-1 4 -7 181.48 32.7
-1 4 -7 219.18 32.7
-1 4 -7 228.78 32.7
-1 -4 7 203.88 32.7
1 -4 -7 199.08 32.7
-1 -4 7 225.38 32.7
1 -4 -7 232.38 32.8
1 4 7 192.78 32.7
-2 4 7 66.79 10.4
2 4 -7 62.09 10.3
-2 -4 -7 75.79 10.3
-2 -4 -7 61.79 10.3
-2 4 7 77.39 10.5
2 4 -7 66.29 10.2
-2 -4 -7 62.29 10.3
2 -4 7 62.49 10.3
2 4 -7 71.89 10.3
-2 4 7 59.09 10.4
2 -4 7 73.19 10.4
2 -4 7 60.59 10.3
2 4 -7 79.19 10.3
-2 4 7 59.59 10.3
-2 -4 -7 74.09 10.3
-2 4 -7 60.99 10.3
-2 -4 7 64.89 10.3
2 -4 -7 78.39 10.4
-2 4 -7 68.19 10.4
2 4 7 53.69 10.3
2 -4 -7 73.69 10.4
-2 -4 7 71.29 10.3
-2 -4 7 60.59 10.3
2 4 7 69.79 10.4
2 4 7 64.09 10.3
-2 4 -7 82.19 10.4
-2 4 -7 69.49 10.4
2 -4 -7 60.09 10.3
-2 -4 7 65.49 10.3
3 -4 7 42.1 6.4
3 -4 7 39.4 6.5
-3 -4 -7 42.4 6.4
-3 -4 -7 37.6 6.4
-3 4 7 56.89 6.8
-3 4 7 51.99 6.7
3 4 -7 44.1 6.3
-3 -4 -7 38.3 6.4
-3 4 7 40.2 6.5
-3 -4 -7 45.3 6.4
-3 4 7 32.3 6.4
3 4 -7 41 6.3
3 -4 7 40.3 6.4
3 -4 7 39.9 6.4
-3 -4 7 40.5 6.3
3 -4 -7 40 6.5
-3 4 -7 43.1 6.4
3 -4 -7 44.1 6.4
-3 4 -7 49.5 6.5
3 4 7 36.8 6.4
-3 4 -7 42.3 6.4
-3 -4 7 41.9 6.3
3 4 7 37.6 6.4
-3 -4 7 39.6 6.3
3 4 7 37.5 6.4
-3 4 -7 38.3 6.4
3 -4 -7 46.5 6.4
-3 -4 7 37.2 6.3
3 -4 -7 41.3 6.5
-4 4 7 49.7 7.1
4 -4 7 45.1 7.1
4 -4 7 44.1 7.1
-4 -4 -7 49.8 7
-4 -4 -7 48.1 7
-4 -4 -7 50.49 7
-4 4 7 38.2 7
-4 4 7 53.59 7.2
-4 4 7 43.6 7.1
4 -4 7 41.1 7.2
4 -4 7 42.8 7.1
4 -4 -7 40.4 7
4 4 7 47.7 7
4 -4 -7 44.5 7
-4 4 -7 41.9 7.1
4 -4 -7 41 7
-4 4 -7 44.4 7.1
-4 4 -7 46.2 7.1
-4 4 -7 45.9 7.1
4 -4 -7 49.9 7.1
4 4 7 38.5 7
-5 4 7 69.29 10.6
-5 -4 -7 74.49 10.4
-5 4 7 67.59 10.5
-5 -4 -7 64.49 10.4
5 -4 7 66.59 10.5
5 -4 7 67.29 10.5
-5 -4 -7 67.29 10.4
5 -4 7 66.99 10.5
5 -4 7 71.49 10.5
-5 4 7 68.39 10.5
-5 -4 -7 74.69 10.4
-5 4 7 62.69 10.5
-5 4 -7 64.39 10.5
-5 4 -7 69.29 10.5
-5 4 -7 65.99 10.5
5 4 7 71.29 10.4
-5 4 -7 56.09 10.5
5 -4 -7 67.09 10.5
5 -4 -7 63.29 10.4
5 -4 -7 74.49 10.5
5 4 7 68.99 10.4
5 4 7 61.59 10.4
-6 4 7 105.89 17
6 -4 7 92.09 16.9
-6 -4 -7 113.19 16.8
-6 -4 -7 122.29 16.9
-6 -4 -7 108.39 16.8
6 -4 7 116.19 17
6 -4 7 99.79 16.9
-6 4 7 113.59 16.9
6 -4 7 106.99 16.9
-6 4 7 115.39 16.9
-6 -4 -7 104.49 16.8
6 4 7 115.09 16.8
6 4 7 107.09 16.8
6 -4 -7 103.69 16.9
6 -4 -7 107.39 16.9
6 -4 -7 110.49 16.9
-6 4 -7 121.89 17
6 4 7 114.49 16.8
-6 4 -7 103.89 16.9
-6 4 -7 109.49 16.9
-7 4 7 -0.4 1.1
-7 -4 -7 1.7 0.9
-7 4 7 0.9 1
-7 -4 -7 2 0.9
-7 -4 -7 0.2 0.9
-7 -4 -7 0.1 0.7
7 -4 7 0.3 0.9
-7 4 7 1.1 1.2
7 -4 7 0.7 1
7 -4 7 0.5 0.8
-7 4 7 0.5 0.9
7 -4 -7 0.4 1
7 4 7 1.5 0.7
7 -4 -7 -0.4 0.9
-7 4 -7 2.2 1
-7 4 -7 0.9 0.9
7 -4 -7 0.8 0.8
7 4 7 1.2 0.8
7 4 7 0.8 0.9
8 -4 7 69.39 9.8
-8 4 7 52.79 9.9
-8 4 7 67.29 9.8
-8 4 7 67.29 9.8
8 -4 7 59.79 9.8
-8 4 7 65.29 9.9
8 -4 7 49.6 9.7
8 -4 -7 55.59 9.7
8 4 7 66.19 9.7
8 4 7 71.29 9.7
-8 4 -7 72.19 9.9
-8 4 -7 61.59 9.8
8 4 7 44.1 9.8
8 4 7 66.59 9.7
8 -4 -7 68.19 9.9
0 -5 -7 -0.2 0.6
0 5 7 0.1 0.6
0 -5 7 0.8 0.6
0 -5 7 -1.2 0.7
0 5 7 1.1 1
0 -5 -7 -0.1 0.8
0 5 7 0.8 0.9
0 -5 -7 -0.5 0.8
0 -5 7 -0.1 0.7
0 -5 -7 -0.2 0.7
0 -5 7 0.3 0.7
0 5 7 -0.3 0.5
-1 5 7 42.1 6.7
1 5 -7 52.09 6.5
1 -5 7 38.8 6.6
1 5 -7 42.8 6.5
-1 5 7 38 6.6
1 5 -7 39.8 6.5
-1 -5 -7 38.8 6.6
-1 5 7 37.9 6.6
-1 -5 -7 41 6.5
1 -5 7 40.6 6.6
-1 5 7 33.9 6.7
-1 -5 -7 38.2 6.5
1 -5 7 43.4 6.6
-1 -5 -7 46.2 6.6
1 -5 7 49.8 6.6
1 5 -7 45.7 6.5
1 5 7 45.6 6.6
-1 5 -7 50.89 6.6
-1 -5 7 43.7 6.5
-1 -5 7 48.9 6.5
-1 5 -7 40.4 6.6
1 -5 -7 33.4 6.6
-1 5 -7 44.5 6.6
1 5 7 42.6 6.5
1 -5 -7 42.9 6.7
-1 5 -7 35.2 6.5
1 -5 -7 38 6.6
-1 -5 7 41.2 6.5
-1 -5 7 44.5 6.5
1 -5 -7 34.7 6.6
1 5 7 43.4 6.6
2 5 -7 119.69 20.6
-2 5 7 128.59 20.7
2 5 -7 140.99 20.6
-2 -5 -7 128.49 20.6
2 -5 7 133.59 20.7
-2 5 7 139.59 20.7
-2 5 7 136.59 20.7
2 -5 7 143.39 20.7
2 -5 7 130.29 20.7
-2 -5 -7 147.99 20.7
-2 5 7 133.19 20.7
2 -5 7 135.39 20.7
-2 -5 -7 135.59 20.7
-2 -5 -7 118.89 20.6
-2 5 -7 149.39 20.7
2 -5 -7 151.48 20.7
2 -5 -7 124.09 20.7
-2 -5 7 135.09 20.6
-2 5 -7 126.09 20.7
-2 -5 7 124.59 20.6
2 5 7 127.69 20.6
-2 -5 7 144.19 20.6
-2 5 -7 128.79 20.7
2 -5 -7 135.69 20.7
2 5 7 140.79 20.7
2 -5 -7 153.38 20.7
-2 5 -7 121.49 20.7
-2 -5 7 141.09 20.6
2 5 7 132.59 20.7
2 5 7 153.68 20.7
3 -5 7 28.1 3.8
-3 -5 -7 28.8 3.7
3 -5 7 18.6 3.7
-3 5 7 26.9 4
-3 5 7 23.1 3.7
3 5 -7 21.5 3.5
-3 -5 -7 25.1 3.7
3 -5 7 21 3.7
-3 -5 -7 23.3 3.6
-3 5 7 17.6 3.7
-3 -5 -7 27.3 3.7
3 -5 7 19.5 3.7
-3 5 7 25.1 3.8
3 -5 -7 21.9 3.7
-3 5 -7 25.8 3.8
-3 -5 7 21.4 3.5
-3 5 -7 31.3 4
-3 -5 7 18.3 3.5
3 5 7 19.9 3.6
-3 -5 7 21.3 3.5
3 -5 -7 17 3.6
-3 5 -7 26.2 3.8
-3 -5 7 23.4 3.5
3 -5 -7 22.2 3.8
3 5 7 20.4 3.6
3 -5 -7 22.5 3.8
-3 5 -7 20.4 3.7
3 5 7 25.3 3.7
-4 -5 -7 106.39 16.3
-4 5 7 99.69 16.3
-4 -5 -7 109.19 16.3
-4 5 7 113.49 16.4
4 -5 7 110.99 16.4
-4 5 7 114.19 16.4
-4 5 7 115.29 16.4
-4 -5 -7 106.69 16.3
-4 -5 -7 98.79 16.3
4 -5 7 95.69 16.4
4 -5 -7 102.69 16.3
4 5 7 106.69 16.3
4 -5 -7 98.99 16.3
-4 5 -7 106.89 16.4
4 5 7 102.99 16.3
4 -5 -7 117.99 16.4
-4 5 -7 113.39 16.4
4 5 7 100.99 16.3
4 -5 -7 105.49 16.4
5 -5 7 8.8 1.7
5 -5 7 7.5 1.7
5 -5 7 7.5 1.7
-5 -5 -7 8.5 1.5
-5 5 7 8.6 1.8
-5 5 7 7.3 1.6
-5 -5 -7 7.4 1.6
-5 -5 -7 8.9 1.5
5 -5 7 6.1 1.6
5 -5 -7 7.8 1.6
5 5 7 7.3 1.5
5 5 7 8.2 1.5
-5 5 -7 5.3 1.7
5 -5 -7 7.5 1.7
-5 5 -7 7.2 1.7
-5 5 -7 11.2 1.9
5 -5 -7 7.2 1.6
5 5 7 6.8 1.5
-5 5 -7 7.4 1.7
6 -5 7 27 4.7
-6 -5 -7 25 4.5
6 -5 7 35.8 4.9
-6 5 7 28.8 4.6
-6 -5 -7 26.5 4.5
-6 -5 -7 26 4.4
-6 5 7 30.5 4.8
6 -5 7 22.2 4.5
-6 5 7 26.2 4.6
6 -5 7 29 4.6
-6 5 7 26 4.7
-6 -5 -7 26.1 4.5
-6 5 -7 32.1 4.8
6 5 7 31.1 4.5
6 5 7 23.8 4.4
-6 5 -7 34.7 4.7
6 -5 -7 23.7 4.6
6 -5 -7 29.1 4.7
6 -5 -7 26.5 4.6
-6 5 -7 33.3 4.7
7 -5 7 13.4 2.5
7 -5 7 8.5 2.3
7 -5 7 13.5 2.5
-7 -5 -7 12.6 2.2
-7 5 7 12 2.3
-7 5 7 12.4 2.5
-7 -5 -7 12.2 2.2
-7 5 7 8.9 2.4
-7 -5 -7 11.4 2.2
-7 -5 -7 12.8 2.3
7 5 7 13.7 2.3
-7 5 -7 12.1 2.4
7 5 7 12.8 2.1
7 -5 -7 11.6 2.3
7 5 7 12.4 2.2
7 -5 -7 13.4 2.5
7 5 7 17.3 2.3
7 -5 -7 9.7 2.2
7 -5 -7 9.6 2.3
-7 5 -7 8.8 2.3
-8 5 7 44.4 7.6
8 -5 7 38.3 7.5
8 -5 7 45.8 7.6
-8 5 7 45.3 7.7
-8 5 7 41.9 7.6
8 5 7 49.1 7.3
8 5 7 53.09 7.4
8 5 7 57.69 7.4
8 -5 -7 37.2 7.6
8 -5 -7 38.9 7.6
8 -5 -7 56.69 7.6
8 -5 -7 35.4 7.5
-8 5 -7 48.3 7.7
-8 5 -7 61.39 7.6
0 -6 -7 122.49 22
0 -6 -7 132.39 22
0 6 7 161.18 22
0 -6 7 132.79 22
0 6 -7 142.59 22
0 6 -7 135.69 22
0 -6 7 142.49 22
0 6 7 132.99 22
0 6 -7 166.28 22
0 6 7 173.18 22.1
0 6 7 134.09 22.1
0 -6 7 139.69 22
0 -6 -7 159.98 22.1
0 -6 7 145.39 22
0 -6 -7 145.69 22.1
0 6 -7 141.69 22
-1 6 7 255.47 43.3
-1 -6 -7 290.77 43.3
1 -6 7 265.57 43.3
1 -6 7 258.17 43.3
-1 6 7 257.07 43.4
1 6 -7 283.37 43.3
-1 6 7 275.67 43.3
-1 -6 -7 315.07 43.3
1 -6 7 298.47 43.3
1 6 -7 267.07 43.3
-1 -6 -7 311.47 43.4
1 6 -7 309.77 43.3
1 -6 7 260.27 43.3
-1 6 7 254.47 43.3
-1 -6 -7 263.37 43.3
-1 6 -7 274.17 43.3
1 -6 -7 301.87 43.4
-1 6 -7 267.97 43.3
-1 6 -7 297.07 43.3
1 -6 -7 292.67 43.4
-1 6 -7 297.57 43.3
-1 -6 7 323.37 43.3
1 6 7 354.46 43.6
-1 -6 7 294.77 43.3
1 6 7 266.87 43.3
-2 6 7 128.99 22.8
-2 -6 -7 160.68 22.9
-2 6 7 164.68 23
-2 -6 -7 147.09 22.8
2 -6 7 144.89 22.9
-2 6 7 119.69 22.8
2 -6 7 135.19 22.8
-2 -6 -7 136.79 22.8
2 -6 7 142.29 22.9
-2 6 7 143.29 22.9
2 6 -7 161.18 22.8
2 6 -7 153.58 22.8
-2 -6 -7 152.08 22.8
2 -6 7 155.78 22.9
2 6 7 154.38 22.9
-2 -6 7 143.29 22.8
2 -6 -7 148.89 22.9
2 -6 -7 179.28 22.9
-2 -6 7 164.88 22.8
2 6 7 136.89 22.8
2 6 7 160.48 22.8
-2 6 -7 166.08 22.9
-2 6 -7 147.69 22.9
2 -6 -7 139.49 22.9
-2 -6 7 173.88 22.8
2 -6 -7 140.99 22.9
-2 6 -7 167.38 22.9
-2 -6 7 128.09 22.8
-2 6 -7 135.89 22.9
2 6 7 146.99 22.8
3 6 -7 18.7 2.5
-3 6 7 17.1 2.8
-3 6 7 11.6 2.6
-3 6 7 12.3 2.8
3 -6 7 10.5 2.6
3 -6 7 18.8 2.8
-3 -6 -7 16.1 2.6
-3 -6 -7 15.7 2.6
-3 6 7 21.6 2.9
3 6 -7 14.9 2.4
-3 -6 -7 12.9 2.5
-3 -6 -7 15.5 2.6
-3 -6 7 23 2.6
-3 -6 7 16.7 2.5
3 -6 -7 11.1 2.6
-3 -6 7 16.3 2.5
3 -6 -7 10 2.6
3 -6 -7 12.9 2.7
-3 6 -7 13.6 2.7
3 -6 -7 15.6 2.7
3 6 7 13.9 2.7
3 6 7 15.6 2.6
-3 6 -7 12.5 2.6
3 6 7 14.4 2.6
-3 -6 7 12.9 2.4
-4 6 7 1.8 1
-4 -6 -7 2.8 0.8
4 -6 7 0.6 0.7
-4 -6 -7 0.2 0.7
4 -6 7 0.9 0.8
-4 -6 -7 1.2 0.7
-4 6 -7 -0.2 0.9
4 6 7 0 0.6
-4 -6 7 0.9 0.4
4 -6 -7 1.3 0.8
4 6 7 0.4 0.6
-4 6 -7 -0.4 0.8
4 6 7 1.6 0.8
-4 6 -7 -0.3 0.9
4 6 7 -0.2 0.7
-4 6 -7 2.4 1
-5 -6 -7 21.7 3.1
5 -6 7 15.4 3.2
-5 -6 -7 15 3
5 -6 7 14.9 3.2
5 -6 7 17.3 3.2
-5 -6 -7 19.5 3
5 -6 7 12.9 3.1
-5 6 7 17.2 3.2
-5 6 7 18.7 3.2
-5 -6 -7 21.2 3.1
5 6 7 23 3.1
-5 6 -7 20.9 3.4
5 -6 -7 17.8 3.2
5 -6 -7 17.5 3.2
5 6 7 18.2 3.1
5 -6 -7 15.8 3.2
-5 6 -7 19.1 3.3
5 -6 -7 19.9 3.3
-5 6 -7 20.5 3.4
-5 6 -7 15.4 3.2
-6 -6 -7 11.2 1.9
-6 6 7 10.3 2.2
6 -6 7 10.6 2.1
-6 6 7 13 2.4
-6 6 7 8.2 2
-6 6 7 8.3 2
-6 -6 -7 11.2 1.9
-6 -6 -7 9.9 1.9
6 -6 7 7.7 2
6 -6 7 6.6 2
6 -6 -7 8.2 2
-6 6 -7 11.9 2.2
6 -6 -7 10.8 2.1
6 -6 -7 9.4 2
-6 6 -7 13.5 2.3
6 6 7 9.8 1.9
6 6 7 8.4 1.8
6 6 7 14.8 2.1
6 -6 -7 11.3 2.1
-7 6 7 5.8 1.7
-7 -6 -7 8.2 1.5
-7 6 7 5 1.7
-7 6 7 8.6 1.8
7 -6 7 5.5 1.5
7 -6 7 4.1 1.5
7 6 7 6.6 1.4
-7 6 -7 4.7 1.6
7 -6 -7 3.8 1.5
7 6 7 7.1 1.3
7 6 7 10 1.5
7 6 7 5.6 1.2
7 -6 -7 2.5 1.4
7 -6 -7 5.4 1.6
7 -6 -7 8.9 1.8
-7 6 -7 6.4 1.6
-8 6 7 0 1.2
8 -6 7 0.2 1
-8 6 7 1 1.3
-8 6 -7 1.5 1.2
-8 6 -7 0.2 1.1
8 6 7 0.8 0.7
8 -6 -7 -1.2 0.9
8 6 7 -0.6 0.8
8 -6 -7 -0.8 1
8 -6 -7 0.9 1.1
0 7 -7 0.2 0.8
0 7 7 1 0.6
0 -7 7 1 0.8
0 7 7 -0.2 1
0 -7 7 -0.2 0.6
0 7 -7 -0.5 0.5
0 7 -7 -0.4 0.6
0 7 7 0.4 0.6
0 7 -7 -0.4 0.5
0 -7 -7 -0.6 0.8
0 -7 7 0.5 0.7
0 -7 7 -0.6 0.6
0 -7 -7 -0.5 0.8
0 -7 -7 -0.2 0.7
0 -7 -7 2 1
0 7 7 1.2 1
1 -7 7 4.7 1.4
1 7 -7 6.8 1.3
-1 -7 -7 4.8 1.4
-1 7 7 7.6 1.7
1 -7 7 10 1.7
1 -7 7 7.2 1.5
1 7 -7 7.4 1.4
-1 7 7 4.5 1.6
-1 7 7 6.6 1.5
-1 -7 -7 7 1.4
-1 -7 -7 8 1.6
1 -7 7 5.1 1.4
1 7 -7 7.2 1.4
-1 7 7 6.1 1.5
-1 -7 -7 5.4 1.5
-1 7 -7 5.5 1.4
1 -7 -7 5.5 1.5
1 -7 -7 5.6 1.6
-1 7 -7 8 1.5
1 -7 -7 7.2 1.5
1 7 7 8.1 1.4
-1 7 -7 8.6 1.6
-1 -7 7 8.4 1.5
-1 -7 7 8.9 1.5
1 7 7 8.1 1.7
-1 -7 7 7.1 1.4
1 7 7 8.2 1.5
-1 7 -7 6.2 1.4
-1 -7 7 7.8 1.4
1 7 7 11.1 1.7
1 -7 -7 5.4 1.5
-2 7 7 151.48 21.9
2 -7 7 135.29 21.9
-2 -7 -7 143.99 21.9
-2 7 7 156.48 22
-2 7 7 144.79 21.9
2 7 -7 137.89 21.8
2 7 -7 133.59 21.8
-2 -7 -7 130.49 21.9
-2 -7 -7 143.39 21.9
2 -7 7 159.48 21.9
2 -7 7 107.89 21.9
2 7 -7 159.38 21.8
2 -7 7 146.69 21.9
-2 7 7 175.28 22
-2 -7 -7 145.89 21.9
-2 7 -7 131.59 21.9
2 7 7 155.78 21.9
-2 -7 7 179.78 21.9
-2 7 -7 142.79 21.9
2 -7 -7 153.28 21.9
2 -7 -7 144.19 22
-2 -7 7 126.69 21.8
-2 7 -7 160.98 21.9
-2 7 -7 120.69 21.9
2 -7 -7 152.68 21.9
2 7 7 121.79 21.9
2 -7 -7 125.19 21.9
2 7 7 135.29 21.8
-3 -7 -7 2.3 0.9
-3 7 7 0.7 0.8
3 -7 7 1.1 0.8
3 -7 7 -0.1 0.8
-3 -7 -7 1.2 0.9
3 -7 7 1.1 0.9
3 7 -7 2.1 0.6
-3 7 7 1.4 0.9
-3 -7 -7 2.4 0.8
3 7 -7 2.6 0.7
3 -7 7 0.2 0.9
-3 -7 -7 2 0.8
3 7 7 2 0.6
-3 -7 7 1.9 0.6
-3 -7 7 0.7 0.5
3 -7 -7 1.6 1
-3 7 -7 -0.4 0.8
3 7 7 1.1 0.9
-3 7 -7 3.2 1
3 7 7 2.7 0.8
-3 7 -7 3.7 1.2
-3 -7 7 1.6 0.6
3 7 7 1.9 1
-3 7 -7 1.7 1
-4 7 7 4.2 1.6
-4 -7 -7 6.9 1.3
4 7 -7 6 1
-4 7 7 4.3 1.4
4 -7 7 3.3 1.4
4 -7 7 1.7 1.2
-4 -7 -7 5.3 1.2
-4 7 7 5.1 1.5
4 -7 7 4.3 1.3
-4 -7 -7 5.7 1.2
-4 -7 -7 5.6 1.2
4 -7 7 3.8 1.4
-4 7 7 5.7 1.5
-4 -7 7 4.4 1.1
-4 7 -7 5.3 1.5
4 7 7 8.1 1.3
4 7 7 5.2 1.3
4 -7 -7 5.8 1.4
-4 7 -7 4.2 1.3
4 -7 -7 4.6 1.3
-4 -7 7 5.4 1.1
-4 -7 7 6.7 1
4 -7 -7 5.7 1.4
4 7 7 4.7 1.1
-4 7 -7 2.6 1.3
4 -7 -7 4 1.3
-4 -7 7 5.6 1
-4 7 -7 6.4 1.6
4 7 7 10.1 1.6
-5 7 7 19.7 3.6
-5 7 7 18.4 3.7
-5 7 7 17.6 3.7
-5 -7 -7 20.2 3.5
-5 7 7 19.3 3.6
-5 -7 -7 22.6 3.5
5 -7 7 19.8 3.7
-5 -7 -7 21.2 3.5
-5 -7 -7 20.1 3.4
5 -7 7 21.4 3.8
5 -7 7 27 4
5 -7 -7 15.8 3.5
-5 7 -7 22.8 3.7
5 -7 -7 22.8 3.8
5 7 7 17.8 3.5
5 7 7 21.8 3.5
5 -7 -7 19.5 3.6
5 -7 -7 20.4 3.7
5 7 7 28.7 3.6
-5 7 -7 24.6 3.8
6 -7 7 79.99 13.3
-6 7 7 87.49 13.4
6 -7 7 69.69 13.2
-6 7 7 81.49 13.3
-6 -7 -7 78.69 13.1
-6 -7 -7 95.99 13.2
-6 -7 -7 85.59 13.1
-6 -7 -7 85.09 13.1
6 -7 -7 88.89 13.3
6 -7 -7 76.49 13.3
6 -7 -7 81.99 13.2
6 7 7 80.69 13.1
-6 7 -7 77.29 13.3
6 -7 -7 75.29 13.4
6 7 7 89.79 13.1
6 7 7 90.79 13.1
6 7 7 111.19 13.2
-6 7 -7 93.19 13.3
7 -7 7 5.6 1.6
7 -7 7 3.5 1.4
-7 7 7 3.4 1.5
-7 7 7 5.6 1.6
7 7 7 6.3 1.3
7 7 7 4 1.3
7 -7 -7 5.2 1.5
7 -7 -7 4.8 1.5
-7 7 -7 5.8 1.5
7 7 7 3.8 1
7 7 7 4.3 1.1
7 -7 -7 4.3 1.4
-7 7 -7 4.7 1.4
8 -7 7 7.2 2
-8 7 7 7.3 2.1
-8 7 7 3.4 1.9
8 -7 7 6.4 1.9
8 -7 -7 9.5 2.1
-8 7 -7 9.7 2
8 7 7 11.8 1.9
8 -7 -7 6.5 1.9
-8 7 -7 9.3 2.1
8 7 7 10.4 1.7
0 -8 -7 1.9 0.9
0 8 7 0.7 0.7
0 -8 -7 1.5 0.9
0 8 -7 1.6 0.9
0 -8 7 0.4 0.7
0 8 -7 0.9 0.7
0 -8 7 0.6 0.8
0 8 -7 1.4 0.8
0 8 7 1 0.7
0 8 -7 2.7 0.8
0 -8 7 3.3 1
0 -8 7 1.7 0.9
0 -8 -7 0.4 1.1
0 -8 -7 0.9 1
0 8 7 3.1 1.1
0 8 7 -0.7 1
-1 8 7 11.9 2
-1 -8 -7 13.8 2.1
1 -8 7 6.5 1.9
1 8 -7 10 1.9
1 -8 7 7.9 1.8
1 8 -7 10 1.8
1 8 -7 8 1.7
-1 -8 -7 7.5 1.8
-1 8 7 9 1.9
1 8 -7 9.7 1.8
-1 -8 -7 8.5 1.9
-1 -8 -7 11.3 2
1 -8 7 7.8 1.8
1 -8 7 8.9 1.9
-1 8 -7 5.6 1.9
-1 -8 7 10.9 1.8
-1 8 -7 6.7 1.7
-1 8 -7 10.8 2
-1 -8 7 14.1 2
1 8 7 13.4 1.9
1 8 7 6.4 1.9
1 8 7 8.4 1.7
1 -8 -7 11.4 2.1
-1 -8 7 13.6 2
-1 8 -7 11.1 1.9
1 -8 -7 12 2.2
1 8 7 8.9 2.1
-1 -8 7 11.2 1.9
-2 8 7 -0.1 0.7
2 -8 7 -0.7 0.7
-2 8 7 0.7 1
-2 -8 -7 -0.1 0.7
-2 -8 -7 -0.4 0.7
2 8 -7 0.3 0.5
-2 8 7 -0.8 0.7
2 8 -7 0.4 0.6
2 8 -7 -0.4 0.4
-2 8 7 -1.6 1
2 -8 7 0.2 0.8
2 8 -7 -0.3 0.5
-2 -8 -7 -0.9 0.7
2 -8 7 0.7 0.8
2 -8 7 -0.2 0.8
2 8 7 0.5 0.6
-2 -8 7 -0.8 0.6
-2 8 -7 0.3 0.8
-2 -8 7 -0.6 0.6
2 8 7 -0.4 0.9
-2 -8 7 -0.9 0.7
2 -8 -7 0.2 1.1
2 -8 -7 1.3 1
-2 8 -7 0.7 0.8
2 -8 -7 -0.5 0.7
2 8 7 0.6 1
2 8 7 -0.1 0.5
-2 -8 7 0.1 0.6
-2 8 -7 0 1
3 8 -7 21.9 3
-3 8 7 16.7 3.3
3 -8 7 22.7 3.5
-3 -8 -7 17.7 3.1
-3 8 7 15.6 3.3
-3 8 7 16 3.4
3 -8 7 14.2 3.3
3 8 -7 24.1 3.2
3 -8 7 13.7 3.2
-3 -8 -7 25.5 3.3
-3 -8 -7 26 3.3
3 8 -7 22.2 3.1
-3 -8 -7 16.9 3.2
-3 8 7 14.1 3.2
3 8 -7 18.9 3
3 -8 7 22.8 3.5
3 8 7 17.1 3.2
-3 8 -7 14 3.3
-3 8 -7 17 3.3
3 -8 -7 15.6 3.3
-3 -8 7 24.4 3.3
-3 8 -7 21.8 3.5
-3 8 -7 22.4 3.5
3 8 7 18.2 3.3
-3 -8 7 17.5 3.1
3 -8 -7 19.4 3.4
-3 -8 7 16.8 3.1
3 -8 -7 18.8 3.4
3 8 7 20.3 3.3
3 -8 -7 15.6 3.3
-4 -8 -7 108.79 21.1
-4 8 7 126.29 21.2
-4 8 7 104.89 21.2
-4 -8 -7 144.89 21.1
-4 8 7 130.19 21.3
4 -8 7 138.99 21.2
4 -8 7 165.18 21.3
4 -8 7 163.98 21.3
-4 -8 -7 113.99 21.1
-4 8 7 122.79 21.2
4 8 -7 151.28 21.1
-4 -8 -7 152.08 21.1
4 8 -7 147.79 21
4 -8 -7 141.69 21.3
-4 8 -7 164.68 21.3
4 -8 -7 135.29 21.2
-4 -8 7 138.79 21.1
4 -8 -7 136.19 21.2
-4 8 -7 146.49 21.3
4 8 7 126.79 21.1
-4 -8 7 130.99 21.1
-4 -8 7 146.69 21
-4 -8 7 142.89 21.1
4 8 7 133.59 21.1
4 8 7 164.68 21.2
4 -8 -7 134.29 21.2
4 8 7 135.39 21.1
-4 8 -7 130.49 21.2
-5 -8 -7 44.9 6.4
5 -8 7 31.4 6.5
5 -8 7 32 6.6
-5 8 7 38.3 6.8
-5 -8 -7 40.4 6.4
-5 8 7 55.59 7
-5 -8 -7 42.3 6.4
-5 -8 -7 43.1 6.4
5 8 7 45.3 6.6
5 -8 -7 31 6.6
5 8 7 40.3 6.4
5 8 7 46.1 6.4
-5 8 -7 49.5 6.8
-5 8 -7 37.6 6.6
5 8 7 38.6 6.3
-6 -8 -7 115.89 16
6 -8 7 101.39 16.1
-6 -8 -7 98.39 16
-6 8 7 107.19 16.2
-6 -8 -7 106.39 16
-6 -8 -7 111.49 16
6 -8 7 98.19 16.1
-6 8 7 83.49 16.1
-6 8 -7 103.59 16.1
6 -8 -7 89.29 16.1
6 -8 -7 89.29 16.1
6 8 7 111.89 16
-6 8 -7 127.59 16.2
6 8 7 109.19 16
-7 8 7 1.6 1.3
7 -8 7 2.9 1.2
-7 8 7 0.4 1.3
7 -8 7 1 1.2
7 8 7 0.6 0.7
-7 8 -7 3.1 1.3
7 -8 -7 -0.2 1
7 8 7 1.4 0.7
-7 8 -7 1.9 1.2
7 8 7 0.6 1.1
7 -8 -7 0.8 1
-8 8 7 0.5 1.2
8 -8 7 -0.7 1.1
-8 8 7 -0.1 1.2
8 8 7 -0.3 0.7
-8 8 -7 0 1.1
8 8 7 -0.6 1.1
8 -8 -7 2.4 1.4
8 -8 -7 -0.5 1
0 -9 7 -1 0.7
0 9 -7 -0.9 0.6
0 9 -7 0.7 0.6
0 9 7 0 0.6
0 9 7 0.9 0.7
0 -9 -7 0.1 1.1
0 -9 -7 -0.5 1
0 -9 7 1.5 0.8
0 -9 7 -0.2 0.8
0 9 -7 0.5 0.9
0 9 -7 1 0.7
0 -9 7 -0.6 0.8
-1 9 7 -0.4 1.1
1 9 -7 0 0.6
1 -9 7 -0.6 0.8
1 9 -7 -0.1 0.8
-1 -9 -7 0.2 0.9
-1 9 7 -0.2 0.9
-1 9 7 -0.6 0.6
-1 -9 -7 -0.8 1
-1 -9 -7 0.4 0.8
1 9 -7 -0.5 0.5
-1 9 7 -1 0.6
1 -9 7 -0.8 0.9
1 9 -7 -0.3 0.5
-1 -9 -7 0.5 0.8
-1 9 -7 -0.7 0.5
1 9 7 -0.2 1.1
-1 -9 7 0.2 0.8
1 -9 -7 -0.2 0.8
-1 9 -7 -0.4 0.8
1 -9 -7 -1.4 1
-1 -9 7 0.8 0.9
-1 -9 7 -0.6 0.7
1 9 7 0.2 0.5
-1 -9 7 1.1 0.7
1 -9 -7 0.3 1
1 9 7 0.1 0.6
1 -9 -7 0.4 0.9
1 9 7 -0.2 0.9
2 9 -7 170.68 27.5
-2 9 7 182.28 27.6
2 -9 7 212.68 27.6
-2 -9 -7 193.78 27.5
-2 -9 -7 171.08 27.5
-2 9 7 170.48 27.6
-2 -9 -7 173.08 27.6
-2 -9 -7 176.28 27.6
2 9 -7 186.38 27.5
-2 9 7 167.68 27.6
2 -9 7 178.38 27.6
2 -9 7 223.68 27.7
-2 9 7 172.88 27.7
2 9 -7 192.88 27.5
2 -9 7 187.68 27.7
-2 -9 7 168.08 27.5
-2 9 -7 197.48 27.6
2 9 7 208.38 27.6
2 -9 -7 155.68 27.6
2 -9 -7 157.88 27.6
2 9 7 180.48 27.5
-2 9 -7 185.88 27.6
-2 -9 7 167.78 27.5
-2 9 -7 166.78 27.6
2 9 7 183.18 27.5
-2 -9 7 215.38 27.6
-2 9 -7 157.28 27.6
2 -9 -7 151.68 27.6
2 -9 -7 185.28 27.6
3 9 -7 1.5 0.5
-3 9 7 0.4 0.9
3 -9 7 0.6 0.9
3 9 -7 1.3 0.5
-3 -9 -7 0.5 0.9
-3 -9 -7 0 0.8
3 -9 7 0.2 0.9
3 -9 7 -0.7 1
-3 9 7 0.8 1
3 9 -7 0.2 0.6
-3 9 7 2 1.3
-3 -9 -7 2.4 0.9
3 -9 7 3.1 1
-3 -9 -7 1 0.8
-3 9 7 1.1 1.1
-3 9 -7 1.3 1.1
3 -9 -7 -0.2 1.1
-3 -9 7 0.9 0.7
3 -9 -7 -0.6 0.9
3 9 7 1.5 0.7
3 9 7 0.3 0.9
3 9 7 1.8 1.1
-3 -9 7 1.6 0.7
3 -9 -7 -0.1 0.8
-3 9 -7 0.2 1
-3 9 -7 1.9 1
-3 9 -7 -0.1 0.8
-3 -9 7 0.7 0.7
-4 -9 -7 193.28 30.9
-4 9 7 207.48 31
4 -9 7 218.68 31
-4 -9 -7 190.98 30.8
4 -9 7 200.08 31
-4 -9 -7 225.48 30.9
-4 -9 -7 201.58 30.9
4 9 -7 208.88 30.8
-4 9 7 192.78 31
4 -9 -7 206.48 31
-4 -9 7 224.18 30.8
4 -9 -7 175.88 30.9
4 9 7 233.38 30.9
4 -9 -7 175.58 30.9
4 9 7 207.78 30.9
4 9 7 212.78 30.9
-4 -9 7 174.78 30.8
-4 -9 7 206.18 30.8
4 9 7 179.48 30.9
-5 -9 -7 1.1 0.8
-5 -9 -7 0.5 0.7
-5 9 7 0.4 1.2
-5 -9 -7 -0.4 0.8
5 -9 7 0.5 0.9
5 -9 7 0.7 1
-5 9 7 -0.5 1.1
-5 -9 -7 0.7 0.8
-5 -9 7 1 0.6
5 -9 -7 0.2 1.1
-5 9 -7 0.3 1.2
5 -9 -7 -0.2 0.9
-5 9 -7 0.9 1.1
5 9 7 0.2 0.8
5 9 7 0.7 0.6
5 9 7 -0.6 0.9
6 -9 7 6.6 1.6
-6 9 7 3.5 1.6
-6 -9 -7 5.8 1.3
-6 -9 -7 5 1.3
-6 -9 -7 4.6 1.2
6 -9 7 3.2 1.4
-6 9 7 6.4 1.9
-6 -9 -7 6.5 1.4
6 -9 -7 6.7 1.6
6 9 7 7.1 1.6
-6 9 -7 4.1 1.5
6 9 7 4.4 1.2
-6 9 -7 5 1.7
6 -9 -7 2.7 1.3
6 9 7 6.1 1.3
-7 9 7 -0.2 1.2
7 -9 7 -0.8 1
7 -9 7 0.3 1.1
-7 9 7 1.6 1.4
-7 9 -7 0.3 1.2
7 -9 -7 0.1 1.1
7 9 7 0.6 0.7
7 9 7 0.9 1.2
7 -9 -7 0.7 1
-7 9 -7 -0.8 1
0 10 7 27.7 4.6
0 -10 -7 30 4.6
0 10 7 26.1 4.4
0 -10 -7 24.4 4.6
0 -10 -7 24.8 4.5
0 10 7 27.4 4.5
0 -10 -7 28.1 4.5
0 10 -7 32.8 4.6
0 -10 7 20.5 4.5
1 10 -7 6.3 1.4
-1 10 7 6.4 1.4
1 10 -7 9.4 1.4
-1 10 7 5.3 1.4
-1 -10 -7 4.8 1.3
1 -10 7 7.8 1.7
1 10 -7 4.2 1.2
1 -10 7 5.2 1.4
-1 10 7 3.6 1.6
1 -10 7 5.5 1.4
1 10 -7 5.6 1.2
-1 10 7 5.3 1.5
1 -10 7 3.7 1.5
-1 -10 -7 5.5 1.5
-1 -10 -7 3.7 1.5
-1 -10 -7 4.6 1.3
1 -10 -7 7.7 1.5
1 -10 -7 7.8 1.8
1 10 7 6.9 1.3
1 -10 -7 3.8 1.3
1 -10 -7 4.6 1.6
-1 -10 7 4.3 1.3
-1 10 -7 4.6 1.3
-1 -10 7 6.7 1.5
1 10 7 5.3 1.3
1 10 7 5.1 1.6
-1 -10 7 5.5 1.3
-1 10 -7 7 1.5
-1 -10 7 4.9 1.3
-1 10 -7 6.8 1.4
-1 10 -7 4.1 1.2
-2 10 7 0 0.9
2 10 -7 0.5 0.9
-2 10 7 -0.8 1.2
2 -10 7 -0.6 0.9
2 -10 7 2 1.2
-2 10 7 1.8 1.1
-2 -10 -7 -0.7 0.9
2 -10 7 -0.2 0.8
-2 10 7 1.5 0.9
2 10 -7 -0.1 0.7
2 -10 7 -1.4 0.8
2 10 -7 0 0.5
-2 -10 -7 0 0.9
2 10 -7 0.3 0.6
-2 10 -7 0.3 0.8
2 -10 -7 0.2 0.9
-2 -10 7 0.6 0.8
-2 -10 7 -0.3 0.6
-2 10 -7 0.1 0.9
2 -10 -7 -0.2 1
-2 -10 7 -0.3 0.8
-2 10 -7 1.1 0.8
2 -10 -7 -2.6 1.1
2 -10 -7 -0.3 0.8
2 10 7 0.5 0.6
2 10 7 0 0.6
-2 -10 7 0.3 0.7
-2 10 -7 -0.4 0.9
3 10 -7 15.1 2.7
3 10 -7 22 3
3 10 -7 18.1 2.9
3 -10 7 16.5 3.1
-3 -10 -7 16.2 3
-3 -10 -7 15.2 3
-3 10 7 19.1 3.3
3 -10 7 17.4 3.1
-3 -10 -7 18.1 3.1
-3 -10 7 15.4 3
-3 10 -7 17.3 3.1
3 10 7 14.4 3
-3 -10 7 22.2 3
3 10 7 16.9 2.9
-3 -10 7 14 2.8
3 -10 -7 18.6 3.1
-3 -10 7 19.8 3
3 -10 -7 16.5 3.1
3 10 7 14.6 2.8
-3 10 -7 12.6 3.1
-4 10 7 4.6 1.7
-4 -10 -7 2.2 0.9
4 -10 7 2.6 1.1
4 10 -7 1.8 0.8
-4 -10 -7 0.7 1.1
-4 10 7 1.4 1.3
-4 -10 -7 2.5 1
4 -10 7 2.7 1.1
-4 -10 -7 1.4 0.9
4 10 7 2.9 1.2
-4 10 -7 2.2 1.3
-4 -10 7 2.9 0.9
4 -10 -7 1.2 1.1
-4 10 -7 2.9 1.1
4 10 7 0.7 0.7
4 10 7 0.9 1
-4 -10 7 2.3 0.8
4 -10 -7 2.8 1.2
-4 -10 7 2.6 0.9
4 10 7 3.5 0.9
-5 -10 -7 7 1.7
-5 -10 -7 8 1.8
-5 -10 -7 8.9 1.7
5 10 -7 10.5 1.5
-5 10 7 13.5 3.4
-5 -10 -7 8.2 1.8
5 -10 7 4.9 1.7
5 10 -7 11.2 1.5
-5 10 7 6.6 2
5 10 7 7.8 1.6
-5 10 -7 8.2 2.1
5 10 7 11.3 1.9
5 -10 -7 6.1 1.8
5 10 7 8.9 2
5 -10 -7 6.2 1.9
5 10 7 6.1 1.6
-6 -10 -7 0.2 0.9
-6 10 7 0.3 1.2
6 -10 7 -0.3 1
6 -10 7 0.3 1
-6 10 -7 2.1 1.3
-6 10 -7 0.2 1.1
6 10 7 -0.9 1.1
6 -10 -7 2.3 1.2
6 -10 -7 1.6 1.3
6 10 7 0.7 1
-7 10 7 2.5 1.5
-7 10 7 3.2 1.5
-7 10 -7 2 1.3
7 -10 -7 2.1 1.2
7 10 7 2.5 1.4
7 -10 -7 3.3 1.4
0 -11 -7 -0.1 1.1
0 11 -7 -0.7 0.7
0 11 7 -0.2 0.7
0 11 -7 -0.8 0.9
0 -11 -7 0.3 0.9
0 11 7 -1 0.6
0 -11 7 0.5 0.8
0 -11 7 -0.4 0.8
0 -11 -7 0.3 1.1
0 11 7 1.7 1.2
0 -11 -7 0.7 0.9
0 11 -7 0.2 0.6
0 11 7 -0.4 1
0 11 -7 0.5 0.8
0 -11 7 -0.7 1
0 -11 7 0.9 1
-1 11 7 8.1 2
-1 -11 -7 9 2.2
1 -11 7 9 2
1 -11 7 11.1 2.2
-1 -11 -7 6.1 2
-1 -11 -7 15.7 3
1 -11 7 9.6 2
1 11 -7 12.5 2
1 -11 7 10.1 2.2
-1 11 7 10.5 2.3
1 11 -7 10.8 1.9
-1 11 7 8.7 2.2
1 11 -7 11.8 2
-1 -11 -7 10.4 2.1
-1 11 7 10 2
-1 11 -7 11 2
1 11 7 8.7 2
1 11 7 5.5 2.1
1 11 7 9.5 2.2
1 11 7 14.1 2.1
1 -11 -7 8.6 2.3
1 -11 -7 12.6 2.2
-1 11 -7 10.6 2
1 -11 -7 9.8 2.2
-1 11 -7 9.5 2.1
-1 11 -7 10.8 2.1
-1 -11 7 10.2 2.1
-1 -11 7 9.9 2.1
-2 11 7 25.2 4.5
-2 -11 -7 26 4.2
2 11 -7 30.5 4.3
2 11 -7 41.6 4.4
2 11 -7 24.3 4.1
-2 -11 -7 18.2 4.2
-2 -11 -7 26.5 4.3
-2 11 7 30.6 4.4
2 -11 7 22.7 4.3
2 11 -7 20.7 4
2 -11 7 25.7 4.3
-2 -11 -7 34.3 4.4
-2 -11 7 27.2 4.3
2 11 7 32.5 4.3
-2 -11 7 28.8 4.2
2 -11 -7 19.5 4.2
2 11 7 18.3 4.2
-2 11 -7 20.3 4.2
2 11 7 29.8 4.2
-2 -11 7 25.9 4.1
2 -11 -7 17.1 4.1
-2 11 -7 19.6 4.3
-2 -11 7 22.1 4.2
2 11 7 25.2 4.1
-3 -11 -7 21.5 3.8
3 11 -7 20.7 3.8
-3 11 7 20.4 4.1
3 -11 7 22.1 4
-3 11 7 23.1 4.2
3 -11 7 27.6 4.1
-3 -11 -7 20.1 3.9
3 11 -7 25.7 3.8
3 11 -7 19.8 3.6
-3 -11 -7 23.1 4
-3 -11 -7 19.1 3.8
-3 11 -7 13.5 3.8
3 -11 -7 19.4 3.9
-3 -11 7 39.9 4.1
3 11 7 21.6 3.8
-3 -11 7 36.3 4.1
-3 -11 7 23.6 3.8
-3 11 -7 27.9 4.2
3 11 7 23.8 4
3 -11 -7 19.2 4
-3 -11 7 22.3 3.8
3 11 7 24.2 3.8
4 -11 7 2.2 1.2
-4 -11 -7 1.9 1
-4 -11 -7 1.3 1.2
-4 11 7 0.6 1.2
4 11 -7 3.1 0.9
4 -11 7 1.3 1
4 11 -7 -0.4 0.7
-4 11 7 0.4 1.3
-4 -11 7 1.6 0.9
4 -11 -7 0.8 1.1
-4 11 -7 2.7 1.4
-4 -11 7 1.1 1.1
4 11 7 2 0.8
-4 11 -7 1.7 1.2
-4 -11 7 1.6 0.8
4 11 7 1.7 0.8
-4 -11 7 1.5 0.8
-5 -11 -7 2.3 1.1
5 -11 7 -0.7 1.1
5 -11 7 1.1 1.1
-5 11 7 3.6 1.4
5 11 -7 0.4 0.6
-5 -11 -7 -1.1 0.8
-5 11 7 1.6 1.4
5 11 -7 0.3 0.6
5 -11 -7 1.3 1.2
5 11 7 -0.5 0.8
-5 11 -7 0 1.2
5 11 7 -0.1 0.6
5 -11 -7 1.1 1
5 11 7 -0.1 1
-5 11 -7 -0.2 1.1
-6 11 7 4 1.9
-6 11 7 9 2.2
6 11 7 6.4 1.6
6 -11 -7 5.5 1.9
6 11 7 8.1 1.5
6 11 7 6.8 1.5
6 -11 -7 6.8 1.8
6 11 7 7.5 2.1
7 -11 7 0 1.1
-7 11 7 0.8 1.4
7 -11 7 -1 1
7 -11 -7 0.8 1.1
-7 11 -7 -1 1.1
7 11 7 0.4 0.8
7 11 7 0.3 1.3
-7 11 -7 -1.8 1.1
0 -12 -7 155.58 23.9
0 12 -7 139.69 23.9
0 -12 7 119.99 23.9
0 12 7 167.98 24
0 12 -7 167.08 23.9
0 -12 7 146.39 23.9
0 12 -7 159.68 23.9
0 -12 7 170.18 24
0 12 7 182.98 23.9
0 -12 -7 134.69 23.9
0 12 -7 164.88 23.9
0 -12 7 165.78 23.9
1 12 -7 80.39 14
1 -12 7 111.49 14.2
-1 -12 -7 76.99 14
-1 12 7 105.89 14.3
1 12 -7 83.59 14.1
-1 -12 -7 102.39 14.2
-1 12 7 85.19 14.1
-1 -12 -7 89.69 14.1
1 -12 7 104.09 14.1
-1 -12 -7 97.09 14.3
1 12 -7 100.99 14.1
1 12 7 85.99 14.1
-1 12 -7 98.29 14.1
-1 -12 7 83.99 14.1
-1 -12 7 95.49 14.1
-1 12 -7 92.79 14.1
1 -12 -7 101.99 14.2
1 12 7 84.39 14
-1 -12 7 83.39 14
1 12 7 89.19 14.2
1 12 7 86.39 14
1 -12 -7 89.29 14.1
-1 12 -7 84.99 14.1
-1 -12 7 88.79 14.1
2 -12 7 119.69 21.5
-2 -12 -7 130.39 21.5
-2 -12 -7 137.29 21.5
2 12 -7 162.88 21.4
2 -12 7 108.09 21.5
-2 12 7 142.09 21.6
2 12 -7 146.19 21.5
-2 -12 -7 168.38 21.5
-2 12 7 148.39 21.6
2 12 7 127.09 21.4
-2 12 -7 169.18 21.8
-2 -12 7 113.89 21.5
-2 12 -7 142.59 21.6
2 12 7 159.88 21.5
2 12 7 154.68 21.6
2 -12 -7 153.98 21.6
2 12 7 115.29 21.5
2 -12 -7 129.69 21.5
-2 -12 7 153.48 21.5
-3 -12 -7 35.5 6.9
-3 12 7 65.09 7.6
3 12 -7 39.5 6.7
-3 -12 -7 54.69 6.9
-3 -12 -7 40.4 7
3 12 -7 42.9 6.8
3 12 -7 40.9 6.7
-3 -12 -7 40.8 6.9
-3 12 7 42.1 7.2
3 -12 7 39.6 7
3 -12 7 44.4 7.1
3 12 7 42.8 6.8
-3 12 -7 37.6 7.1
-3 -12 7 52.39 6.9
3 -12 -7 35.1 7
3 12 7 45 6.8
-3 -12 7 43.2 6.9
-3 -12 7 46.5 6.8
-3 -12 7 46.1 7.1
3 12 7 47 7.2
3 -12 -7 36.1 7
-3 12 -7 42.2 7.1
3 12 7 43.2 7.1
-4 -12 -7 35.3 5.4
-4 12 7 23.7 5.4
-4 -12 -7 38.4 5.5
-4 12 7 23.4 5.5
-4 -12 -7 34.4 5.4
-4 -12 -7 38.5 5.4
4 -12 7 22.1 5.4
4 -12 7 31.4 5.4
4 12 -7 39.1 5.3
4 12 -7 31.6 5.2
4 12 7 31.7 5.2
4 12 7 27.1 5.2
4 12 7 32.6 5.5
-4 12 -7 39.3 5.6
-4 -12 7 34.8 5.3
-4 -12 7 45.9 5.5
-4 -12 7 34 5.2
4 -12 -7 22.3 5.6
-4 12 -7 24.9 5.4
-4 -12 7 30.8 5.2
4 -12 -7 33.4 5.6
5 -12 7 15.6 3.5
5 12 -7 15.9 2.6
-5 -12 -7 15.2 2.8
-5 -12 -7 15.6 2.8
-5 12 7 15.3 3.1
-5 -12 -7 18.9 2.9
-5 12 7 12.2 3.1
-5 -12 -7 17.9 2.8
5 12 7 17.7 2.9
5 -12 -7 10.5 2.9
5 -12 -7 11.4 2.8
5 12 7 14.5 2.9
5 12 7 14 2.7
6 -12 7 3.5 1.5
6 -12 7 3.1 1.4
-6 12 7 2.3 1.7
6 12 7 5.5 1.1
6 12 7 5.9 1.3
-6 12 -7 5 1.6
-6 12 -7 5.4 1.8
6 12 7 3.6 1.3
0 -13 -7 -0.7 0.9
0 13 7 -2.4 1
0 13 -7 -0.9 1
0 13 7 -1.1 1.2
0 -13 7 0.6 1
0 -13 -7 0.4 1
0 13 -7 -0.8 0.8
0 13 -7 -0.8 0.6
0 -13 7 -0.3 0.8
1 -13 7 -0.2 1
-1 -13 -7 -0.5 0.9
-1 -13 -7 1.7 1
1 13 -7 -1 0.6
-1 13 7 1 1.3
-1 13 7 -1.4 1.2
1 -13 7 -0.9 1
1 13 -7 1.8 1.2
1 13 -7 1 0.8
1 13 -7 0.2 0.8
1 13 7 1.7 0.8
1 13 7 -0.1 1.3
-1 -13 7 -0.1 0.8
-1 13 -7 -0.9 0.8
1 -13 -7 -1 0.9
-1 -13 7 -0.4 0.9
1 -13 -7 2 1.1
1 13 7 -0.5 1.1
-1 -13 7 0.5 0.9
-1 -13 7 -0.3 1.2
-1 13 -7 2.5 1.3
2 -13 7 0.6 1.1
2 13 -7 4.6 1
-2 -13 -7 1.6 1.1
-2 13 7 1.8 1.2
-2 13 7 1.6 1.4
2 -13 7 5.5 1.5
2 13 -7 2.1 1.1
2 13 -7 0.5 0.9
-2 -13 -7 3.2 1.1
2 13 7 1.3 0.7
-2 -13 7 2.5 1.1
-2 -13 7 3.9 1.3
2 13 7 3.6 1.5
-2 -13 7 0.4 0.9
-2 13 -7 1.3 1.3
-2 13 -7 -0.6 1
2 13 7 2.1 1
-2 -13 7 2.4 1.1
2 13 7 2.4 1.2
2 -13 -7 1.7 1.2
2 -13 -7 1.9 1.1
3 -13 7 68.29 11.8
3 13 -7 100.29 11.7
3 13 -7 81.99 11.8
-3 13 7 82.09 12
-3 -13 -7 78.59 11.7
-3 -13 -7 71.69 11.7
3 -13 7 78.59 11.8
-3 -13 -7 74.39 11.8
3 13 -7 73.49 11.6
3 13 -7 68.19 11.6
-3 13 7 84.99 11.9
-3 -13 7 82.69 11.7
-3 -13 7 77.79 11.8
-3 -13 7 65.09 11.6
-3 13 -7 86.19 11.9
3 13 7 94.79 11.9
3 13 7 63.49 11.6
3 13 7 69.39 11.7
3 -13 -7 64.89 11.8
3 -13 -7 60.29 11.7
-3 13 -7 83.29 11.8
-4 -13 -7 22.3 3
4 -13 7 11.8 2.7
4 13 -7 16.9 2.6
4 -13 7 7.4 2.6
4 13 -7 15 2.7
-4 -13 -7 16.2 2.9
-4 13 7 9.6 2.9
4 13 -7 14.4 2.4
-4 13 7 12.7 2.9
4 13 -7 12.8 2.4
-4 -13 -7 16.1 2.8
-4 -13 -7 17.7 2.8
4 -13 -7 15.2 2.9
4 13 7 12.9 2.8
4 13 7 12.1 2.5
4 13 7 15.5 2.6
4 -13 -7 15.5 2.9
4 13 7 15.2 2.8
-4 13 -7 13.7 2.9
-4 -13 7 18.9 2.9
-4 13 -7 17.1 3.1
5 -13 7 1 1.1
5 13 -7 1.6 0.8
5 13 -7 2.7 0.9
-5 13 7 2.5 1.5
-5 -13 -7 0.9 1
-5 -13 -7 -0.2 1.5
5 -13 7 2.9 1.3
-5 -13 -7 -0.5 1
5 13 7 2.3 1.5
5 13 7 1.3 0.9
-5 13 -7 0.9 1.3
5 13 7 1.3 0.8
-5 13 -7 0.5 1.3
5 13 7 2.3 1.2
6 13 -7 0.6 0.7
-6 13 7 -0.4 1.3
6 13 -7 1.2 0.7
6 -13 7 1.3 1.2
6 -13 7 1.5 1.4
-6 13 7 -1.6 1.2
-6 13 -7 -0.2 1.3
6 13 7 1.5 1.3
6 13 7 1.8 0.8
6 -13 -7 0 1.4
6 13 7 0.9 1
-6 13 -7 0.6 1.3
6 13 7 1.2 1
6 -13 -7 1.5 1.3
0 -14 -7 9.2 2.1
0 14 -7 6.3 2
0 -14 7 8.3 1.9
0 -14 -7 7.2 1.9
0 14 -7 7.3 1.8
0 14 7 10.2 2.1
0 -14 7 9.2 1.9
-1 14 7 11.5 3.2
1 14 -7 22.3 4
-1 -14 -7 20.1 3.2
-1 14 7 14.8 3.1
1 14 -7 16.5 3.1
-1 -14 -7 19.5 3.2
1 -14 7 12.5 3
1 14 -7 16.7 2.9
1 14 -7 22.7 3.1
1 -14 -7 22.9 3.4
-1 -14 7 20.5 3.1
-1 14 -7 12.9 3
-1 -14 7 13.5 2.9
1 14 7 15.2 3.2
-1 14 -7 13.3 3
1 14 7 13.1 3
2 14 -7 18.4 3.1
-2 14 7 14.4 3.1
-2 14 7 16.5 3.4
2 14 -7 14.4 2.8
-2 -14 -7 16.5 3
2 -14 7 22.9 3.4
-2 -14 -7 17.7 3.1
2 14 -7 20.7 3
2 14 -7 14.6 2.9
2 -14 7 18.4 3.2
-2 -14 7 18.3 3.2
2 14 7 11.4 2.7
-2 -14 7 15.2 3.2
-2 -14 7 16.8 3
2 -14 -7 12.8 3
2 14 7 18.1 3.1
2 14 7 9.5 3.1
-2 14 -7 13.1 3.1
-2 -14 7 17.1 3
2 -14 -7 19.5 3.4
-2 14 -7 19.3 3.1
3 14 -7 0.4 0.8
3 -14 7 2.5 1.2
-3 14 7 0.1 1.4
3 14 -7 0.5 0.7
-3 -14 -7 0.8 1
3 -14 7 0.2 1.1
-3 -14 -7 -0.2 0.9
-3 14 7 -0.4 1.1
3 14 -7 1.2 1.1
3 14 -7 0.6 1
3 14 7 0.2 0.7
-3 -14 7 1.3 1.4
3 14 7 -1.1 1.2
-3 14 -7 -0.6 1.2
-3 14 -7 0.3 1.1
-3 -14 7 1.5 1.2
-3 -14 7 1.7 1
3 -14 -7 0 1
-3 -14 7 -0.3 0.9
3 -14 -7 0.9 1.2
4 -14 7 7 2
-4 -14 -7 5.8 1.7
4 14 -7 12.5 2
-4 -14 -7 7.7 2
-4 14 7 6.5 2.2
-4 14 7 6.9 2.1
-4 -14 -7 7.2 1.9
4 14 -7 12.2 1.8
4 14 -7 9.8 1.6
4 14 7 6 1.6
-4 14 -7 6.5 1.9
-4 14 -7 9 2.2
4 14 7 9.4 2.2
4 -14 -7 6.4 2
4 14 7 8.5 2
-5 14 7 0.7 1.5
5 -14 7 -0.5 1.2
5 -14 7 2.9 1.4
5 14 -7 0.3 0.9
-5 14 7 0.5 1.4
5 14 -7 0.6 0.9
5 14 7 -1.1 1.4
5 -14 -7 0.7 1.3
-5 14 -7 1.5 1.4
5 14 7 -0.9 0.9
5 -14 -7 0.5 1.1
5 14 7 -0.3 0.7
-5 14 -7 0.5 1.2
0 -15 -7 -1.2 0.9
0 -15 7 0 1.1
0 15 7 -1.4 1
0 -15 7 1.3 1.2
0 15 7 -2 1.3
0 15 -7 -0.1 0.9
0 -15 -7 0.9 1.1
0 15 -7 -0.7 1.2
1 15 -7 16.6 2.9
1 -15 7 16.8 3
-1 15 7 15.2 3.1
-1 15 7 11.1 3
1 -15 7 18.2 3.1
-1 -15 -7 15 3
1 15 -7 18.7 2.9
1 15 -7 13.8 3
1 -15 -7 21.9 3.2
1 15 7 8.8 3.1
1 -15 -7 14.8 3
1 15 7 14.7 3
-1 -15 7 12 2.8
-1 15 -7 15.6 2.9
-1 15 -7 12.5 3
-1 -15 7 17.4 3
2 15 -7 7.9 1.6
-2 15 7 7 2.2
2 15 -7 5.6 1.8
2 -15 7 7 1.9
-2 -15 -7 7.2 1.8
-2 -15 -7 4.8 1.7
2 -15 7 6.6 1.7
2 15 -7 6.2 1.5
-2 -15 7 5.3 1.6
2 15 7 6.9 1.8
-2 -15 7 7.5 1.7
-2 15 -7 5.8 2
-2 15 -7 7.4 1.8
2 15 7 4.9 1.9
-3 -15 -7 49.2 7.4
-3 15 7 26.5 7.3
3 -15 7 43.9 7.6
-3 -15 -7 40.6 7.3
3 15 -7 51.19 7.4
3 15 -7 49.6 7.1
-3 15 7 27.6 7.3
3 -15 7 50.49 8.2
3 15 -7 50.09 7.4
-3 -15 7 62.49 7.5
3 15 7 36.2 7.3
-3 15 -7 43 7.5
3 15 7 59.09 7.8
-3 -15 7 51.79 7.4
3 -15 -7 37.2 7.4
-3 -15 7 50.89 7.4
3 15 7 43 7.1
-3 -15 7 52.39 7.5
-4 15 7 3.8 1.8
4 15 -7 3.4 1.2
-4 -15 -7 5.3 1.5
4 -15 7 4.6 1.6
4 -15 7 4.9 1.6
4 15 -7 4.2 1.5
-4 -15 -7 6.5 1.5
4 15 -7 4.1 1.1
-4 15 7 2 1.6
4 15 -7 3.8 1
-4 15 -7 2.6 1.6
-4 15 -7 3.7 1.5
4 15 7 2.4 1.7
4 15 7 3.7 1.4
4 -15 -7 4.5 1.6
4 -15 -7 2.8 1.4
4 15 7 4.6 1.2
5 -15 7 -0.4 1.1
5 15 7 1.1 0.9
5 -15 -7 2 1.2
0 16 -7 0.3 1.2
0 16 -7 0 1
0 -16 -7 0.9 1.1
0 -16 -7 0.3 1.2
0 16 7 -1 1.1
0 16 7 -0.4 1.5
0 -16 7 0.4 1.1
0 -16 7 -0.5 1.1
1 -16 7 33.3 5.1
1 -16 7 31.8 5
-1 -16 -7 24.6 4.9
1 16 -7 28.1 5
1 16 -7 34.5 5
-1 -16 -7 23.6 4.8
-1 -16 7 31.9 4.9
-1 -16 7 32 5
-1 16 -7 16.5 4.7
1 16 7 35 5.2
-1 16 -7 33.9 5.1
1 16 7 24.4 4.9
2 16 -7 -0.1 1.2
-2 -16 -7 -1.1 1
-2 -16 -7 0.1 1.2
2 -16 7 2.5 1.4
-2 16 7 1.6 1.6
2 16 -7 0.5 0.9
2 16 -7 -0.6 0.9
2 16 7 2.2 1.3
-2 -16 7 2.9 1.2
2 -16 -7 0.9 1.2
2 16 7 2.9 1.7
2 -16 -7 3.2 1.4
3 16 -7 1.3 0.9
3 16 -7 1.5 0.9
3 16 -7 1.6 1.3
-3 -16 -7 3.2 1.2
3 16 -7 1.1 1
-3 16 7 -0.8 1.3
3 -16 7 1.9 1.3
3 -16 7 0.8 1.4
-3 16 7 -0.8 1.4
-3 -16 -7 -1 1
-3 16 -7 1.2 1.3
3 16 7 0.8 1.6
3 -16 -7 1.2 1.1
3 16 7 1.9 1.2
3 -16 -7 -1 1.2
-3 -16 7 -0.4 1
-4 16 7 -0.4 1.6
-4 -16 -7 -1.5 0.9
-4 -16 -7 1.7 1.2
4 -16 7 1 1.3
4 -16 7 1.1 1.3
4 16 -7 0.7 1.3
-4 16 7 1 1.4
4 16 -7 1.2 1
4 16 -7 1.5 0.9
4 16 -7 -0.1 0.8
-4 16 -7 0.2 1.4
4 16 7 0.8 0.8
4 -16 -7 1.5 1.2
4 -16 -7 -0.7 1.2
4 16 7 1.6 1.3
-4 16 -7 2 1.3
4 16 7 1.3 1.5
0 17 -7 0.5 1.4
0 -17 -7 1.2 1.1
0 -17 7 0.3 1.1
0 -17 7 -1.2 1
0 17 7 -1.2 1.7
0 17 -7 -0.4 1
1 -17 7 3.8 1.4
-1 17 7 1.1 1.6
-1 17 7 1.9 1.4
-1 -17 -7 4.5 1.5
1 17 -7 2.5 1.3
1 17 -7 1.6 1.4
1 -17 -7 2.7 1.5
1 17 7 3.9 1.5
-1 -17 7 1 1.2
-1 -17 7 2.3 1.2
1 17 7 1.2 1.8
1 -17 -7 0.4 1.1
2 -17 7 2.6 1.4
-2 -17 -7 3.5 1.4
2 -17 7 3.6 2
-2 -17 -7 2.3 1.3
-2 17 7 1.9 1.5
2 17 -7 1.1 1.4
2 17 -7 4.1 1.2
2 -17 -7 3.1 1.6
2 -17 -7 4.2 1.5
-2 17 -7 5 1.7
2 17 7 3.3 2.2
-2 17 -7 0 1.3
-2 -17 7 3.3 1.3
2 17 7 4.1 1.8
-2 -17 7 1.9 1.3
0 0 -8 57.19 8.8
0 0 -8 65.29 8.8
0 0 -8 49.99 8.8
0 0 8 60.79 8.8
0 0 8 59.39 8.8
0 0 8 46.8 8.8
0 0 -8 58.89 8.8
0 0 8 60.89 8.8
1 0 -8 775.52 118.09
-1 0 8 840.82 118.09
-1 0 8 698.13 118.09
1 0 -8 730.03 118.09
-1 0 8 870.91 118.09
-1 0 8 870.61 118.09
1 0 8 715.73 118.09
1 0 8 731.63 118.09
-1 0 -8 727.23 118.19
-1 0 -8 805.92 118.19
2 0 8 91.39 13.8
-2 0 8 98.79 13.8
2 0 -8 85.29 13.7
-2 0 8 95.09 13.7
-2 0 -8 83.49 13.8
-2 0 -8 90.89 13.8
-2 0 -8 92.79 13.7
2 0 8 97.39 13.8
2 0 -8 88.29 13.7
2 0 -8 93.59 13.7
2 0 -8 89.39 13.7
2 0 8 86.89 13.7
-2 0 8 90.39 13.7
-2 0 8 82.89 13.7
2 0 8 79.29 13.7
-3 0 -8 557.74 90.69
-3 0 -8 546.95 90.69
3 0 8 628.64 90.69
3 0 -8 594.74 90.59
-3 0 8 637.74 90.59
-3 0 -8 577.64 90.69
3 0 8 646.74 90.69
-3 0 -8 569.34 90.69
-3 0 8 599.54 90.59
-3 0 8 631.74 90.59
3 0 -8 622.14 90.59
3 0 8 557.94 90.59
3 0 -8 592.94 90.59
-3 0 8 575.74 90.59
3 0 -8 589.34 90.59
4 0 -8 14.5 2.8
-4 0 -8 18 2.9
4 0 -8 16.4 2.8
-4 0 -8 15.2 2.9
-4 0 8 19.7 2.9
4 0 8 22.5 2.9
4 0 -8 14.5 2.7
-4 0 8 21.3 2.9
-4 0 8 19.3 2.8
-4 0 8 17.4 2.9
-4 0 -8 10.9 3
4 0 8 19.4 3
-4 0 -8 17.9 2.9
4 0 -8 17.6 2.8
4 0 8 13.9 2.8
5 0 8 259.57 41.7
5 0 -8 273.97 41.6
5 0 -8 288.37 41.6
-5 0 -8 261.37 41.7
5 0 -8 266.47 41.6
5 0 8 271.67 41.7
-5 0 -8 294.27 41.7
-5 0 8 246.28 41.6
5 0 8 265.57 41.7
-5 0 -8 283.97 41.7
5 0 -8 281.47 41.6
-5 0 -8 307.97 41.7
-5 0 8 283.47 41.7
5 0 8 245.88 41.6
-6 0 -8 -0.3 0.7
6 0 8 -0.8 0.5
-6 0 8 0.5 0.8
6 0 8 -0.8 0.7
-6 0 8 0.3 0.6
-6 0 -8 -0.1 0.6
6 0 8 0.1 0.6
-6 0 8 2.2 0.9
-6 0 -8 -0.2 0.8
7 0 8 36.6 4.5
-7 0 8 26.2 4.3
7 0 8 34.5 4.5
-7 0 8 27.6 4.3
-7 0 -8 24.9 4.4
-7 0 -8 23.4 4.3
7 0 -8 24.4 4.3
-7 0 8 28.9 4.3
-7 0 8 23.4 4.2
-7 0 -8 19.2 4.2
7 0 8 17.1 4.3
-7 0 -8 33.3 4.4
7 0 8 29.8 4.4
-8 0 -8 22.3 4.5
-8 0 -8 26 4.5
8 0 -8 28.1 4.5
8 0 8 30.3 4.6
-8 0 -8 30.2 4.7
8 0 8 28.8 4.6
-8 0 -8 25 4.5
8 0 -8 28 4.5
8 0 8 27.6 4.6
9 0 8 3.3 1.2
9 0 8 4 1.4
9 0 -8 2.4 1.3
9 0 8 7.9 1.6
9 0 -8 3.5 1.2
9 0 8 2.3 1.3
0 -1 8 0.2 0.6
0 1 8 0.1 0.7
0 -1 8 0.1 0.6
0 1 8 0.2 0.6
0 1 8 0.2 0.6
0 1 -8 -0.1 0.5
0 1 -8 0.6 0.7
0 -1 -8 -0.5 0.5
0 -1 -8 -0.3 0.7
0 -1 8 0.7 0.7
0 -1 -8 0.2 0.6
0 1 -8 -0.4 0.6
0 1 -8 -0.3 0.5
0 1 8 0.4 0.6
0 -1 -8 0 0.6
0 -1 8 -0.5 0.6
1 -1 8 6.9 1.6
-1 -1 -8 7.5 1.7
-1 1 8 8.3 1.7
1 -1 8 10.7 1.7
-1 1 8 8.1 1.6
1 1 -8 10.7 1.6
1 1 -8 10.7 1.7
1 1 -8 10.5 1.6
-1 -1 -8 10.9 1.8
-1 1 8 10.4 1.7
-1 1 8 12.6 1.9
-1 -1 8 10.9 1.7
1 1 8 7 1.6
-1 1 -8 5.5 1.6
1 -1 -8 12 1.7
1 -1 -8 8.3 1.6
-1 -1 8 7.8 1.6
-1 1 -8 5.3 1.6
1 -1 -8 12.9 1.7
1 -1 -8 9.1 1.6
-1 -1 8 10.1 1.6
-1 -1 8 9.7 1.6
1 1 8 9.7 1.7
-2 1 8 86.29 13.9
-2 1 8 87.39 13.9
-2 1 8 82.79 14
2 1 -8 75.69 13.9
-2 1 8 105.79 14
2 1 -8 88.39 13.9
2 -1 8 102.49 14
-2 -1 -8 95.39 14
2 1 -8 104.29 13.9
2 -1 8 97.09 13.9
-2 -1 -8 88.49 14
-2 -1 -8 99.99 14
2 -1 8 83.79 13.9
2 1 -8 89.89 13.9
-2 -1 -8 95.89 14
2 -1 8 83.69 14
2 -1 -8 85.39 13.9
-2 -1 8 90.59 13.9
-2 -1 8 82.29 13.9
-2 -1 8 94.99 13.9
2 -1 -8 99.09 14
2 1 8 88.09 13.9
-2 1 -8 90.99 14
2 -1 -8 92.19 13.9
-2 1 -8 89.59 14
-2 -1 8 82.29 13.9
-2 1 -8 98.59 14
2 -1 -8 92.89 13.9
2 1 8 103.19 14
-2 1 -8 83.39 14
2 1 8 90.59 13.9
3 -1 8 139.69 23.5
-3 1 8 176.78 23.5
3 1 -8 161.28 23.5
-3 -1 -8 153.28 23.5
3 1 -8 153.28 23.5
3 1 -8 132.59 23.5
-3 -1 -8 147.19 23.5
3 -1 8 128.69 23.5
3 -1 8 168.88 23.5
-3 1 8 170.38 23.6
3 -1 8 158.08 23.5
-3 -1 -8 145.89 23.5
-3 -1 -8 147.69 23.5
-3 -1 8 160.48 23.5
3 -1 -8 173.18 23.6
3 -1 -8 162.08 23.5
3 1 8 137.49 23.5
3 -1 -8 170.48 23.5
-3 1 -8 155.78 23.5
3 1 8 164.48 23.5
-3 1 -8 149.59 23.5
-3 1 -8 143.69 23.5
3 1 8 159.38 23.5
-3 1 -8 147.39 23.6
-3 -1 8 154.08 23.5
-3 -1 8 149.99 23.5
3 1 8 148.99 23.5
3 -1 -8 164.48 23.5
-3 -1 8 151.88 23.5
4 1 -8 31.2 4.8
4 -1 8 33.3 5
-4 1 8 33.9 5
4 1 -8 29.4 4.8
-4 1 8 28.1 5
4 -1 8 36.5 5
-4 -1 -8 31 4.8
4 1 -8 26.6 4.7
4 -1 8 29.5 5
-4 -1 -8 35.5 5
4 -1 8 30.3 4.9
4 1 -8 29.9 4.7
-4 -1 -8 36 5
-4 -1 -8 30.7 4.9
-4 1 -8 24.9 4.9
4 -1 -8 28 4.9
-4 1 -8 27.9 4.9
4 1 8 27.1 4.8
-4 1 -8 43.8 5.1
-4 -1 8 31.8 4.8
4 -1 -8 32 4.8
-4 -1 8 26.4 4.8
4 1 8 30.8 4.9
4 1 8 31.8 4.9
4 -1 -8 33.8 4.8
4 1 8 30.1 4.8
-4 1 -8 41 5.1
-4 -1 8 32.9 4.8
-4 -1 8 31 4.9
-5 1 8 10 2.2
-5 1 8 16.2 2.4
5 -1 8 12.3 2.3
-5 -1 -8 13.7 2.3
-5 -1 -8 13.2 2.2
5 -1 8 11.8 2.2
5 -1 8 14.2 2.3
-5 1 8 15.3 2.3
-5 -1 -8 12 2.2
-5 1 8 11 2.1
5 1 -8 10.7 2.1
5 -1 8 20.8 2.5
5 1 -8 13.9 2.1
-5 -1 -8 16.2 2.3
5 -1 -8 11 2.2
-5 1 -8 12.5 2.3
-5 -1 8 12.3 2.1
5 -1 -8 11.1 2.1
5 -1 -8 12.3 2.1
-5 -1 8 11.2 2.1
-5 1 -8 9.3 2.2
5 1 8 14.4 2.2
5 -1 -8 12.8 2.3
5 1 8 10.4 2.2
5 1 8 13.1 2.2
5 1 8 12.6 2.2
-5 -1 8 13.3 2.2
-5 1 -8 13.5 2.3
-5 1 -8 14.7 2.3
-5 -1 8 8.8 2.1
-6 -1 -8 1.3 0.8
6 -1 8 2.2 0.9
6 -1 8 1.7 0.9
-6 1 8 1.5 1
-6 -1 -8 1.5 0.9
6 1 -8 0.8 0.7
-6 1 8 0.9 0.8
6 -1 8 2.6 0.9
-6 1 8 1.8 1
-6 1 8 0.5 0.7
-6 -1 -8 1.9 0.9
-6 -1 -8 0.4 0.8
6 1 8 1.2 0.7
-6 1 -8 0.9 0.9
6 -1 -8 1.8 1
-6 -1 8 -0.5 0.8
6 1 8 0.5 0.7
6 -1 -8 1.9 0.7
-6 1 -8 1.3 0.8
6 1 8 1.9 0.7
6 1 8 1.5 0.9
-6 -1 8 2.8 0.9
6 -1 -8 2.6 0.9
-6 -1 8 1.2 0.7
-7 1 8 0.1 1
7 -1 8 1.5 1
-7 -1 -8 2.9 1.1
-7 -1 -8 0.2 0.9
7 -1 8 2.2 1.1
7 1 -8 -0.5 0.7
7 1 -8 0.5 0.7
7 -1 8 0.8 0.8
-7 1 8 1.7 1
-7 1 8 1.6 0.8
-7 1 8 1 0.8
-7 1 -8 -0.1 0.7
7 -1 -8 0.4 0.9
-7 1 -8 0.5 0.9
7 1 8 1 0.8
7 -1 -8 1.6 1
-7 -1 8 -0.9 0.7
7 -1 -8 1.3 0.7
7 -1 -8 1 0.6
7 1 8 1.8 0.8
-7 1 -8 -0.7 0.8
-7 1 -8 1.5 0.9
8 -1 8 -0.2 0.8
8 -1 8 -0.9 0.9
8 1 -8 0.5 0.8
8 -1 8 0.3 1
-8 -1 -8 -0.3 0.8
-8 -1 -8 0.1 0.8
8 -1 8 -0.5 0.8
-8 -1 -8 -0.7 0.8
-8 -1 -8 0.7 1
8 -1 -8 -0.6 1
8 1 8 -1 0.8
8 1 8 -0.3 0.9
-8 1 -8 0.4 0.9
-8 1 -8 0.9 1.1
-8 1 -8 1.2 0.9
8 -1 -8 0.6 1
8 1 8 0.3 0.8
8 1 8 -0.8 0.9
0 2 8 1 0.7
0 -2 8 0.2 0.6
0 -2 8 0.5 0.6
0 2 -8 1.4 0.7
0 2 -8 1 0.7
0 -2 -8 1.9 0.8
0 2 8 0.4 0.8
0 -2 -8 1 0.7
0 -2 8 2.1 0.7
0 2 -8 3.2 0.7
0 -2 8 0.6 0.6
0 2 -8 1.5 0.6
-1 2 8 0.8 0.7
1 2 -8 0.6 0.5
1 -2 8 0.2 0.7
-1 -2 -8 1 0.7
1 2 -8 0.8 0.6
-1 2 8 0 0.8
1 2 -8 0.4 0.5
1 -2 8 0.3 0.6
-1 -2 -8 2.2 0.8
1 2 -8 -0.2 0.6
-1 -2 8 0.8 0.6
1 2 8 0.2 0.7
-1 2 -8 0 0.5
1 -2 -8 1.1 0.7
1 -2 -8 1 0.7
-1 -2 8 0.6 0.6
-1 2 -8 0.5 0.6
-1 -2 8 0.2 0.6
-1 -2 8 0.6 0.6
1 2 8 1.1 0.7
2 -2 8 13.7 4
2 -2 8 26.9 4.1
2 2 -8 23.4 3.9
-2 2 8 23.3 4.1
2 2 -8 23.2 4
-2 2 8 32.3 4.1
2 -2 8 23.8 4.1
2 2 -8 27.1 3.9
-2 -2 -8 40.6 4.3
-2 -2 -8 28.9 4.1
-2 -2 -8 23.2 4.1
-2 -2 -8 28.5 4
2 -2 8 27.7 4.1
2 2 -8 20.9 3.9
-2 2 -8 32.8 4.2
-2 -2 8 27.5 4
2 2 8 31.3 4.1
-2 -2 8 23.3 4
2 -2 -8 24.5 4.1
2 -2 -8 19.6 4
-2 -2 8 24.4 4
-2 2 -8 26.8 4.1
-2 2 -8 33.9 4.2
-2 2 -8 24.7 4.1
3 2 -8 1.1 0.5
-3 -2 -8 1.2 0.7
-3 2 8 1.2 0.7
-3 -2 -8 1.6 0.8
-3 -2 -8 1 0.6
-3 -2 -8 0.5 0.7
3 2 -8 1 0.4
-3 2 8 -1 1
3 2 -8 2.1 0.6
3 2 -8 0.6 0.4
3 -2 8 2.2 0.8
-3 2 8 -0.4 0.6
3 -2 8 0.3 0.5
-3 2 -8 2.2 0.8
-3 2 -8 1.2 0.7
-3 -2 8 0.7 0.5
3 -2 -8 1.7 0.8
3 2 8 0.5 0.5
-3 2 -8 1.7 0.9
-3 -2 8 0.2 0.6
-3 -2 8 0.8 0.5
3 -2 -8 0.9 0.7
3 2 8 1 0.5
3 2 8 0.2 0.6
-3 -2 8 1.7 0.5
3 -2 -8 1.4 0.7
3 2 8 1.9 0.7
-3 2 -8 0.2 0.7
4 -2 8 5.9 1.6
4 -2 8 10.5 1.7
-4 2 8 6.6 1.8
-4 2 8 8.7 1.8
-4 -2 -8 7.9 1.7
-4 -2 -8 11.4 1.8
-4 2 8 12.4 1.8
4 2 -8 9 1.5
-4 -2 -8 9.2 1.7
-4 2 8 8.8 1.7
4 -2 8 10 1.8
-4 -2 -8 8.4 1.7
4 -2 8 9.5 1.7
4 2 -8 8.1 1.5
4 -2 -8 8.9 1.7
4 2 8 7.7 1.6
-4 -2 8 7.6 1.5
-4 2 -8 10.4 1.8
4 -2 -8 9.9 1.7
-4 -2 8 8.8 1.5
4 2 8 9.9 1.7
4 -2 -8 11.3 1.8
-4 2 -8 7.7 1.7
4 2 8 7.8 1.6
-4 -2 8 7.8 1.5
-4 -2 8 10.2 1.6
4 2 8 11.7 1.7
-4 2 -8 9.5 1.8
-4 2 -8 6.3 1.6
-5 2 8 5.8 1.3
-5 2 8 5.3 1.4
-5 2 8 7.6 1.6
-5 -2 -8 5.9 1.3
5 2 -8 5.1 1.1
-5 -2 -8 6 1.4
-5 -2 -8 5.6 1.3
5 -2 8 6.7 1.4
5 -2 8 7 1.4
5 2 -8 5.2 1.1
-5 2 8 7.9 1.4
5 -2 8 5.3 1.3
-5 -2 -8 4.6 1.2
5 2 8 8.5 1.3
-5 2 -8 5.8 1.4
5 2 8 5.9 1.2
5 -2 -8 3.9 1.2
-5 -2 8 5.3 1.1
5 2 8 8.1 1.3
-5 -2 8 6.9 1.2
5 -2 -8 6.2 1.3
-5 -2 8 4.6 1.2
-5 -2 8 5.4 1.1
5 -2 -8 8.2 1.4
5 2 8 7 1.3
-6 -2 -8 1 0.7
6 2 -8 0.9 0.6
6 -2 8 4.2 1.1
6 -2 8 2.2 0.9
6 -2 8 3 1
-6 2 8 1.2 0.9
-6 2 8 0 0.9
-6 -2 -8 2.4 0.9
6 2 -8 1 0.7
-6 -2 -8 1.3 0.8
-6 2 8 1.2 0.8
-6 2 8 2.4 1.1
-6 2 -8 3.3 1.1
6 -2 -8 0.2 0.7
-6 2 -8 -0.1 0.8
-6 -2 8 1.7 0.7
-6 -2 8 1.3 0.6
6 2 8 2.4 0.8
-6 -2 8 1.5 0.7
6 -2 -8 0.8 0.9
6 2 8 2 0.9
6 2 8 1.9 0.8
-6 2 -8 2.6 1
6 2 8 1.6 0.8
6 -2 -8 1.6 0.9
-6 -2 8 0.5 0.7
-6 2 -8 -0.9 0.7
-7 2 8 3.3 1
7 -2 8 0.7 1
-7 2 8 3.5 1.2
7 2 -8 4.2 0.9
7 2 -8 2.9 0.9
-7 -2 -8 1.8 1
7 -2 8 4.5 1.2
7 -2 8 4.2 1.1
-7 2 8 2.5 1
-7 2 8 3.7 1.3
-7 -2 -8 3.3 1.1
7 -2 -8 1.4 1
7 2 8 1.4 0.9
7 2 8 2.1 0.9
-7 2 -8 1.4 0.9
7 -2 -8 2.6 1.1
7 2 8 3.3 1
7 -2 -8 1.9 0.9
-7 2 -8 3.7 1.3
-7 2 -8 2 1
-7 2 -8 4.8 1.2
-8 -2 -8 0.3 0.8
8 -2 8 2.1 1.1
-8 -2 -8 -0.5 0.9
8 2 -8 0.7 0.7
8 -2 8 0.2 0.9
8 -2 8 -0.4 0.8
-8 2 -8 1 0.9
-8 2 -8 -0.9 0.8
8 -2 -8 -0.3 1.1
8 -2 -8 -0.7 0.7
8 -2 -8 0.6 1
8 2 8 -0.7 0.8
8 2 8 -1.1 0.8
8 2 8 -0.8 0.8
8 2 8 -0.9 0.7
0 -3 -8 0.6 0.6
0 -3 -8 0.5 0.7
0 3 8 0.2 0.7
0 3 8 0.3 0.7
0 -3 -8 0.1 0.6
0 -3 8 -0.1 0.7
0 3 -8 0.7 0.6
0 3 8 -1.3 0.6
0 3 8 0.7 0.7
0 3 -8 -0.3 0.6
0 -3 -8 -0.3 0.7
0 -3 8 -0.1 0.6
-1 -3 -8 147.49 20.8
-1 3 8 130.09 20.8
1 -3 8 124.59 20.8
1 3 -8 130.59 20.8
-1 3 8 145.69 20.8
1 3 -8 131.99 20.8
1 -3 8 133.79 20.8
-1 3 8 137.69 20.9
1 -3 8 138.89 20.8
-1 -3 -8 120.59 20.8
1 3 -8 130.49 20.8
1 -3 8 140.49 20.8
-1 -3 -8 150.18 20.8
-1 3 8 136.59 20.8
-1 -3 -8 131.39 20.8
-1 3 -8 132.09 20.8
1 -3 -8 145.69 20.8
1 3 8 152.98 20.8
1 -3 -8 141.89 20.8
1 3 8 155.88 20.8
-1 -3 8 161.38 20.8
-1 3 -8 126.59 20.8
1 -3 -8 134.49 20.8
1 -3 -8 149.88 20.9
-1 -3 8 138.89 20.8
1 3 8 133.79 20.8
-1 -3 8 131.29 20.8
-1 3 -8 126.19 20.8
-1 3 -8 121.09 20.8
-1 -3 8 119.59 20.8
1 3 8 130.59 20.8
2 -3 8 231.88 43.1
2 3 -8 281.67 43.1
-2 3 8 312.77 43.1
-2 -3 -8 323.57 43.2
2 -3 8 278.37 43.1
-2 3 8 315.47 43.2
-2 -3 -8 283.07 43.1
-2 -3 -8 275.07 43.1
-2 -3 -8 295.07 43.1
-2 3 8 259.87 43.2
2 -3 8 247.88 43.1
2 3 -8 298.17 43.1
-2 3 8 249.38 43.1
2 3 -8 320.57 43.1
2 3 -8 273.17 43.1
2 -3 8 293.17 43.1
2 3 8 284.97 43.1
2 -3 -8 271.17 43.1
2 3 8 310.47 43.1
-2 -3 8 248.28 43.1
2 3 8 328.97 43.1
-2 3 -8 297.87 43.1
-2 -3 8 318.67 43.1
2 3 8 258.07 43.1
-2 3 -8 275.67 43.1
-2 3 -8 271.47 43.1
-2 -3 8 250.87 43.1
-3 3 8 415.16 62.09
-3 3 8 413.16 62.19
-3 3 8 389.26 62.09
3 -3 8 397.86 62.19
-3 -3 -8 385.26 62.09
-3 3 8 382.76 62.19
3 -3 8 376.46 62.09
-3 -3 -8 446.16 62.09
3 3 -8 415.06 61.99
-3 -3 -8 379.56 62.09
3 3 -8 425.16 62.09
3 3 -8 405.46 62.09
3 -3 -8 382.46 62.09
3 -3 -8 439.66 62.19
-3 3 -8 362.16 62.09
-3 -3 8 428.36 62.09
-3 -3 8 406.76 62.09
3 -3 -8 428.86 62.09
3 3 8 465.35 62.09
-3 -3 8 393.06 62.09
3 3 8 391.16 62.09
-3 3 -8 414.16 62.19
3 3 8 420.56 62.09
3 3 8 376.66 62.09
-3 3 -8 357.96 62.09
3 -3 -8 435.86 62.19
-3 -3 8 441.66 62.09
-3 3 -8 439.16 62.19
-4 -3 -8 27.7 5
-4 -3 -8 34.9 5
4 -3 8 33.3 5.1
4 -3 8 28.4 5
4 3 -8 28.1 4.8
4 -3 8 32 5.1
-4 3 8 39.2 5.2
4 -3 8 43 5.2
-4 -3 -8 28.4 4.9
-4 3 8 31.5 5
-4 -3 -8 29.4 5
4 3 -8 29.7 4.8
-4 3 8 34.4 5
-4 3 8 30.5 5.1
4 -3 -8 29.3 5
-4 -3 8 28.8 4.8
4 3 8 33.2 4.9
4 3 8 31.1 4.9
-4 3 -8 35 5.2
4 3 8 30.2 4.9
-4 3 -8 28.8 5.1
4 -3 -8 32.8 4.9
-4 3 -8 33.7 5.1
4 -3 -8 30.3 5
4 -3 -8 32.1 5.1
4 3 8 33.9 4.9
-4 -3 8 29.2 4.8
-4 -3 8 31.8 4.8
-4 3 -8 37.4 5.1
-4 -3 8 30.8 4.8
-5 -3 -8 1.5 0.8
-5 3 8 -0.4 0.7
-5 -3 -8 0.6 0.7
-5 3 8 0.7 1
-5 3 8 0.8 1
5 -3 8 -0.4 0.7
-5 3 8 -0.2 0.7
-5 -3 -8 0.4 0.8
-5 -3 -8 0.4 0.6
5 -3 8 1.5 0.9
5 -3 8 0.6 0.7
-5 -3 8 1.2 0.5
5 3 8 0.7 0.7
-5 3 -8 0.4 0.8
5 -3 -8 2.1 1
5 -3 -8 0.2 0.8
5 -3 -8 0.6 0.6
5 -3 -8 0.7 0.7
-5 -3 8 0.4 0.5
-5 3 -8 0.2 0.7
-5 -3 8 0 0.5
5 3 8 0.5 0.7
-5 3 -8 1.7 0.9
5 3 8 0.9 0.6
5 3 8 1.1 0.6
6 -3 8 11.8 2.5
-6 3 8 12 2.3
6 -3 8 11.9 2.3
6 -3 8 11.3 2.4
-6 -3 -8 10.2 2.3
-6 3 8 11.3 2.4
-6 3 8 12.3 2.4
-6 3 8 12.1 2.5
-6 -3 -8 15.2 2.4
6 -3 8 12.4 2.4
-6 -3 -8 12.4 2.3
-6 -3 -8 13.2 2.3
6 3 8 17.2 2.4
6 3 8 13.5 2.3
-6 3 -8 14.8 2.5
-6 3 -8 13.4 2.4
-6 3 -8 14.4 2.5
6 -3 -8 13.5 2.4
6 3 8 11.9 2.3
6 -3 -8 11.2 2.4
6 3 8 13.4 2.3
-6 3 -8 11.8 2.4
-6 -3 8 14.1 2.2
6 -3 -8 12.8 2.3
6 -3 -8 12.9 2.3
-7 -3 -8 22.3 3.7
-7 3 8 17.2 3.6
7 -3 8 27.7 3.9
-7 -3 -8 24.3 3.9
7 -3 8 31.1 4
-7 -3 -8 21.1 3.7
7 -3 8 33.7 4.1
-7 3 8 16.4 3.7
7 -3 8 17.1 3.6
-7 -3 -8 22.6 3.7
-7 3 8 22.1 3.7
7 -3 -8 18.6 3.6
-7 3 -8 23 3.8
-7 3 -8 19.1 3.8
7 -3 -8 23.1 3.7
-7 3 -8 27.3 3.9
7 3 8 24.5 3.7
7 3 8 19.2 3.6
7 3 8 22 3.6
7 -3 -8 23.2 3.9
7 3 8 19.6 3.6
8 -3 8 0.7 1
8 -3 8 1.7 1.2
-8 3 8 3.2 1.1
-8 -3 -8 0.3 0.9
8 -3 8 1.5 1
8 3 8 1 0.9
8 3 8 0.5 0.9
8 -3 -8 1.3 0.9
8 -3 -8 -0.4 0.9
-8 3 -8 0.7 0.9
8 -3 -8 1.3 1.2
8 -3 -8 -1.1 1.1
8 3 8 2.4 1
-8 3 -8 3 1
0 -4 8 22.6 3.5
0 -4 -8 14.2 3.4
0 4 8 23.4 3.4
0 -4 8 26.5 3.5
0 -4 -8 24.6 3.5
0 4 -8 31.9 3.6
0 4 8 26.2 3.5
0 4 -8 14.8 3.4
0 -4 8 15.1 3.4
0 -4 -8 18 3.4
0 -4 -8 18.5 3.5
0 4 8 28.7 3.6
0 4 8 21 3.4
-1 -4 -8 140.59 19.2
1 4 -8 119.99 19.1
1 -4 8 126.99 19.2
-1 4 8 127.99 19.2
1 -4 8 116.89 19.2
1 -4 8 149.99 19.2
-1 -4 -8 137.69 19.2
1 4 -8 127.59 19.1
-1 -4 -8 113.09 19.2
-1 4 8 139.69 19.3
1 -4 8 120.19 19.2
1 4 -8 128.79 19.1
-1 -4 -8 128.89 19.2
1 4 -8 137.29 19.1
-1 4 8 127.19 19.2
-1 4 8 118.29 19.2
1 4 8 118.49 19.2
1 -4 -8 113.59 19.2
-1 -4 8 120.09 19.1
1 -4 -8 116.99 19.2
-1 4 -8 128.19 19.2
1 4 8 141.69 19.2
1 4 8 113.89 19.2
-1 4 -8 130.29 19.2
-1 4 -8 121.89 19.2
1 -4 -8 121.39 19.2
1 4 8 122.89 19.2
-1 -4 8 107.39 19.1
-1 -4 8 124.39 19.1
-1 4 -8 118.69 19.2
1 -4 -8 108.69 19.2
-1 -4 8 151.08 19.2
2 4 -8 76.19 11
-2 4 8 80.39 11.1
2 -4 8 63.39 11
2 -4 8 54.59 11
-2 -4 -8 68.89 11
2 4 -8 74.69 11
2 -4 8 68.19 11
-2 -4 -8 68.89 11
2 4 -8 76.49 11
-2 -4 -8 80.79 11
-2 4 8 68.39 11
2 -4 8 75.69 11.1
2 4 -8 70.49 10.9
-2 4 8 80.19 11.1
-2 4 8 67.29 11.1
-2 -4 -8 66.69 11
2 4 8 62.09 11
2 -4 -8 66.19 11
-2 4 -8 62.49 11
2 4 8 69.39 11
-2 4 -8 74.99 11
-2 -4 8 77.09 11
2 -4 -8 78.89 11.1
-2 4 -8 71.29 11.1
-2 -4 8 80.59 11
-2 -4 8 67.29 11
2 4 8 69.19 11
2 4 8 74.09 11
2 -4 -8 80.79 11.1
-2 -4 8 67.29 11
-2 4 -8 76.09 11.1
-3 4 8 3.9 1.2
3 4 -8 4.7 0.9
3 -4 8 5 1.2
3 -4 8 5.3 1.1
-3 -4 -8 4.7 1.1
-3 -4 -8 4.4 1.1
3 -4 8 3.4 1.2
-3 -4 -8 6.3 1.2
-3 4 8 5.3 1.3
3 4 -8 5 1
3 -4 8 3.4 1.1
-3 4 8 4.7 1.2
-3 -4 -8 3.8 1.1
-3 4 8 2.2 1.3
3 4 8 5.3 1
-3 4 -8 4.9 1.3
3 4 8 4.6 1.1
-3 4 -8 5 1.3
3 -4 -8 5.7 1.1
3 -4 -8 5.5 1.3
-3 4 -8 5.4 1.2
-3 4 -8 4.3 1.2
3 -4 -8 5.9 1.3
-3 -4 8 3.8 0.9
-3 -4 8 4.3 0.9
-3 -4 8 5.1 0.9
3 4 8 3.9 1.1
3 -4 -8 4.2 1.2
3 4 8 4.5 1
-4 4 8 180.78 24.2
-4 4 8 175.08 24.2
4 4 -8 160.18 24
4 -4 8 142.79 24.1
-4 4 8 137.89 24.2
-4 -4 -8 157.18 24.1
-4 4 8 160.88 24.1
4 -4 8 154.28 24.2
-4 -4 -8 147.39 24.1
-4 -4 -8 149.99 24.1
-4 -4 8 160.18 24
4 -4 -8 158.18 24.1
-4 4 -8 142.49 24.2
4 4 8 162.88 24.1
-4 -4 8 145.29 24
4 -4 -8 172.58 24.2
-4 -4 8 152.38 24
4 -4 -8 155.68 24.2
4 4 8 161.38 24.1
-4 4 -8 169.58 24.2
4 -4 -8 158.58 24.2
4 4 8 166.28 24.1
-4 -4 8 164.28 24
-5 4 8 27.1 4
-5 4 8 34.2 4.2
-5 -4 -8 24.3 3.9
5 -4 8 18.3 3.9
-5 -4 -8 21.4 3.8
-5 -4 -8 29.2 3.9
-5 4 8 30.8 4.1
-5 4 8 21.2 3.9
5 -4 8 20.3 3.9
-5 -4 -8 25.5 3.8
5 -4 8 22.8 3.9
5 -4 8 22.6 3.9
-5 4 -8 22.6 4
5 -4 -8 23.5 4
5 -4 -8 23.2 3.9
5 4 8 21.7 3.8
-5 4 -8 19.7 3.9
5 4 8 19.1 3.8
-5 4 -8 18.9 3.9
5 4 8 24.2 3.8
-5 4 -8 26.5 4.1
5 -4 -8 24.8 3.9
5 4 8 24.3 3.8
6 -4 8 95.49 17.1
6 -4 8 126.79 17.2
-6 -4 -8 115.29 17
6 -4 8 97.69 17.1
6 -4 8 107.49 17.1
-6 -4 -8 110.99 17.1
-6 -4 -8 109.09 17
-6 -4 -8 114.69 17
-6 4 8 109.09 17.1
-6 4 8 109.29 17.1
6 -4 -8 101.09 17.1
-6 4 -8 116.99 17.2
6 4 8 123.39 17
6 -4 -8 101.69 17.1
-6 4 -8 101.49 17.1
-6 4 -8 120.99 17.1
6 4 8 121.19 17
6 -4 -8 115.39 17.2
-6 4 -8 119.79 17.1
6 4 8 104.49 17
-7 4 8 21.1 3.9
7 -4 8 22.9 4
-7 4 8 22.1 4
-7 4 8 19.3 4
7 -4 8 22.6 3.9
-7 -4 -8 23.3 3.8
7 -4 8 24.1 3.9
-7 -4 -8 27.6 3.9
-7 -4 -8 32.2 4
-7 -4 -8 26.1 3.9
-7 4 8 20.7 3.8
7 -4 -8 17.8 3.8
7 -4 -8 19.3 3.8
-7 4 -8 25 4
7 4 8 24.1 3.8
7 -4 -8 19.4 3.9
7 4 8 24.9 3.8
7 -4 -8 17.1 3.8
7 4 8 24.1 3.8
-7 4 -8 25.6 4
7 4 8 20.8 3.7
-8 4 8 11 1.9
8 -4 8 6.9 1.8
8 -4 8 9.7 1.8
-8 4 8 4 1.8
8 -4 -8 6.6 1.8
8 -4 -8 4.9 1.5
8 4 8 7.9 1.6
8 -4 -8 7.5 1.9
8 4 8 9.9 1.7
-8 4 -8 5.8 1.7
-8 4 -8 8.7 1.8
8 4 8 9.3 1.6
0 5 8 -0.8 0.5
0 5 -8 -0.5 0.5
0 5 8 0 0.5
0 -5 8 0.3 0.7
0 5 8 0.5 0.8
0 5 8 -0.9 0.9
0 -5 8 0.7 0.6
0 -5 8 0.6 0.7
0 -5 -8 0 0.6
0 -5 -8 0 0.7
0 -5 8 0.4 0.7
0 5 -8 0.2 0.5
0 -5 -8 -0.6 0.6
0 5 -8 0.6 0.6
0 -5 -8 0.2 0.9
1 -5 8 61.29 9.9
-1 5 8 61.69 9.9
-1 -5 -8 64.89 9.8
1 -5 8 62.59 9.9
-1 5 8 64.09 9.9
1 -5 8 67.09 9.9
1 5 -8 77.19 9.8
1 5 -8 61.29 9.8
-1 -5 -8 82.29 9.9
-1 5 8 72.39 9.9
-1 -5 -8 51.09 9.8
-1 -5 -8 59.69 9.9
-1 5 8 58.49 9.9
1 5 -8 62.39 9.8
1 -5 8 60.99 9.9
-1 -5 8 66.59 9.8
-1 5 -8 65.49 9.9
-1 5 -8 60.29 9.9
-1 5 -8 54.49 9.8
1 -5 -8 49.3 9.8
1 -5 -8 68.49 9.9
1 5 8 71.19 9.9
1 -5 -8 58.09 9.9
1 5 8 71.69 9.9
-1 -5 8 66.19 9.8
1 -5 -8 69.09 9.9
1 5 8 55.89 9.9
1 5 8 64.59 9.9
-1 5 -8 72.29 9.9
2 5 -8 0.8 0.4
-2 5 8 0 0.8
-2 5 8 1.6 1.1
2 -5 8 1.5 0.8
-2 -5 -8 1.9 0.7
-2 -5 -8 0.3 0.8
2 -5 8 0.8 0.7
-2 5 8 2.2 0.9
-2 -5 -8 0.1 0.7
2 5 -8 0.6 0.5
2 -5 8 -0.8 0.6
2 -5 8 -0.1 0.7
-2 5 8 1.9 1
-2 -5 -8 0.9 0.7
2 5 -8 0.3 0.5
-2 5 -8 1 0.8
2 -5 -8 0.1 0.7
2 5 8 -0.5 0.7
-2 -5 8 0.1 0.5
-2 -5 8 -0.8 0.6
-2 5 -8 1.6 0.7
-2 -5 8 0.6 0.5
-2 -5 8 0.4 0.5
2 -5 -8 0.1 0.7
-2 5 -8 0.7 0.6
2 -5 -8 -1.2 0.8
2 -5 -8 0 0.8
-2 5 -8 0.1 0.7
2 5 8 0.3 0.5
2 5 8 -0.2 0.7
2 5 8 0.9 0.6
-3 5 8 73.99 11.7
-3 -5 -8 75.09 11.7
3 -5 8 77.29 11.7
-3 -5 -8 82.59 11.7
-3 5 8 75.39 11.8
3 5 -8 71.09 11.6
-3 -5 -8 83.29 11.7
-3 -5 -8 67.49 11.6
3 -5 8 79.89 11.7
3 -5 8 71.59 11.7
-3 5 8 71.39 11.7
-3 5 8 72.29 11.7
3 -5 -8 83.69 11.7
3 -5 -8 69.29 11.7
-3 -5 8 78.69 11.6
-3 5 -8 68.09 11.7
-3 5 -8 75.19 11.7
-3 -5 8 79.79 11.6
-3 5 -8 76.99 11.7
3 -5 -8 77.69 11.7
3 5 8 77.49 11.7
3 5 8 77.59 11.6
3 -5 -8 75.99 11.7
-3 -5 8 75.79 11.6
-3 5 -8 71.39 11.7
-3 -5 8 76.39 11.6
3 5 8 75.79 11.7
3 5 8 72.19 11.7
-4 -5 -8 3.9 0.9
4 -5 8 3 1
-4 -5 -8 4.1 1
-4 5 8 2.4 1
-4 -5 -8 2.3 0.9
4 -5 8 2.9 1.1
-4 5 8 1.3 0.9
-4 5 8 0.4 1.2
-4 5 8 3.7 1.2
-4 -5 -8 1.9 0.8
4 -5 8 1.1 1
4 5 -8 3.3 0.7
4 -5 8 3.3 1
4 5 8 3.9 0.9
-4 -5 8 2.3 0.7
4 5 8 4.4 0.8
-4 5 -8 2.8 1.2
-4 5 -8 2.4 0.9
-4 5 -8 1.7 1
4 -5 -8 3.4 1
4 5 8 2.3 0.9
4 -5 -8 2.2 1
4 5 8 3.7 0.9
-4 -5 8 2.7 0.7
4 -5 -8 2.7 1
-4 5 -8 3.1 1.1
4 -5 -8 1.4 0.9
5 -5 8 2.9 1
5 -5 8 2.9 1.1
5 -5 8 2 1
-5 -5 -8 2.2 0.9
-5 -5 -8 2.9 1
-5 5 8 1 0.9
-5 -5 -8 1.8 0.8
-5 5 8 1.5 1
5 -5 8 3.5 1
5 5 8 2.4 0.9
-5 5 -8 3.2 1.2
-5 5 -8 0.4 1
5 -5 -8 2 1.1
-5 5 -8 2.3 1
5 5 8 2.1 0.9
5 -5 -8 2.9 1
5 -5 -8 1.9 1
5 5 8 2.1 0.7
5 5 8 2.4 0.7
-5 5 -8 2.6 1
-6 5 8 88.29 12.9
-6 5 8 91.99 13
6 -5 8 94.69 12.9
6 -5 8 76.59 12.9
-6 5 8 76.79 12.9
-6 -5 -8 83.19 12.8
-6 -5 -8 78.79 12.8
-6 -5 -8 81.39 12.8
6 -5 8 86.89 12.9
-6 5 8 75.39 13
-6 -5 -8 77.89 12.8
6 -5 -8 73.39 12.9
-6 5 -8 80.59 12.9
6 5 8 85.09 12.8
6 5 8 83.19 12.8
6 -5 -8 84.39 12.9
6 5 8 90.39 12.8
6 -5 -8 85.49 12.9
6 5 8 85.09 12.8
-6 5 -8 83.39 12.9
-7 5 8 12 2.3
-7 -5 -8 10.1 1.9
-7 5 8 9.6 2.2
-7 -5 -8 10.7 1.9
7 -5 8 8.4 2
-7 -5 -8 8.3 1.9
7 -5 8 10.2 2.1
-7 5 8 9 2
-7 -5 -8 9 1.9
7 5 8 12.3 2
7 -5 -8 8.5 2.1
7 -5 -8 12.3 2.4
7 5 8 10.3 1.8
7 -5 -8 9.5 2
7 -5 -8 9.9 2
-7 5 -8 9.8 2.1
-7 5 -8 5.8 1.9
7 5 8 10.2 1.9
8 -5 8 0.1 1
-8 5 8 -0.3 1.2
-8 5 8 1.2 1.2
8 -5 -8 0.4 1.1
8 -5 -8 1.4 1.4
8 5 8 -0.4 1
-8 5 -8 -0.3 0.8
8 -5 -8 -0.5 1
8 -5 -8 0 0.9
-8 5 -8 -1.1 0.9
8 5 8 0 0.8
8 5 8 0.4 0.7
0 -6 8 700.43 105.29
0 6 -8 711.73 105.29
0 6 8 767.02 105.29
0 -6 -8 732.03 105.29
0 -6 -8 596.14 105.29
0 6 -8 658.73 105.29
0 -6 -8 779.32 105.39
0 6 8 645.14 105.39
0 -6 8 672.43 105.29
0 -6 -8 640.74 105.29
0 -6 8 719.73 105.29
0 6 -8 743.83 105.29
0 -6 8 706.93 105.29
0 6 8 716.13 105.29
0 6 8 642.94 105.29
0 6 -8 644.24 105.29
-1 6 8 0.2 0.6
1 -6 8 1.6 0.8
1 6 -8 0.1 0.5
1 -6 8 2.6 0.9
1 -6 8 0.5 0.7
-1 -6 -8 -0.4 0.8
1 6 -8 1 0.7
-1 6 8 -0.6 0.9
-1 -6 -8 1.9 0.8
-1 -6 -8 1 0.8
-1 6 8 -1.3 1
-1 6 8 0.1 0.6
1 -6 8 0.1 0.7
-1 -6 -8 -0.2 0.7
1 6 -8 -0.2 0.5
1 -6 -8 1.2 0.8
-1 -6 8 -0.6 0.7
-1 6 -8 0.4 0.7
-1 -6 8 0.7 0.6
1 -6 -8 0 0.7
1 -6 -8 -0.1 0.7
-1 6 -8 0.5 0.7
1 6 8 0.1 0.5
-1 6 -8 0.6 0.7
-1 -6 8 0 0.5
-1 6 -8 0 0.6
1 -6 -8 0.3 0.8
2 -6 8 1.6 0.8
2 -6 8 -0.7 0.7
-2 6 8 0.7 1.1
-2 6 8 2.8 1
-2 -6 -8 0.3 0.7
2 -6 8 0.3 0.8
-2 6 8 1.9 1.1
-2 -6 -8 0.9 0.8
2 6 -8 1.5 0.5
2 6 -8 1.7 0.6
2 6 -8 0.6 0.5
2 -6 8 1.4 0.9
-2 -6 -8 0.6 0.9
-2 -6 -8 2.4 0.8
-2 6 8 0.4 0.8
2 6 -8 1.5 0.6
2 6 8 2.1 0.9
2 -6 -8 0.3 0.8
2 6 8 1.6 0.7
-2 -6 8 0.2 0.6
-2 6 -8 1.5 0.8
-2 -6 8 0.9 0.6
2 -6 -8 1.1 0.8
-2 -6 8 2.6 0.8
2 -6 -8 1.4 0.8
-2 6 -8 0.3 0.6
2 -6 -8 0.6 0.9
2 6 8 0.8 0.9
2 6 8 0.6 0.6
-2 6 -8 1.1 0.8
-2 6 -8 1.1 0.8
3 -6 8 6.5 1.5
-3 -6 -8 7.2 1.4
-3 -6 -8 7.4 1.4
-3 6 8 2.9 1.4
3 6 -8 7.9 1.3
3 -6 8 6.8 1.5
-3 6 8 7.1 1.7
3 6 -8 6.6 1.2
-3 6 8 3.8 1.4
-3 -6 -8 8.8 1.5
-3 6 8 11 1.9
-3 -6 -8 6.8 1.4
3 -6 -8 4.5 1.4
3 6 8 8.5 1.5
3 -6 -8 7.5 1.5
-3 -6 8 8.4 1.3
3 -6 -8 6 1.5
-3 6 -8 6.2 1.6
3 6 8 7.1 1.5
-3 -6 8 8.7 1.4
-3 -6 8 9.6 1.3
-3 6 -8 5.9 1.5
-3 -6 8 6.6 1.2
3 -6 -8 2.6 1.4
3 6 8 6.9 1.4
-4 -6 -8 -0.6 0.6
-4 6 8 1.4 0.9
4 -6 8 0.1 0.7
4 6 -8 -0.2 0.5
-4 -6 -8 0.6 0.7
4 6 -8 0 0.4
-4 6 8 -0.1 0.9
-4 -6 -8 0.4 0.7
4 -6 8 0.4 0.8
-4 -6 -8 -0.1 0.7
-4 -6 8 0.5 0.4
4 -6 -8 2.4 1.1
4 6 8 -0.3 0.5
-4 6 -8 0.8 1
-4 6 -8 -1.1 0.8
-4 6 -8 0.3 0.8
-4 -6 8 0 0.5
-4 -6 8 0 0.4
4 6 8 1.2 0.8
4 6 8 0.8 0.7
4 -6 -8 -1 0.7
-4 6 -8 -0.1 0.7
-4 -6 8 -0.7 0.5
-5 6 8 41.4 6.6
-5 -6 -8 44.1 6.2
-5 6 8 36.1 6.5
-5 6 8 48.4 6.6
-5 -6 -8 43.3 6.3
5 -6 8 38.1 6.4
-5 -6 -8 38.9 6.2
5 -6 8 41.4 6.5
5 -6 8 31.6 6.4
-5 -6 -8 38.7 6.2
5 -6 8 32.9 6.4
-5 6 8 41.6 6.4
5 6 8 38 6.1
5 -6 -8 37.7 6.4
5 6 8 38.7 6.2
-5 6 -8 42 6.5
5 -6 -8 37.8 6.5
5 -6 -8 34.9 6.4
5 6 8 43.3 6.3
-5 6 -8 50.19 6.6
-5 6 -8 45 6.6
5 -6 -8 31.8 6.3
-6 6 8 43.8 7.6
-6 -6 -8 52.19 7.3
-6 -6 -8 43.2 7.2
-6 6 8 54.89 7.7
-6 6 8 55.39 7.4
-6 -6 -8 41.9 7.2
6 -6 8 38.3 7.4
6 -6 8 44.7 7.5
-6 6 8 45.4 7.4
-6 -6 -8 45.9 7.3
6 -6 -8 47.4 7.6
6 6 8 49.99 7.2
6 6 8 45.6 7.3
6 6 8 47.3 7.2
6 -6 -8 40.2 7.4
6 -6 -8 40.7 7.4
-6 6 -8 40 7.4
-6 6 -8 50.39 7.4
6 -6 -8 55.79 7.4
6 6 8 44.6 7.2
-7 6 8 7.7 1.8
-7 -6 -8 6.2 1.4
7 -6 8 5.8 1.6
7 -6 8 4.6 1.4
-7 6 8 2.9 1.6
7 6 8 5.9 1.2
7 6 8 5.2 1.3
-7 6 -8 6.7 1.6
7 -6 -8 8.5 1.7
7 -6 -8 4.6 1.4
7 6 8 3.8 1.3
7 -6 -8 2.7 1.3
-8 6 8 -0.7 1.1
8 -6 8 0.4 1.1
8 -6 8 0.6 1.1
-8 6 8 -1.1 1.2
8 6 8 1 0.9
8 -6 -8 1.2 1.1
8 -6 -8 -0.6 1.1
8 -6 -8 0.8 1.1
8 6 8 0.2 1
8 6 8 1.2 0.8
-8 6 -8 -1.5 1
8 6 8 0.3 0.7
-8 6 -8 0.9 1
0 -7 8 0.1 0.7
0 7 8 0.1 0.6
0 7 8 0.7 1.1
0 7 8 0.1 0.9
0 -7 -8 -0.7 0.6
0 7 -8 0.2 0.5
0 7 -8 -0.4 0.7
0 -7 8 0.3 0.7
0 7 -8 -0.6 0.6
0 -7 -8 1.1 0.8
0 7 8 -0.1 0.6
0 -7 -8 -0.2 0.9
0 7 -8 -0.8 0.5
0 -7 -8 0.4 1
0 -7 8 0.1 0.7
0 -7 8 0.2 0.8
1 -7 8 4.5 1.5
1 7 -8 10.8 1.6
1 7 -8 7.3 1.4
1 -7 8 5.7 1.5
-1 -7 -8 8.9 1.6
1 -7 8 4.7 1.6
1 -7 8 5.8 1.5
-1 -7 -8 7.6 1.6
-1 -7 -8 8.3 1.6
-1 7 8 5.1 1.4
1 7 -8 7.8 1.5
-1 7 8 7 1.8
-1 7 8 8.9 1.6
-1 7 8 9.4 1.8
1 7 -8 5.7 1.4
-1 -7 -8 7.2 1.7
1 -7 -8 7.2 1.6
1 7 8 7.9 1.7
1 -7 -8 7.5 1.8
-1 7 -8 8.5 1.5
1 -7 -8 9.2 1.7
-1 7 -8 9.9 1.6
1 -7 -8 6.6 1.6
-1 -7 8 5.5 1.4
-1 7 -8 12.1 1.8
1 7 8 8.3 1.7
-1 -7 8 8.8 1.6
-1 -7 8 8.9 1.5
1 7 8 7.1 1.5
-1 -7 8 7.7 1.4
1 7 8 5.3 1.4
-2 -7 -8 225.18 33.6
2 7 -8 225.08 33.5
-2 7 8 229.78 33.6
2 -7 8 233.38 33.7
-2 7 8 199.78 33.6
2 7 -8 237.08 33.6
-2 -7 -8 211.58 33.6
2 -7 8 238.58 33.7
-2 -7 -8 221.88 33.6
2 7 -8 204.38 33.5
-2 -7 -8 234.58 33.6
2 7 8 207.68 33.6
2 7 8 226.58 33.6
2 -7 -8 226.18 33.7
2 7 8 201.68 33.6
-2 7 -8 232.58 33.7
2 -7 -8 208.38 33.7
-2 7 -8 215.78 33.6
-2 -7 8 213.08 33.6
2 7 8 214.48 33.6
-2 -7 8 217.38 33.6
-3 7 8 5.8 1.4
3 -7 8 4.5 1.3
3 7 -8 5.3 1
3 -7 8 4.7 1.3
3 -7 8 6.3 1.4
-3 7 8 4.9 1.5
-3 7 8 3.5 1.5
-3 -7 -8 5.7 1.2
3 7 -8 5.6 1.1
-3 -7 -8 5.3 1.3
-3 7 8 3.5 1.3
3 -7 8 3.7 1.3
-3 -7 -8 5.6 1.3
3 7 -8 5.4 1.1
-3 -7 -8 6.3 1.3
3 7 -8 4.4 1
-3 -7 8 5.3 1.1
-3 -7 8 5.2 1.1
-3 7 -8 6.9 1.5
-3 7 -8 4.4 1.3
3 7 8 4.6 1.4
3 7 8 5.4 1.3
3 -7 -8 3.9 1.4
3 7 8 5.2 1.1
-3 -7 8 5.1 1.1
-3 -7 8 7.5 1.2
-3 7 -8 4.8 1.3
3 7 8 4.2 1.1
-3 7 -8 4.2 1.4
3 -7 -8 4.8 1.5
3 -7 -8 5.5 1.4
4 -7 8 65.99 12.4
-4 7 8 77.19 12.4
-4 -7 -8 86.89 12.3
4 -7 8 69.99 12.4
4 -7 8 75.59 12.4
4 7 -8 86.59 12.2
-4 -7 -8 86.79 12.3
-4 -7 -8 78.29 12.3
-4 -7 -8 88.09 12.3
-4 7 8 82.79 12.4
-4 7 8 78.99 12.4
4 -7 8 75.69 12.3
-4 7 8 81.59 12.5
4 7 -8 81.59 12.2
4 7 8 95.09 12.4
4 7 8 77.39 12.2
-4 -7 8 75.59 12.2
-4 -7 8 84.99 12.2
-4 7 -8 81.89 12.4
-4 -7 8 77.59 12.2
4 7 8 75.69 12.3
4 -7 -8 66.19 12.3
-4 7 -8 75.79 12.4
-4 -7 8 84.99 12.2
4 -7 -8 70.99 12.3
-4 7 -8 77.49 12.4
-4 7 -8 78.89 12.4
4 -7 -8 64.09 12.3
4 -7 -8 82.89 12.4
-5 7 8 33.4 6
-5 -7 -8 37.5 5.7
5 -7 8 31.5 5.8
-5 -7 -8 36.1 5.7
-5 7 8 36.1 6
-5 -7 -8 37.7 5.7
-5 -7 -8 38.9 5.7
-5 7 8 41.1 6.1
5 -7 -8 27.6 5.8
5 -7 -8 36.1 6
-5 7 -8 27.4 5.9
5 7 8 35 5.6
5 -7 -8 35.5 5.9
5 7 8 39.4 5.9
5 -7 -8 40.5 6.1
-5 7 -8 35.6 6
5 7 8 36.7 5.9
5 7 8 41.9 5.7
6 -7 8 72.49 12.1
-6 -7 -8 77.59 12
-6 -7 -8 72.59 12
-6 7 8 73.39 12.1
-6 7 8 71.39 12.2
6 -7 8 88.09 12.1
-6 -7 -8 77.79 12
-6 -7 -8 82.09 12
6 7 8 71.59 12
6 -7 -8 71.29 12.1
6 7 8 83.89 12
6 7 8 85.29 12
6 -7 -8 78.49 12.1
6 -7 -8 78.09 12.1
-6 7 -8 71.29 12.1
-6 7 -8 84.49 12.1
7 -7 8 23.1 4.2
-7 7 8 27 4.4
-7 7 8 18.8 4.3
7 -7 8 21.4 4.2
-7 -7 -8 24.5 4.1
7 -7 -8 19.1 4.2
7 7 8 31.5 4.3
7 7 8 25.4 4.1
-7 7 -8 25.9 4.4
-7 7 -8 23.6 4.3
7 -7 -8 22.6 4.3
7 7 8 33.5 4.2
8 -7 8 14.5 2.7
-8 7 8 11.9 2.7
-8 7 8 14.2 2.9
8 -7 8 13.9 2.7
8 7 8 10.9 2.3
8 -7 -8 14.8 2.7
-8 7 -8 11 2.6
-8 7 -8 19.1 2.9
8 -7 -8 11.6 2.7
8 7 8 17 2.7
0 8 -8 57.59 9.1
0 8 -8 57.59 9.1
0 -8 8 57.19 9.1
0 -8 8 67.09 9.1
0 -8 -8 75.29 10
0 -8 -8 43.8 9.2
0 8 -8 48.8 9.1
0 -8 -8 63.49 9.2
0 -8 8 64.39 9.1
0 8 8 57.89 9
0 8 8 65.39 9.2
0 -8 8 56.79 9.1
0 8 -8 56.09 9
1 8 -8 34 5.1
1 -8 8 33.8 5.3
-1 -8 -8 27.2 5.2
1 8 -8 29.4 5.1
1 8 -8 34.7 5.1
-1 -8 -8 50.49 5.6
1 8 -8 21.8 5.1
-1 8 8 38.9 5.3
-1 -8 -8 30.2 5.3
-1 8 8 33.7 5.3
1 -8 8 27.3 5.3
-1 -8 -8 46 5.5
1 8 8 31 5.3
-1 -8 8 31.6 5.2
-1 -8 8 28.5 5.2
1 -8 -8 27 5.2
1 8 8 33.2 5.2
1 8 8 37.9 5.4
-1 8 -8 29.7 5.2
1 8 8 32.4 5.1
-1 -8 8 32.6 5.2
1 -8 -8 35.1 5.4
-1 -8 8 36.9 5.1
2 -8 8 -0.2 0.8
-2 8 8 0 1.1
-2 8 8 2.5 1
2 8 -8 0.3 0.6
2 -8 8 -0.3 1
-2 8 8 1.3 1
2 8 -8 1 0.7
2 -8 8 3.3 1.1
-2 8 8 -0.2 0.8
2 -8 8 1.2 0.9
2 8 -8 1.3 0.6
-2 -8 -8 0.7 0.9
-2 -8 -8 0.5 0.7
-2 -8 -8 2.4 0.9
-2 -8 -8 0.4 0.8
2 -8 -8 0.2 0.8
2 -8 -8 0.5 0.8
-2 -8 8 0.8 0.7
-2 -8 8 0 0.6
2 -8 -8 1.1 0.9
-2 8 -8 -0.6 0.7
2 8 8 -0.6 0.9
-2 8 -8 0 0.7
2 -8 -8 -0.5 1
-2 8 -8 0.7 0.7
-2 -8 8 1.2 0.8
2 8 8 -0.2 0.6
2 8 8 0.7 1
2 8 8 0.7 0.6
-2 -8 8 2 0.8
-2 8 -8 2.4 1
3 -8 8 26.4 5.4
-3 -8 -8 31.5 5.3
3 8 -8 28.6 5.2
-3 -8 -8 36.5 5.5
-3 -8 -8 32.5 5.4
-3 8 8 34.2 5.5
3 8 -8 36.8 5.2
-3 -8 -8 43 5.4
-3 8 8 33.2 5.5
3 8 -8 32.7 5.2
-3 8 8 29.4 5.6
3 8 -8 35.6 5.2
3 -8 8 35.4 5.7
-3 8 8 26.5 5.5
3 -8 8 30.2 5.5
3 -8 8 38.2 5.6
3 8 8 27.9 5.3
3 8 8 28.3 5.5
3 -8 -8 29.9 5.5
-3 -8 8 40 5.3
-3 8 -8 30 5.4
3 -8 -8 36.7 5.8
3 8 8 31.4 5.2
-3 8 -8 37 5.6
3 -8 -8 31.7 5.5
-3 8 -8 33.7 5.6
-3 -8 8 33.1 5.2
3 8 8 42 5.6
-3 8 -8 30.6 5.5
-4 8 8 3.8 1.4
-4 -8 -8 2.1 0.9
4 -8 8 2.9 1
-4 8 8 2.1 1.1
-4 -8 -8 2.1 0.9
-4 -8 -8 2.7 0.9
-4 8 8 1 1.2
-4 8 8 0.5 1
-4 -8 -8 2.2 0.9
4 -8 8 2.2 1.1
-4 -8 8 2.5 0.7
-4 -8 8 1.5 0.8
-4 8 -8 3.2 1.1
4 8 8 2.4 1.1
-4 8 -8 2.9 1.2
4 -8 -8 3 1.3
4 8 8 2.1 0.8
4 -8 -8 2.2 1
-4 -8 8 2.4 0.8
-4 -8 8 1.1 0.6
4 -8 -8 1 1.1
4 8 8 2.1 0.7
4 8 8 1 1
4 -8 -8 0.4 0.9
-5 -8 -8 28.9 4.2
-5 -8 -8 23.8 4.1
-5 -8 -8 24.2 4.1
-5 8 8 26.1 4.5
5 -8 8 22.6 4.3
5 -8 8 24.8 4.3
-5 8 8 25.7 4.5
-5 -8 -8 24.3 4.2
5 8 8 22.1 4.2
-5 -8 8 27.9 4
5 8 8 22.8 4.1
5 8 8 24.5 4.2
5 8 8 28.5 4.1
-5 8 -8 27.1 4.4
-5 8 -8 24.8 4.4
5 -8 -8 18.8 4.2
6 -8 8 10.3 2.6
-6 -8 -8 16.5 2.5
-6 8 8 9.7 2.6
-6 -8 -8 11.6 2.4
-6 -8 -8 13.4 2.4
6 -8 8 11.1 2.5
-6 8 8 15.1 2.8
-6 -8 -8 15.1 2.5
6 -8 -8 14.8 2.7
6 8 8 12.3 2.5
-6 8 -8 14.5 2.9
6 8 8 14 2.3
6 -8 -8 11.7 2.5
6 8 8 17.3 2.6
-6 8 -8 14.6 2.7
-7 8 8 -0.2 1.2
-7 8 8 0.8 1.3
7 -8 8 -0.9 1
7 -8 8 0.8 1.2
7 8 8 -0.3 0.7
7 -8 -8 1.7 1.2
7 8 8 0.3 0.9
-7 8 -8 -0.2 1
7 8 8 1.3 1
7 -8 -8 0.8 1
-7 8 -8 0 1
-8 8 8 12.2 2.6
8 -8 8 14 2.5
-8 8 8 11.4 2.5
8 8 8 13.1 2.3
8 -8 -8 6.5 2.2
8 8 8 10.4 2
8 -8 -8 8.9 2.2
0 -9 8 -0.9 0.7
0 -9 -8 0.3 0.8
0 9 -8 0.4 0.7
0 9 8 -0.6 0.7
0 9 8 1.2 1
0 -9 -8 1.3 1
0 -9 -8 1 1.1
0 9 -8 1.3 0.7
0 -9 -8 1.2 1
0 -9 8 -0.6 0.8
0 -9 8 -0.8 0.7
0 9 8 -0.3 1
0 -9 8 0.2 0.7
0 9 -8 0.1 0.6
0 9 -8 -0.4 0.9
1 9 -8 8.4 1.3
-1 9 8 6.4 1.5
1 -9 8 4.8 1.3
1 -9 8 3.1 1.2
1 9 -8 5 1.3
-1 -9 -8 5.8 1.5
1 -9 8 3.3 1.3
-1 -9 -8 7.3 1.6
-1 9 8 6.9 1.3
1 9 -8 3.4 1.1
1 -9 8 7.1 1.4
1 9 -8 4.9 1.2
-1 9 8 5.6 1.3
-1 9 8 2 1.4
-1 9 -8 1.9 1.1
-1 -9 8 3.9 1.2
1 -9 -8 5 1.5
-1 -9 8 7.4 1.4
-1 9 -8 4.7 1.4
1 9 8 6.1 1.2
-1 -9 8 4.6 1.2
1 -9 -8 6.7 1.4
1 -9 -8 3.7 1.3
1 -9 -8 7 1.7
-1 9 -8 7.3 1.5
1 9 8 5.6 1.2
-1 9 -8 7.5 1.3
-1 -9 8 4 1.4
-2 -9 -8 1.7 1
-2 9 8 1.7 1.1
2 9 -8 3 0.7
2 9 -8 1.4 0.7
2 9 -8 1.7 0.8
-2 9 8 1.1 0.9
2 -9 8 2 1.1
-2 9 8 1.3 1
2 -9 8 1.3 0.9
2 9 -8 2.4 0.8
2 -9 8 1.4 0.9
-2 9 8 4.1 1.4
2 -9 8 3.3 1.1
-2 -9 -8 1.3 1
2 9 8 1.4 0.7
2 -9 -8 0.3 0.9
-2 -9 8 4.1 1
-2 -9 8 3.6 1
-2 -9 8 0.9 0.8
-2 9 -8 1.5 0.8
-2 9 -8 2.7 1.1
-2 9 -8 1 0.9
2 -9 -8 0.7 1
-2 9 -8 3 1.1
2 -9 -8 1.8 1
2 -9 -8 3.1 1.3
-2 -9 8 1.8 0.9
-3 9 8 26.8 4.9
-3 -9 -8 34.3 4.8
3 -9 8 17.9 5
3 9 -8 36.8 4.6
3 9 -8 39.1 4.8
-3 -9 -8 23.8 4.6
3 9 -8 24.8 4.4
3 -9 8 23.8 4.8
3 -9 8 32 4.9
-3 9 8 26.1 4.7
3 9 -8 25.5 4.4
-3 -9 -8 33.1 4.7
3 -9 8 22.6 4.7
-3 9 8 20.9 4.7
-3 9 8 30 4.9
-3 -9 -8 27.4 4.6
-3 -9 8 29.4 4.6
-3 9 -8 25 4.7
-3 9 -8 23.3 5
3 9 8 27.3 4.8
3 -9 -8 32.3 4.8
3 -9 -8 28.8 4.9
-3 -9 8 30.8 4.7
3 9 8 32.5 4.8
3 9 8 30.8 4.6
-3 9 -8 21.1 4.7
3 -9 -8 30.9 4.8
-3 9 -8 28.6 4.8
-3 -9 8 34.5 4.6
-3 -9 8 40.9 4.7
3 9 8 23.1 4.6
4 -9 8 15.4 2.6
-4 -9 -8 8.2 2.1
4 9 -8 12.9 2
-4 9 8 7.5 2.4
4 -9 8 7.8 2.1
4 9 -8 12.8 2
-4 9 8 9.7 2.4
-4 -9 -8 11.5 2.2
-4 -9 -8 10 2.1
-4 -9 -8 9.8 2.1
4 9 8 14.4 2.3
-4 9 -8 11.4 2.4
4 9 8 10.8 2.3
4 9 8 12.2 2.1
-4 -9 8 13.8 2.2
-4 -9 8 13.1 2
4 -9 -8 11 2.3
4 9 8 15 2.2
4 -9 -8 10.1 2.3
-4 -9 8 13.3 2.1
-4 9 -8 10.7 2.3
5 -9 8 2 1
-5 -9 -8 1.5 0.9
-5 -9 -8 0.3 0.9
-5 9 8 0.9 1.2
5 -9 8 -0.1 0.9
-5 9 8 -0.4 1.1
-5 -9 -8 2.3 0.9
-5 -9 -8 2.3 1
5 -9 -8 1.8 1
-5 -9 8 2 0.7
5 -9 -8 3.5 1.3
-5 9 -8 0.5 1
5 9 8 1 1.1
5 9 8 1 1.2
5 9 8 1.6 0.7
-5 9 -8 2.6 1.1
-6 9 8 6.6 1.8
6 -9 8 6.7 1.8
-6 -9 -8 5.8 1.4
-6 -9 -8 7.6 1.5
-6 9 8 4.1 1.8
6 -9 8 3.9 1.7
-6 -9 -8 7.5 1.4
-6 -9 -8 7.4 1.6
6 -9 -8 6.3 1.7
6 -9 -8 6.5 1.7
6 9 8 6.5 1.4
6 9 8 5.4 1.3
6 9 8 7.5 1.6
6 9 8 6.8 1.6
-6 9 -8 7.6 1.8
-7 9 8 4.5 1.6
-7 9 8 2.3 1.5
7 -9 8 1 1.1
7 9 8 2.8 1.1
-7 9 -8 2.2 1.3
7 9 8 5.7 1.4
7 9 8 2.3 0.9
7 -9 -8 3.3 1.4
0 10 -8 79.59 10.8
0 10 8 76.59 10.8
0 -10 -8 75.39 10.9
0 -10 8 59.39 10.8
0 -10 8 77.19 10.8
0 -10 -8 67.39 10.8
0 -10 -8 58.29 10.8
0 10 8 68.29 10.8
0 -10 -8 63.99 10.8
0 10 -8 65.79 10.7
1 -10 8 0.2 1.1
-1 -10 -8 0.6 1
1 10 -8 0.3 0.6
1 -10 8 0.8 0.8
-1 -10 -8 1.2 0.9
-1 -10 -8 2.8 1.2
-1 10 8 -0.4 1
1 10 -8 0.2 0.7
1 -10 8 1.1 1
1 10 -8 0.6 0.9
-1 10 8 1.2 1.2
-1 -10 -8 0.3 0.8
-1 10 8 -0.4 0.7
-1 10 8 1.5 0.9
1 10 -8 0.2 0.6
1 -10 8 1.4 0.8
-1 10 -8 0 0.8
1 10 8 0.3 0.7
1 10 8 0.2 1.1
-1 -10 8 2.1 1.1
1 -10 -8 -0.3 0.8
1 -10 -8 0.4 1.1
1 10 8 0.5 1
-1 10 -8 0.4 1
-1 10 -8 0.5 0.8
-1 -10 8 0.7 0.8
-1 -10 8 -0.1 0.7
1 -10 -8 1.4 1
-1 10 -8 0.7 1
-1 -10 8 -1.3 0.7
1 10 8 0.7 0.6
2 -10 8 3.8 1.4
-2 -10 -8 1.6 1.2
2 10 -8 4.1 0.9
-2 10 8 2.4 1.1
-2 -10 -8 1.3 1
-2 -10 -8 3.9 1.1
2 -10 8 3.1 1.3
2 10 -8 5.7 1.1
2 -10 8 3.3 1.2
2 10 -8 4.4 1
-2 10 8 4.1 1.4
-2 -10 -8 3.4 1.2
2 -10 8 1.2 1
-2 10 8 5.9 1.8
2 10 -8 3.2 1
-2 10 8 1.5 1.2
-2 -10 8 3.4 1.1
2 -10 -8 3.1 1.5
2 10 8 2.9 0.9
2 10 8 3 0.9
2 -10 -8 1.8 1.1
2 -10 -8 3.2 1.8
2 -10 -8 3.1 1.1
-2 10 -8 2.9 1.1
2 10 8 1.1 1.2
-2 10 -8 2.7 1
-2 -10 8 4.1 1.1
-2 10 -8 3.2 1.2
-2 10 -8 2.3 1.2
-2 -10 8 3.8 1
-2 -10 8 2.2 1.1
-3 10 8 0.6 1.5
3 -10 8 1 1
3 10 -8 0.2 0.6
3 10 -8 0.5 0.7
-3 -10 -8 -1.6 0.8
3 10 -8 0.6 0.7
-3 -10 -8 1.1 1.1
3 -10 8 0.4 0.8
-3 10 -8 0.4 0.9
3 -10 -8 0.4 0.9
-3 -10 8 0.6 0.7
-3 -10 8 0 0.7
3 10 8 0.8 0.6
3 10 8 1.1 0.7
3 -10 -8 0.6 0.9
-3 10 -8 0.6 1.1
-3 -10 8 1.4 0.8
-3 -10 8 2.2 1
-4 10 8 23.1 4.6
-4 -10 -8 22.9 4.4
4 10 -8 30.9 4.3
4 -10 8 34.7 4.8
4 -10 8 27 4.6
-4 10 8 21.4 4.6
-4 -10 -8 24.7 4.4
4 -10 -8 25.3 4.5
-4 -10 8 31.6 4.4
4 10 8 24.4 4.4
-4 10 -8 25 4.6
4 10 8 28.7 4.4
4 10 8 28.7 4.4
-4 10 -8 31.9 4.6
4 -10 -8 16.1 4.4
-4 -10 8 30.5 4.3
-4 -10 8 23.7 4.3
-5 10 8 14.1 4.1
5 10 -8 27 3.7
5 -10 8 17.4 4
-5 10 8 21.6 4.3
-5 -10 -8 24.4 3.9
-5 -10 -8 24.3 3.9
5 10 -8 26 3.7
5 10 8 26.8 4
5 -10 -8 22 4
5 -10 -8 21.6 4.1
5 10 8 20.4 3.9
5 10 8 21.8 3.8
-5 10 -8 22.5 4.1
-6 -10 -8 5.9 1.6
6 -10 8 7.1 1.8
-6 10 8 7.6 2.2
-6 10 8 10.4 2.2
6 -10 8 4.5 1.7
6 10 8 7.9 1.7
6 10 8 7.9 1.5
-6 10 -8 9.4 2
6 -10 -8 7.2 1.9
-6 10 -8 7.5 1.9
6 -10 -8 8.9 1.9
6 10 8 7.5 1.6
-7 10 8 0.4 1.4
-7 10 8 5.3 1.7
7 -10 8 2.6 1.5
7 10 8 1.1 1
7 -10 -8 1.6 1.2
-7 10 -8 4.1 1.4
7 -10 -8 2.3 1.4
-7 10 -8 0.7 1.2
0 -11 -8 -2.5 1.1
0 11 -8 -0.8 0.5
0 -11 -8 1.3 1.2
0 11 -8 0.3 0.7
0 11 8 -0.3 0.7
0 11 -8 0.4 0.7
0 -11 8 -1.4 0.7
0 -11 8 0.5 1.1
0 11 8 -0.5 0.8
0 11 8 -1.6 1.1
0 -11 8 -0.5 0.7
0 -11 -8 0.3 0.8
0 -11 8 -0.1 0.9
0 -11 -8 1.1 1
0 11 8 0.8 1.2
0 11 -8 0.4 1
-1 -11 -8 21.7 4.4
-1 -11 -8 31.6 4.7
1 11 -8 19.7 4.3
-1 -11 -8 37.7 4.7
1 11 -8 31.3 4.4
-1 11 8 19.8 4.5
1 -11 8 28.8 4.5
1 -11 8 32.9 4.7
-1 -11 -8 23.5 4.4
1 -11 8 37.2 4.7
1 11 -8 23.1 4.5
-1 11 8 33.8 4.6
1 -11 8 25.4 4.6
1 11 8 24.1 4.3
-1 -11 8 23.2 4.4
1 11 8 24 4.3
1 11 8 18.3 4.5
-1 11 -8 19.6 4.2
-1 -11 8 30.6 4.5
1 -11 -8 26.6 4.4
-1 11 -8 29.5 4.5
-1 11 -8 44.7 4.9
1 11 8 32.6 4.6
-1 11 -8 16 4.3
1 -11 -8 30.5 4.5
-2 11 8 29.2 6.5
2 11 -8 40.4 6.2
2 11 -8 42.2 6.2
2 11 -8 47.8 6.5
2 -11 8 29.5 6.3
2 11 -8 37.1 6.2
2 -11 8 30.9 6.4
-2 -11 -8 50.99 6.6
-2 11 8 32.5 6.6
-2 -11 -8 42.2 6.5
-2 -11 -8 31.1 6.3
-2 -11 -8 40.8 6.6
-2 -11 8 44.1 6.4
2 11 8 42.3 6.5
-2 11 -8 37.4 6.4
2 -11 -8 34.6 6.4
-2 -11 8 40.9 6.2
-2 -11 8 43.3 6.4
-2 11 -8 36.7 6.5
-2 -11 8 46.3 6.3
2 11 8 44.7 6.6
2 11 8 42.3 6.2
2 -11 -8 47.1 6.6
2 11 8 36.5 6.3
-3 -11 -8 51.99 7.3
3 11 -8 40.2 6.9
3 11 -8 40.8 7.1
3 -11 8 43.7 7.3
-3 11 8 36.6 7.3
-3 -11 -8 41.3 7.2
-3 11 8 47.1 7.5
-3 -11 -8 48.9 7.3
-3 -11 -8 44.2 7.1
3 -11 8 45.8 7.4
3 11 -8 52.09 7.1
-3 -11 8 48.8 7.1
3 -11 -8 35 7.2
-3 11 -8 51.49 7.4
-3 -11 8 47.1 7.2
-3 -11 8 45.5 7
3 -11 -8 40 7.3
3 11 8 47 7
3 11 8 42.3 7
3 11 8 44 7.4
-3 -11 8 48.1 7.1
-3 11 -8 48.5 7.5
3 11 8 43.8 7.3
-4 -11 -8 24.9 5.1
4 11 -8 43.1 5.1
4 -11 8 18.5 5
-4 -11 -8 34.5 5.2
-4 11 8 34.9 5.5
4 -11 8 18.6 5.1
-4 11 8 33.5 5.5
4 11 -8 36.6 4.9
-4 -11 -8 40.4 5.2
-4 -11 -8 33.5 5.1
4 11 8 31 5.3
4 11 8 32.9 5.1
-4 -11 8 36.5 5.1
4 -11 -8 23.2 5.1
-4 -11 8 34.3 5
4 -11 -8 23.3 5.1
-4 11 -8 37.8 5.4
4 11 8 30.3 5
-4 -11 8 35.3 5.1
-4 -11 8 25.6 5
-4 11 -8 29.8 5.3
-5 -11 -8 1.4 1.1
-5 -11 -8 2.9 1
-5 11 8 2.6 1.5
5 11 -8 1.5 0.8
5 -11 8 3.3 1.3
-5 11 8 1.5 1.3
-5 -11 -8 3.4 1.2
5 11 -8 3.8 0.8
-5 -11 -8 3.3 1.2
5 11 8 3.9 1.3
-5 11 -8 3.6 1.5
5 -11 -8 2 1.2
5 11 8 1.6 1
5 -11 -8 4.7 1.4
-5 11 -8 3.5 1.3
5 11 8 3.7 1.5
5 11 8 2.6 0.9
-6 11 8 2.3 1.6
-6 -11 -8 -0.3 1.5
-6 11 8 -2.7 1.1
6 11 8 0.6 0.8
6 -11 -8 2.1 1.3
-6 11 -8 1.3 1.6
6 -11 -8 -1.1 0.9
6 11 8 2.8 1.1
6 11 8 0.3 0.7
7 -11 8 0.6 1.1
7 -11 8 1 1.2
-7 11 8 -1 1.2
-7 11 -8 -0.6 1.1
-7 11 -8 1.7 1.4
7 11 8 2.6 1.1
7 11 8 3.3 1.1
7 -11 -8 3.2 1.9
0 12 -8 19.6 4.3
0 12 -8 27.8 4.4
0 -12 8 47.4 4.9
0 12 8 18.9 4.5
0 -12 -8 20.9 4.3
0 -12 -8 20.1 4.3
0 12 -8 26.4 4.3
0 12 8 34.4 4.7
0 -12 8 25.7 4.5
0 -12 8 30.3 4.4
0 -12 8 28.1 4.4
0 12 -8 25.6 4.4
1 12 -8 51.19 7.6
-1 -12 -8 48.8 7.6
1 12 -8 47.8 7.4
-1 -12 -8 45.7 7.6
1 12 -8 52.19 7.4
-1 12 8 37.3 7.6
-1 12 8 39.9 7.7
1 12 -8 49.4 7.4
1 -12 8 49.99 7.7
1 -12 8 40.8 7.5
-1 12 -8 54.39 7.7
1 12 8 38.5 7.4
1 -12 -8 39.4 7.5
1 12 8 57.89 7.6
-1 -12 8 45 7.6
-1 -12 8 55.59 7.8
1 12 8 45.5 7.7
-1 -12 8 49.5 7.4
-1 -12 8 63.69 7.9
1 12 8 36.3 7.6
1 -12 -8 45.2 7.6
-2 -12 -8 -0.5 1
-2 -12 -8 -2 1.1
-2 -12 -8 -1 0.8
-2 12 8 -0.4 1.1
-2 -12 -8 -1.1 0.8
2 -12 8 0.3 1
2 -12 8 -0.7 1
2 12 -8 0.9 0.7
2 12 -8 -0.6 0.6
-2 12 8 0.7 1.4
2 12 -8 -0.4 0.7
2 -12 -8 -0.9 0.9
2 12 8 0.2 1.3
-2 -12 8 0.4 1
2 12 8 -0.4 0.6
2 12 8 0.9 1.1
2 12 8 0.7 0.7
2 -12 -8 1.6 1.1
-2 12 -8 0.7 0.9
-2 -12 8 -1.6 0.9
3 12 -8 4.8 1
3 12 -8 3.8 0.9
3 12 -8 2.5 1.1
3 -12 8 3.1 1.2
-3 12 8 2.8 1.5
-3 12 8 2.2 1.6
-3 -12 -8 3.7 1.2
3 12 -8 3.5 1.2
-3 -12 -8 1.6 1.3
-3 -12 -8 2.1 1.1
3 -12 8 3.8 1.5
3 12 8 1.7 1.2
-3 -12 8 5.1 1.3
3 12 8 3.9 1.4
-3 -12 8 3.5 1.1
-3 -12 8 3.8 1.3
-3 -12 8 3.7 1.1
3 -12 -8 4.6 1.4
3 12 8 3.6 1.1
-3 12 -8 3.1 1.3
3 -12 -8 3.5 1.3
3 12 8 1.7 0.9
-3 12 -8 1 1.2
-4 -12 -8 8.3 1.8
-4 -12 -8 6.9 1.5
4 12 -8 5.4 1.4
-4 -12 -8 8 1.7
4 12 -8 6.1 1.4
-4 12 8 8.7 2
4 -12 8 6.4 1.7
-4 -12 -8 6.7 1.7
4 12 -8 7.2 1.3
4 12 -8 6.2 1.2
4 -12 8 8.6 1.9
-4 12 -8 6.7 1.8
-4 -12 8 7.3 1.5
-4 -12 8 9.3 1.7
4 12 8 6.4 1.5
4 -12 -8 5.5 1.8
4 12 8 5.2 1.4
4 12 8 5.9 2.4
4 -12 -8 7.1 1.8
-4 -12 8 6.7 1.5
-4 12 -8 5 1.8
-4 -12 8 5.5 1.7
4 12 8 6.1 1.8
-5 -12 -8 -0.7 1
-5 -12 -8 -1.3 1
-5 12 8 -0.2 1.2
-5 -12 -8 0.4 0.9
5 12 -8 1.3 0.7
-5 -12 -8 -0.9 1
-5 12 8 1.9 1.4
5 12 8 1 1.3
5 -12 -8 -1.1 0.9
5 12 8 -1.6 1.1
5 12 8 0.6 0.9
5 -12 -8 0.4 1.2
-6 12 8 2.7 2.3
-6 12 8 4.2 1.6
6 -12 8 -0.8 1.1
6 -12 8 0.9 1.1
6 12 8 2.9 1
-6 12 -8 3.7 1.5
6 12 8 2.2 1.6
-6 12 -8 1 1.2
6 12 8 1 0.8
6 -12 -8 3.3 1.5
6 12 8 3 1.3
0 -13 8 -0.6 0.9
0 13 -8 -0.1 0.7
0 -13 8 -0.1 0.9
0 -13 -8 1 1
0 13 8 1.3 1.2
0 13 8 0.1 1.4
0 13 -8 -0.1 1
0 13 -8 0.7 0.9
0 -13 -8 1.9 1.1
-1 -13 -8 13.6 2.5
1 13 -8 9.2 2.3
1 13 -8 11.7 2.3
1 -13 8 14.1 2.6
1 13 -8 13.8 2.6
-1 13 8 16.8 2.9
1 -13 8 14.2 2.7
-1 -13 -8 9.7 2.4
1 13 -8 13.8 2.4
-1 13 -8 14.9 2.5
1 13 8 11.4 2.6
-1 -13 8 16.7 2.6
-1 -13 8 12.9 2.5
1 13 8 9.7 2.6
-1 -13 8 12.8 2.5
-1 13 -8 8.2 2.4
2 13 -8 112.19 18.4
-2 -13 -8 128.59 18.5
2 -13 8 110.29 18.5
-2 -13 -8 119.89 18.5
-2 13 8 125.79 18.7
2 13 -8 126.99 18.5
-2 13 8 100.19 18.6
2 13 -8 120.09 18.4
2 -13 8 129.99 18.6
2 -13 -8 102.39 18.5
2 13 8 135.89 18.7
-2 13 -8 107.29 18.6
-2 -13 8 118.09 18.5
2 13 8 115.79 18.4
-2 13 -8 127.19 18.5
2 -13 -8 129.99 18.6
-2 -13 8 102.99 18.5
-2 -13 8 119.49 18.5
-2 -13 8 143.79 18.6
2 13 8 135.69 18.6
-3 13 8 -0.9 1.2
-3 -13 -8 0.3 0.8
3 -13 8 1.2 1.2
3 13 -8 0.1 0.7
3 13 -8 0.6 0.8
3 13 -8 1.1 0.7
-3 13 8 0.4 1.5
3 -13 8 2.2 1.1
-3 -13 -8 0.8 1
-3 -13 8 -1.2 1
-3 13 -8 -0.3 1
-3 13 -8 0.2 1.2
3 -13 -8 0.7 1
3 13 8 -0.7 0.7
3 -13 -8 -0.2 1.1
-3 -13 8 -0.4 0.9
3 13 8 0.6 1.2
3 13 8 -0.5 1.2
3 13 8 0.5 0.6
-4 -13 -8 4.4 1.3
4 13 -8 3.7 1.2
-4 13 8 0.8 1.6
-4 -13 -8 4 1.5
4 13 -8 2.7 0.8
4 13 -8 3.7 0.9
4 13 -8 3.3 1.1
-4 -13 -8 2.7 1.1
-4 13 8 1.9 1.4
4 13 8 5.6 1.5
4 13 8 1.6 1
4 -13 -8 3.5 1.5
-4 -13 8 4.4 1.3
4 13 8 3.8 1.1
5 -13 8 3.5 1.3
-5 13 8 4.1 1.7
5 13 -8 2.3 0.9
-5 -13 -8 2.1 1.3
5 -13 8 0.3 1.1
-5 -13 -8 1.2 0.9
-5 -13 -8 0.4 1.2
-5 13 8 2.9 1.5
5 13 -8 2 0.9
5 -13 -8 2.1 1.4
5 13 8 2.6 1.5
-5 13 -8 1.3 1.3
5 13 8 0.4 0.9
-5 13 -8 3.6 1.6
5 13 8 0.1 0.8
6 -13 8 3.1 1.4
6 -13 8 1.8 1.4
-6 13 8 3.9 1.7
-6 13 8 4.5 1.8
6 -13 -8 1.8 1.5
6 13 8 2.3 1.6
6 -13 -8 6.6 1.7
6 13 8 3.3 1.2
-6 13 -8 3.7 1.5
-6 13 -8 3.5 1.7
6 13 8 5 1.1
6 13 8 4.2 1.4
0 14 -8 123.49 16.5
0 14 -8 117.19 16.6
0 14 8 74.59 16.5
0 -14 8 116.09 16.6
0 -14 -8 100.49 16.5
0 -14 -8 106.89 16.5
0 -14 8 100.19 16.5
0 14 8 119.79 16.7
1 14 -8 3.4 1.2
-1 -14 -8 3.9 1.5
1 14 -8 6.7 1.7
1 14 -8 6.2 1.4
1 -14 8 4.8 1.5
-1 14 8 3.9 1.7
1 -14 8 6.3 1.6
-1 -14 -8 5.6 1.5
-1 14 -8 6 1.9
-1 14 -8 7.8 1.6
1 14 8 6.4 1.7
1 14 8 5.8 1.9
-1 -14 8 3.8 1.3
-1 -14 8 6.6 1.6
1 -14 -8 3.5 1.5
-2 -14 -8 39.8 5.9
2 14 -8 35.3 5.8
2 -14 8 36.8 5.9
2 -14 8 29.9 5.9
-2 14 8 36 6.1
2 14 -8 51.69 6
-2 14 8 25.8 5.8
2 14 -8 29.9 5.6
2 14 -8 39.5 5.7
-2 -14 -8 34 5.8
2 14 8 39.2 5.9
-2 -14 8 28 5.7
-2 14 -8 32.8 5.8
2 14 8 25.1 5.8
2 -14 -8 26 5.7
-2 -14 8 38 5.8
-2 -14 8 47.6 6
-2 -14 8 42.7 5.9
2 -14 -8 35.8 5.9
3 14 -8 40.3 5.5
3 -14 8 23.5 5.6
3 14 -8 36.6 5.7
3 14 -8 37.3 5.5
-3 -14 -8 31.2 5.6
-3 -14 -8 29.8 5.5
3 14 -8 41.7 5.7
3 -14 8 33.6 5.8
3 14 8 39.1 5.9
-3 -14 8 36.6 5.6
-3 14 -8 30.1 5.6
-3 -14 8 46.2 5.8
3 14 8 39.5 5.9
3 14 8 27.8 5.5
-3 14 -8 27.9 5.7
-3 -14 8 22.9 5.5
-3 -14 8 41 5.6
-4 14 8 10.2 3
4 -14 8 12.5 2.9
4 -14 8 14.3 2.9
-4 -14 -8 17.2 2.9
4 14 -8 22.6 2.9
-4 -14 -8 20.8 3
4 14 -8 19.1 2.6
-4 14 8 12.8 3
4 14 -8 15.7 2.7
4 -14 -8 12.9 2.9
-4 14 -8 16.3 3
4 -14 -8 9.9 2.9
4 14 8 15.7 3
-4 14 -8 12 2.9
4 14 8 15.3 3.1
4 14 8 11.1 2.6
-5 14 8 -0.5 1.4
5 -14 8 2.5 1.3
-5 14 8 0.6 1.3
5 -14 8 0.7 1.3
5 14 -8 1.9 1
5 14 -8 2.1 1
5 -14 -8 1.8 1.4
-5 14 -8 -1.6 1.2
5 14 8 2.1 0.9
5 14 8 2 1.3
5 -14 -8 0.5 1.1
5 14 8 -0.2 0.9
-5 14 -8 3.8 1.7
5 14 8 7.8 1.8
0 15 -8 -1.5 0.9
0 -15 -8 -0.9 1.1
0 -15 8 -1 0.9
0 -15 8 -0.2 0.9
0 -15 -8 -0.9 1
0 15 8 0.3 1.1
0 15 8 1.3 1.8
0 15 -8 -0.7 1.2
-1 -15 -8 5 1.6
-1 15 8 4.8 1.7
1 15 -8 5.4 1.6
-1 15 8 3.6 1.9
1 15 -8 4 1.3
1 -15 8 4.5 1.6
1 -15 8 4.3 1.5
1 15 -8 6.2 1.6
-1 -15 8 6 1.5
1 -15 -8 6.5 1.8
-1 -15 8 4 1.4
1 -15 -8 4.9 1.5
1 15 8 5 1.6
1 15 8 2.9 1.7
-1 15 -8 6.9 1.9
-1 15 -8 4 1.4
-2 -15 -8 12.4 2.8
2 -15 8 15.4 3
2 15 -8 16.8 2.8
-2 -15 -8 11.8 2.8
2 15 -8 17.3 3.5
2 -15 8 14.3 2.9
2 15 -8 17.8 2.8
2 15 8 16.8 3.3
-2 -15 8 17.8 3
-2 -15 8 15.7 2.9
-2 15 -8 12.2 2.9
2 15 8 18.2 3.1
-2 15 -8 12.6 3
-3 15 8 6.4 2.1
3 15 -8 9.7 1.8
-3 15 8 11.6 2.3
-3 -15 -8 5 1.7
3 -15 8 5 1.9
-3 -15 -8 9.9 1.9
3 15 -8 5.2 1.5
3 -15 8 8.6 2
3 15 -8 12.1 2
3 15 8 5.9 1.9
-3 15 -8 7.1 1.9
3 -15 -8 6.8 1.8
-3 -15 8 12.4 2
-3 -15 8 6.3 1.9
-3 15 -8 6.3 2
3 -15 -8 6.4 1.9
3 15 8 7 2.1
-3 -15 8 7.6 1.7
4 15 -8 0.2 1.1
4 -15 8 1.4 1.3
4 15 -8 0.9 0.8
4 15 -8 1.8 0.8
-4 15 8 -1.7 1.4
-4 -15 -8 1 1.2
4 -15 8 2.9 1.4
-4 15 8 -2 1.2
4 15 -8 1.8 1
-4 -15 -8 1.6 1.1
-4 15 -8 0.6 1.3
4 15 8 2.6 1.3
4 -15 -8 0.3 1.4
4 15 8 0.6 0.8
4 15 8 -1.9 1.3
4 -15 -8 0.5 1.2
-4 15 -8 -0.9 1.1
0 16 8 27.2 5.1
0 16 -8 35.3 5.2
0 16 8 23.3 5.2
0 -16 -8 26.5 5.1
0 -16 8 32.3 5.2
0 -16 8 28.4 5.1
0 16 -8 36.9 5.4
-1 -16 -8 2.8 1.4
1 -16 8 5.5 1.6
1 16 -8 2.4 1.1
1 -16 8 1.3 1.3
-1 -16 -8 1.9 1.2
1 16 -8 2.2 1.4
-1 -16 8 0.3 1.1
-1 16 -8 2.4 1.2
-1 -16 8 3.4 1.3
1 16 8 -0.4 1.6
-1 16 -8 2.1 1.4
1 -16 -8 2 1.2
1 16 8 2.7 1.4
2 16 -8 1.8 1
2 -16 8 0.6 1.2
2 -16 8 0.7 1.2
2 16 -8 -0.2 0.9
-2 16 8 2.3 1.8
-2 -16 -8 1.9 1.2
-2 -16 -8 0.6 1.2
2 16 -8 0 1.2
-2 -16 8 4 1.3
2 16 8 3 1.6
2 -16 -8 1.7 1.3
-2 16 -8 1.4 1.4
2 -16 -8 0.3 1.4
-3 -16 -8 -0.5 1
3 -16 8 1.9 1.4
-3 -16 -8 -0.7 1
3 16 -8 -0.8 0.8
3 -16 8 0.6 1.1
3 16 -8 0.3 1.2
3 16 -8 0.5 0.9
-3 16 8 1.8 1.5
3 16 -8 0.2 1.1
-3 16 8 0.3 1.3
3 -16 -8 -0.9 1.2
3 -16 -8 -1 1.1
-3 16 -8 -0.3 1.1
3 16 8 1.7 1.4
0 17 -8 -1.4 0.9
0 -17 8 0.4 1.1
0 -17 8 2.4 1.4
0 17 8 -1.9 1.5
0 -17 -8 -0.7 1.2
0 17 -8 -0.2 1.3
0 -17 -8 -0.9 0.9
1 -17 8 8.7 2.2
-1 17 8 6.1 2.2
1 17 -8 10.1 2.1
-1 17 8 11.8 2.7
1 17 -8 11.1 2.4
1 -17 8 15.5 2.6
1 -17 -8 6.2 2.1
-1 17 -8 6.6 2.2
-1 -17 8 8.4 2.1
1 17 8 8.2 2.1
1 -17 -8 12.5 2.6
-1 -17 8 9.6 2.1
2 17 -8 0.5 0.9
-2 -17 -8 -0.7 1.2
-2 -17 -8 0.1 1.2
-2 17 8 -2.8 1.4
2 -17 8 1 1.3
2 17 -8 -1.3 1.2
2 -17 8 -1 1.1
-2 17 8 -2 1.2
2 17 8 -1.3 1.2
-2 -17 8 0.8 1
-2 -17 8 -0.7 0.9
2 -17 -8 -0.4 1.3
-2 17 -8 -1.6 1.3
-2 17 -8 -0.8 1.1
2 17 8 -0.4 1.7
2 -17 -8 -0.9 1.1
0 0 9 0.5 0.6
0 0 9 0 0.7
0 0 -9 0.3 0.7
0 0 -9 -0.2 0.6
-1 0 9 0.2 0.6
-1 0 -9 0.4 0.6
-1 0 9 -0.5 0.7
1 0 9 -0.5 0.6
1 0 9 0.7 0.6
1 0 -9 0.2 0.7
1 0 9 0.1 0.6
-1 0 -9 0.7 0.7
1 0 9 0 0.6
1 0 -9 0.3 0.5
-1 0 -9 0.2 0.7
-1 0 -9 0.7 0.6
2 0 9 -0.4 0.6
-2 0 9 0.1 0.6
-2 0 9 0.2 0.7
-2 0 -9 -0.1 0.6
2 0 -9 0.3 0.4
-2 0 -9 0.3 0.6
2 0 -9 0.3 0.6
-2 0 9 0.7 0.7
-2 0 -9 -0.3 0.6
2 0 9 -0.2 0.5
2 0 9 -0.7 0.6
2 0 -9 -1 0.5
-2 0 9 1.1 0.7
2 0 9 0.6 0.7
2 0 -9 0.3 0.6
3 0 9 0.2 0.7
-3 0 9 0.4 0.6
3 0 9 0.3 0.7
-3 0 -9 -0.3 0.6
-3 0 9 -0.4 0.7
-3 0 9 1 0.6
3 0 9 0.2 0.5
-3 0 -9 -0.4 0.6
3 0 -9 -0.2 0.6
3 0 9 -0.1 0.5
3 0 -9 0.3 0.4
3 0 -9 0.3 0.6
3 0 -9 -0.6 0.5
-3 0 -9 -0.1 0.7
-3 0 -9 0.2 0.6
-4 0 -9 -0.2 0.6
4 0 9 -0.6 0.6
4 0 -9 0.3 0.5
-4 0 9 0.1 0.6
-4 0 9 0.3 0.8
4 0 9 -0.2 0.4
4 0 9 0.3 0.5
4 0 9 -0.8 0.6
4 0 -9 0.8 0.7
-4 0 -9 0.5 0.7
4 0 -9 0.6 0.4
4 0 -9 0.2 0.6
5 0 -9 0.1 0.5
-5 0 -9 0.4 0.7
-5 0 -9 -1.1 0.7
-5 0 9 0.9 0.6
5 0 -9 -0.4 0.4
5 0 9 -0.6 0.5
-5 0 -9 0.3 0.7
5 0 -9 -1 0.6
-5 0 9 0.1 0.9
-5 0 -9 -0.4 0.6
5 0 9 0.4 0.8
5 0 9 1.3 0.8
5 0 9 0.6 0.6
-5 0 9 0.2 0.8
6 0 -9 0 0.8
-6 0 -9 1.7 0.9
6 0 9 0.6 0.6
-6 0 9 -1 0.9
-6 0 9 -0.1 0.6
6 0 9 0.9 0.7
-6 0 -9 -0.6 0.8
-6 0 9 -1.3 0.8
6 0 -9 -0.2 0.8
6 0 -9 1 0.6
-6 0 9 0.1 0.7
-7 0 -9 0 0.9
7 0 9 -0.2 0.6
7 0 9 0.7 0.8
-7 0 9 -1.3 0.9
-7 0 -9 0.6 0.7
-7 0 9 -0.3 0.9
-7 0 9 0.1 0.8
-7 0 -9 -0.4 0.8
-7 0 9 1.1 0.8
-7 0 -9 0 0.9
7 0 -9 -0.4 0.8
7 0 -9 0.9 0.9
8 0 9 0.2 1
8 0 9 1.3 1
8 0 9 -1 0.7
-8 0 -9 0 0.8
-8 0 -9 0.7 0.9
8 0 -9 -1.3 0.9
-8 0 -9 -1 0.8
8 0 -9 1 1
0 1 9 0.4 0.6
0 -1 -9 0.6 0.6
0 1 9 -0.6 0.7
0 1 -9 1.3 0.6
0 -1 9 0.1 0.7
0 -1 -9 0.6 0.7
0 1 -9 -0.2 0.6
0 -1 9 0 0.6
-1 -1 -9 280.17 44.1
-1 -1 -9 300.47 44.1
-1 -1 -9 340.47 44.1
1 -1 9 293.37 44.1
1 -1 9 265.47 44.1
1 1 -9 308.37 44.1
1 1 -9 296.77 44.1
-1 1 9 283.07 44.1
-1 1 9 290.97 44.1
1 -1 9 257.47 44.1
1 -1 9 296.67 44.1
-1 1 -9 266.07 44.1
1 1 9 249.78 44.1
1 -1 -9 297.07 44.1
-1 -1 9 278.87 44.1
-1 1 -9 293.47 44.1
1 1 9 268.07 44.1
-1 -1 9 342.57 44.1
1 1 9 275.57 44.1
1 1 9 257.07 44.1
-1 1 -9 289.87 44.1
-1 1 -9 298.17 44.1
-1 -1 9 330.07 44.1
-1 -1 9 302.57 44.1
1 -1 -9 281.97 44.1
-2 -1 -9 36.5 5.9
-2 -1 -9 37.4 5.9
2 -1 9 33.8 5.9
2 -1 9 35 5.9
-2 -1 -9 34.7 5.9
-2 1 9 41.1 5.9
2 1 -9 39.3 5.8
-2 -1 -9 40.6 5.9
2 1 -9 42.5 5.8
-2 1 9 38.9 5.9
2 1 -9 34.9 5.8
2 1 -9 37.5 5.9
2 -1 9 38.1 5.9
-2 1 -9 36.1 5.9
2 1 9 35.7 5.9
2 1 9 32.4 5.8
2 -1 -9 34.6 5.9
2 1 9 36.1 5.9
2 -1 -9 41.4 5.9
-2 -1 9 38.4 5.9
2 1 9 41.4 5.9
-2 -1 9 36.6 5.9
2 -1 -9 40 6.2
-2 -1 9 39.4 5.8
-2 -1 9 39.8 5.9
-2 1 -9 39.6 5.9
-2 1 -9 36.9 5.9
-2 1 -9 34 5.9
-3 1 9 79.09 10.4
-3 -1 -9 71.99 10.3
3 -1 9 63.19 10.3
-3 1 9 74.09 10.3
-3 -1 -9 64.99 10.3
-3 1 9 70.59 10.3
-3 -1 -9 62.19 10.3
3 1 -9 69.39 10.2
3 -1 9 82.39 10.4
-3 -1 -9 60.59 10.3
3 1 -9 74.39 10.2
3 -1 9 56.59 10.3
3 1 -9 52.29 10.2
3 1 9 61.49 10.3
-3 1 -9 62.59 10.3
-3 -1 9 62.59 10.2
3 1 9 74.29 10.3
3 -1 -9 66.39 10.3
3 -1 -9 64.99 10.3
-3 -1 9 69.79 10.2
-3 -1 9 69.49 10.2
3 1 9 65.99 10.3
-3 1 -9 62.79 10.3
-3 1 -9 73.49 10.3
3 1 9 62.79 10.3
3 -1 -9 72.09 10.2
-3 1 -9 62.69 10.3
-3 -1 9 69.69 10.3
4 -1 9 6.7 1.2
-4 1 9 4.7 1.1
-4 -1 -9 4.9 1.1
4 -1 9 3 0.9
-4 1 9 5.1 1.1
-4 1 9 5.4 1.3
4 -1 9 4.4 1
-4 -1 -9 4.2 1
4 1 -9 3.2 0.8
-4 1 9 2.8 1
4 1 -9 6.8 1
4 1 -9 3.7 0.9
4 1 -9 3.8 0.8
-4 -1 -9 4.7 1.1
4 -1 9 2.9 1.1
4 -1 -9 4.9 1
-4 -1 9 3.8 0.9
4 -1 -9 3.4 0.9
4 -1 -9 3.6 1
-4 1 -9 3.4 1.1
-4 -1 9 4.1 0.9
-4 -1 9 5.4 1.1
4 1 9 4.2 1
-4 1 -9 3.9 1.1
4 1 9 4 1
4 1 9 2.4 0.9
-4 -1 9 2 0.9
-4 1 -9 5.3 1.1
4 -1 -9 3.5 1
-4 1 -9 4.8 1.1
4 1 9 4.8 1
5 -1 9 22.6 3.2
-5 -1 -9 21 3.1
5 1 -9 21 3
-5 1 9 15.9 3.1
5 -1 9 16.6 3.1
5 1 -9 17 3
-5 -1 -9 15.6 3
-5 -1 -9 16 3
-5 1 9 14.9 3
-5 1 9 15.6 3
-5 -1 -9 18.6 3.1
-5 1 9 21.6 3.2
5 -1 9 20 3.1
5 1 9 19.3 3.1
5 -1 -9 14.1 2.9
5 1 9 15 3
-5 -1 9 24.1 3.2
5 1 9 21.4 3.1
-5 1 -9 18.7 3.1
-5 1 -9 16.5 3.1
-5 -1 9 22.7 3
5 1 9 17.3 3
-5 -1 9 18.3 3
5 -1 -9 20.6 3
5 -1 -9 18.2 3.1
5 -1 -9 16.4 3
6 -1 9 29.9 4.5
6 -1 9 31.7 4.5
6 1 -9 20.9 4.2
6 -1 9 19.6 4.3
-6 1 9 29.7 4.4
6 1 -9 26.5 4.3
-6 -1 -9 28 4.4
-6 1 9 30.7 4.5
-6 1 9 32.2 4.5
-6 -1 -9 34.7 4.5
-6 1 9 20 4.2
6 1 9 24.3 4.3
-6 1 -9 20.9 4.3
-6 -1 9 26.5 4.3
-6 -1 9 32.4 4.4
6 -1 -9 25.5 4.2
-6 1 -9 27.5 4.4
6 -1 -9 26.1 4.2
6 -1 -9 26.2 4.3
6 -1 -9 29.8 4.4
-6 1 -9 26.3 4.4
-6 1 -9 30.6 4.5
-6 -1 9 29.2 4.3
6 1 9 25.4 4.4
6 1 9 25.8 4.3
-7 -1 -9 4.8 1.4
7 -1 9 5.5 1.3
7 -1 9 2.7 1.1
-7 1 9 4.6 1.4
-7 1 9 4.5 1.2
-7 -1 -9 4.7 1.2
7 -1 9 5.6 1.4
-7 -1 -9 3.8 1.1
-7 -1 -9 6.5 1.4
7 1 -9 7.6 1.2
-7 1 9 3.7 1.1
-7 1 9 4.6 1.4
-7 1 -9 4.8 1.3
-7 -1 9 3.2 1.1
7 -1 -9 1.9 0.9
-7 1 -9 4.2 1.2
7 -1 -9 2.7 1
7 -1 -9 4.2 1.3
-7 1 -9 4.7 1.3
7 1 9 4.6 1.2
7 1 9 4 1.1
7 1 9 4 1.2
-7 1 -9 4.2 1.2
7 -1 -9 2.8 1.2
8 -1 9 0.5 0.9
8 1 -9 1.4 0.9
8 -1 9 -0.9 1
-8 -1 -9 -0.6 1
8 -1 9 -0.7 0.9
-8 -1 -9 0.9 0.9
-8 -1 -9 0.2 0.9
-8 1 -9 0.6 0.9
8 -1 -9 -0.2 1
8 1 9 0.9 1
8 -1 -9 0.1 0.9
8 1 9 0.3 1
8 1 9 0.1 0.9
-8 1 -9 0.1 0.9
0 2 -9 146.19 23.1
0 2 -9 159.08 23.1
0 2 9 144.99 23.1
0 -2 9 161.88 23.1
0 2 9 148.29 23.1
0 -2 9 169.48 23.1
0 2 9 127.39 23.1
0 -2 -9 129.39 23.1
0 2 9 168.88 23.1
0 -2 -9 163.28 23.1
0 -2 -9 150.18 23.1
0 -2 -9 147.89 23.1
-1 2 9 154.88 21.4
1 2 -9 137.79 21.4
-1 -2 -9 145.49 21.4
1 -2 9 125.89 21.4
-1 2 9 141.69 21.5
-1 2 9 155.48 21.4
1 2 -9 133.89 21.4
1 2 -9 126.19 21.4
-1 -2 -9 146.79 21.5
-1 -2 -9 138.99 21.5
1 -2 9 135.59 21.4
-1 -2 -9 150.68 21.5
-1 2 9 147.39 21.4
1 -2 9 144.49 21.4
1 2 -9 150.38 21.4
-1 2 -9 136.59 21.4
-1 2 -9 126.29 21.4
-1 2 -9 111.89 21.4
-1 -2 9 157.28 21.4
1 -2 -9 163.78 21.5
1 -2 -9 161.58 21.5
1 2 9 142.09 21.4
-1 -2 9 120.79 21.4
-1 -2 9 146.69 21.4
1 2 9 130.19 21.4
1 -2 -9 131.69 21.4
-1 -2 9 141.89 21.4
1 2 9 153.48 21.5
1 2 9 132.09 21.4
-1 2 -9 132.79 21.4
1 -2 -9 137.09 21.5
2 2 -9 6.3 1
2 2 -9 5.1 0.9
-2 -2 -9 3.3 1
-2 2 9 3 1.1
2 -2 9 3.1 0.9
-2 2 9 4.6 1
2 -2 9 1.4 0.9
2 -2 9 3.5 1.1
-2 2 9 4.1 1
-2 -2 -9 3.5 1
-2 -2 -9 3 0.9
2 2 -9 3.2 0.8
2 2 -9 3.7 0.8
-2 2 9 1.2 1
-2 -2 -9 4.1 1
2 -2 9 3.7 0.9
2 -2 -9 3.3 1
-2 2 -9 1.8 0.9
2 -2 -9 4.3 1
2 2 9 2.5 0.9
-2 -2 9 3.5 0.9
-2 2 -9 3.2 1
-2 2 -9 2.5 0.9
-2 2 -9 3.2 1
2 2 9 5.5 1
-2 -2 9 4.2 0.9
2 2 9 4 1
-2 -2 9 4.5 0.9
2 -2 -9 3.9 1
-3 -2 -9 40.2 5.9
3 -2 9 41.6 6
-3 2 9 33 5.9
3 2 -9 35.9 5.8
3 2 -9 41 5.8
3 -2 9 33.7 5.9
-3 2 9 30.2 5.9
3 2 -9 37.3 5.8
-3 -2 -9 39.3 5.9
-3 -2 -9 36.3 5.9
-3 2 9 38.9 5.9
3 -2 9 38.4 5.9
3 2 -9 40.5 5.8
3 -2 9 36.4 5.9
-3 2 9 47.1 6.1
-3 -2 -9 35 5.9
-3 -2 9 33.3 5.8
3 -2 -9 36.3 5.9
-3 2 -9 43.8 6.1
3 -2 -9 34.8 6.2
-3 -2 9 38.1 5.8
-3 2 -9 37 5.9
3 2 9 39.9 5.9
3 -2 -9 35.1 5.9
3 -2 -9 36.4 5.9
-3 2 -9 40.3 5.9
3 2 9 32.9 5.8
3 2 9 34.7 5.9
-3 -2 9 38.3 5.9
-3 2 -9 39.4 5.9
-3 -2 9 41.8 5.8
3 2 9 38.9 5.9
4 -2 9 70.39 9.9
4 -2 9 60.29 9.9
-4 -2 -9 52.29 9.8
4 2 -9 63.79 9.8
4 -2 9 62.49 9.9
-4 -2 -9 58.89 9.9
-4 2 9 61.69 9.8
4 -2 9 69.09 9.9
-4 -2 -9 68.99 9.9
-4 2 9 52.69 9.9
4 2 -9 57.69 9.8
-4 -2 -9 66.09 9.9
-4 2 9 70.79 9.9
-4 2 9 66.09 9.9
-4 -2 9 60.39 9.8
4 -2 -9 61.89 9.9
4 -2 -9 65.39 9.9
4 2 9 59.99 9.9
-4 2 -9 67.99 9.9
-4 2 -9 57.09 9.9
-4 2 -9 64.79 9.9
4 -2 -9 72.19 9.9
4 2 9 68.89 9.8
-4 -2 9 65.19 9.8
4 -2 -9 63.39 9.8
-4 2 -9 65.09 9.9
4 2 9 69.89 9.9
-4 -2 9 63.79 9.8
4 2 9 67.49 9.8
5 -2 9 -0.5 0.6
-5 -2 -9 1.3 0.7
-5 2 9 0.4 0.9
-5 2 9 0.4 0.7
-5 -2 -9 -0.4 0.7
-5 2 9 -0.2 0.6
5 2 -9 -0.1 0.5
-5 2 9 -0.5 1
5 2 -9 -0.1 0.6
-5 -2 -9 0.4 0.7
5 -2 9 0.7 0.7
-5 -2 -9 -0.7 0.7
5 -2 -9 0.5 0.7
-5 2 -9 0.5 0.9
5 -2 -9 0.2 0.6
-5 2 -9 2.6 0.9
5 -2 -9 0.5 0.6
-5 -2 9 -0.4 0.5
-5 -2 9 0.5 0.6
5 2 9 -0.8 0.6
-5 -2 9 0.2 0.6
-5 -2 9 -0.9 0.7
5 2 9 -1.2 0.6
5 -2 -9 -0.9 0.7
5 2 9 -0.5 0.4
5 2 9 0.2 0.5
6 -2 9 5 1.4
-6 2 9 10.3 1.7
-6 2 9 6.1 1.4
-6 -2 -9 7.6 1.6
6 -2 9 5.1 1.4
-6 2 9 4.2 1.6
-6 2 9 7.2 1.5
6 2 -9 6.9 1.3
6 -2 9 6.6 1.5
-6 -2 -9 7.7 1.5
6 -2 9 8.6 1.6
-6 -2 -9 7.1 1.5
6 2 -9 4.2 1.2
-6 -2 -9 4.8 1.3
6 -2 -9 7.7 1.5
-6 -2 9 9.7 1.4
-6 -2 9 7.7 1.4
6 2 9 7.2 1.4
6 2 9 6.9 1.5
-6 -2 9 6.2 1.3
6 2 9 4.8 1.3
-6 2 -9 5.3 1.5
6 2 9 5.8 1.3
6 -2 -9 5.3 1.3
6 -2 -9 7.2 1.6
-6 -2 9 7 1.3
-6 2 -9 6.9 1.5
-6 2 -9 6.9 1.6
-6 2 -9 5.5 1.4
-7 -2 -9 8.5 1.7
7 -2 9 9 1.8
7 -2 9 8.7 1.7
-7 2 9 9.4 1.9
-7 2 9 6.7 1.7
-7 -2 -9 9.8 1.8
7 2 -9 7.5 1.5
7 -2 9 8.3 1.8
7 2 -9 9.5 1.6
-7 -2 -9 6.4 1.7
-7 2 9 5.5 1.6
7 -2 9 9.7 1.9
-7 2 9 8.7 1.9
7 -2 -9 9.3 1.7
-7 2 -9 9.9 1.8
-7 2 -9 9.8 1.8
7 2 9 5 1.6
7 -2 -9 7.7 1.7
7 -2 -9 10.1 1.9
7 -2 -9 8.9 1.8
7 2 9 10.4 1.8
7 2 9 8.9 1.7
-7 2 -9 8 1.8
-8 -2 -9 0.4 1
-8 -2 -9 2.5 1.4
8 -2 9 3 1.3
-8 -2 -9 3.2 1.2
8 -2 9 1.4 1
8 -2 9 0.8 1
8 -2 -9 1.5 0.8
8 2 9 1.6 0.9
8 2 9 1.5 1
-8 2 -9 2 1.1
8 2 9 1.1 0.9
8 -2 -9 1 1.1
8 -2 -9 1.4 1.1
-8 2 -9 2.9 1.1
8 2 9 3.9 1.1
0 -3 -9 0.6 0.7
0 3 9 0.1 0.8
0 3 9 -0.3 0.6
0 -3 9 -0.4 0.7
0 3 9 0 0.7
0 -3 9 0.1 0.7
0 -3 9 0.1 0.6
0 -3 9 1.3 0.7
0 3 -9 -0.2 0.6
0 -3 -9 -0.4 0.7
0 3 9 1.1 0.7
0 -3 -9 -0.2 0.8
0 3 -9 0.3 0.5
0 -3 -9 0.3 0.6
0 3 -9 0.2 0.6
1 -3 9 21.4 3.6
-1 3 9 32.8 3.9
-1 -3 -9 20.9 3.6
1 3 -9 27.7 3.6
-1 3 9 22.5 3.7
-1 -3 -9 25 3.7
1 3 -9 16.9 3.5
-1 3 9 22.6 3.6
-1 -3 -9 23.1 3.6
1 -3 9 16.8 3.5
1 -3 9 26.6 3.7
1 3 -9 25.4 3.6
1 3 -9 21 3.5
1 -3 9 20.4 3.6
-1 -3 -9 31.7 3.7
-1 3 9 23 3.6
-1 -3 9 19.7 3.5
1 -3 -9 25.2 3.6
-1 -3 9 26.2 3.6
-1 3 -9 19.2 3.6
1 -3 -9 19.1 3.6
1 3 9 24 3.6
1 3 9 19.8 3.5
1 3 9 19 3.6
1 -3 -9 14.1 3.5
-1 3 -9 24.9 3.6
-1 3 -9 26.8 3.7
1 3 9 24.1 3.6
-1 3 -9 17.2 3.5
1 -3 -9 25.3 3.7
2 3 -9 179.28 31.2
2 -3 9 183.58 31.2
2 -3 9 185.78 31.2
-2 -3 -9 218.68 31.2
-2 -3 -9 197.78 31.2
2 3 -9 224.38 31.2
-2 -3 -9 221.58 31.3
-2 3 9 210.88 31.2
-2 -3 -9 183.08 31.2
-2 3 9 215.48 31.3
-2 3 9 219.38 31.3
2 3 -9 213.48 31.2
2 3 -9 202.08 31.2
-2 3 9 220.18 31.3
2 -3 9 201.28 31.3
-2 3 -9 197.98 31.2
2 -3 -9 206.08 31.3
2 3 9 178.98 31.2
2 3 9 204.48 31.2
2 -3 -9 198.18 31.2
-2 -3 9 214.98 31.2
-2 3 -9 207.38 31.3
-2 3 -9 208.48 31.3
2 -3 -9 196.48 31.2
2 -3 -9 213.98 31.2
2 3 9 203.68 31.3
-2 -3 9 220.88 31.2
3 -3 9 3.2 1
3 3 -9 3.8 1
3 -3 9 4.6 1.1
-3 3 9 4.3 1.1
3 3 -9 4.3 0.9
-3 3 9 4.8 1.3
-3 -3 -9 2.9 1
-3 -3 -9 4.9 1.1
3 -3 9 2.8 0.9
3 3 -9 4.8 0.8
3 3 -9 5.7 0.9
-3 3 9 3.9 1.1
-3 -3 -9 3.5 1.1
-3 3 9 5.2 1.2
3 -3 9 4.4 1.1
-3 -3 -9 3.6 1.1
-3 3 -9 4.2 1.2
3 -3 -9 4.8 1
-3 -3 9 5 1
3 3 9 6.4 1.1
-3 3 -9 5 1.1
3 -3 -9 5 1.2
3 3 9 5.4 1.1
-3 3 -9 5.1 1.2
3 3 9 3.9 1.1
3 -3 -9 3.7 1.1
-3 -3 9 3.1 0.9
3 3 9 5.3 1
-3 -3 9 4.2 0.9
-3 -3 9 3.9 0.9
-3 3 -9 3.3 1.1
3 -3 -9 3.6 1.1
-4 -3 -9 3.4 1
-4 3 9 3.9 1
-4 -3 -9 3.3 0.9
-4 -3 -9 3.9 1
-4 -3 -9 3.7 1
4 3 -9 3.2 0.8
-4 3 9 3.6 1.3
4 3 -9 4 0.8
-4 3 9 2.9 1.3
4 -3 9 2.8 1
-4 3 9 2.5 1
4 -3 9 1.3 0.8
4 -3 -9 3.6 1.1
-4 -3 9 4.3 0.8
4 3 9 3.5 1
4 3 9 4.4 0.9
-4 3 -9 5.2 1.2
-4 -3 9 4.1 0.8
4 -3 -9 3.1 0.9
4 3 9 5.1 1
-4 3 -9 0.5 1
4 3 9 2.9 0.8
-4 -3 9 5.1 0.8
4 -3 -9 3.8 1
-4 -3 9 3.5 0.9
4 -3 -9 4.6 1.1
5 -3 9 2 1
-5 3 9 2.1 1.1
5 -3 9 2.8 1
-5 -3 -9 4 1
-5 3 9 3.8 1.3
5 3 -9 3.3 0.8
5 3 -9 1.7 0.6
5 -3 9 2.2 0.9
-5 -3 -9 2.4 0.9
5 -3 9 0.9 0.8
-5 -3 -9 2.6 0.9
-5 3 9 2.3 0.9
-5 3 9 2.1 0.9
-5 -3 -9 5.3 1.1
-5 -3 9 3.1 0.9
-5 -3 9 2.1 0.7
-5 3 -9 3.9 1.1
5 -3 -9 2.8 1
5 -3 -9 2.8 0.9
-5 3 -9 2.3 1.1
5 -3 -9 3.4 1.1
-5 -3 9 3.5 0.7
5 3 9 2.7 0.8
-5 -3 9 2.2 0.7
-5 3 -9 2 0.9
5 -3 -9 3.3 0.9
5 3 9 3.5 0.9
5 3 9 3.2 0.9
5 3 9 2.6 0.8
-5 3 -9 1.6 1
-6 3 9 0.2 0.8
6 -3 9 0.4 0.8
-6 3 9 0 1.1
-6 3 9 0.1 0.8
-6 -3 -9 0.3 0.7
-6 -3 -9 1.4 0.8
6 -3 9 0 0.8
-6 3 9 -0.3 0.9
-6 -3 -9 0.6 0.8
6 -3 9 0.8 0.7
-6 -3 -9 0.1 0.7
6 -3 9 -0.2 0.8
-6 3 -9 1 0.8
-6 3 -9 -0.7 0.8
6 3 9 0.6 0.8
-6 3 -9 0.5 0.9
6 3 9 0.8 0.6
6 -3 -9 -0.5 1.1
6 3 9 1.2 0.6
-6 3 -9 -0.4 0.8
6 -3 -9 0.6 0.9
6 -3 -9 1 0.8
-6 -3 9 -0.4 0.5
6 3 9 0.6 0.7
-6 -3 9 -0.1 0.6
-6 -3 9 0.6 0.6
6 -3 -9 0 0.8
7 -3 9 0 0.8
-7 -3 -9 0.7 0.8
-7 -3 -9 1.2 0.9
-7 3 9 -0.8 0.8
7 -3 9 0.2 0.8
-7 3 9 0.1 0.9
7 -3 9 1.2 1
-7 3 -9 2 1
7 -3 -9 0.7 0.8
7 -3 -9 0.1 0.9
7 3 9 0.6 0.8
7 -3 -9 -0.2 1
7 3 9 0.9 0.9
-7 3 -9 0.3 0.8
7 3 9 -0.7 0.6
8 -3 9 -0.7 0.9
-8 -3 -9 1.3 1
-8 3 9 0.1 1
8 -3 9 1.3 1
8 -3 -9 2.8 0.9
8 3 9 2 0.9
8 3 9 1.4 0.9
8 -3 -9 2 1
8 -3 -9 0.6 1.1
-8 3 -9 1.7 1.1
8 3 9 3.2 1.1
8 -3 -9 3 1.3
8 3 9 2.9 1
0 4 9 568.34 93.19
0 -4 -9 561.54 93.09
0 4 9 620.24 93.19
0 -4 9 582.34 93.09
0 -4 9 665.83 93.19
0 4 9 662.53 93.19
0 -4 -9 555.94 93.09
0 4 9 597.84 93.19
0 -4 -9 640.84 93.19
0 -4 9 644.74 93.09
0 -4 9 632.14 93.09
-1 4 9 667.73 96.29
1 -4 9 647.94 96.29
1 -4 9 648.34 96.29
1 4 -9 673.33 96.29
-1 4 9 602.74 96.29
1 -4 9 609.64 96.29
-1 -4 -9 678.23 96.29
1 4 -9 582.94 96.19
-1 4 9 577.34 96.29
-1 4 9 544.95 96.29
-1 -4 -9 684.73 96.29
1 -4 9 601.44 96.29
-1 -4 -9 665.53 96.29
1 4 9 554.04 96.29
1 4 9 721.03 96.29
1 -4 -9 658.93 96.29
1 -4 -9 703.33 96.29
1 -4 -9 666.13 96.29
1 -4 -9 573.44 96.29
-1 4 -9 568.34 96.29
-1 4 -9 602.64 96.29
1 4 9 626.34 96.29
-1 4 -9 698.43 96.29
-1 4 -9 646.84 96.29
1 4 9 619.94 96.29
2 -4 9 73.39 13.3
-2 4 9 83.39 13.3
2 -4 9 79.49 13.3
2 -4 9 70.89 13.3
-2 -4 -9 93.09 13.3
-2 4 9 87.89 13.3
-2 -4 -9 81.39 13.3
-2 4 9 91.09 13.4
2 4 -9 95.69 13.2
-2 -4 -9 95.69 13.3
-2 -4 -9 80.39 13.3
-2 4 9 81.19 13.3
2 -4 9 86.99 13.3
2 4 -9 84.49 13.2
2 4 9 81.19 13.3
2 -4 -9 90.49 13.3
2 4 9 69.09 13.3
-2 -4 9 89.89 13.2
-2 4 -9 95.29 13.3
-2 -4 9 88.09 13.2
-2 4 -9 91.59 13.3
2 4 9 81.09 13.3
2 4 9 112.99 13.3
-2 4 -9 81.09 13.3
-2 -4 9 86.49 13.2
-2 -4 9 95.39 13.2
-2 4 -9 86.99 13.3
2 -4 -9 87.19 13.3
-3 4 9 47.7 7.3
3 4 -9 45.4 7.1
3 4 -9 47.1 7.1
3 -4 9 46.6 7.3
-3 -4 -9 48 7.3
3 -4 9 45.1 7.3
-3 -4 -9 49.5 7.3
3 -4 9 48.8 7.3
-3 4 9 44.4 7.3
3 4 -9 49.6 7.2
-3 4 9 41.4 7.3
3 4 -9 46.2 7.2
-3 4 9 52.39 7.4
3 -4 9 39.6 7.3
-3 -4 9 47.5 7.2
3 -4 -9 45.3 7.3
3 4 9 41.5 7.2
-3 4 -9 47.2 7.3
3 -4 -9 36.3 7.4
3 -4 -9 50.09 7.3
-3 -4 9 51.29 7.2
-3 4 -9 52.79 7.3
3 4 9 44.6 7.2
-3 4 -9 52.79 7.3
3 4 9 44.5 7.2
-3 -4 9 43.3 7.2
3 -4 -9 49.2 7.3
-3 4 -9 45.9 7.3
4 4 -9 38.1 6.4
4 4 -9 40.7 6.4
4 -4 9 49.4 6.6
4 -4 9 43.8 6.5
-4 -4 -9 42.7 6.5
-4 4 9 42.3 6.5
4 -4 9 44.1 6.5
-4 4 9 42.9 6.7
-4 -4 -9 41 6.5
-4 -4 -9 43.5 6.5
-4 4 9 46.1 6.5
-4 4 9 39.6 6.7
4 -4 -9 41.8 6.5
4 -4 -9 39.7 6.5
-4 -4 9 39.2 6.4
-4 4 -9 36.5 6.6
-4 4 -9 31.8 6.6
4 -4 -9 46.2 6.6
-4 -4 9 39 6.4
4 4 9 43.4 6.5
4 4 9 40.9 6.5
-4 4 -9 32.1 6.5
-4 -4 9 45.2 6.4
4 -4 -9 50.09 6.6
-4 4 -9 40.6 6.5
-4 -4 9 41.6 6.4
4 4 9 40.6 6.4
-5 -4 -9 98.29 14
5 -4 9 90.59 14
-5 4 9 99.59 14.1
-5 4 9 96.19 14
5 -4 9 83.99 14
-5 4 9 92.49 14
-5 -4 -9 93.39 14
5 -4 9 78.79 14
-5 -4 -9 106.59 14
-5 4 9 104.99 14.1
5 -4 9 82.99 14
-5 -4 -9 96.39 14
5 4 9 113.19 14
5 -4 -9 93.59 14
-5 4 -9 92.69 14
5 4 9 93.69 14
5 4 9 79.79 13.9
5 4 9 82.69 13.9
-5 4 -9 87.69 14
5 -4 -9 83.29 14
-5 -4 9 87.09 13.9
5 -4 -9 93.99 14
5 -4 -9 107.59 14.1
-5 4 -9 71.09 14.1
-5 -4 9 81.39 13.9
6 -4 9 21.4 3
-6 4 9 14.2 2.7
-6 -4 -9 18.2 2.8
6 -4 9 11.3 2.6
-6 4 9 14.4 2.7
-6 -4 -9 15 2.7
-6 -4 -9 13.6 2.6
-6 -4 -9 17.2 2.7
6 -4 9 16.4 2.8
6 -4 9 15.7 2.9
6 4 9 15.4 2.6
-6 4 -9 13.4 2.7
6 -4 -9 13.9 2.7
-6 4 -9 14.1 2.7
6 4 9 17.9 2.7
-6 4 -9 13.3 2.8
6 4 9 16.2 2.7
6 -4 -9 14.7 2.8
6 4 9 18 3.2
6 -4 -9 13.3 2.7
-7 -4 -9 12.3 2.3
7 -4 9 11.7 2.3
7 -4 9 14.2 2.5
7 -4 9 11.8 2.5
-7 4 9 14.7 2.5
-7 4 9 13.2 2.6
-7 4 9 11.9 2.4
-7 -4 -9 11.7 2.3
-7 4 9 10.3 2.5
-7 4 -9 11.7 2.4
-7 4 -9 11.7 2.4
7 -4 -9 12.2 2.3
7 -4 -9 9.9 2.5
7 4 9 14.4 2.3
7 4 9 15.8 2.3
7 4 9 13.3 2.3
7 -4 -9 10.8 2.4
7 -4 -9 12.6 2.3
-8 4 9 16.3 3.7
8 -4 9 17 3.4
8 -4 9 18.7 3.5
-8 4 -9 19.5 3.5
8 4 9 18.4 3.3
8 -4 -9 17.3 3.5
8 4 9 19.7 3.3
8 4 9 26.3 3.5
8 -4 -9 16 3.5
-8 4 -9 20.9 3.5
8 -4 -9 18.8 3.3
8 4 9 22.8 3.4
0 -5 -9 0.1 0.8
0 5 -9 -0.3 0.5
0 5 -9 0.4 0.6
0 5 -9 -0.7 0.5
0 -5 -9 0 0.7
0 -5 9 -0.6 0.7
0 -5 9 1.3 0.7
0 -5 9 -0.2 0.6
0 5 9 -0.1 0.6
0 5 9 -0.4 0.6
0 5 9 0.8 0.9
0 -5 -9 1.5 0.9
0 -5 9 -1 0.6
0 5 -9 -0.2 0.6
0 -5 -9 -0.5 0.7
0 5 9 -0.8 0.7
1 -5 9 5.3 1.3
1 5 -9 6.5 1.3
1 -5 9 4.4 1.3
-1 -5 -9 8.9 1.5
1 5 -9 9.9 1.4
-1 5 9 6.2 1.5
-1 -5 -9 5.7 1.5
-1 -5 -9 7.7 1.4
1 -5 9 5.4 1.4
-1 5 9 8.2 1.4
1 -5 9 8.4 1.5
-1 5 9 8.4 1.5
-1 -5 -9 7.4 1.4
-1 5 9 4.9 1.4
-1 -5 9 6.1 1.4
1 -5 -9 4.6 1.4
1 -5 -9 6.5 1.4
-1 -5 9 7.9 1.3
1 5 9 6.2 1.4
1 5 9 7.9 1.4
-1 5 -9 4.1 1.3
-1 -5 9 5.3 1.3
-1 5 -9 7.5 1.4
-1 -5 9 4.9 1.3
-1 5 -9 9.1 1.5
1 5 9 6.6 1.4
1 -5 -9 6.3 1.4
-1 5 -9 7.8 1.4
1 -5 -9 4.2 1.3
-2 5 9 4.8 1.1
-2 5 9 5 1.4
2 -5 9 1.5 1.1
-2 -5 -9 4.2 1.1
2 5 -9 5.2 0.9
-2 -5 -9 5.2 1.1
2 -5 9 4.8 1.1
-2 -5 -9 4.4 1.1
2 5 -9 5.5 1
-2 5 9 7 1.2
2 -5 9 2.8 1.1
-2 -5 -9 2.8 1
2 -5 9 2.8 1
2 5 -9 6.1 1
-2 5 9 2.3 1.2
2 5 -9 4.5 0.9
2 5 9 5.4 1.1
-2 5 -9 2.7 1
2 -5 -9 2.5 1.1
-2 5 -9 4.4 1.2
-2 -5 9 3.7 0.9
2 5 9 4.5 1
2 5 9 3.3 1.1
2 -5 -9 3.5 1.1
2 -5 -9 4.4 1.2
-2 5 -9 3.9 1.1
-2 -5 9 2.7 1
-2 -5 9 6.3 1.1
2 5 9 2.2 1.1
-2 5 -9 2.9 1
-3 5 9 2.7 1
3 5 -9 2.9 0.7
-3 -5 -9 4.4 1
-3 -5 -9 3 1
3 5 -9 3.4 0.8
3 -5 9 3.1 1
3 -5 9 1.8 0.9
-3 5 9 2 1.2
3 5 -9 2.8 0.8
-3 5 9 3.2 1.2
-3 -5 -9 2.6 0.9
-3 5 9 2.2 1
-3 -5 -9 3.2 1
3 5 -9 4.5 0.7
3 -5 -9 3.8 1.1
-3 -5 9 2.3 0.7
-3 5 -9 1.8 0.9
-3 -5 9 2.8 0.8
3 -5 -9 1.8 1
-3 5 -9 1.4 0.9
3 -5 -9 3.3 0.9
3 5 9 3.6 1
3 5 9 3.6 0.9
-3 -5 9 3.6 0.8
3 -5 -9 2.2 1
3 5 9 2.4 1
3 5 9 3.3 0.8
-3 -5 9 3 0.8
-4 5 9 1.9 1.3
-4 5 9 2.3 1.3
-4 5 9 2 1
4 -5 9 4.2 1.1
4 -5 9 3.6 1.1
4 -5 9 3.7 1.1
4 5 -9 2.9 0.8
-4 -5 -9 4.4 1
-4 5 9 1.7 1
4 5 -9 2.7 0.7
-4 -5 -9 2.9 1
-4 -5 -9 2.8 0.9
-4 -5 -9 2.6 0.9
-4 5 -9 1.2 1
4 5 9 4.1 0.9
-4 -5 9 3.9 0.8
4 5 9 4.4 1.1
-4 -5 9 4.3 0.8
-4 5 -9 2.1 1
4 -5 -9 4 1.2
-4 -5 9 4.2 0.8
-4 5 -9 5.3 1.1
-4 5 -9 2.1 1
4 5 9 1.5 0.9
-5 -5 -9 33.1 4.3
5 -5 9 20.8 4.3
-5 5 9 22.8 4.2
-5 -5 -9 27.2 4.2
-5 5 9 24.6 4.3
-5 -5 -9 29.5 4.2
5 -5 9 22.6 4.2
5 -5 9 21.5 4.2
-5 -5 -9 26.8 4.2
5 -5 9 27.8 4.3
-5 5 -9 23.4 4.3
5 5 9 27.7 4.1
5 5 9 28.6 4.2
5 5 9 27.2 4.2
5 -5 -9 18.3 4.2
-5 5 -9 26.2 4.3
5 -5 -9 19.3 4.2
-5 5 -9 28.2 4.4
5 -5 -9 24.1 4.2
-5 5 -9 21.2 4.2
5 5 9 30.2 4.2
6 -5 9 0.3 0.9
6 -5 9 1.1 0.9
-6 5 9 0.2 1
-6 -5 -9 0.4 0.9
-6 -5 -9 0.3 0.7
-6 -5 -9 -0.4 0.7
-6 5 9 0 0.9
-6 -5 -9 0.5 0.8
6 -5 9 0.2 0.9
-6 5 9 -0.2 1.2
-6 5 9 1.4 1
-6 5 -9 0.8 0.9
6 5 9 0.8 0.9
-6 5 -9 1.3 0.9
6 5 9 -0.4 0.8
6 -5 -9 1.1 1
6 5 9 0.7 0.7
6 -5 -9 -1 1
6 5 9 0.9 0.6
6 -5 -9 1.1 0.8
7 -5 9 4.4 1.5
7 -5 9 10.7 1.8
-7 5 9 6.7 1.9
-7 5 9 9.2 2
-7 -5 -9 7.7 1.6
-7 5 9 7.3 1.9
-7 -5 -9 7.8 1.6
-7 5 9 8.9 1.7
7 -5 -9 4 1.8
7 5 9 5.9 1.4
7 5 9 9.1 1.6
7 -5 -9 6.4 1.6
-7 5 -9 5.8 1.7
7 5 9 7.2 1.4
7 -5 -9 5 1.5
8 -5 9 -0.1 1
8 -5 9 1.1 1.1
-8 5 9 -0.6 1.2
-8 5 9 -0.2 1.2
8 -5 -9 1.1 1.2
8 5 9 0.2 0.7
8 5 9 -0.4 0.8
8 -5 -9 0.5 1.1
-8 5 -9 -1.1 0.9
-8 5 -9 2.1 1.1
8 5 9 0.1 0.8
8 5 9 0.1 1.1
8 -5 -9 -1 0.8
0 6 9 4.7 1.2
0 -6 9 9 1.5
0 6 9 5.3 1.6
0 6 -9 4 1.3
0 -6 -9 7.5 1.5
0 6 -9 4.4 1.2
0 6 -9 12.6 1.5
0 6 -9 6.2 1.3
0 -6 -9 8.3 1.5
0 -6 -9 4.6 1.4
0 -6 9 9.8 1.4
0 6 9 2.9 1.3
0 6 9 5 1.2
0 -6 9 6.1 1.5
0 -6 -9 8.1 1.4
0 -6 9 4.8 1.2
1 6 -9 3.8 1
1 -6 9 3 1
-1 -6 -9 2.4 0.9
-1 -6 -9 2.9 1.1
-1 6 9 2.8 0.9
-1 6 9 2.4 1
1 -6 9 0.7 0.9
-1 6 9 4.3 1.3
1 6 -9 3.3 0.8
-1 -6 -9 2.6 1
-1 -6 -9 1.1 0.8
-1 6 9 4.7 1.2
1 -6 9 3.5 1.1
1 6 -9 3 0.8
1 -6 9 3.7 1
1 6 -9 5.4 1
-1 6 -9 2.4 0.9
1 6 9 3.5 1.2
1 -6 -9 2.8 1
1 6 9 4.1 0.9
-1 -6 9 3.6 0.9
-1 -6 9 3.3 0.9
-1 6 -9 4.6 1.1
-1 -6 9 4.6 1
-1 -6 9 3.2 0.9
-1 6 -9 2.9 0.8
1 -6 -9 1.8 0.9
-1 6 -9 2.4 0.9
1 -6 -9 1.4 1
1 6 9 4.1 0.9
1 -6 -9 1.8 1.1
-2 -6 -9 6 1.2
2 -6 9 5.2 1.3
-2 6 9 7.2 1.4
-2 6 9 7.9 1.4
-2 6 9 6.4 1.6
2 -6 9 8.5 1.5
2 6 -9 7.7 1.1
2 -6 9 5.3 1.3
-2 -6 -9 6.9 1.3
-2 -6 -9 6.4 1.3
-2 -6 -9 7.8 1.4
2 6 -9 7.3 1.1
2 -6 9 5.5 1.4
-2 6 9 5.8 1.5
2 6 -9 3.8 1.1
2 -6 -9 4.7 1.3
2 -6 -9 3.9 1.3
2 -6 -9 5.9 1.3
-2 6 -9 2.4 1.1
2 6 9 3.2 1.3
2 6 9 7.3 1.4
-2 -6 9 3.8 1.1
-2 6 -9 4.5 1.3
-2 6 -9 2.8 1.2
2 6 9 3.9 1.1
2 6 9 5.4 1.2
-2 6 -9 6 1.3
-2 -6 9 4.7 1.1
2 -6 -9 4 1.3
3 6 -9 46.1 7.8
3 6 -9 55.69 7.7
3 -6 9 52.79 8
3 6 -9 55.19 7.7
-3 -6 -9 51.29 7.9
-3 -6 -9 56.99 7.9
3 -6 9 46 7.9
-3 6 9 53.19 7.9
3 -6 9 51.09 7.9
-3 -6 -9 44.2 7.8
3 -6 9 43.1 7.9
3 6 -9 62.59 7.8
-3 6 9 47.2 7.9
-3 -6 -9 44.2 7.8
-3 6 -9 51.59 7.9
-3 6 -9 52.79 7.9
3 -6 -9 49.2 7.9
-3 -6 9 48.9 7.8
3 -6 -9 54.19 7.9
-3 6 -9 51.49 7.9
-3 -6 9 47.9 7.8
3 6 9 39.7 7.8
-3 -6 9 60.09 7.8
3 6 9 43.5 7.9
-3 6 -9 48.9 7.9
3 6 9 48 7.8
-3 -6 9 46 7.8
4 -6 9 2.4 0.9
-4 6 9 2.8 1.1
-4 6 9 1.2 1.1
4 -6 9 2.5 0.9
-4 6 9 2.4 1.3
-4 -6 -9 1.2 0.8
4 -6 9 1.5 1
-4 -6 -9 2.7 0.8
-4 -6 -9 1.5 0.8
-4 6 9 0.6 0.9
4 6 -9 1.1 0.5
4 6 -9 1.8 0.6
-4 -6 -9 2.8 0.9
4 -6 -9 0.1 0.9
4 6 9 3.5 1
-4 6 -9 2.6 1.1
4 -6 -9 1.3 1
4 6 9 2.1 0.7
-4 -6 9 1.8 0.6
4 -6 -9 -0.4 0.8
-4 6 -9 1.8 0.9
-4 -6 9 1.3 0.7
4 6 9 1.7 0.6
-4 -6 9 1.8 0.6
-4 6 -9 0.1 1
-4 6 -9 2.3 1
4 -6 -9 2.2 0.9
4 6 9 0.6 0.8
-4 -6 9 0.9 0.6
5 -6 9 18 3.2
-5 6 9 19.4 3.3
-5 6 9 18.3 3.3
-5 -6 -9 18.4 3
-5 -6 -9 20 3
5 -6 9 16.7 3.2
-5 -6 -9 20.5 3
-5 6 9 14.3 3
-5 -6 -9 17.6 3
5 -6 9 18.6 3.2
-5 6 9 14.7 3.1
-5 6 -9 19.4 3.2
5 -6 -9 14.2 3.1
5 -6 -9 17.4 3.1
5 -6 -9 17.9 3.3
5 6 9 22.3 3
-5 6 -9 15.4 3.1
5 6 9 11.6 2.9
5 6 9 18.2 3
5 -6 -9 16 3.1
-6 6 9 7.8 1.9
-6 -6 -9 6.7 1.5
-6 -6 -9 9.6 1.5
-6 6 9 7.4 1.7
-6 -6 -9 6 1.5
6 -6 9 5.4 1.6
-6 -6 -9 6.5 1.5
-6 6 9 6.8 1.7
6 -6 9 6.8 1.7
-6 6 -9 5.5 1.7
6 -6 -9 7.8 1.6
6 -6 -9 6 1.7
6 6 9 7.6 1.4
6 6 9 6.2 1.5
6 -6 -9 4.7 1.7
-6 6 -9 7.2 1.6
6 -6 -9 7.9 1.6
6 6 9 5.5 1.5
6 6 9 7.2 1.3
-7 6 9 8.3 2
-7 6 9 8.4 2
-7 -6 -9 7.9 1.7
7 -6 9 7.7 1.8
7 -6 9 8 1.9
-7 -6 -9 10.5 1.8
7 6 9 11.8 1.7
7 -6 -9 7.3 1.8
7 -6 -9 8.3 1.8
7 -6 -9 6 1.8
-7 6 -9 8 1.8
7 6 9 7.2 1.6
7 6 9 5.9 1.7
-7 6 -9 8 1.9
8 -6 9 4 1.4
8 -6 9 4.1 1.5
-8 6 9 1.6 1.4
-8 6 9 3 1.5
8 -6 -9 1.4 1.3
8 -6 -9 3.6 1.4
8 6 9 4.2 1.1
8 6 9 8 1.4
8 -6 -9 3.2 1.3
-8 6 -9 5 1.5
-8 6 -9 3.5 1.4
0 -7 9 0.1 0.6
0 -7 9 0.6 0.7
0 -7 -9 1 0.9
0 7 -9 0 0.6
0 7 9 -0.7 0.6
0 -7 -9 0.4 0.7
0 7 -9 -0.8 0.6
0 -7 -9 -0.4 1
0 -7 9 0 0.8
0 -7 9 1.2 0.7
0 7 -9 0.8 0.6
0 -7 -9 0.3 0.8
0 7 -9 -0.3 0.6
0 7 9 -0.4 1
0 7 9 -0.6 0.5
0 7 9 1.1 1.1
1 7 -9 7.1 1.1
1 -7 9 4.3 1.2
-1 7 9 2.7 1
-1 -7 -9 4.3 1.3
1 7 -9 2.2 1
-1 -7 -9 4.5 1.2
-1 -7 -9 3.9 1.1
-1 -7 -9 5.4 1.3
1 7 -9 4.6 1.1
-1 7 9 4.3 1.1
1 -7 9 5.1 1.2
1 -7 9 5.3 1.4
1 -7 9 4 1.1
1 7 -9 5 1
1 7 9 6.1 1.1
-1 -7 9 2.4 1
-1 -7 9 5.2 1.1
1 -7 -9 3.4 1.2
1 7 9 4.6 1.5
-1 7 -9 3 1.1
-1 7 -9 3.3 1.1
1 7 9 5.1 1.4
1 -7 -9 3.8 1.3
1 7 9 4 1
-1 7 -9 3.8 1.1
-1 -7 9 5.9 1.2
-1 -7 9 5.5 1.1
2 7 -9 6.4 1
2 -7 9 4 1.3
2 -7 9 2.9 1.2
-2 -7 -9 4.6 1.1
-2 -7 -9 4.6 1.1
2 -7 9 3.4 1.2
2 7 -9 4.4 1
-2 -7 -9 4 1.2
2 7 -9 5.9 1.1
-2 7 9 4.4 1.3
-2 7 9 3.5 1.2
2 7 -9 4.6 1
-2 -7 -9 2.1 1.2
2 -7 9 4.1 1.4
-2 7 -9 1.8 1.1
-2 7 -9 4.1 1.2
2 -7 -9 2.4 1.1
2 7 9 5.3 1.1
2 7 9 4.5 1.3
2 7 9 4.8 1
-2 -7 9 3.7 1
-2 -7 9 3.3 1.1
-2 -7 9 5.7 1.1
2 7 9 3.6 1.2
2 -7 -9 5 1.4
-2 -7 9 3.9 1
3 7 -9 10.1 1.5
3 -7 9 5.5 1.7
-3 -7 -9 10.9 1.7
3 -7 9 7.4 1.7
-3 -7 -9 7.5 1.6
-3 7 9 7.3 1.7
-3 7 9 9.8 2
3 7 -9 8 1.4
-3 7 9 7.5 1.7
3 -7 9 8.1 1.7
-3 -7 -9 8 1.6
3 7 -9 8.3 1.4
-3 7 9 3.7 1.7
-3 -7 -9 6.4 1.6
3 7 -9 11.6 1.6
3 -7 9 6.5 1.6
3 -7 -9 4.1 1.6
-3 -7 9 10.3 1.5
3 7 9 6.3 1.5
3 -7 -9 10.4 1.8
3 -7 -9 7.2 1.7
-3 7 -9 6.6 1.7
-3 7 -9 4.1 1.6
3 7 9 6.8 1.6
-3 7 -9 9 1.8
-3 -7 9 10.9 1.5
3 -7 -9 7 1.7
3 7 9 8.6 1.7
-3 7 -9 6.9 1.6
4 -7 9 15.9 2.7
-4 -7 -9 15.1 2.4
-4 7 9 11.1 2.6
-4 7 9 16.3 2.8
-4 7 9 14.4 2.5
4 7 -9 15.6 2.3
4 -7 9 14.3 2.6
-4 -7 -9 15.3 2.4
4 -7 9 16.1 2.6
-4 -7 -9 16.4 2.5
-4 -7 -9 11.8 2.4
-4 7 9 12 2.5
-4 7 -9 17.4 2.7
4 7 9 13.5 2.4
4 -7 -9 12 2.5
4 7 9 16.3 2.5
-4 -7 9 14.6 2.2
4 7 9 13.1 2.3
4 7 9 12.7 2.4
-4 7 -9 10.2 2.5
4 -7 -9 7.4 2.4
-4 -7 9 13.2 2.3
-4 -7 9 14.8 2.3
-4 7 -9 11.3 2.4
4 -7 -9 12.7 2.5
4 -7 -9 9.7 2.5
-4 7 -9 9.3 2.4
-4 -7 9 13.2 2.2
-5 -7 -9 109.19 18.7
-5 7 9 133.19 18.9
-5 7 9 126.19 18.8
-5 -7 -9 120.29 18.7
-5 7 9 125.79 18.9
-5 -7 -9 122.89 18.7
-5 -7 -9 123.39 18.7
5 -7 9 115.09 18.8
-5 7 9 115.19 18.8
-5 7 -9 125.79 18.8
5 -7 -9 103.69 18.9
5 7 9 105.69 18.7
-5 -7 9 126.49 18.6
5 7 9 136.79 18.7
-5 7 -9 124.39 18.8
-5 -7 9 124.49 18.6
5 -7 -9 142.99 18.9
5 -7 -9 112.49 18.8
5 7 9 128.89 18.7
5 7 9 117.69 18.8
5 -7 -9 119.39 18.8
-6 -7 -9 31.1 5
-6 7 9 39.3 5.5
-6 -7 -9 29.2 5
6 -7 9 22.2 5
6 -7 9 28 5.2
-6 7 9 25.5 5.3
-6 -7 -9 33.4 5
-6 -7 -9 29.7 5.1
6 -7 -9 29.3 5.2
6 7 9 30.2 5
6 -7 -9 24.6 5
-6 7 -9 37.3 5.4
6 -7 -9 27.6 5.1
6 7 9 31 5
-6 7 -9 34.6 5.2
6 7 9 36.6 4.9
6 7 9 35.7 5.1
-7 -7 -9 61.89 9.1
-7 7 9 57.59 9.6
7 -7 9 59.19 9.2
-7 7 9 48.9 9.4
7 -7 9 54.69 9.4
-7 7 -9 59.49 9.2
7 7 9 52.69 9.1
7 7 9 62.49 9.1
-7 7 -9 55.49 9.4
7 -7 -9 62.19 9.3
7 7 9 59.29 9
7 -7 -9 59.89 9.2
7 -7 -9 57.39 9.2
8 -7 9 20.2 3.8
8 -7 9 26.9 3.9
-8 7 9 21 3.8
-8 7 9 19.9 3.7
8 7 9 21.5 3.4
8 -7 -9 21.6 3.7
-8 7 -9 27.8 4
8 -7 -9 17.8 3.5
8 7 9 14.3 3.3
0 -8 -9 -0.3 0.9
0 8 -9 0.8 0.6
0 -8 9 0.3 0.8
0 -8 9 0.1 0.7
0 8 -9 0.3 0.6
0 8 9 -0.2 0.6
0 8 -9 -0.4 0.7
0 8 -9 -0.5 0.6
0 -8 -9 -1.2 1
0 -8 9 -0.7 0.7
0 8 9 -0.1 0.6
0 -8 9 -0.2 0.6
-1 8 9 69.19 11.9
1 8 -9 79.39 11.8
1 -8 9 56.19 11.8
-1 8 9 75.89 11.8
-1 8 9 74.99 11.8
-1 8 9 70.99 11.9
-1 -8 -9 74.49 11.9
1 8 -9 89.59 11.8
-1 -8 -9 80.49 11.9
1 -8 9 86.59 11.9
1 8 -9 80.19 11.8
1 8 -9 71.29 11.8
-1 -8 9 81.29 11.8
1 -8 -9 71.39 11.9
-1 -8 9 86.69 11.9
-1 8 -9 76.99 11.8
1 -8 -9 66.29 11.9
1 8 9 72.89 11.8
-1 -8 9 80.49 11.8
1 8 9 83.39 11.8
1 -8 -9 79.29 11.9
-1 -8 9 70.39 11.8
1 -8 -9 84.09 11.9
2 -8 9 12.2 2.8
-2 8 9 13.2 2.8
2 -8 9 18.5 2.9
2 -8 9 11 2.7
-2 8 9 20 3.1
-2 8 9 18.7 2.9
-2 8 9 14.5 2.9
-2 -8 -9 16.5 2.8
2 8 -9 15.6 2.7
-2 -8 -9 16.1 2.8
-2 -8 -9 14.3 2.8
2 8 -9 15.4 2.6
2 8 -9 19.4 2.7
2 -8 9 18.4 3
2 8 9 17.7 2.7
-2 8 -9 19 2.9
-2 8 -9 18.3 2.9
2 8 9 10.6 2.8
2 -8 -9 13.3 2.8
2 8 9 16.4 2.9
-2 -8 9 15.7 2.7
2 8 9 18.2 2.8
-2 -8 9 14.3 2.7
2 -8 -9 14.7 2.9
-2 -8 9 16.2 2.8
-2 8 -9 21.7 3
-2 8 -9 12.7 2.8
2 -8 -9 13.7 2.8
2 -8 -9 12.8 2.8
-2 -8 9 17.3 2.7
-3 -8 -9 2.9 0.8
-3 8 9 1.4 1.2
3 -8 9 -0.7 0.8
3 -8 9 -0.3 0.8
3 8 -9 0.1 0.5
3 8 -9 1.9 0.6
-3 8 9 0 1
-3 8 9 -1.7 0.7
-3 -8 -9 0.2 0.7
-3 -8 -9 1 0.8
3 -8 9 -0.6 0.7
-3 -8 -9 -0.9 0.8
3 -8 9 -0.3 0.9
-3 8 9 -0.8 0.8
-3 -8 9 0.7 0.6
-3 8 -9 1.4 0.9
3 8 9 -0.1 1
3 8 9 0.7 1
-3 -8 9 -0.2 0.5
3 -8 -9 -0.9 0.9
-3 8 -9 -0.9 0.8
3 -8 -9 0.2 0.8
-3 8 -9 -1.2 0.8
-3 8 -9 0.8 1
-3 -8 9 -0.4 0.6
3 8 9 -0.2 0.6
3 8 9 0.4 0.6
-4 8 9 17.9 4.5
4 -8 9 29.1 4.6
4 8 -9 25.4 4.2
-4 -8 -9 26 4.4
4 -8 9 24.8 4.6
-4 -8 -9 29.7 4.5
-4 8 9 27 4.7
-4 8 9 31.1 4.8
-4 -8 -9 42.6 4.6
-4 -8 -9 33.5 4.5
-4 -8 9 27.3 4.4
-4 -8 9 32.5 4.3
4 -8 -9 22.1 4.5
-4 -8 9 28.6 4.3
4 -8 -9 23.7 4.5
4 8 9 22.8 4.3
4 8 9 24 4.5
4 8 9 29.9 4.6
-4 -8 9 25.5 4.3
4 -8 -9 23.1 4.5
4 8 9 29.4 4.5
4 -8 -9 25.1 4.6
-4 8 -9 25.1 4.5
-5 -8 -9 2.7 1.2
-5 -8 -9 4.4 1.2
5 -8 9 2.1 1.3
-5 -8 -9 5.1 1.3
-5 -8 -9 3.5 1.1
-5 8 9 5 1.6
-5 8 9 5.2 1.7
5 -8 9 1.8 1.2
5 -8 -9 3.9 1.4
5 8 9 3.4 1
5 8 9 5.7 1.2
-5 8 -9 5.8 1.4
-5 -8 9 5.5 1
5 -8 -9 3.5 1.4
5 -8 -9 6.1 1.4
-5 -8 9 5.5 1
5 8 9 4.5 1.3
-5 8 -9 5.7 1.5
-6 -8 -9 67.29 10.8
-6 -8 -9 72.29 10.8
6 -8 9 61.59 10.9
-6 -8 -9 68.39 10.7
-6 8 9 55.29 11
6 -8 9 68.49 10.9
-6 8 9 80.99 11
6 8 9 77.29 10.8
6 -8 -9 62.49 10.8
6 -8 -9 63.79 10.9
6 8 9 69.99 10.7
-6 8 -9 67.09 10.9
-6 8 -9 86.49 10.9
-7 8 9 16.4 3
7 -8 9 12.3 2.7
-7 8 9 14.9 2.9
7 -8 9 11.8 2.6
-7 8 -9 15.6 2.9
7 -8 -9 9.9 2.6
7 -8 -9 9.7 2.7
7 8 9 18.4 2.7
-7 8 -9 11.3 2.7
7 8 9 17.9 2.5
7 8 9 13.7 2.5
0 -9 9 -0.2 0.9
0 -9 -9 -0.7 1
0 9 9 -0.1 1.1
0 9 9 0.1 0.7
0 -9 -9 -0.2 1
0 -9 -9 0.3 0.8
0 9 -9 -0.5 0.5
0 9 9 -1.5 1.1
0 -9 9 -1.4 0.7
0 -9 -9 -0.3 0.8
0 9 -9 0.5 0.7
1 9 -9 57.19 9.8
-1 -9 -9 60.39 9.9
-1 9 9 46.3 10
-1 -9 -9 67.79 10
-1 -9 -9 65.69 9.9
-1 9 9 59.79 9.9
-1 9 9 59.79 10
1 -9 9 73.79 10
-1 9 9 59.29 9.9
1 -9 9 71.39 9.9
1 9 -9 71.29 9.9
1 -9 9 64.29 9.9
-1 -9 -9 61.99 9.9
1 9 -9 69.69 9.9
1 9 -9 61.39 9.8
1 -9 9 72.09 10
-1 9 -9 63.09 9.9
1 -9 -9 49.2 9.9
1 -9 -9 70.59 10
1 -9 -9 69.09 10.1
-1 9 -9 68.69 9.9
-1 9 -9 60.99 9.9
1 9 9 58.39 9.8
1 9 9 52.19 9.9
1 -9 -9 67.29 9.9
-1 -9 9 63.39 9.9
-1 -9 9 60.29 9.9
-1 -9 9 73.39 9.9
1 9 9 68.49 10
-1 9 -9 67.59 9.9
1 9 9 62.39 9.9
-1 -9 9 60.59 9.8
2 9 -9 11.9 1.8
2 9 -9 9.7 1.8
-2 9 9 8.8 2
-2 9 9 8.1 1.9
-2 -9 -9 10.4 2.1
2 -9 9 10.5 2
2 -9 9 12.9 2.1
2 9 -9 11.9 1.8
-2 9 9 7.2 2.2
2 9 -9 9.2 1.8
-2 9 9 11.9 2.3
2 -9 9 10.7 2.2
-2 -9 -9 12.2 2.1
-2 -9 9 10 1.9
-2 -9 9 12.8 1.9
-2 -9 9 13.3 1.9
2 -9 -9 6.8 2.1
2 -9 -9 9.1 2.1
-2 9 -9 8.3 1.9
2 9 9 8.8 1.8
-2 9 -9 8.4 2
2 -9 -9 7.5 2
2 -9 -9 6.5 1.9
-2 9 -9 9.2 2
2 9 9 7.5 1.8
-2 -9 9 10.4 2
-2 9 -9 7.9 2
3 -9 9 7.9 1.8
3 9 -9 9.3 1.6
3 9 -9 7.7 1.5
3 -9 9 9.7 1.9
-3 -9 -9 8.8 1.8
-3 9 9 5.1 1.8
-3 -9 -9 7.3 1.8
3 9 -9 9 1.5
3 9 -9 9.2 1.6
-3 9 9 5.8 2.1
-3 -9 9 8.7 1.6
-3 9 -9 6.4 1.8
3 9 9 7.8 1.6
3 -9 -9 8.4 1.8
-3 9 -9 6.3 1.7
3 -9 -9 4.9 1.7
3 9 9 5.7 1.8
-3 -9 9 7 1.7
3 9 9 7.4 1.6
3 -9 -9 5.7 1.8
-3 -9 9 14 1.7
-3 -9 9 10.4 1.7
4 -9 9 18 3.4
-4 9 9 15.4 3.5
-4 -9 -9 20.3 3.3
4 -9 9 19.4 3.4
-4 -9 -9 15.7 3.2
-4 9 9 16.8 3.4
4 9 -9 19.4 3.1
4 9 9 16 3.2
4 9 9 26.7 3.5
-4 9 -9 13.1 3.3
4 -9 -9 16 3.3
-4 9 -9 14.6 3.3
-4 -9 9 24.4 3.2
-4 -9 9 21.5 3.1
4 -9 -9 14.6 3.3
-4 -9 9 25.7 3.2
5 -9 9 -1.6 1
-5 9 9 -0.1 1.2
-5 -9 -9 0.4 0.9
-5 -9 -9 0 0.8
-5 9 9 0.2 1.4
5 -9 9 -0.3 0.9
-5 9 -9 -0.2 1
-5 9 -9 -1.3 0.9
5 9 9 -0.3 0.6
5 9 9 0.5 1
5 -9 -9 0.8 1
5 9 9 -1.3 0.7
5 -9 -9 -0.6 1.1
-6 -9 -9 17 2.6
6 -9 9 16.5 2.9
-6 9 9 16.1 3
-6 9 9 12.2 2.9
6 -9 9 15.3 2.8
-6 -9 -9 14.8 2.6
6 -9 -9 12.9 2.7
-6 9 -9 13.3 2.8
6 9 9 14.1 2.7
-6 9 -9 11.6 2.7
6 9 9 14.5 2.4
6 -9 -9 13.1 2.8
6 9 9 12.6 2.5
-7 9 9 6.1 2
7 -9 9 5.1 1.7
-7 9 9 3.9 1.8
7 -9 -9 6.8 1.8
7 9 9 7.5 1.7
7 9 9 7.4 1.3
7 -9 -9 4.9 1.7
7 9 9 7.4 1.5
0 10 9 18.8 2.8
0 -10 9 17 2.7
0 10 9 10.9 2.7
0 -10 9 14.6 2.8
0 -10 -9 15.5 2.8
0 -10 9 15.6 2.7
0 -10 -9 13.3 2.9
0 10 -9 15.3 2.7
0 10 -9 12.1 2.5
0 10 -9 16.5 2.7
0 -10 9 14.3 2.7
0 -10 -9 12.7 2.7
0 10 -9 14.8 2.6
0 -10 -9 12.8 2.7
1 -10 9 15.8 2.7
-1 -10 -9 13.1 2.6
1 10 -9 15.8 2.5
1 -10 9 18 2.8
1 10 -9 14.5 2.5
1 10 -9 10.7 2.4
-1 -10 -9 15 2.7
-1 10 9 10.9 2.7
-1 -10 -9 11.7 2.5
1 10 -9 14.5 2.4
-1 10 9 10.5 2.6
-1 10 9 15.5 2.6
-1 -10 -9 13.8 2.7
-1 10 9 16.8 2.7
1 -10 9 15.6 2.6
1 -10 9 17.3 2.7
1 10 9 17 2.9
-1 10 -9 12.6 2.5
1 -10 -9 17.9 2.7
-1 -10 9 13.4 2.5
1 10 9 11.5 2.4
1 -10 -9 15.9 2.9
-1 10 -9 10.7 2.5
1 -10 -9 12 2.6
1 10 9 12.5 2.4
-1 -10 9 13.3 2.6
1 -10 -9 13.8 2.8
-1 10 -9 13.1 2.5
-1 -10 9 14.2 2.6
-1 -10 9 16.4 2.6
-1 10 -9 10.7 2.4
1 10 9 14.2 2.7
2 -10 9 58.89 9.8
2 10 -9 59.49 9.7
-2 -10 -9 69.69 9.9
-2 -10 -9 66.29 9.8
2 10 -9 65.09 9.8
-2 -10 -9 57.09 9.8
2 10 -9 69.59 9.8
-2 10 9 58.29 10.1
-2 10 9 63.29 9.9
2 -10 9 67.49 9.9
-2 -10 -9 60.89 9.9
2 10 -9 58.79 9.7
-2 -10 9 62.49 9.8
2 10 9 63.69 9.8
-2 -10 9 70.59 9.8
2 -10 -9 57.89 9.8
-2 -10 9 67.49 9.8
2 10 9 62.09 9.9
-2 -10 9 55.09 9.8
-2 10 -9 56.59 9.8
2 -10 -9 53.59 9.8
-2 10 -9 67.99 9.9
2 10 9 80.19 10
2 10 9 63.39 9.8
-3 -10 -9 74.79 11
-3 10 9 54.09 11.3
3 10 -9 71.89 11
-3 -10 -9 69.89 11.1
-3 -10 -9 63.69 11
-3 -10 -9 62.89 11.1
3 10 -9 76.59 11
-3 10 9 79.99 11.3
3 -10 9 59.29 11.1
3 10 -9 73.99 11
3 -10 9 92.79 11.2
-3 -10 9 77.29 11
3 10 9 70.79 11
3 -10 -9 69.99 11.1
-3 10 -9 53.59 11.1
-3 -10 9 80.59 11.1
3 10 9 74.09 11.1
-3 -10 9 73.39 11
3 -10 -9 60.49 11.1
-3 -10 9 81.69 11
3 10 9 71.09 11
-3 10 -9 67.29 11.1
-4 -10 -9 187.68 27.4
-4 -10 -9 189.18 27.4
-4 -10 -9 164.48 27.4
4 -10 9 151.78 27.4
-4 -10 -9 193.18 27.5
4 -10 9 165.88 27.5
-4 10 9 145.79 27.5
-4 10 9 203.98 27.6
4 10 -9 184.98 27.3
-4 -10 9 194.38 27.3
-4 -10 9 192.48 27.4
4 -10 -9 172.58 27.5
-4 10 -9 180.98 27.5
4 10 9 181.78 27.5
-4 -10 9 189.78 27.4
-4 -10 9 180.98 27.4
-4 10 -9 168.58 27.5
4 10 9 164.28 27.4
4 -10 -9 178.48 27.5
4 10 9 175.48 27.4
-5 -10 -9 18.5 3.4
5 -10 9 22.5 3.7
5 10 -9 19.9 3.2
5 -10 9 17.1 3.5
-5 -10 -9 27.6 3.6
-5 10 9 20.4 3.8
-5 10 9 20.7 3.8
-5 -10 -9 16.1 3.4
5 10 -9 21.6 3.3
5 10 9 16.8 3.3
5 -10 -9 18.3 3.6
-5 10 -9 25.8 3.8
5 10 9 17.6 3.6
5 10 9 19.8 3.4
5 10 9 20.9 3.5
5 -10 -9 20.8 3.7
-6 -10 -9 35.4 6.2
-6 10 9 34.8 6.4
-6 -10 -9 45.6 6.2
-6 10 9 27.9 6.4
6 -10 9 34.3 6.3
6 10 9 46.6 6
6 -10 -9 30.5 6.2
6 10 9 41 6.2
6 -10 -9 41.5 6.5
6 10 9 37.7 6.2
-6 10 -9 37.8 6.4
6 10 9 34.1 6.3
-7 10 9 6.8 2.1
7 -10 9 7.9 2
-7 10 -9 7.1 1.8
7 10 9 7.9 1.7
7 10 9 6.5 1.3
-7 10 -9 4.9 1.7
7 10 9 7.5 1.9
7 -10 -9 5.9 1.9
7 -10 -9 4.6 1.7
0 11 9 -0.9 0.7
0 -11 9 0.1 0.9
0 -11 9 0.2 0.8
0 11 -9 -0.6 0.7
0 11 9 -2 1.1
0 11 -9 0.2 0.7
0 11 9 -0.2 1
0 -11 -9 -1.7 0.7
0 -11 9 0.1 0.8
0 -11 9 -0.5 1
0 11 -9 -0.6 0.6
0 -11 -9 1.4 1
0 11 -9 1.7 1.1
-1 11 9 1.9 1.1
-1 11 9 1 1.2
1 11 -9 0.2 0.7
1 11 -9 0.7 0.8
-1 -11 -9 1.7 1.1
-1 -11 -9 -0.7 0.9
-1 -11 -9 0.3 0.9
1 -11 9 -1.3 1.1
1 -11 9 -0.1 0.8
1 11 -9 1.6 0.9
1 -11 9 0.4 0.8
-1 -11 -9 0.7 1.2
1 11 9 0 0.7
-1 -11 9 0.7 1
-1 -11 9 3.5 1
1 11 9 0.9 1.1
1 11 9 0 0.6
-1 11 -9 0.2 1
-1 -11 9 3.3 1.1
-1 11 -9 1.4 0.9
1 -11 -9 -0.5 0.9
1 11 9 0.2 1.1
-1 11 -9 1 1
-1 11 -9 0.4 0.7
2 -11 9 25.7 5.6
-2 -11 -9 27.4 5.6
2 11 -9 38 5.4
-2 -11 -9 31.6 5.7
-2 11 9 29.6 5.8
2 11 -9 37.2 5.6
2 -11 9 31.3 5.6
-2 -11 -9 53.59 6
2 11 -9 38.1 5.7
-2 -11 -9 28.7 5.6
2 11 -9 40.6 5.5
-2 11 9 31.2 5.8
-2 -11 9 33.9 5.6
-2 -11 9 43.2 5.7
2 11 9 36.7 5.6
2 11 9 29.2 5.5
-2 11 -9 32.5 5.7
-2 -11 9 31.3 5.6
2 -11 -9 33.5 5.8
2 -11 -9 29.8 5.7
-2 -11 9 30 5.5
2 11 9 50.79 6
2 11 9 40.6 5.9
-3 -11 -9 0.8 1.1
3 -11 9 1.1 1.1
3 11 -9 0.5 0.7
3 -11 9 0.7 1
3 11 -9 2.2 1.3
-3 11 9 0.2 1.5
-3 11 9 0.9 1.2
3 11 -9 1.2 0.7
-3 -11 -9 0.6 1
-3 -11 -9 1.1 0.8
-3 -11 -9 0.4 1
3 -11 -9 0.5 1
3 11 9 2.2 1.4
-3 -11 9 0.4 1
-3 -11 9 1.7 0.9
3 11 9 0.3 0.6
3 11 9 0.1 0.7
-3 11 -9 2.9 1.1
3 -11 -9 1.2 1.1
3 11 9 -0.3 1.1
-3 -11 9 2 0.9
-3 -11 9 1.1 0.8
-3 11 -9 -0.2 1.1
4 11 -9 112.59 16.5
4 11 -9 112.09 16.5
-4 11 9 114.69 16.8
-4 11 9 102.39 16.7
-4 -11 -9 101.99 16.6
-4 -11 -9 132.19 16.6
4 -11 9 96.79 16.7
4 -11 9 94.59 16.6
-4 -11 -9 97.39 16.6
-4 -11 -9 130.29 16.7
-4 11 -9 123.69 16.7
-4 -11 9 101.79 16.5
-4 -11 9 100.19 16.5
4 -11 -9 117.29 16.7
4 11 9 108.89 16.6
-4 11 -9 135.29 16.8
-4 -11 9 97.99 16.5
4 -11 -9 78.99 16.6
4 11 9 98.09 16.6
4 11 9 101.29 16.6
-4 -11 9 121.09 16.5
5 11 -9 6.5 1.1
-5 -11 -9 5.4 1.4
-5 -11 -9 5.9 1.5
-5 11 9 3.2 1.7
5 11 -9 4.3 1.1
-5 -11 -9 4.5 1.2
-5 -11 -9 3.3 1.3
5 -11 9 6.3 1.6
5 11 9 4.7 1.1
5 -11 -9 4.3 1.5
-5 11 -9 5.3 1.7
5 11 9 3.8 1.2
5 -11 -9 4.3 1.6
5 11 9 7.7 1.7
-5 11 -9 4.5 1.5
-6 11 9 11.7 2.5
-6 -11 -9 9.4 2
6 -11 9 9.1 2.2
6 -11 9 10.4 2.3
-6 11 -9 7.4 2.2
6 11 9 7.7 2.1
6 -11 -9 7 2
6 -11 -9 10.2 2.2
6 11 9 8.5 2
6 11 9 11.6 1.8
6 11 9 8.2 1.9
-6 11 -9 8.9 2.1
0 -12 -9 87.19 14.3
0 -12 9 83.79 14.2
0 -12 9 92.09 14.3
0 12 -9 81.69 14.2
0 12 -9 86.49 14.2
0 -12 9 83.39 14.3
0 12 -9 94.69 14.3
0 -12 -9 109.39 14.3
0 12 9 98.39 14.4
0 12 -9 105.39 14.3
0 12 9 102.49 14.4
1 12 -9 0.1 0.6
1 -12 9 0.2 0.8
-1 12 9 1 1.2
-1 12 9 -1.2 1.1
-1 -12 -9 -1.5 0.9
1 12 -9 0.8 0.8
1 12 -9 -0.9 0.9
1 -12 9 -1 0.8
1 12 -9 0.2 0.8
-1 -12 -9 -1.4 0.9
-1 -12 9 -1.5 0.8
-1 -12 9 0.4 0.9
1 12 9 0.3 1
-1 -12 9 -0.3 1
1 -12 -9 -1.3 0.8
-1 12 -9 1 0.9
-1 -12 9 -1.1 0.7
1 -12 -9 -0.4 0.9
-1 12 -9 1.5 1.2
1 12 9 -4.1 1
1 12 9 -0.5 0.5
-2 12 9 9.1 2.9
2 -12 9 14.3 2.9
-2 -12 -9 23.1 3.2
-2 -12 -9 11.7 2.7
-2 12 9 13.2 3
2 -12 9 12.1 2.8
2 12 -9 27.2 3.1
2 12 -9 20.4 2.8
2 12 -9 18 2.9
2 12 9 13.2 2.9
2 -12 -9 16 3
2 12 9 18.9 2.9
-2 -12 9 18.9 3
2 12 9 10.3 2.7
2 -12 -9 13.3 2.9
-2 12 -9 19.9 3
-2 -12 9 13.8 2.9
2 12 9 14.5 3
3 -12 9 -0.4 0.9
3 12 -9 0.8 0.8
3 12 -9 1 0.9
-3 12 9 1.8 1.3
3 12 -9 1.3 0.7
3 12 -9 0.5 0.7
-3 12 9 0.4 1.4
-3 -12 -9 -0.6 1.1
3 -12 9 0.4 1
3 12 9 0.1 1.3
-3 -12 9 -0.2 0.8
-3 12 -9 1.6 1
3 -12 -9 1.4 1.1
-3 12 -9 1.4 1.2
-3 -12 9 -0.4 0.8
-3 -12 9 0.7 1
3 12 9 0.2 0.7
3 12 9 -0.1 0.6
-3 -12 9 -0.1 0.9
3 12 9 -0.1 1
3 -12 -9 -0.5 0.9
-4 12 9 11.9 2.7
4 12 -9 12.3 2.2
4 12 -9 12.1 1.9
4 -12 9 9 2.3
-4 -12 -9 10.8 2.3
4 12 -9 11.6 2.1
-4 12 9 10.3 2.5
-4 -12 -9 16.7 2.5
4 -12 9 13.7 2.5
4 12 -9 9.5 1.9
-4 -12 -9 11.3 2.2
4 12 9 12.2 2.5
-4 -12 9 13.3 2.2
4 12 9 9.9 2.1
4 12 9 9.5 2.2
-4 12 -9 7.9 2.2
4 12 9 9.5 2.1
-4 -12 9 12.3 2.2
-4 12 -9 10.2 2.4
4 -12 -9 12.3 2.5
-5 -12 -9 2.4 1.1
5 12 -9 2.1 0.8
-5 -12 -9 3.3 1.1
5 12 -9 3.4 1.1
-5 -12 -9 0.1 1
-5 12 9 0.3 1.6
5 -12 -9 2.4 1.3
5 -12 -9 4.9 2.6
5 12 9 4.1 1.6
5 12 9 1.2 1
-6 12 9 0.8 1.4
6 -12 9 -0.2 1
-6 12 9 0 1.3
6 -12 9 1.8 1.3
6 12 9 -0.4 0.7
6 12 9 -1 0.8
6 -12 -9 -1.7 1.1
6 12 9 1 1.2
-6 12 -9 1.4 1.4
-6 12 -9 0.8 1.2
6 12 9 -2.2 1.3
0 -13 -9 2.6 1.1
0 -13 9 -0.5 0.9
0 13 -9 -0.2 0.7
0 13 9 0.9 1.4
0 13 -9 -0.8 0.7
0 -13 9 -0.1 0.9
0 13 9 0.3 1.2
0 -13 -9 0.5 1
0 13 -9 0.3 1.1
1 13 -9 36.4 6.3
1 13 -9 35.6 6.3
-1 -13 -9 39.2 6.4
1 13 -9 45.2 6.5
1 -13 9 42.2 6.4
-1 -13 -9 28.2 6.3
1 -13 9 48.4 6.6
1 13 -9 43.4 6.5
-1 13 9 28.5 6.5
-1 13 -9 57.19 6.7
-1 -13 9 36.6 6.3
1 13 9 34.5 6.5
-1 13 -9 52.39 6.7
1 -13 -9 53.99 6.7
1 13 9 39.2 6.6
-1 -13 9 32 6.3
-2 -13 -9 10.1 2
2 -13 9 8.4 2.1
2 -13 9 6.6 1.9
2 13 -9 14 2.2
-2 13 9 5.7 2.3
-2 -13 -9 9 2.1
-2 13 9 4.8 2
2 13 -9 12.6 2
-2 -13 9 12 2.2
-2 13 -9 10.4 2.3
2 -13 -9 6.7 2
2 -13 -9 9.9 2.1
2 13 9 9.3 2.3
2 13 9 9.2 2.2
-2 -13 9 15.9 2.3
-2 13 -9 8.7 2.1
-2 -13 9 10.7 2.2
-2 -13 9 7.7 1.9
2 13 9 7.4 2.1
3 -13 9 71.89 10.3
-3 -13 -9 66.39 10.1
3 13 -9 64.59 10.1
-3 13 9 64.69 10.5
3 13 -9 73.39 10.1
3 13 -9 58.09 10
-3 -13 -9 73.09 10.2
3 -13 9 63.99 10.2
-3 13 9 60.09 10.5
-3 13 -9 59.89 10.2
-3 -13 9 70.19 10.2
3 -13 -9 43.6 10.2
3 -13 -9 60.89 10.4
-3 13 -9 70.19 10.3
3 13 9 69.79 10.3
3 13 9 68.79 10.2
3 13 9 63.39 10.1
-3 -13 9 62.69 10.2
4 13 -9 0.6 0.8
-4 -13 -9 0.3 0.8
-4 -13 -9 0.1 1
4 13 -9 1.2 0.7
4 13 -9 1.4 0.9
4 13 -9 -0.3 0.6
4 13 9 -1.3 1.1
4 13 9 0.7 0.7
-5 13 9 4.3 1.7
-5 13 9 4 2
-5 -13 -9 5.3 1.4
5 -13 9 5.1 1.6
5 13 -9 9 1.5
5 13 -9 8 1.4
5 -13 9 5.5 1.6
-5 -13 -9 5.4 1.5
-5 -13 -9 4.2 1.5
5 -13 -9 8 1.9
5 -13 -9 2.7 1.5
5 13 9 8.1 2.1
-5 13 -9 6.3 1.8
-5 13 -9 5.5 1.7
5 13 9 4.7 1.4
5 13 9 4.2 1.3
5 13 9 4.9 1.7
6 -13 9 -1.7 1
6 -13 -9 0.7 1.1
0 -14 9 18.4 2.9
0 -14 -9 13 2.7
0 -14 9 17.1 2.9
0 -14 -9 12.4 2.8
0 14 -9 20.2 3.1
0 14 -9 11 2.6
0 14 9 12.3 2.8
0 14 9 16.5 3.2
-1 14 9 29.6 5.5
1 14 -9 40 5.6
-1 -14 -9 26.2 5.4
-1 -14 -9 31.7 5.4
1 -14 9 40.9 5.6
1 -14 9 27.2 5.4
1 14 -9 29.5 5.3
1 -14 -9 30.6 5.4
-1 14 -9 29.6 5.4
-1 -14 9 38.9 5.6
-1 14 -9 36.7 5.6
1 14 9 31.5 5.7
-1 -14 9 52.09 5.8
1 14 9 23 5.4
-2 14 9 -1.3 1.3
-2 14 9 -2 1.1
2 14 -9 -0.2 0.7
2 14 -9 -0.6 0.8
2 14 -9 1.4 0.8
-2 -14 -9 0.2 1
2 -14 9 1.5 1.2
2 -14 9 1.3 1.1
-2 -14 -9 -1.1 1
2 14 9 -0.5 1.2
-2 14 -9 0.8 1.2
-2 -14 9 0.2 0.9
2 -14 -9 0.5 0.9
2 14 9 0.6 1.3
-2 14 -9 -1.2 0.9
2 -14 -9 -0.6 1.1
-2 -14 9 2.4 1.4
-2 -14 9 0.1 0.8
3 14 -9 0.7 0.8
3 14 -9 -0.3 0.8
-3 -14 -9 1.7 1.1
3 14 -9 0.3 0.8
3 14 -9 1.9 1.1
-3 -14 -9 1.1 1.1
-3 -14 9 2 1.2
3 14 9 1.3 1.3
3 14 9 1 1.3
-3 -14 9 1.3 0.9
-3 -14 9 0.9 1
-3 -14 9 1.5 1.1
-4 -14 -9 1.6 1.1
4 -14 9 0.2 1.1
4 14 -9 -0.1 0.8
4 14 -9 0.3 0.7
-4 -14 -9 -0.4 1
-4 14 9 0.1 1.4
-4 14 9 -0.2 1.4
4 -14 9 -1 1
4 14 9 0.1 0.8
4 -14 -9 -0.2 1.3
4 14 9 -2.6 1
-4 14 -9 -0.7 0.9
4 -14 -9 0.9 1.2
4 14 9 -0.6 1.3
-4 14 -9 2.2 1.5
5 14 -9 1 0.9
-5 -14 -9 2.4 1.1
5 -14 9 0.3 1.1
5 -14 9 0.4 1.1
5 14 -9 0.3 0.8
-5 14 9 0.9 1.4
-5 14 9 4.8 1.9
5 14 9 0.7 0.8
-5 14 -9 2.1 1.3
5 14 9 2.9 1.4
5 14 9 1 1.4
-5 14 -9 2.8 1.6
5 -14 -9 0.9 1.3
0 15 -9 -0.1 1.2
0 15 9 1.9 1.5
0 15 9 -0.3 1.4
0 -15 9 -1.3 0.9
0 -15 9 -0.8 1
0 15 -9 -0.9 0.8
0 -15 -9 -0.2 1
1 15 -9 1.4 1.2
1 -15 9 0 1
-1 -15 -9 -0.8 1
-1 15 9 2.1 1.6
-1 -15 -9 -0.6 1
1 15 -9 -0.9 0.7
1 -15 9 0.9 1.1
-1 15 9 2.6 1.5
1 15 9 0.6 1.4
-1 15 -9 -0.9 1.1
-1 -15 9 0.3 1.1
1 -15 -9 0.6 1.2
1 15 9 0.8 1.6
-1 -15 9 0 1
1 -15 -9 -1 1
-1 15 -9 0 1
2 15 -9 3.4 1.2
2 -15 9 6.5 1.9
2 15 -9 5.5 1.5
2 15 -9 6.6 1.7
-2 -15 -9 3.8 1.5
-2 -15 -9 3.5 1.5
2 15 9 4.1 1.8
2 15 9 5.9 1.8
-2 15 -9 3.9 1.6
-2 -15 9 6.9 1.6
-2 -15 9 5.8 1.5
3 15 -9 34.5 5
-3 15 9 24.9 5.2
3 -15 9 34 5.3
3 15 -9 42.2 5.3
3 -15 9 29.2 5
3 15 -9 25.9 4.8
-3 -15 -9 30.5 5
-3 15 9 21.2 5
-3 -15 -9 37.5 5.2
-3 -15 9 29.9 4.9
3 15 9 26.6 5.1
3 15 9 34.2 5.3
3 -15 -9 36.7 5.4
3 -15 -9 28.4 5.1
-3 15 -9 26.1 5.1
-3 15 -9 24.3 4.9
-3 -15 9 22.2 5
4 -15 9 1.7 1.3
-4 15 9 2.4 1.8
-4 -15 -9 3.5 1.3
4 15 -9 1.2 0.9
4 -15 9 0.7 1.3
4 15 -9 2.4 1.2
4 15 -9 4.5 1
4 15 -9 1.8 1
-4 -15 -9 2.1 1.2
-4 15 9 1.1 1.4
4 15 9 1.1 1.5
-4 15 -9 1.3 1.5
4 -15 -9 0.3 1.3
-4 15 -9 0.9 1.3
4 15 9 3.3 1.6
4 15 9 2.6 1
4 -15 -9 3.5 1.5
0 16 -9 18 2.7
0 16 -9 10.6 2.6
0 16 9 8.2 2.5
0 -16 9 14.4 2.7
0 -16 9 11.3 2.6
-1 16 9 -1.2 1.2
1 16 -9 -0.5 1.2
-1 -16 -9 3.1 1.3
-1 -16 -9 -0.8 1.1
1 -16 9 -0.1 1.1
-1 16 9 0.1 1.6
1 16 9 0.7 1.5
-1 16 -9 0.3 1.4
-1 16 -9 0.1 1
1 -16 -9 1.5 1.4
-1 -16 9 -2.3 0.9
-1 -16 9 -1.1 0.9
1 16 9 0.3 1.3
1 -16 -9 0.5 1.1
-2 -16 -9 1.6 1.2
2 16 -9 1.2 0.9
-2 16 9 -1.5 1.5
2 -16 9 -0.5 1.1
2 16 -9 -0.8 1.1
-2 -16 -9 0.5 1.1
2 -16 9 0.3 1.2
2 16 -9 1.7 1.1
-2 16 -9 5.9 1.7
-2 -16 9 0.2 1
2 -16 -9 0.5 1.3
2 16 9 1.1 1.3
-2 16 -9 4.4 1.3
2 16 9 6.5 2.1
2 -16 -9 0.2 1.2
-2 -16 9 1.4 1.2
-3 -16 -9 1.9 1.2
3 16 -9 3.5 1.2
3 16 -9 2.2 1.4
3 -16 9 4.3 1.5
-3 16 9 1.5 1.9
-3 -16 -9 0.6 1.2
3 -16 9 2.2 1.4
-3 16 9 2.6 1.6
3 16 9 3.6 1.6
-3 16 -9 2.3 1.6
3 -16 -9 0.8 1.3
3 -16 -9 3.8 1.4
-3 16 -9 2.8 1.4
3 16 9 2.1 1.6
0 -17 -9 0.2 1.1
0 17 9 0.2 1.3
0 17 -9 -0.7 1.3
0 -17 9 -1.8 1.1
0 -17 -9 -0.4 1.2
0 17 -9 0 1
0 17 9 -0.9 1.5
1 -17 9 2.7 1.6
1 17 -9 8.5 2
-1 17 9 4.5 1.7
1 -17 9 4.5 1.6
-1 17 9 1.7 1.8
1 17 -9 2.5 1.2
-1 -17 -9 4 1.5
-1 17 -9 6.9 1.9
-1 -17 9 6.4 1.7
-1 -17 9 4.6 1.5
1 -17 -9 4.4 1.6
1 -17 -9 5 1.7
2 17 -9 4.2 1.7
2 -17 9 3.5 1.5
-2 17 9 0.7 1.8
2 17 -9 3.1 1.2
-2 17 9 1.8 1.6
2 -17 9 5.7 1.9
-2 -17 -9 7.2 1.7
2 -17 -9 2.3 1.5
-2 17 -9 5 1.8
2 17 9 4.1 1.7
-2 -17 9 4.4 1.4
2 -17 -9 4.8 1.7
-2 -17 9 7.3 1.7
-2 17 -9 8.3 1.8
0 0 -10 191.68 27.9
0 0 -10 184.48 27.9
0 0 -10 166.78 27.9
0 0 10 174.88 27.9
0 0 10 171.28 27.9
0 0 -10 212.28 27.9
0 0 10 181.18 27.9
-1 0 10 35.5 5.9
-1 0 10 34.8 5.9
-1 0 -10 40 5.9
-1 0 10 41.3 5.9
1 0 10 35 5.9
-1 0 -10 41.6 5.9
-1 0 -10 30.9 5.9
1 0 10 34.5 5.9
1 0 10 45 5.9
1 0 10 41.1 5.9
-1 0 10 38.5 5.9
-2 0 -10 125.09 16.7
2 0 10 84.89 16.6
-2 0 -10 120.79 16.7
2 0 -10 110.79 16.7
-2 0 -10 96.69 16.7
-2 0 10 118.19 16.7
-2 0 10 127.59 16.7
2 0 10 106.59 16.7
2 0 10 88.39 16.7
2 0 10 120.79 16.7
2 0 -10 116.79 16.7
-2 0 -10 99.89 16.7
3 0 -10 166.68 25.7
3 0 10 171.08 25.7
-3 0 -10 163.88 25.7
3 0 10 146.39 25.7
-3 0 -10 167.78 25.7
-3 0 -10 186.58 25.7
3 0 10 194.08 25.7
-3 0 10 184.18 25.7
3 0 10 159.78 25.7
3 0 -10 157.78 25.6
-3 0 10 158.18 25.6
-3 0 -10 154.58 25.7
3 0 -10 182.68 25.7
4 0 -10 5.2 1.3
-4 0 10 7.4 1.3
4 0 10 5.3 1.3
-4 0 -10 5.8 1.3
4 0 10 6.4 1.4
-4 0 -10 6.2 1.4
-4 0 -10 9 1.5
4 0 -10 5.6 1.1
-4 0 10 7.8 1.3
4 0 10 4.3 1.2
-4 0 -10 4.3 1.3
4 0 10 6.9 1.4
4 0 -10 6.3 1.2
-4 0 10 7.7 1.5
-5 0 10 191.88 27.4
5 0 10 175.08 27.5
5 0 10 182.48 27.5
5 0 10 158.98 27.5
5 0 -10 204.08 27.5
-5 0 -10 181.88 27.5
5 0 -10 174.98 27.4
-5 0 10 174.38 27.4
-5 0 10 192.98 27.5
5 0 -10 188.28 27.4
-5 0 10 156.88 27.4
5 0 -10 172.18 27.4
-5 0 -10 187.18 27.5
6 0 -10 2.5 1
-6 0 -10 3.3 1.2
6 0 10 3.7 1
-6 0 10 3 1
6 0 10 2.4 1.1
6 0 -10 2.6 0.7
-6 0 -10 3.1 1
6 0 -10 2.7 1
-6 0 -10 4.1 1
-6 0 10 2.6 1.3
6 0 10 4.8 1
-6 0 -10 3.9 1.1
-6 0 10 2.2 1.1
6 0 -10 3.1 0.8
-6 0 10 3.1 1
-7 0 10 23.5 4
-7 0 -10 23.4 4.1
-7 0 -10 20.4 4
7 0 10 25.9 4.2
7 0 -10 22 4
-7 0 -10 23.7 4.1
7 0 10 23.2 4.1
-7 0 -10 25.9 4.1
7 0 -10 27 4
7 0 10 28.3 4.2
-7 0 10 24.7 4.1
8 0 10 0.1 0.8
8 0 10 -0.1 1
8 0 10 0.5 0.9
8 0 -10 -0.2 0.9
-8 0 -10 0.9 0.9
8 0 -10 0.5 0.9
-8 0 -10 0.9 1
0 -1 10 0.2 0.7
0 1 -10 0.5 0.6
0 1 -10 0.1 0.5
0 -1 10 -0.3 0.6
0 -1 -10 -0.6 0.6
0 -1 -10 -0.3 0.5
0 1 10 0.9 0.8
0 1 10 -0.3 0.7
0 1 10 0.1 0.6
0 -1 -10 -0.6 0.6
0 1 -10 0.7 0.7
0 -1 10 -0.6 0.6
0 1 -10 0.2 0.6
0 1 10 1.4 0.7
0 -1 10 0.7 0.7
0 -1 -10 -0.2 0.7
1 -1 10 24.7 5.2
1 1 -10 26.1 5.2
-1 -1 -10 35.9 5.2
-1 -1 -10 44 5.4
-1 1 10 36.2 5.2
-1 1 10 34.4 5.2
1 -1 10 37.7 5.2
1 -1 10 24.7 5.2
-1 1 10 49.5 5.5
1 -1 10 37.1 5.2
-1 -1 -10 35.3 5.2
-1 -1 -10 36.4 5.2
1 1 -10 34.2 5.2
-1 1 10 29.9 5.3
1 1 10 32.8 5.2
1 -1 -10 41.1 5.2
1 1 10 29.1 5.2
-1 -1 10 33.3 5.2
1 -1 -10 34.3 5.3
-1 -1 10 38.1 5.2
-1 1 -10 35.6 5.2
1 -1 -10 27.9 5.2
1 1 10 28.2 5.2
-1 1 -10 37.7 5.2
1 1 10 31.1 5.2
-1 1 -10 22.4 5.2
-2 -1 -10 2.2 0.9
-2 -1 -10 3.7 1
2 -1 10 2.3 0.8
2 1 -10 3.1 0.8
-2 1 10 2.9 1
2 1 -10 4.5 0.8
2 1 -10 3.8 1
-2 1 10 3.2 0.9
2 -1 10 3 0.9
-2 1 10 3.7 1
-2 1 10 5.3 1
2 -1 10 3 1
2 -1 10 4.9 0.9
-2 -1 -10 3.5 1
-2 -1 -10 4.2 1
-2 -1 10 3 0.9
2 -1 -10 3.9 1
-2 1 -10 4.7 1.1
2 1 10 4.4 1
2 -1 -10 3.7 0.9
-2 1 -10 3 1
-2 -1 10 4.5 0.9
-2 1 -10 3.3 1
2 1 10 5 1
-2 1 -10 2.9 1
2 1 10 1.7 0.8
2 -1 -10 2.3 0.9
-3 -1 -10 1.1 0.7
-3 -1 -10 0.6 0.8
-3 1 10 0.9 0.7
3 -1 10 0.9 0.5
3 1 -10 0.6 0.5
-3 -1 -10 0.6 0.7
-3 1 10 0.6 0.9
3 1 -10 0.7 0.4
3 1 -10 0.8 0.6
-3 1 10 0.5 0.7
-3 1 10 1.9 0.8
3 1 -10 1.6 0.6
-3 -1 -10 0 0.7
3 1 10 0.3 0.7
3 1 10 0.5 0.5
3 1 10 -0.2 0.5
-3 1 -10 -0.2 0.7
-3 1 -10 2.2 0.8
-3 -1 10 1.2 0.7
3 -1 -10 0.7 0.7
3 1 10 0.1 0.6
3 -1 -10 1.5 0.7
3 -1 -10 1 0.6
-3 -1 10 0.5 0.6
-3 1 -10 2.2 0.8
-3 1 -10 0.4 0.7
4 1 -10 4.5 1
4 -1 10 3.5 1.1
-4 1 10 4.4 1.1
4 -1 10 4.1 1.1
-4 -1 -10 4.2 1.1
-4 -1 -10 3.2 1
-4 -1 -10 5.7 1.2
-4 1 10 6.1 1.1
4 1 -10 4.3 0.9
-4 -1 -10 6.4 1.2
4 1 -10 2.6 0.9
4 -1 10 3.4 1
-4 1 10 2.5 1
-4 1 10 4.9 1.3
4 1 -10 5.7 1
4 -1 10 4.8 1
-4 1 -10 4.1 1.1
4 1 10 2.9 1.1
-4 1 -10 4.8 1.2
-4 1 -10 2.5 1.1
-4 -1 10 2.9 1.1
-4 1 -10 3.9 1.1
4 1 10 4.1 1
4 -1 -10 2.9 1
-4 -1 10 6 1.2
4 1 10 5.4 1.1
-4 -1 10 4.9 1
4 -1 -10 4.6 1.1
4 1 10 4.7 1
4 -1 -10 4.5 1
-5 1 10 23.6 4.3
-5 -1 -10 31.5 4.5
5 1 -10 26.2 4.2
5 1 -10 27.7 4.3
5 -1 10 18.2 4.3
5 1 -10 26.8 4.2
-5 1 10 27.6 4.4
5 1 -10 25.8 4.3
5 -1 10 36.1 4.6
-5 -1 -10 39 5.3
5 -1 10 27.9 4.5
-5 -1 -10 34.6 4.6
-5 1 10 23.1 4.4
-5 1 10 24.5 4.4
-5 1 -10 24.7 4.5
5 1 10 25.2 4.4
5 1 10 29.9 4.4
5 1 10 30.8 4.4
-5 -1 10 27.2 4.4
-5 1 -10 24.4 4.4
-5 1 -10 26 4.5
-5 -1 10 34.3 4.5
5 -1 -10 24.9 4.3
5 -1 -10 31.7 4.5
5 -1 -10 28.5 4.4
-6 1 10 71.19 8.9
-6 -1 -10 63.59 8.9
-6 -1 -10 55.59 8.8
-6 1 10 53.19 8.8
6 -1 10 52.39 8.8
-6 1 10 59.99 8.8
6 -1 10 56.69 8.8
-6 -1 -10 52.59 8.8
6 -1 10 55.89 8.8
6 1 -10 61.69 8.8
-6 1 10 52.59 8.9
-6 -1 -10 56.69 8.8
6 -1 10 54.89 8.8
-6 -1 10 56.49 8.8
-6 1 -10 57.49 8.9
-6 1 -10 55.69 8.9
6 1 10 55.89 8.8
-6 -1 10 57.89 8.8
6 1 10 53.29 8.8
-6 1 -10 60.69 8.9
6 1 10 63.19 8.8
6 -1 -10 49.4 8.8
-6 1 -10 54.99 8.8
-6 -1 10 56.19 8.8
6 -1 -10 50.99 8.7
-7 -1 -10 8.5 1.5
-7 -1 -10 5.4 1.4
-7 -1 -10 5.9 1.5
-7 1 10 7.3 1.4
7 -1 10 10.6 1.7
7 1 -10 4.6 1.3
7 -1 10 5.7 1.5
-7 1 10 7.3 1.7
7 -1 10 4.7 1.4
-7 1 10 6.3 1.5
-7 1 10 5.5 1.6
-7 -1 -10 8.7 1.5
7 -1 -10 6.1 1.5
7 1 10 5.3 1.4
7 1 10 6.5 1.4
7 1 10 2.2 1.7
7 -1 -10 4.6 1.2
7 -1 -10 4.7 1.4
-7 1 -10 6.7 1.5
-7 1 -10 6.3 1.5
7 1 10 6.4 1.5
-7 1 -10 6.1 1.5
7 -1 -10 5 1.3
-8 -1 -10 4.3 1.4
-8 -1 -10 6.1 1.5
-8 -1 -10 7 1.6
8 -1 10 7.5 1.6
8 1 -10 6.1 1.4
8 -1 10 6.9 1.6
8 -1 10 6.9 1.6
8 1 -10 5.6 1.6
8 1 10 6.5 1.5
8 -1 -10 5 1.5
8 1 10 5.1 1.4
-8 1 -10 6.7 1.6
8 1 10 8 1.6
-8 1 -10 3.9 1.4
8 -1 -10 6.4 1.2
8 -1 -10 5.7 1.6
8 1 10 6.7 1.5
0 -2 10 4.3 1.4
0 -2 -10 7.4 1.5
0 2 -10 12.1 1.6
0 2 -10 7.5 1.5
0 2 10 5.6 1.5
0 2 -10 10.7 1.6
0 2 10 8.4 1.6
0 -2 10 10.8 1.6
0 -2 -10 7.9 1.6
0 -2 -10 5.7 1.5
0 -2 10 7 1.5
0 -2 -10 7.8 1.6
0 2 10 11.1 1.7
0 -2 10 7.3 1.5
0 2 10 11.4 1.7
-1 2 10 87.29 13.7
1 -2 10 83.09 13.6
-1 -2 -10 82.39 13.6
1 2 -10 95.09 13.6
-1 2 10 116.99 13.7
-1 2 10 95.69 13.7
-1 2 10 98.69 13.7
1 -2 10 106.49 13.7
1 -2 10 90.39 13.6
1 -2 10 84.29 13.6
-1 -2 -10 83.99 13.7
1 2 -10 81.89 13.6
-1 -2 -10 71.19 13.6
-1 -2 -10 84.79 13.6
1 2 10 99.69 13.7
-1 2 -10 75.79 13.6
1 2 10 97.79 13.7
-1 2 -10 104.99 13.7
1 2 10 75.09 13.6
-1 2 -10 82.59 13.6
1 -2 -10 95.09 13.6
1 -2 -10 90.19 13.6
-1 -2 10 101.19 13.6
1 -2 -10 86.79 13.6
-1 2 -10 96.69 13.6
-1 -2 10 77.29 13.6
1 -2 -10 90.99 13.6
1 2 10 70.79 13.6
2 2 -10 82.39 12.4
-2 -2 -10 85.49 12.4
-2 2 10 86.29 12.4
-2 2 10 71.09 12.4
-2 2 10 87.89 12.4
2 -2 10 71.59 12.4
-2 -2 -10 75.09 12.4
2 -2 10 74.99 12.4
2 2 -10 88.79 12.4
-2 -2 -10 80.99 12.4
2 -2 10 87.89 12.4
2 2 -10 78.49 12.4
-2 2 10 96.39 12.5
2 2 -10 72.99 12.4
-2 -2 -10 88.99 12.4
2 2 10 82.09 12.4
2 -2 -10 80.19 12.4
-2 2 -10 68.39 12.4
2 2 10 86.09 12.4
-2 -2 10 74.99 12.4
-2 2 -10 71.09 12.4
-2 2 -10 76.99 12.4
2 2 10 96.69 12.4
-2 2 -10 73.49 12.4
2 -2 -10 81.29 12.4
2 -2 -10 74.19 12.4
-2 -2 10 88.99 12.4
2 -2 -10 82.49 12.4
-3 2 10 186.08 30.6
-3 -2 -10 217.08 30.6
3 -2 10 198.88 30.6
-3 2 10 190.68 30.6
3 2 -10 205.38 30.5
-3 2 10 193.28 30.6
3 2 -10 209.18 30.5
3 -2 10 193.78 30.6
3 2 -10 218.78 30.5
-3 -2 -10 207.58 30.6
-3 -2 -10 163.88 30.6
3 2 -10 198.78 30.5
-3 -2 -10 185.38 30.6
3 2 10 191.98 30.6
3 2 10 207.98 30.6
-3 2 -10 202.38 30.6
3 2 10 192.48 30.6
3 -2 -10 213.88 30.6
-3 -2 10 187.98 30.5
3 -2 -10 193.08 30.6
-3 -2 10 204.78 30.5
3 -2 -10 215.18 30.6
3 2 10 189.08 30.6
-3 -2 10 180.58 30.5
-3 2 -10 202.18 30.6
-3 2 -10 225.28 30.6
-3 -2 10 213.98 30.5
3 -2 -10 198.08 30.6
-3 2 -10 223.08 30.6
-4 2 10 -0.7 0.8
-4 -2 -10 -0.3 0.7
4 -2 10 -0.1 0.5
-4 2 10 -0.7 0.7
4 -2 10 0.4 0.5
-4 -2 -10 -1.2 0.6
-4 -2 -10 0.7 0.7
4 2 -10 -0.1 0.5
-4 2 10 -0.2 0.7
-4 -2 -10 0.2 0.7
4 2 -10 -0.6 0.5
4 2 -10 0.4 0.4
4 2 -10 0.1 0.5
-4 2 10 -0.9 1
-4 -2 10 -0.3 0.5
4 2 10 -0.1 0.7
-4 -2 10 -0.4 0.5
4 -2 -10 -0.9 0.7
4 2 10 0.2 0.4
-4 2 -10 1 0.8
4 2 10 0.6 0.7
4 -2 -10 -0.7 0.4
4 -2 -10 -0.4 0.6
-4 2 -10 -0.6 0.8
-4 -2 10 1.1 0.5
4 -2 -10 0 0.6
-4 -2 10 -0.8 0.7
4 2 10 0.7 0.5
-5 2 10 16.2 3
-5 -2 -10 13.3 3
-5 2 10 12.5 3
-5 -2 -10 20.9 3.1
5 2 -10 17.3 2.8
-5 2 10 16.8 3.1
5 -2 10 17 3
-5 -2 -10 21.8 3.1
-5 -2 -10 20.6 3.1
-5 2 10 17.2 3
5 2 -10 20.2 2.9
5 -2 10 18 3.1
5 -2 10 19.5 3
5 -2 10 15.2 3
5 -2 -10 15.9 2.9
-5 -2 10 19.8 2.9
-5 2 -10 25.9 3.3
5 -2 -10 14.2 2.9
5 -2 -10 14.8 2.9
-5 -2 10 19.1 2.9
5 2 10 19.3 3
-5 -2 10 21.4 3
-5 2 -10 15 3
-5 -2 10 16 2.8
-5 2 -10 24.3 3.2
5 -2 -10 14.3 3
5 2 10 15.5 2.9
5 2 10 17.6 3
5 2 10 15.1 2.9
-5 2 -10 17.9 3.1
6 -2 10 18 3
-6 2 10 18.6 3.1
6 2 -10 18.6 2.8
6 -2 10 20.4 3.1
6 -2 10 16.7 3
-6 -2 -10 13.3 2.8
-6 2 10 19.4 3
-6 -2 -10 15.1 2.9
6 2 -10 15.7 2.7
6 -2 10 18.6 3
-6 2 10 17.6 3
-6 2 10 11.9 2.8
6 2 10 22.8 3
-6 2 -10 16.8 2.9
6 -2 -10 16.3 3
-6 2 -10 16.8 3
6 -2 -10 15.1 2.8
6 -2 -10 20.8 3
6 -2 -10 10.4 2.7
-6 -2 10 17.1 2.8
-6 2 -10 15.3 3
-6 2 -10 14.3 2.9
6 2 10 19.1 2.9
6 2 10 22.2 3
-6 -2 10 18.6 2.9
-6 -2 10 16.2 2.8
-7 -2 -10 10.3 1.9
7 -2 10 11.4 2
-7 2 10 10.5 2
7 2 -10 9.2 1.7
7 2 -10 6.7 1.6
7 -2 10 9.8 2
7 -2 10 10.4 1.9
-7 2 10 7 1.8
-7 -2 -10 11.4 1.9
-7 -2 -10 8.1 1.8
-7 2 10 7 1.7
-7 2 10 8.9 2
7 -2 -10 8.4 1.9
7 -2 -10 8.7 1.9
7 -2 -10 8.7 1.8
-7 2 -10 9 1.9
7 2 10 8.2 1.7
7 -2 -10 5.7 1.6
-7 2 -10 11.5 2.1
7 2 10 12.2 1.9
8 -2 10 -0.3 1
8 2 -10 0.7 0.7
8 2 -10 1.4 0.8
-8 -2 -10 0.4 1
8 -2 10 0.4 0.9
-8 -2 -10 0.1 1
8 -2 10 1.5 1
-8 2 -10 -0.7 0.9
8 2 10 -1 0.8
8 -2 -10 0.2 1.1
8 2 10 0.2 0.8
8 2 10 0.2 1
8 -2 -10 0.6 0.8
0 3 10 0.6 0.7
0 3 10 -0.6 0.7
0 -3 -10 -0.4 0.6
0 -3 -10 0 0.7
0 -3 10 0.2 0.7
0 3 10 0.7 0.7
0 3 -10 -0.1 0.6
0 3 -10 -0.6 0.6
0 -3 -10 -0.4 0.6
0 -3 10 -0.2 0.6
0 -3 -10 -0.8 0.7
0 3 -10 0.7 0.7
0 3 10 0.3 0.7
0 -3 10 0.4 0.6
0 -3 10 -0.5 0.6
1 -3 10 42.5 6.2
-1 -3 -10 39 6.2
-1 -3 -10 38 6.2
-1 3 10 42.3 6.2
-1 3 10 43.3 6.2
1 3 -10 40.6 6.1
-1 3 10 31.2 6.2
-1 3 10 38.5 6.2
1 -3 10 38.1 6.2
-1 -3 -10 42.1 6.2
1 -3 10 40.3 6.2
1 -3 10 40.8 6.2
-1 -3 -10 44.3 6.2
1 3 10 38.1 6.2
1 -3 -10 41.8 6.2
1 -3 -10 35 6.2
1 3 10 41 6.2
-1 3 -10 30.6 6.3
-1 -3 10 34.9 6.1
-1 3 -10 37.1 6.2
-1 -3 10 38.2 6.1
1 -3 -10 39.3 6.2
1 3 10 37.7 6.3
-1 -3 10 37 6.1
1 3 10 42.8 6.2
-1 3 -10 37.7 6.2
-1 3 -10 44.5 6.2
1 -3 -10 46.6 6.2
2 3 -10 5.2 0.9
-2 -3 -10 3.9 1.1
2 -3 10 2.3 0.9
-2 3 10 5.1 1.3
2 -3 10 3.9 1
-2 -3 -10 2.5 1
2 3 -10 4.7 1
-2 -3 -10 2 1
-2 3 10 5 1.1
2 -3 10 4.1 1.1
2 3 -10 4.6 0.9
2 -3 10 1.7 0.8
-2 3 10 5.1 1
2 3 -10 4.3 0.9
-2 3 10 3.9 1.1
-2 -3 -10 3.8 1
2 -3 -10 4.5 1
-2 -3 10 3 0.9
-2 3 -10 4.4 1.1
-2 -3 10 4 0.9
-2 3 -10 3.5 1
-2 -3 10 4.1 0.9
2 3 10 2.4 0.8
2 -3 -10 2.4 0.9
-2 3 -10 4.2 1
-2 3 -10 2.9 1
2 -3 -10 3 1.1
2 -3 -10 4.4 1
3 -3 10 97.39 16.5
3 3 -10 115.59 16.4
-3 -3 -10 98.09 16.5
-3 3 10 92.49 16.5
-3 3 10 103.89 16.5
3 -3 10 102.29 16.5
-3 -3 -10 99.59 16.5
-3 -3 -10 100.09 16.5
3 3 -10 111.69 16.4
3 3 -10 105.79 16.4
-3 3 10 106.39 16.5
3 -3 10 115.79 16.5
-3 3 10 97.99 16.5
3 -3 10 101.89 16.5
-3 -3 -10 113.19 16.5
3 3 -10 110.19 16.4
3 -3 -10 101.29 16.4
3 -3 -10 101.19 16.5
-3 3 -10 103.19 16.5
3 3 10 102.09 16.5
3 3 10 114.49 16.5
-3 -3 10 119.89 16.4
-3 -3 10 121.09 16.4
-3 -3 10 116.99 16.4
-3 3 -10 88.99 16.5
3 3 10 96.09 16.5
-3 -3 10 117.69 16.4
-3 3 -10 119.19 16.5
3 3 10 103.39 16.5
-3 3 -10 131.49 16.5
3 -3 -10 107.99 16.5
-4 3 10 5.6 1.3
4 -3 10 7.2 1.3
4 3 -10 5.3 1.1
-4 3 10 5 1.5
-4 -3 -10 5.2 1.3
-4 3 10 4.5 1.4
4 3 -10 4.4 1
-4 -3 -10 5.9 1.3
4 -3 10 6.4 1.4
-4 -3 -10 6.4 1.3
-4 3 10 5.3 1.3
-4 -3 -10 4.2 1.2
4 -3 10 7.2 1.3
4 -3 -10 6.8 1.4
-4 3 -10 3.9 1.3
4 -3 -10 4.6 1.2
-4 -3 10 6.7 1.2
-4 -3 10 3.9 1.1
4 3 10 7.4 1.3
-4 -3 10 5.9 1.1
4 -3 -10 6.3 1.2
-4 3 -10 8.9 1.6
4 3 10 5.9 1.3
4 3 10 7.8 1.3
4 -3 -10 4.1 1.3
-4 -3 10 5.6 1.1
4 3 10 5.5 1.2
-5 3 10 47.5 7.6
-5 3 10 55.39 7.4
-5 3 10 50.99 7.4
5 3 -10 43 7.2
-5 -3 -10 49.7 7.4
-5 -3 -10 51.69 7.4
5 -3 10 49.9 7.4
5 -3 10 47.6 7.4
-5 3 10 45.4 7.4
-5 -3 -10 47.7 7.4
5 3 -10 38.7 7.2
5 -3 10 45.8 7.4
5 -3 10 42.4 7.4
-5 -3 -10 45.8 7.3
-5 -3 10 52.29 7.3
-5 3 -10 35.5 7.4
5 3 10 54.89 7.3
5 -3 -10 48 7.3
-5 -3 10 47.7 7.2
-5 -3 10 50.59 7.2
-5 -3 10 48.5 7.2
5 -3 -10 40.2 7.5
-5 3 -10 48.2 7.4
5 -3 -10 47.1 7.3
5 -3 -10 49.9 7.4
5 3 10 44 7.3
-5 3 -10 44.5 7.4
5 3 10 49.9 7.3
-5 3 -10 39.7 7.4
5 3 10 47 7.3
-6 3 10 7.2 1.7
-6 3 10 9.6 1.7
6 -3 10 5.4 1.5
-6 3 10 6.7 1.4
-6 -3 -10 5.7 1.3
6 3 -10 6.1 1.2
6 3 -10 6.1 1.1
6 -3 10 6.5 1.5
-6 -3 -10 8.1 1.5
6 -3 10 3.9 1.3
-6 3 10 8.4 1.5
6 -3 10 5.5 1.4
-6 -3 10 5.9 1.2
-6 -3 10 4 1.2
-6 3 -10 6.6 1.5
-6 -3 10 6.8 1.2
-6 -3 10 6.4 1.2
-6 3 -10 2.3 1.3
6 -3 -10 4.6 1.4
6 -3 -10 5.8 1.3
-6 3 -10 6.3 1.4
6 3 10 6.2 1.4
6 3 10 4.3 1.2
6 3 10 4.1 1.2
6 -3 -10 4.5 1.3
6 -3 -10 5.8 1.5
-7 3 10 12 2.7
7 -3 10 16.6 2.8
7 -3 10 16.6 3
-7 3 10 18.9 3.2
-7 -3 -10 16.5 2.8
-7 -3 -10 18.4 2.9
-7 -3 -10 14 2.8
-7 3 10 14.6 2.8
-7 -3 -10 15.7 2.8
7 -3 10 18.6 2.9
7 -3 -10 12 2.8
7 3 10 15.3 2.8
-7 3 -10 18.7 2.9
7 3 10 17.6 2.8
7 -3 -10 16 2.7
7 3 10 13.8 2.7
7 -3 -10 14.4 2.7
7 3 10 13.7 2.7
-7 3 -10 16.2 2.9
8 -3 10 1.9 1.1
8 -3 10 1.6 1
8 3 10 0.5 0.8
-8 3 -10 3.2 1.1
8 -3 -10 1.6 1
8 -3 -10 1.7 1.2
8 -3 -10 1.4 1.2
-8 3 -10 0.9 1
8 3 10 1.4 0.9
8 3 10 1.9 1
8 -3 -10 0.8 0.8
0 -4 -10 1126.39 181.48
0 4 -10 1186.88 181.48
0 -4 10 1339.07 181.48
0 -4 -10 1126.39 181.48
0 -4 -10 1159.28 181.48
0 -4 10 1122.79 181.48
0 -4 -10 1148.99 181.48
0 4 10 1298.97 181.48
0 4 10 1247.18 181.48
0 4 10 1137.09 181.48
0 4 10 1237.08 181.48
1 -4 10 53.69 8.3
1 -4 10 48.9 8.3
-1 -4 -10 58.59 8.4
-1 4 10 62.69 8.4
1 4 -10 60.09 8.3
-1 -4 -10 52.69 8.3
-1 4 10 55.29 8.3
-1 -4 -10 53.89 8.3
1 4 -10 47.8 8.3
1 -4 10 50.39 8.4
1 -4 10 59.39 8.4
-1 4 10 47.7 8.4
1 4 -10 57.09 8.3
-1 -4 -10 58.09 8.4
-1 4 10 54.59 8.4
1 -4 -10 68.99 8.4
-1 -4 10 53.19 8.3
-1 4 -10 57.99 8.3
-1 -4 10 50.89 8.3
-1 4 -10 62.99 8.4
-1 -4 10 50.49 8.3
-1 4 -10 50.89 8.3
1 -4 -10 43.2 8.3
1 -4 -10 66.39 8.4
-1 4 -10 46.3 8.3
1 4 10 54.29 8.4
1 -4 -10 42.9 8.3
-1 -4 10 43.3 8.3
1 4 10 62.69 8.4
1 4 10 49 8.3
1 4 10 55.69 8.3
-2 -4 -10 233.38 29.6
2 -4 10 205.18 29.6
-2 -4 -10 188.88 29.6
-2 4 10 178.38 29.6
2 4 -10 200.68 29.6
-2 -4 -10 204.58 29.6
2 4 -10 208.98 29.6
-2 -4 -10 190.78 29.6
-2 4 10 188.38 29.6
-2 4 10 203.98 29.6
2 -4 10 194.28 29.6
2 4 10 169.28 29.6
-2 4 -10 198.68 29.6
-2 -4 10 187.38 29.6
2 4 10 178.28 29.6
2 4 10 186.98 29.6
2 -4 -10 219.68 29.7
-2 -4 10 192.48 29.6
2 -4 -10 154.38 29.6
2 4 10 200.48 29.6
-2 4 -10 201.18 29.6
-2 4 -10 190.08 29.6
3 -4 10 27.3 5.4
-3 4 10 38.6 5.5
-3 -4 -10 34.3 5.3
-3 4 10 36.1 5.6
3 4 -10 33.9 5.2
3 4 -10 35.2 5.2
-3 -4 -10 33.7 5.3
-3 4 10 23.7 5.4
-3 4 10 28.9 5.4
-3 -4 -10 35 5.5
3 4 -10 35 5.2
3 4 -10 32.9 5.2
-3 -4 -10 32.3 5.4
-3 -4 10 32 5.2
-3 -4 10 30.3 5.2
3 -4 -10 40.3 5.5
3 -4 -10 40.4 5.5
-3 4 -10 42.1 5.6
-3 -4 10 34.9 5.2
3 4 10 30.1 5.4
3 4 10 32.2 5.3
3 4 10 37.1 5.3
3 -4 -10 39.7 5.5
-3 4 -10 33.3 5.5
3 4 10 33.9 5.4
-4 -4 -10 14.2 2.1
-4 -4 -10 9.2 1.9
-4 4 10 9.3 2
4 -4 10 9.6 2
4 -4 10 12.2 2
-4 -4 -10 10.7 2
-4 4 10 11.9 2
4 -4 10 10.5 2
-4 4 10 11.2 2.2
4 4 -10 12.8 1.8
4 -4 10 12.2 2.1
4 4 -10 10.8 1.8
-4 -4 -10 10.8 2
-4 4 10 10.9 2.2
-4 4 -10 8.8 1.9
4 4 10 9.7 1.9
-4 -4 10 9.3 1.8
-4 -4 10 10.8 1.8
-4 -4 10 10.1 1.8
4 -4 -10 8.8 1.9
-4 4 -10 10.6 2
4 -4 -10 10.6 2
4 4 10 9.1 1.9
4 -4 -10 9.2 1.9
-4 -4 10 10.7 1.8
4 4 10 10.3 1.9
-4 4 -10 6 1.9
-4 4 -10 8.6 2
5 4 -10 128.29 18
-5 4 10 109.89 18.2
5 -4 10 134.49 18.2
-5 -4 -10 117.69 18.2
5 -4 10 119.89 18.2
-5 -4 -10 131.29 18.2
-5 -4 -10 124.39 18.2
-5 4 10 121.69 18.2
-5 -4 -10 109.89 18.1
5 -4 10 123.69 18.2
5 -4 10 119.09 18.2
5 4 -10 120.19 18
5 4 10 122.09 18.1
5 -4 -10 120.09 18.2
5 4 10 103.39 18.1
-5 4 -10 111.79 18.2
5 4 10 111.09 18.1
5 -4 -10 139.89 18.3
-5 -4 10 107.39 18
-5 -4 10 115.89 18
-5 4 -10 111.29 18.2
-5 -4 10 116.29 18.1
5 -4 -10 107.39 18.1
5 4 10 111.59 18.1
-5 4 -10 117.29 18.2
-5 4 -10 121.89 18.2
-5 -4 10 125.99 18
-6 -4 -10 0.8 1
-6 4 10 0.8 1.3
-6 4 10 0.9 0.9
6 -4 10 1.5 0.9
-6 -4 -10 1.1 0.8
6 -4 10 1 0.8
6 -4 10 -0.3 0.9
-6 4 10 0.4 1
-6 4 10 2 1.2
6 -4 -10 1.1 0.8
6 4 10 0.9 0.7
6 -4 -10 1 1
6 4 10 2 0.9
6 -4 -10 2.9 1
6 -4 -10 1.3 0.9
6 4 10 0.9 0.6
-6 -4 10 0.7 0.6
-6 4 -10 1.5 0.9
-6 4 -10 0.7 0.8
7 -4 10 2.1 1
-7 -4 -10 2.6 1
-7 4 10 1 1.2
-7 -4 -10 1.9 1.1
-7 4 10 1.6 1.3
-7 -4 -10 3.1 1
7 -4 10 3.1 1.2
-7 -4 -10 2.1 1
-7 4 10 1.3 1
-7 4 10 3.3 1.2
-7 4 -10 3.3 1.2
-7 4 -10 3.4 1.1
7 -4 -10 1.2 1
7 -4 -10 2.8 1.2
7 4 10 1.1 1
7 4 10 2.4 0.9
7 4 10 3.5 0.9
7 4 10 4.4 1.1
7 -4 -10 1.8 1.2
8 -4 10 -0.6 0.9
8 -4 10 0.7 1
8 -4 -10 0.7 1.2
8 4 10 -0.2 0.8
-8 4 -10 0 0.9
-8 4 -10 0.5 1
8 4 10 0.5 0.9
8 4 10 -1 1
8 4 10 0.4 0.8
8 -4 -10 -0.7 0.9
8 -4 -10 -1.4 1.1
0 -5 10 0.8 0.7
0 5 -10 -0.4 0.6
0 -5 -10 -1 0.7
0 -5 -10 0 0.9
0 5 -10 -0.1 0.6
0 5 10 -0.6 0.6
0 5 -10 -0.1 0.5
0 -5 -10 0.5 0.7
0 5 10 -0.1 0.7
0 -5 10 -0.4 0.6
0 -5 -10 0.4 0.7
0 5 10 -0.4 0.5
0 -5 10 -0.1 0.6
0 5 10 1.2 0.9
0 5 -10 -0.6 0.5
0 -5 10 -0.2 0.6
1 -5 10 34.6 6.2
1 -5 10 39.5 6.2
-1 5 10 35.8 6.2
-1 -5 -10 38.9 6.3
1 -5 10 43.8 6.2
1 5 -10 37.7 6.1
-1 -5 -10 40 6.2
1 5 -10 41.9 6.2
-1 -5 -10 43.5 6.2
-1 5 10 56.09 6.6
-1 5 10 39.9 6.4
1 5 -10 34.8 6.1
-1 5 10 41.5 6.3
1 5 -10 37.1 6.1
1 -5 10 42.1 6.2
-1 -5 -10 42.7 6.2
-1 5 -10 36.6 6.2
1 5 10 37.5 6.2
-1 -5 10 36.4 6.1
-1 -5 10 45.4 6.3
1 5 10 42.1 6.2
1 -5 -10 44 6.2
1 -5 -10 36.8 6.2
1 -5 -10 35.9 6.3
-1 -5 10 40.3 6.2
-1 5 -10 35.5 6.2
-1 -5 10 34.7 6.2
1 5 10 38 6.2
1 -5 -10 43.3 6.3
-1 5 -10 39.1 6.2
1 5 10 42.3 6.3
-1 5 -10 46.8 6.2
2 -5 10 6.9 1.3
2 5 -10 6.5 1.1
-2 5 10 7.4 1.6
-2 5 10 6.1 1.3
-2 -5 -10 6.3 1.2
-2 5 10 6.4 1.4
2 -5 10 2.1 1.2
-2 -5 -10 4.6 1.2
-2 5 10 6 1.3
-2 -5 -10 3.7 1.2
2 5 -10 6 1.1
2 -5 10 6.7 1.4
2 5 -10 5.9 1.1
2 -5 10 7.1 1.3
-2 -5 -10 6.3 1.3
-2 -5 10 6.4 1.2
-2 5 -10 3.7 1.1
-2 5 -10 3.5 1.2
-2 5 -10 5.8 1.3
2 -5 -10 5.7 1.3
-2 -5 10 4.9 1.1
2 5 10 4.8 1.1
-2 5 -10 3 1.2
2 -5 -10 5 1.2
2 5 10 8.7 1.4
2 5 10 5.8 1.2
2 -5 -10 3.7 1.2
2 5 10 4.9 1.3
-3 5 10 18.7 3.8
3 -5 10 22.1 3.9
-3 -5 -10 24.2 3.9
3 -5 10 16.8 3.8
3 5 -10 25.5 3.7
3 5 -10 21.7 3.6
-3 5 10 22.5 4.1
3 -5 10 23.9 4
-3 -5 -10 21.6 3.9
-3 5 10 22.5 3.9
-3 5 10 31 4.2
3 5 -10 23.1 3.7
3 -5 10 33.2 4.1
3 5 -10 23.6 3.8
-3 -5 -10 24 3.9
-3 -5 -10 26.7 3.9
3 -5 -10 26.9 3.9
3 5 10 22.6 3.8
3 -5 -10 20.4 3.9
-3 -5 10 24.5 3.7
-3 5 -10 26 4
3 5 10 24.3 3.9
3 5 10 26.4 3.9
3 -5 -10 20.7 3.9
-3 -5 10 25.3 3.7
3 -5 -10 22.9 4
-3 5 -10 17.4 3.8
-3 5 -10 20.3 4
-3 -5 10 23.7 3.7
-3 5 -10 23.5 3.9
3 5 10 20.7 3.8
-3 -5 10 25.7 3.7
-4 5 10 23.3 3.9
4 5 -10 23.7 3.6
-4 -5 -10 22.7 3.8
-4 -5 -10 22.4 3.8
4 -5 10 18.8 3.8
4 5 -10 25.8 3.6
4 -5 10 17.2 3.8
-4 -5 -10 23.2 3.8
-4 -5 -10 21.8 3.8
-4 5 10 20.5 3.8
-4 -5 10 22.9 3.6
4 -5 -10 24.5 3.9
-4 -5 10 24.9 3.6
4 5 10 28.9 3.8
-4 5 -10 19 3.8
4 -5 -10 18 3.7
-4 5 -10 21.3 3.8
4 5 10 29.9 3.9
-4 -5 10 22.6 3.6
-4 5 -10 23 3.9
-4 5 -10 24.5 3.9
4 5 10 18.8 3.7
4 5 10 20 3.8
-5 -5 -10 8.1 1.6
5 -5 10 7.5 1.6
-5 5 10 6.6 1.6
-5 5 10 8.2 1.7
-5 -5 -10 6.2 1.5
-5 5 10 7.2 1.8
5 -5 10 6.1 1.6
5 -5 10 6 1.6
5 5 -10 7 1.3
-5 5 10 10.8 1.9
-5 -5 -10 8.9 1.7
-5 -5 -10 7 1.5
5 -5 10 9.8 1.9
5 5 10 8.1 1.6
-5 5 -10 7 1.8
5 5 10 8.3 1.5
-5 5 -10 4.9 1.6
-5 -5 10 7.6 1.3
5 -5 -10 7.7 1.6
-5 5 -10 9.6 1.8
5 5 10 9 1.6
5 -5 -10 7.4 1.7
5 -5 -10 6.2 1.5
5 5 10 6.3 1.4
-5 -5 10 6.2 1.3
-6 5 10 65.19 10.2
-6 5 10 57.19 10.1
-6 5 10 68.89 10.3
6 -5 10 55.29 10.1
6 -5 10 71.89 10.2
-6 -5 -10 69.29 10.1
-6 -5 -10 76.29 10.2
6 -5 -10 57.79 10.1
6 -5 -10 68.89 10.2
6 -5 -10 71.19 10.2
-6 5 -10 56.49 10.2
6 5 10 68.19 10.1
-6 5 -10 71.19 10.2
6 5 10 61.49 10.1
6 -5 -10 63.39 10.2
6 5 10 64.49 10.1
-7 -5 -10 1 1
-7 5 10 1.7 1.2
-7 -5 -10 -0.3 0.8
-7 -5 -10 -1.9 0.8
-7 5 10 0.5 1.2
-7 5 10 1.2 0.9
-7 -5 -10 1.6 1
7 -5 10 0.2 1
7 -5 10 -0.1 1
-7 5 -10 1.8 1
7 5 10 1.5 1
7 5 10 0.9 0.7
7 -5 -10 1.3 1
7 5 10 0.7 0.7
7 5 10 0.8 1
7 -5 -10 -0.1 1.1
7 -5 -10 0 0.8
7 -5 -10 -0.1 1.1
-8 5 10 0.1 1.3
8 -5 10 3.3 1.5
8 -5 10 1.4 1.1
-8 5 -10 1 1.1
-8 5 -10 1 1.1
8 -5 -10 0.4 0.9
8 5 10 0.1 0.7
8 5 10 1.8 1.1
8 -5 -10 -0.5 1
8 5 10 0.7 0.9
8 5 10 1.5 1.1
8 -5 -10 4.5 1.5
0 6 -10 92.49 14.8
0 -6 -10 91.19 14.9
0 -6 -10 94.49 14.9
0 6 10 82.89 14.9
0 6 10 110.09 14.9
0 6 -10 95.79 14.8
0 6 10 109.89 14.9
0 6 10 103.89 14.9
0 -6 -10 84.59 14.9
0 -6 10 111.99 14.9
0 6 -10 101.79 14.9
0 -6 -10 86.39 14.9
0 -6 10 92.99 14.9
0 -6 10 93.29 14.8
0 -6 10 95.39 14.8
-1 -6 -10 18.7 4.7
-1 -6 -10 33.4 4.9
-1 6 10 36.3 5
1 6 -10 34.2 4.7
1 -6 10 25.8 4.8
-1 6 10 36.6 4.9
-1 6 10 37.1 5.1
-1 -6 -10 27.1 4.8
1 6 -10 32.5 4.8
1 -6 10 19 4.7
-1 -6 -10 27.6 4.8
1 6 -10 33.5 4.8
1 -6 10 31.9 4.9
-1 6 10 29.3 4.9
1 6 -10 33.8 4.8
1 -6 10 33 4.9
1 6 10 31.4 4.8
-1 6 -10 25.8 4.8
-1 -6 10 23.1 4.7
-1 6 -10 36.8 4.9
-1 -6 10 32.4 4.7
-1 6 -10 25.6 4.8
1 -6 -10 35.4 4.9
-1 -6 10 33.3 4.8
-1 6 -10 36 4.9
1 -6 -10 22.3 4.8
1 6 10 26.8 4.8
1 -6 -10 24.1 4.8
1 6 10 32.1 4.9
-1 -6 10 39 4.9
1 -6 -10 33.6 4.9
2 6 -10 30.2 5.2
2 6 -10 31.6 5.3
-2 -6 -10 33.7 5.4
2 6 -10 35.6 5.3
2 6 -10 32.9 5.2
2 -6 10 36.8 5.6
2 -6 10 27.8 5.4
-2 6 10 36.6 5.5
-2 -6 -10 37.2 5.4
-2 6 10 34.9 5.5
-2 -6 -10 42.2 5.5
-2 -6 -10 35.6 5.3
-2 6 -10 37.2 5.6
-2 -6 10 29.4 5.3
-2 -6 10 38.4 5.3
-2 6 -10 28.5 5.4
2 6 10 36.1 5.5
2 6 10 27.1 5.4
2 -6 -10 24.9 5.4
2 6 10 32.1 5.3
-2 -6 10 29.8 5.3
-2 -6 10 41.1 5.3
2 6 10 45.1 5.6
3 6 -10 88.59 12.3
-3 -6 -10 76.99 12.4
3 6 -10 84.69 12.3
3 -6 10 66.89 12.4
-3 6 10 91.29 12.5
3 6 -10 77.39 12.3
3 -6 10 92.19 12.5
-3 -6 -10 80.79 12.4
3 -6 10 76.69 12.4
3 -6 10 84.19 12.4
-3 -6 -10 87.69 12.4
-3 -6 -10 80.59 12.4
3 6 -10 78.39 12.3
-3 6 10 76.29 12.4
3 6 10 68.89 12.4
-3 6 -10 76.59 12.4
-3 6 -10 78.19 12.4
-3 6 -10 82.19 12.5
3 6 10 88.89 12.4
-3 6 -10 87.69 12.5
3 -6 -10 68.49 12.4
3 -6 -10 82.49 12.4
-3 -6 10 71.59 12.3
3 6 10 78.09 12.4
-3 -6 10 83.19 12.3
-4 6 10 114.39 18.1
-4 -6 -10 114.99 18.1
-4 -6 -10 117.99 18.1
-4 6 10 139.19 18.3
4 6 -10 141.39 18
4 -6 10 93.49 18.1
4 -6 10 93.09 18.1
4 -6 10 107.09 18.2
-4 -6 -10 128.39 18.1
4 6 -10 116.49 18
4 -6 10 123.99 18.2
-4 6 10 117.19 18.1
-4 6 10 129.49 18.2
-4 -6 -10 110.09 18.1
-4 -6 10 112.19 18
-4 6 -10 106.39 18.1
4 -6 -10 126.89 18.2
-4 6 -10 109.89 18.1
4 -6 -10 116.69 18.1
4 6 10 113.89 18.1
-4 6 -10 114.29 18.1
4 6 10 117.19 18.1
4 6 10 131.59 18.1
-4 -6 10 112.29 18
-4 -6 10 131.19 18
-4 -6 10 125.09 18
4 -6 -10 114.39 18.2
-4 6 -10 115.39 18.2
-5 -6 -10 37.2 5.4
5 -6 10 38.4 5.5
-5 -6 -10 35.1 5.4
-5 -6 -10 33.6 5.3
5 -6 10 28.8 5.3
-5 -6 -10 33.2 5.3
-5 6 10 22.7 5.3
-5 6 10 28.6 5.4
-5 6 10 43.4 5.7
-5 -6 10 35.4 5.1
5 -6 -10 32.8 5.4
5 6 10 28.7 5.3
-5 -6 10 32.8 5.1
-5 6 -10 34.7 5.5
5 -6 -10 30.1 5.4
5 6 10 32.2 5.2
5 6 10 40 5.4
5 -6 -10 31 5.5
5 -6 -10 29.3 5.4
-5 6 -10 31.3 5.4
6 -6 10 47.5 7.1
-6 6 10 37.1 7
-6 -6 -10 37.2 6.9
-6 6 10 37.8 7.2
6 -6 10 51.19 7.3
-6 -6 -10 46.7 6.9
6 6 10 47.7 6.9
-6 6 -10 47 7.2
-6 6 -10 38.7 7
6 -6 -10 42.6 7.1
6 -6 -10 40.8 7.1
6 6 10 51.59 6.9
6 -6 -10 41.5 7
6 6 10 45.1 6.8
6 -6 -10 39.8 7.1
7 -6 10 3.2 1.2
-7 6 10 3.7 1.5
-7 -6 -10 3.1 1.5
-7 -6 -10 1.4 1.1
-7 -6 -10 2.7 1.1
7 -6 10 4.5 1.2
-7 6 10 2.7 1.4
-7 6 -10 0.7 1.1
7 -6 -10 1.9 1.1
7 -6 -10 2.4 1.1
7 6 10 2.8 0.9
7 6 10 2.4 0.8
7 6 10 3.3 1.2
7 -6 -10 2.3 1.3
-7 6 -10 1.2 1.1
7 6 10 1.3 1
8 -6 10 1.4 1.1
8 -6 10 0.9 1.1
-8 6 10 2 1.4
-8 6 10 2.5 1.4
8 -6 -10 1.3 1.1
-8 6 -10 2.7 1.2
8 6 10 -0.2 1.1
8 6 10 1.3 1
-8 6 -10 1 1.1
8 -6 -10 1.1 1
8 -6 -10 2.2 1.3
8 6 10 0.6 0.8
8 6 10 1.5 0.8
0 -7 10 0.8 0.8
0 -7 10 -1.1 0.5
0 7 -10 1 0.8
0 7 10 0.3 0.6
0 -7 10 -1.2 0.6
0 -7 10 0.5 0.7
0 7 10 0 0.7
0 7 -10 0.6 0.6
0 -7 -10 -1.3 0.8
0 7 -10 0.6 0.5
0 -7 -10 0 0.8
0 7 -10 -0.2 0.6
-1 7 10 8.5 1.6
1 7 -10 4.9 1.4
1 7 -10 7.8 1.5
1 -7 10 7.4 1.6
1 7 -10 8.1 1.5
-1 -7 -10 7.4 1.6
-1 -7 -10 4.7 1.5
1 7 -10 12.9 1.7
-1 -7 -10 8.4 1.9
1 -7 10 7.8 1.7
-1 7 10 5.7 1.5
-1 -7 -10 6.1 1.7
-1 -7 10 10.8 1.6
-1 -7 10 7.7 1.5
1 7 10 7.8 1.7
1 -7 -10 8.3 1.7
-1 7 -10 8.9 1.7
1 -7 -10 6.6 1.7
-1 7 -10 8.6 1.6
-1 -7 10 8.9 1.6
1 7 10 7.9 1.5
-1 -7 10 8.1 1.7
-2 7 10 2.8 1.2
-2 7 10 1.2 0.9
-2 -7 -10 1.9 1.1
-2 -7 -10 1.1 0.7
2 7 -10 3 0.8
-2 -7 -10 1.3 0.8
2 -7 10 1.6 0.9
2 -7 10 2.7 1.1
2 7 -10 1.1 0.6
-2 -7 -10 3 1
-2 7 10 2.5 1.2
2 7 -10 2.4 0.7
2 -7 10 2.7 0.9
-2 7 10 1.5 0.9
2 -7 10 1.8 0.9
2 -7 -10 2.2 0.9
2 7 10 1.9 0.8
-2 7 -10 2 0.8
2 7 10 0.8 1
-2 7 -10 3.6 1
2 -7 -10 0.7 0.9
-2 -7 10 3 0.8
2 7 10 1 0.7
-2 -7 10 1.1 0.7
2 -7 -10 0.9 0.8
-2 -7 10 1.5 0.7
-2 -7 10 0.8 0.8
2 -7 -10 3.4 1.1
-2 7 -10 0.9 0.8
2 7 10 0.4 0.9
-2 7 -10 2.5 0.9
3 -7 10 49.2 7.2
-3 -7 -10 38.8 6.9
3 -7 10 43 7.2
3 7 -10 43.8 6.8
3 -7 10 36.5 7.1
-3 -7 -10 44.2 6.9
-3 -7 -10 44.3 6.9
-3 -7 -10 41.3 6.9
3 -7 10 40 7.1
3 7 -10 46.3 6.8
-3 7 10 47.8 7.3
3 7 -10 45.4 6.8
-3 7 10 50.39 7
-3 7 10 47.7 7
-3 7 10 49.4 7.2
-3 -7 10 50.49 6.9
-3 7 -10 59.99 7.4
-3 7 -10 45.8 7.1
-3 -7 10 41 6.8
3 -7 -10 34.3 7
3 7 10 40.5 7.1
-3 7 -10 46.6 7.2
3 7 10 45.3 7
3 -7 -10 43.3 7.2
-3 -7 10 54.29 6.9
3 7 10 41.7 6.9
-3 7 -10 46.7 7
3 7 10 41 6.9
3 -7 -10 36.2 7
3 -7 -10 35.4 7
-4 7 10 64.49 12.5
4 -7 10 66.89 11.5
-4 7 10 69.19 11.5
-4 -7 -10 69.59 11.4
-4 -7 -10 74.29 11.5
-4 -7 -10 66.29 11.4
-4 7 10 69.69 11.5
-4 -7 -10 84.99 11.4
-4 7 10 71.79 11.5
4 -7 10 74.79 11.5
4 7 -10 76.69 11.3
4 -7 -10 71.39 11.5
4 7 10 68.69 11.4
4 7 10 68.29 11.4
-4 7 -10 71.29 11.5
-4 -7 10 71.59 11.3
-4 -7 10 79.09 11.3
4 -7 -10 74.19 11.5
-4 -7 10 76.09 11.3
4 7 10 76.29 11.4
4 -7 -10 74.49 11.5
-4 -7 10 83.99 11.3
-4 7 -10 69.09 11.5
4 7 10 78.79 11.5
5 -7 10 8.4 1.9
-5 7 10 3.8 1.7
-5 -7 -10 9.4 1.8
-5 7 10 9.5 2
-5 7 10 9 2.3
5 -7 10 7.5 1.9
-5 -7 -10 7.1 1.7
5 7 10 9.1 1.7
5 7 10 9.6 1.7
5 7 10 11.5 1.9
5 -7 -10 8.6 2
5 -7 -10 11 2
-5 7 -10 10.8 2
-5 -7 10 9.3 1.5
-5 7 -10 7.1 1.8
5 -7 -10 8.6 1.9
5 -7 -10 5 1.7
-5 -7 10 9.4 1.5
-6 -7 -10 19.2 3.5
6 -7 10 23.3 3.7
-6 7 10 22.3 3.9
6 -7 10 20.7 3.6
-6 -7 -10 21.1 3.5
-6 7 10 26.9 3.9
-6 7 -10 19.2 3.7
6 7 10 20.9 3.5
6 -7 -10 19.5 3.7
6 7 10 15.8 3.5
6 7 10 22.5 3.4
-6 7 -10 22 3.7
6 -7 -10 23.5 3.7
6 -7 -10 15.5 3.5
7 -7 10 15.6 3.6
-7 -7 -10 20.7 3.5
-7 7 10 25.7 3.9
-7 7 10 22.3 3.9
7 -7 10 24.7 3.9
7 -7 -10 20.1 3.6
7 7 10 15.3 3.4
7 -7 -10 20 3.7
7 7 10 25.2 3.5
-7 7 -10 22.3 3.8
-7 7 -10 32.8 4.1
7 7 10 22.8 3.7
7 7 10 19.7 3.6
-8 7 10 0.8 1.4
-8 7 10 1.9 1.3
8 -7 10 1.2 1.2
8 7 10 2.3 1.2
8 7 10 2.9 1.2
8 7 10 0.4 0.8
8 -7 -10 1.1 1.3
8 -7 -10 0.7 1.2
8 7 10 0.4 0.7
0 8 10 133.59 24
0 8 -10 162.38 23.9
0 -8 -10 164.98 24
0 -8 10 145.09 23.9
0 8 10 168.18 23.9
0 8 -10 137.99 23.9
0 -8 10 155.18 23.9
0 8 10 181.58 24
0 -8 -10 164.58 24
0 8 -10 153.78 23.9
0 -8 10 164.08 23.9
0 8 -10 138.49 23.9
0 8 10 172.08 23.9
0 -8 -10 163.08 24
0 -8 10 134.79 23.9
0 -8 -10 169.48 24
-1 8 10 0.2 0.8
1 8 -10 0.3 0.6
-1 -8 -10 0.3 1
-1 8 10 1.3 1.1
1 -8 10 0.9 0.9
1 8 -10 0.6 0.6
-1 8 10 -0.2 0.9
1 8 -10 1.4 0.6
1 -8 10 0.5 0.8
1 -8 10 1 1
-1 -8 -10 0.8 0.9
1 -8 10 -0.4 0.8
1 8 -10 1.1 0.7
-1 8 10 1.4 0.8
1 -8 -10 0.6 0.8
-1 8 -10 1.3 0.7
-1 -8 10 -0.2 0.6
1 8 10 0.9 0.6
-1 -8 10 0.9 0.7
1 8 10 -0.3 0.6
-1 8 -10 1.4 0.8
1 -8 -10 1 1.1
1 -8 -10 0.2 0.8
-1 -8 10 -0.5 0.7
1 -8 -10 -0.8 0.9
-1 8 -10 0.2 0.7
-1 -8 10 1.1 0.8
2 -8 10 0.8 0.9
-2 8 10 1.1 1.2
2 8 -10 1.8 0.8
2 -8 10 3 1.1
-2 8 10 3.7 1.1
-2 8 10 -0.8 1.1
-2 8 10 4.2 1.2
2 8 -10 2.8 0.8
2 -8 10 3 1.3
2 8 -10 3.7 0.9
2 8 -10 3.4 0.8
-2 -8 -10 3.2 1.1
2 -8 10 1.3 1
-2 8 -10 3.1 1
-2 -8 10 1.7 0.8
2 -8 -10 3.8 1.1
-2 -8 10 4.4 0.9
2 8 10 1 0.7
-2 8 -10 2 1
-2 -8 10 4.2 1
2 -8 -10 2.9 1.1
-2 8 -10 2.3 1
2 8 10 2.8 0.9
2 -8 -10 2.3 1.3
-2 8 -10 2.5 0.9
2 -8 -10 2.6 1.1
-3 8 10 6.1 1.5
3 8 -10 6.6 1.3
-3 8 10 4.7 1.6
3 -8 10 6.8 1.7
-3 -8 -10 6.3 1.5
-3 8 10 5.8 1.6
3 -8 10 6.2 1.5
3 8 -10 8.1 1.4
3 -8 10 6.5 1.6
3 -8 10 4 1.4
3 8 -10 8.6 1.4
-3 8 10 3.5 1.7
-3 -8 -10 8.8 1.6
-3 -8 10 6.6 1.4
-3 8 -10 6.5 1.6
3 8 10 6.6 1.4
3 8 10 6.7 2.5
-3 8 -10 5.8 1.5
3 8 10 5.9 1.4
-3 -8 10 7.6 1.4
-3 8 -10 5.5 1.5
-3 8 -10 6.2 1.5
-3 -8 10 9.6 1.4
3 -8 -10 7.2 1.7
-3 -8 10 7.3 1.5
3 -8 -10 3.4 1.5
-4 8 10 41.2 7.3
4 -8 10 47 7.1
-4 -8 -10 33.9 6.9
4 8 -10 43.8 6.8
4 -8 10 51.89 7.2
-4 -8 -10 47.5 6.9
-4 8 10 40.1 7.2
-4 -8 10 48.7 6.8
4 -8 -10 51.79 7.3
4 -8 -10 41.7 7.1
-4 -8 10 40.6 6.8
4 -8 -10 41.1 7.1
-4 -8 10 49.2 6.8
4 8 10 42.6 6.9
4 8 10 45.7 6.9
-4 8 -10 33.9 7
-4 8 -10 38.8 7.1
4 8 10 44.3 7.1
5 -8 10 2.6 1.2
-5 -8 -10 5.3 1.2
5 -8 10 1.2 1.1
-5 8 10 -0.2 1.3
-5 8 10 0.6 1.3
-5 -8 -10 1.6 1
5 8 10 2.2 0.9
5 -8 -10 1.6 1
5 -8 -10 2.1 1.4
-5 8 -10 2.6 1.1
5 8 10 3 0.9
-5 8 -10 2.2 1
-5 -8 10 2.4 0.7
5 8 10 2.3 1.2
-5 -8 10 3.1 0.8
-6 -8 -10 22.1 3.3
-6 8 10 29.5 4
-6 -8 -10 24.3 3.4
6 -8 10 19.8 3.5
-6 8 10 21.2 3.7
6 -8 10 21.4 3.6
-6 -8 -10 16.3 3.2
6 8 10 21.2 3.2
-6 8 -10 16.2 3.4
6 -8 -10 13.5 3.4
6 -8 -10 13.5 3.3
6 8 10 16.5 3.3
-6 8 -10 20.5 3.5
6 8 10 16.7 3.3
7 -8 10 76.19 11.7
-7 8 10 56.69 11.8
7 -8 10 70.89 11.7
-7 8 10 73.79 11.8
7 8 10 71.49 11.5
-7 8 -10 78.89 11.7
7 8 10 78.79 11.6
7 8 10 83.59 11.6
0 -9 -10 0.8 1.2
0 9 10 0.2 0.7
0 9 10 1.9 1.1
0 -9 -10 1.8 1.1
0 -9 10 -0.9 0.8
0 9 -10 -0.3 0.7
0 -9 -10 0.3 0.8
0 -9 -10 1.3 0.9
0 9 -10 -0.5 0.5
0 9 10 -0.2 1.1
-1 -9 -10 8.8 2.2
1 -9 10 7.9 2.1
1 9 -10 12.1 2.1
-1 9 10 8.9 2.1
-1 -9 -10 9.1 2.1
1 -9 10 10.4 2.2
-1 -9 -10 9 2.1
-1 9 10 13.7 2.3
1 -9 10 10.1 2.2
1 9 -10 13.1 2.1
-1 9 10 9.6 2.3
-1 9 10 11.9 2.4
1 9 -10 14.7 2.2
-1 -9 -10 11.3 2.2
1 9 -10 10.3 2
1 -9 10 12.9 2.4
1 9 10 12.1 2.4
1 -9 -10 13.3 2.3
-1 9 -10 13.3 2.2
-1 9 -10 14.1 2.3
-1 9 -10 12.3 2.2
1 -9 -10 14.4 2.5
-1 -9 10 14.4 2.3
1 -9 -10 8.6 2.2
-1 -9 10 11.3 2.1
-1 -9 10 9.4 2.1
1 9 10 10.6 2.1
1 9 10 11.1 2.1
1 9 10 10.1 2.2
-1 -9 10 8.8 2.1
1 -9 -10 16.9 2.6
-1 9 -10 15.8 2.3
2 9 -10 30.3 3.5
-2 -9 -10 20.1 3.4
2 9 -10 19 3.3
-2 -9 -10 18.4 3.4
-2 9 10 28.1 3.9
-2 9 10 14.8 3.4
2 -9 10 23 3.6
2 -9 10 13.2 3.4
-2 9 10 17.2 3.4
2 -9 10 22.4 3.5
2 -9 10 16.6 3.4
2 9 -10 21 3.2
-2 -9 -10 23.1 3.5
-2 9 10 18.8 3.5
-2 -9 -10 21.2 3.5
2 -9 -10 16.6 3.4
2 -9 -10 22.1 3.6
-2 -9 10 20.3 3.3
2 9 10 21.9 3.5
-2 -9 10 22.4 3.4
-2 9 -10 20.2 3.5
-2 -9 10 22.3 3.4
-2 9 -10 25.3 3.7
2 9 10 17.5 3.3
-2 9 -10 26 3.6
2 -9 -10 12.9 3.4
2 9 10 18.9 3.3
2 9 10 22.2 3.5
2 -9 -10 19.7 3.6
-2 9 -10 13.8 3.3
-2 -9 10 16.6 3.3
3 -9 10 84.29 13.4
-3 -9 -10 83.49 13.4
3 9 -10 91.19 13.2
3 9 -10 92.09 13.3
-3 9 10 79.39 13.5
3 -9 10 88.09 13.4
-3 -9 -10 76.59 13.4
-3 9 10 95.19 13.5
3 9 -10 90.49 13.3
-3 -9 10 87.49 13.3
-3 9 -10 72.99 13.4
3 -9 -10 88.19 13.5
-3 9 -10 71.19 13.4
3 9 10 87.39 13.3
-3 -9 10 88.99 13.3
-3 -9 10 81.89 13.3
3 9 10 84.69 13.4
-3 -9 10 97.59 13.3
3 9 10 89.89 13.4
-4 -9 -10 159.18 22.1
-4 9 10 149.79 22.2
4 -9 10 152.08 22.1
-4 -9 -10 139.59 22
4 9 -10 138.09 21.9
-4 -9 -10 135.59 22
-4 9 10 119.09 22.1
-4 -9 -10 110.09 22
4 -9 10 137.19 22.1
-4 9 -10 145.39 22.1
4 9 10 134.09 22.1
4 9 10 137.59 22
-4 -9 10 176.28 22
4 -9 -10 133.39 22.1
-4 -9 10 161.98 22
4 -9 -10 148.79 22.1
-4 -9 10 154.68 22
-4 9 -10 138.99 22.1
-5 -9 -10 93.59 14
-5 -9 -10 95.69 14
-5 -9 -10 79.39 13.9
5 -9 10 88.59 14.1
-5 -9 -10 82.19 13.9
-5 9 10 86.29 14.1
-5 9 10 81.29 14.2
5 9 -10 97.09 13.9
-5 9 -10 93.19 14.1
5 -9 -10 94.69 14.1
5 9 10 83.89 14
5 9 10 112.39 14.1
5 9 10 87.99 13.9
5 9 10 92.39 14
5 -9 -10 88.09 14.1
-6 -9 -10 0 0.9
-6 -9 -10 -0.4 0.8
-6 -9 -10 0 0.8
-6 9 10 1.7 1.4
-6 9 10 0.3 1.3
-6 -9 -10 -0.1 0.9
6 -9 10 0.6 1.1
6 -9 10 0.2 1.2
-6 9 -10 -1.5 0.9
-6 9 -10 1.7 1.1
6 9 10 -0.2 1.1
6 -9 -10 0.6 1.1
6 9 10 0.6 0.8
6 9 10 0 1.1
6 -9 -10 -0.3 0.9
6 9 10 -0.6 0.6
-7 9 10 -1.4 1.4
7 -9 10 0.7 1.1
-7 9 10 0.8 1.4
7 9 10 -0.1 0.7
7 -9 -10 0.3 1.1
7 9 10 0.4 0.7
7 9 10 -0.1 1.1
7 9 10 1.8 1.2
7 -9 -10 0.2 1.1
-7 9 -10 0.3 1
0 -10 -10 210.58 29
0 -10 10 149.99 29
0 -10 -10 180.58 29
0 10 10 205.48 29
0 10 10 185.58 28.9
0 10 -10 193.38 28.9
0 -10 -10 182.38 28.9
0 -10 -10 182.38 29
0 -10 10 241.18 29
0 10 -10 205.48 28.9
0 10 -10 177.48 28.9
0 10 10 202.88 29
0 -10 10 170.58 29
0 -10 10 167.38 28.9
-1 -10 -10 50.59 7.6
1 10 -10 48.6 7.5
1 10 -10 53.39 7.6
1 -10 10 56.79 7.9
-1 -10 -10 57.89 7.7
-1 -10 -10 51.49 7.8
1 -10 10 39.6 7.6
1 -10 10 49.9 7.6
-1 10 10 36.4 7.7
1 -10 10 46.9 7.8
-1 10 10 40.7 7.7
-1 10 10 50.99 7.8
-1 -10 -10 43.2 7.7
1 10 -10 51.39 7.5
1 10 10 44.2 7.8
-1 -10 10 57.59 7.6
1 -10 -10 48.4 7.6
-1 10 -10 41.6 7.5
-1 10 -10 49.2 7.6
-1 -10 10 49.9 7.5
-1 10 -10 52.59 7.6
1 -10 -10 47.6 7.7
1 10 10 56.99 7.9
1 10 10 42.8 7.5
1 10 10 33.9 7.5
-1 10 -10 51.69 7.6
-2 10 10 8.2 2.3
-2 -10 -10 7.6 1.9
-2 -10 -10 10.3 2.1
-2 -10 -10 7.6 1.9
-2 -10 -10 7.2 1.9
2 10 -10 10.1 1.9
2 10 -10 16.2 2
-2 10 10 9.7 2.2
2 -10 10 12.3 2.1
2 -10 10 8.9 2
2 10 -10 6.9 1.8
2 10 -10 11.8 1.8
2 10 10 9 2.2
-2 -10 10 11.4 2
2 -10 -10 7.9 2
-2 -10 10 9.2 1.8
2 10 10 8.8 2.1
2 -10 -10 7.9 1.9
-2 10 -10 11.6 2.1
2 10 10 11.1 1.9
-2 10 -10 7.3 1.9
2 10 10 9.2 1.8
-2 -10 10 9.1 1.9
-2 -10 10 11.8 1.9
3 -10 10 3.1 1.2
-3 -10 -10 2.9 1.2
3 -10 10 4.3 1.3
-3 -10 -10 6.6 1.5
-3 -10 -10 4.8 1.1
-3 10 10 2.3 1.4
3 10 -10 5.2 1.1
3 10 -10 3.9 0.9
-3 -10 -10 4.7 1.3
3 10 -10 3.6 1
-3 10 10 2.1 1.6
3 10 10 1.6 1.3
-3 -10 10 4.3 1
-3 10 -10 2.4 1.1
-3 -10 10 3 1
-3 -10 10 2.8 1.2
3 10 10 2 1.3
3 10 10 1.7 0.9
3 -10 -10 2.3 1.1
3 -10 -10 2.8 1.3
3 10 10 1.9 0.9
-3 10 -10 3.2 1.2
-3 -10 10 3.2 1
-4 -10 -10 60.79 9.7
-4 -10 -10 60.69 9.7
4 10 -10 61.09 9.6
4 10 -10 65.29 9.6
4 -10 10 61.19 9.8
-4 -10 -10 54.49 9.7
-4 10 10 47.3 9.9
4 -10 10 58.59 9.8
-4 10 10 63.49 10.2
-4 -10 10 64.69 9.7
4 -10 -10 64.09 9.8
-4 -10 10 59.29 9.6
-4 -10 10 69.79 9.6
4 10 10 54.69 9.6
-4 10 -10 64.79 9.8
4 10 10 61.99 9.7
4 10 10 80.69 9.9
4 10 10 60.89 9.8
4 -10 -10 52.69 9.9
-4 10 -10 77.99 9.9
-4 -10 10 65.89 9.7
-5 10 10 1.6 1.5
-5 -10 -10 3.7 1.1
5 -10 10 3.9 1.4
-5 -10 -10 3.6 1.3
-5 10 10 1.2 1.6
5 10 -10 4.9 1
-5 -10 -10 4.1 1.3
-5 -10 -10 3.6 1.2
5 10 -10 5.1 1
-5 10 -10 5.1 1.5
5 10 10 5.1 1.5
5 -10 -10 2.4 1.3
-5 10 -10 4.2 1.5
5 10 10 3 1.1
5 10 10 3.6 1
5 -10 -10 6.2 1.6
-6 10 10 42.4 9.6
-6 -10 -10 71.49 9.4
-6 -10 -10 57.89 9.4
-6 10 10 48.1 9.7
-6 -10 -10 71.29 9.5
-6 -10 -10 60.59 9.9
6 10 10 71.59 9.5
6 10 10 58.99 9.5
6 -10 -10 48.4 9.6
6 10 10 55.59 9.4
6 10 10 74.79 9.4
6 -10 -10 41.7 9.5
7 -10 10 4.5 1.6
-7 10 10 5.4 2
7 -10 10 4.5 1.6
7 -10 -10 7.6 2.7
7 10 10 6.9 1.7
-7 10 -10 4.2 1.5
7 10 10 4.8 1.7
7 10 10 3.7 1.2
7 -10 -10 7.5 1.8
-7 10 -10 6.9 1.7
0 -11 10 0.9 1.1
0 -11 -10 0.9 1
0 11 -10 1.3 0.9
0 -11 10 2 1
0 -11 10 0.4 0.8
0 11 -10 -0.1 0.7
0 11 10 0.1 1
0 -11 10 0.1 0.9
0 11 -10 -0.5 0.6
0 11 -10 1.4 0.8
0 -11 -10 -0.7 1
1 -11 10 21.5 3.3
1 11 -10 23.5 3.4
-1 11 10 18.7 3.4
-1 11 10 14.7 3.4
-1 -11 -10 18.9 3.3
1 -11 10 17.4 3.2
1 11 -10 19.6 3.2
1 11 -10 17 3.1
-1 -11 -10 19.3 3.2
-1 -11 10 16.2 3.2
1 11 10 16 3.3
1 11 10 16.5 3.1
-1 -11 10 19.9 3.2
1 11 10 17.2 3.3
1 -11 -10 20.7 3.4
1 -11 -10 20.2 3.3
-1 11 -10 14.9 3.2
-1 11 -10 14.9 3.1
1 11 10 18.6 3.4
-1 11 -10 15.4 3.1
-1 -11 10 18.7 3.2
-1 -11 10 21.5 3.4
2 11 -10 43.1 7.1
-2 -11 -10 58.09 7.1
2 -11 10 33.5 7
-2 11 10 40.9 7.2
2 -11 10 30.1 7
-2 -11 -10 50.29 7.3
2 11 -10 42.7 6.9
-2 -11 -10 45.4 7
-2 11 10 50.39 7.5
2 11 -10 44.4 6.9
2 11 -10 47.3 6.9
-2 11 -10 33.4 7.1
-2 11 -10 44.4 7.2
-2 -11 10 44.8 7
2 -11 -10 36.7 7.1
2 11 10 47.5 7
2 11 10 49.5 7.3
2 11 10 45.1 7.2
2 11 10 39.9 6.9
-2 -11 10 48.5 7
-2 -11 10 50.19 7.2
2 -11 -10 48.3 7.2
-3 -11 -10 59.29 9.5
3 -11 10 51.79 9.7
-3 -11 -10 59.19 9.6
-3 -11 -10 75.59 9.6
-3 11 10 50.09 9.8
-3 11 10 69.39 9.8
3 11 -10 58.99 9.4
3 11 -10 69.49 9.4
3 11 -10 59.09 9.5
-3 -11 -10 63.19 9.6
3 -11 10 59.19 9.6
-3 -11 10 55.19 9.4
3 -11 -10 45.5 9.7
-3 11 -10 68.19 9.6
3 -11 -10 68.49 9.6
3 11 10 68.39 9.9
3 11 10 54.49 9.5
-3 -11 10 68.39 9.6
-3 11 -10 55.99 9.7
3 11 10 52.59 9.5
-3 -11 10 60.19 9.5
3 11 10 61.29 9.6
-3 -11 10 70.19 9.5
-4 -11 -10 1 1
4 -11 10 0.7 1.1
4 11 -10 0.6 0.8
-4 11 10 1.9 1.4
4 11 -10 0.6 0.6
-4 -11 -10 0.6 0.8
-4 11 10 0 1.4
4 -11 10 0.1 1
-4 -11 -10 -0.2 1.1
-4 -11 -10 2.5 1.2
4 11 -10 0.8 0.7
4 -11 -10 2.2 1.3
4 11 10 1.2 1.2
4 11 10 0.3 0.8
-4 -11 10 -0.1 0.8
-4 11 -10 0.4 1.1
4 -11 -10 -0.4 0.9
-4 -11 10 0.3 0.8
-4 11 -10 1.7 1.1
4 11 10 0.2 1.2
-4 -11 10 1.6 1
-4 -11 10 0.4 0.7
5 -11 10 0.5 1
-5 -11 -10 -1.2 0.9
-5 11 10 -0.2 1.6
-5 -11 -10 0.7 1
-5 -11 -10 -0.4 0.9
-5 -11 -10 -0.4 0.7
-5 11 10 0.4 1.2
5 11 -10 1.7 0.7
5 -11 -10 1.3 1.3
5 11 10 -2.2 1.1
5 11 10 0.1 2
-5 11 -10 -0.8 1.1
5 11 10 1.3 0.7
5 11 10 0.2 0.7
5 -11 -10 0.1 1.1
6 -11 10 1.2 1.2
6 -11 10 0.7 1.2
-6 11 -10 1.4 1.3
6 -11 -10 0.8 1.1
6 11 10 1.6 1
6 11 10 0.3 1.4
-6 11 -10 1.6 1.2
6 11 10 1.3 0.8
0 12 10 41.4 8
0 12 -10 49.99 7.8
0 -12 10 38.8 7.9
0 12 -10 56.69 7.8
0 12 -10 50.49 7.8
0 -12 10 59.99 7.9
0 -12 -10 52.59 7.9
0 -12 -10 52.19 8
0 12 10 39.7 8
0 -12 10 43 8.3
-1 -12 -10 0.3 0.9
-1 12 10 1 1.2
1 12 -10 1.2 0.9
-1 -12 -10 0.6 1
1 12 -10 0.8 0.8
1 -12 10 0.9 1
-1 12 10 0.1 1.3
1 12 -10 1.5 1
1 12 -10 0.8 0.7
1 -12 10 1.7 1
1 12 10 1.4 1.2
-1 12 -10 1 0.9
1 -12 -10 0 1
-1 -12 10 0.6 0.8
1 12 10 1.7 1.3
1 -12 -10 0.2 1
-1 12 -10 1.6 1.2
-1 -12 10 0.9 1
-1 -12 10 1.7 1
-1 -12 10 0.8 1.2
2 12 -10 14.2 3.2
2 12 -10 22.2 3.3
-2 12 10 12.8 3.3
2 12 -10 21.8 3.1
-2 -12 -10 22.1 3.3
2 -12 10 17.9 3.2
-2 12 10 11.4 3.4
2 -12 10 14.6 3.3
-2 -12 -10 20.7 3.4
2 12 -10 14.8 3.1
2 12 10 17.6 3.1
2 -12 -10 14.1 3.3
2 -12 -10 21.1 3.4
-2 -12 10 23.2 3.3
-2 -12 10 24.3 3.4
-2 -12 10 23.7 3.4
2 12 10 15.7 3.3
-2 12 -10 20.1 3.4
-2 -12 10 21.1 3.4
2 12 10 19.5 3.5
-2 12 -10 11.9 3.2
3 12 -10 22.9 3.3
3 12 -10 23.4 3.2
-3 12 10 12.1 3.4
-3 12 10 16.8 3.6
3 -12 10 17.1 3.5
3 12 -10 17.6 3.2
-3 -12 -10 23.9 3.5
3 12 -10 21 3.3
3 -12 10 15.7 3.4
-3 -12 -10 22.1 3.5
3 -12 -10 14.3 3.4
3 12 10 16.2 3.2
-3 -12 10 18.6 3.4
-3 -12 10 22.9 3.3
-3 -12 10 23.1 3.4
3 12 10 16.9 3.5
3 -12 -10 12.1 3.3
-3 12 -10 22.1 3.6
3 12 10 21 3.5
-3 12 -10 15 3.3
-3 -12 10 23.7 3.4
4 12 -10 11.2 2.1
4 12 -10 12.5 2.1
4 -12 10 11.6 2.5
4 -12 10 10.6 2.4
4 12 -10 16.5 2.3
4 12 -10 12.8 2.2
-4 -12 -10 12 2.4
-4 12 10 10.6 2.8
-4 -12 -10 11.1 2.4
-4 12 10 9.6 2.6
-4 12 -10 13 2.5
4 12 10 11.4 2.7
4 -12 -10 10.4 2.5
-4 12 -10 14.9 2.7
4 12 10 13.7 2.3
4 12 10 11 2.2
4 12 10 8.1 2.4
-4 -12 10 12.8 2.3
-5 -12 -10 0.6 1.1
-5 -12 -10 1.9 1
5 -12 10 -0.4 1
5 12 -10 2 0.9
5 12 -10 -0.3 0.7
5 -12 10 2.9 1.4
-5 -12 -10 1.3 1.1
5 12 10 0.8 0.9
5 12 10 0.6 1.2
5 -12 -10 2.8 1.4
-5 12 -10 2.9 1.3
5 12 10 1.4 1.4
-5 12 -10 -0.3 1.2
-6 12 10 5.2 1.8
6 -12 10 4.3 1.7
-6 12 10 3.8 1.8
6 -12 10 4.7 1.6
6 -12 -10 3.4 1.5
6 12 10 4.5 1.1
6 -12 -10 4.7 1.7
6 12 10 2.4 1.2
6 12 10 6.3 1.8
-6 12 -10 4.9 1.6
-6 12 -10 5.3 1.6
0 -13 -10 -0.2 1.1
0 -13 10 1.2 1
0 13 10 0.4 1.3
0 13 -10 -0.8 1.2
0 -13 10 -1.2 0.8
0 13 -10 1 0.8
0 13 10 0.3 1.4
0 -13 -10 1.5 1.1
-1 13 10 33.8 5.8
-1 -13 -10 32.9 5.5
1 -13 10 29.4 5.5
1 13 -10 43.5 5.6
1 13 -10 32.7 5.5
-1 -13 -10 28.6 5.5
1 13 -10 46.6 5.7
1 13 -10 31.6 5.4
-1 13 10 38.3 6
-1 13 -10 33.5 5.5
1 -13 -10 29.5 5.5
1 13 10 28.3 5.7
-1 13 -10 30.8 5.5
1 -13 -10 33.6 5.6
-1 -13 10 40.8 5.8
-1 -13 10 31.4 5.6
1 13 10 27.7 5.6
2 -13 10 0.8 1.1
-2 -13 -10 1 1.1
2 13 -10 1.5 0.9
2 -13 10 0.7 1
-2 13 10 0.9 1.3
2 13 -10 0.5 0.8
2 13 -10 2.3 1
-2 -13 -10 0.6 1
-2 13 10 4 1.7
2 -13 -10 1.2 1.1
-2 13 -10 1.5 1
-2 13 -10 -0.3 1.2
2 13 10 3.5 1.4
-2 -13 10 2.1 1.1
-2 -13 10 0.9 0.8
2 -13 -10 1.3 1.1
-2 -13 10 1.8 1.2
-2 -13 10 1.1 1
2 13 10 0.6 1.2
-3 -13 -10 17.6 3.2
-3 -13 -10 17.5 3.2
3 13 -10 17.9 3
-3 13 10 15.6 3.4
3 13 -10 21.7 3.2
3 -13 10 15.3 3.3
-3 13 10 17.9 3.5
3 13 -10 23.7 3.2
3 -13 10 18.4 3.4
-3 -13 10 24.6 3.4
-3 -13 10 19.2 3.2
-3 -13 10 20.1 3.3
3 -13 -10 11.1 3.1
3 -13 -10 15.4 3.2
3 13 10 18.1 3.4
3 13 10 14.6 3
3 13 10 12.8 3.2
-3 13 -10 17.5 3.4
-3 13 -10 16.3 3.3
4 13 -10 33.1 4.8
-4 -13 -10 33.2 5
-4 -13 -10 25.4 4.8
4 13 -10 29.5 4.8
4 13 -10 25.9 4.6
4 13 10 28.7 5
4 13 10 31.2 5.2
5 -13 10 8 1.9
-5 13 10 4.4 1.9
5 -13 10 7.5 1.8
-5 13 10 1.3 1.8
5 13 -10 7 1.5
-5 -13 -10 6.9 1.6
5 13 -10 5.4 1.3
-5 -13 -10 6.4 1.7
5 13 10 6.4 1.8
-5 13 -10 6.4 1.8
-5 13 -10 5.6 1.8
5 -13 -10 6.9 1.8
5 -13 -10 6.7 1.9
5 13 10 5.8 1.4
5 13 10 6.8 1.9
0 -14 -10 1.5 1.1
0 14 -10 1.5 1.2
0 -14 10 2.1 1.1
0 14 10 2.3 1.4
0 14 10 5.1 1.8
0 -14 10 1.7 1.1
0 14 -10 2.1 1
0 -14 -10 4.8 1.4
1 -14 10 0 0.9
1 14 -10 -0.2 0.7
-1 14 10 -0.3 1.2
-1 -14 -10 0 1.1
1 14 -10 0.8 1.2
1 14 -10 0.6 0.9
-1 14 10 0.8 1.5
-1 -14 -10 0.6 1.1
1 -14 10 0.6 1
-1 -14 10 1.6 1.1
-1 14 -10 -1.2 0.8
1 -14 -10 -0.3 1
-1 14 -10 -0.9 1.1
-1 -14 10 0 0.9
1 14 10 1 1.5
1 -14 -10 0.1 1
1 14 10 0.2 1.1
2 -14 10 1.5 1.1
2 14 -10 1.1 0.9
-2 14 10 -1.3 1.5
2 14 -10 2.2 0.9
2 14 -10 1.7 1.1
-2 -14 -10 2.3 1.1
-2 14 10 1.5 1.4
2 -14 10 2.5 1.1
-2 14 -10 0.1 1.2
2 14 10 0.6 1.2
-2 -14 10 4 1.2
2 -14 -10 -1.2 1.2
2 -14 -10 2.3 1.2
-2 -14 10 -0.9 1.1
-2 14 -10 1.1 1
2 14 10 -0.7 1.2
-2 -14 10 1.2 1
3 14 -10 0 0.9
-3 -14 -10 0 0.9
3 14 -10 1.2 0.9
3 14 -10 -0.7 0.7
-3 -14 -10 -0.2 1
3 14 -10 -0.2 0.7
3 14 10 0.4 1.3
-3 -14 10 0.8 1
3 14 10 0 1.2
-3 -14 10 0.7 1
-3 -14 10 -0.1 1.1
-3 -14 10 -1.3 1.1
-4 -14 -10 1.2 1.2
4 -14 10 3.2 1.4
4 14 -10 2.2 1
4 14 -10 3.1 0.8
-4 14 10 2.1 1.8
4 -14 10 0.4 1.1
-4 14 10 1.1 1.5
4 -14 -10 0.8 1.4
4 14 10 0.6 1.3
-4 14 -10 3.1 1.5
-4 14 -10 -0.4 1
4 14 10 1.2 0.9
4 14 10 1.6 1.5
5 -14 10 3.8 1.4
-5 -14 -10 2.6 1.1
-5 14 10 1.7 1.5
5 14 -10 3.2 1.1
-5 14 10 3.3 1.8
5 14 -10 3.6 1.1
5 -14 10 2.5 1.4
-5 14 -10 2.5 1.4
-5 14 -10 3.1 1.8
5 14 10 3.3 1.1
5 -14 -10 3.4 1.6
5 14 10 1.7 1.5
5 14 10 3.3 1.6
0 -15 10 0.2 0.9
0 15 -10 0.9 1.3
0 15 10 0.6 1.3
0 -15 10 -0.9 1
0 15 10 1 1.6
0 15 -10 -1 0.8
0 -15 -10 0.5 1.2
0 -15 -10 -0.4 1.1
1 15 -10 0.6 1.2
-1 -15 -10 0.2 1.1
1 -15 10 -1.1 0.8
1 15 -10 -0.9 0.8
1 -15 10 -1 1
-1 -15 -10 -0.6 1
-1 15 -10 -1 1.2
-1 15 -10 -0.4 0.9
-1 -15 10 -0.5 1
1 15 10 -1.7 1.2
1 15 10 -0.5 1.3
-1 -15 10 0.7 0.9
2 15 -10 2.3 1.3
-2 15 10 0.6 1.7
2 15 -10 4.5 1.1
2 15 -10 2.4 0.9
-2 15 10 1.9 1.5
-2 -15 -10 3.9 1.4
-2 -15 -10 1 1.2
2 15 10 5.4 1.7
2 -15 -10 2.3 1.3
-2 -15 10 -0.2 1
-2 -15 10 1.9 1.1
2 -15 -10 2 1.3
2 15 10 1.2 1.4
3 15 -10 0.9 1.1
3 -15 10 1.4 1.1
-3 15 10 1.1 1.4
-3 -15 -10 1.8 1.1
3 -15 10 2.1 1.3
3 15 -10 1 1
-3 15 10 0.4 1.6
-3 -15 -10 1.8 1.2
3 15 -10 1.5 1
3 -15 -10 1.6 1.2
3 15 10 0.8 1.4
-3 -15 10 -0.2 1
3 -15 -10 2.7 1.3
-3 15 -10 0.8 1.2
-4 15 10 9.4 2.7
-4 -15 -10 13.8 2.4
4 15 -10 13.6 2
4 -15 10 12 2.5
4 -15 10 8.9 2.3
4 15 -10 7.9 2.1
-4 -15 -10 14.6 2.4
4 15 -10 16.6 2.3
4 15 -10 10.8 2
-4 15 10 8.6 2.4
4 15 10 7.1 2.2
4 -15 -10 9.4 2.3
4 -15 -10 6.8 2.3
-4 15 -10 3.9 2.2
-4 15 -10 8.3 2.3
4 15 10 13.4 2.7
0 16 -10 14.6 3
0 -16 -10 11.8 3.3
0 -16 10 15.2 3
0 16 -10 13.9 2.7
0 -16 10 14.3 2.9
-1 -16 -10 18 3.1
-1 16 10 10.4 3.1
1 16 -10 17.1 2.9
-1 16 10 13.5 3.2
-1 16 -10 13 2.8
1 -16 -10 13.3 2.9
1 -16 -10 15 2.9
1 16 10 14 3.1
-1 -16 10 18.3 3.1
1 16 10 12.8 3.6
-1 -16 10 17.5 2.9
2 -16 10 3.6 1.5
-2 -16 -10 1.8 1.2
-2 16 10 1.7 1.4
2 -16 10 0.6 1.4
-2 -16 -10 2.2 1.3
2 16 -10 4.2 1.4
-2 16 10 3.7 2
2 16 -10 1.1 1
2 16 -10 2.1 1
-2 -16 10 2 1.1
2 -16 -10 2.4 1.5
2 16 10 1 1.4
2 16 10 0.8 1.6
-2 -16 10 2.5 1.2
2 -16 -10 3.3 1.4
-2 16 -10 3.4 1.6
-2 16 -10 1.2 1.3
-3 16 10 7.6 2.5
3 -16 10 18.1 2.8
-3 16 10 8.8 2.7
3 16 -10 12.5 2.2
-3 -16 -10 17.2 2.7
-3 -16 -10 13.5 2.6
3 -16 10 10.9 2.4
3 16 -10 11.4 2.4
-3 16 -10 9.3 2.6
3 16 10 6 2.4
3 -16 -10 11.8 2.7
3 16 10 11.1 2.8
3 -16 -10 10.7 2.5
-3 16 -10 9 2.3
0 17 -10 0.5 1
0 17 10 0.3 1.9
0 -17 -10 -1 1.2
0 -17 10 1.9 2.2
0 -17 -10 1.3 1.3
0 17 10 -1.9 1.2
1 17 -10 3 1.2
1 -17 10 1.4 1.3
1 17 -10 3 1.6
-1 -17 -10 3.6 1.4
-1 -17 -10 4 1.7
-1 17 10 4.1 2
1 -17 10 3.3 1.5
1 17 10 3.1 2
1 -17 -10 4.9 1.6
-1 17 -10 2.7 1.6
-1 -17 10 2.6 1.3
-1 -17 10 7.1 1.7
1 -17 -10 6.1 1.7
-1 17 -10 2.3 1.3
0 0 11 -1.1 0.6
0 0 11 -0.5 0.6
0 0 -11 -0.8 0.6
0 0 -11 0 0.6
0 0 11 0 0.7
0 0 -11 0.7 0.6
0 0 -11 0.8 0.7
1 0 11 -1 0.5
-1 0 -11 -0.7 0.6
1 0 -11 -0.3 0.6
-1 0 -11 -0.6 0.7
1 0 11 -0.1 0.6
-1 0 11 0.9 0.7
1 0 -11 0.2 0.6
1 0 11 0.1 0.6
-1 0 -11 -0.4 0.6
-1 0 -11 -0.4 0.7
-1 0 11 -0.6 0.7
1 0 -11 -0.7 0.4
-1 0 11 -0.3 0.6
1 0 11 -0.7 0.6
-1 0 11 -0.3 0.7
2 0 11 0.4 0.5
-2 0 11 0.4 0.6
2 0 -11 0.3 0.7
-2 0 -11 -0.5 0.6
-2 0 11 -0.8 0.8
-2 0 -11 0.3 0.7
-2 0 11 -0.3 0.6
2 0 -11 0 0.5
-2 0 -11 -1.6 0.6
2 0 11 -0.1 0.7
2 0 11 0.7 0.7
-2 0 -11 0 0.7
-2 0 11 -0.4 0.7
2 0 -11 0.7 0.7
2 0 -11 0.2 0.5
2 0 11 -0.1 0.5
3 0 -11 0.5 0.5
3 0 -11 -0.4 0.6
3 0 -11 0.1 0.6
-3 0 11 0.1 0.6
-3 0 -11 -0.7 0.6
3 0 11 0.9 0.5
-3 0 11 1.6 0.8
3 0 11 0.4 0.7
-3 0 -11 -0.1 0.8
-3 0 11 0.4 0.6
-3 0 -11 0 0.7
3 0 11 0.3 0.5
3 0 11 0.5 0.7
-3 0 11 0.7 0.7
-4 0 11 0.5 0.6
4 0 -11 -0.8 0.6
4 0 11 0.7 0.5
-4 0 -11 0.8 0.7
-4 0 11 -0.7 0.6
-4 0 11 -2.3 0.8
-4 0 -11 -1 0.7
4 0 -11 -0.1 0.7
4 0 11 0 0.7
4 0 -11 -0.1 0.6
4 0 -11 0.2 0.4
-4 0 11 0.2 0.6
-5 0 11 -0.3 0.6
5 0 -11 0.8 0.7
5 0 -11 -1 0.7
5 0 11 -0.2 0.5
5 0 -11 -0.1 0.6
-5 0 11 1.3 0.8
-5 0 -11 -0.7 0.7
5 0 -11 -0.2 0.5
-5 0 -11 0.5 0.8
5 0 11 1.4 0.7
5 0 11 -0.2 0.7
-5 0 11 0.1 0.7
-5 0 11 0.8 1
6 0 -11 0.9 0.8
-6 0 -11 -0.3 0.9
-6 0 -11 -0.2 0.7
-6 0 11 0.3 1
6 0 11 0.1 0.6
6 0 11 -0.8 0.8
-6 0 11 0.4 0.7
6 0 -11 -0.9 0.6
6 0 -11 0.9 0.8
6 0 -11 0.3 0.5
-6 0 -11 -0.1 0.9
6 0 11 0.3 0.6
-6 0 -11 0.7 0.8
-6 0 11 -0.1 0.7
6 0 11 0 0.7
-6 0 11 -1.3 0.8
7 0 -11 -0.2 0.9
7 0 11 -0.1 0.7
-7 0 -11 -1.2 0.8
-7 0 -11 0.3 0.8
-7 0 11 1 0.8
7 0 11 0.4 0.9
7 0 11 -1 0.6
7 0 -11 -0.8 0.8
7 0 11 -0.1 0.9
8 0 -11 0.9 0.9
8 0 11 0.4 0.9
8 0 11 -1 0.8
8 0 11 -0.4 0.9
-8 0 -11 2.2 1
-8 0 -11 -0.2 0.8
8 0 -11 0.4 1
0 -1 11 0.5 0.6
0 1 11 0.4 0.7
0 -1 11 -0.2 0.6
0 1 11 -0.3 0.7
0 1 -11 0.2 0.6
0 -1 -11 -0.2 0.5
0 -1 11 0.2 0.7
0 1 11 -0.3 0.6
0 1 11 -0.1 0.7
0 -1 11 0 0.6
0 -1 -11 0.5 0.7
0 1 -11 0.2 0.5
0 1 -11 0.1 0.7
0 -1 -11 1.1 0.7
0 -1 -11 1.6 0.8
0 1 -11 0.1 0.6
-1 1 11 108.39 16.8
1 -1 11 96.59 16.8
1 1 -11 120.09 16.8
1 -1 11 114.69 16.8
-1 -1 -11 127.79 16.8
1 -1 11 116.59 16.8
1 1 -11 110.29 16.8
-1 -1 -11 112.29 16.8
-1 1 11 109.99 16.8
-1 -1 -11 116.39 16.8
-1 -1 -11 118.49 16.8
-1 1 11 108.39 16.8
1 1 -11 117.99 16.8
1 1 -11 121.29 16.8
-1 1 11 111.29 16.8
-1 -1 11 112.89 16.8
-1 -1 11 116.09 16.8
1 1 11 93.99 16.8
-1 1 -11 111.99 16.8
1 1 11 97.39 16.8
-1 1 -11 97.59 16.8
1 1 11 92.99 16.8
1 -1 -11 141.09 16.9
-1 -1 11 110.19 16.8
1 -1 -11 109.69 16.9
-1 1 -11 116.79 16.8
1 -1 -11 106.39 16.8
1 1 11 110.49 16.8
1 -1 -11 90.39 16.8
-1 -1 11 97.19 16.8
-1 1 -11 101.19 16.8
2 1 -11 15.6 3.5
-2 1 11 19.8 3.6
-2 1 11 26.9 3.6
2 1 -11 19.2 3.5
2 -1 11 16 3.5
-2 -1 -11 24.8 3.6
2 1 -11 26.7 3.5
-2 -1 -11 19.4 3.5
-2 -1 -11 22.7 3.6
-2 1 11 15.4 3.5
2 -1 11 28.8 3.7
2 -1 11 19 3.5
2 -1 11 14 3.4
-2 1 11 24.2 3.6
-2 1 -11 18.8 3.6
2 -1 -11 22.8 3.5
-2 1 -11 25 3.7
-2 1 -11 23.2 3.6
-2 -1 11 27.8 3.6
2 -1 -11 21.2 3.5
-2 -1 11 23 3.6
2 1 11 26.7 3.7
-2 1 -11 31.8 3.7
2 -1 -11 27.6 3.6
-2 -1 11 23.1 3.5
2 1 11 17 3.5
2 1 11 24.9 3.6
2 1 11 27.7 3.6
2 -1 -11 21 3.5
3 1 -11 132.69 19.6
-3 -1 -11 118.09 19.6
-3 1 11 129.59 19.6
3 -1 11 106.99 19.6
-3 -1 -11 124.39 19.6
-3 1 11 133.79 19.6
-3 1 11 110.29 19.6
-3 -1 -11 126.39 19.7
3 1 -11 118.39 19.6
3 1 -11 131.29 19.6
-3 -1 -11 117.09 19.6
-3 1 11 126.79 19.7
3 -1 -11 160.28 19.6
3 1 11 146.89 19.7
-3 -1 11 116.09 19.6
3 -1 -11 154.48 19.7
-3 1 -11 128.79 19.7
-3 1 -11 121.39 19.7
-3 -1 11 137.99 19.6
3 -1 -11 123.09 19.6
-3 1 -11 141.09 19.7
3 -1 -11 138.29 19.6
3 1 11 128.39 19.6
-3 1 -11 125.79 19.7
3 1 11 122.79 19.6
3 1 11 120.39 19.6
-3 -1 11 129.99 19.6
-4 1 11 133.79 18.3
4 1 -11 113.09 18.2
4 -1 11 128.69 18.3
-4 -1 -11 112.59 18.4
-4 1 11 113.19 18.3
-4 1 11 130.19 18.3
4 1 -11 117.09 18.3
-4 1 11 117.79 18.3
4 1 -11 116.59 18.2
-4 -1 -11 130.29 18.3
-4 -1 -11 114.69 18.3
-4 -1 -11 120.39 18.3
4 -1 -11 122.59 18.3
4 1 11 112.69 18.3
4 1 11 112.19 18.3
4 1 11 117.69 18.3
-4 -1 11 106.99 18.3
4 1 11 120.69 18.3
-4 -1 11 134.09 18.3
-4 1 -11 117.29 18.3
-4 -1 11 106.19 18.2
4 -1 -11 120.69 18.3
4 -1 -11 120.29 18.3
-4 1 -11 125.59 18.3
4 -1 -11 125.59 18.3
5 1 -11 5 1.1
-5 1 11 4.3 1.2
-5 -1 -11 1.5 0.9
5 -1 11 3.8 1
5 -1 11 3.2 1.1
5 1 -11 4 0.8
-5 1 11 4.2 1
5 1 -11 3.3 1
5 -1 11 3.7 1
-5 -1 -11 3.1 1
-5 1 11 3.6 1
-5 1 11 3.6 1.2
5 -1 11 1.2 0.9
-5 -1 11 3.1 0.9
-5 1 -11 1.1 1.1
5 -1 -11 4.7 1
-5 1 -11 4.8 1.1
-5 1 -11 1.9 1
5 1 11 4.5 1.2
5 -1 -11 3.2 1
5 1 11 2.7 0.9
5 -1 -11 2.8 1
-5 -1 11 4.1 1.2
-5 -1 11 3.1 1
-5 1 -11 4 1.2
5 1 11 3.5 0.9
-6 -1 -11 0.8 0.9
-6 -1 -11 0.4 0.7
-6 1 11 -0.7 1.1
6 -1 11 -0.1 0.8
-6 1 11 -0.9 0.7
6 -1 11 -0.2 0.8
6 -1 11 0 0.6
6 1 -11 0.1 0.7
-6 1 11 -1.5 0.9
6 -1 11 0.6 0.7
-6 1 11 -0.9 0.7
-6 -1 -11 0.1 0.9
-6 -1 11 -0.3 0.8
-6 1 -11 0.3 0.9
6 -1 -11 0.1 0.9
6 1 11 -0.7 0.6
-6 -1 11 -0.4 0.7
6 1 11 -0.6 0.8
-6 1 -11 -0.8 0.9
6 -1 -11 -0.3 0.8
6 1 11 -0.3 0.5
6 1 11 0.1 0.7
-6 1 -11 -0.6 0.7
-6 1 -11 -0.1 0.7
-6 -1 11 -1.5 0.8
6 -1 -11 0.2 0.7
-6 -1 11 -0.5 0.6
7 -1 11 -1.8 1
7 -1 11 -0.8 0.8
7 1 -11 -0.4 0.8
7 1 -11 0.5 0.8
-7 1 11 0.4 1.1
-7 -1 -11 0.4 0.9
-7 -1 -11 0.3 0.9
-7 1 11 -0.5 0.9
-7 1 11 1 0.8
7 -1 11 -0.1 0.9
-7 1 11 0.8 1.2
-7 1 -11 1 0.8
7 1 11 1.3 0.9
7 -1 -11 0.2 0.7
7 1 11 0 0.9
7 1 11 -0.6 0.7
7 -1 -11 0.3 0.7
7 1 11 1.4 0.8
-7 1 -11 1.4 0.9
7 -1 -11 1.3 0.9
7 -1 -11 -1.1 0.9
-8 -1 -11 3 1.1
8 -1 11 2.6 1.1
8 1 -11 2 1
8 -1 11 2.4 1.1
8 -1 11 1.2 1.2
8 1 -11 2.9 1
8 -1 -11 2.9 0.9
8 1 11 3.5 1.2
-8 1 -11 3.2 1.2
8 1 11 4.4 1.2
8 -1 -11 1.9 0.8
8 1 11 3.3 1.2
8 -1 -11 2.5 1.2
8 -1 -11 2.2 1.2
0 -2 -11 225.58 35.6
0 -2 11 242.78 35.6
0 2 -11 235.98 35.6
0 -2 -11 224.38 35.6
0 -2 11 231.28 35.6
0 2 11 222.18 35.6
0 2 -11 241.78 35.6
0 -2 11 215.48 35.5
0 2 11 223.88 35.6
0 -2 11 281.87 35.6
0 -2 -11 211.28 35.6
0 2 -11 253.27 35.6
0 2 11 231.48 35.6
0 2 11 227.88 35.6
0 -2 -11 229.68 35.6
1 2 -11 646.74 96.09
1 2 -11 640.74 96.09
1 2 -11 664.73 96.09
-1 2 11 666.83 96.09
1 -2 11 573.74 96.09
-1 -2 -11 656.33 96.09
-1 2 11 732.43 96.09
1 -2 11 693.43 96.09
-1 -2 -11 625.64 96.09
1 2 -11 645.04 96.09
1 -2 11 621.04 96.09
1 -2 11 617.54 96.09
-1 -2 -11 572.24 96.09
-1 -2 -11 633.34 96.09
-1 2 11 701.93 96.09
-1 2 -11 525.35 96.09
1 2 11 568.34 96.09
-1 2 -11 587.04 96.09
-1 -2 11 659.53 96.09
-1 2 -11 632.74 96.09
1 2 11 634.24 96.09
-1 -2 11 731.83 96.09
1 2 11 567.54 96.09
-1 2 -11 570.64 96.09
1 -2 -11 663.73 96.09
-1 -2 11 686.83 96.09
-1 -2 11 636.04 96.09
1 -2 -11 608.54 96.09
1 2 11 557.54 96.09
-2 2 11 59.49 8.6
2 -2 11 53.19 8.5
-2 2 11 56.09 8.5
2 -2 11 56.19 8.5
2 -2 11 51.49 8.5
-2 -2 -11 57.29 8.5
-2 -2 -11 62.49 8.6
-2 2 11 51.69 8.5
2 2 -11 60.49 8.5
-2 2 11 48.4 8.5
2 2 -11 53.39 8.5
-2 -2 -11 49.6 8.5
-2 -2 -11 59.19 8.5
-2 -2 11 54.19 8.5
2 -2 -11 51.79 8.5
2 2 11 57.69 8.5
-2 -2 11 44.8 8.5
2 -2 -11 52.29 8.5
2 2 11 61.49 9
2 2 11 63.09 8.5
2 2 11 60.69 8.5
-2 -2 11 53.69 8.5
-2 2 -11 51.69 8.5
-2 2 -11 50.49 8.5
-2 2 -11 49.6 8.5
-2 -2 11 56.29 8.5
2 -2 -11 74.39 8.5
2 -2 -11 51.99 8.5
-2 2 -11 51.19 8.5
3 2 -11 46.7 7
3 -2 11 44.7 7.2
-3 2 11 48.4 7.2
-3 2 11 49.99 7.3
-3 2 11 39.1 7.1
-3 -2 -11 44.4 7.1
-3 -2 -11 48.4 7.2
-3 -2 -11 41.7 7.1
3 -2 11 49.5 7.1
3 2 -11 48 7.1
-3 -2 -11 41.2 7.1
-3 2 11 46.6 7.1
3 2 -11 44.3 7
3 2 11 45.7 7.1
-3 2 -11 42.7 7.2
3 2 11 43.4 7.1
-3 2 -11 47.9 7.2
3 2 11 46.1 7.1
3 -2 -11 47 7.1
3 -2 -11 47.4 7.1
-3 -2 11 53.49 7.1
3 -2 -11 49.9 7.1
-3 2 -11 41.1 7.2
-3 2 -11 40.5 7.1
3 2 11 48.9 7.1
3 -2 -11 40.7 7.1
-3 -2 11 43.1 7.1
4 2 -11 17.2 2.7
-4 2 11 20.2 2.9
4 2 -11 16.9 2.7
4 2 -11 17.6 2.6
-4 -2 -11 15 2.8
4 -2 11 19.3 2.9
-4 2 11 11.3 2.7
4 -2 11 14.9 2.8
-4 2 11 15.1 2.8
4 2 -11 17.2 2.7
-4 -2 -11 9.2 2.7
4 -2 11 16.7 2.9
-4 -2 -11 16.9 2.8
-4 -2 -11 19.8 3
-4 2 11 14.9 3
-4 -2 11 18.9 2.8
4 2 11 16.6 2.8
-4 2 -11 17.4 2.9
4 2 11 18 2.8
4 -2 -11 15.9 2.8
4 -2 -11 19.4 2.8
4 -2 -11 14.1 2.8
-4 2 -11 15.5 2.8
4 -2 -11 17.9 2.8
-4 2 -11 16 2.9
4 2 11 19 2.8
-4 -2 11 17.3 2.7
-4 2 -11 13.3 2.8
5 2 -11 14.8 2.6
-5 -2 -11 20.1 2.9
-5 2 11 14.5 2.8
-5 2 11 16.2 2.8
-5 -2 -11 15.1 2.8
5 -2 11 21.3 2.9
-5 2 11 16.2 2.9
5 2 -11 16.1 2.6
5 -2 11 15.8 2.8
-5 2 11 17.8 2.8
5 -2 11 20.8 2.9
5 -2 11 14.8 2.9
5 2 11 17.3 2.8
-5 2 -11 18.9 3.5
-5 -2 11 16.2 2.7
5 -2 -11 17.9 2.8
-5 2 -11 15.3 2.8
-5 2 -11 12.3 2.7
-5 2 -11 14.9 2.8
-5 -2 11 13.7 2.6
5 2 11 18.2 3.1
5 -2 -11 14.4 2.7
5 2 11 15.1 2.7
5 -2 -11 14.7 2.7
5 -2 -11 12.6 2.7
6 -2 11 30.4 5
-6 2 11 26.4 4.9
-6 2 11 32.9 5.1
6 -2 11 28.2 5
-6 2 11 30.1 5
6 -2 11 25.4 4.9
-6 -2 -11 31.7 5
6 2 -11 32.8 4.7
-6 -2 -11 28.4 4.9
6 2 -11 30.5 4.8
-6 2 11 33.8 4.9
-6 -2 -11 28.6 4.9
6 -2 11 31 5
-6 -2 -11 27.8 4.9
6 -2 -11 30.5 4.9
-6 -2 11 33.7 4.8
-6 2 -11 24.3 4.9
-6 2 -11 32.1 5
6 2 11 33.7 5
6 2 11 31.3 4.9
6 -2 -11 37.3 5
6 -2 -11 23.7 4.8
-6 -2 11 28.6 4.9
-6 2 -11 26.9 4.9
6 2 11 36.1 5
-6 -2 11 30.3 4.7
6 -2 -11 27.9 4.9
-7 -2 -11 2.3 1.1
7 -2 11 1.9 1
7 2 -11 2.8 0.8
-7 2 11 2.9 1.1
-7 -2 -11 1.8 1.1
-7 2 11 2.7 1
7 -2 11 3.1 1
-7 2 11 3.3 1.5
-7 -2 -11 4.2 1.2
7 -2 11 3.1 1.3
-7 -2 -11 4.8 1.2
7 2 -11 2.9 1
7 -2 -11 2.7 1.2
7 2 11 5.3 1.5
7 -2 -11 2.4 1.2
7 -2 -11 2.7 0.9
7 -2 -11 1.3 1
-7 2 -11 1.6 1
-7 2 -11 3.8 1.2
7 2 11 3.7 1
7 2 11 3.4 1.1
8 2 -11 5.9 1.3
8 -2 11 4.4 1.5
-8 -2 -11 3.3 1.5
8 -2 11 6 1.7
8 2 -11 8 1.4
-8 -2 -11 12 1.9
-8 2 -11 7.2 1.6
8 -2 -11 5 1.6
8 2 11 6.7 1.5
8 -2 -11 6.7 1.4
8 -2 -11 5.3 1.4
-8 2 -11 8.3 1.7
8 2 11 5.4 1.5
8 2 11 5.5 1.5
8 2 11 7.9 1.6
0 3 11 -0.4 0.8
0 -3 11 0.2 0.6
0 -3 -11 -0.5 0.6
0 3 -11 -0.4 0.6
0 -3 11 -0.4 0.6
0 3 11 0.7 0.8
0 -3 11 0.6 0.6
0 3 11 0.7 0.7
0 -3 11 0.4 0.7
0 3 -11 1.1 0.6
0 3 -11 -1 0.5
0 -3 -11 0.9 0.7
0 3 11 -0.2 0.7
0 -3 -11 -0.6 0.7
0 -3 -11 -0.3 0.6
-1 -3 -11 2.1 1
-1 -3 -11 0.8 0.9
-1 -3 -11 3.9 0.9
-1 3 11 1.7 0.9
1 -3 11 0.9 0.7
-1 3 11 2.5 0.8
1 -3 11 1.7 0.8
-1 3 11 0.4 0.8
1 3 -11 2.5 0.7
1 3 -11 2.8 0.9
1 3 -11 1.3 0.7
1 3 -11 2.7 0.7
1 -3 11 1.1 0.7
1 -3 11 1.7 0.8
-1 -3 -11 3.3 0.9
-1 3 11 3.1 1.1
-1 3 -11 2.3 0.8
1 3 11 1.5 0.8
-1 -3 11 1.6 0.7
1 -3 -11 0.9 0.8
1 3 11 1.3 0.9
-1 -3 11 3.1 0.8
-1 -3 11 1.8 0.7
-1 -3 11 2.1 0.8
-1 3 -11 1.7 0.7
-1 3 -11 0.8 0.7
1 -3 -11 1.6 0.7
1 -3 -11 1.8 0.8
-1 3 -11 1.9 0.8
1 3 11 0.9 0.7
1 3 11 1.5 0.8
1 -3 -11 0.5 0.8
2 -3 11 1 0.7
-2 3 11 1.2 0.8
-2 3 11 0.9 0.8
-2 3 11 0.6 1
2 3 -11 0.9 0.7
-2 -3 -11 2.1 0.9
2 3 -11 0.2 0.6
-2 -3 -11 0.8 0.7
-2 3 11 0.1 0.6
2 -3 11 1.1 0.8
2 3 -11 0.9 0.5
2 -3 11 2.3 0.8
-2 -3 -11 1 0.7
2 -3 11 0.2 0.6
-2 -3 -11 0.1 0.7
2 -3 -11 0.3 0.7
2 3 11 -0.3 0.7
2 -3 -11 0.7 0.7
-2 3 -11 0.2 0.7
-2 3 -11 0.2 0.7
2 -3 -11 0.4 0.6
2 3 11 1.4 0.6
2 -3 -11 0.7 0.7
-2 3 -11 0.2 0.8
-2 -3 11 1.1 0.6
-2 3 -11 -0.3 0.7
-2 -3 11 0.6 0.6
-3 3 11 26 5.7
-3 -3 -11 33.2 5.7
-3 -3 -11 32.6 5.7
3 -3 11 36.3 5.8
3 3 -11 35.3 5.5
-3 -3 -11 36 5.7
3 3 -11 36.7 5.6
-3 3 11 33.7 5.8
3 3 -11 37.9 5.5
-3 3 11 42 5.8
3 3 -11 38 5.6
-3 -3 -11 31.8 5.6
3 -3 -11 37.3 5.8
3 -3 -11 38 5.6
3 3 11 34.1 5.6
-3 -3 11 32.9 5.5
3 3 11 39.1 5.7
-3 -3 11 33.2 5.5
3 3 11 35 5.7
3 -3 -11 27.3 5.6
3 -3 -11 40.5 5.6
-3 3 -11 41.5 5.8
3 3 11 38.6 5.6
-3 3 -11 36.9 5.8
-4 3 11 40.1 4.9
-4 -3 -11 30.8 4.6
4 -3 11 43.8 4.9
4 -3 11 27.1 4.6
4 -3 11 21.5 4.5
-4 -3 -11 29.4 4.6
-4 3 11 31.1 4.7
-4 3 11 30.2 4.6
4 3 -11 30.6 4.3
4 3 -11 27.1 4.3
4 3 -11 27.6 4.4
-4 3 11 26.4 4.5
4 3 -11 25.2 4.4
-4 -3 -11 18.9 4.5
-4 -3 -11 31 4.6
4 -3 -11 25.6 4.6
-4 3 -11 28.8 4.6
4 -3 -11 32.3 4.6
4 3 11 24.5 4.5
-4 3 -11 23.7 4.5
-4 -3 11 28.3 4.5
4 -3 -11 22.7 4.5
-4 -3 11 26.7 4.4
-4 3 -11 30.2 4.6
-4 -3 11 28.1 4.4
4 3 11 31.9 4.6
4 -3 -11 30.2 4.5
-4 3 -11 27 4.6
4 3 11 30.7 4.5
-5 -3 -11 3.5 1.1
-5 3 11 2.7 1
5 -3 11 4.1 1.1
-5 3 11 4.4 1.4
5 -3 11 3.8 1.1
5 -3 11 2.8 1.1
5 -3 11 3.8 1
-5 3 11 2 1.3
-5 -3 -11 4 1.1
-5 3 11 3.9 1.1
5 -3 -11 3.9 1.1
-5 -3 11 3.9 1.1
-5 3 -11 2.4 1.1
-5 -3 11 3.9 0.9
5 3 11 4.9 1.1
5 -3 -11 3 1.1
5 -3 -11 2.2 0.9
-5 -3 11 4.4 0.9
5 -3 -11 4.4 1.2
-5 3 -11 1.8 1.2
-5 3 -11 3.5 1.2
5 3 11 3.5 1.1
-5 3 -11 5.1 1.2
5 3 11 3.5 0.9
-6 -3 -11 4.1 1.1
6 -3 11 2.3 1
-6 3 11 2.1 1
-6 -3 -11 1 0.9
6 -3 11 2 0.9
6 -3 11 1.8 1.1
6 3 -11 2.1 0.8
-6 -3 -11 3 1.1
6 3 -11 2.9 0.7
-6 3 11 1.3 0.9
-6 -3 -11 2.6 0.9
6 -3 -11 3.1 0.9
-6 -3 11 3 0.8
-6 -3 11 3.6 0.8
-6 3 -11 2.3 1
-6 3 -11 1.9 1
6 3 11 1.7 0.8
6 -3 -11 2.5 1
6 3 11 0.4 0.9
-6 -3 11 3 0.9
6 3 11 2 0.8
-7 3 11 0.1 0.9
7 -3 11 -0.3 1
7 -3 11 1.2 0.9
-7 3 11 -0.3 1.1
7 3 -11 0 0.6
-7 -3 -11 0.5 0.8
-7 -3 -11 1.1 0.9
7 3 -11 0.4 0.7
-7 3 11 -0.7 0.8
-7 -3 -11 0.3 1
-7 -3 -11 0.7 0.9
-7 3 11 0 1.4
7 -3 -11 0.1 0.9
7 3 11 -0.6 0.6
-7 3 -11 -1.7 0.8
7 -3 -11 -0.3 0.7
-7 3 -11 -0.2 0.8
7 3 11 0.3 0.8
7 -3 -11 0.5 1
7 3 11 0.2 0.7
7 -3 -11 0.6 0.7
-8 -3 -11 0.5 1
8 -3 11 0.3 1
8 -3 11 1.8 1.2
8 -3 -11 1 1
8 -3 -11 1.5 1.2
-8 3 -11 1.6 1
8 3 11 2.1 1
8 3 11 1.6 0.9
8 -3 -11 1.1 1.2
8 -3 -11 1.8 0.9
-8 3 -11 0.7 1.1
8 3 11 1.5 1.2
8 3 11 1.2 0.9
0 4 -11 42.5 6.5
0 -4 11 34.9 6.5
0 4 11 38.7 6.6
0 -4 11 38.6 6.5
0 4 -11 47.7 6.5
0 -4 11 44 6.5
0 -4 -11 45.6 6.6
0 -4 -11 46.7 6.5
0 -4 -11 41 6.5
0 4 -11 36.3 6.5
0 -4 -11 41.8 6.5
0 4 11 49.1 6.8
0 4 11 37 6.5
0 -4 11 40 6.5
0 4 11 44.2 6.5
0 4 -11 42.9 6.5
-1 4 11 4.1 1.2
1 4 -11 5.3 1.2
1 4 -11 3.8 1.2
-1 -4 -11 4.1 1.3
1 4 -11 6.9 1.2
-1 -4 -11 4.8 1.3
1 -4 11 5.6 1.3
-1 -4 -11 4.5 1.3
-1 4 11 6.5 1.4
1 4 -11 5.5 1.2
1 -4 11 5.5 1.3
1 -4 11 3 1.2
-1 4 11 6.3 1.5
-1 4 11 9.4 1.5
1 -4 11 6.5 1.3
-1 -4 -11 6.3 1.3
-1 -4 11 11.2 1.4
-1 -4 11 9.2 1.3
1 4 11 5.8 1.3
1 4 11 7 1.3
1 -4 -11 6 1.3
-1 4 -11 8.5 1.4
1 -4 -11 4.6 1.3
-1 4 -11 8.2 1.3
1 -4 -11 3.3 1.2
-1 4 -11 6.6 1.3
1 4 11 5.4 1.3
-1 -4 11 6 1.2
1 -4 -11 5.2 1.3
-1 4 -11 4.8 1.2
-1 -4 11 3.5 1.2
1 4 11 6.3 1.3
-2 -4 -11 35.3 5.8
2 -4 11 30.1 5.9
-2 4 11 36.9 5.8
-2 4 11 44.3 6.1
-2 -4 -11 34.3 5.9
2 -4 11 38.7 5.8
2 -4 11 41.5 6
-2 -4 -11 41.3 5.9
2 -4 11 34.9 5.9
-2 -4 -11 39.9 5.8
2 4 -11 40.9 5.8
-2 4 11 35.8 5.8
2 4 -11 41.9 5.8
-2 4 11 34.7 5.9
2 4 -11 34.5 5.7
2 4 11 29.4 5.9
2 4 11 41.4 5.8
2 -4 -11 34.9 5.8
2 -4 -11 30.9 5.9
2 4 11 36.2 5.8
2 -4 -11 36 5.8
-2 -4 11 38.9 5.8
-2 4 -11 37.4 6
-2 4 -11 34.2 5.9
-2 4 -11 38.5 6
-2 -4 11 38 5.8
-2 -4 11 33.1 5.7
-2 -4 11 40.4 5.8
-2 4 -11 36.4 5.8
2 4 11 35.7 5.8
-3 -4 -11 15.4 2.8
-3 4 11 20.5 3
3 4 -11 18.7 2.8
-3 -4 -11 17.1 2.8
3 4 -11 14.9 2.6
3 -4 11 18.7 2.9
-3 -4 -11 21.2 3
3 4 -11 15.9 2.7
3 -4 11 8.8 2.7
-3 4 11 16.1 2.9
-3 4 11 21.3 3
3 -4 11 14.1 2.8
3 -4 11 16.3 2.9
-3 -4 -11 13.2 2.8
3 4 -11 15.1 2.7
-3 4 11 20.8 3.1
3 -4 -11 13.5 2.8
-3 4 -11 15.4 2.8
3 4 11 21 3
3 4 11 16.5 2.8
3 4 11 22.3 2.9
3 4 11 15.6 2.8
-3 -4 11 22.9 2.8
-3 4 -11 19.9 3
3 -4 -11 15.3 2.8
3 -4 -11 16.9 2.8
-3 -4 11 18.8 2.7
3 -4 -11 14 2.8
-3 4 -11 14.4 2.8
-3 4 -11 15.6 2.9
4 4 -11 49.6 8.9
-4 4 11 59.79 9.1
-4 -4 -11 60.29 9
4 -4 11 56.99 9.1
-4 4 11 59.99 9.1
4 -4 11 60.69 9.1
-4 4 11 64.09 9.1
4 -4 11 61.19 9.1
-4 -4 -11 69.19 9
4 4 -11 54.09 8.9
-4 -4 -11 55.39 9
-4 4 11 54.89 9.1
-4 -4 -11 56.49 9
4 -4 11 57.39 9
4 4 11 66.19 9
-4 4 -11 60.99 9.1
-4 4 -11 50.29 9
4 -4 -11 66.89 9.1
4 -4 -11 52.29 9
-4 -4 11 59.29 8.9
4 -4 -11 56.89 9.1
4 4 11 59.89 9
-4 -4 11 55.19 8.9
-4 -4 11 56.29 8.9
-4 -4 11 57.99 8.9
4 -4 -11 61.49 9.1
-4 4 -11 58.99 9.1
-4 4 -11 56.49 9.1
4 4 11 58.19 9
-5 4 11 28.2 5.5
-5 -4 -11 32.4 5.5
-5 4 11 44.9 5.7
5 -4 11 37.6 5.7
5 -4 11 49.7 5.9
5 -4 11 42.3 6
5 4 -11 38.2 5.3
-5 -4 -11 28.4 5.5
5 4 -11 30.4 5.3
5 -4 11 36.6 5.7
5 -4 -11 29.7 5.5
5 4 11 37.3 5.4
-5 -4 11 28.9 5.3
5 4 11 35.4 5.5
-5 4 -11 29.6 5.5
-5 4 -11 35.6 5.6
5 4 11 37.7 5.4
5 -4 -11 26.4 5.5
-5 -4 11 39.7 5.4
-5 -4 11 37.9 5.3
-5 -4 11 36.4 5.4
-5 4 -11 26.8 5.6
5 -4 -11 30.5 5.6
6 4 -11 -0.1 0.6
-6 -4 -11 -0.9 0.8
-6 -4 -11 2.1 0.9
-6 4 11 -1 1
-6 -4 -11 1.6 0.9
-6 4 11 -0.8 1.3
6 -4 11 0 0.8
-6 -4 -11 -0.5 0.7
-6 4 11 0.5 0.9
6 -4 11 0.3 0.8
-6 4 11 -0.5 0.9
6 4 11 -0.3 0.7
6 -4 -11 -1.1 0.8
-6 4 -11 0.4 0.8
-6 -4 11 -0.2 0.5
-6 4 -11 -0.7 0.7
6 4 11 0.3 0.6
6 4 11 0.3 0.8
6 -4 -11 -1 0.8
7 -4 11 8.8 1.6
-7 4 11 5.3 1.8
-7 -4 -11 3 1.2
-7 -4 -11 5.7 1.3
-7 -4 -11 5 1.3
-7 -4 -11 4.5 1.3
-7 4 11 3.2 1.3
7 -4 11 5.8 1.5
-7 4 11 6 1.6
-7 4 11 5.2 1.4
7 -4 -11 1.5 1
-7 4 -11 3.8 1.4
7 4 11 3.9 1.1
7 -4 -11 4.6 1.5
7 4 11 3 1.2
7 -4 -11 3.2 1.3
8 -4 11 3.5 1.3
8 -4 11 5.1 1.5
8 -4 -11 3.6 1.2
8 -4 -11 5.7 1.6
-8 4 -11 3.8 1.4
8 -4 -11 8.1 1.8
-8 4 -11 2.8 1.3
8 4 11 2.8 1.1
8 4 11 4.8 1.2
8 4 11 3.7 1.3
0 -5 11 0.4 0.7
0 5 11 0.2 0.6
0 5 11 0.1 0.9
0 5 11 -1.6 0.5
0 -5 -11 -0.9 0.6
0 -5 11 -1.1 0.5
0 5 11 1.8 0.8
0 -5 11 -0.3 0.7
0 5 -11 -0.7 0.6
0 5 -11 -0.2 0.6
0 -5 -11 -0.8 0.6
0 -5 11 0.1 0.7
0 -5 -11 -0.6 0.8
0 5 -11 0 0.6
0 -5 -11 0.1 0.6
0 5 -11 0.4 0.5
-1 -5 -11 13.1 2
1 -5 11 7.9 1.8
-1 5 11 9.7 1.8
1 -5 11 9.2 1.9
-1 -5 -11 7.8 1.8
1 -5 11 7.7 1.8
1 5 -11 12.1 1.8
-1 5 11 11 2
1 5 -11 8.3 1.7
1 5 -11 6.4 1.6
-1 5 11 6.6 1.7
-1 -5 -11 13.4 1.9
-1 5 11 7.7 1.8
1 5 -11 10.2 1.7
-1 -5 -11 7.1 1.7
1 -5 11 9 1.8
-1 5 -11 8.6 1.7
-1 -5 11 14.9 2
-1 5 -11 6.9 1.7
1 5 11 9.8 1.9
1 -5 -11 10.5 1.8
-1 -5 11 11.2 1.8
1 5 11 9.4 1.8
1 -5 -11 12.8 2
1 -5 -11 8.5 1.8
-1 5 -11 12.6 1.9
-1 -5 11 19.5 2
1 5 11 8.3 1.8
1 5 11 7.9 1.7
1 -5 -11 6 1.7
-1 5 -11 12.6 1.9
-2 -5 -11 18.3 3.1
-2 5 11 20.6 3.3
2 -5 11 18.5 3.2
2 5 -11 15.8 3
-2 5 11 15.6 3.1
-2 -5 -11 16.1 3.1
-2 -5 -11 16.3 3.1
2 5 -11 18.5 3
2 -5 11 24.5 3.3
-2 -5 -11 19.4 3.2
-2 5 11 19.5 3.3
-2 5 11 14.1 3
2 5 -11 19.1 3
2 -5 -11 18.9 3.1
2 5 11 20.9 3.2
-2 -5 11 20.3 3
-2 5 -11 26.5 3.4
-2 -5 11 24.3 3.1
2 -5 -11 14.9 3.1
-2 -5 11 22 3.1
2 5 11 15.9 3
2 5 11 14 3.1
2 -5 -11 12.2 3
2 5 11 13.9 3.1
-2 5 -11 18.1 3.1
-2 -5 11 20.5 3
3 -5 11 19.4 3
3 5 -11 23 2.8
3 5 -11 14.4 2.7
3 -5 11 18.5 3
3 -5 11 11.6 2.8
-3 5 11 16.9 2.9
-3 -5 -11 20.7 3
-3 -5 -11 16.3 2.9
-3 -5 -11 20.2 3
-3 5 11 11.6 2.8
3 5 -11 19.7 2.7
3 -5 11 11.6 2.8
-3 -5 -11 19.3 2.9
-3 5 -11 12.4 2.9
-3 -5 11 21.8 2.8
3 5 11 15 2.9
3 5 11 20.9 2.9
-3 5 -11 11.4 2.8
3 -5 -11 18.4 3
3 5 11 18.4 2.9
-3 5 -11 18.6 3
3 5 11 17.2 2.9
-3 -5 11 14.1 2.7
-3 5 -11 13.5 2.9
3 -5 -11 19.7 3
-4 5 11 4.9 1.2
4 5 -11 4 0.9
-4 5 11 5 1.5
-4 -5 -11 4.7 1.2
4 5 -11 3.6 1
-4 -5 -11 4 1.2
4 -5 11 5.4 1.3
-4 5 11 4.2 1.6
-4 -5 -11 4 1.1
4 -5 11 5.3 1.3
-4 5 11 3.9 1.2
-4 -5 -11 3.9 1.3
-4 -5 11 5.6 1
4 -5 -11 1.4 1.1
-4 -5 11 4.3 0.9
4 5 11 4.2 1.1
4 5 11 3.2 1.1
-4 5 -11 5.5 1.3
-4 -5 11 3.8 1
-4 5 -11 4.9 1.2
4 5 11 4.6 1.1
-4 5 -11 7.2 1.5
4 -5 -11 5.4 1.2
4 -5 -11 3.1 1.2
-4 5 -11 4.4 1.3
-5 -5 -11 5.4 1.2
-5 5 11 2.6 1.4
-5 5 11 3.7 1.2
5 -5 11 5.3 1.3
-5 5 11 5.2 1.6
5 -5 11 6.8 1.4
5 5 -11 5.6 1
5 5 -11 4.2 0.9
5 -5 11 6.7 1.4
-5 5 11 3.8 1.3
-5 -5 -11 6.1 1.3
5 -5 -11 4.9 1.2
-5 -5 11 4.6 1
5 -5 -11 3 1.2
5 -5 -11 3.2 1.2
5 5 11 4.5 1.1
5 -5 -11 6.4 1.5
5 5 11 4.9 1.1
-5 -5 11 6.2 1.1
-5 5 -11 4 1.3
-5 -5 11 3.7 1
-5 -5 11 6.9 1.1
-5 5 -11 4.4 1.3
5 5 11 3.4 1.2
6 -5 11 26.9 5.5
-6 5 11 40.1 5.8
-6 -5 -11 43.2 5.6
-6 -5 -11 32.6 5.5
-6 -5 -11 29.9 5.5
-6 5 11 41.5 5.8
-6 5 11 35.5 5.6
-6 5 11 31 5.6
6 -5 11 21.5 5.4
6 5 11 29.2 5.5
6 -5 -11 37.5 5.5
6 -5 -11 35.5 5.7
6 -5 -11 42.8 5.8
6 5 11 41.6 5.6
6 5 11 37.8 5.4
6 5 11 29.5 5.4
6 -5 -11 34.2 5.6
-6 5 -11 30.5 5.6
-6 5 -11 43.7 5.7
-7 -5 -11 27.9 4.2
-7 -5 -11 26.3 4.2
7 -5 11 30 4.4
-7 -5 -11 28.2 4.2
-7 -5 -11 29.8 4.3
7 -5 11 28.2 4.4
-7 5 11 24.9 4.3
-7 5 11 26.1 4.5
-7 5 11 19.9 4.2
7 5 11 17.5 4.2
-7 5 -11 24.2 4.3
7 5 11 20.5 4.1
7 5 11 25.5 4.1
7 -5 -11 18.5 4.2
7 -5 -11 25.2 4.3
-7 5 -11 25 4.3
7 5 11 31.7 4.3
7 -5 -11 22.5 4.2
-8 5 11 5.5 1.9
8 -5 11 6.6 1.7
8 5 11 6.7 1.4
8 -5 -11 4 1.4
8 5 11 4.2 1.3
8 5 11 5.8 1.6
8 5 11 10.3 1.6
8 -5 -11 2.9 1.4
-8 5 -11 8 1.7
8 -5 -11 8.7 1.8
-8 5 -11 5.3 1.6
0 -6 -11 118.19 15.3
0 6 -11 109.59 15
0 6 11 96.49 15
0 -6 11 111.69 15
0 -6 -11 82.59 15
0 6 -11 106.39 15
0 -6 11 99.09 15
0 6 11 102.19 15
0 -6 -11 88.09 15
0 6 -11 99.09 15
0 6 -11 86.09 14.9
0 -6 11 87.39 14.9
0 -6 11 91.09 14.9
1 -6 11 2.4 1
-1 -6 -11 1.1 0.8
1 6 -11 1.7 0.7
-1 -6 -11 0 0.8
1 -6 11 3.5 1
-1 -6 -11 2 1.1
1 6 -11 1.6 0.8
1 -6 11 2.1 0.9
1 6 -11 2.7 0.8
-1 -6 -11 2.3 0.9
-1 6 11 1.1 0.8
-1 6 11 2.3 0.8
1 6 -11 1.6 0.8
1 -6 11 1 0.7
1 6 11 1.2 0.9
1 -6 -11 2.5 1
-1 -6 11 2.4 0.9
-1 6 -11 1.7 0.8
1 -6 -11 1.8 1
1 6 11 1.7 1
-1 -6 11 1.9 0.8
-1 -6 11 3.2 0.8
-1 6 -11 1 0.7
-1 -6 11 2.1 0.8
2 6 -11 1.3 0.7
2 -6 11 2.9 1
2 -6 11 1 0.8
-2 -6 -11 3.1 0.9
2 -6 11 2.6 1
-2 -6 -11 1.6 1
-2 -6 -11 2.5 0.8
2 -6 11 2.8 1
2 6 -11 1.9 0.7
-2 -6 -11 0.6 0.9
-2 6 11 0.5 0.9
-2 6 11 1.8 1
-2 -6 11 1.4 0.7
-2 6 -11 1.3 0.9
2 6 11 2.3 0.9
2 6 11 3.5 0.8
-2 6 -11 2 0.8
2 6 11 2 1
2 6 11 1.3 0.8
-2 -6 11 3.3 0.8
-2 6 -11 1.9 0.9
-2 -6 11 1 0.8
-2 -6 11 3 0.8
-2 6 -11 2.9 0.9
2 -6 -11 2.1 0.9
-3 6 11 5.9 1.6
3 6 -11 8.7 1.4
-3 6 11 4.2 1.5
-3 -6 -11 9.4 1.6
-3 -6 -11 5.6 1.5
3 -6 11 8.6 1.7
3 6 -11 9.3 1.4
-3 -6 -11 9.1 1.7
3 -6 11 10.9 1.7
3 -6 11 5 1.5
-3 6 11 6.6 1.8
3 -6 11 4 1.6
-3 6 11 6.3 1.8
-3 6 -11 8.8 1.6
-3 -6 11 9.8 1.5
3 -6 -11 7.9 1.6
3 -6 -11 8 1.7
-3 6 -11 8 1.7
-3 6 -11 7.9 1.7
-3 6 -11 4.3 1.5
3 -6 -11 6.1 1.6
3 6 11 6.3 1.5
3 -6 -11 6 1.6
-3 -6 11 8 1.5
-3 -6 11 9.9 1.5
-4 6 11 40.6 6.4
4 6 -11 41 6.1
-4 6 11 41.2 6.6
-4 -6 -11 38.5 6.2
-4 6 11 42.7 6.5
4 -6 11 59.39 6.9
4 -6 11 37.5 6.4
4 6 -11 44.2 6.1
-4 -6 -11 33.2 6.3
4 -6 11 41.4 6.5
4 -6 11 34.7 6.3
4 -6 -11 35.7 6.3
4 6 11 38.8 6.4
-4 -6 11 39.8 6.1
-4 -6 11 41.2 6.1
4 -6 -11 33 6.3
4 -6 -11 34.8 6.4
4 6 11 39.2 6.2
4 -6 -11 35.8 6.3
4 6 11 37.3 6.2
-4 -6 11 42.3 6.1
-4 6 -11 37.3 6.4
-4 6 -11 38.5 6.5
5 -6 11 1.9 1
-5 6 11 3.8 1.1
5 -6 11 1.5 1
5 6 -11 1.7 0.6
-5 6 11 0.6 1.2
-5 6 11 3.5 1.6
-5 -6 -11 2.6 0.9
-5 6 11 0 1
5 6 -11 0.2 0.6
-5 -6 -11 -0.1 0.8
5 -6 -11 1.6 1.1
-5 6 -11 2.1 1.1
5 -6 -11 2.6 0.9
-5 -6 11 2.7 0.7
5 -6 -11 2.9 1.1
-5 -6 11 2.3 0.7
-5 6 -11 5.2 1.3
-5 -6 11 1.6 0.6
5 -6 -11 2.2 1
5 6 11 1.9 0.8
5 6 11 1.6 0.9
-6 -6 -11 63.89 9.3
-6 -6 -11 60.19 9.3
-6 6 11 53.39 9.5
-6 -6 -11 68.59 9.3
-6 6 11 52.89 9.5
6 -6 11 59.19 9.4
6 -6 11 56.79 9.4
-6 -6 -11 53.99 9.3
-6 6 -11 62.99 9.4
6 6 11 65.89 9.2
6 6 11 63.29 9.3
6 -6 -11 59.39 9.4
6 -6 -11 62.29 9.4
6 6 11 62.59 9.3
6 -6 -11 48.4 9.3
6 -6 -11 50.99 9.3
-6 6 -11 63.49 9.4
7 -6 11 0.1 1.1
-7 6 11 0.4 1.3
7 -6 11 2 1.1
-7 -6 -11 0.9 1
-7 6 11 1.4 1.4
-7 -6 -11 0.6 1
-7 -6 -11 1.1 1.1
-7 -6 -11 2 1.1
7 6 11 0.6 0.7
-7 6 -11 1.8 1.1
-7 6 -11 2.2 1.1
7 6 11 0.5 1
7 6 11 2.1 1.1
7 -6 -11 0.2 0.9
7 6 11 1.4 0.7
-8 6 11 -0.3 1.3
8 -6 11 -1.4 1.7
8 -6 11 -1 0.9
-8 6 11 -1.4 1.3
8 -6 -11 0.1 1.1
8 6 11 -0.5 0.9
8 -6 -11 -0.7 0.9
-8 6 -11 -0.8 0.9
8 6 11 0.9 0.8
8 6 11 1.2 0.8
8 -6 -11 0.1 1.2
8 6 11 -0.4 1.1
0 -7 -11 0.6 1
0 -7 -11 -0.8 0.7
0 7 11 0 1.2
0 -7 -11 0.9 0.9
0 -7 11 0.5 0.7
0 7 -11 0.7 0.6
0 7 11 -0.4 0.9
0 -7 -11 -0.9 0.8
0 7 11 0 0.6
0 7 -11 -0.3 0.6
0 -7 11 0.2 0.6
0 7 -11 0.3 0.7
0 -7 11 0.5 0.9
0 7 -11 0.5 0.6
0 -7 11 -0.6 0.7
-1 -7 -11 17.5 3.9
-1 7 11 25.5 4.1
1 7 -11 30.4 4
1 7 -11 23.7 3.8
1 -7 11 32.9 4.2
-1 7 11 32.4 4.3
-1 -7 -11 25.8 4
-1 7 11 22.7 3.9
-1 7 11 20.1 3.9
1 7 -11 26.9 3.9
1 -7 11 19.6 3.9
1 7 -11 17.2 3.8
-1 -7 11 18.6 3.8
-1 -7 11 19.6 3.8
-1 -7 11 28.4 3.9
1 -7 -11 19.7 3.9
-1 7 -11 31 4.1
1 -7 -11 24.2 4
1 7 11 23.9 3.9
-1 -7 11 28.7 3.9
1 -7 -11 21.7 4
1 -7 -11 25.5 4
2 -7 11 35.9 6
2 7 -11 35.1 5.6
2 7 -11 35 5.7
-2 7 11 40.5 5.9
-2 -7 -11 38.7 5.8
2 7 -11 37.3 5.6
2 7 -11 45.1 5.7
-2 7 11 29.4 5.9
-2 7 11 37.5 6
-2 -7 -11 36.5 5.8
2 -7 11 32.3 5.9
2 -7 11 37.7 6
-2 7 11 33.5 5.9
2 -7 11 32.6 5.8
2 -7 -11 45.3 6
2 -7 -11 34.4 5.9
-2 -7 11 37.2 5.7
2 -7 -11 27.1 5.8
-2 7 -11 33.2 5.8
-2 -7 11 34.6 5.7
-2 7 -11 30.8 5.8
-2 7 -11 33.9 5.9
-2 7 -11 38.4 5.7
2 -7 -11 29.8 5.8
-2 -7 11 33.6 5.7
-2 -7 11 47.7 5.7
2 7 11 35.5 5.8
3 -7 11 6.6 1.4
3 -7 11 4.4 1.3
-3 -7 -11 3.1 1.1
3 -7 11 3.1 1.4
-3 7 11 1.3 1.3
3 7 -11 3.5 0.9
3 7 -11 4.7 1
-3 7 11 5.3 1.4
3 7 -11 5.4 1
-3 -7 -11 5.3 1.3
3 7 -11 4.8 1
3 -7 11 1.3 1.1
-3 7 11 7.6 1.5
-3 7 11 4.5 1.5
3 -7 -11 6.3 1.3
-3 7 -11 3.2 1.3
-3 7 -11 4.5 1.3
-3 7 -11 3.8 1.2
3 -7 -11 3.1 1.2
3 7 11 4.2 1.1
-3 -7 11 4 1
-3 -7 11 5.2 1.1
3 -7 -11 5.2 1.4
-3 7 -11 4.9 1.4
3 7 11 4.3 1.1
-3 -7 11 3.4 1.1
-3 -7 11 6.6 1.2
3 -7 -11 3.2 1.2
-4 7 11 2.6 1.4
-4 -7 -11 1.3 1
4 -7 11 1.6 1
4 -7 11 2 1
-4 -7 -11 0.8 0.9
-4 7 11 1 0.9
-4 -7 11 1.4 0.7
4 -7 -11 1.6 1.1
4 -7 -11 0.9 0.9
-4 -7 11 1.9 0.8
4 7 11 2.5 0.9
4 7 11 2.8 0.8
-4 7 -11 0.7 0.9
4 -7 -11 1.4 0.9
-4 -7 11 0.8 0.7
4 -7 -11 0.6 0.9
-5 -7 -11 -1.2 0.8
-5 -7 -11 0.7 0.9
-5 -7 -11 -0.6 0.8
-5 7 11 1.1 1.3
5 -7 11 0.2 0.9
5 7 -11 0.8 0.6
-5 7 11 0.7 1.1
-5 -7 -11 1.2 0.8
5 7 -11 -0.2 0.6
5 -7 11 1 1
-5 7 -11 -1.1 0.7
5 7 11 -0.6 0.9
-5 -7 11 0.5 0.6
5 7 11 -0.2 0.6
-5 -7 11 0.6 0.6
5 -7 -11 1 0.9
5 -7 -11 0.3 1
-5 7 -11 1.3 1
5 7 11 0.6 1.1
5 7 11 0.8 0.6
-5 -7 11 -0.8 0.6
5 -7 -11 -0.7 0.9
6 -7 11 30.6 5
-6 7 11 35.3 5.2
-6 -7 -11 28.6 4.8
-6 -7 -11 31.4 4.8
6 -7 11 33.4 5
-6 7 11 34.1 5.1
-6 -7 -11 28.4 4.7
-6 -7 -11 32.3 4.8
-6 7 -11 32.8 5.8
6 7 11 26.6 4.7
6 -7 -11 25.7 4.8
6 7 11 31.2 4.8
-6 7 -11 31.6 5
6 7 11 26.8 4.8
6 -7 -11 23 4.9
6 -7 -11 27.5 4.9
6 7 11 24.4 4.8
-7 7 11 10.5 2.6
7 -7 11 16.3 2.7
-7 -7 -11 9 2.1
-7 -7 -11 12.8 2.3
7 -7 11 12.6 2.5
-7 7 11 8.8 2.5
7 -7 -11 10.5 2.4
7 7 11 13.4 2.3
-7 7 -11 14.9 2.4
7 7 11 10.3 2
7 7 11 10.4 2.3
7 7 11 8.4 2
7 -7 -11 10.8 2.3
-7 7 -11 16.5 2.6
0 8 11 102.59 15.5
0 8 11 109.39 15.5
0 8 11 94.29 15.4
0 -8 -11 90.19 15.4
0 -8 11 106.09 15.4
0 -8 -11 94.59 15.5
0 -8 -11 89.99 15.4
0 8 11 105.29 15.4
0 8 -11 91.09 15.4
0 8 -11 107.39 15.4
0 -8 11 114.49 15.5
0 -8 -11 99.59 15.4
1 8 -11 36.2 6.3
-1 -8 -11 34.4 6.4
1 -8 11 44.3 6.5
1 -8 11 42.7 6.5
1 8 -11 38 6.2
-1 8 11 35.1 6.4
1 -8 11 37.1 6.5
-1 -8 -11 47.7 6.6
-1 8 11 31.5 6.6
1 -8 11 45.3 6.3
-1 8 11 37 6.4
-1 8 11 40.9 6.6
-1 -8 -11 38.5 6.4
-1 -8 -11 39.9 6.4
1 8 -11 42.6 6.3
1 8 -11 45.5 6.3
1 -8 -11 33.2 6.5
-1 -8 11 35.4 6.2
1 8 11 43.8 6.3
-1 -8 11 39.8 6.3
-1 8 -11 41.7 6.4
1 8 11 35 6.5
1 -8 -11 42.5 6.5
1 -8 -11 41.1 6.5
-1 -8 11 41.9 6.5
1 8 11 37.3 6.3
-1 8 -11 49.7 6.4
1 8 11 41.5 6.5
-1 8 -11 33.7 6.4
-1 -8 11 40.9 6.3
-1 8 -11 48.8 6.6
1 -8 -11 32.6 6.4
-2 8 11 61.29 8.1
2 8 -11 48.5 7.5
2 -8 11 49.9 7.8
2 -8 11 45.1 7.8
2 8 -11 44.6 7.5
2 -8 11 59.69 7.6
-2 8 11 38 7.7
-2 8 11 47 7.6
-2 -8 -11 42.7 7.7
2 8 -11 48.1 7.5
-2 -8 -11 42.8 7.5
-2 -8 -11 39.8 7.6
-2 -8 -11 49.2 7.8
2 8 -11 51.49 7.5
-2 8 11 45.9 7.6
-2 8 -11 55.59 7.9
2 -8 -11 47.7 7.6
2 8 11 50.59 7.6
2 -8 -11 36.6 7.7
-2 -8 11 49.8 7.6
-2 -8 11 46.9 7.5
-2 8 -11 46.2 7.6
2 8 11 51.59 7.6
-2 8 -11 57.39 7.6
2 8 11 53.39 7.7
-2 -8 11 44.2 7.5
2 -8 -11 45.5 7.8
2 8 11 46.5 7.7
-2 8 -11 54.49 7.6
-2 -8 11 51.59 7.5
2 -8 -11 47.4 7.8
3 8 -11 104.69 15.5
-3 8 11 94.39 15.7
3 8 -11 106.69 15.5
-3 8 11 105.39 15.7
3 -8 11 99.99 15.6
-3 -8 -11 114.99 15.6
3 8 -11 101.39 15.5
-3 8 11 108.69 15.8
-3 -8 -11 122.79 15.6
3 8 -11 92.59 15.5
3 -8 11 102.79 15.6
-3 8 11 111.29 15.7
3 8 11 110.49 15.7
-3 -8 11 90.49 15.5
-3 -8 11 88.79 15.5
3 -8 -11 103.19 15.7
-3 8 -11 93.39 15.6
3 -8 -11 92.39 15.6
-3 8 -11 94.29 15.6
3 8 11 96.09 15.6
-3 -8 11 108.89 15.6
3 -8 -11 102.99 15.7
3 -8 -11 81.39 15.6
3 8 11 105.19 15.6
-3 -8 11 108.49 15.5
-4 8 11 168.58 24
4 -8 11 170.28 23.9
-4 -8 -11 169.28 23.9
4 -8 11 168.38 23.9
4 8 -11 174.18 23.7
-4 -8 -11 155.18 23.8
-4 8 11 151.48 24
-4 -8 -11 146.49 23.8
-4 -8 -11 161.78 23.8
-4 8 -11 152.28 23.9
4 -8 -11 120.59 23.8
4 8 11 163.68 23.8
-4 -8 11 143.89 23.7
-4 -8 11 167.18 23.7
-4 8 -11 173.78 23.9
4 8 11 140.99 23.8
4 -8 -11 140.09 23.9
4 -8 -11 167.78 24
4 8 11 164.28 23.9
-4 -8 11 132.39 23.7
-5 -8 -11 157.08 23.5
5 -8 11 168.18 23.6
-5 -8 -11 157.28 23.5
5 -8 11 137.39 23.6
-5 -8 -11 148.89 23.5
5 8 -11 151.78 23.4
-5 8 11 146.19 23.6
-5 8 11 154.08 23.7
-5 -8 -11 156.98 23.5
5 8 -11 153.68 23.4
5 -8 -11 144.59 23.6
5 8 11 149.79 23.5
-5 8 -11 148.89 23.6
5 8 11 145.99 23.5
5 8 11 151.68 23.5
5 -8 -11 173.18 23.6
-5 8 -11 163.58 23.6
-6 8 11 66.29 12.2
-6 -8 -11 81.49 11.9
-6 -8 -11 84.79 11.9
-6 -8 -11 67.39 11.9
6 -8 11 62.99 11.9
-6 -8 -11 82.59 11.9
6 -8 11 77.29 12
6 -8 -11 68.59 12
-6 8 -11 88.49 12
-6 8 -11 75.09 12.9
6 -8 -11 77.19 12
6 8 11 81.79 11.9
-7 8 11 43 6
-7 -8 -11 28.4 5.4
-7 8 11 32.6 5.9
7 -8 11 34.6 5.6
7 8 11 31.9 5.5
7 8 11 38.8 5.6
7 -8 -11 27.6 5.5
7 8 11 28.1 5.3
7 8 11 42.6 5.4
0 9 -11 0.9 0.7
0 -9 11 -0.8 0.7
0 -9 -11 -0.6 0.8
0 9 -11 0.4 0.7
0 9 11 -0.9 0.6
0 9 11 0 1.2
0 -9 -11 -0.6 0.7
0 -9 11 -1.4 0.8
0 9 -11 -0.6 0.7
0 -9 11 -0.9 0.7
0 9 11 0.1 1.1
0 -9 -11 0.2 1.1
0 -9 11 0 0.7
0 -9 -11 -0.6 0.9
0 9 11 -1.2 0.7
1 9 -11 3.8 1.1
-1 -9 -11 2.2 1
1 9 -11 6 1.1
1 9 -11 3.4 0.9
-1 9 11 5 1.5
-1 -9 -11 5 1.4
-1 -9 -11 6.5 1.4
1 -9 11 3.2 1.1
-1 -9 -11 2.3 1.1
1 -9 11 3.5 1.1
1 -9 11 3.4 1.2
-1 9 11 3.5 1.2
-1 9 11 7.2 1.6
1 -9 11 3.5 1.3
-1 9 11 4 1.2
1 9 -11 2.7 1
-1 9 -11 4.1 1.1
-1 -9 11 4.3 1.1
-1 -9 11 3.5 1.1
1 -9 -11 5.7 1.5
-1 9 -11 2.4 1
1 -9 -11 3.6 1.2
1 -9 -11 3 1.5
1 9 11 2.9 1
1 9 11 4 1.4
-1 -9 11 3.5 1.2
-1 -9 11 4 1.1
1 -9 -11 3.5 1.2
-1 9 -11 2.4 1.1
1 9 11 0.9 1.2
-1 9 -11 2.3 1.1
1 9 11 2.6 1
2 9 -11 14.3 2.4
-2 -9 -11 8.6 2.5
2 -9 11 9.7 2.5
2 -9 11 15.6 2.6
-2 9 11 12.6 2.7
2 9 -11 14.8 2.4
2 -9 11 15.9 3.2
-2 -9 -11 7.6 2.3
-2 -9 -11 13.2 2.6
2 9 -11 12.1 2.4
2 9 -11 19.4 2.5
-2 -9 -11 13.8 2.5
-2 9 11 10 2.6
2 9 11 14.5 2.4
2 9 11 13.3 2.7
-2 -9 11 15.1 2.4
-2 9 -11 17.8 2.7
-2 9 -11 10.8 2.5
2 9 11 13.1 2.7
2 9 11 13.6 2.4
-2 -9 11 10.3 2.4
2 -9 -11 13.6 2.5
-2 9 -11 17 2.7
-2 -9 11 16.6 2.5
-2 -9 11 15.3 2.4
2 -9 -11 16.9 2.7
3 9 -11 0.9 0.8
-3 -9 -11 1.8 1
-3 -9 -11 1 0.8
3 9 -11 0.6 0.7
3 -9 11 0.8 0.9
3 -9 11 1.5 0.9
3 9 -11 0.8 0.8
-3 -9 -11 1.3 0.9
-3 9 11 4 1.3
-3 9 11 1.5 1.3
-3 -9 -11 1 1
-3 9 -11 0.4 0.9
3 9 11 0.9 1
3 9 11 1 0.7
3 -9 -11 0 1.1
-3 -9 11 1.3 0.8
3 9 11 0.5 0.7
3 -9 -11 1.9 1.1
-3 9 -11 0.5 0.8
-3 -9 11 2.3 0.7
3 9 11 2.4 1.2
-3 -9 11 1.4 0.7
-3 -9 11 0.2 0.8
-4 -9 -11 2.2 1
-4 -9 -11 -0.7 0.9
-4 9 11 0.3 1.1
4 -9 11 0.3 0.9
4 9 -11 1.4 0.6
-4 -9 -11 0.9 0.8
-4 -9 -11 1.6 0.8
4 -9 11 1.1 1
-4 9 11 0.3 1.5
-4 9 -11 1 0.9
-4 -9 11 1.6 0.7
-4 -9 11 -0.4 0.7
-4 9 -11 -1.1 0.8
-4 -9 11 -0.3 0.8
4 -9 -11 0.3 1
-4 -9 11 0.3 0.7
4 9 11 0.8 0.7
4 9 11 0 1.1
4 9 11 0.6 1.1
4 -9 -11 1.2 1
-5 9 11 -1 1.4
5 -9 11 1.3 1.1
-5 -9 -11 0 1
5 9 -11 -0.3 0.6
5 9 -11 1.3 0.7
-5 -9 -11 -0.3 0.9
-5 -9 -11 0.3 0.9
-5 -9 -11 0.2 0.8
-5 9 11 0.2 1.2
5 -9 -11 2 1.2
5 9 11 0.5 0.8
-5 9 -11 -0.2 0.8
5 -9 -11 1.1 1.1
5 9 11 1 1.1
5 9 11 1 0.7
-6 -9 -11 78.19 12.6
-6 -9 -11 81.69 12.6
-6 -9 -11 75.29 12.6
-6 -9 -11 85.49 12.6
-6 9 11 88.49 12.9
-6 9 11 77.69 12.8
6 -9 11 77.59 12.7
6 9 11 81.09 12.7
6 -9 -11 80.39 12.7
-6 9 -11 84.79 12.7
-6 9 -11 88.09 12.8
6 9 11 78.89 12.5
6 9 11 78.89 12.6
6 -9 -11 90.69 12.8
-7 9 11 18.2 4
7 -9 11 22.7 4
-7 9 11 18.7 4
7 9 11 24.5 3.9
7 9 11 22.6 3.9
-7 9 -11 20.8 3.9
7 9 11 24.5 3.7
-7 9 -11 19.1 3.8
7 -9 -11 20.7 4
7 9 11 23.6 3.8
7 -9 -11 21.5 4
0 -10 -11 -1.1 0.8
0 10 -11 0.2 0.7
0 10 -11 -0.9 0.7
0 10 11 0.1 0.7
0 10 -11 0.7 0.7
0 -10 11 -0.4 0.8
0 10 11 0.9 1.3
0 -10 -11 -0.2 0.8
0 10 -11 0.1 0.8
0 10 11 1.7 1.5
0 -10 11 -0.3 0.9
0 -10 11 -0.3 0.8
0 -10 11 -0.2 0.8
-1 -10 -11 2.3 1
1 10 -11 1.9 0.8
-1 10 11 2.6 1.3
-1 -10 -11 2.9 1.4
1 -10 11 1 1
1 -10 11 0.3 0.8
1 -10 11 1.9 1.1
-1 -10 -11 0.2 0.8
1 10 -11 1.3 0.8
-1 -10 -11 1.2 1.1
1 -10 11 1.6 1.1
-1 10 11 3.6 1.4
-1 10 -11 -0.2 0.8
1 -10 -11 1.4 1
1 -10 -11 0.7 1
1 10 11 0.4 1.2
-1 -10 11 2.1 1.1
-1 10 -11 1.2 0.9
1 10 11 3.9 1.4
-1 -10 11 5.9 1.1
1 10 11 2.8 0.9
-1 10 -11 0.5 0.7
1 10 11 2.3 0.9
-1 10 -11 3.2 1
2 -10 11 9.2 2.1
-2 10 11 5.6 2.2
2 10 -11 10.8 2
2 10 -11 10.2 2
-2 -10 -11 10.8 2.2
2 10 -11 11.5 2.1
-2 -10 -11 12.4 2.4
-2 10 11 9.6 2.3
2 -10 11 12.8 2.3
-2 -10 -11 12.7 2.2
2 10 -11 17.2 2.2
-2 -10 -11 7.8 2
2 10 11 11.6 2.3
2 -10 -11 11.8 2.2
-2 -10 11 13.7 2.2
-2 10 -11 10 2.2
-2 -10 11 8.9 2
-2 10 -11 10.4 2.1
-2 -10 11 9.3 2
-2 -10 11 10.3 2.1
2 10 11 14.4 2.2
2 -10 -11 9.9 2.2
2 10 11 9.5 2.1
2 10 11 11.3 2.3
-3 -10 -11 1.5 0.9
-3 -10 -11 1 0.9
-3 -10 -11 0.2 1
3 -10 11 -0.1 0.9
3 10 -11 0.7 0.7
3 10 -11 -0.4 0.6
3 10 -11 0.3 0.7
-3 10 11 1.3 1.2
-3 10 11 0.8 1.3
3 -10 11 -0.6 0.9
-3 -10 -11 -0.2 1.1
3 -10 -11 0.9 1
-3 -10 11 0.5 0.9
-3 10 -11 0.1 0.9
3 10 11 -0.2 0.6
-3 -10 11 2.1 0.8
-3 -10 11 1.3 0.8
-3 10 -11 -1.4 0.7
3 -10 -11 -1 0.9
-3 -10 11 1.1 0.7
3 10 11 0.9 1.3
3 10 11 -1 1.1
3 10 11 1 0.7
-4 -10 -11 4.4 1.5
-4 -10 -11 4.2 1.4
4 10 -11 8.3 1.4
-4 10 11 3.5 1.9
4 -10 11 5.5 1.6
4 -10 11 5.8 1.6
-4 -10 -11 3.9 1.5
-4 10 11 4.7 1.7
4 10 -11 7.3 1.4
-4 -10 -11 4.3 1.3
4 -10 -11 5.8 1.6
-4 10 -11 5.2 1.5
-4 10 -11 9.2 1.8
4 10 11 6.1 1.7
4 10 11 5.6 1.3
4 10 11 6.8 1.7
-4 -10 11 5.9 1.3
-4 -10 11 5.4 1.3
4 10 11 7.1 1.5
-4 -10 11 6.9 1.3
-4 -10 11 8.9 1.6
-5 10 11 26.9 4.2
-5 -10 -11 24.4 3.7
5 10 -11 21.9 3.5
-5 -10 -11 21 3.7
5 10 -11 22.7 3.5
5 -10 11 19.2 3.8
-5 -10 -11 19.6 3.7
-5 10 11 18.1 3.9
-5 -10 -11 28.3 3.8
-5 10 -11 19.3 3.8
-5 10 -11 29.4 4
5 -10 -11 18.1 3.8
5 -10 -11 16.1 3.8
5 10 11 17.6 3.5
5 10 11 21 3.7
-6 10 11 27 4.5
6 -10 11 21.8 4.2
-6 10 11 29.1 4.6
-6 -10 -11 22.1 4
-6 -10 -11 24.5 4
-6 -10 -11 26.5 4.1
6 -10 -11 22.5 4.2
6 -10 -11 18.6 4.1
6 10 11 19.4 4.1
6 10 11 28.4 4
6 10 11 23 4
-6 10 -11 23.3 4.2
7 -10 11 17.2 2.9
7 -10 11 13.1 2.7
7 10 11 12.2 2.3
-7 10 -11 9.9 2.6
-7 10 -11 14.7 2.7
7 10 11 14.5 2.7
7 10 11 14.2 2.7
7 -10 -11 14.4 2.7
0 11 -11 -0.2 0.6
0 -11 -11 -0.6 0.9
0 11 -11 -1.1 0.7
0 11 -11 -0.7 0.7
0 -11 11 -0.5 1
0 11 11 0.8 1.2
0 -11 11 0.4 0.8
0 11 -11 -0.7 0.7
0 -11 11 -0.5 0.9
0 -11 11 0.7 1
0 -11 -11 -0.3 0.9
-1 11 11 1.1 1.4
1 11 -11 2.4 0.9
1 11 -11 3.8 1.1
-1 -11 -11 3.3 1.1
1 11 -11 2.4 0.9
-1 -11 -11 1.5 1.1
1 11 -11 0.5 0.9
-1 11 11 1.3 1.2
1 -11 11 0.9 1
1 -11 11 0.6 0.9
-1 -11 11 1.6 0.9
-1 -11 11 1.3 1
1 -11 -11 0.9 1.1
1 -11 -11 0.6 1
-1 11 -11 2 0.9
-1 11 -11 -0.5 0.9
-1 -11 11 2.4 1.1
1 11 11 1.2 1.3
-1 -11 11 1.5 0.9
1 11 11 2.4 1.3
2 11 -11 84.49 12.7
2 -11 11 96.69 12.8
2 11 -11 90.39 12.7
-2 11 11 80.79 12.8
-2 11 11 79.89 12.9
2 11 -11 72.89 12.6
-2 -11 -11 99.99 12.8
-2 -11 -11 71.69 12.7
2 -11 11 85.79 12.7
2 -11 -11 69.69 12.7
2 11 11 76.29 12.8
2 11 11 79.59 12.7
2 -11 -11 76.69 12.7
-2 -11 11 70.69 12.7
2 11 11 90.99 12.8
-2 11 -11 84.39 12.7
-2 -11 11 88.09 12.7
3 11 -11 43.2 6.9
3 -11 11 42.5 7.1
-3 -11 -11 36.3 7
3 11 -11 45.1 6.8
3 11 -11 44.3 6.9
-3 11 11 35.1 7.1
3 -11 11 45.3 7.2
-3 11 11 38.1 7.3
3 11 -11 52.59 6.8
-3 -11 -11 42.5 7
-3 -11 11 39.8 6.8
-3 -11 11 46.5 6.9
3 11 11 48.3 6.9
3 11 11 51.79 7.3
3 11 11 34.3 6.9
3 -11 -11 39.3 7
-3 11 -11 37.7 7.1
-3 -11 11 46.9 6.9
3 11 11 52.69 7.2
3 -11 -11 35.3 7.1
-3 11 -11 48.2 7.2
-3 -11 11 48.4 7.1
-4 -11 -11 48.7 6.6
4 -11 11 36.5 6.7
4 11 -11 39.1 6.5
-4 -11 -11 40.7 6.7
-4 11 11 38.9 7
4 -11 11 38.3 6.8
4 11 -11 47.3 6.5
-4 11 11 35.8 6.9
-4 -11 -11 42.3 6.7
4 11 -11 38.3 6.4
-4 11 -11 29.4 6.6
-4 -11 11 56.19 6.7
-4 11 -11 50.39 7
4 -11 -11 38.9 6.8
-4 -11 11 45.7 6.7
4 -11 -11 34.9 6.8
4 11 11 29.5 6.6
-4 -11 11 45.2 6.5
-4 -11 11 48.7 6.5
4 11 11 43.5 6.8
4 11 11 37.4 6.8
-5 -11 -11 10.1 2.1
5 11 -11 10.4 1.9
-5 11 11 10.4 2.7
-5 -11 -11 17.2 2.3
-5 -11 -11 14.6 2.3
-5 11 11 8 2.6
5 -11 -11 8.1 2.2
5 11 11 7.5 2
5 -11 -11 14.2 2.5
5 11 11 10.9 2.4
5 11 11 11.4 2.4
6 -11 11 -0.8 0.9
6 -11 11 -0.6 1.1
6 11 11 -0.4 0.9
-6 11 -11 0.3 0.9
-6 11 -11 -0.5 1.1
6 11 11 0.2 0.7
6 11 11 0.3 1.3
6 -11 -11 -0.1 1
6 11 11 2.1 1.4
0 12 11 3.9 1.7
0 -12 -11 3.6 1.3
0 12 -11 4.3 1.2
0 -12 11 3.7 1.2
0 12 11 3.1 1.4
0 -12 -11 1.2 1.2
0 12 -11 3.7 1.2
0 12 -11 3.9 1.2
0 -12 11 2.9 1.2
1 12 -11 1.1 0.8
1 12 -11 1.7 0.8
-1 12 11 0.6 1.2
1 12 -11 0.6 0.8
-1 12 11 -0.6 1.3
1 12 -11 -0.1 0.8
-1 -12 -11 1.1 1
1 -12 11 0.5 1
1 -12 11 -1 0.8
-1 -12 11 -1.7 1.1
-1 -12 11 0.3 1.1
1 12 11 2.1 1.3
-1 -12 11 0.5 0.9
1 -12 -11 0.2 1
-1 -12 11 0.5 0.9
1 -12 -11 1.3 1
-1 12 -11 2 0.9
-1 12 -11 -1 0.9
1 12 11 1.6 1.2
2 12 -11 45.6 6.4
-2 12 11 40.2 6.7
-2 -12 -11 35.5 6.5
2 -12 11 33.4 6.5
2 -12 11 43.7 6.7
2 12 -11 52.59 6.4
-2 12 11 37.7 6.7
2 12 -11 43.9 6.6
-2 -12 -11 44.6 6.7
-2 12 -11 31.6 6.5
-2 12 -11 37.7 6.5
2 -12 -11 34.9 6.5
2 12 11 44.9 6.8
-2 -12 11 34.6 6.4
-2 -12 11 32.3 6.4
-2 -12 11 54.99 6.8
2 -12 -11 35.8 6.6
-2 -12 11 50.09 6.6
2 12 11 38 6.6
3 12 -11 1.9 0.8
-3 12 11 1.6 1.6
3 -12 11 1.5 1.1
-3 -12 -11 1.7 1
3 12 -11 2.2 0.9
-3 -12 -11 1.2 0.9
3 -12 11 3.5 1.2
3 12 -11 0.9 0.9
-3 12 11 0.3 1.3
3 12 11 1 1.3
-3 -12 11 1.4 0.9
3 12 11 -1.1 1.3
-3 -12 11 1.6 1.1
3 -12 -11 1.3 1.1
-3 12 -11 1.1 1.1
-3 -12 11 0.8 1
3 12 11 0.9 0.7
-3 12 -11 0.7 1
3 -12 -11 2.8 1.2
-4 -12 -11 45.2 6
4 12 -11 32.5 5.6
-4 12 11 33.7 6.2
-4 12 11 34.5 6.2
4 12 -11 43.6 5.8
-4 -12 -11 49.2 6.1
4 12 -11 38.7 5.7
-4 -12 11 40.2 5.9
4 -12 -11 27 5.9
4 -12 -11 25.3 5.9
4 12 11 31 5.8
4 12 11 35.5 6
-5 -12 -11 9.3 2.1
-5 -12 -11 13.9 2.3
5 12 -11 12.6 2.1
5 -12 11 8.1 2.3
5 -12 11 7 2.2
5 12 -11 13.3 2.1
-5 12 -11 10.8 2.4
5 12 11 9.1 2.4
-5 12 -11 9.8 2.3
5 12 11 11.9 2.4
6 -12 11 1 1.3
-6 12 11 1 1.5
-6 12 11 2.4 1.7
6 -12 11 0.8 1.2
6 -12 -11 -0.9 1
-6 12 -11 0.4 1.1
6 12 11 0.8 1.2
-6 12 -11 -0.5 1.1
6 -12 -11 0.1 1.4
6 12 11 -2 1.2
0 -13 -11 0.8 1
0 13 11 -1 1.1
0 13 -11 0.4 1
0 -13 -11 1.1 1.1
0 -13 11 0.5 0.9
0 13 -11 0.4 0.9
0 13 11 1.2 1.4
0 -13 11 -0.5 0.8
1 13 -11 12.1 1.9
1 -13 11 6.8 1.8
1 -13 11 9.7 1.9
-1 13 11 6.6 2
-1 13 11 7.1 2.2
-1 -13 -11 6.9 1.8
1 13 -11 9.5 2
1 13 -11 6.2 1.7
1 13 -11 6.2 1.6
-1 -13 -11 6.3 1.8
1 -13 -11 7.9 1.9
-1 -13 11 6.8 1.7
-1 13 -11 5.9 1.7
1 -13 -11 9.1 1.9
1 13 11 7.3 2
1 13 11 6.7 1.9
-1 -13 11 7.5 1.8
-1 13 -11 7.4 1.8
2 13 -11 6.3 1.4
-2 13 11 2.8 1.8
2 -13 11 5 1.4
2 13 -11 3.9 1.2
-2 13 11 4.5 1.6
-2 -13 -11 3.7 1.5
2 13 -11 6 1.3
2 -13 11 5.6 1.4
2 13 -11 6.2 1.2
-2 -13 -11 2.1 1.2
-2 -13 11 5.5 1.5
2 -13 -11 6.2 1.6
-2 13 -11 3.4 1.2
2 13 11 1.4 1.4
2 13 11 4.2 1.7
-2 -13 11 5.2 1.5
2 -13 -11 4.2 1.5
-2 -13 11 2.9 1.2
-2 -13 11 3.6 1.3
-2 13 -11 1.5 1.4
3 -13 11 15 3.2
3 13 -11 19.3 2.9
3 13 -11 20.1 3.1
3 13 -11 18.9 3.1
-3 13 11 18.5 3.5
3 -13 11 13.6 3.1
-3 -13 -11 16.2 3.1
-3 -13 -11 17.4 3.1
3 13 -11 22.4 3
-3 13 11 10.5 3.2
3 13 11 18.7 3.3
-3 -13 11 17.3 3.1
3 -13 -11 10.6 3
3 -13 -11 13 3.1
-3 -13 11 12.7 3
-3 13 -11 14.1 3.2
3 13 11 21.1 3.5
-3 -13 11 22.7 3.2
-3 -13 11 15.3 2.9
-3 13 -11 20 3.3
-4 -13 -11 -0.1 1
-4 -13 -11 -0.2 0.8
-4 13 11 -1.7 2.4
4 13 -11 2 0.9
-4 13 11 -1.7 1.4
4 -13 11 -0.1 1
4 13 -11 1.4 0.7
4 13 -11 1.1 0.9
4 -13 11 0 1.1
-4 13 -11 0.1 1.2
4 13 11 -1.5 1.3
4 13 11 0.2 0.7
4 13 11 2 1.3
-4 13 -11 1.6 1
-5 -13 -11 9.3 1.6
-5 13 11 5.9 2.1
-5 13 11 4.9 1.9
5 13 -11 5.8 1.4
5 -13 11 7.2 1.9
5 -13 11 4.3 1.6
5 13 -11 7.1 1.4
-5 -13 -11 1.8 1.4
5 13 11 5.5 1.4
5 -13 -11 7.5 2
-5 13 -11 5.2 1.8
5 13 11 6.5 2
5 -13 -11 2.9 1.5
5 13 11 2.1 1.6
-5 13 -11 6.5 1.8
0 -14 11 -0.2 0.9
0 -14 -11 1.1 1.1
0 14 -11 1.5 0.9
0 -14 11 0.5 1.1
0 14 -11 0.3 1.1
0 14 11 0 1.2
0 14 11 1.7 1.6
0 -14 -11 1.2 1.1
1 14 -11 1.1 0.9
1 14 -11 1.1 1.1
1 -14 11 3.1 1.3
-1 14 11 1.1 1.5
1 -14 11 2.3 1.2
-1 -14 -11 1.5 1.2
1 14 -11 2.8 1
-1 -14 -11 1.9 1.2
-1 14 11 3.8 1.5
-1 -14 11 0.2 1
1 -14 -11 0.9 1.1
1 14 11 -0.4 1.3
-1 14 -11 1.1 1
-1 14 -11 2.4 1.3
-1 -14 11 1.3 1
1 14 11 2.5 1.6
1 -14 -11 2.1 1.2
2 14 -11 0.4 0.8
2 -14 11 0.3 1.1
-2 -14 -11 -0.7 1
2 14 -11 0.1 1.1
-2 -14 -11 -0.4 1
2 14 -11 0.1 0.9
2 14 -11 1.9 0.9
2 -14 11 -0.5 1
-2 -14 11 -1.3 0.8
-2 -14 11 0.9 1
-2 14 -11 1.5 1.3
-2 -14 11 -0.4 1.1
2 14 11 1.8 1.3
2 14 11 1.1 1.4
-2 14 -11 1 0.9
-3 14 11 -0.8 1.6
-3 -14 -11 0.8 1.2
3 -14 11 3.2 1.5
3 14 -11 -1 0.9
-3 -14 -11 4.6 1.3
3 14 -11 2 0.9
3 14 -11 0.9 1.1
3 -14 11 0 1.1
3 14 -11 2.3 1.1
3 -14 -11 1.9 1.3
-3 14 -11 2 1.3
-3 -14 11 2.7 1.3
3 -14 -11 2.4 1.2
-3 -14 11 0.9 1
-3 -14 11 2.9 1.1
3 14 11 2.3 1.5
3 14 11 1.5 1.4
-3 -14 11 0.1 1.1
4 -14 11 2.6 1.3
4 -14 11 8.3 1.9
4 14 -11 2 1
-4 14 11 1.2 1.8
4 14 -11 4.7 1
-4 -14 -11 3 1.2
4 14 -11 3.2 1.1
-4 14 11 0.2 1.4
-4 -14 -11 3.2 1.4
4 -14 -11 3.2 1.4
4 -14 -11 4.2 1.5
4 14 11 1.5 1.7
4 14 11 5.6 1.6
-4 14 -11 3.9 1.5
-4 14 -11 3.7 1.4
0 -15 -11 -0.2 1.1
0 -15 11 -0.3 1
0 15 -11 -0.4 1.2
0 15 11 2.2 1.6
0 15 11 2.1 1.5
0 -15 11 -0.3 0.9
0 15 -11 0 0.9
1 -15 11 1.2 1.1
1 -15 11 2 1.4
1 15 -11 -0.4 0.8
-1 -15 -11 2.8 1.5
1 15 -11 0.6 1.2
-1 -15 -11 1.6 1.2
-1 -15 11 2.1 1.2
1 15 11 1.3 1.4
-1 15 -11 0.8 1.5
1 15 11 1.9 1.6
-1 15 -11 2.2 1.1
-1 -15 11 2 1.1
-2 -15 -11 8 2
-2 15 11 9.3 2.3
2 15 -11 8.3 1.7
-2 15 11 3.1 2.3
-2 -15 -11 11.1 2.1
2 15 -11 7.2 1.9
2 15 -11 6.8 1.7
-2 -15 11 9.1 1.9
2 15 11 5.5 2.1
2 -15 -11 7.3 2
2 15 11 9.1 2.2
2 -15 -11 9.1 2.1
-2 -15 11 8.6 1.9
3 15 -11 1.4 1.1
-3 15 11 2.8 1.7
-3 -15 -11 1.7 1.2
-3 -15 -11 0.7 1.2
-3 15 11 0.1 1.6
3 -15 11 1.6 1.2
3 15 -11 1.4 1.1
3 -15 11 -0.3 1.1
3 15 -11 0.5 0.9
3 15 -11 0.9 0.9
3 15 11 4.2 1.8
3 -15 -11 0.3 1.4
-3 15 -11 1 1.1
3 -15 -11 0.2 1.1
4 -15 11 11.2 2.7
-4 -15 -11 9.3 2.2
4 15 -11 9.5 2.1
4 -15 11 11.2 2.5
4 15 -11 11.8 2.2
4 15 -11 10.3 2
-4 15 11 15.1 2.9
-4 -15 -11 7.8 2.1
4 15 -11 9.2 1.9
-4 15 11 10.8 2.8
4 15 11 9.1 2.4
-4 15 -11 14.1 2.6
4 -15 -11 12.6 2.6
4 15 11 10.4 2.6
-4 15 -11 8.8 2.3
0 -16 -11 33.2 6.3
0 16 11 34.5 6.7
0 -16 -11 41 6.5
0 16 -11 45.8 6.6
0 -16 11 37.8 6.4
0 -16 11 36.7 6.3
1 16 -11 5.4 1.6
1 16 -11 11.3 2.1
-1 16 11 6.3 2.1
-1 16 11 8.3 2.4
1 16 11 8.3 2.1
-1 -16 11 7.4 1.8
1 -16 -11 7.6 2.1
-1 16 -11 4 1.6
1 -16 -11 11.4 2.1
-1 -16 11 10.5 2.1
2 -16 11 -0.1 1
-2 16 11 -2 1.5
-2 16 11 -0.3 1.4
2 16 -11 1.3 1.1
-2 -16 -11 2 1.3
2 -16 11 0.4 1.1
2 16 -11 0.1 1.1
2 16 -11 0.3 0.9
-2 -16 11 0.1 1.1
2 -16 -11 1.3 1.2
-2 16 -11 -1.3 1.2
2 -16 -11 0.1 1.2
-2 16 -11 1.8 1.1
2 16 11 0.2 1.4
2 16 11 -0.9 1.5
-2 -16 11 1.9 1.2
3 -16 11 0 1.1
-3 -16 -11 3.1 1.4
3 -16 11 1.8 1.4
-3 16 11 2.6 1.8
-3 -16 -11 1.8 1.2
3 16 -11 1.5 0.9
-3 16 11 0.3 1.4
3 16 -11 2 1.1
-3 16 -11 1.5 1.5
3 16 11 -0.3 1.3
3 -16 -11 1.1 1.5
-3 16 -11 2.1 1.4
3 -16 -11 1.1 1.2
3 16 11 4.1 1.9
0 -17 -11 0.2 1.1
0 -17 -11 1.6 1.2
0 17 -11 -0.7 0.9
0 17 11 -0.3 1.7
0 17 11 -0.4 1.4
0 0 -12 108.19 16.5
0 0 -12 107.29 16.5
0 0 -12 104.19 16.5
0 0 12 91.89 16.5
0 0 12 111.59 16.5
0 0 12 118.09 16.5
0 0 -12 112.29 16.5
1 0 -12 2.3 0.7
-1 0 -12 2.3 0.8
1 0 -12 3.3 0.9
1 0 12 1.4 0.8
-1 0 -12 1.4 0.9
-1 0 12 2.4 0.9
1 0 12 2.4 0.8
1 0 -12 1.6 0.9
-1 0 12 2.2 0.8
1 0 -12 2.5 0.8
-1 0 -12 2.3 0.8
1 0 12 0.8 0.8
-1 0 -12 2.2 0.8
1 0 12 2.3 0.8
-1 0 12 2.5 0.9
-1 0 12 0.9 0.8
-2 0 -12 42 5.7
2 0 12 38.9 5.7
2 0 12 40.8 5.6
-2 0 12 35.7 5.6
2 0 12 37.4 5.6
-2 0 12 33.3 5.5
-2 0 -12 33 5.6
2 0 -12 37.3 5.5
2 0 -12 33.2 5.5
2 0 12 34.2 5.5
2 0 -12 37.8 5.5
-2 0 -12 32.5 5.7
-2 0 12 30.7 5.6
2 0 -12 36.3 5.6
-2 0 -12 31.6 5.6
-2 0 12 30.6 5.5
3 0 12 27.9 4.4
-3 0 -12 22.5 4.3
-3 0 -12 31.9 4.4
-3 0 12 23.6 4.3
-3 0 12 34.3 4.3
-3 0 12 28.5 4.3
3 0 -12 24.5 4.2
3 0 12 27.8 4.3
-3 0 -12 24.2 4.3
3 0 -12 24.3 4.2
3 0 12 25.3 4.3
3 0 -12 24.6 4.1
3 0 -12 20.5 4.2
-3 0 -12 30.7 4.4
-3 0 12 29.8 4.3
4 0 -12 16.8 2.9
-4 0 -12 16.7 3
-4 0 -12 18.2 3
-4 0 12 14.5 2.8
4 0 -12 16.8 2.9
4 0 12 16.4 2.9
-4 0 12 20.2 3.1
-4 0 12 18.4 2.9
4 0 -12 18.8 2.9
4 0 12 16 2.9
4 0 12 18.7 3
-4 0 -12 17.9 3
-4 0 12 15.4 2.8
5 0 -12 46.5 7.6
-5 0 -12 45.8 7.7
-5 0 12 46.6 7.8
5 0 -12 42.7 7.7
5 0 -12 51.89 7.7
5 0 12 47.8 7.7
5 0 12 52.79 7.7
-5 0 -12 50.89 7.7
-5 0 -12 46.4 7.7
-5 0 12 45.1 7.7
-5 0 12 51.09 7.7
-5 0 12 59.19 7.7
5 0 12 49.7 7.7
-5 0 -12 50.19 7.8
5 0 12 55.19 7.7
6 0 -12 28.3 4.6
6 0 12 36.4 4.8
-6 0 12 27.1 4.6
-6 0 12 30.8 4.6
-6 0 -12 31.1 4.8
6 0 12 33.7 4.7
6 0 -12 21.8 4.5
6 0 12 28 4.7
6 0 -12 28 4.5
6 0 -12 24.2 4.4
-6 0 -12 28.5 4.7
-6 0 12 26.4 4.5
-6 0 -12 29.4 4.7
-6 0 12 30.9 4.7
6 0 12 28.8 4.6
-7 0 -12 4.8 1.3
-7 0 -12 3.6 1.2
7 0 -12 3.2 1.1
7 0 12 3.8 1.1
7 0 -12 2.7 0.9
7 0 12 3.5 1.3
-7 0 12 3 1.1
7 0 -12 4.6 1.2
-8 0 -12 7 1.7
8 0 -12 6.1 1.6
8 0 12 10.1 1.8
-8 0 -12 6.4 1.7
8 0 -12 5.9 1.6
8 0 12 8.8 1.8
8 0 12 7.5 1.7
0 -1 12 0.2 0.6
0 -1 -12 -0.1 0.6
0 1 12 -0.5 0.6
0 -1 12 0.1 0.7
0 1 12 0.4 0.8
0 1 -12 0.5 0.8
0 1 12 0.7 0.7
0 1 -12 0.2 0.6
0 1 -12 0 0.7
0 1 -12 0.7 0.5
0 -1 12 1 0.7
0 -1 -12 -0.2 0.5
0 -1 12 1.2 0.7
0 -1 -12 0.2 0.7
0 1 12 1 0.7
0 -1 -12 -0.2 0.7
-1 -1 -12 307.67 48.1
1 1 -12 282.57 48
1 1 -12 318.27 48
1 -1 12 284.47 48
1 -1 12 272.77 48
-1 -1 -12 313.07 48.1
-1 1 12 327.97 48.1
-1 1 12 362.76 48.1
1 -1 12 281.97 48
1 -1 12 338.57 48.1
-1 -1 -12 315.67 48.1
1 1 -12 347.87 48
1 1 -12 368.36 48.1
-1 -1 -12 350.26 48.1
-1 1 12 267.57 48
-1 1 12 328.97 48.1
-1 -1 12 278.87 48
1 1 12 286.97 48
1 -1 -12 336.67 48
-1 1 -12 330.47 48.1
-1 -1 12 312.87 48.1
1 1 12 297.97 48
-1 1 -12 321.57 48.1
-1 -1 12 325.47 48
1 1 12 336.37 48.1
-1 -1 12 347.47 48
1 1 12 287.07 48
2 1 -12 77.49 12
2 -1 12 71.99 12
2 1 -12 80.39 12
2 -1 12 82.59 12
-2 1 12 85.39 12
2 1 -12 71.99 12
-2 1 12 75.09 12
-2 1 12 68.29 12
2 -1 12 79.29 12
-2 -1 -12 80.39 12
2 1 -12 63.19 11.9
-2 -1 -12 78.09 12
-2 1 12 78.39 12
-2 -1 -12 74.29 12
2 -1 12 75.59 12
2 -1 -12 65.99 11.9
2 1 12 79.39 12
-2 1 -12 78.49 12
2 -1 -12 77.89 12
-2 1 -12 77.19 12
-2 1 -12 89.29 12
2 1 12 88.49 12
2 -1 -12 80.69 12
2 -1 -12 63.39 12
-2 -1 12 84.69 12
2 1 12 68.39 12
2 1 12 81.79 12
-2 -1 12 88.79 12
-2 -1 12 102.89 12
-2 -1 12 84.69 12
-3 1 12 1 0.9
-3 1 12 0 0.7
3 1 -12 0.4 0.6
-3 1 12 -0.7 0.6
-3 -1 -12 -0.1 0.7
-3 1 12 1.5 0.8
3 -1 12 -0.4 0.5
3 1 -12 0.6 0.6
-3 -1 -12 0 0.7
3 1 -12 0.1 0.5
-3 -1 -12 0.2 0.7
-3 -1 -12 -0.4 0.7
3 -1 12 -0.9 0.5
-3 -1 12 -0.9 0.6
3 -1 -12 0.9 0.5
-3 -1 12 -1.1 0.7
3 -1 -12 1.4 0.7
-3 -1 12 0.9 0.7
3 -1 -12 -0.9 0.5
-3 1 -12 0.5 0.8
3 1 12 -0.4 0.5
3 1 12 0.3 0.6
3 1 12 0.9 0.7
3 -1 -12 0.5 0.7
-3 1 -12 -0.1 0.8
3 1 12 -0.1 0.7
-3 -1 12 1 0.7
4 -1 12 23.3 4.3
4 -1 12 33 4.5
4 1 -12 20.9 4.2
4 1 -12 27.3 4.2
-4 1 12 24.2 4.3
-4 -1 -12 28.3 4.4
-4 1 12 29.6 4.4
-4 1 12 28.9 4.4
-4 1 12 29.1 4.3
4 -1 12 20.3 4.3
-4 -1 -12 20.1 4.3
4 1 -12 26.8 4.3
4 -1 12 25 4.4
-4 1 -12 26.3 4.4
-4 -1 12 31.5 4.4
-4 -1 12 30.3 4.3
-4 -1 12 31.5 4.3
4 1 12 31.4 4.4
4 -1 -12 25.7 4.3
-4 1 -12 29.4 4.4
4 -1 -12 27.8 4.3
-4 -1 12 26.3 4.3
-4 1 -12 30.5 4.5
4 1 12 20 4.2
-4 1 -12 29.4 4.4
-5 -1 -12 12 2
5 -1 12 6.5 1.9
5 -1 12 8 1.8
-5 -1 -12 8.4 1.9
-5 1 12 7 1.8
-5 -1 -12 7.5 1.9
5 1 -12 11.4 1.8
5 1 -12 10.2 1.7
5 -1 12 9.8 1.9
-5 1 12 10.4 1.9
-5 1 12 11.7 2.2
5 -1 12 12 2.1
5 1 -12 11.1 1.9
-5 -1 -12 8.3 1.9
-5 1 12 12.7 2
-5 -1 12 8.3 1.8
-5 1 -12 10.2 2
5 -1 -12 10.7 1.9
-5 1 -12 12.4 2.1
5 -1 -12 10.8 1.9
5 1 12 11.2 2
-5 1 -12 9.3 2
5 1 12 8.9 1.9
-5 -1 12 10.7 1.8
-5 1 -12 12.8 2.1
5 1 12 10.1 1.9
-5 -1 12 12.2 1.9
5 -1 -12 7.7 1.8
-5 -1 12 12.4 2
5 -1 -12 11 1.8
5 1 12 9.7 1.9
6 -1 12 14.6 2.2
6 1 -12 10.2 1.9
6 1 -12 10.9 2
6 -1 12 10.3 2
-6 1 12 13.4 2.1
-6 -1 -12 11.5 2.1
-6 -1 -12 11.8 2.1
-6 1 12 8.2 2.2
6 -1 12 9.1 2
-6 1 12 8.1 2.1
-6 1 12 9.9 2
-6 -1 -12 13.9 2.2
6 -1 12 9.5 2.1
6 1 12 10.3 2
6 -1 -12 11.2 1.9
6 -1 -12 7.9 2
6 1 12 10.5 2
-6 -1 12 7.9 1.9
-6 -1 12 9.6 1.9
6 -1 -12 8.8 1.9
-6 1 -12 10.9 2.1
-6 -1 12 12.3 2.2
-6 1 -12 9.3 2
-6 -1 12 10.4 1.9
6 1 12 11.8 2.1
6 1 12 12 2.1
-7 1 12 6.6 1.8
-7 1 12 7.2 1.6
7 -1 12 9.6 1.8
7 1 -12 4.9 1.5
7 -1 12 7.6 1.6
7 -1 12 4.8 1.6
7 1 -12 9.2 1.6
-7 -1 -12 8.5 1.7
7 -1 -12 7.2 1.5
-7 1 -12 7.8 1.7
7 1 12 7.2 1.6
7 -1 -12 7.1 1.6
7 -1 -12 6.6 1.6
-7 1 -12 6.6 1.6
7 1 12 8 1.7
7 1 12 6 1.5
7 1 12 6.6 1.6
8 1 -12 3.1 1.1
-8 -1 -12 5.2 1.4
8 1 -12 3.8 1.2
8 -1 12 5.6 1.4
8 -1 12 4.3 1.6
8 -1 -12 4.2 1.3
-8 1 -12 3.9 1.3
8 1 12 4.9 1.3
8 1 12 6.6 1.4
8 1 12 3 1.3
8 -1 -12 3.7 1.3
-8 1 -12 1.8 1.2
8 -1 -12 4.9 1.1
8 -1 -12 2.6 0.9
0 -2 -12 5.8 1.2
0 -2 12 4.9 1.2
0 -2 -12 4 1.2
0 2 12 4.8 1.2
0 2 12 6.7 1.3
0 2 -12 5.6 1.1
0 2 12 4.5 1.2
0 2 12 7.9 1.3
0 -2 12 5.9 1.2
0 2 -12 2.1 1.1
0 -2 -12 5.1 1.1
0 -2 12 4.8 1.1
0 -2 -12 5.6 1.1
0 -2 12 3.5 1.1
-1 2 12 44.1 6.9
-1 2 12 45.4 7
-1 -2 -12 37.4 6.9
1 -2 12 46.5 6.9
1 -2 12 41.5 6.9
1 2 -12 50.59 6.9
-1 2 12 42.9 6.9
1 2 -12 50.09 6.9
1 2 -12 46.8 6.9
1 2 -12 45.4 6.9
-1 -2 -12 50.19 6.9
-1 2 12 39.4 7
-1 -2 -12 42.8 7
1 -2 12 41.6 6.9
-1 -2 -12 51.59 6.9
1 -2 12 43.2 6.9
1 -2 -12 46.6 6.9
1 2 12 36.9 6.9
-1 2 -12 42.8 6.9
1 -2 -12 41.1 6.9
-1 2 -12 37.5 6.9
-1 -2 12 45.2 6.9
1 2 12 38.9 6.9
-1 -2 12 44.3 6.9
-1 -2 12 48.4 6.9
1 -2 -12 43.6 6.9
-1 2 -12 45.9 6.9
1 2 12 51.69 7
-1 2 -12 48 7
1 2 12 41.1 6.9
-1 -2 12 43.5 6.9
2 -2 12 73.79 10.6
-2 -2 -12 63.29 10.6
2 2 -12 71.29 10.6
2 2 -12 70.59 10.5
2 -2 12 71.69 10.6
-2 2 12 71.09 10.6
-2 2 12 69.59 10.6
-2 2 12 60.69 10.6
2 2 -12 70.69 10.7
2 -2 12 48.1 10.5
2 -2 12 78.29 10.6
-2 -2 -12 65.99 10.6
2 2 -12 52.49 10.5
-2 2 12 72.79 10.6
-2 -2 -12 62.79 10.6
-2 -2 -12 69.79 10.6
-2 2 -12 83.49 10.6
2 -2 -12 58.49 10.5
-2 -2 12 70.99 10.6
2 -2 -12 71.79 10.6
2 2 12 64.89 10.6
-2 -2 12 77.89 10.5
-2 2 -12 73.29 10.6
2 -2 -12 70.09 10.6
-2 -2 12 65.09 10.5
-2 2 -12 71.79 10.6
2 2 12 72.19 10.6
2 -2 -12 77.99 10.6
-2 2 -12 65.19 10.6
-2 -2 12 73.09 10.6
2 2 12 68.59 10.6
2 2 12 68.89 10.6
3 -2 12 92.89 14.8
3 2 -12 95.89 14.7
-3 2 12 87.59 14.8
-3 2 12 95.09 14.7
3 2 -12 98.09 14.7
-3 2 12 89.79 14.8
-3 -2 -12 101.99 14.8
3 2 -12 102.79 14.7
-3 -2 -12 86.19 14.7
-3 2 12 91.79 14.7
3 2 -12 96.19 14.7
-3 -2 -12 91.99 14.8
3 -2 -12 90.79 14.8
3 -2 -12 79.89 14.7
-3 -2 12 104.99 14.7
3 2 12 107.49 14.8
3 2 12 91.09 14.7
-3 -2 12 95.49 14.7
-3 -2 12 98.79 14.7
3 2 12 98.69 14.8
3 2 12 103.89 14.8
-3 2 -12 93.39 14.8
3 -2 -12 103.49 14.8
-3 -2 12 92.49 14.7
-3 2 -12 97.79 14.8
3 -2 -12 101.49 14.7
4 -2 12 20 3.8
4 -2 12 20.7 3.7
4 2 -12 18.7 3.7
4 2 -12 22.6 3.6
4 -2 12 21 3.8
-4 2 12 21.8 3.9
-4 2 12 22.9 3.8
4 2 -12 21.9 3.7
-4 2 12 25.3 3.8
-4 2 12 27.8 3.8
4 -2 12 25.3 3.9
4 -2 -12 21.1 3.7
-4 -2 12 26 3.7
4 2 12 22.7 3.8
-4 2 -12 22.8 3.8
-4 -2 12 21.4 3.7
-4 -2 12 24.3 3.7
4 -2 -12 22.6 3.8
-4 -2 12 23.1 3.7
-4 2 -12 28.7 4
4 2 12 23.3 3.8
-4 2 -12 19.4 3.8
-4 2 -12 18.7 3.8
4 -2 -12 27.2 3.9
4 -2 -12 26.1 3.8
5 -2 12 30.5 5.5
5 -2 12 40 5.7
-5 2 12 35.9 5.5
5 -2 12 34.1 5.6
-5 -2 -12 31.4 5.5
-5 -2 -12 29.9 5.5
-5 -2 -12 38.5 5.6
-5 2 12 37.2 5.4
-5 2 12 31.5 5.6
5 2 -12 32.7 5.4
-5 2 12 28.9 5.6
5 2 -12 33.2 5.3
5 -2 12 34.9 5.6
5 -2 -12 30.9 5.5
-5 2 -12 33.9 5.6
5 -2 -12 32.8 5.5
5 2 12 35.3 5.4
-5 -2 12 40 5.5
5 2 12 35.2 5.5
-5 2 -12 32.4 5.6
5 -2 -12 32.1 5.5
-5 -2 12 33 5.4
-5 -2 12 31.4 5.4
5 2 12 39 5.5
-5 2 -12 39.2 5.6
-5 2 -12 37 5.6
5 -2 -12 34.4 5.4
5 2 12 40.3 5.7
-6 -2 -12 12.9 2
-6 2 12 8.1 1.9
6 2 -12 9 1.8
6 -2 12 12.1 2.1
-6 2 12 9.2 2.1
6 -2 12 6.4 1.8
6 -2 12 14.9 2.1
-6 2 12 12 2.2
-6 -2 -12 8.4 1.9
-6 2 12 10.9 2
-6 -2 -12 8.1 1.9
6 -2 -12 7.2 1.9
6 -2 -12 7.4 2.1
6 2 12 8.4 1.8
6 2 12 9.6 1.9
-6 2 -12 9 2
-6 -2 12 12.7 1.9
6 -2 -12 7.8 1.8
6 2 12 12.8 2
6 2 12 13.1 2
-6 2 -12 9.7 2.1
-6 -2 12 10.3 1.9
-6 -2 12 9.8 1.9
6 -2 -12 10.5 1.9
-7 2 12 0.1 0.8
7 2 -12 1.5 0.9
7 -2 12 1.1 1
-7 -2 -12 1.4 1
-7 2 12 0.2 0.9
-7 -2 -12 0.6 1
-7 -2 -12 3.1 1.1
7 -2 12 1.1 0.9
7 2 12 1.6 0.8
7 2 12 2 1
7 -2 -12 -0.6 0.9
7 -2 -12 1.5 0.8
7 2 12 1.1 0.9
-7 2 -12 1.7 1
-7 2 -12 2.1 1.1
7 -2 -12 0.4 0.9
-8 -2 -12 0.2 1
8 2 -12 -0.2 0.9
-8 -2 -12 1.1 0.9
8 -2 12 0 1
8 2 12 -1.1 1
8 -2 -12 -0.1 1.1
8 2 12 1.4 1.1
8 -2 -12 0.8 0.8
8 2 12 1.6 1
-8 2 -12 -0.5 0.8
-8 2 -12 2.7 1.1
8 -2 -12 1.9 0.9
0 3 12 1.2 0.8
0 -3 12 -0.1 0.7
0 3 12 -0.8 0.8
0 -3 -12 0.1 0.7
0 -3 12 -0.6 0.7
0 -3 -12 -0.2 0.6
0 3 12 -0.7 0.7
0 3 -12 -0.4 0.6
0 -3 -12 -0.1 0.6
0 -3 12 0.1 0.7
0 3 12 0.2 0.6
0 -3 12 -0.3 0.6
0 -3 -12 0.1 0.6
1 -3 12 23.3 5.1
-1 3 12 29.2 5.2
1 3 -12 31 5.1
1 3 -12 34.4 5.1
1 -3 12 39 5.2
-1 -3 -12 24.6 5.1
1 -3 12 29.5 5.1
-1 -3 -12 35.6 5.1
-1 -3 -12 40.2 5.3
1 -3 12 38.9 5.2
1 3 -12 37.6 5.1
-1 3 12 30.3 5.2
-1 3 12 38.8 5.3
-1 -3 -12 33.1 5.2
1 3 -12 34.2 5.2
-1 3 12 40.1 5.3
1 3 12 35.6 5.2
-1 3 -12 31.3 5.1
-1 -3 12 31.7 5.1
1 -3 -12 31 5.2
-1 -3 12 30.3 5.1
1 3 12 31.8 5.2
-1 -3 12 21 5.1
1 -3 -12 37.1 5.2
-1 3 -12 49.5 5.4
1 3 12 25.6 5.1
1 3 12 35.1 5.2
-1 3 -12 26 5.1
-1 -3 12 28 5.1
-1 3 -12 33 5.2
1 -3 -12 37.2 5.2
1 -3 -12 33.9 5.2
-2 -3 -12 3.8 1.2
2 -3 12 2 0.9
-2 3 12 3.6 1.1
-2 3 12 4.2 1.1
2 3 -12 4.9 0.9
2 -3 12 3.2 1
-2 -3 -12 4.3 1.1
-2 3 12 1.6 1.1
-2 -3 -12 2.9 1
2 3 -12 3.8 0.9
2 3 -12 3.8 1
2 -3 12 3.8 1.1
-2 3 12 4.5 1.1
-2 -3 -12 3 1
2 -3 12 3.2 0.9
2 -3 -12 4 1
2 -3 -12 2.6 0.9
-2 -3 12 3.5 0.9
2 -3 -12 3.5 1
2 -3 -12 2.9 1
-2 3 -12 4.1 1.1
2 3 12 3.6 1.2
-2 3 -12 6.6 1.2
2 3 12 2.8 0.9
2 3 12 3.4 1
-2 3 -12 2.5 0.9
2 3 12 3.6 0.9
-2 -3 12 2.5 0.9
-2 -3 12 3.4 0.9
-2 3 -12 6 1.2
3 -3 12 23.2 3.8
-3 -3 -12 24.8 3.9
3 3 -12 24.9 3.6
3 -3 12 18.2 3.8
-3 -3 -12 18.4 3.8
-3 3 12 28.4 3.9
-3 3 12 22.4 3.8
3 3 -12 24.2 3.6
-3 3 12 20.6 3.8
-3 3 12 20.5 3.9
3 -3 12 28.6 4
-3 -3 -12 27.2 3.9
-3 -3 -12 22.9 3.8
3 3 -12 25.1 3.8
3 -3 12 20.7 3.8
3 -3 -12 29.7 4
3 -3 -12 18.7 3.8
3 3 12 25.7 3.9
3 -3 -12 21.9 3.8
-3 -3 12 26 3.7
-3 -3 12 20.2 3.7
3 3 12 20 3.8
-3 3 -12 22.9 3.8
-3 3 -12 21.1 3.8
3 3 12 22.8 3.8
3 -3 -12 27.1 3.8
-3 -3 12 22.5 3.7
-3 3 -12 16.6 3.8
-3 3 -12 24.4 3.9
3 3 12 23.9 3.8
-3 -3 12 22.7 3.7
4 3 -12 23.5 3.8
4 -3 12 21 4
-4 3 12 30.9 4.3
4 -3 12 25.3 4.1
-4 3 12 23 4.1
4 3 -12 25.9 3.9
-4 -3 -12 22.8 4
-4 3 12 23.3 4
-4 -3 -12 29.1 4.1
4 3 -12 27.4 3.8
4 -3 12 23.1 4.1
-4 3 12 20.7 3.9
4 -3 12 29.4 4.1
4 -3 -12 23.4 4
4 -3 -12 16.9 3.9
-4 3 -12 24.4 4
4 3 12 30 4.1
-4 -3 12 28.4 3.8
-4 3 -12 25.5 4.1
4 -3 -12 21.7 4
-4 -3 12 22.1 3.9
4 3 12 28.9 4
-4 3 -12 16 3.9
4 -3 -12 20.7 4
-4 -3 12 23.7 3.9
-4 3 -12 21.1 4
5 -3 12 -0.3 0.7
-5 3 12 0.4 0.8
5 -3 12 -0.5 0.9
-5 -3 -12 1.4 0.9
5 -3 12 -0.4 0.6
-5 -3 -12 1.1 0.8
5 3 -12 0.9 0.6
-5 -3 -12 0.5 0.8
-5 -3 -12 2 1
5 -3 12 -0.7 0.7
-5 3 12 2 1.2
-5 3 12 1.5 0.8
5 3 12 0 0.5
-5 3 -12 1 0.8
-5 -3 12 0.4 0.8
-5 3 -12 -0.9 0.7
5 3 12 -0.5 0.8
-5 3 -12 0.1 1
-5 -3 12 0.6 0.6
5 3 12 1.3 0.7
5 -3 -12 1.6 0.7
5 -3 -12 0.9 0.8
5 -3 -12 1 0.8
-6 -3 -12 1.8 1
6 3 -12 0.6 0.8
6 3 -12 1.6 0.7
6 -3 12 1.8 0.9
6 -3 12 0.4 1
-6 3 12 1.1 0.9
-6 3 12 1.2 0.9
-6 -3 -12 1.7 1
-6 -3 -12 1.1 0.9
6 -3 -12 1.5 0.9
-6 -3 12 3.1 1
6 3 12 2.8 1.1
6 3 12 0.3 0.7
-6 -3 12 1.9 0.8
-6 3 -12 1.9 1
6 -3 -12 0.9 0.7
6 3 12 0.9 0.7
-6 3 -12 2 1
-6 -3 12 2.5 0.7
-6 -3 12 2.8 0.8
6 3 12 1.3 1
6 -3 -12 1.5 1
-7 3 12 19.8 3
-7 3 12 12.7 2.6
-7 -3 -12 14.8 2.7
-7 3 12 11.4 2.9
7 -3 12 15.8 2.8
-7 -3 -12 15.4 2.7
-7 3 12 14.3 2.7
7 3 -12 17.9 2.5
-7 -3 -12 9.5 2.6
7 3 -12 13.8 2.4
7 -3 12 19.3 2.9
-7 3 -12 14.2 2.7
7 3 12 19 2.8
-7 3 -12 15.7 2.8
7 -3 -12 10.3 2.5
7 -3 -12 15.5 2.6
7 -3 -12 12.4 2.7
7 3 12 14.9 2.6
7 3 12 16.8 2.7
7 -3 -12 15.6 2.8
7 3 12 13.4 2.6
-8 -3 -12 -0.2 1
8 -3 12 0.4 1.2
8 -3 12 -0.4 0.9
8 -3 -12 0.4 1.2
8 3 12 1.4 0.9
-8 3 -12 -0.5 0.9
8 -3 -12 -1.9 0.8
8 3 12 -0.7 1
-8 3 -12 0.1 1
8 3 12 0.1 1
8 -3 -12 3.4 1.3
8 -3 -12 -0.4 0.9
0 4 12 64.79 9.5
0 4 12 59.59 9.5
0 4 -12 63.09 9.5
0 -4 12 53.19 9.5
0 4 -12 58.69 9.5
0 4 -12 62.19 9.5
0 4 12 65.99 9.5
0 -4 -12 62.09 9.5
0 -4 12 65.29 9.5
0 4 12 66.49 9.5
0 -4 -12 60.99 9.5
0 -4 12 58.39 9.5
0 -4 12 65.79 9.5
0 -4 -12 59.29 9.5
0 4 -12 57.09 9.5
0 -4 -12 58.29 9.5
-1 -4 -12 171.68 24
-1 -4 -12 145.29 24
1 -4 12 169.28 24
1 -4 12 181.88 24
1 4 -12 166.08 24
1 -4 12 139.79 24
1 -4 12 158.88 24
-1 4 12 152.38 24
1 4 -12 149.59 24
-1 4 12 158.58 24.1
1 4 -12 152.28 24
-1 4 12 165.98 24
-1 -4 -12 142.69 24
-1 4 12 156.58 24
-1 -4 -12 141.29 24
1 4 12 154.38 24
-1 -4 12 146.69 24
1 -4 -12 184.48 24
-1 -4 12 168.38 24
1 -4 -12 166.68 24
1 -4 -12 122.69 24
-1 4 -12 155.78 24
1 4 12 162.08 24
1 4 12 147.39 24
1 -4 -12 151.18 24
-1 4 -12 151.98 24
-1 -4 12 166.28 24
1 4 12 139.69 24
-1 -4 12 181.18 24
-1 4 -12 166.58 24
-2 4 12 41.5 6.6
-2 4 12 39.4 6.8
-2 -4 -12 45.1 6.6
2 4 -12 41.3 6.5
-2 -4 -12 48.7 6.6
-2 4 12 38.7 6.5
-2 -4 -12 38.8 6.5
-2 -4 -12 41 6.6
-2 4 12 40.1 6.7
2 4 -12 40.8 6.5
2 -4 12 45.2 6.7
2 4 -12 37.3 6.5
2 -4 12 45.6 6.6
2 -4 -12 48 6.6
2 -4 -12 41.8 6.6
2 4 12 32 6.6
-2 -4 12 44.3 6.5
-2 4 -12 46.9 6.8
-2 -4 12 43.7 6.5
2 -4 -12 42 6.6
-2 -4 12 46.2 6.5
2 -4 -12 42.9 6.6
-2 4 -12 39.5 6.7
-2 -4 12 35.2 6.5
2 4 12 36.8 6.6
-3 4 12 9 1.6
3 -4 12 6.9 1.5
-3 4 12 6.4 1.5
-3 -4 -12 6.3 1.5
3 4 -12 7.6 1.3
3 -4 12 8.5 1.6
3 4 -12 6.4 1.4
-3 4 12 5.5 1.7
3 -4 12 8.4 1.6
3 -4 12 6.1 1.5
3 4 -12 6.6 1.3
-3 -4 -12 6.1 1.5
-3 4 12 6.3 1.6
-3 4 -12 7.2 1.6
-3 -4 12 7 1.4
3 4 12 8.5 1.5
3 -4 -12 7.2 1.6
3 4 12 9 1.6
-3 4 -12 7 1.5
-3 4 -12 6.8 1.5
3 -4 -12 8.5 1.6
3 -4 -12 6.9 1.7
3 4 12 5.8 1.4
-3 -4 12 7.2 1.3
-3 -4 12 4.2 1.3
-3 4 -12 9.5 1.7
3 -4 -12 8.5 1.5
-4 -4 -12 4.6 1.4
4 -4 12 6.8 1.5
4 4 -12 4.1 1.1
-4 -4 -12 6.9 1.4
-4 4 12 6.2 1.4
4 4 -12 6.3 1.4
4 4 -12 8.4 1.2
4 -4 12 7.3 1.5
4 -4 12 6.7 1.5
4 4 -12 8.8 1.4
-4 4 12 7.3 1.4
-4 4 -12 8.7 1.5
-4 -4 12 7.2 1.3
4 4 12 6.5 1.3
-4 4 -12 2.9 1.3
-4 4 -12 5.9 1.5
-4 -4 12 7.8 1.3
4 -4 -12 5.7 1.3
4 -4 -12 6.4 1.5
-4 4 -12 7.1 1.6
4 -4 -12 3.8 1.4
-5 4 12 0.9 0.9
-5 4 12 1.7 1.2
5 4 -12 0.3 0.5
-5 -4 -12 0.2 0.8
5 -4 12 1.3 0.8
-5 4 12 -1 0.7
5 -4 12 1 0.9
5 4 -12 -0.8 0.5
-5 -4 -12 0.9 0.8
5 -4 12 0.8 0.7
-5 4 12 0.5 1.1
-5 -4 -12 0.3 0.9
-5 -4 12 0.7 0.6
-5 -4 12 1.1 0.8
5 -4 -12 0.3 0.6
5 4 12 0.5 0.6
5 4 12 -0.1 0.6
-5 -4 12 0.1 0.5
-5 4 -12 -0.1 0.8
-5 4 -12 0 0.8
5 -4 -12 0.8 0.9
5 -4 -12 0.2 0.9
5 4 12 -0.3 0.8
6 4 -12 -0.7 0.6
-6 -4 -12 -0.6 0.9
-6 -4 -12 0.6 0.9
6 -4 12 0.7 0.9
-6 4 12 -0.3 0.8
-6 4 12 -0.3 0.9
-6 4 12 -1.3 1.2
-6 -4 -12 0.6 0.8
-6 4 12 1.7 1.2
6 -4 12 -0.2 0.9
6 4 -12 1.2 0.6
-6 -4 -12 0.6 0.8
-6 4 -12 1.2 0.9
6 4 12 0.1 0.8
6 -4 -12 1.3 0.8
6 -4 -12 0.1 0.9
6 4 12 -0.2 0.8
6 4 12 -0.7 0.5
-6 4 -12 0.8 0.9
6 -4 -12 0.7 0.9
-7 4 12 0.8 1.2
-7 -4 -12 0.7 0.9
-7 -4 -12 -1.1 0.9
-7 4 12 0.4 1
-7 4 12 2.2 1.4
-7 -4 -12 2.3 1
7 -4 12 -1.2 0.8
-7 4 12 -0.1 0.9
7 -4 12 -1.1 0.9
7 4 12 0.3 0.6
7 4 12 -0.2 0.9
7 4 12 0.6 0.9
7 -4 -12 2.6 1.2
-7 4 -12 -0.9 0.9
7 -4 -12 0.6 0.8
7 4 12 0.1 0.6
-7 4 -12 1 1.1
7 -4 -12 1.5 1.2
8 -4 12 -1.6 0.9
8 -4 12 -0.4 1.1
8 -4 -12 -0.5 1.1
8 4 12 -0.1 1
-8 4 -12 0 1
-8 4 -12 -1.2 0.9
8 4 12 -0.8 0.7
8 -4 -12 0.2 1.1
8 4 12 -0.9 0.7
8 -4 -12 0.2 0.8
8 4 12 1.4 1
0 -5 12 0.1 0.7
0 -5 12 0.7 0.6
0 5 -12 0.3 0.5
0 5 -12 -1 0.6
0 -5 -12 -0.7 0.8
0 -5 -12 0.6 0.7
0 5 12 -1.2 0.5
0 -5 12 -0.7 0.7
0 5 12 0.6 0.7
0 5 12 -1.3 0.7
0 5 -12 0.4 0.6
0 5 12 0.1 0.9
0 -5 -12 -1.4 0.6
0 -5 12 0.2 0.7
0 -5 -12 0.3 0.7
0 5 -12 -0.4 0.6
1 -5 12 4.2 1.1
-1 5 12 3.8 1
1 5 -12 2.9 0.8
1 -5 12 3 1
1 5 -12 2.5 0.9
1 -5 12 2.2 1
-1 5 12 2.4 0.9
1 5 -12 2.7 0.9
-1 -5 -12 2.6 1
1 5 -12 2.6 0.8
-1 -5 -12 2.7 1
-1 -5 -12 2.8 1
1 -5 12 2.3 0.9
-1 -5 -12 2.2 0.9
-1 -5 12 4 0.9
1 5 12 3.1 1
-1 -5 12 3.1 0.9
1 -5 -12 2.8 1
-1 -5 12 2.9 0.9
1 5 12 3 1.1
1 -5 -12 2.3 0.9
-1 5 -12 3.5 1
-1 -5 12 4.3 1
-1 5 -12 2.6 1
1 5 12 3.7 1.1
-1 5 -12 1.8 0.8
2 -5 12 8.3 2
2 5 -12 8.8 2.2
-2 5 12 13.7 2.1
2 -5 12 10.7 2
-2 5 12 9.3 2
-2 -5 -12 11.6 2.1
2 5 -12 11.3 1.9
2 -5 12 10.5 2.1
2 5 -12 13.4 1.9
-2 -5 -12 9.8 2
2 -5 12 7.1 1.9
-2 5 -12 14.1 2.2
-2 -5 12 14.1 2
-2 5 -12 9.1 2
-2 -5 12 10 1.9
-2 5 -12 6 1.9
2 5 12 12.1 2
2 -5 -12 10.4 2
2 5 12 13 2.2
-2 5 -12 9.3 2
-2 -5 12 13.6 2
2 5 12 8.6 1.9
-2 -5 12 14.5 2
-3 5 12 0.9 0.9
3 5 -12 1.1 0.7
3 5 -12 1.5 0.7
3 5 -12 1.2 0.6
-3 -5 -12 0.6 0.9
3 -5 12 1.3 0.7
-3 5 12 2.1 0.9
3 5 -12 1.5 0.6
3 -5 12 0 0.7
-3 5 12 0.6 1.6
3 -5 12 2.4 0.9
-3 5 12 1.8 1
3 -5 12 0.2 0.7
-3 -5 12 0.7 0.6
3 5 12 1.1 0.6
-3 -5 12 0.9 0.7
-3 5 -12 1.7 1
-3 5 -12 0.6 0.7
-3 5 -12 2 0.9
-3 -5 12 0.9 0.6
-3 5 -12 1.9 1
-3 -5 12 1.2 0.6
3 -5 -12 0 0.8
3 -5 -12 1.4 1
4 -5 12 4.1 1.2
4 5 -12 3.7 0.9
4 -5 12 4.8 1.3
-4 -5 -12 4.6 1.2
-4 5 12 5.1 1.3
4 5 -12 4.3 1
-4 5 12 2.3 1.4
-4 5 12 3 1.1
-4 -5 -12 3.2 1.3
4 -5 12 4.2 1.3
-4 5 12 6.5 1.6
-4 -5 -12 4.7 1.2
4 -5 -12 4 1.2
-4 5 -12 3.5 1.1
-4 5 -12 8.4 1.4
4 5 12 4.8 1.2
4 -5 -12 3.7 1.1
4 5 12 6.7 1.3
4 -5 -12 5.5 1.3
-4 -5 12 3.9 1
4 5 12 4.8 1.1
-4 5 -12 4.1 1.2
4 -5 -12 2.6 1.2
-4 -5 12 4 1
-5 -5 -12 7 1.5
-5 -5 -12 6 1.5
-5 5 12 6.6 1.6
5 5 -12 6.9 1.2
-5 -5 -12 8.2 1.6
-5 5 12 8 1.6
5 -5 12 7 1.6
-5 -5 -12 7 1.5
-5 5 12 4 1.7
5 -5 12 8.5 1.6
5 5 -12 6.8 1.3
-5 5 12 6.5 1.8
5 5 12 6.2 1.4
-5 -5 12 5.6 1.3
-5 -5 12 6.5 1.3
-5 5 -12 7.4 1.6
-5 -5 12 7 1.3
5 -5 -12 6.2 1.6
5 -5 -12 6.2 1.5
5 -5 -12 5.6 1.5
5 5 12 8.5 1.4
5 5 12 5.8 1.5
5 -5 -12 5 1.4
-5 5 -12 5.6 1.5
-6 5 12 0.5 1.3
-6 5 12 1.6 1.3
6 -5 12 0.6 0.9
-6 -5 -12 0.3 0.8
6 5 -12 1.3 0.6
-6 5 12 0.9 0.9
-6 -5 -12 0 0.9
-6 -5 -12 0.2 0.9
-6 5 12 1.2 1
6 -5 12 1.2 0.9
-6 5 -12 0.4 0.9
-6 5 -12 1 0.9
6 5 12 0 0.5
6 -5 -12 0.6 1
6 -5 -12 0.6 0.8
6 -5 -12 0.7 1
6 5 12 0.4 0.6
-7 -5 -12 1.8 1.1
-7 5 12 1.8 1.5
-7 -5 -12 -0.2 0.9
-7 5 12 -2.8 1.1
-7 -5 -12 -2 0.8
7 -5 12 1.8 1.1
7 -5 12 -0.2 0.9
7 -5 -12 2 1.2
7 5 12 -0.4 0.6
7 -5 -12 0.3 1
7 -5 -12 1 1.2
-7 5 -12 0.5 1
7 5 12 0.8 1.1
-7 5 -12 -0.1 0.9
7 5 12 1.8 1
8 -5 12 2.7 1.2
8 -5 12 3.3 1.4
8 5 12 1.3 0.9
8 5 12 2 1.3
-8 5 -12 0.9 1.2
-8 5 -12 0.6 1
8 -5 -12 1.7 1.3
8 5 12 1.2 0.8
8 -5 -12 1.9 1
8 5 12 2.2 1.1
8 -5 -12 -0.7 1
0 -6 12 144.69 27.2
0 -6 12 189.38 27.2
0 -6 -12 181.88 27.2
0 6 -12 193.08 27.2
0 -6 12 217.18 27.2
0 6 12 193.58 27.2
0 -6 12 162.68 27.2
0 6 12 171.88 27.2
0 -6 -12 173.68 27.2
0 6 -12 175.58 27.2
0 6 -12 162.48 27.2
-1 -6 -12 16.8 3.5
-1 6 12 27.6 3.9
1 -6 12 23.8 3.6
1 6 -12 22.4 3.5
-1 -6 -12 28.4 3.8
1 -6 12 25.1 3.6
1 6 -12 19.5 3.4
1 6 -12 18.1 3.4
1 6 -12 31.5 3.6
-1 6 12 16 3.4
-1 6 12 25.3 3.8
-1 6 12 13.2 3.4
1 -6 -12 14.7 3.4
1 -6 -12 21.4 3.6
-1 -6 12 18.5 3.4
-1 -6 12 27.4 3.5
1 -6 -12 14.4 3.5
-1 6 -12 17.3 3.5
-1 6 -12 23.3 3.6
-1 -6 12 31.3 3.6
1 6 12 16.9 3.4
-1 -6 12 28.3 3.6
2 -6 12 7 1.9
2 6 -12 9.6 1.9
-2 -6 -12 11 2.1
2 -6 12 12.7 2.1
-2 -6 -12 11.7 2.1
2 6 -12 11.1 1.9
-2 6 12 14.4 2.5
-2 6 12 7.8 2.1
-2 6 12 11.3 2.1
2 6 -12 11.7 1.9
-2 6 12 8.6 2
2 -6 12 16.9 2.3
2 -6 12 11 2.1
2 -6 -12 9.9 2.1
-2 6 -12 5.6 1.9
-2 -6 12 12.1 2
2 -6 -12 12.2 2.2
-2 6 -12 12.5 2.1
2 6 12 8.1 1.9
-2 6 -12 9.8 2
-2 -6 12 12.1 1.9
2 6 12 11.1 2
-2 6 -12 12 2.1
2 -6 -12 8.8 2
-2 -6 12 10.8 1.9
-2 -6 12 11.5 1.9
2 -6 -12 8.3 2.1
3 6 -12 -0.4 0.5
3 6 -12 0.1 0.6
3 -6 12 0.4 0.8
3 6 -12 -0.5 0.5
-3 6 12 -0.5 0.7
3 -6 12 0.5 0.8
-3 6 12 -0.2 1.2
3 -6 12 0.9 0.9
-3 6 12 -0.7 0.9
-3 -6 -12 0.5 0.8
-3 6 12 0.5 0.8
3 -6 12 -0.1 0.9
-3 6 -12 -0.3 0.8
3 6 12 0.8 0.9
-3 -6 12 0 0.6
-3 -6 12 0.4 0.6
3 -6 -12 -0.3 0.9
-3 6 -12 0.2 0.7
-3 6 -12 0.9 0.7
-3 -6 12 -0.5 0.6
3 6 12 -0.7 0.6
3 -6 -12 1.8 0.9
3 -6 -12 0.1 0.7
-3 -6 12 0.3 0.6
3 -6 -12 0.4 0.9
-3 6 -12 -0.5 0.7
-4 -6 -12 2.2 0.9
-4 6 12 1 1
4 6 -12 1.8 0.7
-4 -6 -12 0.4 0.8
-4 6 12 1 1.2
4 -6 12 0 0.9
-4 6 12 -1.6 1.1
-4 6 12 0.2 0.9
4 -6 12 1.5 1
-4 6 -12 2 0.9
-4 -6 12 1.4 0.7
4 -6 -12 1.9 1.1
4 6 12 1.1 0.9
4 6 12 1 0.6
4 -6 -12 0.7 0.8
4 6 12 0.5 0.7
-4 6 -12 1.3 0.9
4 -6 -12 1.3 1
-4 -6 12 1.7 0.7
-4 -6 12 1.6 0.6
4 -6 -12 0.9 1
5 -6 12 3.1 1.2
5 -6 12 3.6 1.2
5 6 -12 2.6 0.8
-5 -6 -12 3.1 1.1
-5 -6 -12 1.7 1
-5 6 12 3.5 1.4
-5 -6 -12 3.2 1.1
-5 6 12 1.3 1.1
-5 -6 -12 3.2 1
5 6 -12 2.5 0.8
-5 6 12 2.2 1.4
5 6 12 1 0.7
5 -6 -12 2.8 1.1
-5 -6 12 3.1 0.8
5 -6 -12 2.9 1.1
-5 6 -12 2.5 1.1
5 -6 -12 1.8 0.9
5 6 12 4.9 1.2
-5 -6 12 5.1 0.9
5 -6 -12 2.6 1.1
-5 6 -12 2.4 1.1
-5 -6 12 1.8 0.7
-6 -6 -12 6 1.5
6 -6 12 4.4 1.5
-6 -6 -12 5.9 1.4
-6 -6 -12 5.7 1.5
-6 -6 -12 6.6 1.5
-6 6 12 7.1 1.9
6 -6 12 7.8 1.7
-6 6 12 4.1 1.7
6 6 12 7 1.5
6 6 12 7.1 1.4
6 -6 -12 7 1.6
-6 6 -12 6 1.6
6 -6 -12 7.4 1.7
6 6 12 6 1.3
6 -6 -12 5.5 1.4
-6 6 -12 4.7 1.5
-7 -6 -12 -0.6 0.9
-7 6 12 5.7 1.5
-7 -6 -12 0.8 1.1
-7 6 12 -0.9 1.3
-7 -6 -12 0.3 1.1
7 -6 12 1.5 1.1
7 -6 12 0.6 1.1
-7 6 -12 0.1 0.9
7 6 12 -0.3 0.7
7 -6 -12 -0.6 0.9
7 -6 -12 -1.3 0.9
-7 6 -12 -0.4 0.9
7 6 12 -0.1 0.6
7 -6 -12 -0.2 1.1
7 6 12 -1.1 0.9
0 -7 12 0.3 0.8
0 7 -12 0.2 0.7
0 -7 -12 -0.1 0.7
0 7 12 -0.1 0.9
0 7 12 -0.5 0.6
0 -7 -12 0.3 0.8
0 7 -12 -0.1 0.6
0 7 12 -0.3 0.6
0 -7 12 0 0.6
0 -7 12 0.8 0.8
0 7 12 1.3 1.1
0 -7 -12 0.1 0.9
0 7 -12 0.2 0.6
0 -7 -12 0.3 1
1 -7 12 2 1.1
1 7 -12 1.1 0.7
1 -7 12 1.9 1
1 7 -12 2.8 0.9
-1 -7 -12 2.2 1
-1 -7 -12 0.9 0.9
1 7 -12 2 0.8
1 -7 12 4.6 1.2
-1 7 12 3.4 1.1
1 -7 12 2.4 0.9
-1 -7 -12 4.2 1.3
-1 7 12 2 1.2
1 7 -12 3.2 0.9
-1 7 12 2.7 0.9
-1 7 12 1.8 1.3
-1 -7 -12 3.2 1
1 -7 -12 3.6 1.1
1 -7 -12 3.5 1.1
1 7 12 3 1
-1 -7 12 3.8 1
-1 7 -12 4.1 1
-1 -7 12 3.2 0.9
-1 7 -12 2.4 0.9
1 7 12 3.1 0.9
-1 -7 12 5.6 1.1
1 -7 -12 2 0.9
1 7 12 2.2 1.2
-1 -7 12 2.8 1
1 -7 -12 1.7 1.2
-2 7 12 16.6 3.6
-2 -7 -12 25.1 3.6
-2 -7 -12 14.4 3.4
2 -7 12 19 3.6
2 -7 12 25.7 3.7
-2 -7 -12 25 3.6
2 -7 12 21.9 3.6
2 7 -12 19.6 3.4
-2 7 12 23.6 3.6
-2 7 12 20.1 3.8
2 -7 12 24.1 3.7
-2 7 12 29.7 3.8
-2 -7 -12 21.1 3.5
2 7 -12 18.3 3.4
2 7 12 18.6 3.6
-2 7 -12 12.9 3.4
2 7 12 16.2 3.4
-2 -7 12 28.5 3.6
-2 7 -12 23.1 3.6
2 -7 -12 23.2 3.7
-2 -7 12 23.7 3.5
-2 7 -12 18 3.5
2 -7 -12 20.6 3.6
2 7 12 19.2 3.5
-2 -7 12 17.9 3.4
-2 7 -12 25.1 3.7
2 7 12 21.2 3.6
-2 -7 12 22.6 3.5
2 -7 -12 24.6 3.7
2 -7 -12 17.3 3.5
-3 7 12 0.4 0.9
-3 -7 -12 0 0.8
-3 -7 -12 0 0.9
3 7 -12 -0.1 0.5
-3 7 12 0.3 0.9
-3 7 12 -1.8 1.1
3 -7 12 -0.7 0.7
-3 -7 -12 1.2 0.8
3 7 -12 0 0.6
-3 -7 -12 0.1 0.8
-3 7 12 -0.3 1.1
3 -7 12 -0.6 0.8
3 7 -12 -0.3 0.6
3 7 -12 0.2 0.5
3 7 12 -0.3 0.9
3 -7 -12 -1.1 0.9
-3 -7 12 0.7 0.7
3 7 12 0.3 0.6
-3 7 -12 -0.2 0.8
3 -7 -12 -1.2 0.8
3 -7 -12 1.2 0.8
3 -7 -12 -1.1 0.7
-3 -7 12 -0.4 0.7
3 7 12 0.4 0.7
-3 -7 12 0.3 0.6
-3 -7 12 -0.7 0.7
-3 7 -12 0.1 0.7
3 7 12 0.2 0.9
-4 -7 -12 49.2 7.3
4 7 -12 47.5 7.2
4 -7 12 53.19 7.6
-4 -7 -12 53.79 7.4
-4 -7 -12 45.4 7.3
-4 7 12 43.1 7.6
-4 -7 -12 39.4 7.3
4 -7 12 53.89 7.6
-4 7 12 44.8 7.6
-4 7 12 51.49 7.4
-4 -7 12 41.6 7.2
-4 -7 12 47.1 7.2
4 -7 -12 46.8 7.4
4 -7 -12 34.7 7.4
4 7 12 45.5 7.5
4 -7 -12 37.4 7.4
-4 -7 12 45.5 7.2
4 7 12 54.69 7.3
-4 7 -12 54.29 7.4
4 7 12 45.5 7.3
-4 7 -12 44.9 7.5
4 7 12 55.99 7.4
4 -7 -12 36.2 7.5
5 -7 12 37.6 5.9
-5 7 12 31.6 6
5 7 -12 38.8 5.5
-5 7 12 34.2 5.9
-5 -7 -12 40.1 5.8
-5 -7 -12 28.3 5.6
5 7 -12 36.9 5.5
5 -7 12 37.6 5.9
-5 -7 12 42.1 5.5
5 7 12 40.3 5.8
-5 -7 12 34 5.5
5 -7 -12 29.9 5.7
-5 7 -12 28.1 5.8
-5 -7 12 34 5.5
5 -7 -12 33.3 5.8
5 7 12 32.2 5.8
5 -7 -12 30.5 5.8
5 7 12 36.5 5.8
-5 7 -12 31.7 5.8
5 7 12 37 5.6
-6 7 12 10.8 2.5
6 -7 12 14.1 2.4
-6 7 12 12.5 2.5
-6 -7 -12 11.6 2.2
-6 -7 -12 9.4 2.1
-6 -7 -12 9.5 2.1
6 -7 12 13.5 2.4
-6 -7 -12 8.6 2.1
6 7 12 12.6 2.3
-6 7 -12 15.4 2.5
6 -7 -12 11.5 2.4
6 -7 -12 11.7 2.3
6 7 12 10.5 2
6 7 12 9.5 2
-6 7 -12 9.4 2.2
7 -7 12 36.2 6.3
-7 7 12 52.19 6.7
7 -7 12 41.6 6.6
-7 -7 -12 51.69 6.3
-7 7 12 42.7 6.6
7 -7 -12 29.8 6.3
7 7 12 38.2 6.4
-7 7 -12 32.7 6.4
7 7 12 48.9 6.2
7 -7 -12 36.1 6.4
7 7 12 27.3 6.1
0 -8 -12 28.9 4.9
0 8 12 30.9 4.8
0 -8 -12 28.8 4.8
0 -8 12 27.3 4.8
0 8 12 37.6 4.9
0 -8 -12 31.8 4.9
0 -8 -12 30.2 4.9
0 8 -12 18.4 4.7
0 8 12 38.5 5.1
0 8 12 29.9 5
0 8 -12 34.3 4.9
1 8 -12 18 3.8
1 8 -12 23.6 3.9
-1 8 12 25.8 4.2
1 8 -12 21.1 3.8
1 -8 12 24.3 4
-1 8 12 28.9 4.1
-1 -8 -12 16.7 3.8
-1 8 12 25 4.1
1 -8 12 21.8 4
-1 -8 -12 19.4 3.9
-1 8 12 22.5 4
-1 -8 -12 27.3 4.1
1 -8 12 24.6 3.9
1 -8 12 34.1 4.2
1 8 -12 30.3 3.9
-1 -8 -12 24.6 4
-1 -8 12 30.3 4
-1 8 -12 19.2 3.9
1 8 12 19 3.9
1 -8 -12 20.1 3.9
-1 8 -12 31.8 4.1
-1 -8 12 33.1 4
1 -8 -12 21.1 3.9
1 -8 -12 19.1 3.9
-1 -8 12 23.6 3.9
-1 8 -12 24.7 4
1 8 12 20.9 4
1 8 12 22.8 3.9
-1 -8 12 23.4 3.9
1 -8 -12 23.3 4
1 8 12 24.6 3.9
-1 8 -12 19.7 3.9
2 -8 12 0.4 0.9
2 8 -12 0.8 0.7
-2 8 12 2.1 1.4
-2 -8 -12 0.4 0.8
2 -8 12 1.2 0.9
-2 8 12 2.3 1.2
2 8 -12 2.1 0.8
-2 8 12 1.8 1
-2 -8 -12 1.9 0.9
-2 -8 -12 2 1.2
-2 -8 -12 1.2 0.8
-2 8 12 0.8 0.9
2 -8 12 0.4 1
2 8 -12 1.1 0.7
2 -8 12 2.1 1
-2 -8 12 3.5 0.9
2 8 12 0.9 1
-2 8 -12 3.8 1.1
-2 8 -12 1.3 0.9
-2 -8 12 0.8 0.8
2 -8 -12 -0.7 0.9
-2 -8 12 2 0.9
-2 8 -12 1 0.9
-2 -8 12 1.6 0.8
2 8 12 2.3 1.2
2 -8 -12 1.5 1.1
2 -8 -12 1.7 1
2 8 12 0.4 0.7
-2 8 -12 1 0.8
2 -8 -12 0.5 0.9
2 8 12 1.9 0.8
-3 8 12 116.99 19.4
3 -8 12 121.79 19.4
-3 -8 -12 104.69 19.3
3 8 -12 134.99 19.3
3 8 -12 135.69 19.3
3 -8 12 92.59 19.3
-3 8 12 113.09 19.5
-3 -8 -12 131.99 19.3
-3 -8 -12 124.99 19.4
3 8 -12 127.29 19.2
-3 -8 -12 102.59 19.3
3 8 12 146.39 19.4
3 8 12 127.29 19.4
-3 -8 12 133.99 19.3
-3 8 -12 121.39 19.4
3 -8 -12 124.89 19.4
-3 -8 12 130.79 19.3
-3 -8 12 127.29 19.3
-3 -8 12 118.39 19.3
3 -8 -12 136.19 19.4
-3 8 -12 136.99 19.4
3 8 12 135.19 19.4
3 8 12 141.79 19.3
3 -8 -12 138.99 19.4
-4 -8 -12 46 5.9
4 -8 12 51.29 6.4
-4 -8 -12 31.4 5.9
-4 8 12 39.8 6.3
-4 8 12 44.2 6.3
-4 -8 -12 45.4 6
4 -8 12 27 6
-4 -8 -12 39.4 6
-4 8 -12 32 6
-4 -8 12 36.8 5.8
-4 -8 12 34.5 5.8
-4 8 -12 37.7 6.1
4 8 12 44 6.2
4 8 12 37.6 6.1
4 -8 -12 29.1 6
4 8 12 31.7 5.9
-4 -8 12 37.9 5.8
4 -8 -12 35.6 6
4 8 12 32 5.9
-4 -8 12 38.5 5.8
-5 8 12 0.5 1.4
5 -8 12 -0.6 0.9
5 8 -12 1.8 0.7
-5 8 12 2 1.3
-5 -8 -12 -0.4 0.7
-5 -8 -12 0.9 0.9
5 8 -12 0.3 0.7
-5 -8 -12 0 0.8
-5 -8 -12 0.3 0.9
5 8 12 0.6 0.7
-5 8 -12 0.1 0.9
5 -8 -12 0.5 1
5 -8 -12 0.6 1
5 8 12 1.5 1.1
5 8 12 -0.5 1
6 -8 12 -0.2 1
-6 8 12 2.4 1.4
-6 8 12 2.3 1.5
-6 -8 -12 -0.5 0.9
6 -8 12 -0.2 1
-6 -8 -12 0.3 0.9
-6 -8 -12 1.2 1
-6 8 -12 1 1
6 -8 -12 1.7 1.1
6 -8 -12 0.2 1.2
6 8 12 0.6 0.7
-6 8 -12 -1.4 0.9
6 8 12 -0.3 1.1
6 8 12 0.7 1.2
-7 8 12 5.4 1.7
-7 8 12 4.1 1.6
7 -8 12 4.1 1.4
7 -8 -12 1.2 1.1
-7 8 -12 2.6 1.2
7 8 12 2.4 1.3
7 -8 -12 2.1 1.4
7 8 12 2.5 0.9
7 8 12 1.1 0.9
0 9 -12 0.8 0.7
0 -9 12 -1.8 0.8
0 9 12 -1.7 1
0 9 12 -1 0.6
0 -9 12 -0.3 0.7
0 9 12 -0.1 1.1
0 -9 -12 1 1
0 -9 -12 0.5 1
0 -9 -12 -1 0.8
0 9 -12 0.1 0.6
0 -9 12 0.6 0.8
0 9 12 1.5 0.9
0 -9 -12 -1.2 1.1
0 9 -12 -2.4 0.6
0 9 -12 -0.9 0.6
0 -9 12 -0.6 0.7
1 -9 12 8.5 1.5
-1 -9 -12 4.1 1.6
-1 -9 -12 3.7 1.5
-1 -9 -12 6 1.4
-1 -9 -12 5.6 1.4
-1 9 12 5.9 1.6
1 9 -12 5.1 1.2
1 -9 12 5.6 1.4
1 9 -12 7.4 1.4
1 9 -12 6.8 1.3
-1 9 12 3.8 1.6
1 -9 12 4.5 1.5
1 -9 12 5.9 1.5
1 -9 -12 3.5 1.4
-1 9 -12 5.7 1.4
-1 -9 12 6.8 1.4
-1 9 -12 6.5 1.4
1 9 12 4.1 1.6
1 9 12 7 1.4
1 -9 -12 6 1.5
-1 9 -12 3.9 1.3
1 9 12 4.3 1.6
-1 9 -12 5.5 1.3
1 9 12 5.8 1.4
-1 -9 12 3.5 1.4
2 9 -12 155.38 21.4
2 -9 12 145.29 21.5
2 9 -12 165.68 21.4
-2 -9 -12 121.99 21.4
-2 9 12 133.49 21.5
2 9 -12 146.89 21.4
-2 -9 -12 130.39 21.4
-2 -9 -12 128.09 21.6
-2 9 12 133.49 21.5
2 -9 12 158.48 21.5
2 9 -12 146.69 21.4
-2 9 -12 138.69 21.5
2 -9 -12 128.19 21.5
-2 -9 12 136.59 21.4
2 9 12 143.79 21.5
2 -9 -12 124.39 21.4
-2 9 -12 133.69 21.4
-2 -9 12 135.29 21.4
-2 -9 12 162.78 21.4
2 9 12 117.19 21.4
-2 -9 12 129.79 21.4
2 9 12 139.89 21.4
-3 -9 -12 189.58 29.3
3 -9 12 203.08 29.3
3 9 -12 192.38 29.2
-3 9 12 212.08 29.4
-3 9 12 223.58 29.4
3 -9 12 221.58 29.3
3 9 -12 200.48 29.2
-3 -9 -12 208.78 29.3
-3 -9 -12 185.68 29.3
-3 -9 -12 190.78 29.3
3 9 12 195.78 29.3
-3 -9 12 202.08 29.2
-3 -9 12 186.48 29.2
-3 9 -12 169.88 29.3
-3 9 -12 172.68 29.3
3 -9 -12 187.28 29.3
3 9 12 183.28 29.2
-3 -9 12 197.48 29.2
3 9 12 180.28 29.3
-3 -9 12 175.68 29.2
3 9 12 154.98 29.3
4 9 -12 17.8 2.6
-4 9 12 14.8 3
-4 -9 -12 17.7 2.8
4 -9 12 17.3 2.9
4 -9 12 16.2 2.9
-4 -9 -12 16 2.8
-4 -9 -12 17 2.8
4 9 -12 19.6 2.7
-4 -9 -12 9.9 2.7
-4 9 12 14.8 3.1
4 -9 -12 12.2 2.8
-4 -9 12 15.6 2.6
4 9 12 12.2 2.8
-4 9 -12 12.5 2.8
-4 -9 12 15.6 2.7
-4 -9 12 16.4 2.6
4 -9 -12 10.6 2.7
-4 9 -12 13.9 2.8
4 9 12 16.2 2.8
4 9 12 11 2.6
-4 -9 12 16.2 2.6
-5 -9 -12 4.8 1.3
5 -9 12 6 1.5
-5 -9 -12 2.8 1.7
-5 -9 -12 1.9 1
-5 -9 -12 4.1 1.2
-5 9 12 3.3 1.8
-5 9 12 2.7 1.5
5 9 -12 2.5 0.9
5 -9 12 5.1 1.5
5 9 -12 2.2 0.8
5 9 12 3.7 1.4
5 9 12 1.9 1
-5 9 -12 3.3 1.2
5 -9 -12 2.1 1.2
5 -9 -12 4.6 1.5
5 9 12 3.6 1.4
-5 9 -12 2.4 1.3
5 9 12 1.4 0.9
-6 -9 -12 24.7 3.9
-6 9 12 24.3 4.2
-6 -9 -12 29.5 4.1
-6 -9 -12 18.3 3.9
-6 9 12 31.2 4.5
6 -9 -12 18.3 4
6 -9 -12 17.9 4
6 9 12 35 4.3
6 9 12 22.1 3.8
6 9 12 23.4 4
-7 9 12 12.5 2.5
-7 9 12 10.2 2.5
7 -9 12 11.1 2.3
7 -9 12 9 2.3
7 9 12 10.6 2.2
-7 9 -12 9.6 2.2
7 9 12 9.9 1.9
7 9 12 10.6 2
7 -9 -12 10.1 2.3
7 -9 -12 6 2.1
-7 9 -12 9 2.2
0 10 12 92.69 13.9
0 -10 -12 82.09 13.7
0 10 -12 80.59 13.7
0 -10 12 108.09 13.9
0 -10 -12 91.49 13.8
0 -10 12 94.09 13.7
0 -10 12 89.99 13.8
0 10 12 88.99 13.8
0 10 -12 84.59 13.7
0 10 -12 116.99 13.8
0 -10 12 77.49 13.7
0 10 -12 71.49 13.7
1 -10 12 9.7 2
1 10 -12 10.9 2
1 -10 12 10.9 2.1
-1 10 12 10.5 2.3
1 10 -12 9.5 2
-1 10 12 8.6 2.3
-1 -10 -12 8.9 2
-1 -10 -12 11.7 2.1
1 10 -12 8.4 1.8
-1 -10 12 9.3 2
-1 10 -12 10.1 2
1 10 12 9.1 1.9
-1 -10 12 8.2 2
1 -10 -12 12.1 2.2
1 10 12 8 2.2
-1 -10 12 11.7 2
-1 -10 12 11.1 2
-1 10 -12 12 2
-1 10 -12 10.2 2
1 10 12 11.6 2.3
1 -10 -12 8.3 2
2 10 -12 188.78 28.7
2 -10 12 186.28 28.8
2 10 -12 197.68 28.7
2 -10 12 193.28 28.8
-2 -10 -12 179.18 28.7
2 10 -12 212.08 28.7
-2 -10 -12 188.28 28.7
-2 10 12 187.38 28.8
-2 10 12 168.78 28.9
2 10 -12 202.58 28.7
-2 -10 -12 173.58 28.9
2 -10 -12 168.18 28.8
2 10 12 195.08 28.7
-2 -10 12 164.68 28.7
-2 -10 12 210.38 28.8
-2 10 -12 218.28 28.8
2 10 12 156.98 28.7
2 10 12 148.09 28.7
2 10 12 213.58 28.8
-2 -10 12 236.28 29.1
-2 -10 12 190.08 28.7
2 -10 -12 171.58 28.8
3 -10 12 -0.5 0.9
3 10 -12 -0.4 0.6
-3 10 12 3.4 1.6
3 -10 12 1.1 1
-3 -10 -12 1.1 0.9
3 10 -12 1.9 0.8
-3 -10 -12 -0.7 1.1
-3 -10 -12 -0.1 0.9
3 10 -12 0.3 0.6
-3 10 -12 0.5 0.9
3 10 12 0.8 0.8
3 10 12 0.6 1.1
3 10 12 1.7 1.3
-3 -10 12 0.8 0.9
-3 -10 12 1.3 0.8
3 -10 -12 1.5 1.1
-3 10 -12 1.3 1
-3 -10 12 2.6 0.9
-3 -10 12 -0.1 0.7
3 10 12 1.7 0.8
4 -10 12 11.5 2.3
4 10 -12 15 2.2
4 10 -12 11.2 2.1
-4 -10 -12 11.1 2.2
4 -10 12 14.5 2.4
-4 -10 -12 10.9 2.1
4 10 -12 12 1.9
-4 -10 -12 9 2.2
-4 10 12 11.8 2.6
-4 10 12 9.3 2.6
4 10 12 7.5 2
-4 10 -12 12.3 2.3
-4 -10 12 13.5 2.1
-4 -10 12 10.9 2.1
-4 10 -12 11.8 2.4
-4 -10 12 11.1 2.1
-4 -10 12 10.1 2
4 10 12 10.8 2.2
4 -10 -12 7.3 2.1
4 10 12 16.6 2.6
4 10 12 8.2 2.3
4 -10 -12 12.9 2.4
-5 -10 -12 33.2 5.3
-5 -10 -12 36.2 5.3
-5 10 12 39.1 5.7
5 -10 12 34.5 5.5
-5 10 12 34.4 5.8
-5 -10 -12 30.6 5.3
5 -10 -12 26.9 5.4
5 10 12 28.7 5.3
-5 10 -12 29.3 5.4
-5 10 -12 26.4 5.3
5 10 12 32.5 5.2
5 -10 -12 35.2 5.5
5 10 12 35.5 5.6
6 -10 12 0.4 1.2
-6 -10 -12 1.8 1.1
-6 10 12 3.1 1.6
-6 -10 -12 2.9 1.2
-6 10 12 3 1.7
6 -10 12 3 1.4
-6 -10 -12 1.1 1
6 10 12 1.6 1.4
6 10 12 1.4 1.4
6 -10 -12 1.1 1.4
-6 10 -12 3.2 1.4
6 10 12 1.2 0.8
-6 10 -12 1.1 1.1
6 10 12 1.5 1
6 -10 -12 1.8 1.3
0 11 -12 -0.4 0.7
0 11 -12 0.1 0.7
0 -11 12 -0.8 0.8
0 -11 12 0.3 1.1
0 -11 -12 -0.1 1
0 -11 12 0.9 0.8
0 11 12 -0.2 1.2
0 11 -12 -0.6 0.7
0 -11 -12 1.6 1.1
0 11 12 2.4 1.5
-1 -11 -12 13.3 2.7
1 11 -12 9.1 2.4
-1 11 12 13.2 2.8
1 11 -12 17.9 2.7
1 11 -12 18.8 2.8
1 11 -12 12.1 2.5
1 -11 12 12.8 2.6
-1 -11 -12 14.5 2.7
-1 11 12 10 2.7
1 -11 12 16.8 2.8
1 -11 -12 17.2 2.8
-1 -11 12 15.1 2.6
-1 -11 12 22.1 2.9
-1 11 -12 10.8 2.5
-1 -11 12 15.1 2.6
1 11 12 16.2 2.9
1 -11 -12 13.7 2.6
1 11 12 11.6 2.9
-1 11 -12 11 2.5
-1 -11 12 19.5 2.9
-2 -11 -12 21.7 5.1
-2 11 12 36.4 5.5
2 -11 12 32.4 5.3
2 11 -12 35.3 5.2
2 11 -12 35.7 5.3
2 -11 12 39.5 5.5
-2 -11 -12 32.8 5.2
2 11 -12 40.5 5.3
2 11 -12 28.9 5
-2 11 12 30.1 5.4
2 11 12 44.9 5.5
-2 -11 12 33.6 5.2
-2 -11 12 36 5.2
2 11 12 30.2 5.4
-2 -11 12 28.7 5.2
-2 11 -12 27.8 5.2
2 -11 -12 23.6 5.2
2 -11 -12 23.7 5.2
-3 -11 -12 29.4 6.1
3 -11 12 46 6.4
-3 -11 -12 30.6 6.1
3 11 -12 35.7 6.1
3 -11 12 31.9 6.2
3 11 -12 44.4 6.2
3 11 -12 38.9 6
3 11 -12 42 6
-3 11 12 29.2 6.4
-3 -11 12 38.9 6.2
-3 11 -12 50.49 6.5
-3 -11 12 42.2 6.1
3 -11 -12 36.2 6.3
3 11 12 33.5 6.3
3 11 12 30.2 6.1
3 11 12 33.5 6.3
-3 11 -12 36.2 6.3
-3 -11 12 42.5 6.2
-3 -11 12 43.8 6.1
3 -11 -12 53.59 6.6
4 11 -12 3.5 1.1
-4 -11 -12 4 1.2
-4 11 12 3 1.4
4 11 -12 2.2 0.8
-4 11 12 4.2 1.8
4 11 -12 2.9 0.9
-4 -11 -12 3.9 1.1
4 11 -12 3.8 1
4 -11 12 4.4 1.3
4 -11 12 3 1.3
-4 -11 12 3.6 1.2
4 11 12 3.3 1.4
4 11 12 4.5 1.1
-4 11 -12 2.6 1.2
-4 11 -12 4.2 1.4
4 -11 -12 0.5 1.1
4 11 12 1.7 1.5
-4 -11 12 3.9 1.1
4 -11 -12 2 1.2
-5 -11 -12 13.9 2.8
-5 11 12 18 3.4
5 11 -12 21.8 2.9
5 11 -12 19 2.7
-5 11 12 16.3 3.3
5 -11 12 16.5 3.1
-5 -11 -12 15.3 2.9
5 -11 -12 16.2 3.3
-5 11 -12 13 3.1
5 11 12 18.4 3.2
5 -11 -12 11.9 2.9
5 11 12 15.3 3
-5 11 -12 12 2.9
5 11 12 14.6 2.8
-6 11 12 14.5 3
6 -11 12 11.7 2.5
-6 -11 -12 10.8 2.3
6 -11 12 12.8 2.6
6 11 12 15.2 2.7
6 11 12 8.4 2.4
-6 11 -12 10.1 2.4
6 11 12 10.4 2.2
-6 11 -12 15.8 2.6
0 12 -12 143.69 25
0 -12 -12 175.18 25.1
0 12 12 150.98 25.1
0 -12 -12 192.08 25.1
0 12 -12 154.88 25
0 -12 12 196.28 25.1
0 -12 12 155.68 25
0 12 12 157.38 25.1
0 12 -12 151.28 25
1 12 -12 35.2 5.2
-1 12 12 30.5 5.4
1 12 -12 26.9 5.1
-1 -12 -12 32 5.2
1 12 -12 36.8 5.1
-1 12 12 21.2 5.3
1 -12 12 29.4 5.3
-1 -12 -12 41 5.4
1 -12 12 29.2 5.2
1 12 -12 28.3 5.1
-1 12 -12 22.2 5
-1 12 -12 29.8 5.2
1 -12 -12 33.4 5.3
1 12 12 40.7 5.7
-1 -12 12 37.8 5.2
1 12 12 31.7 5.4
1 -12 -12 31.4 5.3
-2 -12 -12 22.4 4
-2 12 12 20.9 4.1
2 -12 12 27.3 4.1
-2 12 12 16.8 3.9
-2 -12 -12 16.3 3.7
2 -12 12 26.4 4
2 12 -12 26.2 3.9
2 12 -12 36.6 4.3
2 12 12 24.6 4.3
-2 -12 12 21.3 3.8
2 -12 -12 18.9 3.9
-2 12 -12 21.5 3.9
-2 -12 12 20.3 3.8
-2 -12 12 19.5 3.9
-2 -12 12 28.2 3.9
2 -12 -12 22 4
2 12 12 22 4
3 -12 12 -0.3 1
3 12 -12 0.7 0.7
-3 -12 -12 0 0.8
-3 12 12 -1.2 1.2
-3 12 12 1.5 1.6
3 -12 12 1.2 1.2
3 12 -12 0.9 0.7
-3 -12 -12 0.3 1.1
3 12 -12 -0.4 0.9
3 12 12 0.2 1.2
3 12 12 -0.4 1.3
3 -12 -12 -1 1.1
-3 12 -12 1.4 1
-3 -12 12 -1.1 0.8
-3 -12 12 -1 1
-3 12 -12 -1.1 1
3 -12 -12 0.8 1.1
-4 -12 -12 1 1
4 12 -12 0.1 0.8
4 12 -12 1.5 0.8
-4 -12 -12 1.1 1.1
-4 12 12 1.9 1.8
4 12 -12 0 0.9
4 -12 -12 0.9 1
4 12 12 0.8 1.3
4 -12 -12 -2.3 2
4 12 12 0.2 0.7
5 12 -12 12.4 2.2
-5 -12 -12 10.8 2.4
5 -12 12 11.2 2.5
-5 -12 -12 12.2 2.4
-5 12 12 10.6 2.8
-5 12 12 10 2.6
5 12 -12 16.5 2.3
5 -12 12 12.4 2.5
5 12 12 7 2.5
-5 12 -12 11.4 2.5
5 -12 -12 10.8 2.6
5 12 12 11.6 2.6
-5 12 -12 14.7 2.7
0 -13 12 -1.2 0.9
0 -13 -12 -1.1 0.9
0 -13 -12 -1.2 1
0 -13 12 -0.2 0.9
0 13 12 -0.4 1.2
0 13 -12 0 0.8
0 13 12 -1.9 1.3
0 13 -12 0.1 0.9
1 13 -12 -0.8 0.6
-1 -13 -12 0.6 1.2
1 -13 12 0.4 1
1 13 -12 -0.2 0.8
-1 13 12 0.4 1.2
-1 13 12 -0.1 1.4
1 13 -12 0.4 0.8
1 -13 12 0.5 1
1 -13 -12 -0.1 1
-1 -13 12 1.1 1
1 13 12 -0.7 1.1
-1 13 -12 -0.4 0.9
1 -13 -12 -0.2 1
-1 13 -12 -0.5 0.9
1 13 12 -0.9 1.2
-1 -13 12 -0.7 0.8
2 -13 12 -0.7 1
-2 -13 -12 1.7 1.2
-2 13 12 1.8 1.3
-2 13 12 4 1.6
2 13 -12 2.1 0.9
2 13 -12 2 1
-2 -13 -12 0.3 1
2 -13 12 4.3 1.3
2 13 -12 0.9 0.8
2 -13 -12 0.7 1.1
2 13 12 1.9 1.3
2 13 12 0 1.5
-2 -13 12 3.1 1.1
2 -13 -12 -0.7 1
-2 13 -12 0.2 1.2
-2 -13 12 -0.3 0.8
-2 -13 12 2.2 1.3
-2 13 -12 1.9 1
3 13 -12 -0.5 0.6
-3 -13 -12 0.4 0.9
-3 -13 -12 -0.8 1.1
3 13 -12 0.5 0.8
3 13 -12 0.8 0.9
3 13 -12 -0.6 0.9
3 13 12 -2.2 1
3 13 12 1.2 1.4
-3 -13 12 0.5 1
-3 -13 12 -1.3 1.1
-3 -13 12 0.9 1
-3 -13 12 0.2 0.9
4 13 -12 0.2 0.9
-4 -13 -12 0.8 0.9
4 -13 12 -0.6 1
-4 13 12 0.6 1.5
4 13 -12 0.5 0.6
4 -13 12 1 1.3
4 13 -12 1.6 0.9
-4 13 12 0.7 1.6
-4 -13 -12 -0.4 0.9
4 13 12 -0.5 1.4
4 -13 -12 -1.1 1
4 13 12 -0.1 1.3
-4 13 -12 0.9 1
-4 13 -12 1 1.1
-5 13 12 -0.6 1.6
5 13 -12 0.5 0.9
5 -13 12 -0.6 1.2
-5 -13 -12 0.1 0.9
5 -13 12 1.9 1.2
5 13 -12 -0.1 0.8
-5 -13 -12 2.3 1.2
-5 13 12 -0.8 1.3
5 13 12 1.9 1.4
-5 13 -12 1.5 1.3
5 13 12 0.2 1.4
-5 13 -12 -0.1 1
5 -13 -12 0.9 1.4
0 14 12 0.4 1.5
0 -14 -12 3.5 1.4
0 -14 12 4.7 1.3
0 14 12 2.5 1.4
0 14 -12 2.7 1.2
0 -14 -12 3.1 1.3
0 14 -12 1.9 1.1
-1 -14 -12 7.8 1.8
1 -14 12 7 1.6
1 14 -12 5.9 1.5
1 -14 12 7.4 1.6
-1 -14 -12 2.9 1.5
1 14 -12 4.9 1.6
1 14 -12 6.6 1.5
-1 14 12 5.7 2
-1 14 -12 5.7 1.5
-1 -14 12 4.6 1.5
-1 14 -12 4.8 1.5
1 -14 -12 1.9 1.6
1 14 12 4 1.7
1 -14 -12 2.2 1.5
1 14 12 2.9 1.9
-1 -14 12 6.5 1.5
2 14 -12 -0.4 0.9
-2 -14 -12 -1.4 1
-2 -14 -12 0.5 1
2 14 -12 -0.4 0.7
2 14 -12 -0.7 0.8
2 -14 12 -0.8 1.4
2 -14 12 -0.9 1
2 14 12 -0.3 1.3
-2 14 -12 0.4 1
-2 14 -12 -0.1 0.8
-2 -14 12 -0.1 0.8
-2 -14 12 1.4 1
2 14 12 0.6 1.2
3 14 -12 -0.5 0.9
-3 14 12 -0.3 1.4
3 14 -12 0.8 1
-3 -14 -12 1 1.2
3 14 -12 0 0.8
3 -14 12 1.3 1.2
-3 -14 -12 1 1.1
-3 14 12 2.4 1.8
3 -14 12 -0.1 1.1
3 14 12 -1 1.1
-3 14 -12 0.2 1.1
3 -14 -12 -1.4 1
-3 -14 12 -1.2 0.8
-3 -14 12 0.9 1.2
3 -14 -12 -0.2 1.2
3 14 12 1.3 1.5
-3 14 -12 -0.5 0.8
4 14 -12 1.6 0.8
4 -14 12 0.4 1.2
-4 -14 -12 0.7 1.2
4 -14 12 2.5 1.3
4 14 -12 2.6 0.9
4 14 -12 4.2 1.2
-4 14 12 1.5 1.6
-4 -14 -12 0.7 1
4 14 -12 3.2 1.1
-4 14 12 -1.8 1.6
-4 14 -12 1.3 1.1
4 -14 -12 -0.6 1.5
4 14 12 1.4 1.6
4 -14 -12 3.3 1.4
4 14 12 0.1 1.2
-4 14 -12 1.7 1.3
0 15 -12 -0.3 1.1
0 15 -12 0.3 0.9
0 -15 12 0.7 1.1
0 -15 12 0.1 1
1 15 -12 1.2 1.1
-1 -15 -12 0.6 1.2
-1 15 12 1.9 1.4
1 -15 12 2.8 1.2
-1 -15 -12 -0.1 1.3
1 -15 12 0.8 1.1
-1 -15 12 2.5 1.1
1 15 12 3.7 1.5
-1 15 -12 3.7 1.4
-1 -15 12 2.5 1.3
1 -15 -12 1.5 1.2
-1 15 -12 0.8 1
1 15 12 -0.6 1.5
1 -15 -12 1.7 1.3
2 15 -12 0.7 0.9
2 -15 12 2.8 1.2
-2 -15 -12 2.3 1.4
2 15 -12 -0.6 1
2 -15 12 0.6 1.1
-2 -15 -12 1.3 1.1
2 15 -12 0.4 0.8
-2 15 12 3.8 1.7
-2 15 12 0.6 1.4
2 15 12 1 1.4
2 15 12 -0.7 1.4
2 -15 -12 0.1 1.2
-2 -15 12 0.6 1
-2 -15 12 0.4 1
-2 15 -12 3 1.4
2 -15 -12 -1.3 1
-3 -15 -12 6.3 1.7
3 15 -12 6.7 1.5
3 15 -12 6.9 1.6
3 15 -12 7.1 1.6
3 -15 12 6.1 1.8
-3 15 12 4 1.8
3 -15 12 4.3 1.7
-3 15 12 5 2.2
-3 -15 -12 6.2 1.6
3 15 -12 7 1.5
-3 15 -12 7.3 1.7
3 -15 -12 4.3 1.6
-3 15 -12 3.6 1.8
3 15 12 5.4 2.2
3 15 12 4.8 1.8
3 -15 -12 3.7 1.6
0 16 12 4.4 2
0 -16 12 2.8 1.4
0 16 -12 4.8 1.5
0 -16 -12 4.3 1.6
0 -16 -12 5.4 1.7
0 16 12 1.7 1.6
0 16 -12 9.5 1.8
0 -16 12 3.3 1.4
1 -16 12 1.2 1.2
1 16 -12 0.7 1
-1 -16 -12 -0.1 1.1
-1 -16 -12 0.3 1.2
-1 16 12 2.6 1.7
-1 16 12 3.5 1.7
1 16 -12 -0.2 1.2
1 16 12 2.2 1.6
-1 -16 12 0.1 1
1 -16 -12 0.8 1.3
1 -16 -12 1.9 1.3
-1 -16 12 1 1
2 -16 12 1 1.3
2 16 -12 1.3 1.1
-2 16 12 -2.2 1.3
2 16 -12 0.7 1
2 -16 12 0.7 1.2
-2 16 12 3 1.9
2 16 -12 -0.4 0.9
2 -16 -12 -0.9 1.2
2 16 12 -0.8 1.3
2 -16 -12 1.2 1.3
-2 16 -12 0.1 1
-2 -16 12 0.1 1.1
-2 16 -12 0.3 1.3
-2 -16 12 1.5 1.2
0 0 -13 0.1 0.7
0 0 13 -0.6 0.7
0 0 13 -0.1 0.7
0 0 -13 0.4 0.6
0 0 13 -0.7 0.8
0 0 -13 -0.1 0.5
0 0 -13 -1.1 0.6
-1 0 13 1.2 0.8
-1 0 13 0.3 0.7
1 0 13 -0.2 0.6
-1 0 -13 0.2 0.7
-1 0 -13 0.2 0.7
-1 0 -13 0.2 0.6
1 0 13 -0.2 0.6
1 0 -13 -0.7 0.5
1 0 13 0 0.6
1 0 13 -0.1 0.7
-1 0 13 -0.6 0.6
1 0 -13 0.4 0.8
1 0 -13 0.2 0.5
-1 0 13 0.6 0.8
-1 0 -13 0.3 0.6
1 0 -13 0.7 0.7
-2 0 -13 0.4 0.8
2 0 13 -0.5 0.6
-2 0 -13 0.7 0.9
2 0 13 -0.3 0.5
2 0 13 0 0.7
2 0 13 -0.2 0.6
-2 0 13 -0.1 0.6
2 0 -13 0.1 0.7
-2 0 -13 -0.3 0.7
-2 0 13 -0.2 0.7
-2 0 -13 -0.1 0.7
2 0 -13 -0.3 0.5
2 0 -13 0.4 0.5
-2 0 13 0.4 0.8
-2 0 13 -0.1 0.8
3 0 -13 -0.5 0.5
-3 0 -13 0 0.7
3 0 -13 0.5 0.5
-3 0 13 0.5 0.7
-3 0 13 0.7 0.7
3 0 -13 0.6 0.7
-3 0 -13 1.2 0.9
-3 0 13 0 0.6
3 0 -13 -0.1 0.6
3 0 13 0.7 0.6
-3 0 13 -0.8 0.8
-4 0 -13 -1 0.8
-4 0 13 0.7 0.8
4 0 13 1.2 0.8
4 0 -13 0.3 0.5
-4 0 -13 -0.6 0.7
-4 0 13 0.1 0.6
4 0 13 0.5 0.6
4 0 13 -0.1 0.6
-4 0 13 1.1 0.9
4 0 -13 0.7 0.6
4 0 -13 0.3 0.6
4 0 -13 -0.3 0.7
-4 0 13 -0.2 0.6
4 0 13 -0.6 0.6
-4 0 -13 -1.1 0.7
5 0 13 0.7 0.6
-5 0 -13 0.3 0.9
-5 0 13 1.3 0.8
5 0 -13 0.1 0.6
5 0 -13 -0.3 0.6
5 0 -13 -0.4 0.8
-5 0 -13 0.7 0.9
-5 0 -13 0.9 0.8
-5 0 13 0.4 0.7
-5 0 13 -0.5 0.8
-5 0 -13 -0.7 0.8
5 0 13 0.3 0.7
5 0 13 -0.6 0.5
-5 0 13 0.2 1
5 0 13 0.7 0.8
6 0 -13 0.3 0.7
-6 0 13 -0.7 0.8
6 0 -13 -0.2 0.6
-6 0 13 -1.2 0.7
-6 0 13 0.8 1
6 0 -13 -0.2 0.8
6 0 13 0 0.6
-6 0 13 -1 0.9
6 0 -13 -0.3 0.8
6 0 13 -1 0.7
-6 0 -13 0.3 0.8
6 0 13 0.1 0.8
-6 0 -13 1.5 0.9
7 0 13 -0.1 0.6
7 0 -13 0.1 0.6
7 0 13 0.5 0.9
-7 0 -13 -1.2 0.8
7 0 -13 0.6 0.8
-7 0 -13 0.1 0.9
7 0 13 -0.5 0.9
7 0 -13 -1.2 0.9
7 0 -13 0.5 0.6
8 0 13 0.1 1.1
8 0 -13 1.5 1
-8 0 -13 -1.4 0.8
8 0 -13 -0.5 1
8 0 13 0.9 0.9
-8 0 -13 0.8 1
0 1 13 -0.9 0.6
0 1 13 -0.1 0.7
0 -1 13 0.2 0.7
0 1 13 0.2 0.8
0 1 -13 1.1 0.8
0 -1 -13 -0.6 0.5
0 -1 -13 0.5 0.7
0 1 -13 0.4 0.7
0 1 13 -0.5 0.7
0 -1 13 0.9 0.7
0 -1 -13 0.8 0.6
0 -1 13 0 0.7
0 1 -13 0.6 0.5
0 1 -13 0 0.6
0 -1 -13 0.3 0.7
0 -1 13 0.5 0.7
-1 1 13 59.39 10.1
1 1 -13 75.99 10.1
-1 -1 -13 64.79 10.1
1 1 -13 49.5 10
-1 1 13 57.69 10.1
-1 -1 -13 59.99 10.1
-1 1 13 61.59 10.1
-1 -1 -13 66.49 10.1
-1 1 13 60.89 10.1
1 -1 13 65.19 10.1
1 -1 13 65.99 10.1
1 1 -13 68.39 10.1
1 1 -13 65.19 10.1
1 -1 13 57.09 10.1
1 -1 13 65.59 10.1
-1 -1 -13 73.29 10.1
-1 1 -13 55.19 10.1
-1 -1 13 56.29 10
1 -1 -13 68.69 10.1
1 1 13 72.39 10.1
1 1 13 62.59 10.1
1 -1 -13 71.39 10
-1 -1 13 77.19 10.1
1 1 13 65.49 10.1
-1 -1 13 58.99 10.1
-1 1 -13 83.59 10.1
-1 1 -13 66.99 10.1
1 1 13 66.49 10.1
-1 -1 13 77.19 10.1
-2 1 13 508.35 77.99
-2 -1 -13 539.45 77.99
2 1 -13 520.85 77.89
-2 1 13 506.65 77.89
-2 -1 -13 505.95 77.99
-2 1 13 415.96 77.89
2 1 -13 545.55 77.89
-2 -1 -13 458.25 77.89
2 1 -13 511.35 77.89
-2 -1 -13 496.95 77.99
-2 1 13 498.95 77.89
2 -1 -13 537.65 77.89
2 1 13 604.74 77.99
2 -1 -13 557.84 77.89
-2 -1 13 493.25 77.89
2 -1 -13 521.15 77.89
2 -1 -13 507.45 77.89
2 1 13 520.25 77.99
-2 -1 13 545.65 77.89
2 1 13 455.05 77.89
-2 -1 13 461.85 77.99
-2 1 -13 488.95 77.99
-2 -1 13 569.64 77.89
-3 1 13 38.6 6.3
-3 1 13 39.8 6.3
-3 -1 -13 45.6 6.4
-3 -1 -13 38.7 6.3
3 1 -13 37.8 6.2
-3 1 13 40.9 6.4
3 1 -13 47 6.2
-3 1 13 37.6 6.3
3 -1 13 41.9 6.3
3 1 -13 38.8 6.2
3 -1 13 39.6 6.3
3 -1 13 40.5 6.3
3 1 -13 35 6.2
-3 1 -13 43.6 6.3
-3 -1 13 41.4 6.3
3 -1 -13 41.2 6.2
-3 -1 13 33.6 6.2
-3 -1 13 37.6 6.2
3 1 13 38.6 6.3
-3 -1 13 38.6 6.3
3 -1 -13 40.1 6.3
3 -1 -13 36.3 6.2
-3 1 -13 37.4 6.4
-3 1 -13 45.7 6.4
-3 1 -13 41.2 6.3
3 1 13 37.5 6.3
3 -1 -13 50.59 6.3
-4 -1 -13 34 5.4
-4 1 13 32.4 5.4
4 1 -13 35.3 5.2
-4 -1 -13 26.3 5.3
-4 -1 -13 31.4 5.4
-4 1 13 33.8 5.3
4 1 -13 28.3 5.2
4 -1 13 34.3 5.4
4 -1 13 33 5.3
-4 -1 -13 32.6 5.4
4 1 -13 42.6 5.2
4 -1 13 36.9 5.4
4 -1 13 31.4 5.4
-4 1 13 31 5.3
-4 1 13 31.5 5.3
4 1 13 37.6 5.4
-4 -1 13 34.8 5.2
-4 1 -13 36.7 5.4
-4 1 -13 37.7 5.5
4 -1 -13 31.6 5.3
4 1 13 27.4 5.2
-4 -1 13 31.4 5.2
4 -1 -13 34.5 5.3
4 -1 -13 33.8 5.3
-4 1 -13 35.9 5.4
-4 -1 13 37.6 5.3
-4 -1 13 30.6 5.3
4 -1 -13 32.7 5.2
-4 1 -13 35.6 5.4
4 1 13 28.4 5.3
4 1 13 23.8 5.2
5 -1 13 4.3 1.3
-5 -1 -13 5.7 1.4
5 -1 13 4.5 1.2
-5 -1 -13 4.1 1.4
5 1 -13 5.3 1.1
-5 -1 -13 6.6 1.5
-5 1 13 5 1.3
5 1 -13 5.3 1.2
5 -1 13 5.8 1.3
-5 1 13 7.1 1.4
5 1 -13 4.7 1.1
-5 1 13 7 1.6
-5 1 13 4.5 1.3
5 1 -13 3.4 1.2
-5 -1 -13 3.3 1.3
5 -1 13 6.4 1.4
5 -1 -13 5 1.1
-5 1 -13 9.2 1.5
5 1 13 4.4 1.2
5 -1 -13 7.8 1.4
5 -1 -13 5.3 1.3
-5 -1 13 5.7 1.3
5 1 13 5.9 1.3
-5 1 -13 6 1.5
-5 1 -13 5.8 1.4
5 1 13 4.3 1.2
-5 -1 13 8 1.5
-5 -1 13 5.5 1.2
-5 1 -13 4.1 1.4
5 1 13 5.1 1.3
5 -1 -13 5.9 1.2
-5 -1 13 5.9 1.3
6 -1 13 24.8 4.9
-6 -1 -13 31.4 5
6 -1 13 24.9 4.8
-6 1 13 27.2 4.9
6 1 -13 25.2 4.7
6 1 -13 31.7 4.6
-6 -1 -13 40.5 5.1
-6 1 13 24.6 4.9
-6 -1 -13 31.2 4.9
6 -1 13 26 4.8
6 1 -13 31.3 4.6
-6 1 13 34 4.9
-6 1 13 23.6 4.8
6 1 -13 34.9 4.8
-6 -1 13 34.8 5
6 -1 -13 25 4.8
-6 -1 13 25.9 4.7
-6 -1 13 29 4.8
-6 1 -13 37.3 5
6 1 13 28.1 4.9
6 1 13 34 4.9
-6 -1 13 27.3 4.8
-6 1 -13 30.1 4.9
6 1 13 34.7 5
6 -1 -13 32.7 4.8
6 1 13 26.1 4.8
6 -1 -13 32.5 4.9
7 1 -13 8 1.7
7 1 -13 6.6 1.6
-7 -1 -13 7 1.7
-7 1 13 7.3 1.7
7 -1 13 10.4 1.9
7 -1 13 8.7 1.9
7 -1 -13 11.4 1.9
7 1 13 7.3 1.8
7 1 13 5.4 1.7
7 -1 -13 9.3 1.7
7 1 13 8.8 1.7
-7 1 -13 8.8 1.9
-7 1 -13 8.6 1.8
-8 -1 -13 20.9 2.7
8 -1 13 12.6 2.6
8 1 -13 12.4 2.2
8 1 -13 15.8 2.4
8 -1 13 11.8 2.4
8 -1 -13 13 2.2
8 1 13 12.4 2.4
-8 1 -13 15.9 2.6
8 -1 -13 9.3 2.1
8 1 13 18.1 2.7
8 1 13 12.4 2.4
8 -1 -13 9.5 2.3
-8 1 -13 12.7 2.5
8 -1 -13 10 2.7
0 2 13 348.97 52.19
0 2 -13 319.27 52.19
0 -2 13 367.06 52.19
0 -2 -13 332.37 52.19
0 2 -13 321.67 52.19
0 -2 13 380.86 52.29
0 2 13 377.86 52.29
0 -2 13 380.86 52.19
0 -2 -13 356.76 52.19
0 2 13 346.17 52.29
0 -2 13 300.27 52.19
0 2 -13 352.16 52.29
0 -2 -13 294.67 52.19
0 2 13 361.86 52.19
0 -2 -13 306.67 52.19
-1 2 13 21.2 4
-1 -2 -13 21.3 3.9
-1 2 13 23.4 4
-1 2 13 29.3 4.1
1 2 -13 25.9 3.9
-1 2 13 22.6 4
-1 -2 -13 23.9 4
1 2 -13 22.8 3.9
-1 -2 -13 18.2 4
1 -2 13 26.7 4
1 -2 13 32.7 4.1
1 2 -13 23.4 3.9
1 -2 13 30.9 4.1
1 -2 13 26.6 4
-1 -2 -13 27.9 4
1 2 -13 27.9 4
-1 2 -13 21.9 3.9
1 -2 -13 27.7 4.2
1 2 13 22.3 4
-1 -2 13 21.7 3.9
1 2 13 26.6 4
-1 2 -13 23.2 4
1 -2 -13 18.6 3.9
1 -2 -13 24.7 4
-1 2 -13 28.3 4.1
-1 -2 13 25.4 4
1 2 13 25.4 4
-1 -2 13 22.7 3.9
-1 -2 13 22.1 3.9
1 -2 -13 22.6 3.9
2 -2 13 21.5 3.8
2 2 -13 25.3 3.7
-2 -2 -13 20 3.8
-2 2 13 21.9 3.8
2 2 -13 31.1 3.8
-2 2 13 21.2 3.8
-2 2 13 21.9 3.8
2 -2 13 18.8 3.7
-2 2 13 27.7 3.9
-2 -2 -13 18.4 3.7
2 2 -13 21.8 3.7
-2 -2 -13 16.7 3.7
2 2 -13 20.2 3.7
-2 -2 -13 25.1 3.9
2 2 13 25.9 3.9
2 -2 -13 21.7 3.7
2 -2 -13 25.6 3.8
2 2 13 20.4 3.7
2 -2 -13 23.9 3.7
-2 -2 13 23.4 3.7
2 -2 -13 21.6 3.7
-2 2 -13 18.3 3.8
-2 -2 13 23.3 3.7
-2 -2 13 27.4 3.7
2 2 13 30 3.9
-2 2 -13 26.1 3.8
-3 2 13 48.9 7.1
-3 2 13 38.1 7.1
3 2 -13 47.2 7.1
3 2 -13 45.9 7
3 -2 13 48.7 7.2
3 -2 13 50.19 7.2
3 -2 13 44.1 7.1
-3 2 13 47.8 7.2
-3 2 13 46.9 7.3
-3 -2 -13 42.8 7.1
3 -2 13 42.4 7.1
-3 -2 -13 39.3 7.2
3 2 -13 38 7.1
-3 -2 13 42.6 7.1
3 2 13 43.4 7.1
3 -2 -13 50.39 7.1
3 2 13 47.5 7.1
-3 2 -13 43.5 7.1
-3 -2 13 46.9 7.1
3 -2 -13 46 7.1
-3 -2 13 47.1 7.1
3 -2 -13 45.7 7.1
-3 -2 13 43.1 7
-3 2 -13 41.7 7.1
-3 2 -13 51.59 7.2
-3 2 -13 51.79 7.2
3 -2 -13 47.4 7.1
-4 -2 -13 261.87 37.5
-4 2 13 246.78 37.5
4 -2 13 238.78 37.4
4 -2 13 268.77 37.5
-4 -2 -13 231.88 37.4
-4 2 13 220.98 37.4
-4 2 13 207.88 37.4
-4 -2 -13 269.57 37.5
4 2 -13 274.57 37.4
4 2 -13 242.28 37.3
-4 -2 -13 231.88 37.4
4 -2 13 239.88 37.4
4 2 -13 217.98 37.3
-4 2 13 228.38 37.4
4 -2 13 258.07 37.5
4 2 -13 244.58 37.4
4 2 13 237.78 37.4
-4 -2 13 243.48 37.4
-4 -2 13 249.58 37.4
-4 2 -13 242.78 37.4
4 2 13 245.48 37.4
-4 -2 13 241.88 37.4
-4 -2 13 261.37 37.4
4 -2 -13 225.98 37.4
-4 2 -13 259.87 37.5
4 -2 -13 253.37 37.4
-4 2 -13 265.37 37.5
4 2 13 289.37 37.5
4 2 13 223.88 37.4
-4 2 -13 260.97 37.5
4 -2 -13 237.48 37.4
5 2 -13 73.79 12
-5 2 13 73.49 12
-5 -2 -13 69.29 12.1
5 -2 13 70.79 12.1
5 -2 13 67.69 12.1
-5 2 13 81.09 12.1
5 -2 13 73.39 12.1
-5 -2 -13 71.59 12.1
-5 2 13 75.89 12.1
5 2 -13 83.89 12
5 -2 13 82.99 12.1
-5 -2 -13 76.79 12.1
-5 2 13 81.89 12.2
-5 -2 -13 75.99 12.1
5 2 -13 74.79 12
5 2 13 77.79 12.1
5 2 13 78.19 12.1
5 2 13 72.09 12
-5 -2 13 90.39 12
5 -2 -13 93.69 12.1
5 -2 -13 83.19 12
5 -2 -13 90.79 12.1
5 -2 -13 79.79 12.1
5 2 13 80.49 12.1
-5 -2 13 86.39 12
-5 2 -13 70.99 12.1
-5 -2 13 78.99 12
-5 2 -13 90.89 12.2
-5 -2 13 58.89 12
-5 2 -13 81.29 12.1
-6 2 13 23.1 3.6
-6 -2 -13 21.4 3.6
-6 -2 -13 18.2 3.5
-6 2 13 19.1 3.7
-6 2 13 24.7 3.6
6 -2 13 20 3.6
6 2 -13 25.6 3.5
6 -2 13 19.2 3.6
-6 -2 13 17.7 3.5
-6 2 -13 23.3 3.6
6 -2 -13 19 3.5
-6 -2 13 19 3.4
6 -2 -13 15.5 3.4
6 2 13 22.2 3.5
6 2 13 23.1 3.6
-6 -2 13 23.3 3.5
-6 2 -13 18.6 3.5
-6 -2 13 19.7 3.4
6 2 13 22.6 3.5
6 -2 -13 16.7 3.5
6 2 13 25.5 3.6
7 -2 13 29 5.2
-7 -2 -13 34.7 5.3
-7 2 13 40 5.3
-7 2 13 36.4 5.4
-7 2 13 32.5 5.2
7 2 -13 27.4 5
7 -2 13 35.5 5.4
7 2 -13 31.9 5.1
-7 -2 -13 32.8 5.3
7 -2 -13 37.5 5
7 2 13 27.9 5.1
7 -2 -13 25.2 5.1
7 -2 -13 30.8 5.1
-7 2 -13 22.4 5.1
-7 2 -13 37.6 5.3
7 2 13 29.9 5.2
7 2 13 31.6 5.2
-8 -2 -13 3.4 1.3
8 -2 13 1.3 1.2
8 2 -13 2.5 1
8 -2 13 0.5 1.1
8 2 -13 0.1 1.2
-8 -2 -13 1.4 1
8 -2 -13 1.8 1
8 2 13 2.1 1
8 2 13 3 1
-8 2 -13 1.6 1
-8 2 -13 0.8 0.9
8 -2 -13 -0.2 1.1
8 -2 -13 1 0.9
8 -2 -13 0.3 1
8 2 13 0.4 1
0 3 13 0.2 0.7
0 -3 13 0.3 0.7
0 3 13 -1.1 0.8
0 -3 13 0.4 0.7
0 -3 -13 -0.3 0.6
0 -3 -13 -0.3 0.6
0 -3 13 -0.6 0.6
0 -3 13 -0.2 0.6
0 3 -13 -0.1 0.7
0 3 13 -1.1 0.7
0 -3 -13 -0.2 0.7
0 3 -13 0.2 0.6
0 3 -13 0.2 0.7
0 3 13 -0.6 0.6
0 -3 -13 0.1 0.7
-1 -3 -13 58.89 8.5
1 3 -13 45.3 8.4
-1 -3 -13 61.69 8.5
-1 3 13 48.2 8.5
-1 -3 -13 51.39 8.5
1 3 -13 56.89 8.4
1 -3 13 49.6 8.4
1 3 -13 50.89 8.5
-1 -3 -13 51.49 8.5
1 -3 13 48.1 8.4
1 3 -13 64.99 8.5
1 -3 13 62.29 8.5
-1 3 13 60.29 8.5
-1 3 13 58.79 8.5
-1 3 13 59.79 8.5
1 -3 13 45.5 8.4
-1 -3 13 58.69 8.4
1 -3 -13 48.5 8.4
-1 3 -13 46.7 8.4
-1 -3 13 49.1 8.4
-1 -3 13 56.89 8.4
-1 3 -13 53.09 8.5
1 -3 -13 51.19 8.4
1 -3 -13 54.19 8.4
1 3 13 59.79 8.5
1 -3 -13 54.69 8.5
-1 -3 13 57.69 8.4
1 3 13 49.7 8.5
-1 3 -13 58.29 8.5
-1 3 -13 61.49 8.5
1 3 13 57.99 8.5
1 3 13 57.89 8.5
-2 3 13 60.99 9.3
-2 3 13 55.69 9.3
-2 -3 -13 64.29 9.3
-2 3 13 69.29 9.4
-2 -3 -13 53.99 9.3
2 3 -13 60.99 9.3
2 3 -13 65.89 9.3
2 -3 13 48.8 9.3
-2 3 13 61.49 9.4
2 -3 13 75.19 9.4
2 3 -13 61.19 9.3
2 3 -13 61.79 9.3
-2 -3 13 67.89 9.3
-2 3 -13 62.99 9.3
-2 -3 13 52.69 9.3
2 -3 -13 51.99 9.3
-2 3 -13 53.69 9.3
2 -3 -13 58.69 9.3
-2 -3 13 50.29 9.2
2 3 13 60.79 9.3
2 -3 -13 59.39 9.3
2 -3 -13 65.39 9.3
-2 -3 13 64.09 9.3
3 3 -13 8.8 1.5
3 -3 13 5.5 1.6
-3 3 13 7.9 1.7
-3 3 13 8 1.9
-3 3 13 8.1 1.7
-3 -3 -13 10.2 1.8
3 -3 13 10.8 1.8
3 3 -13 11.9 1.7
3 -3 13 9 1.7
3 -3 13 11.3 1.8
-3 -3 -13 7.9 1.7
3 3 -13 8.1 1.7
3 -3 -13 6.5 1.7
-3 3 -13 6.4 1.7
-3 -3 13 8.2 1.6
3 3 13 11.1 1.8
-3 -3 13 7.5 1.6
-3 3 -13 9 1.7
3 -3 -13 7.2 1.7
3 -3 -13 10.1 1.7
3 -3 -13 10.5 1.8
-3 -3 13 8.5 1.6
-3 3 -13 6.1 1.7
-3 -3 13 8.5 1.6
-3 3 -13 7.7 1.8
4 3 -13 68.79 10.5
4 -3 13 64.09 10.7
-4 -3 -13 78.49 10.7
4 -3 13 66.39 10.7
4 3 -13 68.99 10.5
4 3 -13 73.79 10.6
4 3 -13 63.29 10.6
-4 -3 -13 70.39 10.7
4 -3 13 71.99 10.7
4 -3 13 75.69 10.7
-4 3 13 76.19 10.7
-4 3 13 64.49 10.6
-4 -3 -13 65.39 10.7
4 3 13 75.59 10.7
-4 3 -13 68.69 10.7
-4 3 -13 65.99 10.7
4 3 13 69.19 10.6
-4 -3 13 67.39 10.6
-4 3 -13 71.19 10.7
4 -3 -13 60.09 10.6
-4 3 -13 69.59 10.7
4 -3 -13 65.29 10.6
4 -3 -13 62.79 10.6
-4 -3 13 65.49 10.6
4 3 13 66.39 10.6
4 3 13 68.89 10.6
-4 -3 13 74.29 10.6
5 3 -13 10.7 1.7
-5 -3 -13 6.1 1.7
5 -3 13 6.9 1.7
-5 -3 -13 11.6 1.9
-5 3 13 5.9 1.7
5 -3 13 7.2 1.7
-5 -3 -13 10.4 1.9
-5 -3 -13 9.8 1.9
5 -3 13 6.1 1.8
-5 3 13 6.6 1.7
-5 -3 13 11.5 1.7
5 3 13 8.5 1.7
-5 -3 13 10.3 1.7
-5 3 -13 8.3 1.8
5 -3 -13 9.8 1.8
-5 -3 13 9.5 1.7
5 3 13 11.2 1.9
5 3 13 8.3 1.8
-5 -3 13 9.2 1.7
5 -3 -13 8.5 1.8
5 3 13 7.8 1.7
5 -3 -13 8.2 1.7
-6 3 13 11.7 2.4
6 -3 13 10.4 2.2
-6 3 13 11.3 2.1
-6 3 13 11 2.1
-6 -3 -13 9.6 2.1
6 3 -13 10.8 1.9
-6 -3 -13 9.4 2
-6 -3 -13 11.1 2.2
-6 3 13 8.7 2.2
6 -3 13 13.4 2.2
6 3 13 7.8 1.9
6 -3 -13 11.8 2.1
-6 -3 13 10.3 2
-6 -3 13 9.4 1.9
6 -3 -13 10.9 2
6 3 13 11.6 2.1
6 -3 -13 8 2
6 3 13 9.9 2
6 -3 -13 13.3 2.2
-6 3 -13 11.3 2.1
-6 3 -13 12.2 2.2
7 -3 13 0.6 0.9
-7 3 13 -1.8 0.8
7 -3 13 0.1 1.1
-7 -3 -13 1.4 0.9
7 3 -13 0.4 0.6
7 3 -13 -1.8 0.7
-7 3 13 0.4 1.3
-7 3 13 -1 1.4
-7 3 13 0 0.9
-7 -3 -13 -0.5 1
7 -3 -13 -0.1 1.2
7 -3 -13 -0.8 1
7 3 13 -0.8 0.9
7 -3 -13 -0.2 0.8
7 3 13 -0.1 0.7
7 3 13 -0.3 1
-7 3 -13 -1.1 0.7
7 -3 -13 0.6 0.9
-7 3 -13 0.3 0.9
-8 -3 -13 1.9 1
8 -3 13 2.4 1.3
8 3 -13 -0.2 0.8
8 -3 13 -1.3 0.9
-8 3 -13 -1.2 0.9
8 3 13 0.4 1
8 -3 -13 2.1 1
8 -3 -13 -0.5 1.1
8 -3 -13 -0.8 1
8 -3 -13 -0.6 0.8
-8 3 -13 0.6 1
8 3 13 2 1.1
8 3 13 0.3 0.8
0 4 -13 29.7 4.3
0 -4 -13 29.3 4.3
0 4 13 25.1 4.3
0 4 -13 30.5 4.3
0 -4 -13 21.1 4.2
0 4 -13 31.2 4.3
0 -4 13 22.7 4.2
0 -4 13 26.1 4.3
0 4 -13 30.1 4.3
0 -4 13 21.5 4.2
0 -4 13 21.1 4.2
0 4 13 31 4.4
1 -4 13 113.59 17.7
1 4 -13 121.19 17.7
-1 4 13 112.39 17.8
-1 -4 -13 113.09 17.7
-1 -4 -13 117.09 17.7
1 -4 13 100.19 17.7
-1 4 13 103.19 17.7
1 4 -13 119.99 17.7
1 4 13 107.69 17.7
1 4 13 120.79 17.8
-1 -4 13 120.39 17.7
-1 4 -13 109.99 17.7
-1 -4 13 124.89 17.7
1 -4 -13 136.99 17.8
2 4 -13 1.5 0.6
-2 -4 -13 1.3 1
2 -4 13 -0.9 0.7
2 4 -13 0.7 0.6
2 -4 13 1.6 0.7
-2 4 13 0.9 0.7
2 4 -13 0.5 0.6
-2 -4 -13 1.9 0.9
2 -4 13 1.2 0.9
2 -4 13 1 0.7
-2 4 13 0.2 0.8
2 4 -13 1 0.7
2 -4 -13 -0.1 0.6
-2 4 -13 1.3 0.9
2 -4 -13 0.9 0.8
-2 -4 13 0 0.6
-2 4 -13 0.4 0.7
-2 -4 13 0 0.6
-2 4 -13 0.2 0.8
-2 -4 13 0.5 0.6
-2 -4 13 -0.2 0.6
-2 4 -13 1.3 0.8
3 -4 13 22.7 3.8
-3 -4 -13 18.7 3.6
3 -4 13 19.1 3.6
3 -4 13 27.2 3.8
3 -4 13 22 3.7
-3 -4 -13 29.1 3.8
-3 -4 -13 24.4 3.7
-3 4 13 21.5 3.7
-3 -4 -13 29.3 3.9
3 4 -13 26.5 3.6
3 4 -13 24.4 3.5
-3 4 -13 21.7 3.8
3 4 13 20.2 3.6
-3 -4 13 20.1 3.5
3 4 13 20.1 3.6
3 4 13 23.6 3.7
3 -4 -13 18.5 3.6
-3 4 -13 19.8 3.6
-3 -4 13 16.5 3.5
-3 4 -13 20.2 3.7
-3 -4 13 21 3.5
-3 4 -13 28.1 3.9
3 -4 -13 18.2 3.6
-4 -4 -13 11 2.1
4 4 -13 8.4 1.9
4 4 -13 12 2
4 -4 13 10.9 2.2
-4 -4 -13 10.3 2.1
-4 -4 -13 14 2.3
-4 4 13 11.8 2.2
4 4 -13 12.3 2.1
4 -4 13 12.3 2.2
-4 4 13 10.2 2.4
-4 -4 -13 12.6 2.2
-4 4 13 10 2.1
4 -4 -13 10.8 2.2
-4 4 -13 11.5 2.2
4 4 13 11.8 2.1
-4 -4 13 11 2
-4 4 -13 11.8 2.2
-4 -4 13 11.7 2
4 4 13 12.2 2.2
4 4 13 11.9 2.2
-4 -4 13 13.8 2.1
4 -4 -13 11 2.2
-4 4 -13 11.5 2.2
-4 -4 13 13.1 2
4 -4 -13 12.4 2.1
-5 4 13 15.7 3.3
-5 4 13 21.9 3.4
-5 4 13 21 3.6
-5 -4 -13 15.3 3.3
5 -4 13 24.7 3.5
-5 -4 -13 17.9 3.3
-5 4 13 22.8 3.5
-5 -4 -13 15.6 3.3
5 4 -13 21.2 3.2
5 -4 13 14.3 3.2
5 4 13 25 3.5
5 -4 -13 15.6 3.3
5 4 13 20.5 3.3
5 -4 -13 19.3 3.4
-5 -4 13 17.7 3.2
5 4 13 22.7 3.4
-5 4 -13 18.3 3.4
-5 -4 13 22.8 3.2
5 4 13 19.1 3.3
5 -4 -13 19.1 3.3
-5 -4 13 19.8 3.2
-5 4 -13 16.8 3.3
-6 -4 -13 7 1.5
-6 4 13 4.3 1.2
6 -4 13 4.7 1.4
6 -4 13 6.4 1.4
-6 4 13 2.7 1.2
-6 -4 -13 3.4 1.4
-6 4 13 3.6 1.5
-6 -4 -13 4.7 1.2
6 4 -13 4.4 1
-6 -4 -13 4.6 1.3
6 4 -13 4.5 1
-6 4 13 1.6 1.4
-6 4 -13 2.8 1.2
6 4 13 4.4 1.3
-6 4 -13 5 1.4
6 -4 -13 4.1 1.2
6 -4 -13 3.6 1.3
6 -4 -13 2.5 1.2
6 4 13 3.2 1
6 -4 -13 2.5 1.4
-7 -4 -13 -0.5 0.9
-7 -4 -13 1 1
-7 4 13 2.6 1.4
7 -4 13 -1 1
-7 4 13 1.6 1.5
7 -4 13 1.3 1
-7 4 13 0.8 1
7 4 -13 0.5 0.7
7 4 13 0.1 0.7
7 -4 -13 1.3 0.9
-7 4 -13 0 0.9
7 4 13 1.1 1
7 -4 -13 -0.7 0.9
-7 4 -13 -1.2 0.8
7 4 13 1.1 0.9
7 -4 -13 0.1 1.2
8 -4 13 4.5 1.4
8 -4 13 5.6 1.8
8 -4 -13 3 1.5
8 -4 -13 4.2 1.5
8 -4 -13 3.5 1.2
8 4 13 4.3 1.4
8 -4 -13 5.4 1.4
8 4 13 4.3 1.4
8 4 13 4.5 1.3
-8 4 -13 6.3 1.6
-8 4 -13 7.5 1.6
0 5 13 -0.2 0.7
0 -5 13 0.7 0.7
0 -5 13 -0.7 0.8
0 5 13 -0.3 0.6
0 -5 -13 0.6 0.8
0 5 -13 0 0.6
0 5 -13 -0.3 0.6
0 5 -13 0.6 0.6
0 -5 13 0.2 0.7
0 5 -13 0.3 0.6
0 -5 -13 -0.6 1
0 -5 13 0.3 0.7
-1 5 13 3.6 1
1 5 -13 1.6 0.8
-1 -5 -13 1.5 1
1 5 -13 2.9 0.9
-1 5 13 1.3 1.3
-1 5 13 4.7 1.2
-1 -5 -13 4.9 1.2
1 -5 13 2.5 1
1 -5 13 2.9 1
1 5 -13 3.1 0.9
1 5 -13 3.8 0.9
-1 -5 13 3 0.9
-1 -5 13 5.4 1.1
1 -5 -13 2 0.9
-1 -5 13 3.2 0.9
1 5 13 3.7 0.9
1 5 13 3.9 1.1
1 -5 -13 1.6 1.2
-1 5 -13 2.5 0.9
-1 -5 13 5.7 1.1
2 5 -13 24.3 4
-2 -5 -13 30.7 4.2
-2 5 13 25.7 4.1
2 -5 13 18.8 4
2 5 -13 28.7 3.9
2 -5 13 23.8 4.1
-2 -5 -13 29.6 4.2
-2 5 13 26.6 4.2
2 -5 13 26.5 4.1
-2 5 13 30.3 4.4
-2 -5 -13 23.2 4.1
2 -5 13 29.6 4.2
2 5 -13 20 3.9
-2 -5 -13 27.9 4.1
-2 5 13 27.6 4.1
2 -5 -13 19.4 4
-2 5 -13 20.8 4
-2 5 -13 17.9 4
2 5 13 22.8 4
2 5 13 19.8 4
2 5 13 28.8 4.2
-2 -5 13 30.7 4
-2 5 -13 26 4.2
-2 5 -13 21.6 4
-2 -5 13 25.2 4
-2 -5 13 20 3.9
-2 -5 13 21.5 3.9
2 -5 -13 29.9 4.1
3 5 -13 0.7 0.5
3 -5 13 -0.5 0.8
-3 5 13 -0.3 0.8
-3 5 13 -0.3 0.8
3 -5 13 -0.2 0.8
-3 -5 -13 2 0.9
-3 5 13 2.2 1.2
3 -5 13 0.1 0.6
-3 -5 -13 0.2 0.8
3 5 -13 0.9 0.6
-3 -5 -13 0.3 0.9
3 -5 13 1.3 0.8
3 5 -13 -0.5 0.7
-3 5 13 0.2 0.9
-3 -5 -13 -1.8 0.7
-3 5 -13 -0.5 0.8
3 5 13 0.4 0.9
-3 -5 13 0.8 0.7
3 5 13 -0.9 0.6
3 5 13 1 0.6
3 -5 -13 1.2 0.8
-3 5 -13 0.1 0.8
3 -5 -13 0.2 0.6
-3 -5 13 0.1 0.6
3 -5 -13 -0.8 0.7
-3 -5 13 0 0.6
3 -5 -13 -0.4 0.8
3 5 13 1 0.8
-3 5 -13 -0.1 0.7
-3 -5 13 1.1 0.6
-3 5 -13 -1 0.9
-4 -5 -13 12 2.7
-4 -5 -13 14.9 2.8
4 5 -13 16.4 2.5
-4 -5 -13 20.7 2.9
-4 5 13 16.2 2.8
4 -5 13 18.3 2.9
-4 5 13 15.5 3
-4 5 13 18.2 2.9
-4 -5 -13 21 2.8
-4 5 13 13.7 2.9
4 5 -13 13 2.6
4 -5 -13 10 2.7
4 5 13 14.3 2.7
-4 5 -13 16.5 2.8
4 -5 -13 15 2.7
-4 -5 13 15.1 2.6
-4 -5 13 19.9 2.7
4 -5 -13 12.5 2.7
4 -5 -13 12.2 2.7
4 5 13 13.9 2.7
4 5 13 18.6 2.8
-4 5 -13 12.9 2.7
4 5 13 15.2 2.7
-4 -5 13 16.2 2.6
5 -5 13 6.2 1.5
-5 5 13 8.2 1.8
5 5 -13 7.6 1.2
-5 5 13 6.9 1.6
-5 -5 -13 7.2 1.5
-5 5 13 6 1.7
-5 5 13 5.1 1.4
-5 -5 -13 7.4 1.5
-5 -5 -13 4.7 1.4
5 5 -13 3.6 1.1
5 -5 13 5.9 1.5
-5 -5 -13 3.6 1.3
-5 -5 13 6.2 1.3
-5 -5 13 7.5 1.3
-5 -5 13 5.3 1.2
-5 5 -13 7 1.5
5 -5 -13 5.6 1.3
-5 5 -13 4.9 1.5
5 5 13 5.7 1.3
5 5 13 3.5 1.3
5 -5 -13 6.4 1.4
5 5 13 7.6 1.3
5 -5 -13 7.2 1.6
5 5 13 7.7 1.5
5 -5 -13 4 1.4
6 5 -13 3.1 0.9
-6 5 13 3.6 1.5
6 -5 13 2.2 1.1
-6 5 13 1.5 1.6
-6 -5 -13 3.8 1.2
-6 5 13 3 1.2
-6 -5 -13 2.8 1.1
6 5 -13 2.8 0.8
6 -5 13 4.9 1.3
-6 -5 -13 2.3 1.1
-6 5 -13 3.6 1.2
6 -5 -13 3 1.2
6 5 13 5.2 1.1
6 -5 -13 0.8 1.1
6 -5 -13 2.9 1.1
6 -5 -13 2.4 1
6 5 13 2.4 0.9
6 5 13 4.8 1.2
-6 5 -13 3.4 1.2
7 -5 13 5.4 1.7
-7 5 13 5.7 1.8
-7 5 13 6.5 1.9
-7 -5 -13 6 1.5
7 -5 13 7.4 1.7
7 5 13 7.2 1.6
7 -5 -13 5.4 1.4
7 5 13 4.6 1.5
-7 5 -13 5.7 1.8
-7 5 -13 3.9 1.5
7 -5 -13 4.5 1.4
7 5 13 6.3 1.4
7 -5 -13 8.5 1.8
7 5 13 6.2 1.4
0 -6 13 191.98 23.4
0 -6 -13 144.69 23.3
0 6 13 117.69 23.3
0 -6 -13 146.89 23.3
0 6 13 148.39 23.3
0 -6 -13 141.89 23.4
0 -6 -13 163.88 23.3
0 6 -13 147.19 23.3
0 -6 13 192.88 23.6
0 -6 13 143.09 23.3
0 6 -13 134.99 23.3
0 6 13 168.68 23.4
0 6 -13 166.48 23.3
0 6 13 152.58 23.3
-1 -6 -13 0.4 0.9
-1 -6 -13 1.4 0.8
-1 6 13 1.2 0.9
1 -6 13 1 0.8
-1 6 13 1 0.8
-1 6 13 1.3 1
1 6 -13 1.5 0.8
1 6 -13 1.1 0.6
1 6 -13 1.7 0.7
-1 -6 -13 0.6 0.8
1 -6 13 2 0.9
-1 6 13 1.3 1.1
1 -6 13 1.9 0.9
-1 -6 -13 1.9 0.9
1 -6 13 1.1 0.8
1 6 -13 1.1 0.7
1 6 13 0 0.9
-1 6 -13 1.4 0.8
-1 6 -13 2.1 0.8
-1 -6 13 1.6 0.8
1 6 13 2.6 0.9
1 -6 -13 1.5 1
1 6 13 0.5 0.8
-1 6 -13 1.3 0.7
1 -6 -13 1.5 0.8
-1 -6 13 2.7 0.9
1 -6 -13 0.6 0.9
-1 -6 13 1.2 0.8
1 -6 -13 1.2 0.9
-1 -6 13 1.3 0.8
1 6 13 1.7 0.8
-2 -6 -13 17.9 3.2
-2 -6 -13 27.5 3.4
2 6 -13 19.4 3.1
-2 6 13 18.4 3.3
2 -6 13 21.5 3.3
-2 -6 -13 16.8 3.1
2 6 -13 20.8 3.2
2 6 -13 16.4 3
-2 6 13 14.9 3.1
2 -6 13 13.1 3.1
-2 6 13 19.5 3.3
2 -6 13 25.3 3.4
2 -6 13 15.2 3.2
-2 6 13 24.3 3.5
-2 -6 -13 20.1 3.2
-2 -6 13 14 3
2 6 13 18.4 3.1
2 6 13 18.7 3.2
-2 6 -13 25.5 3.4
2 -6 -13 12.9 3.1
-2 -6 13 14.9 3
-2 6 -13 21.8 3.3
-2 6 -13 17.8 3.1
2 6 13 18.6 3.2
2 6 13 20.5 3.2
-2 -6 13 22.1 3.2
2 -6 -13 14.9 3.2
-2 6 -13 22.3 3.4
2 -6 -13 15.9 3.2
-2 -6 13 21.8 3.1
-3 6 13 15.4 2.8
-3 6 13 12.8 2.8
-3 6 13 19.5 3.1
3 6 -13 19.6 2.7
3 -6 13 11.4 2.7
-3 -6 -13 16.4 2.7
-3 6 13 14.4 2.9
3 6 -13 17.3 2.6
-3 -6 -13 17.5 2.8
-3 -6 -13 14.3 2.7
3 -6 13 14.8 2.8
-3 -6 -13 16.5 2.8
3 6 -13 17.3 2.6
3 -6 13 13.8 2.7
3 -6 13 16.7 2.8
3 -6 -13 15.4 2.8
-3 6 -13 16.9 2.8
3 6 13 14 2.7
3 -6 -13 14.5 2.7
-3 -6 13 15.4 2.6
-3 -6 13 15.2 2.6
-3 6 -13 12.1 2.7
-3 -6 13 14.9 2.6
3 -6 -13 13.4 2.7
3 6 13 15.2 2.7
3 -6 -13 13.4 2.8
-3 6 -13 12.4 2.7
-3 6 -13 12.2 2.7
-3 -6 13 19.8 2.7
3 6 13 13.4 2.7
-4 -6 -13 14.2 2.6
4 6 -13 15.6 2.2
4 -6 13 12.1 2.5
-4 -6 -13 21.3 2.7
-4 -6 -13 10.7 2.4
-4 6 13 12.6 2.7
4 6 -13 14.2 2.4
-4 6 13 8.5 2.4
4 -6 13 12.3 2.5
-4 6 13 13.3 2.7
4 6 -13 11.6 2.2
-4 6 13 9.8 2.4
-4 -6 -13 13 2.5
4 6 13 11.1 2.5
-4 6 -13 11.1 2.4
4 -6 -13 13.6 2.5
-4 -6 13 15 2.3
4 6 13 13 2.4
4 6 13 11.6 2.5
-4 -6 13 15.7 2.4
4 -6 -13 14.9 2.7
-4 -6 13 19.2 2.4
4 6 13 13.3 2.4
-4 6 -13 12.9 2.5
4 -6 -13 11.6 2.5
4 -6 -13 14.8 2.5
-4 -6 13 17.3 2.4
-5 -6 -13 63.09 9.3
5 6 -13 57.89 9.1
-5 6 13 53.89 9.5
-5 6 13 56.39 9.6
-5 -6 -13 62.19 9.3
5 6 -13 58.29 9.1
5 -6 13 51.89 9.5
5 -6 13 66.89 9.4
-5 -6 -13 59.59 9.3
-5 -6 13 56.69 9.1
5 6 13 56.69 9.3
-5 -6 13 61.59 9.2
-5 6 -13 66.79 9.4
5 -6 -13 58.19 9.3
5 -6 -13 62.79 9.4
5 6 13 62.09 9.3
5 -6 -13 48.3 9.3
-5 -6 13 58.59 9.1
5 -6 -13 63.69 9.4
-5 6 -13 52.09 9.3
5 6 13 69.29 9.3
-6 -6 -13 1.7 1
-6 6 13 2.5 1.5
-6 -6 -13 1.6 1
6 -6 13 3.6 1.2
6 6 -13 1.9 0.7
-6 -6 -13 0.8 1
6 -6 13 2.2 1.2
-6 6 13 2.5 1.5
-6 6 -13 1.1 1
6 6 13 2.3 0.9
6 6 13 1.8 1.2
6 6 13 3.1 1.1
6 6 13 2.7 0.9
6 -6 -13 2.9 1.1
6 -6 -13 2.3 1.1
6 -6 -13 0.3 1.1
-6 6 -13 2.7 1.1
-7 -6 -13 14.9 2.7
7 -6 13 12.5 2.7
7 -6 13 16 2.8
-7 -6 -13 15.1 2.8
-7 6 13 16.2 3.2
7 6 13 13.4 2.5
7 -6 -13 16.8 2.8
-7 6 -13 13.1 2.7
7 6 13 14.8 2.7
7 6 13 13.2 2.6
7 -6 -13 15 3
7 -6 -13 9.9 2.6
7 6 13 15.4 2.8
-7 6 -13 19.9 3
0 -7 13 0.1 0.7
0 -7 -13 -1.9 0.9
0 7 13 -0.5 1.1
0 7 -13 0.6 0.7
0 7 13 -1.8 0.8
0 -7 -13 -0.1 0.9
0 7 13 -0.4 0.7
0 7 -13 -0.1 0.6
0 -7 -13 0 0.8
0 -7 -13 0.1 0.8
0 7 13 0 0.6
-1 -7 -13 -0.6 1
1 -7 13 0.5 0.8
1 -7 13 -0.1 0.8
1 7 -13 -0.2 0.7
1 7 -13 0.5 0.6
-1 -7 -13 -0.5 0.7
-1 -7 -13 -0.1 0.7
-1 -7 -13 -1.5 0.8
1 -7 13 0.5 0.9
1 7 -13 0.2 0.6
1 7 -13 1.9 0.8
-1 7 13 0.1 0.7
-1 7 13 0.4 1.1
-1 7 13 -2.2 0.7
1 -7 13 0 0.7
-1 7 13 0 0.9
1 -7 -13 0.5 0.8
-1 7 -13 0.3 0.7
1 7 13 0.1 0.6
-1 -7 13 -0.2 0.7
-1 -7 13 1.1 0.8
1 -7 -13 -0.4 0.8
1 7 13 -1.6 0.6
-1 7 -13 0 0.6
-1 -7 13 1.6 0.8
1 -7 -13 -0.1 0.9
-1 -7 13 0.6 0.7
1 7 13 -0.3 1.1
1 7 13 2.2 1
1 -7 -13 1.1 0.9
-1 7 -13 0.8 0.7
-2 -7 -13 13.4 2.4
2 7 -13 14.5 2.3
-2 -7 -13 11 2.4
-2 7 13 14.6 2.7
2 7 -13 16.6 2.4
-2 7 13 10.1 2.4
-2 7 13 13 2.5
2 -7 13 11 2.4
2 7 -13 12.5 2.3
2 7 -13 10.1 2.2
-2 -7 -13 16.3 2.5
-2 -7 -13 12.1 2.4
2 -7 13 12 2.5
2 -7 13 14.9 2.5
-2 7 13 12.8 2.6
2 -7 13 8.9 2.3
2 -7 -13 10.6 2.3
-2 7 -13 12.4 2.4
2 7 13 13.4 2.4
2 7 13 10.4 2.4
-2 -7 13 16 2.3
2 -7 -13 11.5 2.5
-2 -7 13 12.6 2.3
-2 7 -13 11.6 2.4
-2 -7 13 15.8 2.3
-2 7 -13 12.6 2.4
2 7 13 11 2.4
2 7 13 12.7 2.4
-2 -7 13 15.3 2.3
-2 7 -13 20.1 2.6
2 -7 -13 13.4 2.4
3 -7 13 186.88 27.2
-3 7 13 170.88 27.2
-3 -7 -13 180.58 27.2
-3 7 13 197.98 27.4
3 7 -13 182.08 27.1
-3 -7 -13 183.98 27.2
-3 -7 -13 180.48 27.2
-3 -7 -13 176.28 27.2
3 7 -13 201.88 27.1
-3 7 13 162.58 27.3
3 7 -13 203.38 27.2
-3 7 13 145.39 27.2
3 -7 13 167.88 27.2
3 -7 -13 154.68 27.2
3 -7 -13 159.88 27.2
3 -7 -13 146.89 27.2
3 7 13 168.88 27.2
-3 -7 13 191.38 27.2
3 7 13 166.68 27.2
-3 -7 13 182.68 27.1
3 -7 -13 175.18 27.2
-3 -7 13 175.18 27.1
-3 7 -13 151.38 27.2
-3 7 -13 201.18 27.3
-3 -7 13 203.58 27.1
3 7 13 182.68 27.2
-4 -7 -13 127.09 17.3
-4 7 13 110.09 17.4
4 -7 13 107.99 17.4
-4 -7 -13 117.49 17.3
4 -7 13 120.09 17.4
4 7 -13 114.99 17.2
4 7 -13 97.09 17.2
-4 -7 -13 93.19 17.3
-4 7 13 146.69 17.6
4 7 -13 103.89 17.1
-4 -7 -13 125.19 17.3
4 7 13 106.69 17.3
-4 7 -13 114.49 17.3
4 7 13 104.69 17.3
4 7 13 100.79 17.3
-4 7 -13 125.19 17.4
4 -7 -13 112.39 17.3
4 -7 -13 114.09 17.3
4 7 13 124.79 17.3
-4 -7 13 121.99 17.2
-4 -7 13 113.49 17.2
-4 -7 13 118.79 17.2
-4 -7 13 101.19 17.2
4 -7 -13 111.49 17.4
5 7 -13 10.7 1.7
5 7 -13 9.1 1.6
-5 -7 -13 10.3 1.9
5 -7 13 12.9 2.2
-5 -7 -13 7.1 1.8
-5 7 13 8 2.2
-5 -7 -13 8.5 1.9
-5 -7 -13 8.4 1.9
5 -7 13 8.7 2
-5 7 13 7.1 2.2
5 7 13 10.7 1.8
5 7 13 7.6 1.9
5 -7 -13 7.4 1.9
5 7 13 9.5 1.9
-5 -7 13 9.2 1.7
5 -7 -13 8.1 1.9
-5 7 -13 9.7 2
-5 7 -13 9.9 2
-5 -7 13 7.7 1.7
-6 -7 -13 3.1 1.2
-6 7 13 4.7 1.7
6 -7 13 2.3 1.2
6 -7 13 3.5 1.4
-6 -7 -13 4.8 1.2
-6 7 13 2.3 1.4
-6 -7 -13 2 1.2
-6 7 -13 3.3 1.3
6 7 13 3.1 1
6 7 13 3.6 1.2
6 -7 -13 2.9 1.2
6 -7 -13 5.2 1.5
-6 7 -13 2.6 1.2
6 7 13 5.1 1.4
6 7 13 2.9 1
-7 -7 -13 14.6 3.1
7 -7 13 19 3.3
-7 7 13 20.5 3.6
-7 7 13 19.6 3.5
7 7 13 18.1 3.1
7 -7 -13 20.4 3.3
7 7 13 16.8 3.1
7 7 13 18.5 3.3
7 7 13 13.8 3.1
0 8 13 22.5 3.6
0 8 -13 22.5 3.5
0 -8 -13 23.3 3.7
0 8 13 21.5 3.7
0 8 -13 18.2 3.5
0 8 13 19.2 3.8
0 8 13 22 3.6
0 -8 -13 23.8 3.6
0 8 -13 23.5 3.6
0 -8 13 18.8 3.5
0 -8 13 16.9 3.5
0 8 -13 17.3 3.5
0 -8 -13 20 3.5
-1 8 13 1.9 1.4
1 -8 13 5.5 1.3
-1 8 13 2.3 1.1
1 -8 13 3.2 1.1
-1 8 13 2.5 1.1
-1 8 13 2.5 1.3
-1 -8 -13 4.9 1.3
1 -8 13 3.9 1.2
1 -8 13 1.4 1.2
-1 -8 -13 4.9 1.3
1 8 -13 5.1 1.1
-1 -8 -13 4.4 1.2
1 8 -13 3.6 1
1 8 -13 1.9 0.8
-1 -8 -13 3.8 1.3
-1 8 -13 3.1 1.1
1 8 13 2.4 1.2
1 8 13 4.1 1.2
1 -8 -13 3.5 1.3
-1 8 -13 2.4 1
1 -8 -13 1.4 1.1
-1 -8 13 3 1
1 -8 -13 4.3 1.4
-1 -8 13 1.2 1.1
-1 8 -13 4.7 1.1
1 8 13 5 1.2
-1 8 -13 4.6 1.1
1 -8 -13 4.1 1.1
-2 -8 -13 4.4 1.1
2 -8 13 3.7 1.3
2 -8 13 3.7 1.2
-2 -8 -13 2.5 1.2
2 8 -13 4.3 1
-2 8 13 3.2 1.4
-2 -8 -13 3 1.2
2 8 -13 4.3 1
-2 -8 -13 4.3 1.1
2 8 -13 2.9 0.9
-2 8 13 3.1 1.5
2 8 -13 2.1 0.9
-2 8 -13 5 1.2
2 -8 -13 3.7 1.2
-2 -8 13 4 1
2 8 13 2.1 1
-2 -8 13 3.5 1.1
2 8 13 3.4 1.3
-2 -8 13 3.6 1.1
-2 -8 13 2.5 1
2 -8 -13 1.5 1.1
-2 8 -13 2.8 1.2
2 8 13 3.3 1
2 8 13 3.1 1.3
-2 8 -13 5 1.2
-3 8 13 3.4 1.5
-3 -8 -13 2.4 1
-3 -8 -13 2.4 1.1
-3 -8 -13 2.6 1.2
3 8 -13 2.8 0.9
3 8 -13 3.8 1
3 8 -13 4.4 0.9
-3 -8 -13 4.3 1.2
3 -8 13 1.1 1.1
-3 8 13 4.7 1.5
3 -8 13 2 1.1
3 8 13 3 1
-3 -8 13 2.3 0.9
3 -8 -13 1.3 1.1
-3 8 -13 4.1 1.3
-3 8 -13 2.9 1.1
3 8 13 4.2 1.3
-3 -8 13 2.7 1
-3 -8 13 3.9 1.1
-3 -8 13 3.5 1
3 -8 -13 3.3 1.2
3 8 13 3.5 1
3 8 13 4 1.3
-4 -8 -13 24.1 3.9
-4 -8 -13 27.3 3.9
4 -8 13 20.2 3.9
-4 -8 -13 21 3.8
4 8 -13 22.7 3.5
4 8 -13 21.1 3.6
4 -8 13 30.4 4.2
-4 8 13 21.8 4
-4 -8 -13 25.6 3.9
-4 8 13 13.7 4
4 8 -13 17.8 3.6
-4 8 -13 20.4 3.9
-4 -8 13 27.1 3.8
4 8 13 24.3 4
-4 -8 13 23.8 3.7
4 8 13 23.9 3.8
4 8 13 24.9 3.9
4 -8 -13 18.3 3.9
-4 8 -13 22.6 4
4 8 13 18.2 3.8
-4 -8 13 29.2 3.8
-4 -8 13 22.9 3.7
4 -8 -13 19.6 3.8
5 -8 13 67.09 11
-5 -8 -13 76.49 11
-5 -8 -13 65.69 11
5 8 -13 66.89 10.8
-5 8 13 66.79 11.1
-5 -8 -13 72.69 11
-5 8 13 76.89 11.2
5 -8 -13 61.49 11
5 -8 -13 70.69 11.1
-5 8 -13 78.19 11.1
5 8 13 69.49 11
5 8 13 71.39 11
5 8 13 79.59 11.1
-6 -8 -13 40.3 6.1
-6 -8 -13 39.8 6
6 -8 13 38.4 6.2
-6 -8 -13 44.9 6.1
-6 8 13 33.8 6.2
-6 8 13 34.1 6.4
6 -8 13 34.5 6.1
6 8 13 32.1 6
6 -8 -13 32.1 6.1
6 -8 -13 36.5 6.1
-6 8 -13 34.7 6.2
6 8 13 39.7 6.1
-7 8 13 -1.7 1.3
-7 8 13 -0.1 1.3
7 -8 13 0.3 1.1
7 -8 -13 -1.2 1.2
7 8 13 1.9 1.3
7 8 13 -0.1 1.2
7 -8 -13 -1 0.9
-7 8 -13 0.2 1
-7 8 -13 -0.2 1
0 9 -13 -0.1 0.7
0 9 13 -0.1 1.3
0 -9 13 0.2 0.8
0 -9 13 0.7 0.8
0 9 -13 -0.8 0.6
0 9 -13 -0.1 0.7
0 -9 -13 -0.4 0.9
0 -9 13 1.1 1
0 -9 -13 0.7 0.8
0 9 13 -0.2 1.1
0 9 -13 -0.2 0.7
1 -9 13 -1.1 1.4
1 9 -13 2 0.8
1 9 -13 1.4 0.8
1 9 -13 2.4 0.9
-1 -9 -13 0.4 0.9
1 -9 13 2.8 1.1
-1 9 13 1.4 1.2
1 -9 13 2.6 1
-1 -9 -13 2.4 0.9
1 -9 13 2.8 1.2
-1 9 13 1 1.3
-1 -9 13 2.1 1
-1 9 -13 1.5 0.9
1 9 13 0.8 1
1 9 13 1.8 1.2
-1 -9 13 0.4 0.7
1 -9 -13 1.3 1.1
1 9 13 1.3 0.9
1 9 13 3.8 1.5
-1 9 -13 2.9 0.9
1 -9 -13 2.5 1
-1 9 -13 0.8 0.9
-1 9 -13 0.6 0.9
-2 9 13 47 8.8
-2 -9 -13 56.69 8.5
2 9 -13 49.6 8.4
2 -9 13 52.19 8.6
2 9 -13 55.79 8.5
2 -9 13 59.49 8.6
-2 -9 -13 48 8.7
-2 9 13 64.69 9
2 9 -13 47.3 8.5
2 9 -13 63.19 8.5
-2 9 -13 65.09 8.6
2 9 13 51.39 8.5
2 -9 -13 57.59 8.8
-2 -9 13 50.79 8.5
2 9 13 51.49 8.8
-2 -9 13 64.29 8.5
2 9 13 55.19 8.5
-2 -9 13 52.29 8.5
2 9 13 55.09 8.9
-2 -9 13 48.8 8.5
-2 9 -13 54.49 8.6
2 -9 -13 53.09 8.6
3 9 -13 11.8 2.1
3 -9 13 13.2 2.5
3 -9 13 10.2 2.3
-3 -9 -13 11.7 2.3
-3 9 13 8.1 2.6
3 9 -13 12.8 2.2
-3 -9 -13 14.6 2.4
-3 -9 -13 11.9 2.2
-3 9 13 12.7 2.6
3 9 -13 10.1 2.1
3 9 13 12.1 2.3
3 -9 -13 11.9 2.4
-3 -9 13 11.9 2.2
3 9 13 11.1 2.3
-3 -9 13 12.1 2.3
-3 -9 13 14.8 2.2
-3 -9 13 13.1 2.2
-3 9 -13 9.9 2.3
-3 9 -13 9.2 2.3
3 9 13 13.3 2.5
3 9 13 9.9 2.2
4 9 -13 4 0.9
4 -9 13 3.4 1.4
-4 9 13 3.7 1.6
4 -9 13 1.2 1.1
4 9 -13 4.1 0.9
-4 -9 -13 3.8 1.1
4 9 -13 3.7 1
-4 -9 -13 1.3 1.2
-4 9 13 5.1 1.7
4 9 -13 2.5 1
4 9 13 4.8 1.2
-4 -9 13 4.3 1.1
-4 9 -13 5.7 1.5
-4 -9 13 5.2 1.2
4 -9 -13 3 1.3
-4 -9 13 4.5 1.1
4 9 13 4.6 1.4
-4 9 -13 4.9 1.3
4 9 13 2 1.3
-4 -9 13 1.7 0.9
-5 9 13 32 5.3
-5 9 13 37.9 5.5
5 -9 13 37.8 5.8
5 9 -13 30 4.7
-5 -9 -13 33.1 5.1
5 -9 13 29.6 5.1
-5 -9 -13 26.5 4.9
5 9 13 34.4 5.1
5 -9 -13 22.1 5
5 -9 -13 29.3 5.1
-5 9 -13 39.7 5.4
5 9 13 30.7 5
5 9 13 23.8 4.8
-5 9 -13 30.5 5.1
5 9 13 31.4 5
-6 9 13 0.2 1.4
-6 -9 -13 3.2 1.2
-6 -9 -13 0.9 1.1
-6 9 13 2 1.6
6 -9 13 1.2 1.3
6 9 13 1.8 1.3
6 9 13 3 1.3
6 9 13 3.6 1
6 -9 -13 1.8 1.2
6 -9 -13 2.1 1.5
-6 9 -13 1.5 1.2
7 -9 13 29.3 4.7
-7 9 -13 37.9 5
-7 9 -13 32.8 4.9
7 -9 -13 20.5 4.6
7 -9 -13 23.6 4.7
7 9 13 23.7 4.6
0 10 -13 112.69 16.1
0 -10 13 94.99 16.1
0 10 -13 99.09 16.1
0 10 -13 84.49 16.1
0 -10 -13 94.49 16.1
0 -10 -13 105.19 16.2
0 10 13 112.99 16.2
0 10 -13 113.69 16.1
0 -10 13 110.79 16.1
0 -10 13 113.69 16.2
0 10 13 107.99 16.3
0 -10 13 111.99 16.1
-1 10 13 22.8 5
1 -10 13 24.6 4.9
1 10 -13 27.4 4.9
1 10 -13 29 4.9
-1 -10 -13 27.9 4.9
1 -10 13 36.6 5
1 10 -13 30.5 4.9
-1 -10 -13 33.7 5
1 10 -13 23.8 4.8
-1 10 13 19.3 4.9
-1 -10 13 33.5 5
1 10 13 28.2 5.1
-1 -10 13 45.5 5.2
1 -10 -13 33.1 5.1
-1 -10 13 34.9 4.9
1 10 13 32.6 5.1
1 -10 -13 28.9 4.9
-1 -10 13 31.4 5
-1 10 -13 27.8 4.9
2 -10 13 242.98 34.4
2 10 -13 209.98 34.2
-2 10 13 253.07 34.4
-2 -10 -13 236.48 34.3
-2 -10 -13 234.98 34.3
2 -10 13 202.58 34.3
-2 10 13 189.08 34.4
2 10 -13 234.48 34.2
2 10 -13 255.37 34.3
-2 -10 13 211.78 34.3
-2 10 -13 217.28 34.3
-2 10 -13 229.38 34.4
2 -10 -13 203.88 34.3
2 -10 -13 201.08 34.3
2 10 13 242.98 34.4
-2 -10 13 227.18 34.3
2 10 13 228.08 34.4
3 10 -13 18.5 2.9
3 10 -13 13.3 2.7
-3 -10 -13 18.7 3
3 10 -13 20.9 2.9
3 10 -13 18.2 2.8
3 -10 13 18.8 3.2
3 -10 13 14.9 2.9
-3 10 13 23.3 3.4
-3 -10 -13 10.5 2.7
3 10 13 16.8 2.9
3 10 13 16.8 3.1
-3 10 -13 17 3
-3 -10 13 14.8 2.8
3 -10 -13 13.1 2.9
-3 -10 13 9.3 2.6
-3 -10 13 16.3 2.9
-3 10 -13 17.4 2.9
3 10 13 18.5 3
3 -10 -13 18.5 3.1
-3 -10 13 18.1 2.9
4 10 -13 60.99 9.3
4 10 -13 81.29 9.4
4 10 -13 71.49 9.4
4 -10 13 45.3 9.5
-4 10 13 52.59 9.8
4 -10 13 47.7 9.5
4 10 -13 55.49 9.3
-4 -10 -13 38.1 9.4
-4 10 13 59.69 9.7
-4 -10 -13 65.79 9.4
-4 10 -13 70.79 9.6
-4 -10 13 76.59 9.4
4 -10 -13 64.79 9.6
-4 10 -13 68.79 9.6
-4 -10 13 58.49 9.4
4 -10 -13 42.5 9.5
4 10 13 61.89 9.5
-4 -10 13 66.59 9.4
4 10 13 61.39 9.4
-4 -10 13 52.29 9.3
4 10 13 53.19 9.6
-5 -10 -13 5.1 1.3
-5 -10 -13 1.8 1.1
5 10 -13 3.3 1.1
-5 10 13 3.8 1.7
-5 10 13 4.5 1.6
5 10 13 3 1
5 -10 -13 3.8 1.5
5 10 13 4 1.4
5 10 13 1.8 1.4
5 -10 -13 4.2 1.4
-6 -10 -13 2.3 1.2
6 -10 13 1 1.3
6 -10 13 0.3 1.2
-6 10 13 1.5 1.7
-6 -10 -13 1.8 1.1
6 10 13 2.9 1
6 10 13 4.1 1.6
6 10 13 1.1 1.3
6 -10 -13 1.3 1.3
6 -10 -13 4.1 1.5
-6 10 -13 1.4 1.3
-6 10 -13 3 1.3
0 11 13 1.3 1.3
0 -11 13 0.9 1
0 11 -13 -0.5 0.6
0 11 -13 -0.7 0.7
0 -11 -13 0.4 1
0 -11 13 -0.1 0.9
0 11 -13 -1.5 0.8
1 11 -13 26.8 4.2
1 11 -13 23.3 4
1 -11 13 32.8 4.3
1 11 -13 19.6 3.9
-1 -11 -13 20.4 4
-1 -11 -13 23.3 4.1
-1 11 13 21.4 4.3
1 11 -13 22.6 3.9
-1 11 13 30.1 4.5
1 -11 13 21.2 4.1
-1 11 -13 28 4.1
1 -11 -13 20.4 4.1
-1 -11 13 27.9 4.1
1 11 13 23.3 4.2
1 -11 -13 15.1 4
-1 -11 13 22.3 4
1 11 13 28.8 4.3
-1 -11 13 29.5 4.1
-1 -11 13 24.1 4.2
-2 -11 -13 0.7 0.9
-2 11 13 -1 1.3
2 11 -13 2 0.9
2 -11 13 0.5 1.1
2 -11 13 1.4 1
-2 11 13 0.6 1.3
2 11 -13 2.1 0.9
-2 -11 -13 2.6 1.2
2 -11 -13 0.7 1.1
2 -11 -13 0.7 1.1
-2 -11 13 0.3 1
-2 11 -13 0.3 1
2 11 13 0.8 1.3
-2 11 -13 2.3 1
-2 -11 13 1.9 0.9
-2 -11 13 1.6 0.9
-2 -11 13 1.6 1
2 11 13 4.6 1.5
-3 11 13 14.4 3
3 -11 13 15.3 2.8
3 11 -13 18.9 2.6
3 11 -13 15 2.5
-3 -11 -13 11.7 2.6
-3 -11 -13 11.7 2.6
3 11 -13 12.9 2.6
-3 11 13 13 2.9
3 -11 13 15.9 2.8
3 11 13 10.7 2.7
-3 -11 13 14.9 2.6
-3 -11 13 10.7 2.6
-3 11 -13 13.2 2.8
-3 -11 13 18.9 2.7
-3 11 -13 13.5 2.7
3 -11 -13 14.1 2.7
3 11 13 14.8 2.9
3 -11 -13 12.6 2.7
4 -11 13 2.4 1.1
-4 11 13 -0.3 1.6
4 11 -13 1.4 0.9
4 11 -13 0.9 0.8
-4 -11 -13 2.2 1
-4 -11 -13 0.6 1
4 11 -13 0.6 0.7
4 11 -13 0.3 0.7
-4 11 13 1.4 1.4
4 -11 13 1.3 1
-4 11 -13 -0.2 1
-4 11 -13 1 1
4 11 13 1.2 0.8
4 11 13 2.6 1.4
4 11 13 1.4 1.3
4 -11 -13 2.5 1.3
4 -11 -13 0.8 1.1
-4 -11 13 0.9 0.8
5 11 -13 -1.7 0.6
5 11 -13 0.5 0.8
5 -11 13 -0.1 1
-5 -11 -13 0.9 1
5 -11 13 1.2 1.1
-5 11 -13 1.6 1.2
5 11 13 -0.1 1.3
5 11 13 -1.6 0.6
5 11 13 -0.4 1.3
-5 11 -13 -0.7 0.9
5 -11 -13 0.2 1.1
6 11 -13 1.8 0.8
-6 -11 -13 0.8 1
6 -11 13 0.8 1.2
6 -11 13 0 1.1
-6 11 13 0.2 1.6
-6 11 13 -1.9 1.5
6 11 13 -1.1 1.2
6 11 13 -0.7 1.3
6 -11 -13 2 1.4
6 11 13 0.4 0.8
-6 11 -13 0.2 1
-6 11 -13 3 1.4
0 -12 13 3.5 1.2
0 -12 13 3 1.2
0 12 -13 2.5 1.2
0 12 13 4 1.7
0 12 13 3.2 1.5
0 -12 -13 4.1 1.4
0 12 -13 4.5 1.2
-1 12 13 0.3 1.3
1 12 -13 -0.5 0.6
1 12 -13 1.8 0.9
-1 -12 -13 0.8 1.1
-1 -12 -13 1.2 1
-1 12 13 1 1.3
1 -12 13 -0.4 0.9
1 12 -13 2.4 1.1
1 12 -13 1.8 0.9
1 -12 -13 -0.3 1
-1 12 -13 0.6 1
1 12 13 0.2 1.3
-1 12 -13 -0.3 0.8
-1 -12 13 -0.6 1.2
1 -12 -13 -0.1 1
-1 -12 13 -0.1 0.9
-2 12 13 3.3 1.7
2 12 -13 3.5 1.1
2 12 -13 2.2 0.9
2 -12 13 1.5 1.1
-2 -12 -13 1.3 1
2 12 -13 0.9 0.9
2 12 -13 1.8 0.9
2 -12 13 1 1
-2 -12 -13 2.2 1.1
-2 12 13 1.2 1.3
-2 12 -13 3.1 1.1
2 12 13 0.2 1.3
2 12 13 0.7 1.4
2 -12 -13 0.3 1.1
-2 -12 13 1.5 1
-2 -12 13 5.5 1.2
-2 -12 13 1.5 1
-2 12 -13 0.7 1
2 -12 -13 1.9 1.2
-2 -12 13 1.3 1.1
3 -12 13 2.1 1.1
3 12 -13 0.9 0.8
3 -12 13 1 1.1
-3 12 13 -1.1 1.3
-3 12 13 1.1 1.3
3 12 -13 2.7 1.1
-3 -12 -13 0.8 1.1
3 12 -13 2.1 0.9
3 12 -13 1.1 0.8
-3 12 -13 -0.1 1
3 12 13 -0.7 1.3
-3 -12 13 2.1 1
-3 12 -13 0.7 1.1
-3 -12 13 -0.2 1.1
3 12 13 0.7 1.4
3 -12 -13 2.3 1.3
3 -12 -13 0.9 1.1
-3 -12 13 1.2 0.9
-4 -12 -13 1.5 1
-4 -12 -13 0.4 1
4 12 -13 0.5 0.9
4 -12 13 0.8 1.1
4 12 -13 2 0.9
-4 12 -13 1.7 1.2
4 12 13 1.3 2.1
4 12 13 2.1 1.4
-4 12 -13 1.4 1.1
5 -12 13 1.6 1.2
5 12 -13 2.7 1.1
-5 -12 -13 2.2 1.1
-5 12 13 3.8 1.9
5 12 -13 2.5 0.9
-5 -12 -13 1.7 1
-5 12 13 3.7 1.6
5 -12 13 0.5 1.1
5 12 13 0.2 1.4
5 -12 -13 0.8 1.2
5 -12 -13 -0.6 1.3
-5 12 -13 0.5 1
5 12 13 1.2 1.5
-5 12 -13 -0.1 1.1
0 -13 -13 -0.6 1
0 13 13 0.3 1.3
0 -13 -13 -1 1
0 13 13 -1.2 1.2
0 13 -13 0.6 1
0 -13 13 -0.5 0.9
0 -13 13 -0.4 0.9
0 13 -13 -0.1 0.9
1 -13 13 -0.8 0.8
-1 -13 -13 1.5 1.1
1 -13 13 -0.5 1
-1 13 13 0 1.4
-1 -13 -13 -0.1 1.1
-1 13 13 0 1.3
1 13 -13 0.8 1
1 13 -13 0.5 0.8
1 13 -13 -0.2 0.7
-1 13 -13 1.4 1
1 -13 -13 -0.7 1
1 13 13 1.8 1.3
1 13 13 0.4 1.3
1 -13 -13 -0.4 1
-1 13 -13 1.5 0.9
-1 -13 13 -0.7 0.8
-1 -13 13 0 0.9
2 13 -13 13.9 2.1
2 -13 13 10.3 2.2
2 -13 13 9.4 2.2
2 13 -13 11.8 2.1
2 13 -13 11.8 2.2
-2 13 13 5.1 2.5
-2 -13 -13 13.6 2.4
-2 13 13 8.8 2.4
2 13 13 8.1 2.2
-2 13 -13 7.4 2
2 -13 -13 9.6 2.4
-2 -13 13 8.9 2.2
-2 -13 13 11.8 2.2
-2 -13 13 12.8 2.2
2 -13 -13 7.9 2.1
2 13 13 8.2 2.4
-2 13 -13 9.6 2.2
-3 -13 -13 1.2 1
-3 -13 -13 0.3 1
3 13 -13 0.5 0.8
3 13 -13 0.8 0.9
3 13 -13 0.4 0.9
3 13 -13 -0.3 0.7
-3 13 13 -2.1 1.5
-3 -13 13 0.3 0.9
-3 -13 13 -0.5 1
3 13 13 -0.7 1.3
3 13 13 0.9 1.5
-3 -13 13 0.9 1.1
-3 -13 13 -0.9 0.9
4 13 -13 3.6 1.1
4 -13 13 2.2 1.2
4 -13 13 1.9 1.4
-4 -13 -13 2.6 1.2
4 13 -13 3.7 1.1
-4 13 13 1 1.4
-4 13 13 4.8 2
-4 -13 -13 0.5 1.2
-4 13 -13 1.5 1.1
4 13 13 1.6 1.5
-4 13 -13 0.7 1.2
4 13 13 3.6 1.5
4 -13 -13 1.8 1.2
4 -13 -13 0.4 1.3
-5 -13 -13 -0.3 1.1
-5 -13 -13 0.5 1
5 -13 13 -0.4 1.1
-5 13 13 -1.1 1.4
5 13 -13 2.6 1
-5 13 13 0.5 1.6
5 -13 13 -0.2 1.2
5 13 -13 -0.8 0.7
5 13 13 1.5 1.6
5 13 13 1.4 1.3
5 -13 -13 2 1.4
-5 13 -13 0 1
-5 13 -13 -1 1
0 -14 13 13.8 2.5
0 14 -13 10.1 2.2
0 14 -13 13.1 2.4
0 14 13 9.6 2.6
0 -14 -13 13.9 2.6
0 -14 13 11.5 2.4
0 -14 -13 10.5 2.5
0 14 13 10.8 2.8
-1 -14 -13 0.3 1.1
1 14 -13 1.2 1.1
-1 -14 -13 -0.2 1.1
1 -14 13 1.3 1.1
1 14 -13 0.5 0.9
1 -14 13 -0.5 1
-1 -14 13 -0.5 0.9
1 14 13 -0.9 1.2
1 14 13 -1.6 1.2
-1 -14 13 0.4 1
-1 14 -13 1 1
-1 14 -13 -0.3 0.9
2 14 -13 1.3 0.9
-2 -14 -13 0.3 1.1
-2 -14 -13 1.8 1.2
-2 14 13 1.5 1.4
2 14 -13 1.1 1
-2 14 13 1.5 1.5
2 14 -13 -0.9 0.8
2 -14 -13 -0.8 1.1
-2 -14 13 0.7 0.9
2 14 13 2.3 1.5
2 14 13 -0.3 1.2
-2 -14 13 1.2 1.1
3 -14 13 1.1 1.3
3 14 -13 1.9 0.9
-3 -14 -13 1.6 1.2
-3 14 13 2.1 1.6
3 14 -13 1.3 1
-3 14 13 0.5 1.7
-3 -14 -13 0.5 1.2
3 14 -13 2.4 1.1
3 -14 13 0.9 1.1
-3 14 -13 1.9 1
3 -14 -13 0.7 1.1
3 14 13 -0.2 1.5
-3 -14 13 1.4 1.1
3 -14 -13 1.2 1.2
-4 14 13 2.6 1.7
-4 14 13 1.7 1.9
4 -14 13 0 1.1
4 14 -13 0.5 1
-4 -14 -13 0.2 1.2
4 14 -13 0.6 0.8
-4 -14 -13 0.2 1
4 14 -13 -0.7 0.8
4 14 -13 0.5 0.8
4 -14 13 -0.3 1.2
4 -14 -13 -1.6 1
4 -14 -13 0.7 1.3
4 14 13 -0.2 1.3
-4 14 -13 -1 0.9
4 14 13 -1.1 1.6
-4 14 -13 0.1 1.1
0 15 -13 -0.1 0.9
0 -15 13 -1.1 0.9
0 15 13 -1.5 1.5
0 -15 -13 0.3 1.2
0 -15 13 -0.1 1
0 -15 -13 0.4 1.1
0 15 -13 0.7 1
1 15 -13 15 2.8
-1 15 13 12.8 3.6
-1 15 13 16.5 3.2
1 -15 13 19.2 3.9
-1 -15 13 24.1 3.2
1 -15 -13 17 3.1
-1 -15 13 13.4 2.9
1 -15 -13 8.7 2.9
1 15 13 10.7 2.9
-1 15 -13 21.1 3.1
-2 -15 -13 -0.9 1.1
2 15 -13 0.2 1
2 15 -13 1 0.9
2 -15 13 0.8 1.1
-2 15 13 -2.9 1.5
2 -15 13 -0.2 1.2
2 15 -13 0.3 0.9
-2 15 13 -1.1 1.3
-2 15 -13 2 1.3
-2 -15 13 -1.6 0.9
2 -15 -13 0.7 1.3
-2 15 -13 0.5 1
2 -15 -13 3.7 1.5
2 15 13 1.1 1.3
2 15 13 2.2 1.5
-2 -15 13 1.4 1
3 15 -13 6.3 1.7
3 15 -13 10.1 1.7
3 -15 13 7.9 1.9
3 -15 13 9.1 2
-3 -15 -13 5.6 1.7
-3 15 13 9.1 2.3
-3 15 13 8.4 2.4
-3 -15 -13 7.9 1.9
3 -15 -13 4.9 1.8
3 -15 -13 7.1 2
3 15 13 6 2.1
3 15 13 2.8 1.8
-3 15 -13 5.2 1.6
-3 15 -13 6.3 1.9
0 16 -13 44 6.3
0 -16 -13 32.8 6.3
0 16 -13 41.4 6.4
0 16 13 34 6.4
0 -16 13 35 6.3
-1 -16 -13 4.8 1.6
-1 -16 -13 3.9 1.6
1 16 -13 5.8 1.6
-1 16 13 4.4 1.9
-1 16 13 3.2 2
1 -16 13 3.1 1.6
1 16 -13 5 1.5
1 -16 13 4.5 1.6
1 16 13 6.6 2
-1 16 -13 4.7 1.6
1 16 13 5 1.9
1 -16 -13 4.7 1.7
-1 -16 13 5.4 1.6
1 -16 -13 6 1.8
-1 -16 13 4.2 1.5
-2 -16 -13 0.1 1.3
-2 -16 -13 -0.3 1.1
2 -16 13 0.6 1.2
-2 16 13 -1.6 1.5
2 16 -13 0.5 0.9
2 -16 -13 -1 1.2
2 -16 -13 -1.3 1
-2 -16 13 -1.2 0.9
-2 16 -13 -0.8 0.9
-2 -16 13 0 1.1
0 0 -14 70.79 11.1
0 0 -14 77.49 11.1
0 0 14 86.09 11.1
0 0 14 65.29 11
0 0 -14 68.79 11.1
0 0 -14 70.29 11
0 0 14 64.59 11.1
1 0 14 8 1.5
-1 0 -14 5.4 1.2
1 0 14 3.4 1.2
1 0 14 5.4 1.3
-1 0 14 4.7 1.2
1 0 -14 5.8 1.2
-1 0 14 6.8 1.3
1 0 14 4.7 1.4
-1 0 -14 2 1.3
-1 0 14 5.7 1.2
1 0 -14 5.5 1.2
-1 0 -14 5 1.2
-1 0 14 6.3 1.3
1 0 -14 5.1 1.1
1 0 -14 5.5 1.3
-2 0 14 0.5 0.7
-2 0 14 0.2 0.8
2 0 14 0.2 0.6
2 0 -14 -1 0.7
2 0 -14 -0.2 0.6
2 0 -14 0.4 0.6
-2 0 -14 0.8 0.9
-2 0 14 -0.2 0.7
-2 0 -14 1.9 0.8
2 0 14 0.4 0.6
2 0 -14 1.1 0.7
-3 0 14 0 0.7
-3 0 -14 -0.3 0.8
-3 0 -14 1 0.8
3 0 -14 0.8 0.5
3 0 -14 1.8 0.8
-3 0 14 0.5 0.8
3 0 -14 1.3 0.7
3 0 14 0.8 0.8
-3 0 -14 1.1 1
3 0 14 2.1 0.7
-3 0 -14 0.3 0.8
3 0 -14 0.2 0.6
-3 0 14 0.8 0.7
-3 0 14 -1 0.8
4 0 -14 64.39 9.6
4 0 14 69.29 9.7
-4 0 14 55.29 9.6
4 0 14 59.49 9.7
-4 0 -14 67.29 9.7
4 0 14 63.49 9.7
-4 0 14 64.59 9.7
-4 0 14 43.5 9.7
4 0 -14 63.69 9.7
4 0 14 68.09 9.7
4 0 -14 69.79 9.7
-4 0 -14 56.19 9.7
-4 0 -14 67.19 9.8
-4 0 -14 67.39 9.7
4 0 -14 63.89 9.6
-4 0 14 57.99 9.7
-5 0 14 8.3 2
-5 0 -14 10.9 2.1
-5 0 14 10.3 1.9
5 0 14 11.8 2
5 0 14 10.8 2.1
5 0 14 9.6 1.9
5 0 -14 10.3 1.9
-5 0 -14 10 2
5 0 14 10.4 2
-5 0 14 9.7 2
5 0 -14 8.4 1.7
5 0 -14 10.9 2
-5 0 14 12 2.2
6 0 -14 -0.3 0.7
6 0 14 -0.5 0.8
-6 0 14 1 1.1
6 0 14 0.1 0.5
-6 0 -14 -0.6 0.8
-6 0 14 0.8 0.9
-6 0 14 -0.3 0.8
-6 0 14 0 0.9
6 0 -14 -1.1 0.7
6 0 -14 0 0.9
6 0 14 1.5 1
7 0 14 13.1 2.3
7 0 -14 9.1 2
-7 0 -14 17.5 2.5
-7 0 -14 11.5 2.2
7 0 -14 12.3 2.1
7 0 -14 9.4 1.9
7 0 14 13.6 2.2
7 0 -14 7.7 1.9
8 0 14 5 1.5
-8 0 -14 4.3 1.3
8 0 14 1.9 1.2
8 0 -14 5.4 1.4
8 0 -14 3.6 1.2
-8 0 -14 3.9 1.3
0 -1 -14 -0.3 0.8
0 -1 14 -0.1 0.7
0 -1 -14 0.3 0.6
0 -1 14 0.3 0.7
0 -1 -14 -0.4 0.5
0 -1 -14 0.3 0.7
0 1 14 -0.1 0.7
0 -1 14 1.2 0.7
0 1 -14 -0.3 0.6
0 1 -14 -0.9 0.6
0 1 -14 -0.1 0.7
0 1 14 0.3 0.7
0 -1 14 -0.1 0.7
0 1 14 -0.8 0.6
0 1 14 0.3 0.8
-1 1 14 70.09 10.4
-1 -1 -14 68.99 10.4
1 1 -14 79.59 10.4
1 1 -14 60.79 10.4
1 -1 14 69.29 10.4
1 1 -14 75.59 10.4
1 -1 14 74.69 10.4
-1 1 14 71.19 10.4
1 1 -14 69.99 10.4
-1 1 14 53.59 10.4
-1 -1 -14 61.29 10.4
-1 1 14 71.29 10.4
1 -1 -14 66.39 10.4
-1 -1 14 63.19 10.4
1 -1 -14 76.49 10.4
1 1 14 74.19 10.4
1 -1 -14 58.49 10.3
-1 -1 14 69.99 10.4
1 -1 -14 74.69 10.4
-1 -1 14 66.19 10.4
1 1 14 51.69 10.4
-1 1 -14 54.49 10.3
-1 -1 14 68.89 10.4
-2 1 14 67.49 10.4
2 1 -14 66.59 10.3
-2 1 14 71.69 10.3
-2 1 14 71.29 10.3
-2 1 14 70.29 10.3
2 1 -14 69.19 10.3
-2 -1 -14 75.29 10.4
2 -1 14 71.29 10.4
2 1 -14 49.9 10.3
2 1 -14 71.79 10.3
-2 -1 -14 60.99 10.3
2 -1 14 73.29 10.4
2 -1 14 74.49 10.4
-2 -1 14 65.09 10.3
-2 -1 14 65.19 10.3
2 1 14 62.19 10.3
-2 1 -14 57.99 10.3
2 -1 -14 57.29 10.3
-2 1 -14 65.59 10.3
-2 -1 14 72.79 10.3
2 -1 -14 62.69 10.3
2 -1 -14 58.09 10.3
-2 1 -14 88.19 10.4
-2 1 -14 80.39 10.5
2 -1 -14 65.79 10.3
2 1 14 71.89 10.3
-2 -1 14 56.99 10.3
3 -1 14 6.5 1.4
3 -1 14 4.6 1.4
-3 -1 -14 7.5 1.5
3 1 -14 8.1 1.4
-3 1 14 6.5 1.5
-3 -1 -14 6.6 1.6
-3 1 14 8.2 1.5
-3 -1 -14 8.2 1.6
3 1 -14 7.5 1.4
3 1 -14 6.1 1.3
3 -1 14 9.1 1.6
3 1 -14 5.4 1.3
-3 -1 -14 6.5 1.5
-3 1 14 5.2 1.5
-3 1 14 6.2 1.4
3 1 14 7.9 1.4
3 1 14 5.8 1.4
3 -1 -14 5.2 1.3
3 -1 -14 4.3 1.4
3 1 14 9.1 1.5
-3 -1 14 7.3 1.4
-3 1 -14 4.2 1.4
-3 -1 14 5.7 1.5
3 -1 -14 7.5 1.3
-3 -1 14 6.7 1.4
-3 1 -14 8.1 1.5
3 -1 -14 7.7 1.4
3 1 14 6.6 1.4
-3 1 -14 8.7 1.6
-3 -1 14 9.1 1.6
-4 1 14 188.38 24.9
4 1 -14 158.18 24.8
4 -1 14 140.19 24.9
4 1 -14 150.98 24.8
4 -1 14 136.79 24.9
-4 -1 -14 163.18 24.9
-4 1 14 142.49 24.9
-4 1 14 167.48 24.9
4 -1 14 177.88 24.9
4 1 -14 167.28 24.8
-4 -1 -14 158.08 24.9
-4 -1 -14 155.48 24.9
-4 -1 -14 162.48 24.9
4 1 -14 164.98 24.8
-4 1 14 173.08 24.9
4 -1 14 188.98 24.9
4 -1 -14 184.68 24.9
-4 1 -14 169.18 24.9
4 1 14 176.88 24.9
-4 -1 14 178.98 24.9
-4 -1 14 176.08 24.9
-4 1 -14 159.88 24.9
4 1 14 172.28 24.9
-4 -1 14 147.89 24.8
-4 1 -14 172.98 24.9
4 -1 -14 138.39 24.8
4 -1 -14 173.38 24.9
-4 1 -14 145.99 24.9
4 -1 -14 161.78 24.9
4 1 14 149.49 24.9
4 1 14 155.18 24.9
-4 -1 14 160.98 24.9
-5 -1 -14 40.6 6.9
-5 -1 -14 42.1 6.8
5 -1 14 35.7 6.8
5 -1 14 41.9 6.7
-5 -1 -14 50.19 7
5 1 -14 44.4 6.6
5 1 -14 41.4 6.6
5 -1 14 37.7 6.8
-5 1 14 44 6.7
-5 1 14 41.2 6.8
-5 1 14 42.3 6.7
5 1 -14 48.5 6.7
-5 1 14 40.2 6.7
5 1 14 46.7 6.7
5 1 14 45.6 6.7
-5 -1 14 39.9 6.7
5 -1 -14 43.5 6.7
5 -1 -14 48 6.7
5 1 14 39.8 6.7
5 -1 -14 48 6.7
-5 1 -14 41.1 6.8
5 -1 -14 39.1 6.6
-5 -1 14 41.7 6.6
-5 -1 14 44.4 6.8
-5 1 -14 44 6.9
-5 -1 14 39.4 6.6
5 1 14 37.4 6.6
-6 1 14 4.2 1.3
-6 -1 -14 2 1.1
6 -1 14 1.1 1
6 1 -14 0.7 0.9
-6 1 14 1.5 0.9
-6 1 14 1.8 1.2
6 1 -14 0.6 0.6
6 -1 14 1.2 1
6 1 -14 2.8 0.8
-6 -1 -14 1.9 1
6 1 -14 2 0.7
-6 1 14 2.4 1
-6 -1 14 0 0.8
6 -1 -14 -0.3 1
6 1 14 2.3 1
-6 -1 14 1.4 0.9
6 -1 -14 4.1 1.1
6 -1 -14 2.8 0.8
6 1 14 1.6 1
-6 1 -14 2.8 1.1
-6 -1 14 1.6 1
6 1 14 1.2 0.7
-6 -1 14 3 1.2
-6 1 -14 2.3 1
6 -1 -14 2.1 1
-7 -1 -14 28.4 4.7
7 -1 14 41.5 4.9
-7 1 14 23 4.5
7 -1 14 26.9 4.6
7 1 -14 29.8 4.5
7 1 -14 29.1 4.4
-7 -1 -14 29 4.7
-7 1 -14 34.9 4.8
-7 1 -14 31.4 4.7
7 -1 -14 19.7 4.3
7 1 14 24.6 4.8
7 1 14 29.2 4.6
7 -1 -14 23.1 4.5
7 -1 -14 32.1 4.5
7 1 14 27 4.6
8 1 -14 5.1 1.5
8 1 -14 6.7 1.4
8 -1 14 5.4 1.5
-8 -1 -14 7.6 1.8
8 -1 14 6.8 1.7
-8 -1 -14 6.5 1.7
8 -1 -14 6.7 1.6
8 1 14 7.3 1.7
-8 1 -14 5.4 1.6
-8 1 -14 5.3 1.6
8 1 14 6.4 1.7
8 -1 -14 5.3 1.3
0 2 14 20.3 3.2
0 2 -14 22.1 3.2
0 -2 -14 14.1 3.2
0 -2 -14 17 3.1
0 -2 14 21 3.2
0 2 14 16.3 3.1
0 2 14 17.1 3.2
0 -2 14 21.7 3.2
0 -2 -14 17.4 3.2
0 -2 14 19 3.1
0 -2 -14 21.8 3.2
0 -2 14 18.7 3.2
0 2 14 15.2 3.1
0 2 -14 21.3 3.2
-1 2 14 18.5 3.3
1 -2 14 14.6 3.3
-1 -2 -14 21.6 3.4
1 2 -14 16.6 3.2
-1 2 14 18.3 3.4
-1 2 14 17.3 3.3
-1 2 14 22.7 3.4
1 -2 14 24 3.5
-1 -2 -14 20.8 3.4
1 2 -14 18.8 3.3
1 2 -14 24.2 3.4
1 -2 -14 21.6 3.4
-1 -2 14 17.8 3.3
1 2 14 23.6 3.5
-1 2 -14 22.4 3.4
-1 -2 14 17.1 3.3
-1 2 -14 16.7 3.3
-1 -2 14 27 3.4
1 -2 -14 24.7 3.4
-1 -2 14 16.8 3.3
2 2 -14 60.69 10.6
2 -2 14 50.99 10.6
-2 2 14 66.39 10.7
-2 2 14 76.49 10.7
-2 2 14 70.69 10.6
-2 2 14 61.39 10.7
2 2 -14 72.99 10.6
2 2 -14 69.29 10.6
-2 -2 -14 76.09 10.7
-2 -2 -14 63.69 10.7
2 -2 14 57.19 10.6
2 -2 14 72.39 10.7
2 2 -14 74.39 10.6
2 -2 14 68.49 10.6
-2 2 -14 60.59 10.7
-2 2 -14 60.69 10.6
-2 2 -14 70.79 10.7
2 -2 -14 73.39 10.6
-2 2 -14 73.89 10.7
-2 -2 14 63.39 10.6
2 2 14 75.99 10.7
2 -2 -14 76.69 10.6
-2 -2 14 67.99 10.6
2 2 14 70.49 10.7
2 -2 -14 79.09 10.7
-2 -2 14 77.69 10.6
2 -2 -14 72.19 10.6
-3 -2 -14 2 1
-3 2 14 1.3 0.9
-3 -2 -14 0.2 0.8
-3 -2 -14 2.9 0.9
-3 2 14 2.3 1.1
3 -2 14 2.5 0.8
3 2 -14 1.9 0.8
3 -2 14 2.8 0.9
-3 2 14 2.4 0.9
-3 2 14 0.5 0.8
3 -2 14 2.6 0.8
3 2 -14 1 0.7
3 -2 14 3.1 1
-3 -2 -14 1.4 0.9
3 2 14 1.4 0.9
-3 -2 14 2.3 0.8
3 -2 -14 1.2 0.8
-3 -2 14 1.2 0.7
-3 2 -14 1.8 0.9
-3 -2 14 0.9 0.8
-3 2 -14 0.9 0.9
3 -2 -14 2 0.8
-3 2 -14 0.6 0.8
3 2 14 1.1 0.8
3 -2 -14 1.6 0.7
-3 2 -14 1.8 1
3 2 14 1.8 0.7
-3 -2 14 1.6 0.7
3 2 14 2.8 1
4 2 -14 1.9 0.8
4 -2 14 2.2 1
4 -2 14 1.3 0.8
-4 2 14 3 0.9
4 -2 14 2.2 1
-4 -2 -14 2.4 1
4 2 -14 2.2 0.7
-4 2 14 3 1.2
-4 2 14 1.9 1
4 2 -14 3.1 0.8
4 -2 14 2.8 1
-4 -2 -14 2.7 1
-4 2 14 2.9 1
-4 -2 -14 0.8 1
-4 -2 -14 1.3 0.9
4 2 14 2.5 1
4 2 14 2.4 0.8
4 -2 -14 2.6 0.9
4 -2 -14 1.1 0.7
-4 -2 14 2.4 0.8
-4 2 -14 4 1.1
-4 2 -14 3 1.2
-4 -2 14 3.1 1
4 2 14 2.6 0.8
4 2 14 1.6 0.9
4 -2 -14 2.3 0.9
-4 -2 14 2.2 0.8
-4 -2 14 3.4 1
4 -2 -14 2.6 1.1
-4 2 -14 3 1.1
-4 2 -14 2.4 1.1
5 -2 14 27.1 4.5
-5 -2 -14 30.6 4.5
5 -2 14 19.1 4.3
-5 2 14 32.7 4.5
5 2 -14 22.8 4.2
-5 -2 -14 25.9 4.4
5 2 -14 22.3 4.3
-5 2 14 25.2 4.3
5 2 -14 33.3 4.2
5 -2 14 23.1 4.4
-5 -2 -14 22 4.3
5 2 -14 31.4 4.2
-5 -2 -14 24.5 4.4
-5 -2 14 29.3 4.3
5 -2 -14 23.9 4.3
-5 2 -14 28.1 4.4
5 2 14 26.2 4.3
-5 -2 14 31 4.3
-5 -2 14 28.7 4.3
-5 -2 14 20.1 4.3
5 -2 -14 23.3 4.2
5 2 14 21 4.3
5 2 14 30.6 4.4
-5 2 -14 28.6 4.6
5 -2 -14 29 4.4
5 2 14 26.7 4.4
6 -2 14 9.5 2.2
-6 2 14 12.1 2.2
-6 2 14 6.4 2.4
-6 -2 -14 17.4 2.4
6 -2 14 11 2.3
6 2 -14 13.2 2.1
-6 2 14 11.2 2.2
6 2 -14 12.5 2.1
-6 -2 -14 13.7 2.3
6 -2 -14 9.6 2
-6 -2 14 11.2 2.1
6 2 14 10.9 2.1
-6 -2 14 9.5 2.1
6 2 14 14 2.3
-6 2 -14 14.1 2.4
6 -2 -14 14.5 2.3
-6 2 -14 9.2 2.2
-6 -2 14 8.8 2.2
6 2 14 15.5 2.4
-6 -2 14 9.1 2
-7 -2 -14 2.3 1.2
-7 2 14 1.5 1.4
7 2 -14 2 1
-7 2 14 3.3 1.1
7 -2 14 2.8 1.2
7 -2 14 0.9 1.1
7 2 -14 2 0.9
-7 -2 -14 3.3 1.2
7 -2 -14 2.7 1
7 2 14 3.9 1.2
7 -2 -14 0.5 0.9
-7 2 -14 1.9 1
7 -2 -14 3.9 1.2
7 2 14 1.3 1
-7 2 -14 0.3 0.9
7 -2 -14 2.9 1.1
8 2 -14 14.2 2.5
-8 -2 -14 14.7 2.8
8 -2 14 20.3 3.1
8 2 -14 15.1 2.7
-8 -2 -14 16.4 2.9
8 -2 -14 14.4 2.5
8 -2 -14 15.2 2.8
8 2 14 12.6 2.7
8 2 14 13.1 2.7
8 2 14 12.2 2.7
-8 2 -14 19.3 3
-8 2 -14 18.3 3
8 -2 -14 10.8 2.7
8 -2 -14 17.5 2.7
0 -3 -14 0.1 0.6
0 -3 14 0.8 0.8
0 3 14 -0.5 0.7
0 -3 -14 -0.4 0.6
0 -3 14 0.1 0.7
0 3 -14 -0.1 0.7
0 -3 14 -0.4 0.6
0 3 -14 0.6 0.6
0 3 -14 -0.3 0.6
0 -3 14 -0.5 0.6
0 3 14 -0.8 0.8
-1 3 14 40.1 6.7
1 3 -14 45.2 6.6
1 3 -14 39.8 6.6
1 3 -14 35 6.5
-1 -3 -14 41.6 6.6
1 3 -14 43.8 6.5
1 -3 14 46 6.6
-1 3 14 43.8 6.6
1 -3 14 32.9 6.6
-1 -3 -14 42.8 6.6
-1 -3 14 45.7 6.6
-1 3 -14 39.2 6.6
-1 -3 14 45.8 6.6
-1 -3 14 40.9 6.5
-1 -3 14 39 6.5
1 3 14 49.3 6.6
2 -3 14 32.2 4.7
-2 3 14 29.1 4.7
-2 -3 -14 23.6 4.7
2 3 -14 25.4 4.6
2 3 -14 31.3 4.6
2 3 -14 23.6 4.6
2 -3 14 29.1 4.7
-2 -3 -14 27.9 4.7
2 -3 14 23.4 4.6
-2 -3 -14 37.9 4.8
-2 -3 -14 31.9 4.8
2 3 -14 25.9 4.6
-2 3 14 29.2 4.7
2 -3 14 30 4.7
-2 3 -14 30.7 4.7
-2 3 -14 35.7 4.8
-2 -3 14 39.4 4.8
-2 3 -14 21.6 4.6
-2 3 -14 29 4.7
2 -3 -14 29 4.7
2 3 14 28.6 4.7
2 3 14 25.6 4.6
-2 -3 14 34.3 4.7
2 3 14 38.7 4.9
-2 -3 14 32.5 4.6
2 -3 -14 23.3 4.6
-2 -3 14 22.9 4.6
3 -3 14 58.19 8.6
3 -3 14 48.1 8.5
3 3 -14 59.39 8.5
3 3 -14 53.19 8.5
-3 -3 -14 48.4 8.5
3 -3 14 61.99 8.6
-3 -3 -14 50.09 8.6
-3 -3 -14 51.59 8.5
-3 3 14 57.49 8.5
-3 -3 -14 49.6 8.5
3 -3 14 47.7 8.5
3 3 -14 58.39 8.5
3 -3 -14 55.19 8.6
3 3 14 57.79 8.5
-3 -3 14 57.39 8.5
3 3 14 53.19 8.5
-3 -3 14 49.2 8.5
3 -3 -14 52.99 8.5
-3 3 -14 52.39 8.6
-3 3 -14 55.89 8.6
-3 3 -14 75.89 8.7
-3 3 -14 52.59 8.6
3 3 14 53.79 8.5
3 3 14 57.59 8.6
-3 -3 14 51.89 8.5
-3 -3 14 60.29 8.5
4 -3 14 19.5 3.5
-4 -3 -14 19.1 3.4
4 3 -14 20.7 3.3
-4 -3 -14 24.5 3.5
4 -3 14 20.5 3.5
-4 3 14 27.8 3.6
4 3 -14 21.3 3.3
-4 -3 -14 21 3.9
4 3 -14 19.2 3.2
-4 3 14 23.7 3.5
4 3 -14 22.2 3.3
-4 -3 -14 18.2 3.4
4 -3 14 22.3 3.5
4 -3 14 16.8 3.4
4 3 14 18.1 3.3
-4 3 -14 22.9 3.5
-4 -3 14 27.9 3.4
4 3 14 18.7 3.3
4 3 14 22.2 3.5
-4 -3 14 20 3.3
4 3 14 19.3 3.4
4 -3 -14 15.2 3.2
-4 -3 14 19.8 3.4
4 -3 -14 15.2 3.3
-4 3 -14 11.5 3.3
5 3 -14 7.6 1.7
5 3 -14 11.6 1.8
-5 -3 -14 13.8 2.2
-5 -3 -14 8.9 2
5 -3 14 11.1 2.1
5 3 -14 11.7 1.9
-5 3 14 7.9 2.2
-5 3 14 9.5 2.1
5 -3 14 10.4 2.1
5 3 -14 10.2 1.8
-5 -3 -14 11.8 2.1
-5 -3 -14 10.9 2.1
-5 3 14 11.7 2
-5 3 14 10.2 2
-5 -3 14 9.8 1.8
5 3 14 10.6 2
5 -3 -14 8.9 2
5 -3 -14 10.2 1.9
5 3 14 12.1 2
5 3 14 11.4 2
-5 3 -14 10.2 2.1
-5 -3 14 11.6 1.9
-5 -3 14 8.7 1.9
-5 -3 14 9.8 2
-5 3 -14 10.4 2.1
5 3 14 10.5 2
5 -3 -14 9.3 2
6 3 -14 -0.2 0.7
-6 3 14 -0.7 0.8
-6 3 14 -0.8 1.2
6 -3 14 1.4 0.9
6 3 -14 0 0.7
-6 3 14 -0.9 1.1
-6 -3 -14 -0.7 0.9
-6 -3 -14 -1.5 0.7
6 -3 14 1.4 1.1
-6 3 -14 0.3 1
-6 3 -14 1 0.9
6 -3 -14 -0.1 0.7
6 3 14 -0.9 0.9
-6 -3 14 -0.4 0.7
6 -3 -14 2.3 1.5
6 3 14 -0.1 0.6
6 -3 -14 -0.1 1
6 3 14 0.5 0.9
-7 3 14 1.3 1
7 -3 14 1.7 1
-7 3 14 1.4 1.4
7 3 -14 2.8 0.9
-7 -3 -14 1.4 1.1
7 -3 14 2.1 1.2
-7 3 14 2.5 1
-7 3 14 1.6 1.5
-7 -3 -14 2.4 1.1
-7 3 -14 2.4 1.1
7 -3 -14 0.8 1
-7 3 -14 -0.6 1
7 -3 -14 1.3 1.1
7 -3 -14 2.6 0.9
7 3 14 2 1.3
7 3 14 0.8 1.1
8 -3 14 -0.2 0.9
8 -3 14 1.8 1.3
8 3 -14 1.2 0.9
-8 -3 -14 1.8 1.1
-8 3 -14 2.4 1.1
8 -3 -14 2.5 1.1
8 3 14 1.1 1.1
8 3 14 1.2 1.1
8 -3 -14 1 1.2
8 -3 -14 0.7 0.9
8 -3 -14 1.4 1.2
-8 3 -14 0.6 1.1
8 3 14 -0.6 0.8
0 -4 14 344.17 49.1
0 -4 14 326.87 49.1
0 -4 -14 366.36 49.3
0 -4 -14 340.57 49.2
0 4 14 391.86 49.3
0 4 14 303.97 49.2
0 -4 14 296.27 49.1
0 -4 -14 300.17 49.1
0 -4 -14 309.97 49.1
0 4 -14 284.27 49.1
0 4 14 325.87 49.2
0 -4 14 318.97 49.1
0 4 14 335.17 49.2
0 4 -14 278.77 49.1
0 4 -14 338.07 49.2
0 4 -14 330.67 49.1
-1 -4 -14 60.89 11.4
-1 4 14 91.59 11.6
1 4 -14 78.79 11.4
1 4 -14 83.49 11.4
-1 -4 -14 65.49 11.4
1 4 -14 80.79 11.4
1 -4 14 77.49 11.4
-1 -4 -14 81.49 11.5
-1 4 14 67.19 11.5
1 -4 14 69.49 11.4
-1 -4 -14 76.09 11.5
-1 4 14 74.79 11.5
1 4 -14 69.99 11.4
-1 4 -14 65.69 11.4
1 -4 -14 82.59 11.5
1 4 14 67.29 11.5
1 4 14 68.29 11.4
-1 4 -14 70.99 11.6
-1 -4 14 93.79 11.4
-1 -4 14 59.89 11.4
1 4 14 67.99 11.4
-1 -4 14 76.99 11.4
1 -4 -14 71.89 11.4
1 -4 -14 73.09 11.4
-1 -4 14 89.59 11.6
-1 4 -14 69.09 11.4
1 4 14 78.09 11.4
-2 4 14 54.59 8.8
-2 4 14 50.99 8.9
2 4 -14 60.69 8.8
2 -4 14 57.49 8.8
-2 4 14 69.29 8.9
-2 -4 -14 49.1 8.8
-2 -4 -14 54.59 8.8
-2 -4 -14 51.59 8.8
2 4 -14 53.69 8.8
2 4 -14 64.49 8.8
2 4 -14 62.39 8.8
2 -4 14 59.99 8.9
2 -4 14 54.89 8.8
2 -4 14 63.99 8.9
-2 4 14 53.89 8.8
-2 -4 -14 59.19 8.8
-2 4 -14 62.29 8.9
-2 -4 14 62.39 8.8
-2 -4 14 60.49 8.8
2 -4 -14 54.19 8.8
2 -4 -14 51.09 8.8
-2 4 -14 42.2 8.8
-2 4 -14 50.89 8.8
2 -4 -14 66.49 8.9
2 4 14 49.6 8.8
2 -4 -14 51.89 8.8
-2 -4 14 55.69 8.7
-2 4 -14 56.69 8.8
-2 -4 14 59.69 8.8
3 -4 14 6 1.5
3 4 -14 6.7 1.4
-3 -4 -14 8.1 1.6
3 -4 14 5.2 1.5
3 4 -14 8.2 1.5
-3 -4 -14 6.7 1.5
-3 4 14 5.2 1.4
-3 4 14 9 1.9
-3 4 14 6.9 1.6
3 4 -14 6 1.3
3 -4 14 7.3 1.6
3 -4 14 7.3 1.5
-3 -4 -14 6.6 1.5
-3 -4 -14 6 1.5
-3 4 14 12.2 2.3
3 4 -14 6.7 1.3
-3 -4 14 7.9 1.4
-3 -4 14 8 1.4
-3 -4 14 7.7 1.4
3 4 14 6.6 1.5
3 4 14 9.5 1.6
3 -4 -14 6.9 1.5
-3 4 -14 5 1.5
-3 4 -14 8 1.6
3 -4 -14 5.4 1.4
3 4 14 5.8 1.5
3 -4 -14 7 1.5
-3 4 -14 4.6 1.4
3 4 14 7.7 1.6
3 -4 -14 6 1.5
-4 4 14 1.3 1
-4 4 14 2.7 1
-4 4 14 2.1 1
4 -4 14 3.1 1.3
-4 -4 -14 2 1
4 4 -14 0.6 0.6
-4 -4 -14 0.2 0.9
-4 -4 -14 2 1
4 -4 14 2.1 1
4 4 -14 2 0.8
-4 -4 -14 1.1 0.8
4 4 -14 1.7 0.7
-4 4 14 0.9 1.2
4 -4 -14 -0.1 0.7
4 -4 -14 1 0.7
-4 4 -14 0.6 0.8
4 4 14 0.9 0.7
-4 -4 14 0.9 0.7
4 4 14 1.4 0.9
-4 -4 14 1.3 0.7
4 4 14 1.1 0.9
-4 4 -14 2.1 0.9
4 -4 -14 1 1
-4 -4 14 -0.5 0.7
4 -4 -14 -0.3 0.8
-4 -4 14 1.8 0.7
-5 4 14 16.6 3.4
5 -4 14 20.7 3.5
5 4 -14 20.8 3.3
-5 4 14 16 3.5
-5 -4 -14 17.5 3.4
-5 -4 -14 14.5 3.4
-5 4 14 19.6 3.6
5 -4 14 18.7 3.6
5 4 -14 22.5 3.3
-5 4 14 19.5 3.5
-5 -4 -14 19.6 3.5
-5 -4 -14 24 3.6
5 4 14 23.6 3.5
-5 -4 14 19.6 3.3
5 -4 -14 20.3 3.5
5 4 14 18.1 3.4
5 4 14 21 3.5
5 -4 -14 17.7 3.5
-5 -4 14 21.5 3.4
-5 -4 14 24.7 3.3
-5 4 -14 19.9 3.5
-5 -4 14 25.6 3.4
5 -4 -14 18.5 3.5
5 -4 -14 15.6 3.3
-5 4 -14 16.8 3.5
5 4 14 27 3.6
-6 4 14 2.4 1.2
6 -4 14 2.2 1.2
6 -4 14 1.9 1
6 4 -14 1.6 0.9
-6 4 14 1.1 1
-6 4 14 0.7 1.3
-6 -4 -14 1.7 1
-6 4 14 -0.2 1.2
6 4 14 2.6 0.8
6 4 14 2.3 0.9
6 -4 -14 0.7 0.9
6 -4 -14 1.4 1
6 -4 -14 1.5 1.1
6 -4 -14 1.3 0.8
6 4 14 2.3 1.1
-6 4 -14 1.3 1
6 4 14 1.6 1
-6 4 -14 0.9 0.9
7 4 -14 0.3 0.7
-7 -4 -14 0.4 1.1
-7 4 14 1.6 1
7 -4 14 -0.2 0.9
-7 4 14 1 1.5
-7 4 14 0.5 1.3
7 4 -14 0.9 0.8
7 -4 14 0.8 1.1
-7 -4 -14 0 0.9
7 -4 -14 -0.1 1.1
7 -4 -14 1.2 0.9
7 4 14 0.2 0.7
7 4 14 0.3 1
7 4 14 -1 1
-7 4 -14 -0.1 0.9
-7 4 -14 1 0.9
7 -4 -14 3.6 1.3
7 -4 -14 1.5 1
0 -5 -14 -0.4 0.9
0 5 -14 1.2 0.7
0 5 -14 -0.8 0.5
0 -5 -14 0.6 0.6
0 5 14 0.1 0.8
0 5 14 -0.2 0.8
0 -5 14 0.4 0.7
0 5 14 -0.3 0.8
0 -5 -14 1.2 0.9
0 -5 -14 0 0.8
0 5 14 0.5 1
0 -5 14 -0.6 0.7
1 -5 14 53.19 8.7
1 5 -14 53.99 8.6
-1 5 14 55.49 8.7
-1 -5 -14 51.19 8.7
1 5 -14 56.59 8.6
1 5 -14 52.59 8.7
-1 5 14 58.69 8.7
-1 -5 -14 57.69 8.7
-1 -5 -14 61.09 8.7
-1 5 14 53.89 8.7
1 5 -14 54.69 8.6
-1 5 14 50.09 8.7
1 -5 14 56.99 8.7
1 -5 14 49.99 8.7
-1 -5 -14 52.99 8.7
1 -5 14 52.99 8.7
-1 -5 14 46.8 8.6
1 5 14 54.89 8.7
1 5 14 61.19 8.8
-1 5 -14 57.29 8.7
1 -5 -14 51.19 8.7
1 5 14 57.49 8.7
-1 5 -14 52.69 8.7
-1 -5 14 59.79 8.7
1 -5 -14 60.19 8.7
-1 -5 14 61.69 8.7
-1 5 -14 53.89 8.7
1 -5 -14 55.29 8.7
1 5 14 67.89 8.8
1 -5 -14 57.99 8.7
-1 -5 14 60.29 8.7
-2 -5 -14 2.7 1
2 5 -14 1 0.6
2 5 -14 2.5 0.8
-2 5 14 1.5 0.8
2 -5 14 3.4 1
2 5 -14 1.6 0.8
2 -5 14 3 1.1
-2 -5 -14 0.1 0.9
-2 -5 -14 0.5 0.8
2 -5 14 1.2 0.8
2 -5 14 1.7 0.8
2 5 -14 1.8 0.7
-2 -5 -14 2.5 1
-2 5 14 2.4 1.2
-2 5 14 2.2 1.1
-2 5 14 1.6 1
-2 -5 14 1 0.8
-2 5 -14 0.6 0.8
2 5 14 3.2 0.9
2 5 14 1.4 0.9
-2 5 -14 1.1 0.8
-2 5 -14 0.6 0.9
-2 -5 14 0.1 0.7
2 5 14 0.3 1
2 -5 -14 1.6 0.8
2 -5 -14 2 1
2 -5 -14 2.2 0.9
2 -5 -14 0.9 0.9
2 5 14 2.3 0.8
-2 5 -14 0.8 0.8
-2 -5 14 1.2 0.7
-2 -5 14 1.5 0.7
-3 -5 -14 1.6 1
-3 -5 -14 3.6 1.1
-3 5 14 5.4 1.2
3 -5 14 3.4 1
-3 -5 -14 4.4 1.1
3 -5 14 1.9 0.9
3 5 -14 3.3 1
-3 -5 -14 2.6 1.1
3 5 -14 2.1 0.8
-3 5 14 2 1.3
3 -5 14 4.1 1.2
3 -5 14 2.6 1
-3 5 14 2.8 1.3
-3 5 14 4.6 1.2
3 5 -14 4 0.9
-3 -5 14 1.6 0.9
-3 -5 14 4 0.9
3 5 14 4.2 1.2
-3 5 -14 2.9 1.1
-3 5 -14 0.9 0.9
-3 5 -14 2.8 1.1
-3 -5 14 2.9 0.9
3 -5 -14 3.6 1.1
-3 5 -14 5.1 1.2
-3 -5 14 2.2 0.9
3 5 14 3.4 1
3 5 14 2.6 1
3 -5 -14 3.5 1
3 5 14 4.2 1
3 -5 -14 6.4 1.3
3 -5 -14 3.5 1.1
-4 -5 -14 0.5 0.8
4 -5 14 0.5 0.8
4 -5 14 0.4 0.8
-4 -5 -14 -0.2 0.8
-4 5 14 -0.2 0.8
-4 -5 -14 -0.3 0.8
-4 5 14 0 0.9
-4 5 14 -1.1 1
-4 5 14 -1.2 1.2
-4 -5 -14 1 1
4 5 -14 0.6 0.6
4 5 -14 -0.1 0.6
4 5 -14 1.1 0.8
4 -5 -14 -0.4 0.6
-4 5 -14 -1.3 0.7
4 -5 -14 -0.6 0.8
-4 -5 14 -1 0.6
-4 5 -14 0.7 0.9
4 5 14 0.4 0.6
4 -5 -14 -0.3 0.8
-4 -5 14 -0.6 0.6
-4 -5 14 -0.5 0.6
4 5 14 -0.2 0.8
4 -5 -14 0.4 0.9
4 5 14 -0.1 0.8
4 5 14 1.1 0.7
-5 5 14 39.7 6.1
-5 -5 -14 35.5 5.9
5 -5 14 32.1 5.9
5 5 -14 36.2 5.7
-5 5 14 30.6 6
-5 -5 -14 42.1 6
5 -5 -14 26.2 5.8
5 -5 -14 30.7 5.9
-5 5 -14 36.7 6
5 5 14 43 6
5 5 14 42 6
-5 -5 14 42.7 5.7
5 -5 -14 29.5 5.9
-5 5 -14 33.1 6
5 -5 -14 32.5 5.9
-5 -5 14 35.3 5.7
-5 -5 14 36.4 5.8
-5 -5 14 39.7 5.7
5 5 14 42 5.8
5 5 14 40.1 5.9
-6 -5 -14 38.3 5.4
-6 5 14 32.3 5.6
-6 5 14 32.4 5.5
6 5 -14 37.8 5.1
6 -5 14 30.1 5.4
6 5 -14 31.5 5.1
-6 -5 -14 29.8 5.3
6 5 14 36.9 5.4
-6 5 -14 39 5.5
6 -5 -14 21.6 5.1
6 5 14 35.3 5.3
6 -5 -14 25.8 5.3
-6 5 -14 28.8 5.4
6 5 14 34.8 5.2
7 -5 14 17.4 2.9
-7 5 14 15.5 3
-7 -5 -14 16 2.7
7 -5 14 14.3 2.8
-7 5 14 21.4 3.3
-7 5 -14 15.2 2.8
7 5 14 15.6 2.7
-7 5 -14 17.7 2.8
7 5 14 8.7 2.5
7 -5 -14 15.2 2.7
7 -5 -14 12.4 2.7
7 -5 -14 14 2.6
7 5 14 12.5 2.5
0 6 14 2.5 1
0 -6 -14 5.3 1.4
0 -6 -14 3.2 1.1
0 -6 -14 3.1 1.1
0 -6 -14 2.1 0.9
0 6 14 3.4 1.3
0 -6 14 2.3 0.9
0 6 -14 1.5 0.8
0 -6 14 4.9 1.1
0 6 14 1.9 1
0 6 14 4 1.1
1 -6 14 0.1 0.7
-1 6 14 0.3 0.8
-1 -6 -14 0.4 0.8
1 -6 14 0.7 0.8
-1 -6 -14 0.5 0.8
-1 6 14 -0.5 0.9
1 6 -14 1.2 0.7
-1 -6 -14 0.1 0.9
-1 6 14 1.1 1.1
-1 -6 -14 -0.1 0.9
1 -6 14 -0.4 0.7
1 -6 14 -0.5 0.8
1 6 -14 -0.4 0.6
1 6 -14 -0.5 0.5
-1 6 14 -0.3 0.9
1 -6 -14 1.2 1
1 -6 -14 0 0.8
-1 6 -14 -0.2 0.8
1 6 14 -0.3 0.9
1 6 14 0.4 0.8
-1 -6 14 0.1 0.7
1 6 14 0.3 0.9
-1 -6 14 0.5 0.7
-1 6 -14 -0.5 0.5
1 -6 -14 -0.7 0.7
1 6 14 0.3 0.7
1 -6 -14 1.2 0.8
-1 -6 14 0.4 0.7
-1 -6 14 0.3 0.7
-2 6 14 0.4 0.8
-2 6 14 0.6 1.1
-2 -6 -14 0.2 0.8
2 6 -14 -0.3 0.5
2 6 -14 0.4 0.6
-2 6 14 0.8 1.1
-2 -6 -14 0.3 0.9
2 -6 14 1.5 0.9
-2 6 14 1.8 0.9
2 6 -14 -0.5 0.5
-2 -6 -14 -0.8 0.9
2 -6 14 0.5 0.8
2 -6 14 0.2 0.7
-2 -6 -14 -0.3 0.8
2 6 -14 -1 0.6
2 6 14 -1.5 0.6
-2 6 -14 1 0.7
2 6 14 -0.1 0.7
2 6 14 -0.3 0.9
-2 -6 14 0.2 0.6
2 -6 -14 1.1 0.9
-2 -6 14 -0.1 0.7
2 6 14 -0.1 0.9
2 -6 -14 0.9 0.8
-2 6 -14 0.5 0.7
-2 -6 14 0.2 0.7
-2 -6 14 -0.6 0.7
-2 6 -14 0.5 0.9
-2 6 -14 -0.2 0.7
3 6 -14 23.9 3
-3 6 14 15.4 3.2
-3 6 14 15.9 3
-3 6 14 19 3.1
-3 6 14 10.6 3
3 6 -14 19.6 3
3 -6 14 18.5 3.2
-3 -6 -14 18.8 3.1
-3 -6 -14 19.8 3.1
-3 -6 -14 12.9 3
3 -6 14 12.1 3
3 6 -14 16.4 3
-3 -6 -14 16.9 3
3 -6 -14 12.8 3
-3 -6 14 15.8 2.9
3 6 14 14.1 3
3 -6 -14 20.3 3.2
-3 6 -14 21 3.2
-3 -6 14 17.6 2.9
-3 6 -14 16.4 3.1
3 -6 -14 17.5 3.1
3 -6 -14 19.3 3.1
-3 -6 14 23.7 3
-3 -6 14 17.2 2.9
3 6 14 19.5 3.1
3 6 14 18.2 3.1
4 6 -14 6.5 1.3
4 -6 14 6.3 1.6
4 6 -14 7.5 1.3
-4 -6 -14 7.4 1.5
-4 -6 -14 6.3 1.5
-4 6 14 6.1 1.7
4 6 -14 6.9 1.2
-4 -6 -14 7.4 1.6
-4 6 14 6.3 1.7
4 -6 14 9.7 1.7
-4 -6 -14 6.6 1.5
-4 6 14 6.8 1.6
4 6 -14 6 1.2
-4 6 -14 6.3 1.7
4 6 14 6.2 1.6
4 -6 -14 6.3 1.5
-4 -6 14 4.6 1.3
4 6 14 5.6 1.4
4 -6 -14 4.2 1.5
4 -6 -14 6.9 1.6
4 6 14 7 1.5
-4 -6 14 5.3 1.3
4 6 14 9.1 1.7
-4 -6 14 6.3 1.3
-4 -6 14 7.1 1.4
4 -6 -14 1.9 1.3
-4 6 -14 7.3 1.5
-5 -6 -14 19.3 3.6
5 6 -14 24.3 3.5
-5 6 14 18.6 3.8
-5 6 14 20.9 3.9
5 -6 14 23.1 3.7
5 -6 14 16.9 3.6
5 -6 -14 19 3.6
5 6 14 22.9 3.7
5 -6 -14 19.3 3.7
-5 6 -14 20.8 3.7
5 6 14 22.8 3.6
5 6 14 22 3.7
5 -6 -14 20 3.7
-5 -6 14 23.3 3.5
-5 6 -14 26.9 3.8
-5 -6 14 21.3 3.5
-5 -6 14 19.8 3.4
-5 -6 14 18 3.4
6 -6 14 4.3 1.3
-6 6 14 3.1 1.5
-6 6 14 4.2 1.7
6 6 -14 5.3 1
6 6 -14 5.6 1
-6 -6 -14 1.8 1.2
-6 -6 -14 4.2 1.2
6 -6 14 2 1.2
6 6 14 3.7 1.3
6 -6 -14 1.3 1.2
-6 6 -14 5 1.4
6 6 14 1.6 0.9
6 6 14 3.9 1.3
6 -6 -14 2.3 1.2
-7 -6 -14 42.8 6.4
-7 -6 -14 46 6.4
-7 6 14 38.8 6.5
7 -6 14 32.1 6.2
-7 6 14 39.3 6.5
7 -6 -14 30.8 6.2
7 6 14 31.6 6.2
7 -6 -14 29.9 6.2
7 6 14 49.1 6.2
7 -6 -14 44.5 6.6
7 6 14 45.6 6.3
0 7 -14 0.3 0.8
0 7 -14 0 0.7
0 -7 -14 1.3 0.9
0 -7 14 0.6 0.8
0 -7 14 0.4 0.8
0 7 14 -0.4 0.7
0 7 -14 0.3 0.6
0 -7 14 -0.4 0.7
0 -7 -14 0.5 0.9
0 -7 -14 -0.3 0.8
0 7 14 0.4 0.8
0 7 -14 0.4 0.8
0 -7 -14 0.6 1
0 7 14 0.3 1
0 7 14 0.7 0.9
0 -7 14 0.7 0.7
1 7 -14 52.09 8.9
1 7 -14 50.09 8.9
-1 -7 -14 55.09 9
-1 -7 -14 56.09 9
1 7 -14 59.49 8.9
1 -7 14 51.69 9
1 -7 14 59.19 9
1 -7 14 63.89 9
-1 7 14 60.49 9
-1 7 14 61.29 9
1 -7 14 61.99 9
-1 -7 -14 64.59 9
-1 7 14 54.59 9
-1 -7 -14 58.79 9.1
-1 7 14 67.79 9.2
-1 -7 14 46.8 8.9
1 7 14 65.09 9
1 7 14 59.19 9.1
-1 7 -14 54.59 9
1 -7 -14 53.89 9
-1 7 -14 63.19 9
1 -7 -14 49 8.9
-1 7 -14 57.79 9
1 -7 -14 71.89 9.1
1 -7 -14 48.2 9
1 7 14 64.89 9
-1 -7 14 60.79 8.9
1 7 14 53.49 9
2 7 -14 7.9 1.5
-2 7 14 11.5 2.2
2 7 -14 8 1.5
-2 -7 -14 7.2 1.6
-2 7 14 7 1.7
2 -7 14 6.9 1.7
2 -7 14 6.6 1.6
-2 -7 -14 6.9 1.6
2 7 -14 7.4 1.5
-2 7 14 6.5 1.9
-2 -7 -14 4.6 1.6
-2 -7 -14 6.9 1.7
-2 7 14 5.7 1.6
2 7 14 4.9 1.5
2 -7 -14 3.5 1.5
2 -7 -14 5.4 1.5
-2 7 -14 10 1.7
2 7 14 6.1 1.7
-2 7 -14 7.8 1.6
2 7 14 7 1.5
2 7 14 6.9 1.6
-2 -7 14 6.4 1.5
-2 -7 14 8.1 1.5
2 -7 -14 6.1 1.6
-2 7 -14 8.4 1.7
-2 -7 14 12.7 1.7
-2 -7 14 9.4 1.6
2 -7 -14 5.9 1.6
-3 -7 -14 47.9 8.5
3 7 -14 60.09 8.4
3 -7 14 47.5 8.5
3 7 -14 48.1 8.4
3 7 -14 63.39 8.5
-3 7 14 41.4 8.7
-3 -7 -14 60.69 8.5
3 -7 14 52.79 8.6
-3 -7 -14 47.7 8.7
-3 -7 -14 52.29 8.5
-3 7 14 62.69 8.7
3 -7 -14 62.39 8.6
3 7 14 51.29 8.5
-3 -7 14 58.39 8.5
3 -7 -14 54.39 8.6
-3 -7 14 48 8.4
-3 -7 14 50.69 8.4
3 7 14 55.29 8.5
3 7 14 59.99 8.6
3 7 14 43.1 8.6
-3 7 -14 51.99 8.5
-3 7 -14 58.69 8.6
3 -7 -14 55.69 8.6
-3 -7 14 66.99 8.5
4 -7 14 7.9 1.6
-4 7 14 2.6 1.5
-4 7 14 4.1 1.6
4 7 -14 5.2 1.2
-4 -7 -14 6.1 1.4
-4 -7 -14 5.2 1.4
4 7 -14 5.4 1
-4 -7 -14 4.4 1.5
4 -7 14 4.2 1.4
4 7 -14 6.1 1.3
4 7 -14 5.1 1.1
-4 7 -14 5.4 1.4
4 7 14 4.8 1.3
4 -7 -14 2.9 1.4
4 7 14 5.5 1.4
-4 -7 14 2.8 1.1
-4 -7 14 5 1.1
-4 7 -14 5 1.3
4 7 14 5.1 1.3
-4 -7 14 3.9 1.1
-4 -7 14 5.5 1.1
4 7 14 4.9 1.2
5 7 -14 1.4 0.8
-5 -7 -14 0.8 0.9
-5 7 14 -1.7 1.2
-5 7 14 2.3 1.4
5 -7 14 -0.5 0.9
-5 -7 -14 1.3 1
5 -7 14 -0.3 0.9
-5 -7 -14 0.8 1.6
5 -7 -14 0.6 0.9
-5 7 -14 0.3 0.9
5 7 14 0.2 0.7
-5 -7 14 1.2 0.7
5 7 14 2.6 1.2
5 7 14 2.6 1.1
5 7 14 1.4 0.7
5 -7 -14 1.1 1.1
-6 -7 -14 29.7 4
6 -7 14 26.2 4.1
6 7 -14 20.6 3.6
-6 7 14 19.9 4
-6 -7 -14 23.8 3.9
-6 7 14 23.3 4.2
6 -7 14 26.2 4.1
6 -7 -14 18.4 3.8
6 7 14 21.3 4.2
-6 7 -14 22.3 3.9
6 7 14 23.1 3.8
6 7 14 20.4 3.7
6 -7 -14 18.5 3.8
-7 7 14 1.1 1.3
-7 -7 -14 1 1.4
-7 -7 -14 1.6 1
-7 7 14 -0.3 1.4
7 -7 14 1.2 1.2
-7 7 -14 1.2 1.1
7 7 14 0.6 0.7
7 7 14 -1.3 1.1
-7 7 -14 0.1 1
7 7 14 0.4 1.1
7 -7 -14 -1 1.2
7 -7 -14 2.6 1.1
0 -8 14 58.89 10.5
0 -8 -14 64.89 10.5
0 -8 14 75.19 10.5
0 8 14 62.49 10.7
0 -8 14 78.99 10.5
0 -8 14 76.89 10.5
0 8 -14 65.29 10.4
0 8 14 64.89 10.5
0 -8 -14 61.39 10.5
0 8 -14 64.99 10.4
0 8 -14 60.49 10.4
0 8 14 71.69 10.5
-1 -8 -14 0.3 1.2
1 -8 14 1.6 0.8
-1 -8 -14 1.9 1
1 8 -14 0.9 0.7
1 -8 14 2.1 0.9
1 8 -14 1.3 0.9
1 -8 14 2.5 1
-1 8 14 0.8 1.1
-1 -8 -14 2.9 1.1
1 8 -14 1.9 0.8
1 -8 14 1.9 1.2
-1 8 14 2.4 1.4
-1 -8 14 1.6 0.8
-1 8 -14 2.5 0.9
1 -8 -14 2.9 1.1
1 8 14 0.7 0.8
-1 8 -14 1.9 1
-1 8 -14 0.9 0.8
1 -8 -14 1.4 0.9
1 8 14 1.8 1.2
-1 -8 14 -0.4 0.8
-1 8 -14 0.8 0.8
2 8 -14 44.4 7.2
2 -8 14 43.5 7.4
2 8 -14 44.4 7.1
-2 -8 -14 41 7.3
2 8 -14 38.3 7.2
2 8 -14 47 7.2
-2 -8 -14 43.8 7.3
-2 -8 -14 47.1 7.3
-2 8 14 49.3 7.6
2 -8 14 52.59 7.3
-2 -8 14 47.7 7.2
2 -8 -14 45.8 7.4
-2 -8 14 52.19 7.2
-2 -8 14 50.89 7.2
-2 -8 14 41.9 7.2
2 8 14 46.4 7.5
2 8 14 44.7 7.4
2 8 14 45.5 7.2
2 8 14 45.6 7.4
-2 8 -14 47.9 7.2
2 -8 -14 50.29 7.5
-2 8 -14 40.7 7.3
3 -8 14 15 2.6
3 8 -14 9 2.3
-3 8 14 9.9 2.7
3 -8 14 17 2.7
-3 8 14 18.1 3
-3 -8 -14 14.9 2.5
3 8 -14 13.9 2.4
-3 -8 -14 15.7 2.6
-3 -8 -14 12 2.4
3 8 -14 14.3 2.4
3 8 14 16.9 2.6
-3 -8 14 15.8 2.5
-3 8 -14 14.8 2.6
-3 -8 14 13.2 2.4
3 -8 -14 11.4 2.5
3 8 14 13.9 2.6
-3 8 -14 11.7 2.4
3 8 14 13.4 2.4
3 -8 -14 12.4 2.5
3 8 14 7.8 2.3
-3 -8 14 14.7 2.4
-3 -8 14 15.8 2.4
4 -8 14 1.5 1
-4 8 14 -1.4 1.3
4 8 -14 1.5 0.8
4 8 -14 -0.2 0.6
4 -8 14 0.5 1
-4 -8 -14 0.1 0.9
4 8 -14 1.5 0.6
4 8 -14 0.5 0.7
-4 -8 -14 0.8 0.9
-4 -8 14 0.3 0.7
4 -8 -14 0 0.9
-4 -8 14 0.5 0.7
4 8 14 0.2 0.9
-4 -8 14 0.3 0.8
4 8 14 -0.6 0.9
-4 -8 14 0.7 0.7
-4 8 -14 1.8 1
-4 8 -14 0.5 1
4 8 14 0.3 0.6
4 -8 -14 -0.2 1.1
4 8 14 0.8 0.9
5 -8 14 24.4 4.2
-5 8 14 15.2 3.1
5 -8 14 13.3 2.8
-5 8 14 11.1 3
-5 -8 -14 19.3 2.9
5 8 -14 15.7 2.6
-5 -8 -14 14.4 2.7
5 8 14 14.4 2.8
-5 8 -14 18.8 2.9
5 -8 -14 11.5 2.8
5 -8 -14 11.7 2.8
-5 8 -14 12.9 2.7
5 8 14 17.7 2.9
-6 -8 -14 23.4 3.9
6 8 -14 27.6 3.7
6 8 -14 23.6 3.7
-6 8 14 23.1 4.1
-6 8 14 22.7 4.3
-6 -8 -14 27.6 4
6 8 14 19 3.8
6 8 14 16.7 3.9
6 8 14 17.1 3.9
6 -8 -14 19.2 4
6 -8 -14 28.3 4.1
-7 8 14 0.7 1.7
-7 8 14 -1.1 1.2
7 -8 14 -0.9 1.2
7 -8 14 0.6 1.2
7 8 14 1.4 0.8
7 8 14 0 1.1
-7 8 -14 1.5 1.1
7 -8 -14 -0.6 1.2
-7 8 -14 0.1 1.1
7 -8 -14 2.1 1.1
7 8 14 3.2 1.3
0 9 14 2.5 1.2
0 9 -14 1.1 0.8
0 -9 14 -1.1 0.8
0 9 14 1.5 1.3
0 -9 -14 -0.1 0.7
0 -9 14 -0.3 0.7
0 -9 14 1.6 0.9
0 -9 14 0.8 1
0 9 -14 0.4 0.7
0 9 -14 0.5 0.6
0 9 -14 -1 0.6
-1 -9 -14 9.6 2.3
1 9 -14 11.8 2.3
1 9 -14 17.4 2.4
-1 -9 -14 13.1 2.5
-1 9 14 18.6 3
1 9 -14 13.6 2.3
1 -9 14 16.3 2.6
-1 9 14 10 2.5
1 -9 14 24 2.9
1 -9 -14 10.8 2.4
-1 -9 14 12.7 2.3
-1 -9 14 7.7 2.2
-1 9 -14 9.3 2.3
1 -9 -14 13.2 2.4
1 9 14 9.6 2.5
1 9 14 10.1 2.5
-1 9 -14 16.1 2.5
-1 -9 14 12.7 2.5
-1 -9 14 14.2 2.4
-1 9 -14 14.6 2.5
-2 -9 -14 21.7 3.7
2 9 -14 21.7 3.6
-2 -9 -14 19.1 3.6
2 -9 14 22.5 3.7
2 -9 14 29.6 3.9
-2 9 14 26.9 3.9
2 9 -14 16.2 3.4
-2 9 14 20.7 3.9
2 9 -14 25 3.6
2 -9 -14 17.2 3.6
2 -9 -14 25.6 3.9
-2 -9 14 21.2 3.6
-2 9 -14 19.6 3.6
-2 -9 14 16.7 3.5
2 9 14 18.3 3.7
2 9 14 21.4 3.7
2 9 14 22 3.8
-3 9 14 10.1 2.3
-3 9 14 10.6 2.3
-3 -9 -14 10.5 2
3 9 -14 7.9 1.9
3 9 -14 10.3 1.8
-3 -9 -14 7.2 1.9
3 9 -14 11 1.9
3 9 -14 12.6 1.9
3 -9 14 8.2 2.1
3 -9 14 11.7 2.2
-3 -9 14 10.6 1.9
3 9 14 11 2.2
-3 -9 14 9.7 1.9
3 9 14 9.1 1.9
-3 9 -14 8.2 2.1
-3 -9 14 12.8 2.1
-3 9 -14 11.2 2.2
3 -9 -14 7.5 2.1
3 -9 -14 8.4 2
3 9 14 8.4 2
-3 -9 14 9.7 1.9
4 9 -14 9.4 1.7
-4 9 14 10.5 2.4
4 9 -14 10.1 1.9
-4 9 14 8.9 2.3
4 -9 14 8.4 2.1
-4 -9 -14 6.6 1.9
4 9 -14 11.5 1.8
-4 -9 -14 8.5 1.9
4 -9 14 12.9 2.3
-4 -9 14 9.8 1.8
-4 -9 14 10.6 1.9
-4 9 -14 7.4 2
-4 9 -14 14.2 2.2
-4 -9 14 8.5 1.9
4 9 14 7.9 2
4 -9 -14 6.1 2
-4 -9 14 10.8 1.8
4 9 14 11.7 2.2
4 -9 -14 7.3 2
-5 9 14 7.2 2
5 -9 14 6.7 1.9
-5 9 14 7.5 2.2
-5 -9 -14 6.9 1.7
5 9 -14 9.5 1.6
5 9 -14 6.3 1.5
-5 -9 -14 7.8 1.7
-5 9 -14 14.4 3.1
5 9 14 5.1 1.4
5 9 14 11.3 2.2
5 -9 -14 6.4 1.7
-5 9 -14 6.2 1.8
5 -9 -14 5.9 1.8
-6 -9 -14 59.09 9.6
-6 9 14 54.59 10
-6 -9 -14 60.59 9.6
6 9 -14 65.19 9.5
6 9 -14 74.39 9.5
6 -9 14 68.79 9.8
6 -9 14 49.5 9.7
-6 9 14 47.2 10
-6 9 -14 67.29 9.7
-6 9 -14 68.59 9.8
6 -9 -14 42.6 9.7
6 9 14 47.4 9.7
6 9 14 60.29 9.7
6 -9 -14 61.89 9.9
6 9 14 67.09 9.6
0 10 14 45.9 7.1
0 -10 14 46.1 7
0 -10 14 48.2 6.9
0 -10 -14 36.5 7
0 10 -14 36.1 6.9
0 -10 14 38.8 7.1
0 10 -14 42.1 7
0 10 14 34.6 7.1
0 10 -14 52.39 6.9
0 -10 -14 47.3 7.2
-1 10 14 184.68 27.1
1 10 -14 178.08 27
1 -10 14 163.68 27
1 10 -14 212.88 27
1 -10 14 178.48 27.1
-1 -10 -14 161.58 27.1
1 10 -14 171.28 27
-1 10 14 156.38 27.1
-1 -10 -14 193.38 27.1
1 10 -14 210.98 27.1
1 10 14 183.58 27.2
-1 10 -14 174.98 27.1
1 -10 -14 173.98 27.1
-1 -10 14 172.58 27
-1 10 -14 180.38 27
-1 -10 14 157.38 27
1 -10 -14 177.48 27.1
-1 -10 14 173.78 27
1 10 14 144.29 27.1
-1 -10 14 176.68 27
2 10 -14 99.69 14
-2 -10 -14 78.99 13.9
-2 10 14 88.69 14.1
2 10 -14 104.69 14
-2 -10 -14 92.69 14
-2 10 14 86.19 14.1
2 -10 14 75.49 14
2 10 -14 94.99 13.9
2 -10 14 87.49 14
2 10 14 68.39 14
-2 -10 14 89.19 13.9
2 10 14 86.69 14
-2 -10 14 89.29 14
-2 -10 14 97.19 13.9
2 -10 -14 97.19 14
-2 -10 14 97.09 13.9
2 -10 -14 84.09 14
-2 10 -14 100.09 14
3 -10 14 61.59 10.1
3 -10 14 78.59 10.2
-3 10 14 72.39 10.5
3 10 -14 73.69 10.1
-3 -10 -14 64.69 10.1
3 10 -14 56.19 10
3 10 -14 66.29 10
-3 -10 -14 67.39 10.1
-3 10 -14 67.39 10.2
3 -10 -14 45 10.3
-3 10 -14 72.19 10.1
3 -10 -14 70.99 10.2
-3 -10 14 57.69 10
-3 -10 14 68.69 10
-3 -10 14 53.39 10.1
3 10 14 60.19 10.3
3 10 14 62.69 10.2
-3 -10 14 65.79 10.1
-4 -10 -14 6.9 1.6
4 10 -14 6.2 1.5
-4 10 14 8.9 2.1
-4 -10 -14 7.9 1.7
4 -10 14 7.2 1.8
4 10 -14 6.8 1.4
4 -10 14 4.1 1.6
-4 10 14 5.3 2
4 10 -14 6.3 1.3
4 10 -14 10.7 1.6
4 10 14 6.9 1.6
-4 -10 14 6.6 1.8
4 10 14 5.9 1.8
4 -10 -14 5.4 1.7
-4 10 -14 8.3 1.8
4 -10 -14 6.4 1.7
4 10 14 7 1.8
-4 -10 14 6.3 1.5
-4 -10 14 6.8 1.6
-4 10 -14 6.3 1.7
5 -10 14 2 1.2
-5 10 14 2.5 1.5
5 10 -14 2.3 1
-5 -10 -14 1.7 1.1
-5 -10 -14 0.8 1
-5 10 14 0.3 1.6
5 10 -14 0.6 0.9
5 10 14 1.8 0.9
5 -10 -14 2.7 1.4
5 -10 -14 1 1.2
-5 10 -14 3 1.2
5 10 14 0.9 1.2
5 10 14 2.2 1.4
-5 10 -14 1.6 1.3
6 -10 14 14.1 2.6
-6 -10 -14 14.4 2.4
-6 -10 -14 10 2.3
6 10 -14 13 2.1
6 -10 14 8.9 2.4
6 10 -14 12.3 2.1
6 10 14 10.5 2.2
6 10 14 9.6 2.4
-6 10 -14 12 2.6
-6 10 -14 11.5 2.5
6 10 14 10 2.5
6 -10 -14 10.9 2.5
0 -11 14 1.4 1
0 11 -14 0.5 0.8
0 11 14 1 1.6
0 11 -14 2.2 1
0 -11 -14 0 0.9
0 -11 14 -0.1 0.9
0 11 -14 0.5 0.8
-1 -11 -14 0.5 0.9
-1 -11 -14 -0.9 0.8
-1 11 14 0.5 1.2
1 11 -14 0.5 0.7
1 -11 14 0.6 0.9
-1 11 14 -1.5 1.2
1 11 -14 -0.5 0.7
1 11 -14 0.6 0.8
1 11 -14 -1.3 0.7
1 -11 -14 -0.6 1
-1 11 -14 0.2 0.9
1 -11 -14 -0.4 1
-1 -11 14 -0.6 0.8
1 11 14 -0.2 1.2
-1 -11 14 0.8 0.9
1 11 14 0.5 1.3
-1 11 -14 -0.4 0.7
-2 -11 -14 60.69 9.8
2 11 -14 61.59 9.7
2 -11 14 68.89 9.8
2 11 -14 73.09 9.8
-2 -11 -14 63.69 9.8
2 -11 14 60.79 9.8
-2 11 14 79.29 10.1
2 11 -14 56.29 9.7
-2 11 14 64.29 10.1
-2 -11 14 56.19 9.7
2 11 14 56.79 10
2 11 14 71.49 9.9
2 -11 -14 58.29 9.8
-2 -11 14 64.59 9.8
-2 11 -14 57.89 9.8
-2 11 -14 74.29 9.9
-2 -11 14 58.79 9.7
-2 -11 14 65.09 9.7
2 -11 -14 45.4 9.8
3 11 -14 1.5 0.9
-3 -11 -14 0.1 1
3 -11 14 -0.1 1
3 11 -14 -0.1 0.6
-3 -11 -14 0.9 1
3 -11 14 1 1.1
3 11 -14 0 0.7
-3 11 14 0.9 1.3
-3 11 14 0.8 1.5
3 -11 -14 0.7 1.1
-3 -11 14 0.4 0.9
3 11 14 1 1.4
3 11 14 2.3 1.3
-3 -11 14 0.5 0.8
-3 11 -14 1.1 1
-3 11 -14 0.3 1
-4 -11 -14 7.1 1.6
-4 -11 -14 6.5 1.7
4 11 -14 7.4 1.5
4 11 -14 8.8 1.7
4 11 -14 7.6 1.4
-4 11 14 6.8 2
-4 11 14 6.3 2.1
4 -11 -14 5.5 1.7
4 11 14 5.8 1.8
-4 -11 14 6.4 1.5
4 -11 -14 5.5 1.7
4 11 14 7.8 2
-5 -11 -14 9.6 1.9
5 -11 14 9 2.1
5 11 -14 12 1.9
5 -11 14 8.7 2
-5 11 -14 9.4 2
5 11 14 8.7 2.1
5 11 14 4.7 1.9
5 11 14 5.4 1.6
-5 11 -14 7 2.1
6 -11 -14 0 1.1
0 12 -14 2.1 1.2
0 -12 -14 2.8 1.4
0 -12 14 5.1 1.4
0 12 14 5.8 1.7
0 12 -14 4.4 1.2
0 -12 14 4 1.3
-1 12 14 2 1.5
-1 -12 -14 2.2 1.2
1 12 -14 2.3 1
1 12 -14 2.2 1
1 12 -14 2.6 1.1
1 -12 14 4.2 1.3
1 -12 14 3.5 1.2
-1 -12 -14 2 1.3
-1 12 14 3.2 1.6
1 12 14 4.9 1.8
-1 12 -14 3.3 1.2
1 12 14 2.2 1.4
1 -12 -14 1.4 1.1
-1 12 -14 0.5 1.1
1 -12 -14 1.8 1.3
-1 -12 14 4.6 1.2
-1 -12 14 3.3 1.2
2 12 -14 0 0.8
-2 12 14 0.5 1.6
-2 -12 -14 0.3 1
2 -12 14 0.1 1
2 -12 14 1 1.1
2 12 -14 1 0.9
2 12 -14 0.7 0.8
-2 -12 -14 0.9 1.1
-2 12 14 -1.5 1.2
2 12 -14 -0.4 0.8
2 12 14 1.3 1.3
-2 12 -14 1.2 1.1
-2 12 -14 0.6 1
2 -12 -14 -0.7 1
-2 -12 14 1.6 0.9
2 -12 -14 1.4 1.1
-2 -12 14 1.2 1.1
2 12 14 -1.2 1.3
-2 -12 14 1.2 1
-2 -12 14 -0.7 0.8
3 12 -14 14.8 2.6
3 12 -14 15.4 2.4
3 -12 14 14.9 3.5
3 12 -14 12.4 2.4
3 12 -14 11.9 2.5
-3 -12 -14 8.8 2.5
-3 -12 14 10.2 2.5
3 12 14 15.9 2.8
3 12 14 12.4 2.8
-3 12 -14 15.4 2.8
-3 -12 14 12.4 2.5
-3 -12 14 14.4 2.5
-3 -12 14 18.2 2.6
3 -12 -14 10.2 2.6
-4 -12 -14 -0.5 1
4 -12 14 1.5 1.2
-4 12 14 0.5 1.9
4 -12 14 1.5 1.1
4 12 -14 2.5 0.9
4 12 -14 2.9 1.1
4 12 -14 2.7 1.1
-4 -12 -14 3.4 1.3
-4 12 14 3.1 1.6
-4 12 -14 3.4 1.3
4 12 14 1.1 1.4
4 -12 -14 3 1.4
4 12 14 2.6 1.4
-4 12 -14 -0.4 1.1
-5 12 14 -0.6 1.7
-5 -12 -14 0.9 1
5 -12 14 -0.9 1
5 12 -14 0.8 1
5 -12 14 2.7 1.3
-5 12 14 -0.5 1.6
-5 -12 -14 0 1
5 12 -14 1.5 0.9
-5 12 -14 1 1.1
5 -12 -14 2 1.4
-5 12 -14 0.5 1.3
5 -12 -14 1.4 1.3
5 12 14 2.3 1.6
5 12 14 3.2 1.5
0 -13 14 -0.6 0.9
0 -13 -14 0.3 1.2
0 13 14 0.7 1.3
0 13 14 -0.5 1.3
0 -13 14 -0.1 0.9
0 13 -14 -0.2 0.8
0 -13 -14 0.2 1
0 13 -14 -1.6 0.8
1 -13 14 0.8 1.1
-1 -13 -14 0.2 1
1 13 -14 0.2 0.7
-1 13 14 -0.5 1.4
1 13 -14 0.4 0.8
-1 -13 -14 0.7 1.2
1 -13 14 -0.5 0.9
1 13 -14 1.1 1
-1 13 14 0.1 1.3
1 13 14 -1.7 1.5
-1 13 -14 0.6 1.1
1 13 14 0.3 1.4
1 -13 -14 0.7 1.4
-1 -13 14 0.4 1
1 -13 -14 0.3 1.1
-1 13 -14 -0.1 0.8
-1 -13 14 0.7 0.9
-2 -13 -14 12.2 2.8
2 13 -14 20.2 2.9
2 13 -14 18.8 3.1
2 13 -14 13.6 2.8
2 13 -14 12.8 2.7
2 -13 14 17.3 3.1
-2 -13 -14 16.4 3
2 -13 14 14.1 2.9
-2 13 -14 15.4 2.9
-2 -13 14 18.1 2.9
-2 13 -14 16.3 3
2 13 14 12.8 3.3
2 13 14 12.9 3.1
-2 -13 14 14.4 2.8
3 13 -14 0.8 0.9
-3 13 14 2.3 1.6
3 13 -14 -1.2 0.7
-3 -13 -14 0.6 1.3
3 -13 14 1.4 1.1
3 -13 14 1.3 1.2
3 13 -14 1.5 1
-3 -13 -14 1.6 1
-3 13 14 3.3 1.5
-3 -13 14 0.8 1.3
-3 13 -14 2.3 1.2
3 13 14 0.7 1.5
3 -13 -14 -0.3 1.2
-3 -13 14 0.1 0.9
-3 -13 14 0.7 1
-3 13 -14 1 1.1
3 -13 -14 -1.2 1.1
3 13 14 -0.3 1.4
-3 -13 14 2.3 1.1
-4 13 14 12.1 3.4
4 -13 14 20.5 3.4
4 -13 14 13.6 3.1
-4 13 14 22.2 3.7
4 13 -14 19.9 3.1
4 13 -14 19.7 3.2
4 13 -14 15.2 2.8
-4 -13 -14 14.1 3.1
-4 -13 -14 21.7 3.2
-4 13 -14 13.7 3.1
4 -13 -14 15.1 3.2
4 -13 -14 10.7 3
-4 13 -14 18 3.2
4 13 14 26.8 3.6
4 13 14 16.8 3.3
0 14 -14 18.4 3.3
0 -14 14 16.9 3.3
0 -14 14 19.1 3.3
0 14 -14 16.8 3.2
1 14 -14 1.9 1
1 14 -14 1.2 1.1
1 -14 14 3 1.1
-1 -14 -14 1 1.2
-1 14 14 2 1.6
1 -14 14 1 1.2
1 14 14 -0.3 1.4
1 -14 -14 0.9 1.2
-1 -14 14 0.3 0.9
-1 -14 14 0 0.9
-1 14 -14 0.9 1
1 14 14 1.1 1.4
-1 14 -14 -0.5 1
1 -14 -14 0.7 1.2
2 14 -14 -0.2 0.9
-2 -14 -14 -1 0.9
-2 14 14 2.7 1.6
2 14 -14 -1.1 0.8
-2 -14 -14 0.4 1.1
-2 14 14 1.5 1.3
2 14 -14 1.1 1
2 -14 14 0.3 1.2
2 14 14 1.6 1.6
2 -14 -14 0.7 1.1
2 14 14 0.8 1.4
-2 -14 14 -0.2 0.9
2 -14 -14 1.1 1.2
-2 -14 14 2.1 1.1
-3 14 14 8 2.5
-3 -14 -14 8.7 1.9
3 -14 14 10.6 2.2
3 -14 14 11.5 2.3
3 14 -14 9 2
3 14 -14 11 1.9
-3 -14 -14 7.4 2.1
3 14 -14 9.4 1.8
-3 14 14 5.9 2.5
3 14 -14 8.3 1.9
3 -14 -14 8.9 2.2
3 14 14 5.4 2.2
-3 14 -14 8.5 2.1
3 14 14 7.5 2.2
3 -14 -14 8.6 2.1
4 14 -14 2.9 1
4 14 -14 3.2 1
4 -14 14 3.4 1.5
-4 -14 -14 2.3 1.3
4 14 -14 5.1 1.4
-4 -14 -14 2.4 1.2
4 14 -14 3.1 1.2
-4 14 14 2.2 1.6
4 -14 14 1 1.3
-4 14 14 0.3 1.9
-4 14 -14 2.3 1.4
4 14 14 1.6 1.5
4 -14 -14 2.4 1.4
-4 14 -14 4.9 1.4
0 15 14 0.6 1.4
0 -15 14 0.3 1.1
0 15 14 -0.5 1.4
0 15 -14 1.1 1.1
0 -15 -14 0.1 1.1
0 -15 -14 -0.6 1.1
0 15 -14 -0.9 1
0 -15 14 -0.5 1
-1 -15 -14 4.1 1.5
-1 -15 -14 6.8 1.7
-1 15 14 3.6 1.7
1 15 -14 5.7 1.5
1 15 -14 3 1.4
-1 15 14 5.1 2
-1 15 -14 5.4 1.6
1 -15 -14 6.3 1.8
1 15 14 4.7 1.9
1 -15 -14 4.7 1.7
-1 -15 14 5.7 1.5
-1 -15 14 3.1 1.4
2 -15 14 12.7 2.3
2 15 -14 13.4 2.1
-2 15 14 5.5 2.4
-2 15 14 9.1 2.4
2 15 -14 10.7 2.1
2 -15 14 9.1 2.3
2 15 -14 6.5 2
2 15 14 8.9 2.4
-2 15 -14 11.6 2.3
-2 -15 14 12.5 2.3
2 -15 -14 6.5 2.1
-2 15 -14 15.2 2.4
2 -15 -14 5.8 2.1
-2 -15 14 10 2.1
3 15 -14 1.8 1.1
3 15 -14 1.6 1
-3 15 14 2.1 1.6
3 -15 14 1.8 1.4
3 15 -14 2.3 1.1
3 -15 14 2.7 1.3
3 -15 -14 0.4 1.1
-3 15 -14 0.4 1.1
-3 15 -14 0 1.2
3 -15 -14 -0.1 1.2
3 15 14 1.9 1.5
0 -16 -14 4.1 1.6
0 16 14 6.7 2
0 16 -14 4.4 1.4
0 -16 -14 4.1 1.7
0 16 14 4.8 2.1
1 -16 14 0.6 1.2
-1 -16 -14 -0.3 1.1
1 -16 14 0.9 1.3
-1 16 14 1.2 1.5
-1 -16 -14 1.3 1.3
1 16 -14 1.8 1.1
1 16 14 2.1 1.6
-1 16 -14 2.1 1.2
-1 16 -14 1.6 1.2
-1 -16 14 3.8 1.2
-1 -16 14 3.1 1.3
1 -16 -14 0.5 1.3
1 -16 -14 4.6 1.7
0 0 15 -2.1 0.7
0 0 -15 -0.4 0.5
0 0 15 0.8 0.8
1 0 15 0.2 0.9
1 0 15 -0.1 0.7
-1 0 -15 0.1 0.8
-1 0 15 -1.7 0.6
1 0 -15 -0.8 0.5
1 0 15 -0.1 0.9
-1 0 -15 0.1 0.6
1 0 15 -0.1 0.7
-1 0 -15 -1 0.7
-1 0 15 0 0.8
-1 0 15 -1 0.7
-1 0 -15 -0.1 0.7
-1 0 15 0.5 0.8
1 0 -15 -0.2 0.5
1 0 -15 -0.7 0.8
1 0 -15 -0.3 0.7
-2 0 15 0 0.6
-2 0 -15 0 0.8
2 0 15 1.1 0.7
2 0 15 -0.3 0.7
2 0 -15 0.3 0.6
-2 0 -15 0.4 0.8
2 0 -15 0 0.6
2 0 15 -0.8 0.5
-2 0 -15 0.1 0.7
-2 0 15 0.3 0.8
2 0 15 -0.1 0.6
2 0 -15 -0.8 0.6
-2 0 15 -0.8 0.9
-2 0 15 0.4 0.8
2 0 -15 0.2 0.7
3 0 15 0.1 0.6
-3 0 15 0.7 0.8
-3 0 -15 1.5 0.9
-3 0 15 -1 0.8
3 0 -15 -0.3 0.6
-3 0 -15 1.1 1
3 0 15 -0.2 0.7
-3 0 15 0.3 0.7
3 0 -15 0.4 0.7
3 0 -15 -0.3 0.5
3 0 15 -0.5 0.6
3 0 -15 0.3 0.6
-3 0 -15 0.3 0.8
-3 0 -15 0.9 0.8
-3 0 15 0.5 0.7
4 0 -15 -0.2 0.7
-4 0 -15 -0.7 0.8
-4 0 15 -0.7 0.9
-4 0 15 0.7 0.8
-4 0 15 0.9 0.7
-4 0 15 -1.7 0.7
4 0 15 1 0.7
4 0 15 -0.2 0.5
-4 0 -15 1.6 1
4 0 -15 0.5 0.6
4 0 -15 -0.1 0.6
4 0 15 -0.2 0.8
4 0 15 0.3 0.8
-4 0 -15 -0.6 0.8
-4 0 -15 0.2 0.9
4 0 -15 0.5 0.7
5 0 -15 0 0.7
5 0 15 -1 0.5
5 0 15 -0.3 0.8
5 0 -15 0.4 0.8
-5 0 15 0.9 1.2
-5 0 15 0.6 0.9
-5 0 15 -0.2 0.8
-5 0 -15 -0.2 0.8
-5 0 15 0.1 0.6
5 0 -15 -0.1 0.6
5 0 -15 0.7 0.9
-6 0 -15 0.6 0.9
6 0 -15 0.3 0.7
-6 0 15 0.3 0.9
-6 0 15 0.2 1.1
-6 0 15 -0.7 0.9
-6 0 15 0 0.9
6 0 -15 -1.2 0.8
6 0 -15 0.3 0.7
6 0 15 0.9 0.9
6 0 -15 1 0.8
6 0 15 0.3 0.9
7 0 -15 0.4 0.8
7 0 -15 -1.7 0.9
7 0 -15 0 0.7
7 0 15 0.7 0.9
7 0 15 -0.1 0.9
-7 0 -15 -1.3 0.9
0 -1 15 -0.5 0.7
0 1 -15 -0.9 0.5
0 -1 -15 -0.4 0.5
0 -1 15 -0.3 0.7
0 1 15 -0.3 0.7
0 1 15 0.6 0.8
1 -1 15 5 1.2
-1 -1 -15 3.5 1.1
1 -1 15 2.7 1.1
1 1 -15 3.8 1.1
1 1 -15 4.2 1
1 1 -15 4.4 1.1
1 1 -15 3.8 1
1 -1 15 3.8 1.1
-1 -1 -15 2.1 1
-1 -1 -15 3.2 1.1
1 -1 15 3.7 1.1
-1 1 15 6.4 1.2
-1 1 15 4.6 1.2
-1 -1 -15 3 1.1
1 1 15 3.2 1
1 -1 -15 4.2 1.1
1 1 15 3.9 1.1
-1 -1 15 4.2 1
-1 -1 15 3.9 1.1
-1 1 -15 3.4 1.1
1 1 15 4.3 1.1
-1 1 -15 3.4 1.1
1 -1 -15 4 1
1 1 15 7.3 1.3
-1 1 -15 3.3 1.1
-1 -1 15 2.5 1
1 -1 -15 4.7 1
-2 1 15 7.8 1.6
-2 -1 -15 6.5 1.5
-2 1 15 9.8 1.6
2 1 -15 6.4 1.4
-2 1 15 6.6 1.5
2 -1 15 5.3 1.4
2 1 -15 5.8 1.4
-2 -1 -15 11.5 1.8
-2 -1 -15 4.6 1.4
2 -1 15 8.3 1.6
-2 -1 -15 6 1.5
2 -1 15 6.8 1.5
-2 1 15 3.6 1.5
2 1 -15 8.8 1.4
2 -1 15 6 1.5
2 1 -15 6.7 1.5
-2 1 -15 8.4 1.6
2 -1 -15 8.4 1.4
2 -1 -15 7.8 1.5
2 -1 -15 11.1 1.7
-2 1 -15 7.3 1.6
2 1 15 6 1.5
2 1 15 5.7 1.4
-2 -1 15 7.8 1.5
2 -1 -15 5.5 1.4
-2 -1 15 8.9 1.5
2 1 15 6.7 1.5
-2 1 -15 5.5 1.5
-2 1 -15 9.5 1.6
-2 -1 15 7.5 1.5
2 1 15 7.2 1.4
-2 -1 15 10 1.5
3 -1 15 1.8 1
3 1 -15 3.3 0.9
-3 -1 -15 1.7 1.1
-3 1 15 2.8 0.9
-3 1 15 3.1 1.2
3 -1 15 2.3 1
3 1 -15 2.7 0.8
-3 -1 -15 3 1
-3 1 15 4.1 1.1
-3 1 15 2.4 0.9
3 1 -15 1.1 0.9
3 1 -15 3.7 0.8
-3 -1 -15 2.5 1.1
-3 -1 -15 1.8 1
3 -1 15 3.9 1.1
-3 1 -15 2.5 1
3 -1 -15 3.1 1
-3 -1 15 3.3 1
3 -1 -15 1.3 0.8
3 1 15 2.2 0.8
-3 -1 15 1.6 1
3 -1 -15 2.4 0.8
-3 -1 15 3.5 0.9
3 1 15 1.5 0.9
-3 1 -15 1.4 1
-3 1 -15 3.4 1
3 -1 -15 1.4 0.7
3 1 15 4 1
-3 -1 15 1.7 0.8
4 1 -15 4.2 1.1
4 -1 15 6 1.3
-4 -1 -15 3 1.1
4 -1 15 5.2 1.3
-4 1 15 4.6 1.2
-4 1 15 4.8 1.2
4 1 -15 5.6 1.1
4 1 -15 4.5 1.2
4 -1 15 4.5 1.2
-4 -1 -15 4.1 1.2
-4 1 15 5.1 1.2
4 -1 15 4.9 1.3
-4 -1 -15 3.8 1.3
4 1 -15 3.5 1
-4 -1 -15 7.1 1.4
-4 1 15 5.4 1.4
-4 -1 15 4.9 1.2
4 -1 -15 4.2 1.1
-4 -1 15 3.5 1.2
4 1 15 5.4 1.3
-4 1 -15 3.5 1.2
4 -1 -15 4.3 1
-4 1 -15 5 1.2
-4 1 -15 2.5 1.2
4 -1 -15 2.9 1.1
4 -1 -15 6 1.2
4 1 15 4.7 1.1
-4 -1 15 4.1 1.2
4 1 15 5.1 1.2
4 1 15 4.7 1.2
-4 -1 15 3.7 1.1
5 -1 15 -0.7 0.8
5 1 -15 1.4 0.8
-5 1 15 1.1 0.8
-5 -1 -15 2 1
-5 1 15 0.7 1.1
5 1 -15 0.9 0.6
5 1 -15 2.1 0.9
-5 -1 -15 1.7 1
5 1 -15 1.2 1.2
-5 1 15 1.4 1
5 -1 15 1.6 1
-5 -1 15 1.4 0.8
5 -1 -15 0.8 0.7
5 1 15 0.1 0.7
-5 -1 15 -0.4 0.8
5 -1 -15 0.3 0.7
5 1 15 1 0.9
-5 1 -15 1.6 0.9
5 -1 -15 2.5 0.9
-5 1 -15 0.8 0.9
-5 -1 15 0.6 1.1
5 -1 -15 1.9 1
-5 -1 15 0 0.7
5 1 15 1.3 0.9
6 -1 15 -0.8 0.8
6 1 -15 0.1 0.9
-6 -1 -15 1.4 0.9
6 1 -15 0 0.7
6 -1 15 0.7 0.9
-6 1 15 1.4 0.9
-6 1 15 0.4 0.8
-6 -1 -15 0 1
6 1 -15 1.5 0.7
6 1 -15 0.1 0.7
-6 -1 15 -0.6 0.8
6 -1 -15 2.4 1
6 1 15 1.6 0.9
6 -1 -15 -0.7 0.8
-6 1 -15 0.6 1
-6 -1 15 1.3 1.2
6 1 15 0.4 0.9
-6 -1 15 -0.1 0.9
-6 1 -15 -0.6 0.9
6 -1 -15 -0.1 0.6
-6 -1 15 -0.2 0.7
7 -1 15 4.3 1.4
7 1 -15 6.2 1.3
7 -1 15 10 1.8
7 1 -15 6.3 1.5
-7 -1 -15 6.9 1.7
-7 -1 -15 6 1.6
7 -1 -15 4.4 1.4
7 -1 -15 4.8 1.3
7 1 15 8.5 1.6
7 -1 -15 5 1.2
-7 1 -15 5 1.5
-7 1 -15 5.4 1.5
0 2 15 19 3.8
0 2 15 25.7 3.9
0 -2 15 19.7 3.8
0 -2 -15 20 3.8
0 -2 15 30.7 4
0 2 -15 26.2 3.8
1 2 -15 93.19 15.5
1 -2 15 86.09 15.5
1 -2 15 104.89 15.5
-1 2 15 92.79 15.6
-1 2 15 99.19 15.6
1 2 -15 102.79 15.5
-1 -2 -15 105.59 15.6
1 2 -15 109.09 15.6
1 -2 15 115.49 15.6
-1 -2 -15 113.99 15.6
1 2 -15 107.39 15.5
1 -2 15 99.89 15.5
-1 -2 -15 99.79 15.5
-1 -2 -15 102.69 15.5
1 -2 -15 92.29 15.5
1 2 15 92.39 15.5
-1 -2 15 105.29 15.5
-1 2 -15 97.89 15.6
1 2 15 91.79 15.5
-1 2 -15 93.69 15.5
-1 -2 15 122.69 15.6
1 2 15 102.39 15.6
-1 -2 15 99.99 15.5
-1 -2 15 99.79 15.5
-1 2 -15 111.19 15.5
-1 2 -15 92.69 15.5
2 2 -15 106.79 17.5
-2 -2 -15 111.49 17.6
2 2 -15 130.39 17.5
-2 2 15 112.19 17.6
-2 -2 -15 104.49 17.5
2 -2 15 96.29 17.5
2 -2 15 105.59 17.5
2 2 -15 108.49 17.5
2 2 -15 127.59 17.5
2 -2 15 133.89 17.6
-2 2 15 108.19 17.5
-2 -2 -15 112.69 17.5
-2 -2 -15 111.99 17.5
2 -2 15 88.09 17.5
-2 -2 15 126.79 17.5
2 2 15 101.19 17.5
-2 2 -15 127.89 17.6
2 2 15 119.49 17.6
-2 -2 15 119.59 17.5
2 -2 -15 130.49 17.5
2 -2 -15 103.79 17.5
-2 -2 15 120.39 17.5
2 2 15 128.09 17.6
-2 2 -15 124.59 17.6
-2 2 -15 107.59 17.5
2 2 15 111.99 17.5
-3 2 15 9 1.6
3 2 -15 6.7 1.4
-3 -2 -15 8.9 1.7
3 -2 15 4.9 1.4
3 -2 15 8.1 1.6
3 -2 15 5.5 1.4
3 2 -15 6.7 1.3
3 2 -15 6.6 1.3
-3 2 15 8.8 1.5
-3 -2 -15 5.1 1.5
-3 -2 -15 7.9 1.6
3 2 -15 5.8 1.4
3 -2 15 7.1 1.5
-3 -2 -15 8 1.6
-3 2 -15 7.3 1.6
-3 -2 15 6.7 1.5
3 2 15 5.5 1.4
3 2 15 6.2 1.5
3 -2 -15 5.5 1.4
-3 2 -15 5.3 1.5
3 -2 -15 6.8 1.4
3 -2 -15 6.7 2
-3 -2 15 8.7 1.5
3 2 15 6.9 1.4
3 2 15 4.1 1.4
-3 2 -15 6.7 1.5
-3 -2 15 7.9 1.4
-3 -2 15 6.6 1.4
4 -2 15 16.6 2.9
4 2 -15 13.1 2.6
4 -2 15 13.7 2.8
4 2 -15 16.5 2.7
4 -2 15 12 2.7
-4 2 15 15.3 2.8
-4 -2 -15 18 2.9
4 2 -15 18.1 2.7
-4 -2 -15 13.9 2.9
4 2 -15 17.3 2.7
-4 2 15 15.2 2.7
-4 -2 -15 15.4 2.8
-4 -2 -15 15.7 2.9
4 -2 -15 17.4 2.7
-4 -2 15 17.2 2.8
4 2 15 13.7 2.7
-4 -2 15 13.6 2.7
-4 2 -15 19.2 2.9
4 -2 -15 21 2.9
4 -2 -15 14.4 2.8
-4 -2 15 15.8 2.7
4 2 15 16.7 2.8
4 2 15 13.2 2.8
-4 -2 15 14.5 2.7
-4 2 -15 20.6 3
4 2 15 15.3 2.8
5 2 -15 26.7 4.2
-5 2 15 22.9 4.3
5 2 -15 28.9 4.3
-5 2 15 28.9 4.3
-5 -2 -15 25.9 4.4
5 -2 15 17.5 4.2
-5 2 15 34.6 4.5
5 -2 15 14.6 4.2
5 2 -15 24.5 4.2
-5 -2 -15 22.9 4.3
5 -2 -15 22.7 4.3
5 2 15 32.1 4.4
-5 -2 15 26.9 4.3
-5 -2 15 25 4.2
-5 2 -15 23.5 4.3
5 -2 -15 27.7 4.5
5 2 15 36.1 4.4
5 -2 -15 27.5 4.2
-5 -2 15 30 4.3
-5 2 -15 28.1 4.4
5 2 15 31.5 4.4
5 -2 -15 28.7 4.4
-5 -2 15 22.6 4.3
6 2 -15 5.2 1.2
-6 -2 -15 6.9 1.6
-6 2 15 4.1 1.6
-6 2 15 4.8 1.5
-6 -2 -15 5.1 1.5
-6 2 15 4.4 1.5
6 2 -15 5.5 1.3
6 2 -15 5.3 1.4
6 2 -15 4.2 1.2
6 -2 15 5.2 1.5
6 -2 15 6.1 1.6
-6 2 -15 8 1.6
6 -2 -15 6.2 1.5
6 2 15 9.3 1.5
6 -2 -15 5.2 1.5
6 2 15 9.1 1.7
6 -2 -15 7.7 1.6
6 -2 -15 9.5 1.4
-6 -2 15 5.7 1.4
-6 2 -15 5.4 1.6
-6 -2 15 6.8 1.4
6 2 15 6.2 1.5
-7 2 15 -0.9 0.9
7 -2 15 -0.3 0.9
-7 -2 -15 1.8 1
7 2 -15 -0.9 0.7
7 2 -15 -0.7 0.8
7 -2 15 0.1 1
-7 -2 -15 -0.3 1
-7 2 -15 2.2 1.1
7 2 15 -0.6 0.9
7 -2 -15 0 0.9
-7 2 -15 0.5 1
7 -2 -15 -0.2 0.7
7 2 15 0.9 1
7 -2 -15 0 1
7 -2 -15 -1 0.7
0 -3 -15 -0.3 0.7
0 -3 15 -0.1 0.7
0 -3 -15 -0.2 0.6
0 3 15 -0.5 0.9
0 -3 -15 -0.9 0.7
0 -3 15 0.5 0.7
0 3 -15 0.3 0.6
0 3 15 1.1 0.8
0 3 15 -0.2 0.8
0 3 15 -0.6 0.7
0 -3 -15 -0.5 0.8
0 3 -15 0 0.7
-1 3 15 11.4 2.5
1 -3 15 20 2.6
1 -3 15 16.6 2.6
1 3 -15 13.3 2.4
1 -3 15 9.3 2.3
-1 -3 -15 10.8 2.4
-1 -3 -15 13.2 2.5
1 3 -15 12 2.3
-1 -3 -15 15.1 2.5
-1 3 15 11.2 2.5
-1 -3 -15 14.1 2.5
-1 3 15 14 2.4
1 -3 15 14 2.5
-1 3 15 11.4 2.4
1 3 -15 12.6 2.4
1 3 -15 14.1 2.4
1 3 15 11.8 2.4
1 3 15 14.7 2.5
1 -3 -15 9.5 2.3
1 -3 -15 17.5 2.5
-1 3 -15 12.8 2.4
1 -3 -15 11.7 2.3
-1 3 -15 12.1 2.4
-1 3 -15 15.9 2.5
-1 -3 15 12 2.3
-1 -3 15 14.2 2.4
-1 -3 15 19.1 2.5
1 -3 -15 15.6 2.5
1 3 15 13.4 2.4
1 3 15 19.4 2.6
-1 -3 15 15.7 2.4
-1 3 -15 11.7 2.4
-2 -3 -15 222.58 33
-2 -3 -15 225.18 33
2 -3 15 227.48 33
2 3 -15 210.08 32.9
-2 3 15 192.28 32.9
-2 3 15 214.38 33
-2 3 15 243.68 33
-2 -3 -15 214.38 33
2 -3 15 238.68 33
2 3 -15 246.48 33
-2 3 15 191.48 33
2 -3 15 208.58 33
2 3 -15 204.98 32.9
2 -3 15 227.08 33
2 3 -15 232.48 32.9
-2 -3 -15 218.58 33
2 3 15 217.98 33
-2 3 -15 184.68 32.9
2 3 15 216.18 33
2 3 15 224.68 33
-2 3 -15 204.78 33
2 -3 -15 195.98 32.9
-2 -3 15 216.38 32.9
-2 -3 15 207.38 32.9
-2 -3 15 233.28 32.9
2 -3 -15 216.88 32.9
-2 -3 15 196.68 32.9
-2 3 -15 218.18 33
-2 3 -15 211.98 33
-3 3 15 34.3 4.6
3 -3 15 31 4.6
-3 3 15 26.7 4.5
3 3 -15 27.4 4.5
3 -3 15 19.2 4.4
-3 -3 -15 26.6 4.5
3 3 -15 31 4.4
3 -3 15 26.5 4.5
3 -3 15 22.9 4.6
-3 3 15 32.4 4.6
-3 -3 -15 25.8 4.5
-3 -3 -15 24.4 4.5
3 3 -15 27.3 4.4
-3 3 15 22.3 4.5
-3 -3 -15 24.4 4.5
-3 3 -15 29.4 4.6
3 -3 -15 22.5 4.4
-3 3 -15 32.1 4.7
-3 -3 15 33.3 4.5
3 3 15 22.9 4.4
-3 -3 15 32.7 4.5
3 -3 -15 27.6 4.5
-3 3 -15 29.5 4.6
3 3 15 28.6 4.5
3 3 15 30.5 4.6
-3 3 -15 24.1 4.5
-3 -3 15 25.8 4.4
3 -3 -15 25.5 4.4
-3 -3 15 28.6 4.4
-4 3 15 47.7 7.9
4 3 -15 47.6 7.8
-4 3 15 46.4 7.9
-4 3 15 54.09 8
-4 -3 -15 50.29 7.9
4 3 -15 48.8 7.8
-4 3 15 57.09 8.2
4 -3 15 49.4 7.9
4 3 -15 55.89 7.8
-4 -3 -15 39 7.9
-4 -3 -15 53.39 7.9
-4 -3 -15 47.6 7.9
-4 3 -15 52.29 7.9
4 3 15 46.1 7.8
-4 -3 15 44.1 7.8
-4 3 -15 55.89 8
4 3 15 65.99 8
-4 -3 15 52.99 7.8
-4 -3 15 50.39 7.8
4 -3 -15 52.89 7.9
4 -3 -15 67.09 7.9
4 3 15 45.9 7.9
4 3 15 46.4 7.9
4 -3 -15 36.7 7.9
-5 3 15 1.3 1
5 3 -15 0.9 0.6
5 3 -15 -0.6 0.6
5 -3 15 1.2 0.9
-5 3 15 0 0.9
5 3 -15 0.1 0.7
-5 -3 -15 2.1 1.1
5 -3 15 1.2 1
5 3 -15 -0.8 0.6
-5 3 15 -0.1 1
-5 -3 15 0.1 0.8
5 -3 -15 0.5 0.8
5 3 15 1.5 0.9
-5 -3 15 -0.7 0.9
5 -3 -15 0.2 0.9
5 3 15 -1 0.8
-5 3 -15 1.4 0.9
5 3 15 1 0.6
-5 3 -15 1.4 0.9
5 -3 -15 -0.5 0.7
-5 -3 15 1.1 0.9
-5 -3 15 -0.4 0.7
-6 3 15 8.9 1.9
6 3 -15 10 1.8
-6 -3 -15 13.8 2.2
6 3 -15 8.1 1.7
-6 3 15 9 1.9
-6 -3 -15 9.8 1.9
6 -3 15 9.9 2
-6 3 15 9.3 2.3
-6 3 15 7.2 2
6 -3 15 8.3 1.9
6 -3 -15 6.8 1.7
-6 3 -15 7 1.8
6 -3 -15 6.8 1.8
6 3 15 12 2.1
-6 3 -15 7.7 1.9
6 3 15 11.2 2
6 3 15 11.1 1.8
-7 3 15 1.1 1
7 -3 15 0 1
7 3 -15 -1.1 0.8
-7 3 15 -0.4 1.2
-7 -3 -15 0.1 0.9
7 3 -15 1 0.8
-7 3 15 0.1 1.5
7 -3 15 -0.9 1
7 3 15 0.5 0.7
7 3 15 -0.8 1
7 -3 -15 0.5 1
-7 3 -15 -0.7 0.8
7 -3 -15 -0.5 1.1
-7 3 -15 1.7 1
7 -3 -15 0 0.8
0 4 15 2.4 1.1
0 4 15 2.9 1.1
0 -4 -15 1.6 0.9
0 4 -15 2.1 0.8
0 -4 -15 1.4 0.9
0 4 15 2.6 0.9
0 -4 15 1.8 0.9
0 -4 15 2.7 0.9
0 4 15 2.1 1
0 4 -15 1.4 0.7
0 -4 -15 1.5 0.8
0 -4 -15 1.4 0.9
-1 -4 -15 18.4 2.8
-1 -4 -15 19.7 2.8
1 -4 15 16.1 2.7
1 4 -15 15.8 2.7
-1 4 15 18.9 2.9
-1 -4 -15 17.9 2.8
-1 -4 -15 18.9 2.8
1 4 -15 12.9 2.7
1 4 -15 17.9 2.7
1 4 -15 14.3 2.6
1 -4 15 12.2 2.7
1 -4 15 16.8 2.7
-1 4 15 11.4 2.7
1 -4 15 9 2.6
-1 4 15 22.2 3
-1 4 15 18 2.9
-1 -4 15 12.3 2.6
-1 4 -15 20.2 2.9
-1 4 -15 16.6 2.8
-1 -4 15 15.7 2.7
-1 -4 15 17.2 2.7
1 -4 -15 17.5 2.8
1 -4 -15 25.7 2.9
-1 4 -15 10.8 2.6
1 -4 -15 13.4 2.7
1 4 15 15.1 2.8
1 4 15 17 2.7
1 4 15 16.3 2.7
1 4 15 12.6 2.7
-1 4 -15 14.5 2.8
1 -4 -15 13.4 2.7
-1 -4 15 12.8 2.7
2 -4 15 2.3 0.9
2 4 -15 1.9 0.9
-2 4 15 1.6 1
2 4 -15 1.9 0.8
-2 -4 -15 2.5 1
-2 -4 -15 2.4 1
2 4 -15 3.1 0.9
-2 4 15 2.4 1
2 -4 15 3.1 1
-2 -4 -15 2.6 1.1
2 -4 15 2.3 1
2 -4 15 2.4 0.9
-2 4 15 2.7 1
-2 4 15 2.9 1.2
2 4 -15 1.7 0.8
-2 -4 -15 2.3 1
2 4 15 3.3 1
2 -4 -15 5.3 1.2
-2 -4 15 1.7 0.8
2 4 15 2.1 0.9
-2 4 -15 1.5 0.9
-2 -4 15 1.4 0.9
2 -4 -15 2 0.8
-2 -4 15 2.1 0.9
2 -4 -15 2.8 1
-2 4 -15 2.7 1
-2 4 -15 1.8 1
-2 4 -15 1.9 0.9
2 -4 -15 2.2 0.9
-2 -4 15 3 0.9
-3 4 15 92.29 14.2
3 4 -15 98.19 14.1
3 -4 15 96.39 14.2
3 -4 15 87.69 14.2
-3 4 15 96.79 14.2
3 -4 15 84.29 14.2
3 4 -15 103.49 14.1
3 4 -15 88.79 14.1
-3 -4 -15 106.79 14.3
3 4 -15 78.39 14.1
-3 4 15 80.59 14.2
-3 4 15 98.39 14.2
-3 -4 -15 106.59 14.2
-3 -4 -15 84.99 14.2
-3 -4 -15 93.09 14.2
-3 -4 15 114.49 14.2
3 -4 -15 102.29 14.2
3 -4 -15 94.39 14.2
3 4 15 70.59 14.1
-3 -4 15 111.49 14.1
-3 4 -15 89.99 14.2
-3 -4 15 96.09 14.1
3 4 15 83.89 14.2
-3 4 -15 76.99 14.2
3 4 15 79.19 14.1
3 -4 -15 87.29 14.2
3 -4 -15 81.69 14.2
-3 -4 15 98.19 14.1
3 4 15 83.29 14.2
-4 -4 -15 2.2 1
-4 -4 -15 2.6 1
4 -4 15 4.7 1.3
-4 4 15 2.7 1.4
-4 4 15 3.1 1.1
-4 4 15 1.6 1.1
4 4 -15 4.6 1.1
-4 -4 -15 2.2 1.1
-4 -4 -15 4.3 1.2
4 4 -15 3.7 0.9
4 4 -15 2.6 0.9
4 -4 -15 3.3 1.1
-4 -4 15 2.9 1
4 4 15 2.7 1
-4 -4 15 3.1 1
-4 -4 15 2.2 0.9
-4 4 -15 1.8 1
4 4 15 3.1 0.9
4 -4 -15 3 0.9
4 -4 -15 1.6 1
-4 4 -15 4.4 1.2
4 4 15 3.8 1.2
4 -4 -15 2.9 1.1
-4 -4 15 3.8 0.9
5 4 -15 0.4 0.6
5 4 -15 2.6 0.8
-5 4 15 0.3 1
5 4 -15 2.1 0.7
-5 -4 -15 1.1 0.9
-5 -4 -15 2.6 1.1
5 -4 15 1.9 1
5 -4 15 3.3 1.2
-5 4 15 2.7 1.1
-5 4 15 1.8 1.3
5 4 -15 1.5 0.7
-5 -4 15 1.9 1
5 -4 -15 1.2 0.9
5 4 15 3.2 0.9
-5 -4 15 2.7 0.9
-5 -4 15 1 0.8
5 -4 -15 1.3 0.8
-5 4 -15 1.6 1
5 -4 -15 2 1
-5 4 -15 1.1 1
-5 -4 15 1.7 0.8
5 4 15 -0.3 1
5 -4 -15 3.2 1.1
5 4 15 0.3 0.9
6 -4 15 10.1 2.3
-6 4 15 12 2.6
6 4 -15 13.5 2.2
-6 4 15 16.9 2.7
-6 -4 -15 13.1 2.4
-6 4 15 11.5 2.3
6 -4 15 11.9 2.5
6 4 -15 15.6 2.2
6 -4 -15 9.8 2.3
6 4 15 10.9 2.3
-6 4 -15 8.6 2.3
6 -4 -15 9.8 2.3
6 -4 -15 11.6 2.3
6 4 15 13.4 2.3
6 4 15 11.9 2.3
6 -4 -15 10.9 2.2
-6 4 -15 13.7 2.4
-7 4 15 12.9 2.6
-7 -4 -15 10.4 2.3
7 -4 15 12.9 2.5
-7 4 15 10.2 2.6
7 4 -15 13.4 2.1
7 -4 15 13 2.4
7 -4 -15 9 2.1
7 4 15 13.8 2.4
7 -4 -15 13.9 2.5
-7 4 -15 11.1 2.3
7 4 15 9.5 2.2
-7 4 -15 10.8 2.3
7 4 15 11.6 2.3
7 -4 -15 10 2.2
0 5 -15 -0.2 0.5
0 -5 15 -1.5 0.6
0 -5 15 0.6 0.7
0 -5 -15 1.5 0.8
0 5 15 2.2 1.1
0 -5 -15 -0.8 0.8
0 -5 15 0.4 0.8
0 5 15 0.4 1
0 5 15 -0.5 0.8
0 -5 -15 -0.4 0.7
0 -5 15 0 0.7
0 5 -15 -0.3 0.6
0 5 -15 0.1 0.7
0 -5 -15 -0.2 0.6
0 5 15 0.5 0.7
1 -5 15 21.5 4.3
-1 5 15 29.1 4.5
1 -5 15 26.6 4.4
1 -5 15 25 4.4
1 -5 15 23.2 4.3
-1 5 15 36.4 4.8
-1 5 15 28.8 4.5
-1 -5 -15 22.8 4.3
1 5 -15 35.1 4.5
-1 -5 -15 26.6 4.3
-1 -5 -15 32 4.5
-1 5 15 30.6 4.5
-1 -5 -15 33.7 4.5
1 -5 -15 28 4.4
1 5 15 30.7 4.4
-1 5 -15 26.1 4.4
1 5 15 27.9 4.5
-1 5 -15 26.3 4.4
-1 -5 15 19.5 4.2
1 -5 -15 25.6 4.5
1 -5 -15 20.7 4.3
-1 -5 15 34.1 4.4
1 -5 -15 26.7 4.4
1 5 15 23 4.4
-1 -5 15 25.4 4.4
1 5 15 22.5 4.4
-1 5 -15 26.4 4.4
-2 -5 -15 39.6 5.4
2 5 -15 29.4 5.1
-2 5 15 32.4 5.4
-2 5 15 26.9 5.2
-2 -5 -15 35.6 5.3
2 -5 15 39.4 5.4
2 -5 15 38.5 5.4
-2 5 15 28.5 5.2
-2 -5 -15 28.3 5.2
2 -5 15 21.8 5.2
-2 -5 -15 40.2 5.3
2 5 -15 37.1 5.1
-2 5 15 27.3 5.2
2 5 -15 27.3 5.1
2 -5 15 35.4 5.3
2 -5 -15 37.2 5.3
2 5 15 26.5 5.2
-2 5 -15 28 5.2
2 -5 -15 28.2 5.3
-2 5 -15 34.2 5.3
-2 5 -15 38.8 5.4
2 5 15 43.9 5.4
2 5 15 29 5.2
-2 -5 15 34.7 5.1
-2 -5 15 37.5 5.1
-2 5 -15 26.9 5.2
2 -5 -15 30.7 5.2
2 -5 -15 26.2 5.2
-2 -5 15 28.4 5.1
-2 -5 15 37.1 5.1
3 5 -15 35.2 5.3
3 -5 15 30.6 5.5
-3 5 15 30 5.5
3 -5 15 22.2 5.4
3 5 -15 35.7 5.3
-3 -5 -15 30.7 5.4
3 5 -15 34 5.3
3 5 -15 38.4 5.5
-3 5 15 34.4 5.6
-3 -5 -15 35.2 5.6
-3 5 15 44.2 5.8
-3 -5 -15 41.1 5.6
-3 5 15 41.1 5.6
-3 -5 -15 36.4 5.6
-3 5 -15 49.5 5.8
-3 5 -15 29.3 5.4
3 -5 -15 29.9 5.5
-3 -5 15 36.8 5.3
3 -5 -15 22.1 5.4
3 -5 -15 42.3 5.4
3 5 15 30.6 5.4
-3 -5 15 32.2 5.3
3 -5 -15 31.8 5.5
3 5 15 21.6 5.4
-3 -5 15 38.8 5.3
3 5 15 38.7 5.6
-3 -5 15 36 5.3
3 5 15 28.8 5.4
-4 5 15 14.7 3.1
-4 -5 -15 14.5 3
-4 5 15 17.5 3.3
-4 -5 -15 14.3 2.9
-4 5 15 17.2 3.1
4 5 -15 15.2 2.9
-4 -5 -15 20.9 3.1
4 5 -15 20.6 2.8
4 -5 15 13 2.9
4 5 -15 20.8 3
-4 5 15 21.2 3.1
4 -5 15 18.9 3.2
4 -5 -15 21.5 3.1
-4 -5 15 17.8 2.9
-4 5 -15 16.2 3
-4 -5 15 14.1 2.8
4 -5 -15 10.6 2.9
-4 5 -15 27.4 3.4
4 5 15 15.5 2.9
4 5 15 17.2 3
4 -5 -15 12 2.9
4 -5 -15 12.4 2.9
-4 -5 15 22.2 2.9
-4 -5 15 20.9 2.9
4 5 15 15.4 3
5 -5 15 5.2 1.5
-5 5 15 4.2 1.5
5 5 -15 5.5 1.2
-5 5 15 5 1.5
-5 -5 -15 6.9 1.6
-5 -5 -15 3.8 1.3
5 5 -15 4.9 1.2
5 -5 15 5.1 1.4
5 -5 -15 3 1.3
5 5 15 4.4 1.2
5 -5 -15 6.2 1.4
-5 -5 15 4.5 1.2
5 -5 -15 5.4 1.4
-5 5 -15 5.1 1.4
5 5 15 6.9 1.4
5 -5 -15 4 1.2
-5 -5 15 4.9 1.3
5 5 15 3 1.3
-5 5 -15 5.3 1.4
-5 -5 15 4.1 1.1
-5 -5 15 4.2 1.1
6 -5 15 -1.4 1
-6 -5 -15 -1.1 0.9
-6 5 15 2 1.3
-6 -5 -15 1 0.9
6 5 -15 0.5 0.8
6 -5 15 2.6 1
-6 5 15 2.8 1.5
-6 5 -15 0.3 1.1
6 5 15 -0.8 0.9
6 5 15 1.1 0.7
-6 5 -15 0.1 0.9
6 -5 -15 0.7 0.8
6 -5 -15 -0.1 1
6 -5 -15 -1.5 0.8
6 5 15 0.8 1
-7 5 15 41.4 6.7
7 5 -15 41.3 6.2
7 5 -15 42.5 6.2
7 -5 15 49.4 6.7
-7 5 15 34.6 6.6
-7 -5 -15 37.6 6.5
7 -5 -15 30.7 6.3
7 5 15 48.8 6.6
7 5 15 36.6 6.4
7 -5 -15 31.3 6.4
7 -5 -15 38.3 6.4
7 5 15 43.8 6.5
0 -6 15 5.6 1.3
0 6 15 2.9 1.1
0 -6 -15 6.3 1.3
0 -6 15 6.5 1.3
0 -6 -15 4 1.3
0 -6 -15 4 1.3
0 6 15 3.3 1.2
0 6 15 4.3 1.3
0 6 -15 4.3 1.1
0 6 -15 3.5 1.1
0 6 15 3.8 1.3
0 -6 15 5.3 1.2
0 -6 15 5.4 1.2
0 6 -15 3.5 1.1
0 -6 -15 4.4 1.5
0 6 -15 2.9 1
1 -6 15 56.89 8.6
-1 -6 -15 60.49 8.6
-1 -6 -15 56.89 8.6
1 -6 15 57.59 8.6
-1 6 15 55.59 8.7
-1 6 15 57.69 8.6
1 -6 15 54.49 8.6
1 6 -15 59.49 8.6
-1 6 15 48.6 8.8
1 -6 15 51.99 8.6
-1 -6 -15 58.19 8.6
1 6 15 57.29 8.7
1 -6 -15 60.69 8.6
1 -6 -15 54.49 8.7
1 -6 -15 43.5 8.7
1 6 15 59.79 8.7
-1 -6 15 54.09 8.6
-1 6 -15 53.59 8.7
1 6 15 51.39 8.6
-1 6 -15 54.29 8.6
1 6 15 50.39 8.6
-1 6 -15 50.99 8.6
-1 -6 15 61.39 8.6
1 -6 -15 45.8 8.6
-2 -6 -15 4.2 1.2
-2 6 15 3.7 1.2
-2 -6 -15 3.3 1.1
-2 -6 -15 3.8 1.2
2 6 -15 4.3 0.9
2 -6 15 3.2 1.2
2 6 -15 3 1
2 6 -15 3.6 0.9
2 -6 15 2.3 1
-2 6 15 2.5 1.5
-2 -6 -15 0.5 1.1
-2 6 15 5.5 1.3
-2 6 15 2 1
2 -6 -15 3.5 1.1
-2 -6 15 1.7 0.8
2 6 15 3.6 1.1
-2 6 -15 4 1.2
2 -6 -15 1.4 1
2 6 15 3.4 1.3
2 6 15 3.5 1.1
-2 -6 15 4.1 1
-2 -6 15 2.5 1
2 6 15 3.8 1.3
-2 -6 15 1.8 0.9
-2 6 -15 4.8 1.2
-2 6 -15 4.7 1.2
3 6 -15 0.7 0.7
-3 -6 -15 1.1 1.1
3 -6 15 1.1 0.9
3 -6 15 1.5 0.9
-3 6 15 1.9 1.1
-3 -6 -15 0.3 0.9
-3 6 15 1.2 1.4
3 6 -15 0.9 0.7
3 6 -15 1.3 0.8
3 6 -15 1.7 0.7
-3 -6 15 1.8 0.8
-3 -6 15 1.9 0.7
-3 -6 15 0.5 0.7
-3 -6 15 0.8 0.8
-3 6 -15 1 0.9
3 -6 -15 1.6 1.1
3 6 15 1.6 0.8
3 -6 -15 -0.2 1
3 -6 -15 0.7 0.8
3 -6 -15 -0.4 0.9
-3 6 -15 1.2 0.9
3 6 15 1.8 0.9
3 6 15 2.5 1.1
3 6 15 2.4 1
-4 -6 -15 16.1 3.1
4 6 -15 19.3 3
4 6 -15 16.9 2.8
4 6 -15 21.9 3
4 -6 15 21.6 3.3
-4 6 15 18.2 3.4
-4 6 15 17.4 3.2
-4 -6 -15 24.7 3.3
4 6 -15 12.9 2.8
4 -6 15 14.6 3
4 -6 -15 18.1 3.1
4 6 15 18.2 3.1
4 -6 -15 14 3
-4 -6 15 18.4 2.9
-4 6 -15 18.6 3.2
4 6 15 17.7 3.1
-4 -6 15 16.9 2.9
-4 -6 15 16 2.9
-4 6 -15 26.2 3.4
-4 -6 15 17.5 2.9
4 6 15 17.1 3.1
4 6 15 16.5 3.1
4 -6 -15 13.2 3.1
-5 -6 -15 16.4 3.3
5 6 -15 21.5 3.3
-5 -6 -15 20.2 3.5
-5 6 15 22.1 3.6
5 -6 15 18.1 3.5
5 -6 15 23.2 3.6
5 6 -15 24.5 3.3
-5 6 15 17.5 3.7
-5 -6 15 22.5 3.2
5 6 15 17.1 3.4
5 -6 -15 17 3.4
-5 6 -15 17.7 3.4
-5 6 -15 22.9 3.5
-5 -6 15 17.3 3.2
5 -6 -15 15.6 3.4
5 6 15 21.8 3.4
5 -6 -15 15.1 3.2
5 6 15 18.4 3.3
6 -6 15 2.6 1.2
-6 -6 -15 1.5 1.1
-6 6 15 1 1.5
-6 6 15 4.5 1.6
6 6 -15 3.4 1
-6 -6 -15 2.1 1.3
6 -6 15 2.8 1.3
6 -6 -15 2.6 1.2
-6 6 -15 5.2 1.5
6 6 15 2.8 1.2
6 6 15 1.8 1.2
6 6 15 3.9 0.9
-6 6 -15 3.7 1.3
6 -6 -15 3.6 1.3
-7 6 15 7.7 2.4
-7 6 15 8.7 2.1
-7 -6 -15 6.4 1.7
-7 -6 -15 9.1 2
7 6 15 5.5 1.8
-7 6 -15 8.2 1.9
7 6 15 9.7 1.9
7 -6 -15 6.3 1.9
-7 6 -15 7.8 2.3
7 6 15 9.2 1.7
7 -6 -15 11 2
0 7 15 1.2 1.1
0 -7 -15 0 1.2
0 7 15 -0.5 0.7
0 -7 -15 -0.4 1.2
0 -7 -15 0.1 0.8
0 7 15 -0.1 0.9
0 -7 -15 -0.5 0.8
0 -7 15 -0.6 0.7
0 -7 15 -0.6 0.7
0 7 15 -0.3 0.9
0 -7 15 -0.7 0.7
0 7 -15 0.2 0.6
0 7 -15 0.4 0.7
0 7 -15 0.9 0.7
0 7 -15 0.2 0.7
1 7 -15 -0.4 0.6
1 -7 15 -0.9 0.7
1 -7 15 0.6 0.8
1 7 -15 -0.4 0.6
-1 -7 -15 -0.4 0.7
-1 -7 -15 0.7 0.9
-1 7 15 1.3 1
1 7 -15 -0.3 0.6
1 -7 15 -1 0.8
1 -7 15 0.3 0.8
-1 -7 -15 0 1
-1 7 15 1.4 1.3
-1 7 -15 1.3 0.8
-1 -7 15 -0.2 0.7
1 7 15 0 1
-1 -7 15 0.3 0.8
-1 7 -15 1.2 0.8
1 7 15 0.2 0.9
1 -7 -15 -0.9 0.8
-1 -7 15 0.7 0.8
-1 -7 15 -0.2 0.9
1 7 15 -0.1 0.8
1 -7 -15 0.5 0.7
-1 7 -15 -0.5 0.7
-1 7 -15 0.2 0.8
-2 7 15 20.5 3.5
2 7 -15 23.5 3.3
-2 -7 -15 17.2 3.3
2 7 -15 17.6 3.2
2 -7 15 27.3 3.6
-2 -7 -15 22.4 3.4
-2 -7 -15 23.9 3.5
2 7 -15 26.8 3.3
-2 7 15 20.9 3.6
-2 -7 15 17.3 3.3
2 7 15 13.6 3.3
-2 -7 15 19.5 3.3
-2 7 -15 25.3 3.6
-2 -7 15 16.3 3.2
-2 7 -15 15.1 3.3
2 -7 -15 15.8 3.3
2 7 15 16 3.3
-2 -7 15 17.7 3.3
2 7 15 20.8 3.4
2 7 15 16.9 3.4
3 7 -15 35.5 5.9
3 -7 15 33.4 6.1
-3 7 15 34.9 6.2
-3 -7 -15 35.4 6.1
3 7 -15 42.2 5.9
-3 7 15 38 6.4
3 7 -15 43.1 6
3 -7 15 29.4 6
-3 -7 -15 35.9 6.1
-3 7 -15 36.4 6.1
-3 -7 15 36.5 5.9
-3 -7 15 37.1 5.9
-3 -7 15 47.5 6
3 -7 -15 29.9 6
3 7 15 41.2 6.1
3 7 15 40.5 6
3 7 15 39.9 6.2
3 -7 -15 35.9 6.1
-3 -7 15 36.9 6
-3 7 -15 32.6 6.1
4 -7 15 31.9 4.2
4 7 -15 18.8 3.7
4 7 -15 26.3 3.8
4 -7 15 21.7 4.1
4 7 -15 27.2 3.9
-4 -7 -15 21.3 3.9
4 7 -15 24.8 3.9
-4 7 15 26.6 4.3
-4 7 15 17.5 4.1
-4 -7 -15 23.1 4
4 7 15 29 4.1
4 -7 -15 24.2 4.1
-4 7 -15 20.3 4
4 7 15 16.4 3.9
4 7 15 22 3.9
4 -7 -15 21.5 4
-4 7 -15 16.9 3.9
-4 -7 15 25.1 3.8
-4 -7 15 28.3 3.9
-4 -7 15 26.4 3.9
-4 -7 15 24.2 3.8
-5 -7 -15 41.9 6.9
-5 -7 -15 43.4 6.9
5 7 -15 48.5 6.7
-5 7 15 36.9 7
5 -7 15 39.7 6.9
5 7 -15 44.7 6.6
-5 7 15 35.3 7
-5 7 -15 43.3 7
5 -7 -15 34.4 6.8
-5 7 -15 41.2 6.9
5 -7 -15 37.5 6.9
5 7 15 44.7 6.7
5 7 15 50.89 7
5 7 15 40.1 7
-6 7 15 1.4 1.6
-6 -7 -15 0.8 1
6 -7 15 -0.3 1
-6 -7 -15 2.4 1.2
-6 7 15 1.8 1.5
6 7 -15 0.5 0.7
6 -7 -15 2.6 1.2
6 7 15 2.4 1.1
6 -7 -15 0.1 1.1
-7 7 15 -0.4 1.7
7 -7 15 1.6 1.1
-7 7 15 -0.4 1.3
-7 -7 -15 -0.6 0.9
7 -7 15 0.8 1.1
-7 -7 -15 0.2 1.2
7 -7 -15 0.4 1.2
7 -7 -15 -1.1 1
-7 7 -15 0.3 1
7 7 15 0.9 1.3
7 7 15 0.7 0.8
-7 7 -15 -0.2 1.1
7 7 15 -1.1 1.1
0 -8 15 37.6 4.7
0 -8 15 28.3 4.6
0 8 -15 34 4.6
0 -8 15 27.6 4.7
0 8 -15 31.4 4.7
0 -8 -15 16 4.5
0 -8 -15 25.6 4.6
0 8 -15 28.7 4.6
0 -8 15 35.4 4.8
0 8 -15 28 4.6
0 8 15 29 4.8
0 8 15 21.9 4.6
1 8 -15 113.39 16.4
-1 8 15 103.39 16.5
-1 -8 -15 105.49 16.4
-1 8 15 84.19 16.5
1 -8 15 102.19 16.4
1 -8 15 120.09 16.5
1 8 -15 135.79 16.5
1 8 -15 108.89 16.4
-1 -8 -15 99.69 16.4
-1 8 -15 125.79 16.5
-1 -8 15 92.29 16.4
-1 -8 15 128.49 16.5
-1 -8 15 99.89 16.4
1 8 15 124.09 16.6
-1 8 -15 105.29 16.4
-1 -8 15 96.99 16.4
-1 8 -15 105.89 16.4
1 -8 -15 83.39 16.4
1 -8 -15 100.69 16.5
-2 -8 -15 3.7 1.2
2 8 -15 1.6 0.7
-2 8 15 1.3 1.2
2 8 -15 0.2 0.7
2 8 -15 1.2 0.8
-2 -8 -15 0.6 0.8
-2 8 15 0.3 1.3
2 -8 15 1.7 1
2 -8 15 1.6 1
-2 -8 15 2.2 0.9
2 8 15 2.8 1.1
2 8 15 1.2 1.1
-2 -8 15 1.1 0.8
2 -8 -15 2.3 1.1
-2 8 -15 1.5 0.9
2 -8 -15 2.6 1.1
-2 8 -15 2.2 1
3 -8 15 7 1.6
3 8 -15 5.9 1.3
-3 8 15 4.7 1.6
3 8 -15 3.9 1.1
3 -8 15 5.7 1.4
-3 -8 -15 4.3 1.2
-3 8 15 4.7 1.7
3 8 -15 2.6 1
3 8 -15 5.8 1.2
-3 -8 -15 5.8 1.3
-3 -8 15 4.8 1.2
3 -8 -15 3.9 1.4
3 8 15 6.1 1.6
-3 -8 15 3.7 1.1
-3 -8 15 5.5 1.3
-3 -8 15 5.6 1.2
3 8 15 4 1.2
-3 8 -15 3 1.2
-3 8 -15 4.7 1.3
3 -8 -15 5.9 1.5
3 8 15 2.8 1.4
4 8 -15 37.8 5.4
-4 -8 -15 37.3 5.6
4 8 -15 33.9 5.2
4 -8 15 40.8 5.6
4 8 -15 31.4 5.3
4 -8 15 27.8 5.5
-4 8 15 29.7 5.6
4 8 -15 32.1 5.2
-4 -8 -15 33.1 5.4
-4 8 15 36.2 5.7
4 8 15 36 5.5
4 -8 -15 33.4 5.6
-4 -8 15 38.3 5.3
4 -8 -15 30.2 5.5
-4 -8 15 28.4 5.3
-4 -8 15 34.5 5.4
4 8 15 32.8 5.5
-4 -8 15 32.6 5.3
-4 8 -15 39.4 5.6
4 8 15 25 5.3
-4 8 -15 36 5.6
5 -8 15 40.3 8.5
5 8 -15 54.99 8.3
5 8 -15 57.99 8.3
5 -8 15 61.89 8.5
-5 8 15 54.39 8.7
-5 8 15 42 8.6
-5 -8 -15 51.49 8.4
-5 -8 -15 54.29 8.4
5 -8 -15 40.8 8.5
5 8 15 49.2 8.6
-5 8 -15 60.49 8.6
-5 8 -15 44.6 8.5
5 8 15 62.39 8.5
5 8 15 56.99 8.5
5 -8 -15 61.79 8.5
6 -8 15 2.8 1.6
6 8 -15 9.5 1.4
-6 -8 -15 4.2 1.5
-6 8 15 9 2.1
-6 8 15 7.9 2.2
6 -8 15 9 1.8
6 8 15 6.4 1.7
6 8 15 5.9 1.7
-6 8 -15 3.6 1.5
6 8 15 5.9 1.4
-6 8 -15 9.4 1.8
6 -8 -15 3.1 1.6
0 9 15 1.4 1.3
0 -9 -15 -0.8 0.8
0 9 -15 0.2 0.7
0 9 15 -0.6 1.1
0 -9 15 -0.3 0.8
0 9 -15 -1.3 0.5
0 -9 15 -0.9 0.8
0 -9 -15 0.5 0.9
0 -9 15 -0.4 0.9
0 9 -15 -0.3 0.6
0 9 -15 0 0.7
1 9 -15 27.7 4.2
-1 9 15 24 4.4
-1 -9 -15 24 4.2
1 9 -15 17.9 4
-1 -9 -15 25 4.2
1 9 -15 34.5 4.3
-1 9 15 32.5 4.5
1 9 -15 27.7 4.2
1 -9 15 30.5 4.3
1 -9 15 27.1 4.3
1 -9 -15 21.5 4.2
1 9 15 20.3 4.2
1 -9 -15 18.9 4.1
-1 -9 15 24.4 4.1
1 9 15 23.7 4.4
-1 9 -15 33.5 4.3
-1 -9 15 30.8 4.3
-1 -9 15 20.3 4.2
-1 -9 15 24.8 4.2
-1 9 -15 19.2 4.1
-2 -9 -15 17.8 3.7
-2 -9 -15 21.4 3.9
2 9 -15 23.8 3.8
-2 9 15 19.2 4
2 9 -15 17.2 3.7
-2 9 15 17 3.9
2 -9 15 28 4
2 9 -15 18.8 3.7
-2 -9 15 29.8 4
-2 -9 15 34.8 3.9
-2 -9 15 25.6 3.8
2 -9 -15 23.2 3.9
2 9 15 20.5 4
-2 9 -15 20.5 3.8
-2 -9 15 22 3.8
2 -9 -15 24.1 3.9
2 9 15 23.3 3.9
3 -9 15 29 6.4
-3 -9 -15 45.8 6.6
-3 9 15 37.2 6.7
3 9 -15 42.5 6.3
3 -9 15 43.8 6.6
3 9 -15 25.5 6.3
3 9 -15 40.4 6.3
-3 9 15 46.6 6.9
-3 -9 -15 38.8 6.5
3 9 15 54.29 6.9
-3 -9 15 41.5 6.3
-3 9 -15 36.7 6.5
3 -9 -15 39.1 6.6
-3 -9 15 40.4 6.3
3 -9 -15 35 6.6
-3 -9 15 59.39 6.4
-3 -9 15 42.4 6.5
-3 9 -15 37.5 6.5
3 9 15 34 6.6
4 9 -15 0 0.7
4 9 -15 -0.5 0.6
-4 9 15 3.1 1.5
4 9 -15 -0.8 0.6
-4 -9 -15 -0.3 0.9
-4 -9 -15 0.6 0.9
4 -9 15 -0.7 0.9
4 -9 15 1 1
4 -9 -15 0.6 1
-4 -9 15 0 0.7
-4 9 -15 0.6 1.1
-4 -9 15 0.2 0.7
-4 -9 15 -0.8 0.9
4 -9 -15 -0.9 1
-4 -9 15 1.3 0.9
-4 9 -15 0 0.9
4 9 15 1.2 1.1
4 9 15 -0.5 1.1
5 9 -15 5.8 1.1
-5 -9 -15 2.1 1.1
-5 -9 -15 0.2 0.9
-5 9 15 1.8 1.7
5 9 -15 3.4 1
-5 9 15 2.4 1.5
5 -9 -15 1.9 1.1
5 -9 -15 1.9 1.3
5 9 15 0.6 0.8
5 9 15 2.1 1.3
6 9 -15 5 1.1
6 -9 15 3.5 1.5
-6 9 15 3.9 1.9
-6 9 15 2.1 1.6
6 -9 15 2.8 1.5
-6 -9 -15 4.4 1.4
-6 -9 -15 3.2 1.3
6 9 15 3.8 1.5
-6 9 -15 5.2 1.5
6 -9 -15 3.6 1.5
6 -9 -15 3.4 1.4
6 9 15 4.1 1.5
-6 9 -15 4.6 1.4
6 9 15 4.6 1.2
0 -10 -15 6.8 1.7
0 10 -15 4.4 1.6
0 -10 15 9.6 1.8
0 10 15 6.6 2
0 -10 15 11.3 1.8
0 10 15 6.8 2
0 -10 -15 6 1.7
0 10 -15 7.5 1.7
0 10 -15 8.2 1.6
1 10 -15 130.99 17.9
-1 10 15 115.19 18
-1 -10 -15 124.19 17.9
1 10 -15 103.29 17.8
-1 -10 -15 130.29 17.9
1 -10 15 120.09 17.9
1 10 -15 118.39 17.8
1 -10 15 146.79 18
-1 10 15 92.09 17.9
1 10 -15 107.69 17.8
1 -10 -15 109.59 17.9
-1 -10 15 104.59 17.8
-1 -10 15 95.79 17.8
1 10 15 121.79 18
-1 10 -15 128.39 17.9
-1 -10 15 134.79 17.9
1 -10 -15 105.09 17.9
1 10 15 93.09 17.9
-1 10 -15 128.09 17.9
-1 -10 15 119.39 17.9
2 10 -15 1.7 0.9
2 -10 15 2.1 1.1
2 10 -15 2.1 1
2 -10 15 2.9 1.2
-2 10 15 3.4 1.8
-2 -10 -15 1.8 1
-2 10 15 4.1 1.5
2 10 -15 3 1.1
-2 10 -15 1.5 1.1
-2 -10 15 3.2 1.2
-2 -10 15 2.3 0.9
2 10 15 1.9 1.4
-2 -10 15 3.5 1.2
2 -10 -15 1.8 1.2
2 -10 -15 2.5 1.2
-2 -10 15 1.8 0.9
2 10 15 1 1.2
-3 -10 -15 4 1.3
-3 -10 -15 4.6 1.3
3 10 -15 4.9 1.2
3 10 -15 2.2 1.1
-3 10 15 2.8 1.6
3 -10 15 1.8 1.3
3 -10 15 3.8 1.3
-3 -10 15 4.1 1.4
3 10 15 3.8 1.5
-3 10 -15 5 1.4
3 10 15 4.3 1.7
-3 10 -15 6.7 1.5
-3 -10 15 5.3 1.3
3 -10 -15 5.2 1.4
4 10 -15 10.9 1.7
4 10 -15 7.1 1.6
4 10 -15 8.7 1.5
4 -10 15 7.8 2.7
-4 10 15 7.4 2.2
-4 10 15 6.9 2
-4 -10 -15 5.6 1.7
-4 -10 -15 8 1.8
-4 10 -15 11.7 2.7
4 10 15 7.6 1.9
4 -10 -15 6.5 1.9
-4 -10 15 7.3 1.6
4 -10 -15 6.4 1.9
4 10 15 5.8 1.9
-5 -10 -15 27.5 4.7
5 10 -15 43.8 4.7
-5 10 15 24 5
-5 -10 -15 20.8 4.6
5 10 -15 33 4.6
5 -10 15 23.5 4.7
-5 10 -15 32.9 5
5 10 15 28.1 4.8
5 -10 -15 22.5 4.7
-5 10 -15 29.8 4.9
5 10 15 25.9 4.7
5 -10 -15 21.6 4.7
6 -10 15 1.2 1.1
6 -10 15 3.2 1.4
-6 -10 -15 1 1.1
-6 -10 -15 0.8 1.2
-6 10 15 1.9 1.5
6 10 -15 2 0.9
6 10 15 1.5 1.4
-6 10 -15 0.7 1.2
6 10 15 1.2 1.3
6 10 15 0.8 0.9
-6 10 -15 5.2 1.4
0 11 -15 0.8 0.8
0 -11 15 -0.5 0.9
0 -11 -15 -0.1 0.9
0 11 15 1.1 1.4
0 11 -15 -0.1 0.8
0 -11 15 -1.5 0.8
0 -11 -15 0.9 1.1
-1 11 15 39.7 6.5
1 -11 15 53.59 6.6
-1 -11 -15 37.4 6.4
1 -11 15 50.79 6.6
-1 11 15 40.9 6.6
1 11 -15 45.2 6.2
1 11 -15 37.6 6.3
-1 -11 -15 31.6 6.3
1 11 -15 28.3 6.2
-1 -11 15 32.8 6.2
-1 -11 15 36.1 6.3
1 -11 -15 35.8 6.3
-1 11 -15 38.3 6.3
1 -11 -15 49.1 6.6
-1 11 -15 39.5 6.3
1 11 15 39.5 6.5
1 11 15 37.2 6.5
2 11 -15 75.79 11.2
2 -11 15 65.89 11.3
-2 -11 -15 73.59 11.3
-2 11 15 86.99 11.5
-2 -11 -15 78.79 11.3
2 11 -15 65.99 11.2
2 -11 15 69.59 11.3
2 11 -15 66.49 11.2
2 11 -15 72.09 11.3
-2 11 15 74.29 11.7
-2 -11 15 72.69 11.2
-2 -11 15 86.39 11.3
-2 -11 15 64.89 11.3
2 -11 -15 73.19 11.3
2 11 15 77.99 11.5
-2 11 -15 59.69 11.2
2 11 15 75.59 11.4
2 -11 -15 64.59 11.3
-2 11 -15 70.49 11.3
-2 -11 15 78.89 11.2
3 11 -15 39 5.6
-3 -11 -15 27 5.5
3 -11 15 33.8 5.7
3 -11 15 39.4 5.7
3 11 -15 40.6 5.5
-3 11 15 31 5.9
3 11 -15 30.3 5.4
-3 -11 -15 30.2 5.6
-3 11 15 48.2 6.1
3 11 -15 34 5.5
3 11 15 34.7 5.8
3 -11 -15 30.9 5.7
3 -11 -15 31.2 5.7
-3 -11 15 27.8 5.4
-3 -11 15 33.7 5.7
-3 11 -15 32.9 5.7
-3 -11 15 31.9 5.5
-3 -11 15 36.6 5.5
-3 11 -15 31.9 5.6
3 11 15 40.3 5.8
4 11 -15 10 1.6
4 11 -15 7.3 1.5
4 11 -15 7.3 1.3
4 -11 15 7.3 1.8
-4 -11 -15 3.5 1.5
-4 -11 -15 7.2 1.6
-4 11 -15 5.4 1.6
4 11 15 5.4 1.8
-4 11 -15 4.1 1.5
4 11 15 5.9 1.8
4 -11 -15 2.3 1.5
5 -11 15 1.1 1.2
-5 11 15 -1.6 1.3
5 -11 15 1.4 1.2
-5 -11 -15 1.4 1.1
-5 -11 -15 0.5 1
5 11 -15 -0.7 0.9
-5 11 15 -1.2 1.5
5 11 15 0.8 1.3
5 11 15 -1 1.3
-5 11 -15 0.3 1.1
5 -11 -15 -0.7 1.2
-5 11 -15 0.4 1
0 -12 15 271.17 37.3
0 12 -15 237.58 37.2
0 -12 -15 253.57 37.3
0 12 15 226.88 37.3
0 -12 -15 208.68 37.2
0 -12 15 261.07 37.2
1 -12 15 0.3 1
1 12 -15 0.5 0.9
-1 -12 -15 -0.1 1
1 -12 15 0.1 1
1 12 -15 0.1 0.8
1 12 -15 1.2 0.8
-1 12 15 -0.2 1.4
-1 -12 -15 0.2 1
-1 12 15 1.6 1.4
1 -12 -15 -1.6 1
-1 12 -15 -0.1 0.8
-1 -12 15 -0.4 0.9
1 12 15 -0.5 1.4
1 -12 -15 1.9 1.2
1 12 15 0.9 1.4
-1 -12 15 2.5 1.1
-1 12 -15 0.8 1
-2 12 15 49.7 8.2
2 12 -15 48.9 7.7
2 -12 15 63.79 8.2
-2 12 15 44.3 8
-2 -12 -15 33.3 7.7
-2 -12 -15 48.4 8
2 12 -15 51.89 7.7
2 12 -15 49.9 7.7
2 -12 15 42.1 7.8
2 12 -15 50.39 7.7
-2 -12 15 61.59 8.1
2 -12 -15 44.3 7.9
2 12 15 39.4 8
2 12 15 41.7 8
-2 12 -15 79.09 8.5
-2 -12 15 61.19 7.7
-2 -12 15 45 7.8
2 -12 -15 42.6 7.9
-3 -12 -15 -0.9 1
3 12 -15 0.8 1
3 12 -15 -0.3 0.7
-3 -12 -15 1.1 1.1
3 12 -15 1 1.1
3 12 -15 -0.5 0.8
-3 -12 15 0.3 0.9
-3 -12 15 0.8 1
3 12 15 0.3 1.3
-3 -12 15 0.9 0.9
-3 -12 15 -0.5 1.1
3 12 15 -1.2 1.3
4 -12 15 5.6 1.8
-4 12 15 8.8 2.3
4 12 -15 11.5 1.7
-4 12 15 5.2 2.1
4 12 -15 8.8 1.8
-4 -12 -15 5.4 1.8
-4 -12 -15 11.1 2
4 -12 15 8.2 2
4 12 -15 8.4 1.6
-4 12 -15 7.9 2
4 -12 -15 8.1 2
4 12 15 8.9 2.2
-4 12 -15 6.1 1.9
4 12 15 12 2.4
4 -12 -15 6.5 1.9
-5 -12 -15 1 1
-5 12 15 0.2 1.7
5 -12 15 -0.2 1.2
5 12 -15 0.9 0.8
5 -12 15 1.9 1.3
5 12 -15 -1 0.9
-5 -12 -15 1.3 1.1
-5 12 15 -2.1 1.3
5 -12 -15 -0.9 1.1
5 12 15 -0.1 1.4
-5 12 -15 -0.3 1
5 12 15 -0.7 1.4
-5 12 -15 1.2 1.2
5 -12 -15 -0.8 1
0 13 -15 0.5 0.9
0 -13 15 0 1
0 -13 -15 -0.3 1
0 -13 15 0 0.9
0 13 15 0.4 1.4
0 13 -15 0.5 0.8
0 -13 -15 0.5 1.2
0 13 15 -1.6 1.4
1 13 -15 1.8 1
1 -13 15 -0.2 1
-1 -13 -15 0.1 1.4
1 13 -15 -0.5 0.8
-1 -13 -15 -0.2 1
1 -13 15 -1.3 0.9
1 13 15 -0.5 1.4
-1 -13 15 1.4 1
-1 13 -15 0.4 1.1
-1 13 -15 0.5 0.8
-1 -13 15 1.4 1
1 13 15 -2.5 1.2
-2 -13 -15 7.2 2
-2 -13 -15 7 1.9
2 13 -15 11.4 1.9
2 13 -15 6.8 1.8
-2 13 15 9.6 2.4
2 13 -15 9.6 1.9
-2 13 15 9.9 2.4
2 13 15 8.9 2.3
2 -13 -15 6 2
2 -13 -15 8 2.1
-2 -13 15 10 2
2 13 15 9.5 2.3
-2 -13 15 11.3 2
-2 13 -15 9.8 2
-3 -13 -15 21.3 3.9
3 -13 15 35.6 4.5
3 13 -15 21.9 3.8
-3 -13 -15 14.7 3.7
-3 13 15 27.7 4.5
3 -13 15 25.4 4
3 13 -15 20.8 3.8
-3 13 15 19.8 4.1
3 13 -15 23.6 3.8
3 -13 -15 13.5 3.8
-3 -13 15 23.8 3.8
-3 -13 15 26.9 4.2
3 13 15 25.4 4.2
3 13 15 15.5 3.9
3 -13 -15 21.1 3.9
-3 13 -15 26.9 4.1
-3 13 -15 28.2 4
4 -13 15 26.4 3.9
-4 -13 -15 16.3 3.4
4 13 -15 20.7 3.5
4 -13 15 24.4 3.8
-4 13 15 18.7 4.1
-4 13 15 14.5 3.6
-4 -13 -15 19.8 3.6
4 13 -15 27.2 3.5
4 13 -15 20.7 3.3
-4 13 -15 16.6 3.4
-4 13 -15 17.9 3.6
4 -13 -15 13 3.5
4 13 15 20.8 3.7
4 -13 -15 15.4 3.4
4 13 15 18.2 3.7
0 -14 15 51.49 7.3
0 -14 15 42.7 7.1
0 14 -15 52.39 7.1
0 -14 -15 38.6 7.1
0 14 15 38.5 7.3
0 14 -15 41.2 7.1
0 -14 -15 37.6 7.1
1 -14 15 0.3 1.1
1 14 -15 0.4 1.1
-1 14 15 3.7 1.6
1 14 -15 1.8 1.1
-1 14 15 -0.8 1.5
1 -14 -15 -0.9 1.1
-1 -14 15 1.9 1.1
-1 14 -15 -0.5 1.1
-1 14 -15 0.9 1.1
-1 -14 15 0.4 1
1 -14 -15 -0.6 1.1
2 14 -15 6.5 1.5
2 14 -15 4.7 1.4
2 -14 15 4.9 1.6
2 -14 15 5.3 1.9
-2 14 15 6.8 2.1
2 14 -15 6.8 1.6
-2 14 15 7.3 2
-2 -14 15 6.2 1.6
-2 14 -15 8.3 1.8
2 -14 -15 2.4 1.6
2 14 15 3.8 1.8
2 -14 -15 6.6 1.9
-2 14 -15 8.6 1.9
-2 -14 15 4.8 1.5
-3 -14 -15 -0.5 1.1
-3 14 15 -0.2 1.3
-3 14 15 1.1 1.6
3 14 -15 1.5 1
3 14 -15 0.6 0.9
3 14 -15 -0.4 0.8
3 -14 15 0.8 1.2
3 14 -15 0.7 1.1
3 -14 15 0.7 1.1
-3 14 -15 -0.5 1.1
3 14 15 3.1 1.7
3 -14 -15 -0.4 1.2
3 -14 -15 1.3 1.4
3 14 15 3.1 1.8
-3 14 -15 0.5 1.1
0 15 -15 -0.5 1
0 -15 -15 1.2 1.3
0 15 15 -0.1 1.6
0 15 -15 1 1
0 -15 15 0.5 1
0 15 15 -1.7 1.3
0 -15 15 0.2 1
0 -15 -15 1.1 1.2
1 15 -15 -1.5 0.8
-1 15 15 -0.9 1.3
-1 -15 -15 -0.5 1.2
1 -15 15 -1.2 1
1 -15 15 0.5 1.1
-1 -15 -15 -0.3 1.1
1 15 -15 -0.3 1
-1 15 15 -1.4 1.7
1 15 15 0.9 1.5
-1 -15 15 -0.7 1
1 -15 -15 0 1.2
1 15 15 0 1.5
-1 -15 15 1 1
1 -15 -15 -2.3 1
-2 15 15 3.1 1.9
2 15 -15 -0.2 0.9
-2 -15 -15 1.2 1.3
2 15 -15 -0.2 1
-2 -15 -15 1.6 1.2
2 -15 15 1.8 1.1
-2 15 15 -1.3 1.3
2 -15 15 1.1 1.2
-2 15 -15 0.1 1.1
2 -15 -15 1.9 1.3
-2 -15 15 0.4 1
-2 -15 15 -0.4 0.9
2 -15 -15 2.4 1.3
-2 15 -15 0.4 1.1
2 15 15 -0.8 1.5
0 0 -16 186.28 28.7
0 0 -16 185.48 28.7
0 0 16 186.38 28.7
0 0 16 158.78 28.6
0 0 16 197.88 28.7
0 0 16 191.08 28.7
0 0 -16 210.98 28.7
-1 0 16 2.1 1
1 0 16 3.2 1
-1 0 -16 3.6 1.1
1 0 16 3.7 1.1
1 0 16 5.8 1.2
-1 0 -16 3.7 1.1
1 0 -16 3.5 1
1 0 16 2.7 1
-1 0 16 3.9 1.1
1 0 -16 2.1 0.8
-1 0 -16 3.4 1
-1 0 -16 2.7 1
2 0 16 10.5 2.8
-2 0 -16 21 3.1
-2 0 -16 15.8 3
2 0 16 14.9 2.9
2 0 -16 16.6 2.9
-2 0 -16 18.3 2.9
2 0 -16 15.3 2.8
2 0 -16 18.1 2.9
2 0 16 22.1 3
2 0 16 20.6 3
-3 0 -16 2.7 1
-3 0 16 2.3 1.2
-3 0 16 7.5 1.3
3 0 16 2.4 1
3 0 16 3.3 1
-3 0 16 2.5 0.9
-3 0 -16 3 1.1
3 0 -16 3.2 0.9
-3 0 -16 1.8 1
3 0 16 1.5 0.8
-3 0 16 2.5 1
3 0 -16 2.6 0.9
3 0 16 3 1
3 0 -16 3.2 0.9
-3 0 -16 3 1.2
4 0 16 11 2.1
4 0 16 10.4 2
-4 0 16 8.8 1.9
-4 0 16 11.3 2
4 0 16 11 2
-4 0 -16 12.1 2.1
4 0 -16 8.8 1.9
-4 0 16 10.7 2
4 0 -16 10.4 2
-4 0 -16 9.2 2
-4 0 16 10.6 2.1
4 0 -16 9.3 1.9
4 0 -16 9.5 1.9
5 0 -16 -0.6 0.9
5 0 -16 -0.2 0.8
5 0 -16 0.1 0.7
5 0 16 0.5 0.8
5 0 16 0 0.9
-5 0 16 -1.6 0.8
-5 0 16 -0.7 1.1
5 0 -16 0.6 0.7
-5 0 -16 0.2 0.9
-5 0 16 0.1 0.8
-5 0 -16 1.2 1
6 0 -16 10.9 2.4
6 0 -16 16.6 2.5
6 0 16 13.7 2.6
6 0 -16 14.8 2.5
-6 0 16 13.3 2.5
-6 0 16 16.7 2.9
-6 0 16 14 2.6
-6 0 -16 11.7 2.6
6 0 16 17.6 2.8
7 0 16 22.9 3.7
7 0 16 22 3.7
7 0 -16 21.6 3.5
-7 0 -16 20.2 3.7
7 0 -16 18.3 3.5
0 -1 16 -0.7 0.7
0 1 -16 -0.4 0.8
0 1 16 0.5 0.9
0 1 16 0.5 0.8
0 -1 -16 -0.5 0.6
0 1 16 -0.5 0.7
0 1 16 0.4 0.8
0 -1 -16 -1.5 0.8
0 -1 16 0.2 0.7
0 -1 -16 -0.3 0.6
0 -1 16 -0.2 0.7
0 -1 -16 -0.1 0.7
0 1 -16 -0.1 0.6
0 -1 16 -0.4 0.8
0 1 -16 -0.1 0.7
1 -1 16 6.2 1.3
-1 -1 -16 3.9 1.3
-1 1 16 6.2 1.3
-1 -1 -16 3.3 1.2
-1 -1 -16 7 1.4
-1 1 16 7 1.4
-1 -1 -16 4.8 1.3
-1 1 16 4.6 1.3
1 -1 16 5.8 1.3
1 -1 16 9.6 1.5
-1 1 16 6.7 1.4
1 -1 16 6.3 1.3
1 1 -16 4.8 1.2
1 1 16 7 1.4
1 1 16 4.5 1.3
1 -1 -16 6.3 1.2
-1 1 -16 4.2 1.2
1 -1 -16 4 1.3
-1 -1 16 6.8 1.4
1 -1 -16 4.2 1.2
-1 1 -16 3.2 1.1
-1 1 -16 7.2 1.4
1 1 16 6.2 1.3
1 1 16 3.7 1.2
-1 1 -16 5.2 1.3
-2 -1 -16 9.5 1.8
-2 -1 -16 9.1 1.7
2 -1 16 7 1.6
2 -1 16 4.9 1.6
2 -1 16 9.8 1.7
2 1 -16 6.8 1.5
2 1 -16 5 1.6
2 -1 16 7.9 1.6
-2 -1 -16 8.7 1.7
2 1 -16 8.6 1.6
-2 1 16 8.5 1.7
2 1 -16 9.7 1.6
-2 1 16 6.8 1.6
-2 -1 -16 6.2 1.7
2 1 16 7.3 1.6
2 -1 -16 8.1 1.6
2 1 16 7.6 1.6
-2 -1 16 10.8 1.7
-2 1 -16 7.8 1.7
-2 -1 16 9.6 1.7
-2 1 -16 10.8 1.9
2 -1 -16 6.2 1.5
2 1 16 8.3 1.7
-2 1 -16 11.2 1.8
-2 -1 16 7.2 1.6
-2 1 -16 10.7 1.8
2 1 16 7.1 1.6
-3 -1 -16 19.5 3
3 -1 16 15 2.9
-3 1 16 15.2 2.9
3 1 -16 17.1 2.8
3 -1 16 18.7 2.9
3 1 -16 17.4 2.8
-3 -1 -16 18.4 3
-3 -1 -16 12.5 2.9
3 1 -16 16.1 2.8
3 1 -16 14.7 2.8
3 -1 16 15.8 2.9
-3 1 16 15 2.9
-3 1 -16 16.7 3
-3 -1 16 20.5 3
3 -1 -16 17.3 2.8
3 -1 -16 16.1 2.8
-3 1 -16 12.4 2.8
3 1 16 16.1 2.9
-3 -1 16 17.7 2.9
-3 -1 16 14.7 2.8
3 1 16 17.7 2.9
-3 1 -16 15.3 2.9
-3 1 -16 17.9 3
-3 -1 16 17.7 2.9
4 1 -16 5.3 1.1
4 -1 16 5.3 1.2
-4 -1 -16 3.2 1.2
4 1 -16 4.4 1.1
4 -1 16 2.1 1.2
-4 1 16 5.6 1.2
-4 1 16 4.9 1.3
4 1 -16 3.1 1.1
4 1 -16 4.7 1.2
-4 -1 -16 5.2 1.3
4 -1 -16 4.2 1.2
-4 -1 16 3 1.1
4 -1 -16 4.5 1
4 1 16 3.4 1.1
-4 -1 16 4.8 1.3
-4 1 -16 4.3 1.3
4 1 16 2.2 1.1
-4 -1 16 3.8 1.1
-4 -1 16 2.1 1.1
4 1 16 5.3 1.1
4 -1 -16 5.5 1.2
5 1 -16 12.9 2.3
-5 1 16 16.5 2.5
5 1 -16 12.3 2.3
-5 -1 -16 15.8 2.6
5 -1 16 14.1 2.6
-5 -1 -16 12.2 2.5
5 1 -16 13.2 2.3
-5 1 16 14.5 2.5
5 -1 16 9.2 2.3
5 1 -16 8.7 2.5
-5 -1 16 16 2.4
5 -1 -16 12.9 2.3
-5 -1 16 13.9 2.4
-5 1 -16 12.2 2.5
5 1 16 15.6 2.5
5 -1 -16 11.2 2.3
5 1 16 11.4 2.4
-5 1 -16 11.4 2.5
-5 -1 16 12 2.5
-5 -1 16 16.3 2.5
6 1 -16 19.5 3
-6 -1 -16 20.2 3.1
-6 1 16 16 3
6 1 -16 10.1 2.7
-6 1 16 14.6 3
6 -1 16 15.3 3
6 1 -16 15.5 2.8
-6 -1 -16 17.5 3
6 -1 16 20 3.1
-6 1 16 17.7 3
-6 -1 16 21.3 3
-6 -1 16 18.3 2.9
6 1 16 16.5 3
6 -1 -16 16.7 3
-6 -1 16 17.9 3.1
-6 1 -16 21 3.2
6 -1 -16 14.2 2.8
6 -1 -16 15 2.8
-6 -1 16 17.9 3
6 -1 -16 13 2.8
-6 1 -16 18.9 3.1
6 1 16 21.6 3.1
7 -1 16 31.3 4
7 1 -16 20.9 3.5
-7 -1 -16 29.3 4
-7 -1 -16 27.8 4
7 1 -16 27.1 3.8
7 1 -16 14.3 3.5
7 1 -16 20.8 3.5
7 -1 -16 22.7 3.8
7 1 16 26.5 4.2
7 -1 -16 18.7 3.5
-7 1 -16 28.6 4
-7 1 -16 22.9 3.8
7 -1 -16 17.2 3.6
0 2 -16 0.8 0.7
0 2 16 1.2 0.9
0 2 16 0.2 0.8
0 -2 16 -0.4 0.7
0 2 16 -0.5 0.9
0 -2 16 0.1 0.7
0 -2 -16 0.2 0.8
0 2 16 -1.3 0.7
0 -2 -16 0.8 0.7
0 2 -16 0.3 0.7
0 -2 16 -0.1 0.7
0 -2 -16 0.4 0.8
0 2 -16 0.1 0.6
0 -2 16 -0.9 0.6
0 -2 -16 -1.1 0.8
1 -2 16 73.89 13.4
1 -2 16 86.99 13.4
-1 -2 -16 87.29 13.5
1 2 -16 87.69 13.4
-1 2 16 90.49 13.5
-1 -2 -16 98.49 13.5
-1 2 16 83.89 13.5
1 2 -16 97.79 13.4
-1 -2 -16 81.09 13.4
1 -2 16 89.09 13.4
1 -2 16 81.59 13.5
-1 2 16 86.39 13.4
-1 -2 -16 90.79 13.4
-1 2 16 89.19 13.5
1 -2 -16 97.09 13.4
1 -2 -16 86.09 13.4
-1 2 -16 82.49 13.5
1 2 16 77.99 13.4
1 2 16 76.79 13.4
-1 -2 16 80.99 13.4
-1 2 -16 82.19 13.5
-1 -2 16 104.59 13.5
-1 2 -16 95.69 13.4
1 2 16 86.69 13.5
1 -2 -16 85.09 13.4
2 -2 16 3.2 1.1
-2 -2 -16 2 1
2 -2 16 2.5 0.9
2 2 -16 3.9 1
-2 2 16 2.9 1
2 2 -16 2.8 0.9
2 -2 16 0.8 0.9
-2 2 16 2 1
-2 2 16 1.7 0.9
-2 -2 -16 5.1 1.2
2 2 -16 2.6 0.8
2 -2 16 3.5 1
2 2 -16 3 1
-2 -2 -16 6.4 1.3
-2 -2 -16 2.2 1
-2 2 16 4.7 1.2
-2 2 -16 0.6 1
-2 -2 16 4.5 1
-2 2 -16 3.6 1.1
2 -2 -16 3 0.9
-2 -2 16 3.4 0.9
2 2 16 1.9 0.9
2 2 16 2.7 1
-2 -2 16 1.9 1
2 -2 -16 2.8 1
2 2 16 3 1
-2 2 -16 3.1 1
2 2 16 3.8 1.1
2 -2 -16 1.4 0.8
2 -2 -16 1.8 0.9
-3 2 16 4.4 1.1
-3 2 16 3.5 1.1
-3 2 16 3.2 1.1
3 -2 16 2.7 1
3 -2 16 3.6 1.1
3 2 -16 3 0.9
3 2 -16 5 1.1
-3 -2 -16 3.5 1.2
3 -2 16 1.4 1
3 -2 16 4.4 1.1
-3 -2 -16 3.5 1.1
-3 -2 -16 2.3 1.1
3 2 -16 2.6 0.9
3 2 -16 3 0.9
-3 -2 -16 2.3 1.1
-3 -2 16 4.1 1
3 -2 -16 3.8 1
3 2 16 1.8 1
3 -2 -16 1.9 1
-3 2 -16 4.3 1.1
3 2 16 1.1 0.9
-3 -2 16 3.2 1
3 2 16 2.9 1
-3 -2 16 2.5 0.9
-3 -2 16 2.2 0.9
3 -2 -16 2.5 0.9
-3 2 -16 3 1.1
3 2 16 2 0.9
-4 2 16 3.5 1.2
4 2 -16 2.5 0.9
4 2 -16 3.6 1.1
4 -2 16 3.8 1.2
4 -2 16 3.8 1.3
-4 2 16 4 1.4
4 2 -16 2.8 0.9
-4 2 16 1.8 1.1
-4 2 16 3.3 1.2
4 2 -16 4.9 1
-4 -2 -16 5.5 1.4
4 2 16 2.3 1.1
4 2 16 3.8 1.2
4 2 16 4.3 1.1
-4 -2 16 4.4 1.1
-4 -2 16 1.8 1
4 -2 -16 4.1 1
-4 2 -16 2.8 1.1
-4 -2 16 4.3 1.1
4 -2 -16 2.2 0.9
-4 2 -16 3.9 1.2
-4 -2 16 3.4 1
4 -2 -16 3.5 1.1
-5 -2 -16 53.39 8.1
-5 2 16 57.59 8.4
-5 -2 -16 51.49 8.3
-5 2 16 45.3 8.1
5 -2 16 56.49 8.2
5 2 -16 54.29 8
-5 2 16 45.8 8.1
5 2 -16 47.9 8
5 -2 16 48.1 8.2
5 2 -16 51.19 8
-5 2 16 54.79 8.2
5 -2 -16 57.99 8.1
5 -2 -16 42.4 8.1
-5 -2 16 53.29 8.1
5 2 16 55.99 8.1
-5 -2 16 48.9 8
-5 -2 16 44.1 8
-5 2 -16 55.29 8.1
5 2 16 57.49 8.1
-5 -2 16 55.49 8.1
-6 2 16 1.4 1.2
6 -2 16 1.4 1
6 2 -16 1 0.7
6 2 -16 2.1 0.8
6 2 -16 0.6 0.7
-6 2 16 0.9 1
-6 2 16 1.1 1
6 2 -16 0.2 0.9
-6 -2 -16 -0.3 0.9
-6 -2 -16 1.4 1
-6 2 16 0.7 1.1
6 -2 16 1.1 1
6 -2 -16 1.8 1.1
6 2 16 2.3 1
6 2 16 1.4 1
6 -2 -16 0.1 0.9
6 -2 -16 0.2 0.7
-6 -2 16 2.2 0.9
-6 2 -16 1.3 1
7 2 -16 0.2 0.9
-7 2 16 0.2 0.9
-7 -2 -16 0.1 1
7 -2 16 -0.3 1
7 -2 16 0.5 1
-7 -2 -16 -1 1
7 2 -16 0 0.8
7 -2 -16 0.9 0.8
7 2 16 -0.4 1
-7 2 -16 -0.5 0.9
7 -2 -16 0.8 1.1
-7 2 -16 0 1
7 2 16 0.1 1
7 -2 -16 0.4 0.8
7 -2 -16 0.6 1
0 -3 -16 0 0.7
0 -3 16 1 0.8
0 -3 16 -0.4 0.7
0 -3 -16 -0.7 0.7
0 -3 -16 0.4 0.7
0 3 16 0.3 0.8
0 3 16 1.6 0.9
0 3 -16 0 0.6
0 -3 16 0 0.6
0 3 -16 0.3 0.7
0 3 -16 -0.7 0.7
0 3 16 0.1 0.8
0 -3 -16 -1.1 0.7
0 -3 16 1 0.8
0 3 16 -0.2 0.9
0 3 -16 -0.9 0.7
1 3 -16 62.29 9.4
-1 -3 -16 58.29 9.4
1 -3 16 64.79 9.4
-1 -3 -16 62.89 9.4
-1 3 16 67.39 9.5
-1 3 16 52.19 9.4
-1 -3 -16 59.59 9.4
1 -3 16 65.09 9.4
-1 -3 -16 70.49 9.5
1 -3 16 64.89 9.4
-1 3 16 53.69 9.4
1 -3 16 69.09 9.5
-1 3 16 55.29 9.4
-1 3 -16 53.39 9.4
-1 -3 16 69.49 9.5
1 -3 -16 67.29 9.4
1 3 16 46.9 9.4
-1 3 -16 76.89 9.5
1 3 16 49 9.4
1 3 16 60.69 9.4
1 -3 -16 61.69 9.4
1 3 16 50.29 9.4
-1 3 -16 54.79 9.4
1 -3 -16 65.89 9.4
2 -3 16 11.2 2.3
2 3 -16 17.6 2.4
2 -3 16 11.7 2.3
2 -3 16 18.8 2.5
2 3 -16 9 2.2
-2 -3 -16 9 2.2
-2 3 16 12.7 2.4
2 -3 16 12.6 2.4
-2 3 16 16.9 2.6
-2 3 16 17.2 2.5
-2 -3 -16 13.6 2.4
2 3 -16 12.3 2.2
-2 3 16 14.3 2.5
2 3 -16 15 2.3
-2 -3 -16 8.6 2.2
-2 -3 -16 11.8 2.4
-2 -3 16 12.3 2.3
-2 -3 16 12.6 2.3
2 -3 -16 11.6 2.3
2 3 16 12.2 2.3
-2 3 -16 12.4 2.4
-2 3 -16 9.1 2.3
2 3 16 9 2.2
-2 -3 16 11.1 2.3
-2 -3 16 13.4 2.3
2 3 16 13.3 2.4
-2 3 -16 13.5 2.4
2 -3 -16 13.9 2.3
2 -3 -16 14.3 2.4
-2 3 -16 11.3 2.3
2 -3 -16 15.2 2.3
3 -3 16 81.59 15.6
-3 -3 -16 103.59 15.6
-3 3 16 90.59 15.6
3 3 -16 116.59 15.6
-3 3 16 83.49 15.7
-3 -3 -16 98.09 15.6
3 3 -16 97.59 15.6
-3 3 16 102.09 15.6
3 3 -16 105.89 15.6
-3 3 16 110.39 15.7
3 3 -16 98.99 15.6
-3 -3 -16 94.49 15.6
3 -3 16 92.29 15.6
-3 -3 -16 109.09 15.7
3 3 16 92.79 15.6
-3 3 -16 100.39 15.7
3 -3 -16 88.79 15.6
-3 -3 16 101.29 15.6
3 3 16 112.29 15.7
3 -3 -16 112.19 15.7
-3 -3 16 109.29 15.6
-3 -3 16 110.79 15.6
3 3 16 104.39 15.6
3 -3 -16 108.99 15.6
-3 -3 16 100.19 15.6
-3 3 -16 106.99 15.7
3 -3 -16 107.49 15.6
-4 3 16 34.6 5.6
4 3 -16 37.8 5.3
-4 -3 -16 34.8 5.5
-4 3 16 24.1 5.3
4 3 -16 36.1 5.4
-4 -3 -16 26.1 5.4
4 3 -16 34.3 5.3
4 3 -16 37.4 5.3
-4 3 16 37 5.5
4 -3 16 37 5.5
-4 3 16 32.3 5.5
4 -3 -16 30.2 5.5
4 3 16 41.1 5.6
4 -3 -16 24.1 5.3
4 3 16 32.8 5.5
-4 3 -16 28.1 5.4
4 3 16 37.8 5.5
4 -3 -16 29.9 5.4
-4 -3 16 37.7 5.5
4 -3 -16 41.8 5.4
-4 -3 16 35.6 5.4
-4 3 -16 27.5 5.4
-4 -3 16 31.6 5.3
-5 3 16 1.2 1
-5 3 16 0.3 1
-5 -3 -16 -0.9 0.9
-5 3 16 1.1 0.9
-5 3 16 -2.3 1.1
5 3 -16 -0.1 0.6
5 3 -16 -0.2 0.8
5 -3 16 -0.3 0.8
5 3 -16 0 0.7
-5 3 -16 -0.2 0.8
5 -3 -16 -0.1 0.7
-5 -3 16 -0.8 0.7
5 -3 -16 -0.4 1
5 3 16 0.9 0.8
5 3 16 0.3 0.9
5 3 16 0 0.8
5 -3 -16 -1.7 0.7
-5 -3 16 -0.7 0.7
-5 -3 16 0.9 0.8
5 -3 -16 2.3 1
-5 3 -16 0.4 0.9
-5 -3 16 1.7 1
6 3 -16 1.3 0.8
6 3 -16 2.2 0.9
-6 -3 -16 0.8 1.1
-6 3 16 2.1 1.1
6 -3 16 2.3 1
-6 3 16 1.7 1.3
-6 -3 -16 1.3 1
-6 3 16 0.3 1.1
6 -3 16 3.6 1.3
6 -3 -16 2.4 1
-6 3 -16 1.4 1
6 -3 -16 1.2 1.1
6 -3 -16 0.4 1
-6 3 -16 1.7 1.1
6 -3 -16 2.4 0.9
6 3 16 2.4 1.2
6 3 16 0.1 1
7 -3 16 1.5 1.1
-7 3 16 2.6 1.4
-7 -3 -16 0.6 1
7 3 -16 0.8 0.8
7 3 -16 1.6 1
7 -3 16 0.9 1
-7 -3 -16 1.6 1.2
7 -3 -16 -0.3 1
-7 3 -16 0.1 1
7 3 16 0.3 1.1
7 3 16 4 1.3
7 -3 -16 0.9 1.1
-7 3 -16 1.6 1.1
7 -3 -16 0.6 1
7 -3 -16 1.2 0.9
0 -4 -16 32.1 5
0 -4 -16 22.6 4.9
0 -4 -16 44.6 5.2
0 4 -16 28.2 4.9
0 -4 -16 28.7 5
0 4 16 29.3 5
0 4 16 36.8 5.2
0 -4 16 36.5 5.1
0 4 16 25.5 5
0 -4 16 36 5.1
0 4 16 32.9 5.1
0 -4 16 36.9 5.1
0 4 -16 28.8 4.9
0 -4 16 30.9 5
0 4 -16 24 4.9
-1 4 16 19.6 3.1
-1 4 16 20.1 3.2
1 4 -16 21.2 3
-1 4 16 14.7 3.1
-1 -4 -16 13.6 3
-1 -4 -16 28.9 3.4
1 4 -16 14.2 3
1 -4 16 16.6 3
1 -4 16 17.7 3.1
1 -4 16 14.5 3
-1 -4 -16 14.4 3
-1 -4 -16 15.7 3
-1 4 16 21.4 3.2
1 -4 16 17.4 3.1
1 4 16 10.4 2.9
-1 4 -16 22.2 3.2
1 4 16 21.8 3.2
1 -4 -16 18.7 3.1
-1 4 -16 16.2 3
1 -4 -16 23.3 3.2
1 4 16 17.1 3.1
1 4 16 18.7 3.1
-1 4 -16 18.4 3.1
1 -4 -16 20 3.1
-2 4 16 221.38 31.5
2 -4 16 195.78 31.5
2 -4 16 194.88 31.5
-2 -4 -16 216.28 31.5
2 4 -16 208.38 31.4
-2 -4 -16 190.38 31.5
2 4 -16 189.68 31.4
-2 4 16 180.48 31.5
-2 4 16 225.68 31.5
2 4 -16 212.58 31.5
2 4 -16 226.48 31.4
2 -4 16 178.78 31.5
-2 -4 -16 234.48 31.5
-2 -4 -16 233.78 31.5
2 -4 16 190.68 31.5
-2 4 16 192.48 31.5
-2 -4 16 209.58 31.5
2 4 16 234.48 31.5
2 -4 -16 227.48 31.5
-2 -4 16 220.58 31.4
2 4 16 229.78 31.5
2 -4 -16 214.28 31.5
2 -4 -16 215.18 31.5
2 4 16 204.68 31.5
-2 4 -16 186.98 31.5
-2 4 -16 204.48 31.5
-2 4 -16 188.68 31.5
-2 -4 16 163.28 31.4
2 -4 -16 215.08 31.5
-2 4 -16 202.38 31.5
-2 -4 16 193.98 31.4
3 -4 16 1.9 0.9
-3 4 16 0.4 0.9
-3 -4 -16 1.3 1
3 4 -16 0.7 0.8
-3 -4 -16 0.3 0.8
-3 4 16 1 0.9
3 4 -16 0.8 0.7
3 -4 16 2.7 1
-3 4 16 -0.2 1.2
3 4 -16 0.2 0.6
-3 4 16 2.7 1.1
-3 -4 -16 1.7 1.1
3 4 -16 1.6 0.7
3 4 16 0.4 0.8
3 -4 -16 0.6 0.9
3 -4 -16 3 1
3 -4 -16 1.2 0.9
3 4 16 2.5 1
-3 4 -16 1.1 0.9
-3 -4 16 1.2 0.7
-3 4 -16 0.5 0.8
-3 -4 16 1.1 0.8
-3 -4 16 0.9 0.8
3 4 16 0.1 0.9
3 4 16 -0.1 0.7
3 -4 -16 1.3 0.8
-3 -4 16 1 0.8
4 -4 16 13.1 2.3
-4 4 16 10 2.1
-4 -4 -16 7.5 2
-4 4 16 10.3 2.2
-4 4 16 13.7 2.3
4 4 -16 9.7 2
4 4 -16 12.3 2
4 4 -16 10.2 1.9
-4 -4 -16 13.9 2.3
4 4 -16 13.4 2
-4 4 16 11.2 2.1
4 4 16 10.3 2.1
-4 -4 16 12.5 2
4 -4 -16 9.4 2.1
-4 -4 16 11 2
-4 -4 16 9.6 1.9
-4 4 -16 9.7 2.1
4 -4 -16 9 1.9
4 4 16 9.8 2
-4 4 -16 10 2.1
4 -4 -16 8.2 2
4 -4 -16 10.8 2.1
-4 -4 16 8.4 1.9
5 -4 16 7.6 1.7
-5 4 16 8.2 1.7
5 4 -16 7.2 1.4
5 -4 16 8 1.8
5 4 -16 6.4 1.4
5 4 -16 9.3 1.6
5 4 -16 6.8 1.5
-5 -4 -16 6.8 1.7
-5 -4 -16 7 1.7
-5 4 16 9.2 2
-5 -4 16 8 1.5
5 4 16 8.3 1.5
-5 -4 16 6.9 1.5
5 4 16 7.9 1.7
-5 4 -16 3.8 1.5
-5 -4 16 8.3 1.7
5 -4 -16 4.9 1.6
5 -4 -16 7.5 1.8
-5 4 -16 10.7 1.9
-5 -4 16 6.9 1.5
5 -4 -16 5.5 1.6
5 -4 -16 7.7 1.6
5 4 16 8.6 1.7
-6 4 16 0.8 1.3
-6 4 16 0.1 1.2
6 -4 16 -1.8 0.9
-6 -4 -16 0.9 1.1
6 4 -16 0.6 0.8
6 4 -16 1.1 0.7
6 -4 16 1.2 0.9
6 4 16 1 1.1
-6 4 -16 1.3 1
6 -4 -16 0.2 0.8
-6 4 -16 -1.2 0.9
6 -4 -16 1 1
6 -4 -16 0.8 1.1
6 4 16 0.6 1
-7 4 16 11.3 2.9
7 4 -16 15.8 2.6
-7 -4 -16 12.9 2.8
7 -4 16 19.8 3
-7 4 16 15.4 3
7 4 -16 17.5 2.6
-7 -4 -16 12.6 2.7
7 -4 -16 11.1 2.6
7 -4 -16 16.1 2.8
7 -4 -16 11.8 2.8
7 4 16 17 2.9
7 4 16 18.2 2.9
0 -5 -16 0.5 0.8
0 5 -16 -0.8 0.6
0 5 -16 -0.5 0.6
0 -5 -16 -0.6 0.8
0 5 16 0.8 0.9
0 5 16 1 0.9
0 5 -16 0.5 0.7
0 -5 -16 0.5 0.7
0 -5 16 -0.4 0.7
0 -5 16 0.1 0.8
0 -5 16 -0.8 0.6
0 5 -16 0.7 0.7
0 -5 16 0.7 0.7
0 5 16 -1.2 0.8
0 5 16 0.1 1
0 -5 -16 0.2 0.8
1 -5 16 2.4 0.9
-1 5 16 2.7 1
1 5 -16 0.8 0.8
-1 -5 -16 1.2 1
1 -5 16 0.1 0.9
1 -5 16 0.4 0.8
1 5 -16 0.8 0.6
-1 -5 -16 1.9 0.9
-1 5 16 0.7 1
-1 5 16 0.9 0.9
-1 -5 -16 1.2 0.9
1 -5 16 2.7 1
-1 5 16 1.6 1.1
-1 -5 -16 -0.3 0.9
1 5 16 -0.2 0.7
-1 -5 16 2 0.9
1 -5 -16 0.4 0.7
-1 5 -16 3.1 1
-1 -5 16 1.4 0.9
1 -5 -16 1.9 0.9
1 -5 -16 0.3 0.8
1 -5 -16 0 0.8
1 5 16 2.1 1
1 5 16 2.3 1
1 5 16 0.6 0.9
-1 5 -16 0.8 0.8
-2 5 16 0.5 1.2
2 5 -16 0.5 0.6
-2 5 16 0.2 0.8
-2 -5 -16 -0.2 1
2 5 -16 0.2 0.7
2 -5 16 1.8 0.8
-2 5 16 1.5 1
2 5 -16 0.3 0.6
-2 -5 -16 0.9 0.9
-2 5 16 0.9 1
-2 -5 -16 -0.9 0.9
-2 -5 -16 -0.4 0.8
2 -5 16 1.1 0.9
2 5 -16 2 0.8
2 -5 -16 0.1 0.8
-2 -5 16 0.7 0.8
-2 -5 16 1.8 0.8
-2 5 -16 2 0.9
-2 -5 16 1.4 0.8
2 -5 -16 0.5 0.7
2 5 16 0.7 0.8
2 5 16 0.1 0.8
-2 -5 16 1.5 0.8
2 -5 -16 2.3 0.9
-2 5 -16 2.5 0.9
2 -5 -16 0.1 0.9
-3 5 16 7.9 2.2
-3 5 16 12 2.3
-3 5 16 6.7 2.3
3 -5 16 12.5 2.3
3 5 -16 11.1 2
-3 -5 -16 10.2 2.1
3 -5 16 12.1 2.2
3 5 -16 12.5 2.1
3 5 -16 10 2
3 5 -16 12 2
-3 -5 -16 11.4 2.2
-3 5 -16 8.6 2.1
-3 5 -16 12.5 2.2
3 -5 -16 12.9 2.1
3 -5 -16 11.1 2.2
3 -5 -16 8.7 2.1
3 5 16 9.6 2.2
3 5 16 8.6 2
-3 -5 16 14.9 2.1
-3 -5 16 10 2
3 -5 -16 10.5 2.1
3 5 16 10.5 2
-3 -5 16 8.6 2
-3 -5 16 12.2 2
-4 5 16 80.59 11.6
4 5 -16 67.09 11.3
-4 -5 -16 92.79 11.5
4 -5 16 67.29 11.4
-4 -5 -16 66.89 11.4
4 5 -16 82.99 11.3
4 -5 16 66.39 11.4
-4 5 16 82.29 11.5
4 5 16 72.99 11.4
4 -5 -16 51.39 11.3
-4 5 -16 80.79 11.5
4 5 16 79.49 11.4
-4 -5 16 64.49 11.3
4 5 16 81.19 11.4
-4 -5 16 78.69 11.3
-4 -5 16 71.89 11.3
4 -5 -16 81.39 11.5
4 -5 -16 69.59 11.4
-4 -5 16 72.79 11.3
5 5 -16 0.7 0.6
5 -5 16 -0.8 0.9
5 5 -16 1.4 0.8
5 5 -16 0.5 0.6
5 5 -16 -0.1 0.8
-5 -5 -16 -0.4 0.8
-5 -5 -16 1.2 1.1
5 -5 16 2.2 1.1
-5 5 16 0 1
-5 5 16 1.9 1.3
5 -5 -16 0 0.7
5 -5 -16 0 0.9
-5 -5 16 1 0.9
5 5 16 0.1 0.9
-5 5 -16 2.5 1
-5 5 -16 0.5 0.9
-5 -5 16 1.1 0.8
5 5 16 1.4 0.8
5 -5 -16 0.9 1.1
-5 -5 16 0.2 0.7
5 5 16 1 1
-5 -5 16 0.9 0.8
-6 5 16 1 1.4
6 -5 16 3.3 1.2
-6 -5 -16 3 1.2
-6 5 16 2.9 1.5
-6 -5 -16 5.4 1.4
6 5 -16 4.2 1
6 -5 16 2.7 1.3
6 5 -16 3.5 1
6 -5 -16 3 1.3
6 5 16 3.2 1.2
6 -5 -16 3.2 1.3
-6 5 -16 3.5 1.3
6 5 16 3 1.3
-6 5 -16 2.7 1.3
6 -5 -16 1.8 1
-7 -5 -16 46.6 8
-7 5 16 52.09 8.3
7 5 -16 52.39 7.7
-7 5 16 42.3 8
-7 -5 -16 44.3 7.9
7 -5 -16 43.9 8
7 5 16 49.99 8
7 -5 -16 37.4 7.9
7 5 16 54.99 7.9
-7 5 -16 74.19 8.1
0 -6 16 1.4 1
0 -6 16 3 1.1
0 6 -16 5.7 1.1
0 -6 -16 2.6 1.2
0 -6 -16 3.2 1.5
0 6 16 1.6 1.3
0 -6 16 0.8 0.9
0 6 -16 2.2 1
0 6 -16 3.8 1
0 -6 -16 4.1 1.1
0 -6 16 4.1 1.1
0 6 -16 4.7 1.2
0 6 16 4.2 1.2
0 6 16 4.4 1.6
0 -6 -16 4.3 1.2
0 6 16 5.6 1.3
1 -6 16 53.49 8.2
-1 -6 -16 55.29 8.2
1 -6 16 43.7 8.3
1 6 -16 55.39 8.2
-1 6 16 60.09 8.4
1 -6 16 50.69 8.2
-1 6 16 60.69 8.3
1 -6 16 49.8 8.2
-1 -6 -16 57.09 8.3
1 6 -16 52.09 8.2
1 6 -16 52.89 8.2
1 -6 -16 53.49 8.3
1 -6 -16 59.49 8.3
1 6 16 37.2 8.3
-1 6 -16 52.59 8.2
1 6 16 49.6 8.3
-1 6 -16 45.4 8.2
-1 -6 16 51.69 8.2
-1 6 -16 45.9 8.2
1 6 16 50.49 8.2
1 -6 -16 47 8.2
-1 -6 16 62.59 8.2
-1 6 -16 59.99 8.3
2 6 -16 9.3 2.3
2 6 -16 16.3 2.5
-2 6 16 15.7 2.7
-2 6 16 10.1 2.7
2 -6 16 13.1 2.5
2 6 -16 18.1 2.5
-2 -6 -16 16.3 2.6
-2 -6 -16 13.7 2.5
2 6 16 10.4 2.5
2 -6 -16 14.3 2.5
2 6 16 18 2.8
2 6 16 13.1 2.5
-2 -6 16 11.9 2.4
-2 -6 16 18.7 2.5
2 -6 -16 11.2 2.5
-2 6 -16 16 2.6
-2 6 -16 11.9 2.5
3 6 -16 20.1 3.2
3 6 -16 23.4 3.3
3 6 -16 20.8 3.2
3 6 -16 21 3.2
3 -6 16 15.3 3.2
3 -6 16 17.6 3.4
-3 6 16 20.2 3.5
-3 6 16 20.1 3.4
-3 -6 -16 21.2 3.4
-3 -6 16 20.4 3.2
3 6 16 18.8 3.4
-3 6 -16 19.5 3.4
3 6 16 16.5 3.2
-3 -6 16 18.6 3.2
-3 -6 16 15 3.2
3 -6 -16 19 3.4
3 6 16 15.6 3.3
-3 6 -16 15.7 3.3
-3 -6 16 19.8 3.2
3 -6 -16 20.5 3.3
4 6 -16 40.1 5.4
-4 -6 -16 33.9 5.6
-4 6 16 37.3 5.8
4 6 -16 29.2 5.4
4 6 -16 33.1 5.3
4 -6 16 37.3 5.7
-4 -6 -16 34 5.6
-4 6 16 31.3 5.7
4 -6 16 42.5 5.7
-4 -6 16 33 5.4
-4 -6 16 32.5 5.4
-4 6 -16 27.8 5.5
-4 -6 16 40.6 5.4
4 6 16 21.8 5.4
4 -6 -16 29.9 5.6
4 6 16 31.5 5.5
4 -6 -16 28.4 5.5
-4 6 -16 38 5.7
-4 -6 16 42.4 5.4
4 6 16 34.1 5.6
-5 6 16 36.5 7.4
-5 -6 -16 34.4 7.2
5 6 -16 49.2 7.1
-5 6 16 41.5 7.4
-5 -6 -16 47.4 7.3
5 -6 16 48.8 7.4
5 -6 16 47 7.4
5 6 -16 48.9 7.1
5 -6 -16 47.4 7.4
-5 6 -16 46.1 7.4
-5 -6 16 53.89 7.1
-5 6 -16 38.2 7.3
5 6 16 52.79 7.2
5 -6 -16 39 7.3
5 6 16 35.6 7.2
-6 6 16 20.6 4.2
6 6 -16 21.6 3.8
-6 6 16 21.5 4.1
6 6 -16 24.1 3.8
-6 -6 -16 20.4 4
-6 -6 -16 23.3 4.1
6 -6 16 28.3 4.2
6 -6 -16 21.5 4.1
6 6 16 26.6 4
7 -6 16 13.6 2.6
-7 -6 -16 12.8 2.4
-7 -6 -16 10.1 2.5
7 6 -16 11.1 2.1
7 6 -16 12 2.1
-7 6 16 10.3 2.7
-7 6 16 11 2.7
7 -6 16 11.5 2.5
7 -6 -16 10.2 2.4
-7 6 -16 10.8 2.4
7 6 16 10.7 2.4
-7 6 -16 13.4 2.5
7 6 16 13.8 2.4
7 -6 -16 12.2 2.5
0 -7 16 -0.8 0.9
0 -7 16 -1.7 0.6
0 -7 -16 0 0.8
0 7 -16 0 0.7
0 -7 -16 0.1 0.8
0 7 16 1.3 1
0 -7 16 -0.8 0.9
0 7 -16 -1.3 0.4
0 7 16 0.3 1.1
0 7 -16 0.1 0.7
0 7 -16 -0.6 0.7
1 -7 16 56.79 9
-1 -7 -16 70.39 9.1
1 7 -16 59.99 9
-1 7 16 65.29 9.2
1 7 -16 66.79 9
1 7 -16 51.49 8.9
1 -7 16 60.99 9
1 7 -16 57.49 9
-1 -7 -16 55.39 9
-1 7 16 54.29 9.1
1 -7 -16 49.1 9
-1 -7 16 53.59 9
-1 7 -16 55.19 9
-1 7 -16 75.79 9.1
1 7 16 57.59 9.1
1 -7 -16 41.2 9
-1 -7 16 61.79 9
1 7 16 61.39 9.1
-1 7 -16 49.6 9
-1 -7 16 53.59 9
-1 -7 16 58.59 9
-2 7 16 10.3 2.8
2 -7 16 14.8 2.7
2 7 -16 18.2 2.6
2 7 -16 18.2 2.7
-2 7 16 11.3 2.8
-2 -7 -16 11.5 2.6
2 7 -16 17.3 2.7
-2 -7 -16 15 2.7
2 -7 16 16.4 2.8
-2 7 -16 15.6 2.7
2 7 16 12.8 2.7
-2 -7 16 13.7 2.6
-2 -7 16 15.9 2.6
-2 7 -16 15.6 2.7
2 -7 -16 18.1 2.9
2 7 16 10.6 2.7
3 -7 16 23.2 4.2
-3 7 16 28.5 4.4
3 7 -16 29.7 4.1
3 -7 16 25.4 4.2
-3 -7 -16 27.5 4.2
-3 -7 -16 23.1 4.1
-3 7 16 19 4.3
3 7 -16 18.2 4
3 7 -16 27 4
-3 -7 16 24.4 4
3 -7 -16 25.9 4.2
3 7 16 19.5 4.1
3 -7 -16 26.3 4.2
-3 7 -16 27.2 4.2
-3 7 -16 15.9 4
-3 -7 16 30.6 4.1
-3 -7 16 31.3 4.1
3 7 16 18.5 4.1
-3 -7 16 29.5 4.2
4 7 -16 31.3 4.2
4 -7 16 26.9 4.3
-4 7 16 31.3 4.6
4 7 -16 24.3 4
-4 -7 -16 25.8 4.3
4 7 -16 16.4 4
-4 7 16 26.6 4.5
4 -7 16 32.2 4.5
-4 -7 -16 21.7 4.1
4 7 16 21 4.2
-4 7 -16 25.9 4.3
-4 -7 16 26.2 4.1
4 -7 -16 22.5 4.3
-4 -7 16 26.4 4.1
4 7 16 19.2 4.2
-4 7 -16 24.4 4.3
4 -7 -16 21.5 4.2
-4 -7 16 28.2 4.1
-4 -7 16 30 4.2
5 -7 16 3.9 1.3
-5 7 16 7.1 1.8
5 7 -16 3.4 1
-5 7 16 3.1 1.7
5 7 -16 2.6 1.1
-5 -7 -16 3.6 1.2
-5 -7 -16 3.2 1.2
5 7 16 3.6 1.3
5 7 16 3.2 1.4
5 -7 -16 3 1.2
5 -7 -16 2.3 1.3
-5 7 -16 -0.2 1.1
-5 7 -16 4.6 1.2
-6 -7 -16 6.5 1.7
6 -7 16 8.3 1.9
6 7 -16 5.9 1.4
-6 7 16 5.7 1.9
6 7 -16 6.5 1.4
-6 -7 -16 5.1 1.6
-6 7 16 7 2.1
6 7 16 4.6 1.7
-6 7 -16 11 2.4
-6 7 -16 10.9 2
6 -7 -16 4 1.6
6 7 16 5.1 1.6
6 -7 -16 4.8 1.6
0 8 16 3.6 1.4
0 -8 16 4.1 1.2
0 -8 16 3.3 1.1
0 8 -16 4.9 1.1
0 -8 -16 2.3 1.1
0 8 -16 1.1 0.9
0 8 16 2.5 1.2
0 -8 16 2.5 1.1
0 -8 -16 3.7 1.2
0 8 -16 1.7 0.9
0 8 -16 1.9 0.9
1 8 -16 0.5 0.8
1 8 -16 1.2 0.8
-1 -8 -16 1.3 0.9
1 8 -16 2.7 0.9
-1 -8 -16 0.5 0.9
-1 8 16 1.5 1.1
-1 8 16 1.8 1.5
1 -8 16 1.1 0.9
1 8 -16 0.1 0.7
1 -8 16 -1.1 0.8
1 -8 -16 0.2 0.9
-1 -8 16 0.8 0.8
1 -8 -16 0.6 0.8
-1 -8 16 1.5 0.9
1 8 16 0.4 1.1
-1 -8 16 2.5 1
-1 8 -16 -0.2 0.7
-1 8 -16 -0.3 0.8
-1 -8 16 1 1
-2 -8 -16 0 0.9
2 8 -16 -0.6 0.6
2 -8 16 0.4 0.8
-2 -8 -16 0 0.9
2 8 -16 -1.2 0.6
2 8 -16 -0.6 0.7
-2 8 16 0.1 1.2
-2 -8 16 -0.2 0.7
2 -8 -16 -0.8 0.9
-2 8 -16 0.5 0.9
2 8 16 3.5 1.3
-2 -8 16 -1 0.7
2 -8 -16 3.1 1
2 8 16 -0.7 0.9
-2 -8 16 0.6 0.8
-2 8 -16 0 0.8
-2 -8 16 0.7 0.8
-3 -8 -16 2.5 1.1
3 8 -16 1.1 0.8
3 -8 16 3.6 1.3
3 8 -16 2.1 1
3 -8 16 2.6 1.1
3 8 -16 2.6 0.9
-3 8 16 0.9 1.2
-3 8 16 1.6 1.5
-3 -8 -16 1.6 1
3 8 16 0.9 1
-3 -8 16 3 1
-3 8 -16 2.5 1.1
3 -8 -16 2.1 1.2
-3 8 -16 2.1 1
3 -8 -16 2.6 1.1
3 8 16 2.1 1.2
-3 -8 16 4 1
-3 -8 16 3.1 1
-4 8 16 -0.7 1.2
4 8 -16 -0.3 0.7
4 -8 16 -2.2 0.8
-4 -8 -16 1 1
4 8 -16 -0.1 0.8
4 -8 16 -1.5 0.8
4 8 -16 0.7 0.7
-4 -8 -16 -1.5 0.8
-4 8 16 -1.1 1.2
4 -8 -16 0.2 1.1
-4 -8 16 -1.2 0.7
4 8 16 -0.6 1
-4 -8 16 -1 0.7
4 -8 -16 -1.1 0.9
-4 -8 16 -0.3 0.7
-4 8 -16 -0.9 0.8
-4 8 -16 1.4 1
4 8 16 -0.3 1.1
-4 -8 16 0.7 0.8
-5 8 16 48.3 7.4
5 8 -16 42.6 6.9
5 8 -16 49.9 7
-5 8 16 48.9 7.5
-5 -8 -16 54.69 7.1
-5 -8 -16 41.1 7.1
5 -8 -16 43.5 7.3
5 -8 -16 42.5 7.2
5 8 16 38.1 7.2
5 8 16 33.6 7.1
6 -8 16 1.1 1.1
-6 8 16 -0.6 1.5
-6 8 16 1.9 1.6
6 8 -16 1.5 1
6 8 -16 0.2 0.8
-6 -8 -16 1.9 1.1
6 -8 16 -0.2 1
-6 -8 -16 1.8 1.1
6 8 16 -0.1 1
-6 8 -16 1.2 1.1
-6 8 -16 1.2 1.1
6 -8 -16 1 1.2
6 8 16 0.6 1.1
6 -8 -16 0.8 1.1
0 -9 -16 -1.2 0.9
0 -9 -16 1.4 0.9
0 9 16 -0.4 1.2
0 -9 16 -1.4 0.8
0 9 16 1.2 1.1
0 -9 16 1.1 1
0 9 -16 -1.3 0.6
-1 9 16 67.29 9.8
1 -9 16 67.79 9.6
-1 9 16 55.99 9.9
-1 -9 -16 69.89 9.7
1 9 -16 59.59 9.5
1 9 -16 71.89 9.6
-1 -9 -16 65.79 9.6
1 -9 16 64.69 9.6
1 9 -16 56.49 9.6
-1 -9 16 54.39 9.5
1 9 16 42.1 9.6
-1 -9 16 58.19 9.6
-1 9 -16 70.69 9.6
1 -9 -16 58.29 9.8
-1 -9 16 58.49 9.6
-1 -9 16 65.09 9.6
1 -9 -16 56.29 9.6
-2 -9 -16 0.7 0.9
2 9 -16 0.9 0.7
2 9 -16 1.4 0.7
-2 9 16 0.4 1.6
-2 -9 -16 -0.1 0.8
-2 9 16 -2.1 1.1
2 -9 16 -1.1 0.8
2 9 -16 -1 0.7
2 -9 -16 0.8 1
2 9 16 -2 1.1
-2 -9 16 -0.2 0.8
-2 9 -16 0.8 0.9
2 9 16 -1.7 1
-2 9 -16 0.6 0.8
-2 -9 16 -0.2 0.8
2 -9 -16 1 1
-2 -9 16 0.5 0.9
3 -9 16 35.4 6
3 -9 16 45.5 6.3
3 9 -16 36.1 5.8
3 9 -16 43.1 5.9
-3 -9 -16 31.9 6
-3 9 16 38.1 6.3
-3 -9 -16 38.6 6
-3 9 16 38.9 6.3
3 -9 -16 31.7 6.1
3 9 16 36.1 6.1
-3 -9 16 40.6 6
-3 -9 16 38.8 6
3 -9 -16 33.7 6
-3 9 -16 28.8 6
-3 9 -16 35.9 6.1
3 9 16 38.5 6.2
-4 9 16 1.2 1.4
-4 9 16 1.3 1.5
4 9 -16 3 1.1
4 -9 16 2.9 1.2
4 9 -16 0.3 0.7
4 9 -16 1.1 0.8
-4 -9 -16 0.9 1
4 -9 16 -0.4 0.9
4 -9 -16 2.8 1.2
4 9 16 2.6 1.4
4 -9 -16 0 1.1
-4 -9 16 3.7 1
-4 9 -16 1.5 1
-4 -9 16 1.8 1.1
-4 9 -16 2.6 1.1
-4 -9 16 2.3 1.1
-4 -9 16 1.4 0.8
4 9 16 2.2 1.1
-5 9 16 2.2 1.6
5 -9 16 3.3 1.3
5 -9 16 3.1 1.2
-5 9 16 1 1.5
5 9 -16 1.3 0.9
-5 -9 -16 1 1.1
5 9 -16 2.6 1
-5 -9 -16 0.9 1
5 9 16 2.9 1.3
5 -9 -16 0.6 1
-5 9 -16 1.3 1
5 -9 -16 1.8 1.3
-5 9 -16 2.7 1.2
5 9 16 -0.9 1.2
6 -9 16 2 1.2
-6 -9 -16 1.1 1.2
6 9 -16 0.5 0.8
-6 9 16 -0.9 1.7
-6 -9 -16 1.8 1.1
6 9 -16 1.8 0.9
-6 9 -16 1.4 1.3
6 9 16 0.8 1.2
-6 9 -16 0.1 1
6 -9 -16 -0.6 1
6 9 16 0 1.3
0 -10 -16 0.1 0.9
0 10 -16 0.4 0.8
0 10 -16 1.5 1
0 -10 16 -0.5 0.9
0 10 16 0.8 1.3
0 10 16 0.9 1.1
0 -10 16 -0.9 0.8
0 -10 -16 -0.4 1
1 10 -16 49.1 9.3
-1 -10 -16 62.09 9.3
-1 10 16 56.09 9.6
1 -10 16 65.49 9.4
1 10 -16 59.09 9.3
1 10 -16 57.49 9.3
-1 -10 -16 59.59 9.4
-1 10 16 51.19 9.6
1 10 -16 63.59 9.3
-1 -10 16 69.79 9.3
1 10 16 35.4 9.4
-1 -10 16 53.39 9.3
1 -10 -16 58.49 9.4
1 -10 -16 65.09 9.4
1 10 16 59.89 9.6
-1 -10 16 75.89 9.5
-1 10 -16 68.79 9.3
2 -10 16 2.1 1.3
2 10 -16 4.2 1.1
-2 10 16 2.2 1.6
2 -10 16 4.4 1.4
-2 -10 -16 2.9 1.3
2 10 -16 3.1 1
-2 10 16 5.9 1.7
2 10 -16 2 1
-2 -10 -16 2.3 1.1
-2 -10 16 4.3 1.2
-2 10 -16 3.5 1.1
-2 -10 16 1.7 1
2 10 16 3.6 1.5
2 -10 -16 1.8 1.2
2 -10 -16 2.9 1.3
-2 -10 16 2.7 1.1
2 10 16 3.8 1.4
-2 -10 16 3.2 1.3
-2 10 -16 1 1
-3 -10 -16 31.6 6.9
-3 -10 -16 41.5 7
3 10 -16 55.59 6.9
3 10 -16 39.7 6.8
-3 10 16 32.5 7
3 -10 16 50.69 7.2
-3 10 16 35.9 7.1
3 10 -16 50.19 6.8
3 -10 16 42.5 7.1
-3 10 -16 48 7.1
3 -10 -16 38.6 7
3 10 16 40.6 7.1
-3 -10 16 42.5 6.8
-3 -10 16 42.1 6.8
-3 10 -16 46.7 7.1
-3 -10 16 48.3 6.9
-3 -10 16 45.9 7.1
3 -10 -16 42.8 7.1
4 10 -16 31 3.9
4 10 -16 20.2 3.8
4 10 -16 24.6 3.7
-4 -10 -16 20.2 3.8
-4 10 16 22.6 4.2
-4 -10 -16 19.5 3.9
-4 10 16 25.9 4.2
4 -10 -16 23.6 4
4 10 16 18.5 3.9
4 -10 -16 17.1 3.9
4 10 16 20.9 4
-4 -10 16 26 3.8
-5 -10 -16 1.3 1.1
5 -10 16 -0.8 1.1
5 10 -16 1.9 1
5 10 -16 -0.5 0.8
5 -10 16 1 1.2
-5 -10 -16 1.6 1.1
5 -10 -16 0.7 1.1
5 10 16 2 1.3
5 10 16 -0.8 1.2
-5 10 -16 -0.2 1
-5 10 -16 1.6 1.1
0 -11 16 -1.1 0.8
0 -11 -16 -0.6 1
0 -11 -16 -0.4 0.9
0 11 -16 -0.6 0.8
0 11 -16 -1.2 0.8
0 11 16 -1.9 1.1
0 -11 16 0.3 0.9
0 11 16 0.2 1.5
1 11 -16 72.49 11.5
-1 11 16 59.69 11.7
1 11 -16 61.59 11.4
-1 -11 -16 76.69 11.6
-1 11 16 77.69 11.9
-1 -11 -16 77.39 11.6
1 -11 16 71.99 11.5
1 -11 16 72.19 11.9
1 11 -16 81.29 11.6
-1 -11 16 76.39 11.5
-1 -11 16 82.29 11.6
-1 11 -16 72.99 11.5
-1 11 -16 85.09 11.6
1 -11 -16 60.39 11.7
1 11 16 79.89 11.7
1 -11 -16 72.99 11.6
1 11 16 76.99 11.7
-2 11 16 19.8 4.2
-2 -11 -16 17.8 4
2 11 -16 26.2 4
2 -11 16 27.5 4.2
-2 -11 -16 24 4.1
2 11 -16 27.3 4
-2 11 16 30 4.4
2 11 -16 19.5 3.9
2 11 -16 22.3 4
2 -11 16 26.8 4.2
2 -11 -16 25.2 4.2
2 -11 -16 25.8 4.2
2 11 16 17.8 4.1
-2 -11 16 20.3 4.1
-2 -11 16 20.4 4
2 11 16 18.9 4.2
-2 11 -16 28.6 4.1
-2 -11 16 29.7 4.2
-3 11 16 66.39 9.5
3 11 -16 55.09 7.8
-3 -11 -16 48.4 8
-3 -11 -16 36.9 7.9
3 11 -16 55.39 7.8
-3 -11 16 58.39 7.8
3 11 16 49.7 8.1
-3 -11 16 54.29 8.1
3 11 16 45.1 8.1
-3 -11 16 50.59 7.8
-3 -11 16 43.4 7.8
3 -11 -16 39.8 7.9
-4 11 16 14.5 3.4
-4 -11 -16 13.2 2.8
4 11 -16 19 2.9
-4 -11 -16 17.8 3.1
4 -11 16 13.6 3
4 11 -16 18.9 2.8
4 -11 16 20.9 3.3
4 11 -16 15.2 2.7
4 11 16 16.2 3.2
4 11 16 15.4 3.1
-4 11 -16 13.5 3
-4 11 -16 12.4 2.9
-5 -11 -16 9.4 1.9
-5 11 16 10.3 2.4
-5 -11 -16 4.8 1.7
5 11 -16 10.2 1.7
5 -11 16 5.7 1.8
5 11 -16 9.6 1.8
-5 11 16 3.2 2.1
5 -11 16 9 2
-5 11 -16 5.1 1.8
-5 11 -16 6.8 1.7
5 11 16 8.4 2.1
5 -11 -16 8 2
0 -12 16 147.89 22.2
0 -12 -16 159.98 22.3
0 -12 16 157.88 22.2
0 12 -16 128.99 22.1
0 -12 -16 125.79 22.2
0 12 -16 163.38 22.2
0 12 16 128.29 22.4
-1 -12 -16 81.89 12.5
-1 -12 -16 72.89 12.4
1 12 -16 79.09 12.4
1 -12 16 84.39 12.4
1 12 -16 89.29 12.4
-1 12 16 65.09 12.7
1 -12 16 73.49 12.4
-1 12 16 70.69 12.7
-1 -12 16 78.99 12.4
-1 12 -16 99.09 12.5
1 12 16 86.69 12.6
-1 -12 16 90.09 12.4
1 -12 -16 74.79 12.5
1 -12 -16 72.49 12.4
-1 12 -16 80.19 12.4
1 12 16 62.29 12.6
2 12 -16 23.6 4
-2 -12 -16 20.3 4.1
2 -12 16 21.7 4.1
2 -12 16 26.8 4.2
2 12 -16 24.3 4
-2 -12 -16 18.8 4
-2 -12 16 24.6 4.1
-2 12 -16 23.4 4.2
2 12 16 28.9 4.4
-2 -12 16 30.9 4.2
2 12 16 23.7 4.3
-2 12 -16 20.5 4
-3 12 16 0.6 1.4
3 12 -16 0.4 0.8
3 -12 16 1.7 1.2
-3 12 16 0.9 1.4
-3 -12 -16 0.5 1
3 12 -16 -0.5 0.9
-3 -12 -16 0.4 1
3 12 -16 0.9 0.9
3 -12 16 0.3 1.1
3 12 16 1 1.6
3 -12 -16 1.8 1.3
-3 -12 16 0.4 1
-3 12 -16 0.6 1.1
3 12 16 0.3 1.3
-3 -12 16 1.3 1
-3 12 -16 1.1 1.3
-3 -12 16 -0.5 0.9
4 12 -16 5.3 1.4
-4 -12 -16 2.4 1.3
4 12 -16 3.8 1.1
4 -12 16 5.7 1.6
4 12 -16 5 1.2
4 -12 16 2.5 1.4
-4 -12 -16 5.5 1.5
-4 12 16 4.9 1.9
-4 12 16 4.5 1.9
4 12 -16 3.5 1.2
-4 12 -16 4.2 1.4
-4 12 -16 2.9 1.4
4 -12 -16 3.3 1.4
4 -12 -16 2.7 1.4
4 12 16 5.6 1.8
4 12 16 5.8 1.7
0 13 -16 -0.2 0.9
0 13 -16 0.2 0.9
0 -13 16 -1.1 0.9
0 -13 16 -1 0.9
-1 13 16 15.6 3.7
1 13 -16 27.1 3.6
1 -13 16 25.4 3.9
1 -13 16 16.3 3.5
1 13 -16 20 3.4
-1 13 16 12.6 3.5
1 -13 -16 24.5 3.8
-1 -13 16 18.3 3.4
-1 13 -16 20.8 3.4
1 -13 -16 17.9 3.6
1 13 16 20.5 3.8
-1 13 -16 16.6 3.6
-1 -13 16 21 3.5
-2 13 16 1.5 1.7
-2 -13 -16 1.7 1.3
-2 13 16 0.8 1.3
2 13 -16 0.3 0.9
-2 -13 -16 -0.3 1.1
2 -13 16 3.3 1.4
2 13 -16 0.7 0.9
2 13 -16 0.8 0.9
-2 -13 16 -0.3 0.9
2 13 16 2.5 1.7
2 13 16 2.9 1.6
-2 -13 16 0.8 0.9
2 -13 -16 -2 1
2 -13 -16 2.1 1.2
3 -13 16 28.2 4.3
3 -13 16 19.3 4
3 13 -16 24.7 3.9
-3 -13 -16 20.1 3.9
-3 13 16 16 4.1
3 13 -16 23.4 3.9
-3 -13 -16 26.3 4.1
3 13 -16 26.2 3.9
3 13 -16 22.2 3.9
-3 13 16 22.1 4.2
-3 13 -16 17.8 3.9
3 13 16 27.7 4.3
-3 -13 16 22.4 4
3 -13 -16 19.6 4
3 -13 -16 21.5 4.2
3 13 16 22.3 4.2
4 13 -16 10.4 2
-4 13 16 7.9 2.5
4 13 -16 8.6 1.7
-4 -13 -16 7.3 2
4 13 -16 8.6 1.8
4 -13 16 12.2 2.3
-4 -13 -16 9.2 2
4 13 -16 14 2.1
4 -13 16 7.2 2.1
-4 13 16 7.8 2.2
4 13 16 7.6 2.2
-4 13 -16 11.4 2.1
4 13 16 6.7 2.2
4 -13 -16 6.4 2
-4 13 -16 5.1 1.9
4 -13 -16 8.3 2.2
0 14 -16 29.7 5.9
0 -14 -16 37.5 5.9
0 14 16 27.5 6
0 14 -16 49.1 6.1
0 -14 -16 30 5.9
0 -14 16 37.6 5.9
0 14 16 34.2 6.1
0 -14 16 40.1 5.9
-1 14 16 11.4 3.1
-1 -14 -16 14.6 2.9
-1 -14 -16 13.2 2.9
-1 14 16 16.5 3.2
1 14 -16 17.3 2.8
1 -14 -16 11.3 2.9
1 -14 -16 14.8 3
-1 -14 16 18 2.9
-1 -14 16 11.3 2.7
-1 14 -16 19.2 3
1 14 16 15.4 3.2
-2 14 16 0.2 1.3
2 14 -16 2.2 1.1
-2 14 16 3.7 1.7
-2 -14 -16 4.2 1.3
2 -14 16 1.4 1.2
2 14 -16 1 0.9
2 -14 16 1.1 1.2
2 14 -16 3 1.2
-2 14 -16 0.7 1.2
-2 -14 16 3.8 1.3
2 -14 -16 1.8 1.3
-2 -14 16 1.9 1.1
2 -14 -16 1.9 1.3
-2 14 -16 1.1 1.2
3 -14 16 14.6 2.7
-3 14 16 9 2.7
3 14 -16 12.2 2.3
-3 14 16 10.4 3
3 14 -16 14.3 2.5
3 -14 16 10.8 2.6
-3 -14 -16 13.6 3.1
-3 14 -16 15.4 2.7
3 -14 -16 14.8 2.8
-3 14 -16 11 2.5
3 14 16 10.9 2.8
3 -14 -16 9.4 2.5
0 -15 -16 0.8 1.3
0 -15 -16 1 1.3
0 15 -16 -0.6 0.8
0 15 16 -1.6 1.5
-1 -15 -16 3.2 1.5
-1 15 16 3.8 1.7
1 -15 16 0.3 1.2
1 15 -16 3 1.1
-1 -15 -16 1.8 1.3
-1 15 16 2.9 1.7
1 15 -16 2.3 1.2
1 -15 16 3.3 1.3
-1 15 -16 3.3 1.2
-1 -15 16 0.6 1.1
-1 -15 16 2.5 1.3
1 -15 -16 4.2 1.6
1 -15 -16 2.1 1.3
-1 15 -16 2.9 1.3
1 15 16 1.9 1.7
1 15 16 -0.3 1.4
0 0 -17 0.2 0.8
0 0 -17 0.5 0.8
0 0 -17 0.9 0.9
0 0 -17 -1.1 0.6
0 0 17 -0.4 0.7
0 0 17 -0.4 0.8
0 0 17 0.6 0.9
0 0 17 0.8 0.9
1 0 -17 0.1 0.9
-1 0 17 -0.5 0.7
-1 0 -17 0 0.8
1 0 -17 0.4 0.7
1 0 -17 0.2 0.6
-1 0 -17 0.7 0.7
-1 0 17 0.2 0.8
1 0 17 -0.8 0.7
-1 0 -17 -1.1 0.6
-1 0 -17 0.1 0.8
-1 0 17 -0.2 0.8
1 0 17 -0.1 0.8
1 0 -17 0.9 0.6
-1 0 17 -0.9 0.7
1 0 17 0.8 0.8
1 0 17 0.1 0.7
-2 0 17 0.7 0.8
2 0 17 1.3 0.8
-2 0 -17 -0.1 0.8
-2 0 17 0.1 0.8
2 0 17 0.2 0.8
2 0 -17 -0.7 0.8
2 0 17 1.1 0.7
-2 0 -17 0 0.9
-2 0 17 0.3 0.8
-2 0 -17 -0.8 0.8
-2 0 -17 -0.8 0.7
2 0 -17 0.7 0.7
2 0 17 -0.7 0.7
-2 0 17 1.2 0.9
2 0 -17 -0.5 0.6
3 0 17 -0.1 0.7
3 0 17 -0.4 0.7
-3 0 17 0.6 0.9
-3 0 -17 -0.3 0.7
3 0 -17 0 0.6
3 0 -17 -0.1 0.8
-3 0 -17 0 0.8
-3 0 17 0.2 0.8
3 0 -17 -0.7 0.6
-4 0 -17 -0.9 0.8
-4 0 17 -1.2 0.8
4 0 -17 0.3 0.8
-4 0 17 0 0.8
4 0 17 0.1 0.8
4 0 -17 0.6 0.7
-4 0 -17 3 1.1
4 0 -17 0.6 0.7
4 0 17 -0.6 0.8
-5 0 17 -0.6 0.9
5 0 -17 0.4 0.8
-5 0 17 0.9 1.1
5 0 -17 -0.7 0.6
-5 0 17 0.9 0.8
-5 0 -17 -1.2 0.8
5 0 17 -0.8 0.8
5 0 -17 0.5 0.8
-5 0 -17 -0.8 0.9
5 0 17 -0.9 0.7
-6 0 17 1.6 1.1
6 0 17 0.8 0.9
-6 0 17 -0.9 0.7
6 0 -17 0.1 0.7
-6 0 17 0 0.9
6 0 -17 0.3 0.8
-6 0 -17 -0.1 0.9
6 0 -17 -0.7 0.7
-6 0 -17 -1.4 0.9
6 0 17 0.1 0.9
-7 0 -17 1.3 1.2
7 0 17 -0.7 1
7 0 -17 0.7 0.8
7 0 -17 1.3 0.9
7 0 -17 0.5 1.3
7 0 -17 0.4 0.8
-7 0 -17 0.4 1
7 0 17 -0.4 0.9
0 -1 -17 0.8 0.8
0 1 17 0.6 0.9
0 -1 -17 -0.3 0.6
0 1 -17 0.4 0.6
0 1 17 1.1 0.8
0 1 17 -1.4 0.8
0 -1 -17 0.3 0.7
0 1 17 0.4 0.8
0 -1 -17 -0.6 0.8
0 -1 17 -0.7 0.6
0 -1 17 0.7 0.9
0 -1 17 0 0.8
0 1 -17 0.3 1.1
0 -1 17 0.1 0.8
1 1 -17 2.3 1
-1 1 17 2 0.9
1 -1 17 2.5 1
-1 -1 -17 2 0.9
1 -1 17 1.3 0.9
-1 1 17 2.4 0.9
1 1 -17 2.5 0.8
-1 -1 -17 2.5 0.9
1 -1 17 5.1 1
-1 -1 -17 2.6 1
-1 1 17 -0.2 0.8
1 1 -17 2.7 0.8
-1 1 17 1.6 0.9
1 -1 17 1.5 0.9
1 1 -17 0.8 0.8
-1 -1 -17 0.7 0.9
1 1 17 2.6 0.9
1 -1 -17 0 0.8
-1 -1 17 2.5 0.9
-1 -1 17 3.3 1
1 1 17 3.7 1
1 -1 -17 1.7 0.8
-1 -1 17 0.9 0.8
1 -1 -17 1.3 1
-1 1 -17 1.2 0.9
-1 1 -17 1 0.8
1 -1 -17 2.5 0.8
1 1 17 1.1 1
1 1 17 1.5 0.9
-1 1 -17 0.7 0.8
-1 1 -17 -0.1 0.8
2 1 -17 39.4 5.2
-2 1 17 38.6 5.4
-2 1 17 31.9 5.3
2 -1 17 21.3 5.2
-2 -1 -17 26 5.2
-2 -1 -17 33.8 5.4
-2 1 17 31.9 5.3
-2 -1 -17 40.3 5.5
-2 -1 -17 32 5.3
-2 1 17 30.6 5.3
2 -1 17 31.1 5.3
2 1 -17 38.1 5.2
2 -1 17 28 5.3
-2 1 -17 32.3 5.3
2 1 17 39.4 5.4
2 1 17 29.1 5.3
2 -1 -17 27.1 5.2
2 -1 -17 42.1 5.2
-2 -1 17 38.6 5.4
2 1 17 28.3 5.2
-2 1 -17 39.5 5.5
-2 1 -17 29.2 5.3
2 1 17 36.9 5.4
-2 -1 17 28.2 5.3
2 -1 -17 26.5 5.2
-2 1 -17 35.8 5.4
2 -1 -17 33.1 5.3
3 1 -17 12 2
3 1 -17 10.2 2
3 1 -17 14.5 2.2
-3 1 17 9.6 2.2
-3 1 17 12.6 2.3
3 -1 17 8.6 2.1
-3 -1 -17 11.5 2.2
-3 1 17 11.2 2.2
-3 1 17 10.5 2.1
3 -1 17 12.8 2.2
3 -1 -17 8.1 2.1
-3 -1 17 14.3 2.2
3 -1 -17 10.6 2.1
3 1 17 12.5 2.3
-3 1 -17 10.6 2.2
-3 -1 17 11.8 2.1
3 -1 -17 9.9 2
3 -1 -17 9.9 2
3 1 17 15.9 2.6
4 -1 17 9.3 2.1
4 1 -17 10.4 1.9
-4 -1 -17 12.9 2.2
-4 -1 -17 14.3 2.3
-4 1 17 8 2.1
4 1 -17 10.9 2
-4 1 17 10.8 2.1
-4 1 17 10 2.1
-4 1 17 13.4 2.2
4 -1 17 11.3 2.1
4 1 -17 8.1 1.9
4 1 17 10.6 2
4 -1 -17 10 2
-4 1 -17 11.5 2.2
-4 1 -17 9.4 2.1
4 -1 -17 9.6 1.9
4 1 17 11.2 2.1
4 -1 -17 10.5 2
-4 -1 17 9.7 2
-4 -1 17 12.8 2.1
5 1 -17 1.9 0.9
5 1 -17 0.6 0.8
-5 -1 -17 1.9 1
-5 -1 -17 1 1
-5 1 17 -1.3 0.9
-5 1 17 1.9 1
-5 1 17 -0.6 1.2
5 -1 17 2.3 1.1
-5 1 17 1.2 1
5 -1 17 1.5 0.9
5 1 -17 0.1 0.6
5 1 17 0 0.9
-5 -1 17 -0.3 0.8
5 1 17 0.5 0.9
5 -1 -17 0.6 0.9
5 -1 -17 1.2 0.7
-5 -1 17 1.7 1.1
-5 -1 17 0.3 0.9
5 -1 -17 0.6 0.7
6 1 -17 1.1 0.7
-6 1 17 2.5 1.1
-6 1 17 0.1 1.4
6 -1 17 1.5 1.1
6 1 -17 0.4 0.8
6 1 -17 0.3 0.8
-6 1 17 0.5 1
-6 1 17 0 0.8
6 -1 17 2.1 1
6 1 -17 1.1 1.1
-6 -1 -17 1.2 1.1
-6 -1 -17 0.3 1
6 1 17 0.7 1
6 -1 -17 0 0.8
-6 1 -17 -0.4 0.9
6 1 17 0.6 1
-6 -1 17 1 0.9
6 -1 -17 0.5 0.7
6 -1 -17 0.3 0.8
6 -1 -17 0.5 1
7 1 -17 -0.1 0.8
7 1 -17 0.1 0.7
-7 -1 -17 -0.4 1
7 1 -17 0 1
7 -1 17 1.3 1.1
7 -1 17 -0.1 0.9
-7 -1 -17 2 1.1
7 1 -17 0.4 0.8
7 -1 -17 -0.1 0.9
7 1 17 1 1.1
-7 1 -17 0.1 1
7 -1 -17 -0.6 0.7
-7 1 -17 -1.4 0.9
7 1 17 0 1
7 -1 -17 -0.4 0.9
7 -1 -17 1.3 1.2
0 -2 -17 1.7 0.8
0 2 17 2.5 1.1
0 2 17 2.6 0.9
0 2 17 3 1
0 -2 -17 1.8 1
0 -2 17 2.7 1
0 2 -17 1.8 1
0 -2 17 3.4 0.9
0 -2 -17 0.9 0.8
0 2 -17 1.4 0.9
0 -2 17 1.6 0.9
0 -2 -17 1.2 0.9
0 2 17 1.4 0.9
0 -2 17 3.1 0.9
0 2 -17 1.9 0.9
0 2 -17 1.8 0.8
1 2 -17 15.4 2.9
-1 -2 -17 15.7 3
1 -2 17 13.6 2.8
1 -2 17 20.8 3
-1 -2 -17 14.5 2.9
-1 -2 -17 13.4 2.8
1 -2 17 12.2 2.8
-1 2 17 21.8 3
-1 2 17 19 3
1 2 -17 22 3
-1 2 17 16.3 2.9
-1 2 17 13.5 2.9
1 2 -17 22.9 3
-1 -2 -17 14.9 2.9
1 2 -17 15.9 2.8
1 2 17 16.7 2.9
-1 -2 17 17.5 2.9
1 -2 -17 15.2 2.8
1 -2 -17 13.3 2.8
1 2 17 16.8 2.9
-1 2 -17 15.3 2.8
-1 2 -17 16.6 2.9
1 -2 -17 15.4 2.8
-1 -2 17 19.2 3
1 2 17 15.7 2.8
1 2 17 19.8 3
-1 -2 17 16.5 2.8
-1 -2 17 17 2.9
-1 2 -17 19.5 3
1 -2 -17 14.2 2.8
-2 2 17 18.3 3.2
2 -2 17 21.3 3.2
-2 2 17 18.2 3.1
2 -2 17 20.6 3.2
2 2 -17 19.8 3
-2 -2 -17 21.9 3.3
-2 2 17 12.7 3
2 -2 17 16 3.1
-2 -2 -17 14.3 3.1
-2 2 17 19.5 3.2
-2 -2 -17 19.6 3.2
-2 -2 -17 17.7 3.2
2 -2 17 18.2 3.2
2 2 -17 17.6 3
2 -2 -17 16.1 3.1
2 2 17 14.7 3
-2 2 -17 22.9 3.3
-2 2 -17 14.3 3.1
2 -2 -17 16.2 3
2 -2 -17 21.8 3.1
2 2 17 15.2 3.1
-2 2 -17 19.6 3.2
2 -2 -17 17 3.1
2 2 17 18.9 3.1
-2 2 -17 16.8 3.1
2 2 17 18.9 3.2
-3 -2 -17 25.8 4.3
-3 -2 -17 32.3 4.5
3 2 -17 26.2 4.2
3 2 -17 29.6 4.2
-3 2 17 39.8 4.6
-3 2 17 22.3 4.3
3 -2 17 30.7 4.3
-3 2 17 28.6 4.3
3 -2 17 23 4.2
3 2 -17 23.5 4.1
-3 2 17 20.2 4.2
3 -2 -17 18.5 4.1
3 -2 -17 24.7 4.2
3 2 17 21.3 4.2
-3 -2 17 30.1 4.3
3 -2 -17 25.3 4.2
-3 2 -17 31.8 4.4
3 -2 -17 20.8 4.2
3 2 17 20.4 4.1
3 2 17 27.8 4.4
-3 -2 17 29 4.2
-4 2 17 11.3 2
4 2 -17 6.1 1.5
-4 2 17 6 1.7
4 2 -17 5.8 1.4
-4 -2 -17 7.8 1.7
4 -2 17 6 1.6
4 -2 17 7.7 1.6
-4 2 17 7.5 1.6
-4 2 17 3.1 1.5
4 2 -17 10.3 1.5
4 -2 -17 5.4 1.4
4 -2 -17 5.5 1.4
-4 2 -17 8 1.7
-4 -2 17 7.7 1.5
-4 -2 17 8.5 1.6
-4 2 -17 6.3 1.6
-4 -2 17 7.8 1.5
4 -2 -17 5.3 1.5
4 2 17 9.2 1.7
4 -2 -17 8.1 1.6
-4 -2 17 6.9 1.6
4 2 17 7 1.6
-5 2 17 3.9 1.7
-5 2 17 4.7 1.4
5 2 -17 4.7 1.3
5 2 -17 4.8 1.2
-5 2 17 4.2 1.3
-5 2 17 7 1.7
5 -2 17 8.1 1.6
5 2 -17 7 1.3
-5 -2 -17 6.4 1.5
5 2 -17 6.8 1.4
5 -2 17 8.6 1.6
-5 -2 -17 5.5 1.5
-5 2 -17 7.8 1.7
-5 2 -17 5.5 1.5
5 -2 -17 4.9 1.5
-5 -2 17 5.4 1.5
-5 -2 17 3.8 1.3
-5 -2 17 5.4 1.3
5 2 17 9.4 1.7
5 -2 -17 7.5 1.5
5 2 17 6.3 1.5
5 -2 -17 5.5 1.4
-5 -2 17 5.3 1.4
-6 -2 -17 24.7 4.4
6 2 -17 31.8 4.1
-6 2 17 23.5 4.5
-6 2 17 30.6 4.4
6 -2 17 29.8 4.5
6 2 -17 23.2 4.1
6 -2 17 17.3 4.3
6 2 -17 25.2 4.3
-6 2 17 24.3 4.4
-6 2 17 26.7 4.4
-6 -2 -17 30.8 4.5
6 -2 -17 22.1 4.3
-6 2 -17 24.9 4.4
6 2 17 34.7 4.6
6 2 17 29.9 4.4
-6 -2 17 26.2 4.3
6 -2 -17 19.4 4.1
6 -2 -17 24.3 4.3
-6 2 -17 26.7 4.4
-7 -2 -17 12.9 2.4
7 -2 17 16.5 2.6
7 -2 17 14.9 2.5
7 2 -17 9.5 2.1
-7 -2 -17 15.1 2.5
7 2 -17 14.4 2.3
-7 2 -17 12.1 2.4
7 -2 -17 9.4 2.1
-7 2 -17 9.6 2.3
7 2 17 10.8 2.4
7 -2 -17 9.2 2.2
7 -2 -17 13.6 2.4
7 2 17 10.8 2.3
0 3 17 0.2 0.9
0 -3 17 -0.6 0.8
0 -3 17 1.7 0.9
0 -3 -17 0.1 0.8
0 3 -17 0 0.8
0 -3 -17 -0.2 0.7
0 -3 -17 1.4 0.9
0 3 17 -0.9 0.8
0 -3 17 0.4 0.9
0 3 17 -1.2 0.7
0 -3 -17 0.7 0.8
0 3 -17 -0.6 0.6
0 3 -17 0.6 0.8
0 -3 17 -0.7 0.7
0 3 -17 0 0.7
1 -3 17 72.09 10.8
1 -3 17 72.09 10.8
-1 -3 -17 70.69 10.8
-1 3 17 74.59 10.8
-1 -3 -17 76.69 10.9
-1 -3 -17 69.89 10.8
1 -3 17 78.29 10.9
1 3 -17 63.99 10.8
-1 3 17 66.79 10.8
-1 3 17 71.39 10.8
1 3 -17 69.29 10.8
1 3 -17 77.59 10.8
-1 3 17 61.39 10.8
-1 -3 -17 70.79 10.8
1 -3 17 69.09 10.8
1 3 -17 72.89 10.8
1 -3 -17 61.49 10.8
1 3 17 65.09 10.8
-1 -3 17 72.29 10.8
-1 3 -17 76.99 10.8
1 -3 -17 56.49 10.7
-1 -3 17 65.29 10.8
-1 -3 17 78.69 10.8
1 3 17 59.99 10.8
-1 3 -17 73.09 10.8
1 3 17 66.69 10.8
-1 -3 17 71.09 10.8
1 3 17 67.99 10.8
-1 3 -17 76.89 10.8
-1 3 -17 60.79 10.8
-2 -3 -17 173.28 28.1
-2 -3 -17 170.88 28.1
-2 -3 -17 170.58 28.2
-2 3 17 197.58 28.2
2 3 -17 181.88 28.1
2 3 -17 193.18 28.1
2 -3 17 208.18 28.2
-2 3 17 188.18 28.2
-2 3 17 207.18 28.2
2 -3 17 201.48 28.2
-2 3 17 190.48 28.2
2 3 17 184.88 28.1
2 -3 -17 184.88 28.1
2 3 17 170.88 28.1
-2 3 -17 164.48 28.1
-2 3 -17 201.08 28.2
2 -3 -17 193.88 28.1
2 3 17 158.78 28.1
-2 -3 17 180.08 28.1
2 -3 -17 172.88 28.1
2 3 17 191.18 28.2
-2 -3 17 172.08 28.1
2 -3 -17 178.08 28.1
3 3 -17 12.2 2
-3 3 17 8.5 1.9
3 3 -17 8.7 1.7
3 3 -17 10.2 1.8
-3 3 17 7.4 2
-3 -3 -17 7.5 1.9
3 -3 17 9.6 1.9
-3 3 17 10.7 1.9
3 3 -17 10.6 1.8
-3 -3 -17 10 1.9
3 -3 17 11.3 2
-3 3 17 7.8 1.9
3 -3 -17 8.4 1.8
3 -3 -17 10 1.8
3 -3 -17 3.5 1.7
-3 -3 17 7.3 1.7
3 3 17 9.8 1.9
-3 -3 17 10.6 1.9
3 -3 -17 8.6 1.8
-3 -3 17 12 1.9
-3 -3 17 10.4 1.8
-3 3 -17 8.9 1.9
-3 3 -17 8.5 1.9
3 3 17 9.9 1.9
4 3 -17 69.79 10.7
-4 3 17 62.69 10.8
4 3 -17 69.99 10.8
-4 3 17 63.09 10.8
-4 -3 -17 63.19 10.9
-4 3 17 61.99 11
4 -3 17 63.59 10.8
4 3 -17 67.29 10.7
4 3 -17 77.39 10.7
4 -3 17 72.39 10.8
-4 -3 -17 82.49 10.9
-4 3 17 70.89 10.8
-4 -3 17 64.29 10.8
4 -3 -17 74.29 10.8
4 3 17 68.69 10.8
-4 -3 17 73.69 10.8
4 -3 -17 72.49 10.8
-4 -3 17 59.39 10.7
-4 3 -17 75.99 10.9
4 3 17 71.79 10.8
-4 3 -17 78.99 10.9
4 -3 -17 70.79 10.8
4 -3 -17 62.49 10.8
5 3 -17 1.7 0.9
-5 3 17 3.4 1.2
-5 3 17 4.4 1.5
-5 3 17 2.5 1.2
5 -3 17 3.1 1.2
5 3 -17 3.9 1.1
5 3 -17 3.5 1
-5 -3 -17 0.7 1.1
5 -3 17 2.1 1.2
-5 3 -17 3.5 1.3
5 -3 -17 2.7 1.2
-5 -3 17 4 1.1
-5 -3 17 0.9 0.9
5 3 17 2.4 1.1
-5 -3 17 1.7 1
-5 -3 17 3.5 1.2
5 3 17 3.8 1.2
-5 3 -17 4.2 1.3
5 -3 -17 2.5 0.9
5 -3 -17 2.4 1
-6 -3 -17 11.5 2.1
-6 -3 -17 8.5 1.9
6 3 -17 8.6 1.7
6 3 -17 8.2 1.6
6 -3 17 8.5 1.9
-6 3 17 8.3 2
-6 3 17 8.9 2.1
6 3 -17 9.5 1.8
6 -3 17 10.7 2.1
-6 3 17 7.7 1.9
6 3 17 7.8 1.9
6 -3 -17 6.9 1.8
6 -3 -17 8 1.9
-6 3 -17 9 1.9
-6 3 -17 6.9 1.9
6 3 17 12.1 2
6 -3 -17 8 1.8
7 -3 17 9.5 2.2
-7 3 17 21.3 3.5
-7 -3 -17 12.9 2.4
7 3 -17 12 2.2
-7 -3 -17 10.1 2.3
7 3 -17 9.3 2
7 -3 -17 9.5 2.2
7 -3 -17 10 2.3
7 3 17 12.8 2.5
7 -3 -17 12.7 2.2
7 3 17 14.6 2.4
0 4 17 104.09 14.4
0 4 -17 89.89 14.3
0 4 -17 94.49 14.3
0 4 17 99.19 14.4
0 -4 17 90.59 14.3
0 -4 17 120.69 14.4
0 -4 17 79.59 14.3
0 4 17 102.09 14.4
0 -4 -17 84.39 14.3
0 -4 -17 76.79 14.3
0 -4 -17 92.69 14.3
0 -4 -17 85.59 14.3
0 -4 17 99.79 14.3
-1 -4 -17 7.9 1.5
-1 -4 -17 5.2 1.4
-1 -4 -17 4.2 1.3
1 4 -17 6.6 1.3
1 -4 17 2.7 1.3
1 4 -17 6.3 1.3
1 4 -17 4.5 1.2
-1 4 17 4.5 1.3
-1 4 17 5.5 1.5
1 -4 17 4.5 1.2
1 -4 17 6.1 1.3
1 4 -17 3.2 1.1
-1 4 17 4.7 1.3
-1 4 17 2.1 1.3
-1 -4 -17 5.8 1.4
1 -4 17 6.2 1.3
1 4 17 6.5 1.5
-1 -4 17 4.5 1.2
-1 -4 17 4 1.2
1 4 17 4.9 1.3
1 4 17 3.4 1.2
-1 4 -17 6 1.3
-1 4 -17 5.1 1.3
1 -4 -17 3.9 1.2
-1 -4 17 3.4 1.2
-1 4 -17 5.3 1.3
1 4 17 2.8 1.2
1 -4 -17 4 1.2
-1 -4 17 7.1 1.3
1 -4 -17 5.2 1.3
-1 4 -17 7 1.4
1 -4 -17 3.9 1.2
-2 4 17 5.6 1.3
2 4 -17 3.5 1
-2 -4 -17 4.3 1.2
2 -4 17 0.6 0.9
-2 4 17 4.7 1.3
-2 -4 -17 0.3 1
-2 4 17 2.2 1.1
2 4 -17 2.9 1
2 -4 17 1 0.9
-2 4 17 1.3 1.1
2 4 -17 3.1 0.9
2 4 17 4 1.1
2 -4 -17 2.1 1
2 4 17 1.8 1
-2 -4 17 1.7 0.9
-2 -4 17 2 0.9
2 -4 -17 1.4 0.9
2 4 17 2 1
2 -4 -17 0.2 0.9
-2 4 -17 4 1.1
-2 4 -17 3.6 1.1
2 -4 -17 1.7 0.9
-3 -4 -17 136.69 21.4
3 -4 17 145.29 21.4
3 4 -17 132.89 21.3
-3 -4 -17 139.49 21.4
3 4 -17 131.59 21.4
3 4 -17 147.09 21.4
-3 4 17 142.09 21.5
3 4 -17 139.09 21.3
-3 4 17 141.79 21.4
3 -4 17 130.69 21.4
-3 4 17 118.79 21.4
-3 -4 17 117.09 21.3
3 -4 -17 147.49 21.4
-3 -4 17 141.69 21.3
3 4 17 129.99 21.4
3 4 17 168.98 21.4
-3 -4 17 141.49 21.4
-3 4 -17 149.19 21.4
3 -4 -17 135.19 21.4
-3 4 -17 151.08 21.4
-3 -4 17 150.98 21.4
3 -4 -17 141.29 21.4
3 -4 -17 135.09 21.4
4 -4 17 52.99 8.7
-4 4 17 59.39 9.1
4 4 -17 63.89 8.6
4 4 -17 50.09 8.5
4 4 -17 51.59 8.6
-4 -4 -17 52.89 8.6
-4 -4 -17 59.69 8.7
-4 4 17 55.29 8.7
4 4 -17 55.09 8.5
4 -4 17 54.89 8.7
-4 4 17 55.09 8.9
4 -4 -17 49.99 8.6
-4 4 -17 59.79 8.7
-4 -4 17 52.89 8.5
-4 -4 17 44.9 8.5
4 4 17 54.89 8.6
-4 -4 17 57.29 8.5
4 -4 -17 50.99 8.6
4 4 17 60.49 8.7
4 -4 -17 56.19 8.6
-4 -4 17 59.59 8.6
4 -4 -17 56.79 8.6
5 4 -17 47.5 7.3
5 4 -17 49.3 7.3
-5 4 17 44.1 7.7
-5 -4 -17 53.29 7.7
5 4 -17 45.9 7.3
-5 4 17 42.9 7.6
-5 -4 -17 40.6 7.5
5 -4 17 44.6 7.6
5 -4 17 44.9 7.6
5 4 17 37.7 7.4
-5 4 -17 37.4 7.5
5 4 17 39 7.5
-5 -4 17 51.59 7.3
5 -4 -17 55.09 7.4
-5 -4 17 44.5 7.4
5 -4 -17 47.9 7.6
-5 4 -17 52.69 7.5
-5 -4 17 44 7.3
5 -4 -17 41.3 7.5
-5 -4 17 60.89 7.4
-6 4 17 12.2 2.5
6 4 -17 14.9 2.1
6 -4 17 8.6 2.2
-6 4 17 10.9 2.4
6 4 -17 13.2 2.1
-6 -4 -17 12.7 2.3
-6 -4 -17 10.5 2.2
6 -4 17 12.7 2.3
-6 4 -17 11.8 2.3
6 4 17 12.4 2.3
6 4 17 7.7 2.1
-6 4 -17 8.6 2.1
6 -4 -17 10.2 2.7
6 -4 -17 9.2 2.1
6 -4 -17 8.3 2.1
7 -4 17 1.2 1.2
-7 4 17 -2.2 1.2
-7 4 17 1.1 1.6
7 4 -17 -0.2 0.8
-7 -4 -17 -1.8 0.9
7 4 -17 0 0.9
7 4 17 1 1.2
7 -4 -17 1.2 1
7 4 17 1.1 1.1
-7 4 -17 0.8 1
7 -4 -17 -0.3 1
7 -4 -17 0 1.1
0 -5 17 -0.3 0.7
0 -5 17 -0.1 0.8
0 -5 -17 -0.1 0.7
0 -5 -17 0.5 0.8
0 5 17 0.2 1
0 5 -17 0.6 0.7
0 -5 17 0.2 0.8
0 5 17 -1.8 0.8
0 5 -17 0.2 0.7
0 5 -17 -0.1 0.8
0 -5 17 0 0.7
0 5 -17 -0.1 0.7
1 5 -17 8.2 1.9
1 5 -17 12.4 2
-1 5 17 8.2 2.1
1 5 -17 14.7 2.2
1 -5 17 11.8 2.1
-1 5 17 8.6 2.2
1 -5 17 14.5 2.2
1 -5 17 10.5 2.1
-1 -5 -17 13.4 2.1
-1 -5 -17 10.3 2
1 5 -17 10 2
-1 -5 17 9.1 1.9
-1 -5 17 8.4 1.9
-1 -5 17 9.3 1.9
-1 5 -17 10.4 2
-1 -5 17 10.3 2
1 -5 -17 12 2.1
-1 5 -17 7.9 1.9
1 -5 -17 10.6 2.3
1 5 17 10.2 2.1
1 5 17 11.4 2.2
1 -5 -17 6.5 1.9
-2 5 17 18.4 3.4
2 5 -17 17.5 3.3
-2 -5 -17 18.8 3.4
2 5 -17 20.9 3.4
2 -5 17 23.5 3.5
-2 5 17 20.2 3.6
-2 -5 -17 24.1 3.5
2 -5 17 18 3.3
-2 5 -17 18.2 3.4
2 -5 -17 16.5 3.3
2 -5 -17 20.9 3.4
2 5 17 17.8 3.4
-2 -5 17 23.8 3.4
-2 -5 17 20.5 3.4
2 5 17 18.9 3.5
-2 5 -17 22.3 3.5
2 -5 -17 15.1 3.3
3 5 -17 3.3 0.9
-3 5 17 3.8 1.5
-3 -5 -17 1 1
-3 -5 -17 3.7 1.2
3 5 -17 2 0.9
-3 5 17 -0.3 1.1
3 5 -17 3.7 1.1
3 -5 17 2.6 0.9
3 -5 17 2.2 1.1
3 5 -17 2.6 0.9
3 -5 -17 1.4 1.1
-3 -5 17 2.8 1
-3 -5 17 2.2 0.9
3 -5 -17 0.8 0.8
-3 5 -17 0.8 0.8
3 5 17 0.1 1
3 -5 -17 2.5 1
3 5 17 1.6 0.9
-3 -5 17 1.3 0.8
-3 -5 17 4.5 1
-3 5 -17 4.3 1.2
4 5 -17 16 2.4
4 5 -17 11.5 2.2
-4 -5 -17 12.7 2.4
-4 -5 -17 13.7 2.4
4 -5 17 15.1 2.5
-4 5 17 7.2 2.4
4 -5 17 11 2.3
-4 5 17 10.2 2.6
4 5 -17 12.8 2.2
4 5 -17 11.9 2.1
4 -5 -17 7.5 2.3
-4 -5 17 12.2 2.2
4 -5 -17 10.9 2.2
-4 5 -17 15.5 2.5
-4 -5 17 15.8 2.3
4 -5 -17 10 2.3
-4 -5 17 12.6 2.2
4 5 17 10.9 2.3
-4 -5 17 12.5 2.3
-4 5 -17 10.6 2.3
4 5 17 10.8 2.3
5 -5 17 6.8 1.8
5 5 -17 8.2 1.5
5 -5 17 10 1.8
5 5 -17 6.2 1.4
-5 5 17 6.8 2
-5 -5 -17 6.5 1.7
5 5 -17 6.9 1.3
-5 -5 -17 8.5 1.7
-5 5 17 7.1 1.8
5 5 -17 4.1 1.3
-5 -5 17 6.3 1.4
-5 5 -17 8.7 1.7
-5 5 -17 6.4 1.7
-5 -5 17 5.3 1.4
5 -5 -17 5.3 1.6
5 5 17 9 1.7
5 5 17 5.2 1.5
5 -5 -17 6.5 1.7
5 -5 -17 6.7 1.5
6 5 -17 0.9 0.9
6 5 -17 0 0.8
-6 5 17 -0.8 1.4
6 -5 17 0 0.9
-6 5 17 2.3 1.5
-6 -5 -17 1.2 1.1
-6 -5 -17 -1.2 0.9
6 5 17 -0.2 1
6 -5 -17 -0.7 0.7
6 -5 -17 0.6 0.9
6 -5 -17 1.9 1.2
6 5 17 -0.4 1
-7 5 17 1.6 1.6
7 -5 17 2.3 1.2
7 -5 17 3.1 1.5
-7 -5 -17 1.7 1.3
7 5 -17 2.8 1
-7 -5 -17 2.5 1.2
7 5 -17 2.9 1
-7 5 17 2.6 1.5
-7 5 -17 3.4 1.3
7 5 17 5 1.4
7 -5 -17 2.1 1.1
7 5 17 2.9 1.3
7 -5 -17 1.9 1.3
7 -5 -17 3.4 1.4
-7 5 -17 2.9 1.3
0 -6 17 5 1.3
0 6 -17 4.2 1.2
0 -6 17 5.1 1.3
0 6 17 4.4 1.5
0 -6 17 4.3 1.2
0 -6 -17 5.9 1.4
0 -6 -17 4.2 1.2
0 6 -17 4.6 1.3
0 6 -17 6.1 1.3
0 6 -17 3.1 1.2
0 -6 17 5.2 1.3
0 6 17 5.9 1.4
-1 -6 -17 3 1.1
1 -6 17 2.7 1.1
1 6 -17 2.1 0.9
1 6 -17 3.6 0.9
1 -6 17 3 1
1 6 -17 2.6 1
-1 6 17 0.5 1
-1 6 -17 2.2 1
-1 -6 17 2.4 0.9
1 6 17 2.4 1.2
1 -6 -17 2.4 1.1
-1 6 -17 2.7 1
-1 -6 17 2.4 1
-1 6 -17 1.9 1
-1 -6 17 5.1 1.1
1 6 17 4.9 1.4
-1 -6 17 3.7 1.1
1 -6 -17 2.1 1.1
2 6 -17 -0.2 0.6
2 -6 17 0 0.8
-2 -6 -17 1.7 0.9
2 -6 17 1.1 1
-2 6 17 0.7 1.2
-2 -6 -17 1.5 0.9
-2 6 17 1 1.1
2 6 -17 0.5 0.8
2 6 -17 0.9 0.7
-2 -6 17 0.4 0.8
2 6 17 -0.2 0.9
-2 6 -17 1.5 0.9
2 -6 -17 -0.1 0.8
2 6 17 0.8 1
-2 -6 17 0.8 0.7
-2 -6 17 0.6 0.8
-2 -6 17 -0.1 0.7
-2 6 -17 1.2 0.8
2 -6 -17 -0.2 0.9
-3 -6 -17 0.9 1
3 -6 17 -0.6 0.8
3 6 -17 0.5 0.7
-3 6 17 0.5 1.1
-3 -6 -17 0.9 0.9
-3 6 17 0.4 1.3
3 -6 17 -1.5 0.9
3 6 -17 1.9 0.8
3 -6 -17 -0.6 0.9
-3 6 -17 2 0.9
-3 -6 17 1.6 0.8
-3 -6 17 1.5 0.8
3 6 17 1.8 1.2
3 6 17 0.5 0.9
3 -6 -17 1.1 1.1
-3 -6 17 1.1 0.8
-3 6 -17 0.4 0.8
-4 6 17 12.2 2.5
4 6 -17 11.4 1.8
-4 -6 -17 8.2 2
-4 -6 -17 9.5 2.1
4 -6 17 11 2
4 6 -17 10.4 1.9
-4 6 17 7.3 2.1
4 6 -17 12 2
4 -6 17 9.8 2.1
4 6 17 8.6 2.1
-4 -6 17 9.9 1.9
-4 -6 17 9.7 1.9
4 -6 -17 11.8 2.3
4 6 17 10 2.1
-4 6 -17 11.8 2.2
4 -6 -17 7.2 2
-4 -6 17 10.6 1.9
-4 -6 17 8.7 1.9
5 6 -17 15 2.6
5 -6 17 14.1 2.8
-5 -6 -17 16.4 2.9
5 6 -17 13.6 2.6
5 6 -17 19.4 2.8
5 -6 17 13 2.9
5 6 -17 17.9 2.6
-5 6 17 10.4 2.9
-5 -6 17 19.2 2.8
5 -6 -17 12.8 2.8
-5 6 -17 19.4 3
5 -6 -17 13.2 2.8
-5 6 -17 13 2.8
5 6 17 15.5 2.8
5 6 17 13.7 2.9
-6 6 17 5.3 1.8
-6 -6 -17 3.3 1.4
-6 -6 -17 6.3 1.4
-6 6 17 5.6 1.7
6 6 -17 3.7 1.1
6 6 -17 3.8 1.1
6 -6 17 3.2 1.7
-6 6 -17 5 1.5
6 6 17 5.1 1.5
6 -6 -17 2.7 1.4
6 -6 -17 3.2 1.4
6 6 17 5.4 1.4
0 7 -17 -0.7 0.8
0 7 -17 -0.8 0.6
0 7 17 -0.4 1
0 7 -17 -0.7 0.6
0 7 17 0.1 0.9
0 -7 17 0.3 0.8
0 -7 -17 -0.3 0.8
0 7 -17 0.4 0.8
0 -7 17 0.1 0.9
0 -7 -17 1.5 0.9
0 -7 17 -0.9 0.9
1 7 -17 11 2.5
1 7 -17 16.8 2.6
1 -7 17 13.5 2.6
1 7 -17 14.7 2.5
-1 -7 -17 11.2 2.5
-1 -7 -17 12.6 2.6
1 -7 17 14 2.6
1 7 -17 13.7 2.5
-1 7 17 14.7 2.8
-1 7 17 15.1 2.7
1 -7 -17 12.4 2.5
-1 -7 17 14 2.6
-1 -7 17 13.3 2.5
-1 -7 17 16.2 2.6
1 -7 -17 16.6 2.8
1 7 17 13.9 2.6
-1 7 -17 12.2 2.6
1 7 17 13.1 2.7
-1 7 -17 17.7 2.7
-2 -7 -17 22.9 3.5
2 -7 17 18.4 3.4
2 7 -17 19.5 3.2
-2 -7 -17 22.8 3.4
-2 7 17 10.8 3.3
2 -7 17 21 3.5
-2 7 17 24.5 3.8
2 7 -17 18.8 3.2
-2 -7 17 20.3 3.3
2 -7 -17 21.3 4.1
2 7 17 18.3 3.4
2 7 17 15.4 3.3
-2 7 -17 17.8 3.3
-2 -7 17 19.9 3.3
-2 7 -17 23.6 3.5
-2 -7 17 23.6 3.3
2 -7 -17 14 3.3
-2 -7 17 19.3 3.3
3 7 -17 17.1 3.5
-3 -7 -17 14.6 3.5
3 -7 17 21.5 3.7
-3 7 17 26.1 4
-3 7 17 27 4
-3 -7 -17 21.9 3.8
3 7 -17 26.5 3.6
3 7 -17 26.5 3.6
3 -7 17 23.1 3.8
3 7 17 13.6 3.6
-3 7 -17 22.8 3.7
-3 -7 17 31.8 3.7
3 7 17 21.2 3.7
3 -7 -17 22.9 3.7
-3 7 -17 17.8 3.6
3 -7 -17 16 3.6
-3 -7 17 19.4 3.6
-4 7 17 2.6 1.5
-4 -7 -17 4.7 1.3
4 -7 17 2.7 1.3
4 7 -17 2.9 0.9
4 -7 17 6.1 1.4
4 7 -17 2.2 1
4 7 -17 3.1 1.2
-4 7 17 3.9 1.8
-4 -7 -17 3.9 1.3
4 7 -17 5.8 1.1
4 7 17 4.1 1.4
-4 -7 17 3 1.1
-4 -7 17 2.8 1.1
-4 -7 17 5.9 1.2
4 -7 -17 3.9 1.4
4 7 17 5 1.4
-4 -7 17 3.4 1
-4 7 -17 5.9 1.4
-4 7 -17 1.9 1.2
4 -7 -17 2.4 1.3
-5 7 17 28.3 4.3
5 7 -17 23.1 3.7
-5 -7 -17 27.3 3.9
-5 -7 -17 17.9 3.8
5 7 -17 28.3 3.8
-5 7 17 18.8 4
5 7 -17 22.9 3.6
5 7 17 20.1 4
5 -7 -17 18 3.8
5 -7 -17 19.9 3.9
5 7 17 18.5 3.9
-6 7 17 2.4 1.6
6 7 -17 2 0.9
-6 7 17 2.9 1.7
-6 -7 -17 1.2 1.2
6 -7 17 1 1.2
-6 -7 -17 1.6 1.1
6 7 -17 1.4 0.9
6 -7 17 3 1.2
-6 7 -17 1.6 1.1
6 -7 -17 0.7 1.3
6 7 17 2.4 1.4
-6 7 -17 2.2 1.2
6 -7 -17 2.6 1.3
6 7 17 1.9 1.3
0 -8 17 9.8 1.9
0 8 17 9 2
0 8 17 6.7 2
0 8 -17 12.4 2
0 -8 -17 8.9 1.9
0 -8 -17 8.8 1.9
0 -8 17 8.4 1.9
0 8 -17 6.2 1.7
-1 8 17 6.3 1.7
1 -8 17 7.5 1.6
1 8 -17 5.8 1.4
-1 8 17 8.5 2.1
1 8 -17 4.1 1.3
-1 -8 -17 9.4 1.7
1 -8 17 6.6 1.6
1 8 -17 6.9 1.5
1 8 -17 7.3 1.5
-1 8 -17 8.2 1.6
-1 -8 17 6.3 1.5
-1 -8 17 9.9 1.7
1 -8 -17 4.7 1.4
-1 8 -17 4.2 1.5
-1 -8 17 9.3 1.7
-1 -8 17 7.7 1.6
1 -8 -17 2.8 1.5
1 8 17 7.6 1.9
-2 8 17 3.5 1.4
-2 -8 -17 4.2 1.4
2 8 -17 1.6 0.9
-2 -8 -17 4.5 1.1
2 8 -17 2.2 1
2 8 -17 4 1.1
2 8 17 3.7 1.4
-2 -8 17 3.9 1.2
2 8 17 3.3 1.3
-2 -8 17 4.4 1.1
-2 -8 17 2.2 1
2 -8 -17 2.6 1.3
-2 8 -17 2.2 1.1
-3 8 17 17.7 3.8
3 8 -17 29.1 3.7
3 -8 17 27 4
-3 -8 -17 20.7 3.7
-3 -8 -17 19.9 3.7
3 8 -17 24.4 3.7
-3 8 17 21.4 4.1
3 -8 17 21.6 3.8
-3 -8 17 28.5 3.9
3 -8 -17 23.6 3.9
3 8 17 20.9 3.8
3 8 17 16.2 3.7
-3 -8 17 21.3 3.6
-3 -8 17 20.4 3.7
-3 8 -17 14.3 3.6
3 -8 -17 22.9 3.9
-3 8 -17 22.8 3.8
-4 8 17 5.7 1.6
-4 8 17 3.7 1.6
4 8 -17 3.5 1
-4 -8 -17 4.8 1.3
4 8 -17 2.8 0.9
4 8 -17 2.8 0.9
4 -8 17 2.1 1.2
-4 -8 -17 3.4 1.3
4 8 -17 1.7 0.9
4 -8 17 0 1
-4 8 -17 4.2 1.3
-4 -8 17 2.9 1
4 8 17 2.1 1.3
-4 -8 17 2.5 1
-4 -8 17 2.5 1
4 -8 -17 0.9 1.2
-4 -8 17 3.2 1
-4 8 -17 2.2 1.1
4 8 17 3.9 1.2
4 -8 -17 3 1.3
-5 -8 -17 57.29 9.2
5 -8 17 62.09 9.5
-5 -8 -17 59.29 9.2
-5 8 17 53.89 9.5
5 8 -17 65.99 9.1
5 8 -17 64.79 9.1
-5 8 17 53.79 9.5
5 8 17 48.5 9.3
5 8 17 42.7 9.3
-5 8 -17 63.39 9.3
5 -8 -17 49.8 9.3
5 -8 -17 64.39 9.3
-5 8 -17 61.39 9.2
6 8 -17 2.1 0.9
-6 8 17 2.3 1.7
6 8 -17 0.7 0.9
6 -8 17 1.6 1.2
-6 -8 -17 0.5 1.1
-6 -8 -17 1.4 1.1
-6 8 17 0.8 1.5
6 -8 17 0.8 1.2
-6 8 -17 1 1.1
-6 8 -17 1.7 1.2
6 8 17 0.1 1
6 8 17 -0.1 1.2
6 -8 -17 1.2 1.2
6 -8 -17 0.4 1.1
0 9 17 0.3 1
0 -9 -17 0.3 0.8
0 -9 17 -0.7 0.9
0 9 -17 0.2 0.9
0 -9 17 1.1 0.9
0 9 17 -0.9 1.2
0 9 -17 0.1 0.8
0 -9 -17 0.6 1
1 9 -17 7 1.7
1 9 -17 4.9 1.5
-1 9 17 10.2 2.1
1 -9 17 9.3 1.8
1 9 -17 7.8 1.7
1 -9 17 8.6 1.8
-1 9 17 6.8 1.9
1 9 -17 7.6 1.6
-1 -9 -17 7.3 1.8
1 9 17 8.7 2.1
-1 -9 17 8.5 1.7
1 -9 -17 10.3 1.9
-1 9 -17 9 1.7
-1 9 -17 5.2 1.6
-1 -9 17 8.3 1.7
1 -9 -17 6.7 1.8
2 9 -17 12.2 2.4
2 9 -17 10.5 2.4
-2 -9 -17 9.7 2.4
-2 -9 -17 13.9 2.6
2 9 -17 14.4 2.5
-2 9 17 14.7 2.9
2 9 -17 13.1 2.4
2 -9 17 11.5 2.5
2 -9 -17 11.6 2.5
2 9 17 13.3 2.7
-2 -9 17 13.3 2.4
-2 -9 17 13.2 2.5
2 -9 -17 12 2.6
2 9 17 15.7 2.7
-2 9 -17 16 2.6
-2 -9 17 14.7 2.5
-2 -9 17 16 2.6
3 -9 17 13.8 2.4
3 9 -17 13.7 2.1
-3 9 17 7.9 2.4
-3 -9 -17 8.9 2.1
3 -9 17 10.8 2.2
3 9 -17 10.1 2.1
3 9 -17 9.7 2
-3 -9 -17 11.3 2.2
3 9 -17 9.1 2
-3 9 17 9.7 2.5
3 -9 -17 13 2.4
-3 9 -17 9.2 2.1
-3 -9 17 12 2.1
-3 -9 17 10.3 2.1
-3 -9 17 14.4 2.2
3 9 17 11.5 2.3
3 9 17 7.7 2.3
3 -9 -17 10.3 2.4
-3 9 -17 8.1 2.1
-4 -9 -17 -0.8 0.9
-4 -9 -17 0.8 0.9
4 9 -17 1 0.8
4 9 -17 0.9 0.8
4 9 -17 1.6 0.8
-4 9 17 1.4 1.4
4 9 -17 1.2 1.3
4 -9 -17 -0.7 1
4 9 17 1 1.1
4 9 17 0.6 1.3
-4 -9 17 0.4 0.8
4 -9 -17 2 1.2
5 9 -17 1.4 1
-5 -9 -17 0.6 1.1
5 -9 17 2.3 1.3
-5 9 17 2.6 1.9
-5 -9 -17 -0.7 1
-5 9 17 1 1.6
5 9 -17 0.3 0.8
5 -9 17 1.9 1.2
5 9 17 4.1 1.5
5 -9 -17 -0.1 1.1
-5 9 -17 2 1.1
5 9 17 1.1 1.2
-5 9 -17 4.1 1.4
5 -9 -17 0.9 1.2
-6 -9 -17 0.7 1.1
-6 -9 -17 -0.2 1
-6 9 17 0.3 1.5
6 -9 17 -0.3 1
6 9 -17 0.3 0.9
6 -9 17 1 1.1
-6 9 -17 -0.4 0.9
6 9 17 -1.5 1.1
-6 9 -17 0.9 1
6 9 17 -1.6 1.1
6 -9 -17 -0.7 1
0 -10 17 40.7 6.1
0 10 -17 33.3 6
0 -10 17 48.6 6.2
0 -10 -17 42.5 6.2
0 10 17 32.7 6.2
0 10 17 29.4 6.1
0 -10 -17 26.3 5.9
0 10 -17 52.19 6.2
1 -10 17 9 1.8
1 -10 17 4.9 1.7
-1 10 17 6.2 2
1 10 -17 5.6 1.5
1 10 -17 8 1.6
1 10 -17 4.2 1.4
-1 10 17 5.2 1.7
-1 -10 -17 7.2 1.7
1 -10 -17 7 1.7
1 10 17 6.6 1.9
-1 10 -17 7.6 1.6
1 10 17 3.3 1.5
-1 -10 17 6 1.5
1 -10 -17 4.6 1.5
-1 -10 17 8.8 1.7
-1 10 -17 4.8 1.6
-2 -10 -17 9.6 2.1
2 10 -17 11.6 2.1
-2 10 17 10 2.3
-2 10 17 10 2.5
2 10 -17 8 1.9
2 -10 17 11 2.3
2 10 -17 8 1.9
2 -10 17 9.4 2.1
-2 -10 17 9.7 2.1
-2 -10 17 14.3 2.2
-2 10 -17 10.9 2.2
2 10 17 12.2 2.5
-2 -10 17 16.8 2.2
2 10 17 7.3 2.2
-2 10 -17 7.4 2
2 -10 -17 13.8 2.4
2 -10 -17 7 2.1
3 10 -17 4 1.1
3 10 -17 1.1 0.8
3 10 -17 1.8 1.1
-3 -10 -17 1.8 1
3 -10 17 1.9 1.2
-3 10 17 -1.2 1.2
-3 10 17 1.6 1.5
3 -10 17 0.3 1.1
3 10 17 0 1.1
-3 -10 17 1.2 1
3 -10 -17 0.4 1.2
3 10 17 0.9 1.2
-3 -10 17 1.7 1
-3 10 -17 1 1
3 -10 -17 1.2 1.1
-3 -10 17 2.3 1.1
-3 10 -17 1.1 1
-3 -10 17 2.3 1
4 -10 17 4.3 1.5
4 10 -17 5.5 1.2
4 -10 17 5.5 1.6
4 10 -17 3.7 1.2
4 10 -17 4.7 1.2
-4 -10 -17 3.5 1.4
-4 -10 -17 3 1.3
-4 -10 17 5.2 1.4
-4 10 -17 5.9 1.5
4 -10 -17 4.7 1.5
-4 10 -17 6.4 1.6
4 10 17 5.5 1.7
4 10 17 1.9 1.4
-5 10 17 -0.2 1.5
5 -10 17 1.8 1.3
5 10 -17 2.4 1.1
-5 -10 -17 1.6 1.1
5 10 -17 1.8 1
-5 -10 -17 1.9 1.2
5 -10 17 2.6 1.3
-5 10 17 1.6 1.8
-5 10 -17 2.8 1.2
5 10 17 0.2 1.3
5 10 17 3.9 1.5
5 -10 -17 0.9 1.2
-5 10 -17 2.8 1.2
0 -11 17 -0.5 0.9
0 -11 -17 1.8 1.2
0 11 -17 0.3 0.8
0 11 17 -0.2 1.4
0 11 17 0.7 1.4
0 -11 -17 0 1
0 11 -17 -0.6 0.9
0 -11 17 -0.1 1
-1 -11 -17 15 3.1
1 11 -17 21.6 3.2
1 -11 17 16.1 3.2
1 11 -17 15.7 3.1
-1 -11 -17 22.2 3.4
1 11 -17 14.2 3.1
-1 11 17 12.2 3.4
-1 11 17 24.4 3.6
1 -11 17 22.1 3.4
1 11 17 16.8 3.3
1 -11 -17 17 3.2
1 11 17 14.9 3.3
-1 -11 17 18.8 3.2
-1 11 -17 18.6 3.2
-1 11 -17 17.1 3.1
1 -11 -17 13.2 3.2
-1 -11 17 21.5 3.3
2 11 -17 -1.6 0.8
-2 11 17 1.7 2.1
-2 -11 -17 0.7 1.1
2 11 -17 -1 0.8
2 11 -17 -0.2 0.8
-2 -11 -17 -0.2 1
2 -11 17 1.4 1.1
2 11 -17 0.2 0.8
2 -11 17 -0.2 1
-2 11 -17 0.1 0.9
-2 -11 17 1 1
2 11 17 2.9 1.5
2 -11 -17 1.5 2.1
2 11 17 1.6 1.3
2 -11 -17 -0.7 1
-2 11 -17 0.4 0.9
-2 -11 17 0 0.9
3 11 -17 4.8 1.2
3 11 -17 3.7 1.2
-3 -11 -17 5.6 1.4
3 11 -17 5 1.3
-3 -11 -17 4.5 1.4
3 11 17 3.3 1.5
-3 -11 17 5.3 1.3
-3 -11 17 2.3 1.3
-3 -11 17 4.2 1.3
-3 -11 17 3.9 1.3
3 11 17 3.9 1.7
4 11 -17 14.1 2.4
-4 11 17 12.2 2.8
4 -11 17 10 2.4
4 11 -17 13.1 2.2
4 11 -17 11.9 2.2
4 -11 17 9.8 2.4
4 11 -17 11.9 2.3
-4 11 17 10.1 2.8
-4 -11 -17 12.3 2.4
-4 -11 -17 11.2 2.4
-4 11 -17 14.1 2.6
4 -11 -17 10.6 2.5
4 11 17 13.5 2.7
4 11 17 9.3 2.6
4 -11 -17 16.2 2.8
-4 11 -17 16.4 2.6
-5 -11 -17 0.6 1.1
5 11 -17 0.4 0.9
-5 11 17 -0.2 1.4
-5 -11 -17 -1.6 0.9
5 -11 17 -2.1 1
5 11 -17 1.1 1
5 -11 17 0.3 1.2
-5 11 17 1.8 1.7
5 11 17 1.3 1.4
-5 11 -17 1.8 1.1
5 -11 -17 0 1
-5 11 -17 0 1.2
5 11 17 0.9 1.6
5 -11 -17 -0.1 1.2
0 12 -17 -0.6 0.9
0 -12 17 0.1 1.1
0 12 -17 -0.7 0.8
0 -12 17 0.4 1
1 -12 17 125.29 20.3
1 12 -17 110.19 20.2
-1 -12 -17 137.29 20.3
1 -12 17 139.19 20.3
1 12 -17 156.78 20.3
-1 -12 -17 121.09 20.3
1 12 17 123.99 20.4
-1 12 -17 127.39 20.2
-1 12 -17 137.09 20.3
1 12 17 121.39 20.3
-1 -12 17 119.99 20.2
-1 -12 17 175.28 20.4
-2 -12 -17 6.8 1.7
-2 12 17 4.1 2.1
2 12 -17 6.5 1.7
2 12 -17 9.8 1.7
2 12 -17 10.4 1.8
-2 -12 -17 7.3 1.8
2 12 17 2.7 1.8
2 -12 -17 9.1 2.1
2 12 17 8.8 2.1
-2 -12 17 7.2 1.7
2 -12 -17 6.8 1.8
-2 -12 17 6 1.7
3 12 -17 -0.4 0.8
-3 -12 -17 1.9 1.1
3 -12 17 0.9 1.1
3 12 -17 1 0.9
-3 12 17 -0.2 1.5
3 12 -17 0.7 1
3 12 -17 2 1.1
3 -12 17 -0.3 1.1
-3 12 17 -1.3 1.6
-3 -12 -17 1.5 1.1
-3 12 -17 2.2 1.3
3 12 17 1.4 1.5
-3 12 -17 0.7 1.1
-3 -12 17 2.7 1.2
3 -12 -17 0.6 1.3
-3 -12 17 1.4 1.3
3 -12 -17 0.6 1.2
3 12 17 -0.8 1.5
-3 -12 17 1.6 1.2
4 12 -17 0.8 0.9
-4 12 17 1.5 1.6
-4 -12 -17 0 1
4 -12 17 3.4 1.4
-4 12 17 0.4 1.6
4 12 -17 -0.3 0.9
-4 -12 -17 1.5 1
4 -12 17 1.2 1.3
4 12 -17 0.7 1
4 12 -17 0.2 0.8
-4 12 -17 1.9 1.2
4 12 17 -0.3 1.6
-4 12 -17 2.5 1.3
4 12 17 0.6 1.4
4 -12 -17 2.3 1.3
4 -12 -17 3.5 1.5
0 -13 -17 -0.9 1
0 -13 -17 0.5 1.3
0 13 -17 -1 0.8
0 -13 17 0 1
0 -13 17 -0.1 1
0 13 17 -0.8 1.4
0 13 -17 -0.3 0.9
-1 -13 -17 2.2 1.3
-1 13 17 3.6 1.7
1 13 -17 1.2 1.2
-1 13 17 -1 1.3
1 -13 17 -0.1 1.1
1 -13 -17 1.9 1.4
-1 13 -17 1.1 1
-1 -13 17 3.9 1.2
-1 13 -17 0.3 1.1
1 -13 -17 0 1.3
-1 -13 17 1.6 1.1
2 -13 17 18.7 3.4
2 13 -17 14 3.1
-2 13 17 11.7 3.4
2 -13 17 20 3.5
2 13 -17 18.1 3.2
2 13 -17 26.3 3.4
-2 13 17 17.2 3.5
-2 13 -17 22.5 3.6
-2 -13 17 22.7 3.4
2 -13 -17 11.5 3.2
-2 13 -17 25.2 3.6
-2 -13 17 18.9 3.2
2 -13 -17 13.4 3.2
3 -13 17 -0.3 1.2
-3 13 17 -2.3 1.4
3 -13 17 -1.4 1
3 13 -17 0.5 0.9
3 13 -17 2.9 1.1
-3 13 17 0.9 1.5
-3 13 -17 1.7 1.3
-3 13 -17 0.9 1.1
3 -13 -17 0.8 1.3
3 13 17 0.1 1.5
0 14 -17 11.1 2.7
0 -14 17 29.4 3.5
0 -14 17 12.9 2.8
0 14 17 12.8 3.1
0 14 -17 15.8 2.8
0 -14 -17 16.4 2.9
0 -14 -17 13.4 2.9
0 14 17 12.1 3
1 14 -17 5.5 1.5
1 -14 17 8.4 1.8
1 14 -17 5.5 1.5
1 -14 17 3.6 1.6
-1 -14 -17 3.8 1.6
-1 14 17 4.1 1.9
-1 -14 -17 4.8 1.7
-1 14 17 5.1 1.8
-1 14 -17 2 1.4
1 -14 -17 7 1.8
1 14 17 4.6 1.9
1 14 17 6.6 2.1
-1 -14 17 4.2 1.6
1 -14 -17 4.3 1.6
-1 -14 17 5.2 1.5
2 14 -17 6.9 1.4
-2 14 17 5.9 1.9
-2 -14 -17 3.8 1.5
2 -14 17 5.4 1.6
-2 14 17 6.1 1.9
-2 -14 -17 3.9 1.5
2 -14 17 3.6 1.5
2 14 -17 5.5 1.5
-2 -14 17 6.4 1.7
2 14 17 2.3 2
-2 14 -17 3.8 1.5
-2 14 -17 4.9 1.4
2 14 17 3.6 1.7
-2 -14 17 4.9 1.4
2 -14 -17 1.8 1.3
2 -14 -17 1.1 1.4
0 0 -18 0.8 0.9
0 0 18 1.7 0.8
0 0 18 0.3 0.8
0 0 18 0.4 0.8
0 0 -18 0.7 0.8
0 0 -18 0.9 0.8
0 0 18 1.1 1
1 0 -18 14.4 2.8
1 0 18 15.5 2.8
1 0 18 19.1 2.9
-1 0 18 17.6 2.9
-1 0 -18 12.9 2.7
-1 0 18 14.2 2.7
1 0 -18 16.3 2.8
1 0 -18 11.3 2.6
1 0 18 12.2 2.7
1 0 18 21.5 2.9
-1 0 -18 16.5 2.8
-1 0 18 15.8 2.7
1 0 -18 16.3 2.7
-1 0 -18 12.3 2.7
-1 0 18 20.2 2.8
-1 0 -18 13.9 2.8
2 0 -18 2.5 1
-2 0 18 5.3 1.2
2 0 18 1.3 1
2 0 -18 4.9 1.1
-2 0 -18 3.6 1.2
-2 0 18 5.2 1.2
2 0 -18 2.3 0.9
-2 0 18 2.5 1.1
-2 0 18 3 1.1
2 0 18 1.9 1
-2 0 -18 3.3 1.2
2 0 -18 4.4 1.2
-3 0 18 11.3 2.5
-3 0 18 15.3 2.6
3 0 -18 14 2.5
3 0 -18 15.5 2.5
-3 0 18 15.8 2.6
3 0 -18 13.2 2.4
3 0 -18 14.3 2.5
-3 0 -18 16.8 2.7
3 0 18 10.7 2.4
-3 0 18 13.7 2.6
3 0 18 13.5 2.5
-3 0 -18 13.5 2.6
-4 0 18 35.8 4.8
-4 0 18 28.8 4.7
-4 0 -18 35 4.9
4 0 18 21.6 4.6
4 0 -18 33.1 4.6
4 0 18 23.3 4.6
-4 0 -18 30.4 4.8
-4 0 18 27.2 4.7
4 0 -18 24.2 4.6
4 0 -18 29.7 4.7
-4 0 18 27.3 4.6
-5 0 18 0.8 0.9
5 0 -18 0.1 0.7
-5 0 18 0.3 0.9
5 0 18 0.3 0.9
5 0 -18 -0.2 1
5 0 -18 0.8 1.6
-5 0 -18 1.2 1.1
-5 0 -18 -1.2 0.9
-5 0 18 0.1 1.2
-5 0 18 2.2 1
5 0 -18 2.1 0.8
5 0 18 1.1 1
-6 0 -18 15.9 2.7
-6 0 18 15.6 2.6
-6 0 18 11.6 2.5
6 0 -18 9.9 2.3
-6 0 -18 12.8 2.6
6 0 -18 9.7 2.5
-6 0 18 17.1 2.5
6 0 18 12.8 2.5
6 0 -18 19.2 2.6
6 0 18 11.2 2.4
-6 0 18 14.9 2.8
7 0 18 0.5 1
7 0 -18 1.1 0.9
7 0 18 0.7 1.1
7 0 -18 1.8 1
-7 0 -18 4 1.4
7 0 -18 0.4 0.9
-7 0 -18 1.3 1.2
7 0 -18 1.2 1.1
0 1 18 0 0.8
0 1 -18 0.1 0.7
0 1 18 1.2 0.8
0 -1 -18 -0.4 0.7
0 -1 18 -0.1 0.8
0 -1 18 0.2 0.7
0 -1 18 -1.3 0.7
0 1 18 -0.6 0.9
0 -1 -18 -0.4 0.6
0 1 -18 -0.8 0.6
0 1 -18 -0.2 0.8
0 -1 18 -0.6 0.8
0 -1 -18 -0.8 0.9
1 -1 18 24.4 3.6
1 -1 18 21.6 3.5
-1 -1 -18 15.7 3.5
1 -1 18 18.1 3.5
1 1 -18 20.9 3.5
-1 1 18 19.7 3.5
-1 -1 -18 22.6 3.6
-1 -1 -18 20.5 3.5
1 1 -18 15.4 3.5
1 1 -18 23.7 3.6
1 1 -18 22.9 3.6
-1 1 18 22.3 3.6
-1 1 18 23.3 3.7
-1 -1 -18 15.9 3.5
-1 1 18 21.4 3.5
1 -1 18 28.4 3.7
-1 -1 18 21.7 3.5
1 1 18 19.1 3.5
-1 1 -18 28.8 3.7
-1 -1 18 22 3.5
1 -1 -18 21.9 3.6
1 1 18 18.7 3.5
1 -1 -18 22 3.5
1 -1 -18 23.7 3.6
1 -1 -18 16.6 3.4
-1 1 -18 23.7 3.6
-1 1 -18 21.4 3.6
-1 1 -18 13.9 3.4
1 1 18 24.4 3.7
1 1 18 18.4 3.5
-2 1 18 0.2 0.9
-2 1 18 2.3 1
2 1 -18 1.5 0.7
2 -1 18 1.2 0.8
-2 -1 -18 2.8 1.1
2 1 -18 -0.5 0.7
-2 1 18 1.2 1
-2 -1 -18 0.6 0.8
2 1 -18 2 0.8
2 1 -18 0.9 0.9
2 -1 18 1.6 0.9
-2 1 18 1.9 1.1
2 1 18 2.3 1
2 -1 -18 0.7 0.6
2 -1 -18 1.9 0.8
-2 1 -18 0.3 0.9
-2 -1 18 2.1 1
-2 -1 18 2.2 0.9
2 1 18 0.8 0.9
-2 -1 18 1.5 0.9
-2 -1 18 1.2 0.9
2 -1 -18 0.7 0.9
2 -1 -18 0.5 0.7
3 1 -18 12.9 2.3
-3 1 18 10.9 2.4
-3 1 18 18 2.6
-3 -1 -18 15.1 2.6
-3 1 18 11.4 2.3
-3 -1 -18 15.2 2.6
-3 1 18 12.9 2.4
3 1 -18 14.7 2.4
3 -1 18 13.5 2.5
3 1 -18 12.9 2.3
3 -1 18 11.2 2.3
3 -1 -18 9 2.2
3 -1 -18 11.1 2.2
-3 -1 18 15 2.4
3 1 18 10.9 2.4
-3 -1 18 14.1 2.4
-3 1 -18 12.1 2.5
-3 -1 18 12.8 2.4
-3 1 -18 12.8 2.5
-3 -1 18 11.3 2.4
3 -1 -18 16 2.4
3 -1 -18 11.8 2.3
4 1 -18 1.5 0.8
4 -1 18 3.3 1
4 -1 18 1.5 1
4 1 -18 2.3 0.8
-4 1 18 1.9 1
-4 1 18 2.5 1
-4 1 18 4.3 1.1
-4 -1 -18 2.4 1
4 1 -18 0.8 0.8
-4 1 18 2.7 1.3
4 1 -18 1.2 0.9
-4 -1 -18 2.6 1.2
-4 -1 18 1.5 1
-4 1 -18 2 1.1
4 1 18 3.5 1.1
4 -1 -18 1.9 0.8
-4 -1 18 3.3 1.2
-4 -1 18 4.6 1.1
-4 1 -18 2.9 1.2
4 -1 -18 1 0.9
4 -1 -18 2.6 1
4 1 18 2.7 1
-4 -1 18 1.6 0.9
4 -1 -18 2.3 0.9
-5 1 18 2.5 1.3
5 1 -18 4.4 1.7
-5 -1 -18 5.8 1.4
5 -1 18 4.3 1.2
5 1 -18 4.4 1.3
5 1 -18 3.1 1
-5 -1 -18 5.9 1.4
-5 1 18 4.3 1.2
-5 1 18 5.9 1.5
-5 1 18 7 1.8
5 1 -18 2.8 1.1
5 -1 18 4 1.4
-5 -1 18 5.1 1.3
5 1 18 6.1 1.3
5 1 18 5.1 1.3
5 -1 -18 4.9 1.3
5 -1 -18 4.4 1.2
5 -1 -18 3.1 1
-5 -1 18 4.4 1.3
-5 1 -18 3.3 1.2
6 1 -18 4.7 1.4
-6 1 18 5.4 1.6
-6 -1 -18 7.5 1.7
6 -1 18 5 1.6
6 1 -18 7.3 1.4
-6 -1 -18 5.1 1.5
-6 1 18 5 1.5
-6 1 18 7 1.5
6 -1 18 7.3 1.5
6 1 -18 4.8 1.2
-6 1 18 10.5 2
6 -1 -18 3.4 1.2
6 -1 -18 6.2 1.4
6 1 18 6.1 1.5
6 -1 -18 7.3 1.7
-6 -1 18 7.4 1.5
-6 1 -18 5.4 1.6
6 1 18 3.7 1.4
7 1 -18 0.1 0.8
7 1 -18 0.1 0.8
7 -1 18 0.8 1
-7 -1 -18 -0.4 1
-7 -1 -18 -0.4 1.1
7 -1 -18 -0.9 1.1
7 -1 -18 0.1 1
7 1 18 -0.3 1
7 1 18 0.6 1
7 -1 -18 -0.4 0.8
7 -1 -18 -0.2 0.7
0 -2 -18 64.99 10.5
0 -2 -18 62.99 10.5
0 -2 18 67.29 10.5
0 -2 18 60.89 10.5
0 -2 -18 72.29 10.5
0 2 -18 75.39 10.5
0 2 18 72.79 10.6
0 2 -18 70.09 10.5
0 -2 18 65.99 10.5
0 2 -18 69.09 10.5
0 2 18 63.19 10.5
0 -2 -18 69.29 10.6
0 -2 18 80.29 10.5
0 2 18 66.19 10.5
0 2 18 64.99 10.5
0 2 -18 59.69 10.5
-1 -2 -18 0 0.7
-1 2 18 -1 0.8
-1 -2 -18 -1.3 0.9
1 2 -18 0.6 0.9
-1 2 18 0.5 0.9
1 -2 18 0.3 0.8
-1 -2 -18 0.7 0.8
1 -2 18 0.3 0.8
-1 2 18 0.2 1
1 -2 18 0.3 0.8
-1 2 18 -1.2 0.9
1 2 -18 1.6 0.8
1 2 -18 0.5 0.6
1 -2 18 0.2 0.8
1 2 -18 0.9 0.7
1 -2 -18 0.4 0.9
1 -2 -18 -0.8 0.7
1 -2 -18 1 0.8
-1 2 -18 0.2 0.8
1 2 18 0 0.8
-1 -2 18 -0.8 0.7
1 -2 -18 0.5 0.7
-1 -2 18 0.5 0.7
-1 2 -18 -0.6 0.6
-1 -2 18 -0.4 0.8
-1 2 -18 1.6 1
-1 2 -18 0.3 0.8
1 2 18 -0.2 0.8
2 -2 18 45.8 7.8
-2 2 18 47.7 7.8
2 2 -18 48.4 7.7
2 -2 18 37 7.8
-2 2 18 60.49 8.1
2 2 -18 51.59 7.7
-2 -2 -18 53.59 7.8
-2 -2 -18 49.9 7.8
-2 2 18 48.6 7.8
2 2 -18 52.09 7.7
2 2 -18 47.5 7.8
-2 2 -18 39.5 7.8
2 -2 -18 50.99 7.7
2 -2 -18 51.29 7.7
-2 2 -18 37.2 7.8
2 2 18 55.69 7.8
2 -2 -18 52.89 7.8
2 2 18 64.19 7.8
2 -2 -18 46.3 7.7
3 2 -18 -0.7 0.8
-3 2 18 -0.6 0.8
3 -2 18 0.8 0.9
3 2 -18 0.4 0.7
-3 2 18 -0.6 0.8
-3 -2 -18 -1.3 0.8
3 -2 18 -0.3 0.8
-3 -2 -18 1 0.9
3 2 -18 -1 0.6
-3 2 18 -0.2 1
-3 -2 18 1.5 0.9
3 -2 -18 1.1 0.9
3 -2 -18 0.8 0.7
-3 2 -18 0.6 0.9
-3 -2 18 1.4 0.9
3 2 18 0.3 0.9
-3 -2 18 0.8 0.9
3 -2 -18 0.5 0.8
3 -2 -18 0.9 0.7
-3 -2 18 0.5 0.8
4 -2 18 0.6 0.9
-4 -2 -18 -1.7 0.8
-4 2 18 1.5 1.1
-4 -2 -18 -0.4 0.9
-4 2 18 -0.1 1
4 2 -18 -0.4 0.7
4 2 -18 1.2 0.7
4 2 -18 -1.1 0.6
-4 2 18 -0.7 0.9
4 2 18 -0.6 0.9
4 -2 -18 0.9 0.8
-4 2 -18 -0.7 0.8
4 2 18 -1.8 0.8
4 -2 -18 0.2 0.9
4 -2 -18 -0.4 0.6
4 -2 -18 0 0.8
-4 -2 18 0.1 0.8
-4 -2 18 -0.1 0.8
5 2 -18 0.2 0.7
5 2 -18 0.9 0.7
5 -2 18 2.8 1.2
-5 -2 -18 1.8 1
5 2 -18 1.4 0.8
-5 2 18 0 1.2
-5 2 18 1.1 1
-5 -2 -18 1.3 1.1
-5 2 18 0.4 1
5 -2 18 0.2 0.9
-5 -2 18 0.7 0.9
-5 -2 18 2.5 1
-5 2 -18 0.5 0.9
5 2 18 1.1 1
5 -2 -18 0.3 0.7
5 2 18 1.7 1
5 -2 -18 2.1 1.1
-5 2 -18 0.8 0.9
5 -2 -18 1.2 0.8
6 2 -18 11.4 2.4
-6 2 18 17.6 2.8
6 2 -18 15.6 2.6
-6 -2 -18 12.3 2.7
6 -2 18 15.6 2.7
-6 -2 -18 14.9 2.7
6 -2 18 11.7 2.6
6 2 -18 11.8 2.4
-6 2 18 19.8 3
-6 2 18 18.4 2.8
6 -2 -18 11.8 2.6
6 -2 -18 10.7 2.5
6 2 18 18.9 2.8
6 -2 -18 14.7 2.6
6 2 18 15.6 2.7
-6 2 -18 16.1 2.8
-6 2 -18 13.3 2.7
6 -2 -18 12.4 2.4
7 -2 18 7.2 1.9
-7 -2 -18 10.3 2.2
-7 -2 -18 10.2 2.1
7 2 -18 11.3 2
7 2 -18 8.7 1.8
7 2 18 9.5 2.1
7 -2 -18 8.5 2
7 -2 -18 7.2 1.8
7 -2 -18 7.3 1.9
7 2 18 12.1 2.2
7 -2 -18 12.4 2.2
0 3 -18 0.8 0.8
0 -3 18 0.6 0.8
0 3 -18 1.1 0.8
0 -3 18 -0.7 0.8
0 -3 18 1.1 0.8
0 3 18 0 0.8
0 -3 -18 -0.4 0.8
0 3 -18 -0.2 0.7
0 3 18 1.3 1
0 -3 18 -0.6 0.7
0 -3 -18 0.6 0.8
0 3 -18 1.6 1
0 -3 -18 -1 0.7
0 3 18 0.3 1
0 -3 -18 -0.5 0.8
1 -3 18 59.59 9.3
1 3 -18 59.49 9.3
-1 -3 -18 64.59 9.4
-1 3 18 62.19 9.3
1 3 -18 57.59 9.2
1 3 -18 48.2 9.3
1 -3 18 65.59 9.3
-1 -3 -18 63.69 9.3
-1 3 18 59.69 9.3
-1 3 18 60.89 9.3
1 3 -18 63.99 9.3
-1 3 18 61.69 9.3
-1 3 -18 46.7 9.4
-1 -3 18 62.99 9.3
-1 -3 18 49.5 9.2
-1 -3 18 60.09 9.3
1 -3 -18 66.89 9.3
-1 3 -18 56.49 9.3
-1 3 -18 67.89 9.3
-1 -3 18 60.69 9.3
1 3 18 50.69 9.3
1 -3 -18 64.19 9.3
1 3 18 55.99 9.3
-2 3 18 7.6 1.7
2 3 -18 6.7 1.5
2 3 -18 6.1 1.6
2 3 -18 8.9 1.6
2 -3 18 5.1 1.6
-2 3 18 5.9 1.6
2 3 -18 7.9 1.5
-2 3 18 7.1 1.7
-2 -3 -18 6.6 1.6
-2 3 18 4.9 1.5
2 -3 18 5.9 1.5
2 3 18 7.1 1.6
2 3 18 5.9 1.5
-2 -3 18 7.4 1.5
2 -3 -18 8.2 1.6
2 -3 -18 5.7 1.5
2 -3 -18 5.8 1.4
2 -3 -18 7.6 1.6
-2 -3 18 7.3 1.5
-2 3 -18 7.9 1.6
-2 -3 18 6.1 1.5
3 3 -18 25 4.5
-3 3 18 31.9 4.8
-3 3 18 24.7 4.7
3 -3 18 17.6 4.5
3 3 -18 35.5 4.6
-3 3 18 28.4 4.7
3 3 -18 34.5 4.5
-3 -3 -18 33.8 4.8
-3 -3 -18 26.5 4.7
3 -3 18 33.9 4.8
3 3 18 37.8 4.8
3 -3 -18 30.6 4.6
-3 3 -18 27.1 4.8
3 -3 -18 21.7 4.6
3 -3 -18 32.2 4.7
3 3 18 24.1 4.6
3 -3 -18 27.6 4.7
-3 -3 18 24.1 4.6
-3 3 -18 25.8 4.7
-4 3 18 6 1.6
-4 3 18 7 1.7
4 3 -18 5.6 1.3
-4 3 18 6.3 1.6
-4 -3 -18 5.6 1.4
4 3 -18 3.3 1.2
4 3 -18 7.8 1.4
-4 -3 -18 8.1 1.7
4 -3 18 6.3 1.5
4 -3 -18 6.6 1.5
4 -3 -18 4.7 1.4
-4 -3 18 5.8 1.4
4 3 18 3.9 1.4
4 -3 -18 5.1 1.3
4 3 18 6.8 1.5
4 -3 -18 3.9 1.3
-4 3 -18 6.7 1.5
5 3 -18 75.39 10.6
-5 -3 -18 66.49 10.7
-5 3 18 60.89 10.7
-5 3 18 61.59 10.9
5 3 -18 65.69 10.6
-5 -3 -18 73.09 10.8
5 3 -18 79.39 10.7
5 3 -18 66.09 10.6
5 -3 18 65.69 10.7
5 -3 18 66.79 10.7
5 3 18 78.29 10.7
5 3 18 68.19 10.7
5 -3 -18 56.49 10.6
-5 3 -18 75.59 10.8
5 -3 -18 66.59 10.8
5 -3 -18 65.69 10.7
-5 3 -18 70.09 10.8
-5 -3 18 76.69 10.7
-5 -3 18 63.99 10.6
-5 -3 18 69.09 10.7
6 3 -18 9.1 1.8
6 -3 18 9.2 1.9
-6 3 18 6.1 1.9
6 3 -18 7.6 1.6
6 -3 18 7.9 1.9
-6 3 18 8.9 2.1
6 3 -18 7.5 1.6
6 3 -18 8.2 1.7
-6 -3 -18 6.5 1.9
6 -3 -18 8.7 1.7
6 3 18 9.1 1.9
6 -3 -18 11.1 1.9
-6 3 -18 6.2 1.8
6 -3 -18 5.9 1.8
6 3 18 6 1.7
-6 3 -18 11.1 2.1
-7 -3 -18 1.9 1.3
7 3 -18 2.4 1.1
7 3 -18 2.1 0.9
-7 -3 -18 2.2 1.2
7 -3 18 2.1 1.3
-7 3 -18 2.3 1.2
7 -3 -18 2.2 1
7 -3 -18 2.7 1.2
7 -3 -18 0.8 1.3
7 3 18 1.8 1.2
-7 3 -18 2.5 1.2
7 3 18 1.6 1.3
0 -4 -18 29.6 5
0 -4 18 34.3 5.1
0 4 -18 28.3 5
0 4 -18 24.5 4.9
0 -4 18 30.3 5
0 4 -18 37.5 5.2
0 -4 -18 27.7 5
0 -4 18 30.6 5
0 -4 18 40.2 5.1
0 4 18 23.7 5
0 4 18 35.7 5.1
1 4 -18 1.5 0.9
-1 4 18 -0.1 1
1 4 -18 4.9 1.1
-1 -4 -18 1.6 1
-1 -4 -18 2.7 1.1
-1 4 18 5 1.3
1 -4 18 2.4 1
1 4 -18 2.9 1
1 -4 18 3.3 1.1
1 4 -18 2.1 0.9
-1 -4 18 4.2 1
-1 -4 18 2.4 1
-1 4 -18 2.9 1.1
-1 -4 18 2.7 1
1 4 18 2.4 1
1 4 18 1.4 1
-1 -4 18 2.9 1
1 -4 -18 1.5 1
1 -4 -18 7 1.9
2 -4 18 7 1.5
-2 4 18 5.5 1.5
-2 4 18 4.1 1.6
-2 -4 -18 6.1 1.6
2 -4 18 5.8 1.5
-2 -4 -18 7.1 1.5
2 4 -18 6.8 1.4
2 4 -18 7 1.4
2 4 -18 7 1.5
-2 -4 18 4.2 1.4
-2 -4 18 7.1 1.5
2 -4 -18 5.8 1.5
2 -4 -18 5.4 1.4
2 4 18 7 1.6
2 -4 -18 8.8 1.6
-2 4 -18 8.1 1.5
-2 -4 18 6.1 1.5
-2 -4 18 4.7 1.3
-2 4 -18 4.2 1.4
2 4 18 7.6 1.6
-3 4 18 162.78 22.6
-3 4 18 145.09 22.5
3 -4 18 120.59 22.5
-3 -4 -18 121.99 22.5
3 4 -18 147.39 22.4
3 -4 18 134.29 22.5
3 4 -18 146.49 22.5
3 4 -18 179.08 22.5
-3 -4 -18 144.79 22.5
-3 4 -18 167.58 22.6
3 4 18 154.78 22.5
-3 -4 18 143.69 22.5
3 4 18 149.88 22.5
-3 4 -18 149.59 22.5
3 -4 -18 162.78 22.5
-3 -4 18 125.09 22.4
-4 -4 -18 12.8 2.5
-4 -4 -18 9.3 2.4
4 4 -18 12.5 2.3
-4 4 18 13.4 2.7
4 4 -18 12.9 2.3
4 4 -18 11 2.2
-4 4 18 12.7 2.5
4 -4 18 11.3 2.5
4 -4 18 17.5 2.6
-4 -4 18 8.8 2.2
4 -4 -18 12.2 2.4
-4 4 -18 14.4 2.5
4 -4 -18 9.1 2.3
4 4 18 14 2.4
-4 -4 18 14.2 2.3
4 -4 -18 11.8 2.3
-4 4 -18 14.5 2.5
4 4 18 19.6 2.6
5 -4 18 7.7 1.7
-5 4 18 8.7 2
-5 -4 -18 7.8 1.8
-5 4 18 6.2 2
5 4 -18 9.7 1.7
5 4 -18 7.3 1.5
-5 -4 -18 8.7 1.8
5 -4 18 7.1 1.7
5 4 -18 7.4 1.5
5 4 -18 6.1 1.5
5 -4 -18 7.7 1.8
-5 -4 18 6.9 1.6
-5 -4 18 7.5 1.7
5 4 18 8.3 1.7
-5 -4 18 7.9 1.6
5 -4 -18 4.9 1.6
-5 4 -18 9 1.9
-5 4 -18 8.4 1.9
5 -4 -18 8.9 1.8
5 4 18 7.2 1.8
-5 -4 18 7.7 1.6
-6 4 18 23 4.3
6 4 -18 22.2 4
6 4 -18 23.9 4
-6 -4 -18 27.2 4.2
-6 -4 -18 25.3 4.3
6 -4 18 33.4 4.4
6 4 -18 33.1 3.9
6 -4 -18 18.8 4.1
6 -4 -18 15.8 3.9
6 -4 -18 19.8 4
6 4 18 23.1 4.1
6 4 18 24 4.1
7 -4 18 17.6 3.2
7 4 -18 19.3 3
-7 -4 -18 14.7 3.1
-7 4 -18 17.7 3.2
7 4 18 20.4 3.3
7 -4 -18 17.1 3.2
7 -4 -18 16.1 3
-7 4 -18 15.5 3.2
7 -4 -18 15.9 3.2
0 5 -18 0.3 0.7
0 -5 -18 1.6 0.9
0 -5 18 1.1 0.8
0 -5 18 0.4 0.8
0 5 -18 0.5 0.7
0 5 18 -0.4 0.9
0 -5 18 0.8 0.9
0 5 18 2 1.1
0 -5 18 2.3 1
0 -5 -18 -0.3 0.6
0 5 -18 0.2 0.8
1 5 -18 4.9 1.3
1 5 -18 8.2 1.5
1 -5 18 5.5 1.5
-1 -5 -18 6.3 1.5
-1 5 18 5.7 1.7
-1 -5 -18 5.4 1.4
-1 5 18 5.6 1.6
1 -5 18 3.6 1.3
1 5 -18 9.7 1.7
1 5 -18 7.1 1.4
1 5 18 5.8 1.5
-1 -5 18 4.9 1.4
-1 -5 18 4.9 1.3
1 -5 -18 6.7 1.5
1 5 18 4.7 1.5
-1 5 -18 7 1.6
-1 -5 18 7.1 1.5
1 -5 -18 4.4 1.4
-1 -5 18 7.2 1.4
-2 5 18 11.1 2.3
-2 -5 -18 10.2 2.2
2 -5 18 11.9 2.1
-2 5 18 10.6 2.4
2 -5 18 7.9 2.2
2 5 -18 12 2.1
2 5 -18 14 2.3
2 5 -18 12.9 2.1
2 5 -18 11.9 2.1
-2 -5 -18 13.2 2.3
2 -5 -18 8.3 2.1
-2 -5 18 11.5 2.1
-2 -5 18 11.5 2.1
-2 5 -18 9.3 2.2
2 -5 -18 7 2.1
-2 -5 18 12.9 2.1
-2 -5 18 11.9 2.1
2 5 18 11.1 2.2
-2 5 -18 10.2 2.1
3 5 -18 15.2 2.6
3 -5 18 12 2.6
3 5 -18 15.4 2.6
3 -5 18 15.2 2.7
-3 5 18 17.4 3
-3 -5 -18 17.1 2.7
3 5 -18 12.9 2.5
-3 -5 -18 11.2 2.6
-3 5 18 18.2 2.9
3 5 18 14.6 2.7
-3 -5 18 13.2 2.5
3 5 18 13.9 2.7
-3 5 -18 15 2.7
3 -5 -18 10.3 2.6
3 -5 -18 13.4 2.7
-3 -5 18 15.4 2.6
-3 5 -18 19.3 2.8
4 -5 18 24.1 3.4
4 5 -18 20.6 3.1
4 -5 18 15.3 3.2
4 5 -18 18.9 3.1
-4 5 18 20.4 3.4
-4 5 18 14.5 3.4
-4 -5 -18 18.5 3.2
4 5 -18 18.3 3.3
-4 -5 -18 15.8 3.2
4 5 -18 18.3 3.1
-4 5 -18 16.1 3.2
-4 -5 18 19.1 3.1
-4 -5 18 21.7 3.2
4 -5 -18 19.9 3.4
4 5 18 19.3 3.2
4 5 18 13.4 3.1
-4 -5 18 20.8 3.2
4 -5 -18 15.8 3.2
-4 5 -18 13.5 3.2
5 5 -18 41.3 6.1
-5 -5 -18 33.4 6.3
-5 5 18 31.7 6.4
5 -5 18 41.9 6.4
5 5 -18 47.5 6.2
-5 -5 -18 43.1 6.4
-5 5 18 36.1 6.4
5 -5 18 40.7 6.4
5 5 18 28.4 6.2
5 -5 -18 37.8 6.4
-5 5 -18 26.7 6.2
5 5 18 43.6 6.4
-5 5 -18 48.4 6.6
5 -5 -18 43 6.5
-6 5 18 0.5 1.3
-6 -5 -18 1.2 1.2
6 5 -18 0.3 0.8
-6 5 18 -0.8 1.2
6 5 -18 0.1 0.9
6 -5 18 0.8 1.1
-6 -5 -18 1.6 1.2
6 -5 -18 -1.2 0.9
6 5 18 3 1.2
-6 5 -18 -0.3 0.9
6 -5 -18 0.9 1.3
6 5 18 0 0.9
0 6 -18 1 1.3
0 -6 18 2.2 1
0 -6 -18 2.1 1
0 6 18 2.1 1.2
0 6 18 0.8 1.1
0 6 -18 2.2 0.9
0 -6 -18 1 0.9
0 6 -18 -0.1 0.8
0 6 -18 2.2 0.8
0 -6 18 0.5 0.9
-1 -6 -18 0.4 0.9
-1 6 18 0.3 1
1 -6 18 1.6 0.9
1 6 -18 0.1 0.7
1 6 -18 0.5 0.7
-1 -6 -18 1.6 1
1 -6 18 2.1 1
-1 6 18 -0.2 1.1
-1 -6 18 0.6 0.8
-1 -6 18 2.8 1
1 6 18 0.9 1
1 -6 -18 2.4 1
-1 -6 18 0.5 0.8
-1 6 -18 1.6 0.9
-1 6 -18 1.9 0.9
1 6 18 0.4 1
1 -6 -18 2.2 1.1
-2 6 18 17.7 3.3
-2 6 18 21.4 3.2
2 6 -18 15.2 3
2 6 -18 18.8 3
-2 -6 -18 18.2 3.1
-2 -6 -18 15.4 3
2 -6 18 17.3 3
2 6 -18 16 2.9
2 -6 18 16 3
2 6 -18 19.3 3.1
-2 6 -18 21.8 3.2
-2 -6 18 18 3
2 -6 -18 13.1 3
-2 -6 18 15.2 2.9
-2 6 -18 14.2 3
2 -6 -18 16.2 3.1
2 6 18 14.2 3.2
-2 -6 18 18.6 3
-2 -6 18 23.2 3.1
2 6 18 16.3 3.1
-3 -6 -18 78.29 11
3 6 -18 60.89 10.9
3 6 -18 74.89 10.9
-3 6 18 74.99 11
3 -6 18 61.79 11
3 6 -18 65.89 10.9
-3 -6 -18 69.99 11
3 -6 18 67.89 11
3 6 18 71.39 11
3 -6 -18 67.99 11
-3 6 -18 74.79 11
3 -6 -18 67.39 11
-3 -6 18 73.69 10.9
-3 6 -18 72.39 11
-3 -6 18 63.09 10.9
-3 -6 18 84.79 10.9
-4 6 18 24.8 4.6
4 6 -18 22.2 4.1
4 6 -18 22.3 4.2
4 -6 18 21.3 4.2
4 6 -18 28.2 4.6
4 -6 18 28.2 4.5
-4 -6 -18 28.5 4.4
-4 6 18 26.4 4.5
4 6 -18 27 4.1
-4 -6 -18 28.7 4.5
4 -6 -18 23.1 4.3
-4 -6 18 26.5 4.2
-4 -6 18 28.3 4.3
-4 6 -18 27.3 4.5
4 -6 -18 27.4 4.4
-4 -6 18 24.8 4.2
-4 6 -18 26.9 4.4
4 6 18 19.8 4.3
4 6 18 27.4 4.4
-5 6 18 24.6 4
5 6 -18 18.4 3.5
-5 -6 -18 19.2 3.6
-5 6 18 19.7 3.8
5 -6 18 21.3 4.6
5 6 -18 22 3.6
-5 -6 -18 26.4 3.8
5 6 -18 20.4 3.5
5 6 -18 21.4 3.4
5 6 18 20.2 3.7
5 -6 -18 18.7 3.6
5 6 18 20.2 3.7
6 6 -18 -0.2 0.8
-6 -6 -18 -0.9 1.1
-6 -6 -18 -1 0.9
6 -6 18 0.9 1
-6 6 18 -1.1 1.5
-6 6 18 1.5 1.4
6 6 -18 -0.3 0.7
6 -6 18 0.6 1.2
-6 6 -18 -1.5 0.8
-6 6 -18 -0.7 0.9
6 -6 -18 -0.5 1
6 -6 -18 -0.6 1
6 6 18 -0.1 1.1
6 6 18 -0.1 1
0 7 -18 -0.2 0.6
0 -7 18 0.6 0.8
0 -7 -18 -1.1 0.8
0 7 18 0.1 0.9
0 -7 -18 -1 0.8
0 7 -18 -0.4 0.7
0 -7 18 -0.3 0.8
0 7 18 0 1.1
1 7 -18 6.1 1.5
1 7 -18 3.9 1.4
1 -7 18 5.7 1.6
1 7 -18 7.9 1.6
-1 7 18 6.1 1.9
-1 7 18 7.4 1.8
-1 -7 -18 7.9 1.6
-1 -7 -18 9.3 1.7
1 -7 18 9.2 1.8
1 7 -18 6.1 1.5
-1 -7 18 9.5 1.7
-1 -7 18 7 1.6
-1 7 -18 6.6 1.6
-1 7 -18 5 1.5
1 -7 -18 5.7 1.5
-1 -7 18 5.8 1.5
1 7 18 8.3 1.9
-1 -7 18 8.9 1.8
1 7 18 7.8 1.7
1 -7 -18 8 1.7
2 7 -18 2.8 1
2 7 -18 1.5 0.9
2 -7 18 4.3 1.3
-2 7 18 7.9 1.9
2 -7 18 3.6 1.2
2 7 -18 4 1.1
-2 -7 -18 1.7 1.1
-2 -7 -18 3.5 1.2
-2 7 18 3.7 1.4
-2 7 -18 2.5 1.1
2 -7 -18 4.3 1.3
2 7 18 2.6 1.4
-2 -7 18 4.3 1.2
-2 -7 18 5.5 1.2
-2 -7 18 2.2 1
-2 -7 18 3.3 1.1
2 7 18 4.4 1.3
-2 7 -18 5.8 1.4
3 7 -18 3.9 1.1
3 -7 18 3.1 1.3
-3 7 18 4.9 1.7
3 7 -18 5.3 1.2
3 7 -18 3.9 1.1
3 -7 18 5.2 1.3
3 7 -18 4 1.2
-3 -7 -18 4.8 1.4
-3 7 18 3.3 1.4
-3 -7 -18 4.6 1.3
-3 -7 18 3.6 1.2
-3 7 -18 1.3 1.1
3 -7 -18 3.7 1.4
-3 -7 18 5.7 1.2
3 7 18 1.6 1.3
-3 -7 18 3 1.1
-3 -7 18 5.4 1.2
3 -7 -18 2 1.2
-3 7 -18 4.5 1.3
3 7 18 3.1 1.3
-4 -7 -18 0.4 1
4 7 -18 -0.8 0.6
-4 7 18 1 1.2
4 7 -18 -1.2 0.6
-4 -7 -18 -1.7 0.9
4 -7 18 0.6 1
4 7 -18 -0.9 0.7
4 -7 18 -0.9 0.9
-4 7 18 1.4 1.4
4 -7 -18 0.1 1.1
-4 7 -18 0.3 0.9
-4 -7 18 0.6 0.8
-4 -7 18 -0.2 0.8
4 7 18 0.3 1.1
4 -7 -18 0.7 1
-4 7 -18 0.3 1
4 7 18 0 1.1
5 -7 18 2.9 1.4
-5 7 18 1 1.5
5 7 -18 2.5 0.9
-5 -7 -18 1.9 1.2
5 7 -18 0.5 0.7
5 7 -18 2.7 1.1
-5 -7 -18 3.5 1.2
5 7 -18 1 0.7
-5 7 18 1.8 1.6
5 7 18 2.9 1.2
-5 7 -18 1.4 1.3
-5 7 -18 1.9 1.1
5 -7 -18 1.7 1.2
5 7 18 2.4 1.3
5 -7 -18 0.7 1.2
-6 7 18 3.4 1.7
6 -7 18 3 1.5
-6 -7 -18 2.3 1.2
6 7 -18 1.9 1
-6 -7 -18 2.5 1.3
6 -7 18 3.5 1.3
6 7 -18 1.9 0.9
-6 7 18 1.7 1.6
6 -7 -18 2.2 1.4
6 7 18 0.5 1.2
-6 7 -18 2.9 1.3
-6 7 -18 0.9 1.3
6 7 18 0.9 1.2
6 -7 -18 1.4 1.2
0 -8 18 0.5 1
0 -8 -18 2.3 1.2
0 8 -18 1.4 0.9
0 -8 18 1.2 0.9
0 8 -18 4.4 1.1
0 8 18 2 1.3
0 8 18 0.2 1.1
0 -8 -18 1 1
1 8 -18 2.6 1
-1 8 18 3 1.5
1 8 -18 5.4 1.2
-1 -8 -18 2.9 1.1
1 8 -18 1.3 0.9
1 8 -18 3.9 1.1
-1 8 18 3.6 1.4
1 -8 18 5 1.2
1 -8 18 2.3 1.2
-1 -8 18 3.6 1.2
1 8 18 1.3 1.1
-1 8 -18 2.7 1.2
1 -8 -18 4.9 1.4
-1 8 -18 0.7 1
1 8 18 2.2 1.4
-1 -8 18 3.6 1.1
1 -8 -18 1.5 1.1
2 8 -18 0.7 0.8
2 8 -18 0.9 0.8
-2 -8 -18 0.4 0.9
-2 8 18 0.9 1.1
2 8 -18 1.3 0.8
-2 8 18 1.7 1.4
-2 -8 -18 4 1.2
2 -8 18 0.4 0.9
2 8 18 1.7 1.1
2 -8 -18 1.1 1.2
-2 -8 18 0.4 0.8
-2 8 -18 2.1 1.1
-2 8 -18 1.3 1
-2 -8 18 1.4 0.9
2 8 18 -0.2 1.1
-2 -8 18 1.5 0.9
-2 -8 18 2 1
-3 -8 -18 6.7 1.6
3 8 -18 3.4 1.3
3 8 -18 3.5 1.4
3 -8 18 4.7 1.6
-3 8 18 11.1 2.1
3 8 -18 8.7 1.6
-3 -8 -18 5.6 1.6
3 8 -18 8.6 1.8
-3 8 18 6.1 1.8
3 -8 18 6.1 1.7
-3 -8 18 9.9 1.7
3 8 18 6 1.6
3 -8 -18 6.6 1.7
-3 8 -18 11.4 1.9
-3 8 -18 6.5 1.7
3 -8 -18 7.3 1.7
-3 -8 18 6.2 1.5
-3 -8 18 7.7 1.6
-3 -8 18 7.7 1.5
3 8 18 6.2 1.7
4 8 -18 2.1 0.9
4 8 -18 2.1 1
-4 8 18 4.3 1.8
4 8 -18 1.9 0.9
-4 8 18 5 1.7
-4 -8 -18 2 1.2
-4 -8 -18 4.5 1.3
4 -8 -18 2.3 1.2
4 8 18 -0.7 1.2
-4 -8 18 3.7 1.1
4 -8 -18 3.4 1.3
4 8 18 4.4 1.3
-4 -8 18 1.5 0.9
-5 -8 -18 1.7 1.2
-5 -8 -18 2.1 1.2
5 8 -18 2.9 0.9
5 8 -18 3.1 1
5 8 -18 1.9 1
-5 8 18 3.1 1.6
5 8 -18 4.4 0.9
-5 8 18 0.6 1.5
5 -8 18 2.9 1.3
-5 8 -18 3.2 1.2
5 -8 -18 3.3 1.5
5 8 18 4.2 1.4
-5 8 -18 1.5 1.2
5 8 18 0.2 1.1
5 -8 -18 4.6 1.4
-6 -8 -18 0.3 1
6 8 -18 0.6 0.9
6 -8 18 0.9 1.2
6 8 -18 -0.3 0.8
-6 -8 -18 1.1 1.1
-6 8 18 -1.2 1.5
6 -8 18 -0.5 1
-6 8 -18 -0.7 0.9
6 -8 -18 0.8 1.1
6 8 18 0.6 1.3
-6 8 -18 0.1 1.1
6 8 18 0.1 1.1
0 -9 18 0.3 1.1
0 -9 -18 0.8 0.9
0 9 18 -0.3 1.1
0 9 -18 -0.4 0.8
0 9 18 -0.3 1.2
0 -9 -18 -0.5 0.9
0 -9 18 1.1 1
0 9 -18 0.1 0.9
-1 9 18 -0.5 1
-1 9 18 -0.9 1.3
1 9 -18 0.4 0.7
1 9 -18 -0.6 0.7
1 9 -18 0 0.9
1 -9 18 -1.2 0.9
-1 -9 -18 1.2 1
1 -9 18 -1.4 0.8
-1 9 -18 0.4 1
1 -9 -18 -0.3 0.9
1 9 18 0.3 1.1
-1 -9 18 -0.2 0.9
-1 9 -18 -1.1 0.8
1 -9 -18 0.6 1
-1 -9 18 0 0.8
1 9 18 -0.8 1.3
2 9 -18 8.9 1.7
-2 -9 -18 10.4 1.9
-2 9 18 5.2 1.8
-2 -9 -18 6.6 1.7
2 9 -18 5.6 1.6
2 9 -18 6.5 1.6
-2 9 18 6.9 2.2
2 -9 18 7.6 1.8
-2 9 -18 7.1 1.8
-2 -9 18 9.6 1.8
-2 9 -18 11.2 2
2 -9 -18 5.6 1.7
2 -9 -18 6.5 1.9
-2 -9 18 10.1 1.8
-2 -9 18 7.7 1.7
2 9 18 7.5 1.9
2 9 18 9.9 2.1
-3 -9 -18 -0.1 0.9
3 -9 18 -1.9 0.9
3 -9 18 -1 0.9
3 9 -18 -2.2 0.6
-3 9 18 1.1 1.3
3 9 -18 0.4 0.8
-3 9 18 0.4 1.5
-3 -9 -18 -1.3 1
-3 9 -18 1.6 1
-3 -9 18 -1.4 0.8
-3 -9 18 0 0.8
3 -9 -18 -0.1 1.1
3 9 18 -1 1
-3 -9 18 -0.6 0.8
3 9 18 0 1.1
-3 -9 18 -1.1 0.8
3 -9 -18 -0.4 0.9
-3 9 -18 -0.2 0.9
-4 -9 -18 7.9 1.6
-4 -9 -18 3.5 1.4
4 9 -18 4.9 1.3
-4 9 18 7 2
4 9 -18 3.8 1.3
4 -9 18 9.7 1.9
4 -9 18 4.3 1.5
-4 9 18 4.5 1.9
4 9 -18 5.3 1.3
4 9 18 4.9 1.6
-4 9 -18 4.7 1.5
4 -9 -18 8.2 1.9
4 -9 -18 4.8 1.5
-4 -9 18 5.8 1.4
4 9 18 4.2 1.6
-5 -9 -18 0.2 1
5 9 -18 2.1 0.9
5 -9 18 0.3 1.1
-5 -9 -18 1.1 1.1
5 -9 18 0.5 1.1
5 9 -18 2.3 0.8
5 9 -18 2 1.1
5 9 18 0.3 1.2
-5 9 -18 2.8 1.1
5 9 18 -0.2 1.3
-5 9 -18 4.4 1.3
5 -9 -18 1.6 1.3
0 10 -18 34.4 5.7
0 10 18 29.9 5.8
0 -10 -18 30.2 5.7
0 10 -18 33.5 5.7
0 -10 18 38.1 5.8
0 10 18 30.2 5.9
0 -10 18 39.6 5.8
0 -10 -18 43.6 6
1 -10 18 10.5 2.3
1 10 -18 9.7 2
-1 -10 -18 10.6 2.2
1 -10 18 12.2 2.3
-1 -10 -18 5.9 2
-1 10 18 7 2.3
-1 10 18 10.7 2.4
1 10 -18 10.5 2.1
1 10 -18 10.4 2.1
1 -10 -18 12.2 2.4
-1 10 -18 9.2 2.1
-1 10 -18 12.2 2.2
1 -10 -18 9 2.1
-1 -10 18 12.3 2.2
-1 -10 18 13.3 2.2
1 10 18 10.9 2.5
1 10 18 11 2.4
-2 -10 -18 14.5 2.4
2 10 -18 8.3 2.1
2 -10 18 8.3 2.2
2 10 -18 11.2 2.2
2 -10 18 14.8 2.6
2 10 -18 12.4 2.3
-2 -10 -18 10.3 2.3
-2 10 18 10.2 2.7
-2 10 18 9.7 2.7
2 10 -18 13.8 2.3
-2 10 -18 10.1 2.3
2 -10 -18 13.6 2.5
2 10 18 9.7 2.5
2 -10 -18 8.5 2.3
-2 10 -18 13.9 2.4
-2 -10 18 17.3 2.5
-2 -10 18 15.1 2.4
2 10 18 11.7 2.5
-3 -10 -18 6.7 1.6
3 10 -18 6.5 1.5
3 10 -18 4 1.3
-3 -10 -18 4.3 1.4
3 10 -18 6 1.4
-3 -10 18 4.8 1.4
-3 -10 18 7.1 1.6
3 10 18 5.4 1.8
3 10 18 4.2 1.7
3 -10 -18 5.5 1.7
-3 -10 18 6 1.4
-3 -10 18 2.6 1.3
4 -10 18 2.1 1.2
4 10 -18 1.7 0.8
-4 10 18 0.8 1.5
-4 -10 -18 0.4 0.9
4 10 -18 -0.1 0.7
4 10 -18 1.2 0.8
-4 -10 -18 -0.5 1
4 -10 18 -1.4 1
4 10 -18 -0.7 0.9
-4 10 -18 1 1
-4 10 -18 0.8 0.9
4 10 18 -1.7 1.1
4 10 18 0.8 1.2
-5 10 18 1.5 1.7
5 10 -18 -0.6 0.9
5 -10 18 -1.3 1
-5 -10 -18 -1.5 0.9
-5 -10 -18 0.6 1
5 10 -18 0.4 0.9
-5 10 18 2.7 1.9
5 -10 18 1.3 1.2
-5 10 -18 0.3 1
5 10 18 0.7 1.3
5 -10 -18 -0.4 1.2
5 10 18 0.3 1.3
-5 10 -18 0.3 1
5 -10 -18 1.2 1.3
0 11 -18 0 0.9
0 11 18 2.6 1.6
0 11 18 0.2 1.2
0 11 -18 -0.4 0.9
0 -11 18 0.2 1
0 -11 -18 2 1
0 -11 -18 0.2 1.1
0 -11 18 -2 0.9
-1 -11 -18 0.4 1
1 -11 18 2.3 1.2
1 -11 18 2.6 1.2
1 11 -18 2.4 1.1
-1 -11 -18 0.6 1.1
1 11 -18 2.6 1.1
1 11 18 1 1.6
-1 -11 18 4.2 1.3
-1 11 -18 1.5 1
-1 11 -18 1.6 1.1
1 11 18 0.5 1.3
-1 -11 18 0.6 1.1
2 11 -18 1.3 1
2 11 -18 -0.1 0.9
-2 -11 -18 1.6 1
2 11 -18 -0.2 0.8
-2 -11 -18 0.5 1.1
2 11 18 -0.3 1.3
-2 -11 18 0.6 0.9
-2 -11 18 0.3 1
-2 11 -18 -0.6 0.9
2 11 18 1.5 1.3
-3 11 18 4.8 2.1
-3 -11 -18 8.2 1.9
-3 11 18 5.9 2.2
3 -11 18 10.8 2.2
3 11 -18 8.5 1.9
3 -11 18 12.1 2.2
3 11 -18 10.3 1.9
3 11 -18 9.1 1.9
-3 -11 -18 10.5 2.1
3 11 18 5.6 2
3 -11 -18 7.3 2
-3 11 -18 7.8 2
-3 -11 18 9.7 2.1
-3 -11 18 11.6 2.1
3 11 18 5.1 2.1
-3 -11 18 10.7 1.9
4 -11 18 1.5 1.3
-4 -11 -18 0.8 1
-4 -11 -18 0.1 1
-4 11 18 3.4 1.8
4 11 -18 -0.1 0.7
4 11 -18 1.2 1
-4 11 18 -0.1 1.4
4 11 -18 0.7 0.8
4 -11 18 -0.5 1.1
4 11 18 0.8 1.2
-4 11 -18 0.7 1
-4 11 -18 1 1.1
4 11 18 0.9 1.3
4 -11 -18 0.4 1.1
4 -11 -18 1.9 1.3
0 -12 -18 21.8 3.7
0 -12 18 21.9 3.8
0 12 -18 20.1 3.8
0 12 -18 18.8 3.6
0 -12 18 20.7 3.7
0 12 18 17.5 4.1
1 12 -18 1.6 1
1 12 -18 0 0.9
-1 12 18 0.7 1.4
-1 12 18 -0.1 1.4
1 -12 18 0.6 1.1
1 -12 18 0.9 1.1
-1 -12 18 0.4 1
-1 -12 18 -0.3 1
-1 12 -18 1.4 1
-1 12 -18 -1.4 0.8
1 -12 -18 -0.1 1.2
-2 12 18 3.9 2.1
2 -12 18 6.3 1.8
2 -12 18 6.9 1.7
2 12 -18 6.6 1.5
2 12 -18 4.1 1.4
2 12 -18 6.7 1.5
-2 12 18 5.1 1.9
2 -12 -18 4.1 1.7
-2 12 -18 6.9 1.7
2 -12 -18 6.5 1.7
2 12 18 8.4 2.1
-2 -12 18 4.1 1.4
3 12 -18 0.5 0.8
3 -12 18 0.9 1.1
-3 12 18 -0.4 1.5
3 12 -18 -0.1 0.8
-3 12 18 -0.6 1.4
3 -12 18 0.4 1.1
3 12 18 -0.5 1.4
-3 -12 18 -0.4 0.9
-3 12 -18 -0.4 0.9
3 -12 -18 2.1 1.3
3 -12 -18 -1.4 1.1
4 -12 18 -0.2 1.2
-4 12 18 -1.6 1.5
4 -12 18 0.8 1.2
4 12 -18 1.1 1
4 12 -18 0.2 0.8
-4 12 18 -1.8 1.4
4 12 -18 0.1 0.9
4 12 -18 -0.3 0.7
-4 12 -18 0 1
4 12 18 0.8 1.4
-4 12 -18 -1.5 0.9
4 -12 -18 1.1 1.3
4 -12 -18 0.3 1.2
0 -13 18 0.8 1.3
0 -13 -18 -0.4 1
0 -13 18 -0.3 0.9
0 13 -18 0.1 0.9
0 13 18 0.1 1.3
0 -13 -18 -0.1 1.2
0 13 -18 -0.7 0.9
-1 -13 -18 5.9 2.1
-1 13 18 7.2 2.4
1 13 -18 13.9 2.2
-1 -13 -18 9.2 2.1
-1 13 18 9.1 2.5
1 13 -18 11.3 2.1
1 -13 -18 6.6 2.1
-1 -13 18 16.7 2.6
1 -13 -18 7.4 2.1
1 13 18 8 2.3
-1 -13 18 10 2.1
1 13 18 12.8 2.6
-2 -13 -18 4.2 1.8
-2 -13 -18 5.8 1.7
2 13 -18 5.2 1.7
2 13 -18 11.6 1.9
-2 13 18 3.8 2
-2 13 18 9.2 2.2
2 13 -18 7 1.8
2 -13 18 12.6 2.2
2 -13 -18 5.9 1.8
-2 -13 18 7.8 1.9
-2 13 -18 5.6 1.7
-2 -13 18 8.7 1.8
2 13 18 7.8 2.2
2 -13 -18 9.3 2
-2 13 -18 7 1.8
3 -13 18 8.2 2.1
3 13 -18 10.3 2
-3 13 18 7.9 2.4
-3 -13 -18 8.1 2.1
3 13 -18 7.9 1.9
3 13 -18 11.8 2
3 -13 18 6 2
-3 -13 -18 12.1 2.3
-3 13 18 4.9 2.4
3 -13 -18 7.2 2.1
-3 13 -18 12.5 2.3
3 13 18 8.3 2.4
-3 13 -18 8.2 2.1
0 14 18 47.5 7.2
0 14 18 40.3 7
0 14 -18 47.5 6.9
0 -14 -18 36.7 6.8
0 -14 -18 39 6.9
-1 14 18 -1.6 1.4
-1 -14 -18 -0.3 1.6
1 14 -18 0.4 0.9
1 -14 18 -1.2 1
1 14 -18 0.4 1
-1 14 18 0.2 1.7
1 -14 18 -0.2 1.1
-1 -14 -18 1.1 1.2
-1 -14 18 -1.6 0.9
1 14 18 0.8 1.5
-1 14 -18 -1.7 0.9
-1 -14 18 0.6 1
-1 14 -18 0.4 0.9
1 -14 -18 0.2 1.2
1 -14 -18 1.8 1.5
0 0 19 -0.2 0.8
0 0 -19 0.6 0.7
0 0 19 0.2 0.8
0 0 -19 0.7 0.9
1 0 -19 0 0.7
1 0 19 0.2 0.9
1 0 19 1.1 0.8
-1 0 -19 0.3 0.9
-1 0 19 -1.3 0.8
1 0 -19 -1.9 0.8
-1 0 19 0.4 0.8
-1 0 -19 0.8 0.8
1 0 -19 -0.4 0.6
-1 0 19 -0.9 0.9
-1 0 19 0.6 1
1 0 -19 -0.1 0.8
-2 0 19 -0.2 0.8
-2 0 -19 0.4 1
2 0 -19 -0.7 0.9
2 0 -19 0.5 0.7
2 0 19 -0.3 0.9
-2 0 -19 -0.4 0.8
2 0 19 2.1 0.9
2 0 -19 0.2 0.8
-2 0 19 -0.2 0.9
-2 0 19 -0.5 0.8
2 0 -19 -0.4 0.6
-2 0 19 1.7 1
-3 0 19 -0.9 0.9
3 0 -19 -0.6 0.7
3 0 -19 -0.4 0.8
-3 0 19 0.6 0.9
-3 0 19 0.6 1
3 0 19 0.1 0.8
3 0 19 0.1 0.9
-3 0 19 -0.7 0.9
3 0 -19 -0.1 0.6
3 0 -19 -0.4 0.6
-3 0 -19 -0.3 0.9
4 0 19 0.1 0.8
4 0 -19 -0.3 0.7
-4 0 19 1.6 1
-4 0 19 0.6 0.8
-4 0 -19 0.7 0.9
-4 0 19 -0.8 0.8
4 0 -19 -0.4 0.8
4 0 -19 -0.5 0.6
4 0 19 -0.4 0.8
-4 0 -19 1.2 1
4 0 -19 0.4 0.7
-4 0 19 1.1 1.1
-5 0 19 -0.6 0.9
5 0 -19 -0.4 0.7
-5 0 19 -0.5 1
5 0 19 1.7 1
-5 0 19 -1.2 1.1
-5 0 -19 -0.8 0.9
5 0 -19 0.1 0.7
5 0 19 1 1
5 0 -19 -0.2 0.9
-5 0 -19 -1.2 0.9
-5 0 19 -1.2 0.8
6 0 19 -0.1 0.9
6 0 -19 -0.5 0.8
-6 0 -19 0.4 1.1
-6 0 19 1.3 1.2
6 0 19 1.2 1.1
-6 0 -19 1.1 1.1
6 0 -19 1.5 0.8
6 0 -19 -0.4 1
-6 0 19 -0.6 0.8
6 0 -19 -1.6 0.9
7 0 -19 0.3 0.9
7 0 -19 0.3 0.8
7 0 -19 -1 1.1
7 0 19 -0.1 0.9
7 0 -19 -1.3 0.9
0 1 -19 -1.1 0.7
0 1 -19 -0.3 0.9
0 1 19 0.2 0.8
0 1 -19 -0.2 0.7
0 -1 19 -0.5 0.8
0 -1 19 -0.2 0.7
0 1 -19 0.2 0.7
0 -1 19 1.4 0.9
0 -1 -19 1 0.9
0 -1 -19 -0.9 0.8
0 1 19 0 0.9
0 -1 -19 -0.6 0.9
-1 1 19 0.8 0.9
1 1 -19 0.1 0.8
1 1 -19 2.6 0.9
1 -1 19 0.8 0.9
-1 -1 -19 -0.7 0.8
-1 1 19 2 0.9
-1 -1 -19 -0.1 0.9
-1 1 19 0.7 0.9
1 1 -19 0.2 0.6
1 1 -19 0.3 0.9
-1 1 -19 1.1 1
1 -1 -19 1.3 0.8
1 1 19 1.1 0.9
1 -1 -19 1.5 1
-1 -1 19 1.4 0.9
1 -1 -19 1.7 0.9
-1 -1 19 0.5 0.9
-1 1 -19 1.7 1
1 1 19 0.4 0.8
-1 -1 19 -0.3 0.8
1 -1 -19 2.5 1
-2 -1 -19 -0.3 0.8
-2 1 19 -0.4 0.9
-2 1 19 1.5 1
2 1 -19 -0.3 0.6
-2 -1 -19 2.2 1
2 1 -19 1.4 0.7
-2 1 19 -0.4 1
2 -1 19 0.8 0.9
2 -1 19 -0.7 0.7
2 1 -19 -0.8 0.7
-2 1 19 -0.6 0.8
2 1 -19 0.1 0.9
-2 1 -19 -0.5 0.8
2 -1 -19 0.8 0.7
2 1 19 0.7 0.9
-2 -1 19 -0.5 0.8
-2 -1 19 -0.6 0.9
2 -1 -19 -0.4 0.6
2 -1 -19 1 0.9
-2 -1 19 1.1 0.9
-2 -1 19 0.5 0.8
2 1 19 0.5 0.8
2 -1 -19 0.8 0.7
3 1 -19 0 0.6
-3 1 19 -1.8 0.8
3 -1 19 0.1 0.8
-3 1 19 -0.2 0.9
3 1 -19 0 0.9
3 1 -19 -0.4 0.6
-3 1 19 -0.6 1
3 -1 19 0.5 0.9
-3 -1 -19 0.6 1
3 1 -19 -0.1 0.7
-3 1 19 0.1 0.9
3 -1 -19 2.1 0.9
3 -1 -19 -0.1 0.6
3 -1 -19 0.1 0.8
3 1 19 0.2 0.9
-3 -1 19 1.6 0.9
-3 -1 19 0.6 0.9
-3 1 -19 1 1
-3 -1 19 0.7 0.9
-3 -1 19 2.2 1.1
-3 1 -19 0 0.9
3 -1 -19 1.4 0.7
-4 1 19 4.5 1.2
-4 1 19 2.1 1.3
-4 1 19 4.9 1.3
4 1 -19 6.4 1.2
-4 1 19 5.2 1.3
-4 -1 -19 4 1.3
4 1 -19 5 1.2
4 -1 19 4.9 1.4
4 -1 19 2.9 1.2
-4 -1 19 4.1 1.2
-4 -1 19 4 1.3
4 1 19 6.4 1.4
-4 1 -19 3.1 1.3
-4 -1 19 5.5 1.4
4 -1 -19 2.6 1.1
4 -1 -19 4.7 1.3
-4 1 -19 1.9 1.2
4 -1 -19 2.8 0.9
4 -1 -19 1 1
-4 -1 19 4.5 1.2
-5 -1 -19 0.7 1
-5 -1 -19 1 1
-5 1 19 -1.5 1
5 1 -19 -0.3 0.7
5 -1 19 1.3 1
5 1 -19 -1.3 0.8
5 -1 19 1.7 1
5 1 -19 -0.1 0.8
-5 1 19 0.7 1
-5 1 19 0.2 1.3
5 1 -19 -0.6 0.8
5 -1 -19 -0.1 0.6
5 -1 -19 -0.5 0.9
5 1 19 -1.4 0.8
5 1 19 -1.9 0.8
-5 1 -19 1.6 1.5
-5 -1 19 -1 0.7
-5 -1 19 0 0.9
-5 -1 19 1.2 1.2
-5 1 -19 -1 0.8
-5 -1 19 -0.8 0.9
5 -1 -19 0.9 1.3
-6 -1 -19 4.5 1.4
-6 1 19 3.4 1.3
6 1 -19 3.9 1
-6 1 19 2.2 1.2
6 -1 19 3.2 1.3
6 1 -19 2.3 1.2
6 -1 19 1.4 1.2
-6 1 19 1.3 1.5
6 1 -19 4.2 1.1
6 1 -19 2.7 1.1
-6 -1 -19 3 1.2
6 -1 -19 1.5 1.1
-6 -1 19 3.6 1.2
6 -1 -19 2.2 0.9
6 -1 -19 1.8 1.1
-6 1 -19 3.2 1.3
6 1 19 1.8 1.2
6 -1 -19 2.1 1
6 1 19 2.8 1.1
7 1 -19 2 0.9
7 1 -19 1.6 1
7 -1 -19 2.1 1
-7 1 -19 4.4 1.4
7 1 19 2.5 1.2
0 2 -19 355.26 57.89
0 -2 19 347.87 57.79
0 2 -19 413.76 57.89
0 2 -19 373.26 57.89
0 2 19 368.96 57.89
0 -2 19 388.56 57.89
0 2 19 379.06 57.89
0 -2 -19 398.36 57.89
0 2 -19 379.76 57.89
0 -2 -19 393.46 57.89
-1 2 19 102.69 17.1
1 2 -19 90.89 17
1 2 -19 103.59 17
-1 -2 -19 93.89 17
1 2 -19 126.59 17
1 -2 19 125.69 17
-1 2 19 107.39 17
-1 -2 -19 109.09 17.1
1 2 -19 109.69 17
1 -2 -19 108.99 17
-1 2 -19 108.79 17.1
1 -2 -19 113.89 17.1
1 2 19 124.59 17.1
-1 -2 19 111.29 17
-1 -2 19 120.09 17.2
-1 2 -19 104.79 17.1
1 -2 -19 115.19 17
-1 -2 19 114.49 17
1 2 19 114.09 17
2 2 -19 57.39 10
2 -2 19 67.49 10.1
2 2 -19 67.09 10.1
2 2 -19 69.39 10.1
-2 -2 -19 63.79 10.1
2 2 -19 68.19 10.1
-2 -2 -19 66.89 10.1
-2 2 19 80.29 10.2
-2 2 -19 52.59 10.1
-2 -2 19 72.69 10.1
2 -2 -19 70.49 10.1
2 -2 -19 57.69 10
2 -2 -19 67.49 10.1
2 2 19 66.19 10.1
2 2 19 49.7 10
-2 -2 19 58.69 10
2 -2 -19 73.19 10.1
3 2 -19 2.1 0.8
-3 -2 -19 1 1
-3 2 19 2.5 1.2
3 2 -19 0.7 1
3 -2 19 2.6 1.1
-3 -2 -19 2.5 1
3 2 -19 1.1 0.8
-3 2 19 2.7 1.1
-3 2 19 0.8 0.9
3 2 -19 1.3 0.8
3 -2 19 3.5 1.1
-3 -2 19 3.1 1
-3 -2 19 1.2 0.9
-3 2 -19 4 1.2
-3 -2 19 1.8 1.1
3 -2 -19 2.8 0.9
-3 2 -19 0.5 1
3 2 19 1 1
3 -2 -19 0.4 0.9
-3 -2 19 1 0.9
3 -2 -19 2.3 0.9
3 -2 -19 0.6 0.8
4 2 -19 29 4.6
-4 -2 -19 34 4.9
4 2 -19 25.7 4.6
-4 2 19 31.9 4.8
4 -2 19 32.5 4.8
-4 -2 -19 36 4.9
-4 2 19 34.6 4.9
4 2 -19 25.3 4.6
-4 -2 19 29.6 4.7
4 -2 -19 27.9 4.6
4 2 19 26.2 4.7
4 -2 -19 28.7 4.7
-4 -2 19 25 4.7
4 -2 -19 26.5 4.6
-4 -2 19 27.2 4.7
4 -2 -19 25.5 4.7
4 2 19 26.7 4.7
-4 -2 19 25.3 4.6
5 2 -19 -0.1 0.9
5 2 -19 -0.4 0.8
5 2 -19 -0.7 0.6
5 2 -19 -0.3 0.7
-5 -2 -19 -0.5 1.1
-5 2 19 -1 1.3
5 -2 19 1.1 1.2
5 -2 19 0.5 1.1
-5 2 19 1.8 1.1
5 2 19 1.7 1
5 2 19 -0.1 1.1
5 -2 -19 -0.2 0.7
-5 -2 19 -1 0.8
-5 -2 19 0 0.9
5 -2 -19 -0.2 0.8
-5 2 -19 0.1 1
5 -2 -19 0.8 1
5 -2 -19 -0.3 0.8
-5 -2 19 -0.5 0.8
-5 -2 19 2.2 1.2
-6 2 19 9.2 2.3
6 2 -19 9.1 1.7
-6 -2 -19 9.1 2
-6 2 19 9.8 2.1
6 2 -19 8.7 1.7
-6 -2 -19 10.3 2
6 2 -19 8.5 1.7
6 2 -19 12.2 2.7
6 -2 19 6.7 1.9
-6 2 -19 8.2 2.2
6 2 19 8.7 2
6 -2 -19 7.2 2
6 -2 -19 9.7 2
6 -2 -19 5.5 1.6
6 2 19 13 2.1
0 -3 19 -1.1 0.7
0 -3 19 0.7 0.9
0 3 -19 1.2 0.9
0 -3 -19 0.2 0.8
0 3 -19 -0.2 0.7
0 -3 -19 -1.5 0.8
0 3 -19 0.2 0.9
0 3 -19 -0.4 0.8
0 3 19 0.6 0.9
1 3 -19 20 3.4
1 3 -19 16.2 3.3
-1 3 19 27.2 3.6
1 -3 19 21.9 3.5
1 3 -19 25.7 3.5
1 -3 19 17.2 3.4
1 3 -19 23.3 3.6
-1 3 19 17.3 3.6
-1 -3 -19 27.1 3.7
-1 -3 -19 19.6 3.5
-1 -3 19 18.7 3.5
-1 -3 19 15.9 3.7
-1 3 -19 21.5 3.5
1 -3 -19 18.6 3.6
-1 -3 19 20.7 3.5
1 3 19 17.1 3.4
1 3 19 19 3.5
-1 -3 19 20.9 3.5
1 -3 -19 19.8 3.4
2 3 -19 8.1 1.8
2 3 -19 12.4 1.9
-2 -3 -19 7.7 1.9
2 3 -19 10.4 1.8
2 -3 19 11.2 2
-2 3 19 6 1.9
2 -3 19 6.8 1.8
-2 -3 -19 12.3 2.1
2 3 -19 6.8 1.7
-2 3 19 8.4 1.9
2 -3 -19 10.5 1.9
-2 -3 19 11.4 1.9
-2 -3 19 12 1.9
-2 3 -19 6.2 1.8
2 -3 -19 8.5 1.8
-2 -3 19 7.1 1.7
2 3 19 8.1 1.9
2 3 19 7 1.8
2 -3 -19 9.3 1.8
-2 -3 19 10.6 1.9
-3 3 19 3 1.4
3 -3 19 0.7 0.9
-3 -3 -19 1.3 0.9
3 -3 19 0.4 0.8
3 3 -19 0 0.7
3 3 -19 0.3 1
3 3 -19 2.1 0.8
-3 -3 -19 0.9 1
-3 3 19 3 1.2
-3 3 -19 1.5 0.9
3 3 19 2.4 1.1
-3 -3 19 2.7 1
3 3 19 2.2 1.1
-3 -3 19 1.5 0.9
3 -3 -19 1.4 0.8
3 -3 -19 -0.4 0.9
3 -3 -19 -0.1 0.8
-3 3 -19 2 1
-3 -3 19 1.2 0.8
-4 3 19 11.2 2.7
-4 -3 -19 18.2 3
4 3 -19 17.9 2.7
-4 3 19 12.4 2.9
4 3 -19 20.1 2.8
4 3 -19 13.1 2.6
4 -3 19 14.9 2.8
4 3 -19 13.8 2.7
4 3 19 16.7 2.9
4 3 19 18.8 2.9
-4 3 -19 14.6 2.8
-4 -3 19 11.9 2.7
4 -3 -19 11.7 2.6
4 -3 -19 16.8 2.9
-4 -3 19 14.8 2.7
-4 -3 19 17 2.8
4 -3 -19 17 2.8
-4 3 -19 17.8 2.9
-5 3 19 0.7 1.2
5 3 -19 1.2 0.9
5 -3 19 4.2 1.2
-5 -3 -19 0.9 1.1
5 -3 19 1.3 1
-5 3 19 2.6 1.5
5 3 -19 2.7 0.9
5 3 -19 1.5 0.9
5 -3 -19 1.7 0.9
5 3 19 1.2 1
5 -3 -19 2 1.2
-5 3 -19 1.2 1
-5 3 -19 2.7 1.2
-5 -3 19 1.7 1
5 3 19 2.1 1.1
5 -3 -19 1.8 1.2
-5 -3 19 2.5 1.1
-6 3 19 -1.4 1.3
6 3 -19 2.9 0.9
6 3 -19 1.4 0.9
-6 3 19 2.4 1.3
-6 -3 -19 2.2 1.3
6 -3 -19 -1.7 1
6 3 19 1.7 1.1
6 3 19 3.6 1.3
6 -3 -19 1.5 0.9
6 -3 -19 -1.2 1
0 -4 -19 49.8 6.3
0 -4 19 34.3 6.2
0 -4 -19 37.6 6.2
0 4 -19 47.5 6.3
0 4 -19 36.6 6.2
0 4 19 35.5 6.1
0 4 -19 39.5 6.2
0 4 19 32.4 6.2
0 -4 19 36.6 6.2
1 4 -19 20.3 3.8
1 4 -19 23.8 3.9
1 4 -19 25.7 3.9
1 -4 19 22.1 3.9
-1 -4 -19 25.8 3.9
-1 4 19 28.7 4
1 4 -19 24.2 3.9
-1 -4 -19 22.5 3.9
-1 4 19 26 4
1 -4 19 25 3.9
-1 4 -19 17.6 3.8
-1 -4 19 20 3.8
1 -4 -19 27 4
-1 -4 19 21 3.9
1 4 19 18 3.9
-1 -4 19 24.2 3.9
1 4 19 18.2 3.8
-1 -4 19 22.8 3.8
-2 4 19 4.4 1.4
-2 -4 -19 1 1.1
-2 -4 -19 3.5 1.2
2 -4 19 4.9 1.2
2 4 -19 1.6 0.9
2 -4 19 2 1.2
2 4 -19 3.2 1
2 4 -19 2.6 1
2 4 -19 2.8 1.1
-2 4 19 2.6 1.2
-2 4 -19 4.1 1.3
2 4 19 4.1 1.2
2 4 19 2.8 1.1
2 -4 -19 3.2 1.1
-2 -4 19 4.1 1.1
2 -4 -19 1.4 1.1
-2 -4 19 4.8 1.2
-2 -4 19 3.2 1.1
-2 4 -19 3.4 1.1
-2 -4 19 2.9 1
3 4 -19 0 0.9
-3 -4 -19 0.6 0.9
3 4 -19 2.3 0.9
3 4 -19 0.3 0.8
-3 4 19 0.6 1.2
3 -4 19 1.8 0.9
-3 -4 -19 1.9 1.1
3 -4 19 0 0.9
-3 4 19 0.9 1.1
3 -4 -19 1.5 0.9
3 4 19 0.3 1
-3 4 -19 1 1
-3 -4 19 2.4 0.9
-3 4 -19 0.7 1
3 4 19 2.3 1.1
-3 -4 19 2.8 1
-3 -4 19 1.2 0.9
3 -4 -19 0.4 0.9
4 -4 19 20.6 3.3
-4 -4 -19 15 3.1
4 4 -19 18.5 3
4 4 -19 20.6 3.2
-4 4 19 17.4 3.2
-4 4 19 23.5 3.5
4 4 -19 21.3 3
4 -4 19 13 3.1
-4 -4 -19 14.4 3.2
-4 4 -19 18.1 3.3
4 -4 -19 16 3.1
-4 -4 19 15.9 3
4 4 19 17.6 3.1
-4 4 -19 25.5 3.4
-4 -4 19 15.7 3
4 -4 -19 14.2 3.1
4 4 19 17.4 3.2
5 4 -19 -0.2 0.7
5 -4 19 0.3 1
5 4 -19 0.2 0.8
5 4 -19 0.8 0.8
-5 -4 -19 -0.2 0.9
-5 4 19 0.2 1.1
-5 -4 -19 2.1 1.2
-5 4 19 0.2 1.4
5 -4 19 0.6 1
5 -4 -19 0.8 1
-5 -4 19 -0.2 0.9
-5 4 -19 0.3 1
-5 4 -19 1.1 1
5 4 19 -0.3 1
5 4 19 0.6 1
5 -4 -19 0 1
-5 -4 19 -0.3 0.8
-6 4 19 47.5 8.4
6 4 -19 46.1 8
6 4 -19 58.99 8
-6 -4 -19 51.69 8.4
6 -4 19 49.1 8.4
-6 4 19 39.8 8.3
6 4 -19 51.19 8.1
-6 -4 -19 43.1 8.2
-6 4 -19 63.09 8.3
6 4 19 46 8.2
-6 4 -19 48.8 8.3
6 4 19 45.2 8.2
6 -4 -19 60.59 8.2
6 -4 -19 60.79 8.3
0 -5 -19 -0.6 0.8
0 -5 19 -0.6 0.8
0 5 -19 -0.4 0.7
0 -5 19 -0.6 0.7
0 5 19 -1.6 0.8
0 -5 -19 0.4 0.8
0 5 19 -0.9 0.8
0 5 -19 -1.2 0.6
1 -5 19 83.59 12.7
1 5 -19 92.29 12.7
1 -5 19 80.29 12.7
-1 5 19 89.39 12.8
-1 5 19 80.09 12.8
-1 -5 -19 79.59 12.7
1 5 -19 71.09 12.7
1 5 -19 90.89 12.7
1 5 -19 89.39 12.7
-1 -5 -19 79.59 12.7
-1 5 -19 82.59 12.7
-1 -5 19 70.69 12.7
-1 5 -19 72.59 12.7
-1 -5 19 80.99 12.7
-1 -5 19 84.19 12.7
1 -5 -19 91.09 12.8
1 5 19 63.69 12.7
-1 -5 19 89.49 12.9
1 -5 -19 86.79 12.7
1 5 19 86.39 12.7
2 -5 19 0 0.9
2 5 -19 -0.7 0.6
2 5 -19 -0.3 0.7
-2 -5 -19 -0.3 0.9
-2 5 19 1.5 1.2
2 5 -19 -0.3 0.6
2 -5 19 -1.6 0.7
2 5 -19 -0.7 0.8
-2 5 19 -0.1 0.9
-2 -5 19 0.1 0.8
2 -5 -19 0.4 0.8
-2 5 -19 0.3 0.8
2 5 19 0.4 1
-2 5 -19 -0.1 0.8
-2 -5 19 0.4 0.8
2 -5 -19 0.3 0.9
-2 -5 19 -1.2 0.7
-2 -5 19 0.7 1
-3 5 19 153.68 26.2
-3 -5 -19 165.98 26.2
3 5 -19 154.08 26.1
3 5 -19 183.68 26.2
3 -5 19 177.58 26.2
-3 -5 -19 187.78 26.3
-3 5 19 174.78 26.2
-3 5 -19 171.48 26.2
-3 5 -19 178.68 26.2
-3 -5 19 163.18 26.1
-3 -5 19 150.68 26.1
3 5 19 175.08 26.2
-3 -5 19 188.48 26.1
-3 -5 19 173.98 26.1
3 -5 -19 173.08 26.2
3 -5 -19 165.98 26.2
4 -5 19 10.4 2.7
4 -5 19 16.2 2.8
-4 5 19 16.3 3
-4 -5 -19 16.4 2.8
4 5 -19 14.1 2.5
4 5 -19 15.2 2.5
-4 -5 -19 11.8 2.7
4 5 -19 26.6 3.7
4 5 -19 13.3 2.5
-4 5 19 11 2.7
-4 -5 19 14.7 2.6
-4 5 -19 17.5 2.8
-4 -5 19 16.8 2.6
-4 5 -19 15.5 2.8
4 -5 -19 9 2.6
4 5 19 15.2 2.8
4 5 19 17.4 2.7
4 -5 -19 15.3 2.7
-4 -5 19 9.5 2.5
5 5 -19 15.5 2.6
5 5 -19 14.5 2.6
-5 5 19 12.6 2.9
5 5 -19 17.7 2.7
-5 5 19 15 3.2
-5 -5 -19 12.3 2.7
-5 -5 -19 18 3
5 -5 -19 12.4 2.8
5 5 19 16.7 2.9
5 5 19 18.1 2.9
5 -5 -19 13.1 2.8
-6 5 19 -1.5 1.2
6 -5 19 0.5 1.1
6 5 -19 -1.1 0.9
-6 5 19 0.2 1.5
-6 -5 -19 0.7 1.1
-6 -5 -19 -0.3 1.1
6 -5 19 0.5 1
6 5 -19 1.5 0.9
-6 5 -19 -1 0.9
6 -5 -19 -0.4 1.1
6 5 19 0.9 1.1
6 -5 -19 -0.9 0.9
6 5 19 0 1
-6 5 -19 0.8 1.1
0 -6 19 3.4 1.1
0 6 19 4.5 1.5
0 6 -19 3.7 1.1
0 -6 19 3 1.2
0 -6 -19 2.4 1
0 6 19 4.2 1.3
0 -6 -19 2.6 1.1
0 6 -19 3.2 1.1
-1 -6 -19 45.1 6.4
1 -6 19 40 6.4
1 6 -19 37.9 6.2
-1 6 19 50.79 6.5
-1 6 19 35.7 6.5
-1 -6 -19 36.8 6.3
1 6 -19 41 6.3
1 -6 19 35.7 6.3
1 6 -19 37.8 6.3
-1 -6 19 31.9 6.2
-1 6 -19 51.19 6.5
1 6 19 38.7 6.4
-1 -6 19 39.4 6.3
-1 -6 19 40 6.3
1 -6 -19 35 6.3
-1 6 -19 37.1 6.4
1 6 19 42.3 6.4
1 -6 -19 34 6.3
2 -6 19 0.2 0.8
-2 -6 -19 -0.3 0.8
2 -6 19 -1 0.8
2 6 -19 0.5 0.9
2 6 -19 0.6 0.7
-2 -6 -19 -1.2 0.8
-2 6 19 0.3 1.2
-2 6 19 1.2 1.1
2 6 -19 -0.5 0.7
2 6 -19 -0.2 0.7
2 -6 -19 0.9 0.9
-2 6 -19 0.7 0.9
-2 -6 19 0.1 0.9
-2 -6 19 -0.2 0.8
-2 6 -19 0.1 0.8
2 -6 -19 -0.1 0.9
2 6 19 0.3 0.9
-2 -6 19 -0.3 0.7
-2 -6 19 0.3 0.8
3 6 -19 1.5 0.7
-3 6 19 1.3 1.2
3 -6 19 2.4 1.1
-3 -6 -19 0.2 0.9
-3 -6 -19 0.9 1.1
3 -6 19 1.3 1
-3 6 19 1.4 1.4
3 6 -19 0 0.7
3 6 19 -0.3 1
-3 6 -19 1.7 0.9
-3 -6 19 0.3 0.8
-3 -6 19 2.1 1
3 -6 -19 1.7 1
-3 -6 19 -0.6 0.8
3 -6 -19 0.8 1
-3 6 -19 -0.2 0.8
3 6 19 1.3 1.1
-3 -6 19 -1.1 0.7
-4 6 19 5.6 2.1
4 6 -19 12 1.7
-4 -6 -19 11.8 2.1
-4 -6 -19 12.1 2.1
4 -6 19 7 1.8
4 6 -19 7.2 1.6
4 6 -19 7.9 1.6
4 -6 19 7.6 1.7
4 6 -19 8.2 1.9
4 6 19 6.4 1.8
4 6 19 10.5 2.1
-4 6 -19 4.5 1.7
4 -6 -19 6.2 1.8
-4 6 -19 9.1 1.8
-4 -6 19 5.4 1.6
4 -6 -19 9.7 1.9
-4 -6 19 8.5 1.7
-4 -6 19 7.4 1.7
5 6 -19 3.5 1.3
-5 6 19 4.6 1.7
5 6 -19 3 1
-5 6 19 2.3 1.6
-5 -6 -19 3.1 1.4
5 6 -19 3 1
-5 -6 -19 2.9 1.2
5 -6 -19 4.7 1.4
-5 6 -19 6.1 1.5
5 6 19 2.1 1.2
-5 6 -19 4.1 1.4
5 -6 -19 3.6 1.4
5 6 19 3.5 1.3
-6 6 19 0.5 1.5
-6 -6 -19 0 1.2
-6 6 19 -0.7 1.3
6 6 -19 0.6 0.8
6 6 -19 0 0.9
6 -6 19 2.7 1.2
-6 -6 -19 1.7 1.1
-6 6 -19 0.3 1.1
6 -6 -19 0.1 1
6 -6 -19 0.7 1.3
-6 6 -19 0.5 1
6 6 19 2.2 1.2
6 6 19 -0.7 1.1
0 -7 19 1 0.9
0 7 -19 0.1 0.8
0 7 19 0.3 1
0 -7 19 -0.5 0.7
0 7 -19 0.2 0.8
0 -7 -19 -1 0.7
0 -7 -19 -0.2 0.9
0 7 19 0.1 1
-1 -7 -19 22.4 4
-1 7 19 25.6 4.1
1 -7 19 23.6 4
-1 -7 -19 21.8 4
-1 7 19 17.2 4.1
1 7 -19 31.3 4.1
1 -7 19 20.4 4
1 7 -19 19.7 3.9
-1 -7 19 25.7 4
-1 7 -19 24.2 4.1
-1 -7 19 26.3 4
1 7 19 23.5 4
-1 7 -19 28.1 4.1
1 7 19 24.1 4.2
1 -7 -19 29.7 4.2
1 -7 -19 18.7 3.9
2 7 -19 4.3 1.2
-2 -7 -19 3.4 1.1
2 7 -19 2.4 0.9
2 -7 19 0.7 0.9
2 7 -19 4 1
2 7 -19 3 1
-2 7 19 5.4 1.6
-2 -7 -19 1 1.1
2 -7 19 3 1.2
-2 -7 19 2.1 1
2 7 19 3 1.2
-2 7 -19 2.1 1
-2 -7 19 1.3 1
-2 -7 19 1.7 1
-2 -7 19 2 1
2 -7 -19 2.5 1.2
2 -7 -19 2 1.1
2 7 19 1.9 1.3
3 7 -19 9.5 2
-3 -7 -19 9.3 1.7
3 7 -19 6 1.5
-3 7 19 2.2 1.7
3 -7 19 7.1 1.6
-3 7 19 6.4 1.8
3 -7 19 6.7 1.7
-3 -7 -19 7 1.7
3 7 -19 4.2 1.3
3 7 19 6.4 1.8
3 -7 -19 7.4 1.7
3 -7 -19 4.2 1.6
-3 -7 19 6.8 1.5
3 7 19 5.2 1.6
-3 -7 19 4.2 1.4
-3 7 -19 8.6 1.8
-3 7 -19 6 1.5
-3 -7 19 7.7 1.5
4 7 -19 12.7 2.6
4 7 -19 14.1 2.6
-4 7 19 19.8 3.4
4 7 -19 12.7 2.7
-4 -7 -19 14.8 2.9
-4 -7 -19 14.5 2.8
-4 7 19 11.2 2.8
4 7 -19 17.5 2.6
4 7 19 12.5 2.8
-4 -7 19 21.7 3.1
4 -7 -19 15.1 2.8
-4 -7 19 16.3 2.7
-4 -7 19 15.9 2.7
-4 -7 19 12.9 2.6
4 -7 -19 14.8 3
4 7 19 16.5 3
-5 7 19 -1 1.2
5 7 -19 0 0.6
-5 7 19 -1.4 1.3
5 -7 19 0.6 1.1
5 7 -19 0.7 1.1
-5 -7 -19 1.4 1.1
-5 -7 -19 1 1.2
5 -7 19 -0.7 0.9
5 7 -19 -0.3 0.7
5 -7 -19 0.5 1.2
5 7 19 1.1 1.2
-5 7 -19 1 1
5 -7 -19 0.3 1.1
5 7 19 -2.2 1
-5 7 -19 1.3 1.1
6 7 -19 4 1.2
6 7 -19 5.3 1.3
-6 -7 -19 5.3 1.6
-6 -7 -19 6 1.5
6 -7 19 7.7 1.8
-6 7 19 3.5 2
6 -7 19 4.6 1.7
-6 7 19 3.9 1.8
-6 7 -19 5.3 1.6
6 7 19 3.2 1.5
6 7 19 4.4 1.7
-6 7 -19 5 1.5
6 -7 -19 3.5 1.5
6 -7 -19 3.5 1.4
0 8 -19 0.1 0.8
0 8 -19 0.3 0.9
0 8 19 1 1.1
0 -8 19 0.8 0.9
0 -8 19 0.1 0.9
0 8 19 1.7 1.3
0 -8 -19 0.2 0.9
0 -8 -19 0.2 1
1 -8 19 33.9 4.8
-1 8 19 24.9 4.8
-1 -8 -19 25.2 4.6
1 8 -19 35.2 4.8
1 8 -19 27.2 4.7
1 -8 19 28.2 4.7
1 8 -19 21.2 4.5
-1 8 19 28.1 5
-1 -8 -19 30 4.8
-1 -8 19 30.8 4.7
-1 8 -19 34.7 4.8
1 -8 -19 23.7 4.6
1 -8 -19 21.5 4.6
-1 8 -19 24.4 4.7
1 8 19 34.7 4.9
-1 -8 19 29 4.7
1 8 19 33.7 5
2 8 -19 0 0.8
2 8 -19 0.3 0.7
-2 8 19 0.5 1.1
-2 -8 -19 0.2 0.9
-2 -8 -19 -0.1 0.9
2 -8 19 -0.1 1
2 8 -19 -0.4 0.6
-2 8 -19 -0.9 0.9
2 -8 -19 -0.2 0.9
2 8 19 1.4 1.3
2 -8 -19 0.4 1.1
2 8 19 -2 0.8
-2 -8 19 -1.3 0.7
-2 -8 19 -0.9 0.8
-2 -8 19 0.5 0.9
-3 -8 -19 0.4 0.9
-3 -8 -19 0 1
3 -8 19 -0.8 1
3 8 -19 0.8 0.8
3 -8 19 0.3 1.2
3 8 -19 0.7 0.9
3 8 -19 -0.2 0.8
-3 8 19 0.5 1.5
-3 8 19 -0.8 1.1
3 8 19 0.1 1.2
3 -8 -19 1.9 1.2
-3 8 -19 0.9 0.9
-3 -8 19 -0.4 0.8
-3 -8 19 1.9 0.9
3 8 19 -0.1 1
3 -8 -19 -0.3 1
-3 -8 19 -0.5 0.9
-3 8 -19 -1.5 0.9
-3 -8 19 0.7 0.8
-4 -8 -19 2.8 1.1
-4 8 19 0.5 1.3
4 8 -19 1.5 0.9
4 8 -19 1.2 0.8
-4 -8 -19 1 1.1
4 -8 19 0.6 1.1
4 8 -19 0.3 0.8
4 -8 19 0.5 1
4 8 -19 -0.5 0.9
-4 8 19 0.5 1.4
-4 -8 19 -0.3 0.8
4 -8 -19 -1.5 1.1
4 8 19 2 1.3
-4 -8 19 1.1 0.9
-4 8 -19 0.8 1
4 8 19 0.8 1.1
4 -8 -19 2.2 1.2
5 8 -19 1.4 0.9
-5 -8 -19 1.8 1.1
5 8 -19 1.4 0.8
-5 -8 -19 2.4 1.2
-5 8 19 -0.4 1.3
5 -8 19 -0.2 1.2
5 -8 -19 -0.4 1.2
5 8 19 0.6 1.2
-5 8 -19 1.7 1.1
5 -8 -19 -0.3 1
5 8 19 -0.1 1.1
-5 8 -19 0.8 1.1
0 9 -19 0.4 0.9
0 -9 -19 -0.1 0.8
0 9 -19 0.9 0.9
0 9 19 0.4 1.3
0 -9 -19 0.4 0.9
0 -9 19 -0.8 1
0 9 19 -0.1 1.1
0 -9 19 -0.6 0.9
-1 9 19 -0.5 1.4
-1 -9 -19 0 0.9
1 -9 19 1.2 1.1
-1 9 19 0.3 1.1
1 9 -19 0 0.8
1 9 -19 0 0.8
-1 -9 -19 0.2 1
1 -9 19 -1.3 0.9
-1 -9 19 0.7 1
-1 9 -19 0.2 0.9
1 -9 -19 3.3 1.1
1 9 19 -1.3 1.2
-1 9 -19 -0.1 0.9
-1 -9 19 0.3 0.9
1 9 19 0.7 1.1
1 -9 -19 0.7 1
2 9 -19 0.1 0.9
2 -9 19 -0.8 0.9
-2 9 19 -3.1 1.2
2 9 -19 0.4 0.8
-2 9 19 0 1.3
2 -9 19 0.4 1.1
-2 -9 -19 1.4 1.1
-2 -9 -19 0.2 0.9
2 9 19 0.7 1.2
-2 9 -19 -0.1 0.9
-2 -9 19 1.2 1
2 9 19 -0.6 1.1
2 -9 -19 1.9 1.2
-2 -9 19 0.3 0.9
-2 9 -19 -0.3 0.9
-3 -9 -19 1.7 1.1
-3 -9 -19 0.2 1
3 9 -19 0.4 0.8
-3 9 19 0.8 1.6
-3 9 19 0.2 1.3
3 9 -19 0.5 0.9
-3 -9 19 0.4 0.8
-3 -9 19 0.8 0.9
3 -9 -19 -0.4 1.2
3 -9 -19 0.2 1.2
3 9 19 -1.2 1.1
-3 -9 19 0.1 0.9
3 9 19 -0.2 1.1
4 9 -19 7.2 1.6
4 -9 19 5.8 1.8
4 9 -19 5 1.6
4 9 -19 9.3 1.7
4 -9 19 10 2.1
-4 -9 -19 8 1.8
4 9 -19 5.3 1.6
-4 -9 -19 11.4 2
-4 -9 19 9 1.7
-4 9 -19 7.3 2
4 -9 -19 7.3 1.9
-4 9 -19 10.4 2
4 9 19 7.8 2
4 9 19 7.5 1.9
-5 9 19 0.8 1.5
5 -9 19 2.9 1.3
-5 -9 -19 0.6 1.1
5 9 -19 1.1 0.7
5 -9 19 0.4 1.1
-5 -9 -19 -0.5 1
-5 9 19 0.4 1.6
5 9 -19 0 0.9
-5 9 -19 1.7 1.1
5 -9 -19 1.1 1.2
-5 9 -19 2.5 1.2
5 9 19 2.7 1.5
5 9 19 -0.1 1.1
0 -10 19 14.6 2.7
0 -10 -19 11.3 2.5
0 10 19 12.9 2.8
0 10 -19 14.9 2.6
0 10 -19 11.3 2.5
0 -10 -19 12.6 2.7
0 10 19 15.4 2.9
1 10 -19 2.5 1.1
-1 10 19 1.2 1.6
1 -10 19 2.9 1.3
-1 -10 -19 2.2 1.2
-1 10 19 3.4 1.5
1 10 -19 2.7 1.1
-1 -10 -19 3.4 1.3
1 -10 19 1.6 1.3
-1 10 -19 5.1 1.3
-1 10 -19 3.6 1.2
1 10 19 2.1 1.3
-1 -10 19 3.2 1.3
-1 -10 19 5.2 1.3
1 -10 -19 0 1.2
1 -10 -19 3.4 1.3
2 10 -19 0.5 0.8
2 10 -19 0.9 0.9
2 10 -19 0.4 0.9
2 -10 19 -0.4 1.2
2 -10 19 -0.1 1
-2 -10 -19 -0.1 1
-2 -10 -19 1.1 1
-2 -10 19 1.2 1
-2 10 -19 1.1 1
2 10 19 1.1 1.3
-2 10 -19 0 0.9
-2 -10 19 -1.1 0.8
2 10 19 -0.1 1.2
-3 10 19 3.6 1.8
3 -10 19 6.7 1.6
-3 -10 -19 1.8 1.3
3 10 -19 4 1.2
3 10 -19 5.6 1.4
-3 -10 -19 1.7 1.1
3 -10 19 4 1.4
3 10 -19 1.5 1.1
3 10 -19 3.3 1.1
3 10 19 3.8 1.6
-3 -10 19 6 1.5
-3 10 -19 3.2 1.4
3 -10 -19 1.3 1.7
-3 10 -19 3.6 1.3
3 10 19 5.5 1.6
-3 -10 19 6.8 1.4
-3 -10 19 4.7 1.3
4 10 -19 0.3 0.9
-4 -10 -19 0.8 1.3
-4 10 19 0.3 1.4
4 -10 19 0.9 1.1
4 10 -19 2 1
-4 10 19 2.2 1.7
4 10 -19 0.8 0.9
4 10 -19 1.9 1.1
4 -10 19 1.7 1.2
-4 -10 -19 0.1 1.2
4 -10 -19 1 1.3
-4 10 -19 1.6 1.1
4 10 19 2.1 1.3
-4 10 -19 3.1 1.2
4 -10 -19 2 1.2
4 10 19 1.1 1.4
0 11 -19 0.7 1
0 -11 19 0.3 1
0 -11 19 0.1 1
0 11 -19 0.2 0.9
-1 11 19 0.3 1.5
1 11 -19 -0.5 0.9
1 -11 19 -0.7 1
1 11 -19 0.1 0.9
-1 11 19 0 1.4
1 -11 19 1.4 1.2
-1 -11 19 0 1.1
-1 11 -19 0 0.9
-1 11 -19 -0.9 0.9
1 -11 -19 1.5 1.2
-1 -11 19 0.8 1
2 11 -19 2.6 1.3
-2 11 19 2.1 1.7
2 11 -19 2.5 1.1
-2 11 19 1 1.5
2 11 -19 1.8 1.1
2 -11 -19 5.7 1.4
2 11 19 2.7 1.5
2 -11 -19 0.6 1.2
-2 -11 19 3.8 1.2
-2 -11 19 1.8 1.1
3 11 -19 6.9 1.8
3 -11 19 7.9 2
-3 11 19 7.2 2.3
3 11 -19 7.6 1.7
3 -11 19 7.2 2
-3 11 19 8.5 2.3
3 11 -19 9 1.8
3 -11 -19 5.7 1.9
-3 -11 19 7.8 1.9
3 -11 -19 10.4 2.3
-3 -11 19 9.1 1.9
3 11 19 10.2 2.1
-3 11 -19 10.2 2.1
-3 11 -19 10.8 2
-4 11 19 4.4 2.3
4 11 -19 4.2 1.3
4 -11 19 6.5 1.8
-4 11 19 3.6 1.9
4 11 -19 2.3 1.3
4 11 -19 6.5 1.3
4 -11 19 4.5 1.6
4 11 19 4.3 1.7
4 -11 -19 3.1 1.6
-4 11 -19 7.2 1.6
-4 11 -19 4.9 1.5
0 -12 19 3.2 1.3
0 12 19 0.5 1.5
0 12 -19 3 1.2
0 12 -19 0.8 1.1
0 -12 -19 1.3 1.2
0 -12 -19 0.3 1.1
0 -12 19 1.7 1.2
-1 12 19 92.49 18.7
1 12 -19 136.79 18.7
-1 12 19 110.29 18.7
1 12 -19 132.29 18.6
-1 -12 -19 118.89 18.7
-1 -12 -19 122.29 18.7
1 12 19 107.29 18.7
1 12 19 113.89 18.7
-1 12 -19 139.09 18.7
-1 -12 19 131.29 18.6
1 -12 -19 122.19 18.7
-1 -12 19 109.59 18.6
-2 -12 -19 20.7 4.1
2 -12 19 22.5 4.2
2 12 -19 23.4 4
2 12 -19 27.2 4.2
2 12 -19 20.7 4
-2 -12 -19 20 4
2 -12 19 22.6 4.1
-2 12 19 25.3 4.4
-2 12 19 21.5 4.4
2 12 19 26.9 4.5
-2 12 -19 30.7 4.3
2 -12 -19 21.1 4.2
-2 -12 19 21.9 4
-2 -12 19 21.9 4
2 -12 -19 27.8 4.4
-2 12 -19 22.7 4.1
-3 -12 -19 6.3 1.7
-3 -12 -19 6.7 1.7
-3 12 19 7.3 2.2
3 12 -19 5.5 1.4
3 -12 19 6.6 1.7
-3 12 19 3.1 1.8
3 12 -19 3.1 1.4
3 -12 19 4.7 1.7
-3 12 -19 8.8 1.8
3 -12 -19 4.7 1.7
3 -12 -19 5.5 2.8
3 12 19 6.9 2
0 13 -19 -0.3 0.9
0 -13 -19 1 1.1
0 13 19 2.9 1.7
0 -13 -19 0.9 1.2
0 13 -19 -1.1 0.8
0 -13 19 -0.6 1
0 13 19 0.5 1.5
-1 -13 -19 0.5 1.1
-1 13 19 -3.4 1.4
1 -13 19 0.4 1.1
1 13 -19 0.9 1
-1 -13 -19 0.1 1.1
1 13 -19 1.3 1
1 -13 19 0.1 1.1
-1 13 19 1.1 1.5
1 -13 -19 -0.1 1.3
-1 -13 19 -0.5 1
-1 13 -19 1.7 1.1
1 13 19 0.4 1.5
-1 -13 19 -0.9 1
1 -13 -19 0.6 1.2
1 13 19 -0.5 1.6
2 -13 19 12.5 2.7
-2 -13 -19 11 2.6
-2 13 19 11.7 2.9
2 13 -19 15.3 2.6
2 13 -19 15 2.6
-2 13 19 7 2.8
2 -13 19 9.1 2.6
-2 -13 -19 12.7 2.7
2 13 19 13.9 3
2 -13 -19 9.9 2.6
-2 13 -19 17.8 2.8
-2 13 -19 15.6 2.8
-2 -13 19 18.8 2.8
-2 -13 19 14.1 2.6
2 13 19 16.1 3
2 -13 -19 9 2.7
0 0 20 5.8 1.3
0 0 -20 3.8 1.3
0 0 20 7.3 1.5
-1 0 20 -0.4 0.9
1 0 20 0.6 0.9
-1 0 20 0.3 1
1 0 20 0.6 0.9
-1 0 -20 -0.3 0.8
-1 0 -20 0.5 0.9
1 0 -20 1.8 1
1 0 -20 0.3 0.8
1 0 -20 -0.1 0.6
2 0 20 2.3 1
2 0 -20 0.8 0.9
2 0 -20 2.1 1.1
-2 0 20 3.4 1.1
-2 0 -20 2.5 1.2
2 0 -20 2.1 0.8
-2 0 -20 3.1 1.1
-2 0 20 1.2 1.1
2 0 20 2 1.1
2 0 -20 1.1 0.8
3 0 -20 52.99 9.2
3 0 -20 62.49 9.2
3 0 20 58.49 9.2
3 0 20 69.79 9.3
-3 0 20 61.29 9.2
-3 0 20 54.89 9.2
-3 0 -20 67.89 9.3
3 0 -20 57.09 9.2
3 0 -20 50.09 9.2
4 0 -20 25 4.8
-4 0 20 27.6 4.8
-4 0 -20 38.7 5.1
4 0 -20 26.3 4.8
4 0 20 24 4.8
-4 0 20 27 4.9
-4 0 20 39.7 5
4 0 20 25.9 4.8
4 0 -20 35.3 5
4 0 -20 31.7 4.9
-4 0 -20 33.5 5.1
5 0 -20 12.5 2.2
-5 0 20 12.3 2.2
-5 0 20 10.8 2.4
5 0 20 9.6 2.2
5 0 -20 8.8 2
5 0 20 11.2 2.2
-5 0 -20 15.1 2.5
5 0 -20 10.2 2.2
-5 0 20 12.8 2.3
5 0 -20 11.6 2.1
6 0 -20 26.9 3.9
6 0 -20 19.1 3.6
6 0 20 26.6 3.9
6 0 -20 18.7 3.6
0 1 -20 0.1 0.8
0 1 20 0.7 0.9
0 1 20 0.4 0.9
0 -1 -20 -1.2 0.9
0 -1 20 0.8 0.9
0 1 -20 -0.1 0.8
0 -1 20 0.5 0.8
1 1 -20 4.7 1.3
-1 -1 -20 1.8 1.2
1 1 -20 6.5 1.3
1 -1 20 4.9 1.3
-1 1 20 7 1.4
1 -1 20 3.3 1.1
1 1 -20 4.8 1.3
-1 1 20 4.4 1.3
-1 -1 -20 2.5 1.1
1 -1 -20 2.7 1.1
-1 -1 20 6.8 1.3
1 1 20 1.9 1.1
-1 1 -20 5.2 1.3
-1 1 -20 3.3 1.3
1 -1 -20 3.1 1.3
1 1 20 6.7 1.4
-1 -1 20 3.3 1.2
-2 1 20 32.3 5.4
2 -1 20 33.2 5.4
-2 -1 -20 43.5 5.6
-2 1 20 33.6 5.4
2 1 -20 29.1 5.3
2 1 -20 38.1 5.4
-2 -1 -20 27.2 5.3
2 -1 20 32.7 5.4
2 1 -20 28.3 5.2
-2 -1 20 37.4 5.3
-2 -1 20 32.9 5.3
-2 1 -20 25.3 5.3
2 -1 -20 31.6 5.3
2 1 20 36.9 5.4
2 1 20 32.5 5.3
2 -1 -20 38.3 5.4
-2 -1 20 34.4 5.5
-2 1 -20 26.7 5.3
-3 1 20 0.1 1
3 1 -20 1.7 0.8
3 1 -20 -0.3 0.9
3 -1 20 1.4 1
3 1 -20 0.4 0.8
-3 -1 -20 1.4 1
-3 1 20 1.8 1
3 1 -20 0.9 0.7
3 -1 20 1.4 0.9
3 1 20 2.1 1.1
-3 1 -20 0.7 1
-3 1 -20 0.5 0.9
3 -1 -20 0.2 0.6
3 -1 -20 -0.2 0.8
-3 -1 20 0.2 0.9
3 -1 -20 0.3 0.8
-3 -1 20 0.9 1
3 1 20 0.5 1.1
4 -1 20 21.4 3.5
-4 1 20 17 3.3
4 -1 20 17.3 3.3
4 1 -20 19.6 3.3
-4 -1 -20 21.6 3.5
4 1 -20 18 3.3
4 1 -20 19.8 3.3
4 1 -20 20.2 3.5
-4 1 20 17.3 3.5
-4 -1 20 16.9 3.3
4 -1 -20 18.9 3.3
4 -1 -20 17.3 3.4
4 -1 -20 22.2 3.4
-4 1 -20 20.1 3.6
-4 -1 20 21.5 3.5
-4 -1 20 20 3.4
4 1 20 23.3 3.5
4 1 20 16.4 3.3
-4 -1 20 23.6 3.5
4 -1 -20 18.7 3.3
-5 -1 -20 -2.2 1
5 -1 20 -0.5 0.9
-5 -1 -20 -0.6 0.9
5 1 -20 -0.8 0.7
-5 1 20 -1.1 0.9
5 1 -20 0.9 0.8
-5 1 20 0.9 1.3
5 1 -20 -0.4 0.8
5 -1 20 -0.8 0.9
-5 1 -20 -0.4 1
-5 -1 20 -0.9 0.9
-5 -1 20 1.1 1.1
-5 -1 20 0.2 0.9
5 1 20 -0.8 0.9
5 -1 -20 0.1 0.7
5 -1 -20 0.7 0.8
-5 -1 20 1.4 1
-5 1 -20 0.4 1.1
5 -1 -20 -0.5 1
5 1 20 -1 0.9
6 1 -20 0.1 1.1
6 -1 20 -0.5 1.6
6 1 -20 0.7 0.8
-6 -1 -20 3.7 1.2
6 1 -20 1.8 1.1
-6 1 20 0.1 1.1
6 1 -20 1.9 0.9
-6 1 20 1.5 1.5
6 1 20 0.9 1.7
6 -1 -20 2.2 1.2
6 -1 -20 1.7 0.9
6 -1 -20 0.5 1
6 1 20 1.1 1.1
6 -1 -20 2.2 1.1
0 -2 20 142.99 24.7
0 2 20 165.78 24.7
0 -2 -20 158.88 24.8
0 -2 20 169.98 24.7
0 -2 -20 176.38 24.8
0 2 -20 158.68 24.7
0 2 -20 173.98 24.8
0 2 20 147.89 24.7
-1 2 20 510.55 84.09
1 -2 20 610.14 84.19
-1 -2 -20 537.15 84.19
1 -2 20 563.44 84.09
-1 2 20 536.95 84.19
1 2 -20 572.64 84.09
1 2 -20 542.35 84.09
-1 -2 -20 558.74 84.19
1 -2 -20 566.34 84.09
1 2 20 478.05 84.09
-1 2 -20 602.54 84.19
-1 2 -20 553.14 84.19
-2 -2 -20 27.2 5
2 -2 20 30.6 5
2 -2 20 26.8 4.9
2 2 -20 31.8 4.9
-2 -2 -20 34.7 5.1
-2 2 20 22.9 4.9
2 2 -20 30.1 4.9
-2 2 20 30.5 5
2 2 -20 35.6 5
2 2 -20 30.8 5
-2 2 -20 25.2 5
-2 -2 20 33.7 5
2 -2 -20 33.5 5
2 2 20 27.4 4.9
-2 -2 20 30.6 4.9
-2 -2 20 31.9 5
2 2 20 29 4.9
-3 2 20 7.2 1.8
-3 -2 -20 11.2 1.9
3 2 -20 9.7 1.9
3 -2 20 10.2 1.9
3 2 -20 8.3 1.7
3 2 -20 7.6 1.7
3 2 -20 10.4 1.8
3 -2 20 8.5 1.8
-3 2 20 7.3 2
3 -2 -20 8.4 1.8
-3 -2 20 7.7 1.8
3 2 20 7.3 1.8
-3 2 -20 10.5 2
-3 2 -20 9.1 2
-3 -2 20 7.7 1.7
3 -2 -20 8.1 1.7
3 -2 -20 8.2 1.8
3 2 20 9.6 2
4 2 -20 13.7 2.4
4 2 -20 12 2.3
4 -2 20 11.7 2.4
4 2 -20 10.4 2.3
-4 -2 -20 13.2 2.5
-4 2 20 11.5 2.5
4 2 -20 10.3 2.2
-4 -2 -20 13 2.5
-4 2 20 13.1 2.6
4 -2 20 13.4 2.6
-4 -2 20 13.9 2.4
-4 -2 20 18.8 2.7
-4 2 -20 15.6 2.7
4 2 20 10.4 2.4
4 2 20 11.2 2.4
-4 -2 20 13.6 2.4
4 -2 -20 12.2 2.4
4 -2 -20 11.2 2.2
4 -2 -20 15.6 2.4
-5 2 20 4.1 1.6
5 -2 20 3.5 1.2
5 -2 20 3.6 1.3
-5 2 20 2.3 1.2
-5 -2 -20 3.6 1.3
5 2 -20 1.7 0.9
5 2 -20 3.3 1
5 2 -20 4.4 1.2
5 -2 -20 3 1.3
-5 -2 20 2.4 1.3
5 -2 -20 4.1 1.2
-5 -2 20 2.9 1.1
-5 -2 20 1.8 1.1
5 2 20 2.4 1.2
5 2 20 2.9 1.3
-5 -2 20 1.5 1.1
-5 2 -20 2.1 1.2
-6 -2 -20 3.8 1.4
6 2 -20 5.3 1.2
6 2 -20 2.8 1.1
-6 2 20 2.5 1.4
-6 2 20 7 1.8
6 2 -20 3.4 1.2
6 2 -20 3.2 1.2
6 -2 20 4.5 1.4
6 -2 -20 5.8 1.4
-6 2 -20 4.4 1.6
6 2 20 5.1 1.4
6 2 20 2.6 1.4
6 -2 -20 3.7 1.3
6 -2 -20 2.7 1.1
0 3 -20 0.4 0.9
0 3 20 -0.8 0.9
0 -3 20 1.5 0.9
0 -3 -20 0.5 0.9
0 -3 20 1.2 0.9
0 3 -20 0 0.8
0 3 20 0.7 1.1
0 -3 -20 -0.4 0.8
-1 -3 -20 -1.4 0.7
-1 3 20 0.2 0.9
1 3 -20 -0.1 0.9
-1 -3 -20 -1.3 0.9
-1 3 20 0.2 1
1 -3 20 -0.2 0.8
1 3 -20 -0.9 0.7
1 -3 20 -0.3 0.9
1 3 20 0.5 0.9
1 3 20 1.2 1
1 -3 -20 0.6 1
1 -3 -20 0.4 0.8
-1 -3 20 -1.8 0.8
-1 3 -20 0.7 1
-1 -3 20 1.2 0.8
2 -3 20 10.7 2.2
2 3 -20 10.4 2.1
2 -3 20 11.4 2.2
-2 3 20 10.1 2.2
-2 3 20 10.3 2.3
2 3 -20 10 2.1
2 3 -20 11.9 2.1
-2 -3 -20 14.7 2.4
2 3 -20 8.1 2
-2 -3 -20 10.5 2.2
2 3 20 8.9 2.1
-2 3 -20 14 2.4
-2 -3 20 13.9 2.3
-2 -3 20 11.6 2.1
2 -3 -20 10.3 2.2
-2 3 -20 13.5 2.4
2 3 20 14.5 2.3
2 -3 -20 8.6 2.1
-2 -3 20 10.5 2.2
-2 -3 20 11.5 2.2
-3 -3 -20 8.7 2
3 3 -20 8.2 1.8
3 3 -20 10.6 1.8
3 3 -20 10.7 2
-3 3 20 12.5 2.2
-3 -3 -20 8.5 1.9
3 -3 20 8.3 1.9
-3 3 20 9.9 2
3 -3 20 10.2 2
3 3 -20 7.8 1.7
-3 3 -20 10.1 2
3 -3 -20 7.8 1.8
3 3 20 9.4 2
-3 -3 20 9.8 1.8
-3 -3 20 9.8 1.9
3 -3 -20 5.8 1.8
-3 -3 20 8.1 1.9
3 3 20 8.9 1.9
-4 -3 -20 14.7 2.9
-4 3 20 14.1 3
4 3 -20 20.9 2.9
-4 3 20 14.4 2.9
4 3 -20 16.7 2.7
-4 -3 -20 16 2.8
4 -3 20 17.9 3
-4 3 -20 20 3.1
-4 -3 20 16.6 2.7
4 -3 -20 12.4 2.8
4 -3 -20 11.5 2.7
4 3 20 14.8 2.8
-4 -3 20 12.8 2.7
4 3 20 13.1 2.8
-4 3 -20 17.1 3
-4 -3 20 15.5 2.8
-5 3 20 2.7 1.5
5 3 -20 3.9 1.1
5 3 -20 5.2 1.3
5 3 -20 4.7 1.2
-5 -3 -20 3.7 1.3
5 -3 20 2 1.3
-5 3 20 5.1 1.4
-5 -3 -20 2.3 1.3
-5 -3 20 5.2 1.3
5 -3 -20 3.2 1.4
5 -3 -20 3.8 1.1
5 3 20 3.1 1.4
-5 -3 20 4.5 1.5
-5 -3 20 5.8 1.3
5 -3 -20 5.8 1.4
5 3 20 5.1 1.5
6 -3 20 11.4 2.6
-6 3 20 14.1 2.7
-6 3 20 19.8 3.2
6 3 -20 12.2 2.4
6 -3 20 12.8 2.6
6 3 -20 16.5 2.4
6 3 -20 10.8 2.5
-6 -3 -20 20.7 3.7
-6 -3 -20 10.8 2.6
6 3 -20 14.2 2.4
-6 3 -20 17 2.8
-6 3 -20 16.7 2.9
6 3 20 11.1 2.6
6 -3 -20 11.4 2.4
6 -3 -20 12.6 2.7
6 -3 -20 12.6 2.6
6 3 20 15.6 2.7
0 4 20 58.99 10
0 -4 20 68.79 10
0 -4 -20 62.49 10
0 4 -20 67.09 10
0 4 20 65.49 10.1
0 -4 20 69.59 10
0 -4 -20 54.59 10
0 4 -20 66.89 10.1
1 4 -20 -0.6 0.7
-1 4 20 -0.9 1
-1 -4 -20 -0.7 0.8
1 4 -20 0.6 0.9
1 -4 20 1.3 0.9
1 4 -20 1.5 0.9
-1 -4 -20 0.9 1
1 -4 20 0.1 0.9
-1 4 20 0.7 0.9
-1 4 -20 -0.5 0.8
1 4 20 0.9 0.9
-1 -4 20 -0.6 0.8
1 4 20 1 1.1
-1 -4 20 -0.2 0.9
1 -4 -20 1.2 0.9
2 4 -20 18.1 3.7
2 4 -20 21 3.8
-2 4 20 14.3 3.8
2 4 -20 25.1 3.9
-2 -4 -20 25.5 4
2 -4 20 18.1 3.8
2 -4 20 30.1 4.1
-2 4 20 24.1 4.1
2 4 -20 27.3 3.9
-2 -4 -20 24.9 4
-2 -4 20 30.7 4
-2 -4 20 22.9 3.8
-2 -4 20 15.9 3.7
-2 4 -20 26.8 3.9
2 4 20 18.4 3.8
2 -4 -20 22.5 3.9
2 -4 -20 27.7 4
2 4 20 26.4 3.9
3 4 -20 11.3 2.3
-3 4 20 12.9 2.6
3 4 -20 14.3 2.3
-3 -4 -20 10.5 2.4
3 -4 20 12.6 2.4
3 4 -20 17 2.4
3 4 -20 12.2 2.4
3 -4 20 10.2 2.4
-3 4 20 10.2 2.5
-3 -4 -20 19.7 2.8
3 -4 -20 14.9 2.5
3 -4 -20 10.5 2.3
-3 4 -20 10 2.4
-3 -4 20 15.9 2.4
-3 -4 20 12.7 2.4
-3 -4 20 8.6 2.3
3 4 20 13.5 2.4
-3 -4 20 12.9 2.3
-3 4 -20 12 2.5
3 4 20 11.4 2.4
4 4 -20 8.3 2
4 -4 20 9.3 2
4 4 -20 11.2 2
4 4 -20 8.6 1.9
-4 4 20 6.4 2.2
-4 4 20 11 2.2
-4 -4 -20 10 2.2
4 -4 20 12.7 2.2
4 -4 -20 9.6 2.1
4 4 20 9.7 2.1
-4 -4 20 10.3 2
-4 4 -20 11.9 2.2
-4 4 -20 12.9 2.3
-4 -4 20 12.2 2
4 -4 -20 9.2 2.1
4 4 20 9.1 2.1
-4 -4 20 9.1 2
-5 -4 -20 0.1 1
-5 4 20 0.3 1.2
5 4 -20 0.5 0.9
5 4 -20 2.1 1
5 4 -20 0.5 0.8
-5 -4 -20 0.7 1.1
5 4 -20 -0.4 0.8
-5 4 20 1.4 1.5
5 4 20 0 1
5 4 20 -0.5 1
-5 -4 20 0.4 0.9
5 -4 -20 1.4 1.1
5 -4 -20 0.4 1
-5 -4 20 0.1 0.9
6 -4 20 -0.1 1.1
6 4 -20 1.8 1
-6 -4 -20 1.6 1.3
6 -4 20 2.7 1.2
-6 4 20 3.2 1.4
-6 -4 -20 -0.4 1.1
6 4 -20 2.3 0.9
-6 4 20 2.2 1.6
6 -4 -20 2.2 1.1
-6 4 -20 1.3 1.1
6 4 20 1.4 1.1
6 -4 -20 1.4 1.2
-6 4 -20 0.6 1.1
6 4 20 0.5 1.1
0 -5 -20 0.7 0.8
0 -5 20 -0.4 0.8
0 5 -20 0.6 1
0 -5 -20 0.6 0.9
0 5 20 0.8 1.2
0 5 20 2.4 1.1
1 -5 20 78.09 10.2
1 5 -20 52.49 10.1
-1 -5 -20 57.19 10.1
1 5 -20 67.29 10.1
1 -5 20 69.89 10.1
-1 5 20 66.39 10.3
-1 -5 -20 68.89 10.2
1 5 -20 60.09 10.1
-1 5 -20 72.59 10.2
-1 -5 20 63.99 10.1
-1 5 -20 64.99 10.2
-1 -5 20 76.59 10.1
1 -5 -20 71.89 10.2
1 5 20 64.09 10.1
1 5 20 41.7 10.2
-2 5 20 1.3 1.1
2 5 -20 0.6 0.8
-2 5 20 1.1 1.2
2 5 -20 1.3 0.9
2 -5 20 1.8 1
2 5 -20 2.7 0.9
2 -5 20 1.4 1
2 5 -20 1.6 1
-2 -5 -20 0.9 1
-2 -5 20 1 0.9
-2 5 -20 0.2 0.9
-2 5 -20 1.9 1.1
2 -5 -20 1.4 0.9
2 5 20 1.7 1.1
2 -5 -20 1.7 0.9
-2 -5 20 1 0.9
3 -5 20 48 10.8
-3 5 20 58.19 10.9
-3 5 20 64.19 10.8
3 -5 20 56.19 10.7
3 5 -20 73.09 10.7
3 5 -20 75.19 10.7
-3 -5 -20 73.99 10.8
3 5 -20 71.29 10.8
-3 -5 -20 65.49 10.8
-3 -5 20 75.09 10.7
3 5 20 71.19 10.7
3 -5 -20 75.29 10.8
3 -5 -20 80.69 10.8
-3 5 -20 72.59 10.8
-3 5 -20 70.09 10.8
-3 -5 20 55.69 10.6
-3 -5 20 78.09 10.7
-3 -5 20 70.59 10.6
3 5 20 66.99 10.8
-4 5 20 6.5 1.9
4 5 -20 5.3 1.3
-4 -5 -20 5.1 1.6
-4 5 20 7.8 1.8
4 -5 20 9.3 1.8
-4 -5 -20 5.2 1.6
4 5 -20 7.4 1.5
4 -5 20 4.8 1.6
4 5 -20 7.2 1.6
4 5 20 5.4 1.5
-4 -5 20 7.9 1.5
-4 -5 20 4.5 1.4
4 5 20 2.9 1.4
-4 -5 20 4.5 1.4
-4 5 -20 8.3 1.7
4 -5 -20 5.1 1.5
-4 -5 20 4.7 1.4
-4 5 -20 7 1.6
4 -5 -20 7.2 1.8
-5 -5 -20 0.1 1.2
-5 -5 -20 -0.8 1
-5 5 20 -0.6 1.2
5 -5 20 0.2 1
5 5 -20 -0.1 0.9
5 5 -20 -0.5 0.8
5 5 -20 -0.3 0.8
-5 5 20 -0.1 1.4
5 -5 20 -1.3 0.9
5 5 -20 0.5 0.7
5 5 20 -0.2 1
5 -5 -20 -0.1 1.1
-5 5 -20 0.1 1
5 5 20 2.1 1.2
5 -5 -20 -1.8 0.9
-5 5 -20 -0.2 0.9
-6 5 20 10.8 2.5
-6 5 20 12.5 2.6
6 5 -20 8.8 1.9
6 -5 20 10.6 2.3
6 5 -20 10.4 2.1
-6 -5 -20 10.5 2.4
6 -5 -20 12.6 2.4
6 5 20 11.9 2.3
-6 5 -20 12.2 2.4
6 5 20 12.6 2.3
6 -5 -20 9.5 2.4
0 -6 20 100.39 14.1
0 -6 20 101.99 14.1
0 6 20 93.89 14.2
0 6 -20 89.19 14.1
0 -6 -20 85.79 14.1
0 6 20 83.69 14.2
0 -6 -20 83.29 14.1
1 6 -20 12.1 2.5
1 6 -20 16.7 2.7
-1 6 20 13.5 2.7
1 -6 20 18.5 2.8
1 -6 20 14.8 2.7
-1 -6 -20 13.7 2.7
1 6 -20 16.3 2.7
-1 -6 -20 12.8 2.6
-1 6 20 11.8 2.7
1 -6 -20 17.8 2.8
-1 -6 20 13 2.6
-1 -6 20 11.2 2.6
-1 6 -20 16.7 2.7
1 6 20 14.3 2.9
1 -6 -20 12.3 2.8
-1 6 -20 13.8 2.7
1 6 20 16 2.8
-2 6 20 11.9 2.7
2 -6 20 12 2.6
-2 6 20 12.8 2.8
-2 -6 -20 15.2 2.6
2 6 -20 12.9 2.5
2 6 -20 15.5 2.6
2 6 -20 11 2.4
2 -6 20 25.9 3
2 6 -20 13.4 2.6
2 6 20 11.7 2.6
-2 -6 20 12.5 2.6
2 -6 -20 11.2 2.5
-2 6 -20 21 2.8
-2 -6 20 17 2.6
2 -6 -20 11.5 2.6
-2 6 -20 14.2 2.6
3 6 -20 6.9 1.5
3 6 -20 6.3 1.4
-3 -6 -20 8.6 1.6
-3 6 20 2.6 1.6
-3 6 20 5.9 1.9
3 6 -20 5.9 1.4
3 -6 20 7.4 1.6
-3 -6 -20 4.1 1.5
3 6 -20 5.9 1.3
3 -6 20 6.7 1.5
-3 6 -20 5.8 1.6
3 -6 -20 5.7 1.5
-3 -6 20 6.6 1.5
-3 -6 20 6.6 1.4
3 6 20 2.3 1.5
-3 -6 20 4.7 1.4
3 6 20 7.7 1.6
-3 6 -20 2.8 1.3
3 -6 -20 5.6 1.6
4 6 -20 8.1 1.4
-4 6 20 4.4 1.7
-4 -6 -20 7.6 1.7
-4 6 20 2.4 1.7
4 6 -20 4.9 1.4
-4 -6 -20 6.4 1.6
4 6 -20 8.1 1.4
4 6 -20 4 1.2
-4 -6 20 5.5 1.4
4 6 20 3.6 1.5
-4 -6 20 4.4 1.3
4 -6 -20 6.7 1.6
4 6 20 7 1.8
4 -6 -20 4.3 1.5
-4 -6 20 5 1.4
-4 -6 20 5.9 1.4
5 6 -20 0 0.8
5 6 -20 0.4 0.8
5 -6 20 0.9 1
5 -6 20 0.1 1.8
-5 6 20 -2.7 1
-5 -6 -20 1.5 1.2
5 6 -20 0 0.7
5 6 -20 1.5 1.7
-5 -6 -20 0.5 1
-5 6 20 2.1 1.6
5 -6 -20 0.5 1.1
-5 6 -20 -0.7 0.8
5 6 20 -0.6 1
-5 6 -20 -0.5 0.9
5 6 20 2.9 1.3
0 -7 20 -0.6 0.8
0 7 -20 1.3 1
0 -7 20 0.1 0.9
0 -7 -20 0.8 0.9
0 7 20 -1.4 0.8
0 7 -20 1.6 0.9
0 7 20 0.7 1.2
0 -7 -20 0.8 0.9
1 -7 20 26.7 3.9
1 7 -20 22.4 3.7
1 -7 20 20.5 3.7
-1 7 20 18.5 3.8
-1 7 20 19.5 3.7
-1 -7 -20 19.8 3.7
-1 -7 -20 22 3.8
-1 7 -20 20.6 3.7
1 -7 -20 17.3 3.6
1 7 20 21.3 3.9
-1 -7 20 21.5 3.7
-1 -7 20 23 3.7
1 7 20 21.7 3.7
1 -7 -20 22 3.8
-1 7 -20 23.1 3.7
2 -7 20 27.1 4.9
2 7 -20 23.6 4.7
2 -7 20 31.9 4.9
-2 -7 -20 33.5 4.9
2 7 -20 40 4.9
2 7 -20 35.2 4.9
-2 7 20 26.7 5
2 7 -20 30.3 4.8
2 -7 -20 33.8 5
2 7 20 27.9 4.9
2 -7 -20 20.2 4.7
-2 -7 20 29.2 4.8
2 7 20 27 4.9
-2 7 -20 35.1 5
-2 -7 20 22.4 4.7
3 -7 20 8 1.7
-3 -7 -20 8.9 2.4
-3 -7 -20 7.3 1.6
3 7 -20 3.8 1.2
3 -7 20 7.7 1.7
-3 7 20 6.4 1.8
3 7 -20 6.1 1.4
3 7 -20 8.6 1.5
3 7 20 4.8 1.6
3 -7 -20 5.7 1.5
-3 -7 20 6.3 1.4
-3 -7 20 4.3 1.3
3 7 20 7 1.7
3 -7 -20 5.4 1.6
-3 -7 20 4.5 1.3
-3 7 -20 1 1.2
-3 7 -20 7.4 1.6
-4 7 20 0 1.2
4 7 -20 1.1 0.9
4 7 -20 1.4 0.9
4 -7 20 1 1
4 7 -20 0 0.7
-4 -7 -20 0.3 1.1
-4 7 20 -0.6 1.4
-4 -7 -20 -0.4 1
4 -7 20 -0.7 1
4 7 -20 -1.1 0.7
-4 -7 20 -0.1 0.9
-4 -7 20 0.2 0.8
-4 7 -20 0.3 1
4 -7 -20 2.6 1.2
-4 -7 20 0.7 0.8
4 7 20 -2 0.9
4 -7 -20 0.4 1
-4 -7 20 -1.6 0.8
4 7 20 -0.3 1.1
-5 -7 -20 5 1.4
-5 -7 -20 3.5 1.3
-5 7 20 0.5 1.4
-5 7 20 2.9 1.7
5 7 -20 2.9 1
5 -7 20 0.5 1.2
5 -7 20 -0.1 1.2
5 7 -20 1.1 0.9
5 7 -20 2.2 0.9
5 7 20 3.7 1.5
5 -7 -20 3.5 1.3
-5 7 -20 4.2 1.3
-5 7 -20 3 1.3
5 -7 -20 0.3 1.3
5 7 20 2.1 1.3
0 -8 20 2.2 1
0 8 20 0.5 1.3
0 8 -20 2.4 1.1
0 -8 -20 1.8 1
0 8 20 1.6 1.2
0 -8 -20 4.2 1.3
0 8 -20 3.2 1.1
0 -8 20 3.6 1.2
1 8 -20 0.8 0.9
-1 -8 -20 2.9 1.1
1 8 -20 0.5 0.9
1 -8 20 3.3 1.2
-1 8 20 2.6 1.6
1 -8 20 3 1.1
-1 -8 -20 -0.4 0.9
-1 8 20 2.3 1.2
-1 -8 20 1.3 0.9
-1 -8 20 0.2 0.8
1 8 20 3.2 1.4
-1 8 -20 4.2 1.1
1 -8 -20 1.6 1.1
1 8 20 0.4 1.1
-1 8 -20 0.5 0.9
1 -8 -20 0.3 1
2 8 -20 2.8 0.9
2 -8 20 0.4 1.2
-2 -8 -20 1 1
2 -8 20 0.8 1
-2 8 20 1.8 1.8
2 8 -20 2.3 1
-2 8 20 2.2 1.5
-2 -8 -20 1 1.1
2 8 20 3.5 1.4
2 8 20 1.7 1.2
-2 8 -20 1.2 1
-2 -8 20 1.1 1
-2 -8 20 0.7 1
2 -8 -20 0.8 1.1
3 8 -20 0.8 0.9
3 8 -20 -0.4 0.9
3 8 -20 -0.6 0.7
-3 8 20 -1.3 1.1
-3 8 20 0 1.4
-3 -8 -20 -1 0.9
3 8 -20 -2.3 0.7
-3 -8 20 -0.3 0.9
3 -8 -20 0.3 1
-3 -8 20 2.3 0.9
3 -8 -20 -0.8 1
-3 -8 20 0.1 0.9
3 8 20 -0.3 1.2
3 8 20 -1.3 1
-4 -8 -20 -0.6 1
4 8 -20 1.2 1.1
4 8 -20 0 0.8
-4 -8 -20 -0.2 1
-4 8 20 0.2 1.6
4 8 -20 0.3 0.9
4 8 -20 1.8 0.9
4 -8 20 -0.9 0.8
4 -8 20 0.8 1.1
-4 8 -20 -0.2 0.9
-4 8 -20 -0.7 0.9
4 8 20 0 1.1
4 -8 -20 0.4 1.1
4 8 20 -2 1.3
-4 -8 20 -0.3 0.8
5 8 -20 10.8 2.4
5 8 -20 18.3 2.4
5 -8 20 14.1 2.6
-5 -8 -20 10.2 2.5
5 8 -20 12.4 2.4
5 -8 20 16.6 2.8
-5 8 -20 12.8 2.6
5 8 20 12.5 2.7
5 8 20 9.6 2.7
5 -8 -20 10.5 2.5
0 9 20 0.2 1.3
0 -9 -20 -0.5 0.9
0 9 -20 0 0.9
0 9 -20 1 0.9
0 -9 20 0.4 0.9
0 -9 -20 0.6 1
0 -9 20 -1.8 1
0 9 20 0.7 1.2
-1 9 20 14.3 2.9
1 -9 20 14.4 2.6
-1 -9 -20 13.3 2.6
1 9 -20 14.8 2.5
-1 -9 -20 12.1 2.5
-1 9 20 13.9 2.8
1 9 -20 15.5 2.5
1 -9 20 12.7 2.6
-1 9 -20 13.7 2.6
1 -9 -20 11.7 2.5
-1 -9 20 10.9 2.4
1 9 20 10.4 2.7
-1 9 -20 8.6 2.5
1 -9 -20 14.8 2.6
-1 -9 20 15 2.6
2 9 -20 3.3 1.1
2 9 -20 4 1.1
-2 -9 -20 2.4 1.1
-2 -9 -20 4.6 1.3
2 9 -20 4.7 1.2
2 -9 20 0.8 1.2
2 -9 20 1.1 1.1
2 9 20 2.4 1.4
2 -9 -20 4.3 1.9
-2 9 -20 0.7 1.1
2 9 20 2.2 1.4
-2 9 -20 2.8 1.3
-2 -9 20 2.8 1.1
-2 -9 20 2.3 1.1
-3 -9 -20 1.5 1.2
3 9 -20 2.6 1.1
3 -9 20 2.5 1.4
-3 -9 -20 1.5 1.2
3 9 -20 4.6 1.3
3 9 -20 4.6 1.2
3 9 -20 3.1 1.1
3 -9 20 4.4 1.4
-3 -9 20 4.6 1.2
3 9 20 4.2 1.7
-3 -9 20 2.8 1.2
3 9 20 3.6 1.5
-3 -9 20 4 1.2
-3 9 -20 5.3 1.4
-3 9 -20 4.8 1.5
4 9 -20 0.6 1
4 -9 20 3 1.3
-4 9 20 -1 1.4
-4 9 20 -0.8 1.6
-4 -9 -20 2.1 1.2
4 -9 20 2 1.3
4 9 -20 0.4 0.9
4 9 -20 -1 0.8
4 9 -20 -0.8 0.9
4 -9 -20 -1 1.2
-4 9 -20 -0.3 0.9
-4 9 -20 2.2 1.2
4 9 20 -0.2 1.1
0 10 -20 0.7 1
0 -10 20 -0.4 1
0 10 -20 -1 0.8
0 -10 20 1 1
1 10 -20 1.9 1
1 -10 20 1.6 1.3
1 -10 20 0.7 1
1 10 -20 -1 0.8
-1 -10 20 2 1.1
-1 10 -20 1 1
-1 -10 20 1.3 1
-1 10 -20 -0.1 0.9
-2 10 20 -0.5 1.2
2 10 -20 2.1 1
-2 10 20 -2.1 1.5
2 10 -20 -0.1 0.8
-2 -10 20 0.3 0.9
2 -10 -20 0.5 1.2
2 -10 -20 -0.2 1.1
-2 -10 20 0.7 1
3 -10 20 1.6 1.1
-3 10 20 0.6 1.5
3 10 -20 0.1 0.9
3 -10 20 0.6 1
3 10 -20 0.6 0.9
-3 10 20 -0.8 1.5
3 10 20 0.2 1.2
-3 -10 20 0.3 0.9
3 -10 -20 0.3 1.2
-3 10 -20 0.1 1
3 -10 -20 1.5 1.3
-3 -10 20 -0.7 0.9
4 -10 20 -0.1 1.1
4 10 -20 0.2 1
-4 -10 -20 -1 1
4 10 -20 1.8 0.9
4 10 -20 1.5 0.9
4 -10 20 -1.1 1
-4 10 20 -0.8 1.5
4 -10 -20 2 1.3
-4 10 -20 0.1 1
4 10 20 -0.1 1.3
4 -10 -20 0.7 1.3
-4 10 -20 -1.4 0.9
0 11 20 -2.5 1.1
0 -11 -20 0.6 1.1
0 11 -20 0.6 1
0 -11 20 0.9 1.1
0 -11 20 -1.4 1
0 -11 -20 1 1
0 11 20 -0.2 1.4
0 11 -20 -0.5 0.9
-1 11 20 2.8 1.5
1 11 -20 2.7 1.1
1 11 -20 3.2 1.3
-1 -11 -20 4 1.3
-1 -11 -20 3 1.3
-1 11 20 1.5 1.7
1 -11 -20 4.3 1.5
1 -11 -20 2.1 1.3
-1 11 -20 4.8 1.4
-1 -11 20 5.3 1.4
1 11 20 3.4 1.5
1 11 20 -0.6 1.6
-1 -11 20 3.6 1.3
-2 11 20 -0.1 1.6
-2 -11 -20 1.4 1.1
2 -11 20 0.7 1.2
2 11 -20 2.6 1.1
2 11 -20 1.6 0.9
-2 -11 -20 4.3 1.4
-2 11 20 1.1 1.6
2 -11 20 1 1.3
-2 11 -20 0.6 1.1
2 11 20 2.4 1.6
-2 11 -20 1.9 1.1
2 -11 -20 0.8 1.3
2 -11 -20 -0.1 1.1
-2 -11 20 1.5 1.1
-3 -11 -20 7.1 1.6
3 11 -20 5.6 1.3
-3 -11 -20 3.1 1.3
3 -11 20 3.3 1.5
3 11 -20 2.3 1.2
-3 11 20 3.8 2
3 11 -20 3.6 1.3
3 -11 20 1.9 1.3
-3 11 20 1.4 1.7
3 -11 -20 5.2 1.6
3 -11 -20 2.3 1.5
-3 11 -20 4 1.4
-3 11 -20 5.1 1.5
-3 -11 20 4 1.3
3 11 20 1.9 1.6
0 -12 20 4 1.5
0 12 -20 5.3 1.5
0 -12 -20 5.7 1.7
0 12 -20 5.1 1.5
0 -12 -20 7.7 1.8
0 -12 20 4.3 1.5
0 12 20 1 1.8
1 12 -20 5.8 1.7
-1 12 20 5.1 1.8
-1 -12 -20 7.1 1.7
1 -12 20 3.2 1.5
-1 12 20 6.5 2.1
1 -12 20 6.2 1.8
-1 -12 -20 4 1.4
1 12 -20 3.4 1.4
1 -12 -20 5.7 1.6
-1 -12 20 8.4 1.7
1 -12 -20 5.4 1.6
1 12 20 3.5 1.8
-1 -12 20 2.9 1.4
-1 12 -20 4.6 1.5
1 12 20 1.3 1.6
-2 -12 -20 1.1 1.3
2 -12 20 1.7 1.3
-2 12 20 -0.1 1.4
2 12 -20 2 1.1
2 12 -20 3.2 1.1
-2 12 20 2.5 1.8
2 -12 20 2.3 1.2
2 12 20 2.7 1.8
2 12 20 3.3 1.5
2 -12 -20 1.8 1.4
2 -12 -20 3.3 1.5
-2 -12 20 1 1.1
-2 12 -20 2.6 1.2
-2 -12 20 3.9 1.3
0 13 20 0.3 1.6
0 13 20 1 1.6
0 -13 -20 1.4 1.2
0 -13 -20 1.3 1.2
0 13 -20 -0.8 1
-1 13 20 0.6 1.5
1 -13 20 -0.2 1.1
-1 -13 -20 -0.7 1.2
-1 -13 -20 1.3 1.1
1 13 -20 -0.1 0.9
1 -13 20 -0.3 1.1
-1 13 20 -0.4 1.5
1 13 -20 1.5 1.3
1 -13 -20 1 1.2
1 13 20 1.4 1.7
-1 13 -20 0.6 1
-1 13 -20 -0.2 1.1
1 13 20 -2.3 1.3
-1 -13 20 0.1 1.2
-1 -13 20 2 1.2
1 -13 -20 -0.9 1.2
0 0 21 1.3 1
0 0 21 0.6 0.9
0 0 -21 -0.9 0.8
-1 0 21 -1 0.9
1 0 -21 -0.4 0.7
-1 0 21 -0.9 0.9
-1 0 -21 -1.1 0.8
1 0 21 0.7 0.9
1 0 21 -0.2 0.9
1 0 -21 0.9 1
-1 0 -21 0.6 0.9
-2 0 21 1 1.1
-2 0 21 -0.8 0.8
-2 0 -21 3.2 1.1
2 0 -21 -0.2 1
2 0 -21 0.5 0.9
2 0 21 0.5 0.8
-2 0 -21 1.8 1.2
2 0 21 -1.5 0.9
2 0 -21 0.1 0.7
-3 0 -21 -0.3 1
3 0 -21 0.1 0.9
3 0 -21 1.1 0.7
-3 0 -21 -0.4 1
-3 0 21 -0.5 1
3 0 21 -1.1 0.8
-3 0 21 0.4 1
3 0 21 -0.6 0.9
3 0 -21 0.1 0.9
-4 0 21 -0.1 1.1
4 0 -21 1.2 0.9
-4 0 21 -0.8 0.9
4 0 -21 -0.4 0.7
-4 0 -21 -0.1 1
4 0 21 -0.8 0.8
4 0 21 -0.6 0.9
-4 0 -21 -0.5 0.9
-5 0 21 -1.7 0.8
5 0 -21 0.5 0.9
-5 0 21 3.3 1.3
-5 0 -21 -0.5 1
5 0 21 -0.5 0.9
5 0 -21 0.4 1
5 0 -21 0.6 0.8
6 0 21 -0.5 1
6 0 -21 0.3 1
6 0 -21 0.8 0.9
6 0 -21 -2.2 1
-6 0 -21 1.3 1.2
-6 0 -21 -0.3 1
0 1 -21 -0.1 0.9
0 -1 -21 0.7 1.1
0 -1 21 -0.6 0.8
0 1 -21 0.7 0.9
0 -1 21 0.4 0.9
0 1 21 0 0.9
0 1 21 -1.5 0.8
-1 1 21 19.7 3.9
-1 -1 -21 22.1 4
1 1 -21 25.1 4
1 -1 21 25.5 4
-1 -1 -21 21.3 3.9
1 -1 21 29.3 4
1 1 -21 18.9 3.9
-1 1 21 21 3.9
1 1 21 23.3 3.9
1 -1 -21 22.3 4
-1 1 -21 18.7 3.9
-1 -1 21 18.9 3.8
1 1 21 20.3 4
-1 1 -21 33.1 4.3
1 -1 -21 24.7 4
-1 -1 21 32.2 4.1
-2 1 21 50.29 7.5
-2 -1 -21 47.8 7.4
2 -1 21 61.79 7.2
2 -1 21 32.4 7.1
2 1 -21 47.6 7.1
-2 -1 -21 43.2 7.3
-2 1 21 44.2 7.2
2 1 -21 40 7.1
-2 1 -21 42.4 7.3
-2 -1 21 36 7.1
2 -1 -21 47.8 7.1
2 1 21 45.6 7.3
-2 1 -21 47.3 7.4
-2 -1 21 50.79 7.2
2 -1 -21 41.5 7.2
2 1 21 50.19 7.2
3 -1 21 70.09 10.7
-3 -1 -21 71.29 10.7
3 1 -21 71.29 10.7
-3 1 21 50.69 10.6
3 1 -21 65.59 10.6
3 -1 21 69.99 10.7
3 1 -21 61.19 10.6
-3 -1 -21 75.79 10.8
-3 1 21 71.99 10.8
-3 -1 21 63.19 10.6
3 -1 -21 63.09 10.6
3 1 21 67.59 10.7
3 -1 -21 74.99 10.7
3 1 21 86.09 10.7
-3 -1 21 68.59 10.7
3 -1 -21 73.79 10.7
4 1 -21 36.6 5.9
-4 1 21 29.4 5.9
4 1 -21 43.4 5.9
4 1 -21 27.6 5.7
-4 1 21 36.2 5.9
-4 -1 -21 39.3 6
-4 -1 -21 48 6.2
4 1 -21 31.4 5.8
4 -1 21 40.7 5.9
-4 1 -21 37.2 6
-4 -1 21 39.5 6
4 1 21 40.5 6
-4 -1 21 34.1 6
4 -1 -21 36.8 5.9
4 -1 -21 36.4 5.9
4 1 21 37.7 6
-4 1 -21 29.7 5.9
4 -1 -21 37 5.9
5 1 -21 9.4 1.5
5 1 -21 6.5 1.5
5 1 -21 3.6 1.1
5 -1 21 4.3 1.4
5 1 -21 4.4 1.2
-5 1 21 3.5 1.6
-5 1 21 3.5 1.4
-5 -1 -21 4.6 1.5
5 -1 -21 5.8 1.5
-5 -1 21 4.5 1.4
-5 -1 21 5.1 1.4
5 -1 -21 3.8 1.3
5 1 21 3.4 1.3
5 1 21 2.3 1.3
5 -1 -21 3.6 1.3
-5 -1 21 3.7 1.5
6 1 -21 9.2 1.9
-6 -1 -21 10.8 2.2
6 -1 21 15.7 2.3
6 1 -21 8.8 1.8
6 -1 21 8.1 2.1
6 1 -21 15.3 2.2
-6 1 21 7.4 2.1
6 1 21 10.5 2.2
6 -1 -21 6 1.8
-6 1 -21 8.6 2.1
6 -1 -21 10.5 2.1
6 -1 -21 9.1 2
-6 1 -21 8.1 2.1
0 2 21 9.1 1.9
0 2 -21 10.1 2
0 -2 21 8.8 2
0 -2 21 7.7 1.8
0 -2 -21 7.7 1.9
0 2 -21 8.8 1.9
0 -2 -21 12.3 2.2
1 -2 21 416.26 65.69
-1 -2 -21 436.76 65.79
1 2 -21 455.55 65.69
-1 2 21 388.26 65.69
-1 -2 -21 375.16 65.69
-1 2 21 393.76 65.69
1 2 -21 445.56 65.69
1 2 21 419.46 65.69
-1 -2 21 492.85 65.69
1 2 21 469.75 65.69
-1 -2 21 498.25 65.69
1 -2 -21 404.76 65.69
-1 2 -21 465.05 65.79
1 -2 -21 391.36 65.69
-1 2 -21 420.56 65.69
-2 -2 -21 6.7 1.8
2 -2 21 8.3 1.8
2 2 -21 10.3 1.8
-2 2 21 11.1 1.9
2 -2 21 8.9 1.8
2 2 -21 8.3 1.9
2 2 -21 9.1 1.9
-2 -2 -21 9.4 2
-2 2 21 6.7 1.9
-2 -2 21 9.6 1.8
-2 2 -21 7.7 1.9
2 2 21 8.5 1.9
2 -2 -21 6.8 1.8
-2 -2 21 8.5 1.8
2 -2 -21 9.7 1.8
2 2 21 8.6 1.8
3 -2 21 2.3 1.2
3 2 -21 4.1 1.1
-3 2 21 2.8 1.3
-3 2 21 4.8 1.3
3 2 -21 3.9 1.1
3 -2 21 3.5 1.1
3 2 -21 1.3 1.2
3 2 -21 3.6 1.1
-3 -2 -21 2.4 1.1
3 2 21 1.7 1.1
-3 2 -21 3.4 1.2
3 2 21 3 1.2
-3 -2 21 3.3 1.1
3 -2 -21 2.8 1.2
-3 2 -21 3.1 1.3
-3 -2 21 1.8 1
3 -2 -21 3.5 1.2
4 2 -21 2.5 1
-4 -2 -21 3 1.3
-4 2 21 1.8 1.1
4 -2 21 -0.1 1
-4 -2 -21 2.1 1.1
4 2 -21 1.7 1
4 2 -21 2.1 0.9
-4 2 21 1.1 1.2
4 -2 21 0.8 1
4 2 21 0.9 1
4 -2 -21 2.2 1.1
-4 2 -21 2 1.1
4 2 21 2.4 1.1
4 -2 -21 3.5 1.2
-4 -2 21 2.2 1.1
-4 2 -21 1.9 1.3
-4 -2 21 0.4 1.1
-4 -2 21 2.1 1.1
-5 2 21 1.9 1.5
-5 2 21 0.1 1.2
5 2 -21 2.4 1
-5 -2 -21 1.1 1.1
5 2 -21 1.3 0.9
5 2 -21 1.5 1
-5 -2 -21 0.8 1.2
5 -2 -21 3.1 1.2
5 -2 -21 2.5 1.2
5 2 21 3.9 1.3
5 -2 -21 0.1 0.8
-5 -2 21 2.8 1.3
-5 -2 21 5.5 1.3
-5 -2 21 2.5 1.2
5 2 21 1.1 1
6 2 -21 6.8 1.8
6 2 -21 8.6 1.7
-6 2 21 8.1 2
6 -2 21 8.1 1.9
-6 2 21 8.1 2.2
6 2 -21 7.1 1.7
6 -2 21 10.1 2.1
6 2 -21 8.4 1.7
-6 2 -21 12.6 2.3
6 -2 -21 8.6 2
6 -2 -21 7 1.7
6 -2 -21 6.9 1.9
0 3 -21 0 0.8
0 -3 21 0.4 0.8
0 3 21 -0.1 1
0 3 21 -1.4 1.1
0 3 -21 1.5 1.2
0 -3 21 -0.2 0.8
0 -3 -21 -0.5 0.9
0 -3 -21 0.6 0.9
-1 3 21 0.9 1.1
-1 -3 -21 0.4 0.9
-1 3 21 2.2 1.1
1 -3 21 2.1 1
1 -3 21 1.7 1
1 3 -21 -0.5 0.7
-1 -3 -21 1.3 1.1
1 3 -21 1.3 1
-1 3 -21 0.4 1
1 3 21 -0.6 0.9
1 -3 -21 0.9 1
-1 -3 21 0.7 0.8
-1 -3 21 0 1
1 3 21 1.9 1
1 -3 -21 0.5 0.8
-1 3 -21 0.8 1.2
2 3 -21 3.6 1.3
-2 -3 -21 4.5 1.3
2 -3 21 3.3 1.2
-2 3 21 2.4 1.4
2 3 -21 3.2 1.1
2 -3 21 4.7 1.3
-2 -3 -21 2.5 1.4
2 3 -21 3.2 1
-2 3 21 2.2 1.1
2 -3 -21 2.5 1.2
-2 3 -21 3.7 1.3
2 -3 -21 4.9 1.2
2 3 21 1.9 1.2
-2 -3 21 3.3 1.2
-2 3 -21 4.4 1.3
2 3 21 5.1 1.4
-2 -3 21 3.8 1.1
3 3 -21 14.9 2.8
3 3 -21 19.2 3
3 3 -21 17.6 2.9
-3 3 21 13.1 2.9
3 -3 21 13.4 3
3 -3 21 11.8 2.9
-3 -3 -21 13.6 3
-3 3 21 12.5 3
3 3 -21 21.3 3
-3 3 -21 23.1 3.2
-3 -3 21 22.2 3
-3 3 -21 20.1 3.2
3 -3 -21 15.5 2.9
3 3 21 14.5 2.9
3 -3 -21 12.3 2.9
-3 -3 21 17.6 3
3 3 21 23.1 3.9
-3 -3 21 15.8 2.9
4 3 -21 15 2.6
-4 3 21 19 3.1
4 -3 21 13.9 2.8
-4 -3 -21 12.6 2.8
4 -3 21 13.3 3
-4 3 21 15.7 2.8
4 3 -21 10.5 2.5
-4 -3 -21 9.7 2.6
4 3 -21 17 2.8
4 3 -21 15 2.7
4 -3 -21 14.5 2.8
-4 -3 21 14.8 2.7
4 -3 -21 12.4 2.7
-4 -3 21 15.7 2.8
4 3 21 15.6 2.7
-4 -3 21 19.4 2.7
-4 3 -21 16.7 2.9
4 3 21 20.9 3
-5 3 21 1.4 1.2
5 3 -21 0.7 0.9
-5 -3 -21 0.6 1
-5 3 21 0.3 1.4
5 3 -21 -0.1 0.8
5 3 -21 1.3 1
-5 -3 -21 -0.6 1
5 -3 21 1.3 1.1
5 3 21 1 1.1
5 -3 -21 -0.5 1.1
-5 -3 21 -0.6 0.9
-5 3 -21 0 1
-5 -3 21 1.2 1.1
5 3 21 0.9 1.2
5 -3 -21 1.1 1
-5 3 -21 -0.1 0.9
6 3 -21 -0.5 0.9
6 3 -21 0.4 0.9
-6 3 21 0.9 1.5
6 3 -21 -0.1 0.9
-6 3 21 0.5 1.3
6 -3 21 -0.9 1
6 -3 21 0.9 1.2
6 3 -21 0.8 0.9
-6 -3 -21 0.5 1.1
-6 3 -21 0.3 1
6 -3 -21 -0.1 1.2
6 3 21 -0.6 1.1
6 -3 -21 -1 0.9
-6 3 -21 -1.2 1.1
0 4 21 8.5 1.8
0 -4 -21 7.6 1.6
0 -4 21 7 1.6
0 -4 -21 7.1 1.6
0 4 21 5.7 1.6
0 -4 21 4.1 1.5
0 4 -21 6.7 1.6
0 4 -21 6.3 1.6
1 -4 21 14.1 2.4
-1 -4 -21 12.1 2.3
1 4 -21 15.3 2.4
1 4 -21 14.3 2.4
-1 4 21 8.1 2.2
-1 -4 -21 17 2.6
1 -4 21 11.1 2.3
-1 4 21 12.2 2.4
1 4 21 7.5 2.2
-1 -4 21 11.7 2.2
-1 4 -21 11.2 2.5
1 4 21 10.9 2.4
-1 -4 21 11 2.2
1 -4 -21 12 2.3
2 -4 21 3.1 1.2
-2 4 21 5.4 1.6
2 4 -21 7 1.4
2 4 -21 4.8 1.2
2 4 -21 5 1.3
-2 -4 -21 4.5 1.4
-2 4 21 3.2 1.3
2 4 21 3 1.3
-2 -4 21 3.3 1.2
-2 -4 21 2.7 1.2
2 -4 -21 4.4 1.3
-2 4 -21 5.2 1.3
2 4 21 4.7 1.4
3 4 -21 32.5 5.2
3 4 -21 30.7 5.2
3 -4 21 28 5.3
-3 4 21 24.4 5.3
-3 4 21 30.3 5.3
3 4 -21 34.8 5.2
3 4 -21 30.3 5.1
-3 -4 -21 34.5 5.4
3 -4 21 25 5.2
-3 -4 -21 40.8 5.4
-3 -4 21 36.8 5.2
3 -4 -21 32.7 5.2
-3 -4 21 32.2 5.1
3 -4 -21 32 5.3
3 4 21 40.7 5.3
-3 4 -21 31.4 5.3
-3 4 -21 38.2 5.5
3 4 21 26.5 5.2
-3 -4 21 24.5 5.1
-4 -4 -21 -1.5 0.9
4 4 -21 2.9 0.9
-4 -4 -21 1.1 1.1
-4 4 21 -1.9 1
4 4 -21 0.8 1.1
4 4 -21 -0.4 0.8
4 4 -21 -0.3 0.7
-4 -4 21 0.8 0.9
-4 -4 21 0.6 1
4 -4 -21 0.6 1
4 4 21 -1.2 1
-4 -4 21 1.1 0.9
4 4 21 1 1.1
4 -4 -21 -1 1
5 -4 21 4.9 1.5
5 4 -21 5.3 1.3
5 4 -21 4.4 1.4
5 -4 21 2.7 1.3
5 4 -21 4.2 1.3
5 4 -21 4.9 1.3
-5 4 21 3.8 1.6
-5 -4 -21 5.6 1.6
-5 4 21 4.3 1.8
5 4 21 7.4 1.6
-5 -4 21 7.1 1.5
5 4 21 4.8 1.6
-5 4 -21 4.7 1.6
-5 4 -21 6.2 1.7
-6 4 21 2.9 1.4
6 4 -21 1.9 0.9
6 4 -21 1.6 1
-6 4 21 3.2 1.7
6 4 -21 2.2 1.1
-6 -4 -21 0.8 1.2
6 -4 21 2.8 1.3
6 4 -21 0.9 0.9
6 -4 21 2.2 1.3
-6 4 -21 3.3 1.4
6 -4 -21 3.7 1.4
6 4 21 0.4 1.2
6 -4 -21 2.2 1.2
-6 4 -21 1.9 1.2
0 -5 21 1.1 1
0 -5 -21 -0.8 1
0 5 -21 0.4 1
0 -5 -21 0.2 0.8
0 5 21 0.8 1.1
0 -5 21 -0.6 0.9
0 5 21 0 1.2
1 5 -21 4.5 1.3
-1 5 21 7.2 1.6
1 -5 21 5.3 1.4
-1 -5 -21 7 1.5
-1 -5 -21 2.9 1.3
1 -5 21 5.3 1.4
1 5 -21 3.7 1.3
1 5 21 5.2 1.5
-1 5 -21 3.9 1.3
-1 -5 21 3.9 1.3
-1 -5 21 4.1 1.3
1 5 21 4 1.3
1 -5 -21 3.4 1.4
1 -5 -21 4.3 1.4
-2 5 21 73.09 13.6
2 -5 21 82.99 13.5
-2 -5 -21 90.09 13.6
-2 5 21 76.99 13.6
-2 -5 -21 84.59 13.6
2 -5 21 89.39 13.5
2 5 -21 73.59 13.5
2 5 -21 101.59 13.6
2 5 -21 95.49 13.5
2 5 21 85.89 13.6
-2 5 -21 90.09 13.6
-2 -5 21 93.09 13.5
-2 -5 21 82.69 13.5
2 5 21 97.29 13.6
-2 5 -21 98.39 13.6
2 -5 -21 85.19 13.5
3 -5 21 9.8 2.2
-3 5 21 7.1 2.1
3 5 -21 14.7 2.3
-3 -5 -21 9.2 2.2
3 5 -21 11.5 2.1
3 5 -21 8.9 2
3 -5 21 13.2 2.4
-3 5 21 11.6 2.5
-3 -5 -21 14.4 2.5
3 5 -21 11.3 2.1
3 5 21 8.4 2.2
3 -5 -21 10.3 2.2
-3 -5 21 10.4 2.1
-3 5 -21 11.8 2.3
-3 5 -21 8.5 2.1
3 -5 -21 10.2 2.2
3 5 21 9.7 2.1
-3 -5 21 12.4 2.1
4 5 -21 14.1 3
4 5 -21 13.6 3
4 5 -21 17 3
-4 -5 -21 19.3 3.3
-4 -5 -21 20.8 3.3
-4 5 21 13.7 3.1
-4 5 21 17 3.4
4 -5 -21 16.2 3.1
-4 -5 21 16.2 3.2
4 5 21 19.4 3.1
4 -5 -21 15.8 3.1
4 5 21 21.1 3.2
-4 -5 21 14.1 3
-4 -5 21 17.1 3
-4 -5 21 20 3.1
-5 5 21 2.7 1.6
-5 5 21 -0.7 1.2
-5 -5 -21 1.2 1.4
5 5 -21 0.3 1.1
5 -5 21 2.2 1.3
5 5 -21 1.7 1
5 -5 21 1.9 1.1
5 5 -21 2.8 1.1
5 5 -21 3.9 1
5 -5 -21 2.2 1.2
5 5 21 1.7 1.2
-5 5 -21 3.6 1.2
5 -5 -21 -0.3 1.1
-5 5 -21 0.7 1.1
0 -6 21 25.6 3.5
0 6 21 19 3.5
0 6 -21 16.9 3.3
0 -6 -21 17.5 3.4
0 -6 -21 18.2 3.3
0 -6 21 20.1 3.3
0 6 21 16.6 3.5
-1 6 21 1 1.2
1 -6 21 -0.4 0.9
1 -6 21 -0.8 0.8
1 6 -21 0.3 0.9
1 6 -21 0.1 0.9
-1 6 21 -0.9 1
-1 -6 -21 -0.4 1
-1 -6 -21 0.1 0.9
1 -6 -21 1 1
-1 -6 21 0.4 0.8
1 6 21 -0.3 1
-1 6 -21 -0.3 0.9
1 6 21 -0.5 1.1
-1 -6 21 -0.3 0.9
-1 6 -21 -0.6 0.8
1 -6 -21 -0.9 0.9
2 -6 21 2.7 1.1
-2 6 21 3.4 1.3
-2 -6 -21 2.8 1.2
2 6 -21 3.2 1
2 6 -21 4.4 1.2
2 -6 21 3.4 1.2
-2 6 21 2.2 1.5
-2 -6 -21 2.2 1.2
2 6 -21 1.9 1.1
2 -6 -21 2.6 1.2
2 6 21 2.9 1.2
2 -6 -21 2 1.2
-2 6 -21 4.8 1.3
-2 -6 21 2.7 1.1
2 6 21 3.9 1.4
-2 -6 21 4.1 1.1
3 6 -21 1.9 1
-3 -6 -21 3.4 1.3
-3 6 21 3.1 1.6
3 6 -21 1.9 1.1
3 6 -21 2.1 1
3 -6 21 0.2 1.2
-3 -6 -21 0.7 1
3 -6 21 1.4 1.3
-3 6 21 -0.6 1.1
3 6 -21 3.2 1.1
-3 -6 21 1.1 1
3 -6 -21 2.7 1.2
-3 -6 21 2.5 1
3 -6 -21 1.7 1.2
-3 6 -21 2 1.1
3 6 21 1.4 1.1
-3 6 -21 1.8 1.2
3 6 21 0.8 1.3
-3 -6 21 2.3 1.1
4 6 -21 1.6 1.1
-4 6 21 0.9 1.5
4 6 -21 1.9 1
4 -6 21 0.9 1
-4 -6 -21 4 1.4
-4 -6 -21 2.6 1.2
-4 6 21 2.2 1.4
4 6 -21 1.8 0.9
4 -6 21 2.3 1.2
-4 -6 21 1.3 1
4 6 21 1.3 1.3
-4 6 -21 3.6 1.3
4 -6 -21 0.7 1.1
-4 6 -21 1.9 1.2
4 6 21 0 1.1
4 -6 -21 1.7 1.2
-4 -6 21 2.7 1.1
-4 -6 21 3.2 1.1
5 6 -21 0.6 0.9
-5 6 21 0.6 1.6
5 6 -21 -0.4 0.8
5 6 -21 -1.3 1
-5 6 21 -0.9 1.1
5 6 -21 2.8 0.9
5 -6 21 2 1.2
5 -6 21 -0.5 0.9
5 6 21 1.2 1.1
-5 6 -21 -0.4 1
5 -6 -21 -0.5 1
-5 6 -21 -0.1 1
5 -6 -21 -0.7 1.1
0 -7 -21 -0.4 0.9
0 7 21 0.1 1
0 7 -21 0.1 0.8
0 7 -21 -0.1 0.9
0 -7 -21 0.1 0.9
0 -7 21 -1.1 0.8
0 -7 21 0.1 0.9
0 7 21 -0.7 1.2
1 -7 21 0.5 1
1 7 -21 1 0.9
-1 7 21 1.1 1.1
1 -7 21 1.1 1
-1 -7 -21 -0.3 0.8
-1 -7 -21 0.5 1
-1 7 21 3.5 1.4
1 7 21 1.4 1.2
-1 7 -21 1.1 0.9
-1 -7 21 0.6 0.9
1 -7 -21 1.4 1.1
1 -7 -21 1.1 1.1
-1 7 -21 2.8 1.1
-1 -7 21 1 1
1 7 21 0.4 1.2
2 7 -21 0.1 0.7
-2 7 21 -1 1.3
-2 -7 -21 0.2 1
2 -7 21 -0.5 1
2 7 -21 0.2 1
2 7 -21 1.9 0.9
-2 -7 -21 0.6 1
-2 7 21 1 1.3
2 -7 21 0.9 1
-2 7 -21 -0.8 0.9
-2 7 -21 1.6 1
2 7 21 1 1.3
2 7 21 1.5 1.2
2 -7 -21 -0.2 0.9
-2 -7 21 0.9 0.9
-2 -7 21 1.1 0.9
2 -7 -21 0.4 0.9
3 7 -21 -0.3 0.7
-3 -7 -21 1.7 1.1
3 7 -21 0.7 1.1
-3 7 21 -0.3 1.2
3 7 -21 1.9 1
-3 -7 -21 -0.9 1
-3 7 21 2.8 1.5
3 -7 -21 -0.7 1.1
3 -7 -21 2.7 1.1
-3 -7 21 0.5 0.8
3 7 21 0.7 1.2
3 7 21 0.1 1.1
-3 -7 21 -1.1 0.8
-4 7 21 23.9 5.3
4 -7 21 27.3 5.3
4 7 -21 24.4 5.1
-4 7 21 36.5 5.5
4 -7 21 34.3 5.4
4 7 -21 37.7 5.3
4 7 -21 31.6 5.1
-4 -7 -21 41.2 5.4
-4 7 -21 31.7 5.3
-4 -7 21 33.2 5.2
4 7 21 36.9 6.4
4 7 21 32.1 5.4
-4 -7 21 37.7 5.2
4 -7 -21 35.8 5.5
4 -7 -21 21.4 5.2
-4 7 -21 30.7 5.3
5 7 -21 3 1.2
5 7 -21 6.2 1.5
5 7 -21 3.3 1.1
5 7 -21 5.3 1.1
5 -7 21 3.9 1.4
-5 7 -21 3.1 1.3
5 7 21 2.9 1.4
-5 7 -21 2.6 1.3
5 -7 -21 3.4 1.4
0 8 21 5.9 1.6
0 8 -21 6.3 1.5
0 -8 -21 4.3 1.5
0 -8 -21 5 1.5
0 8 21 2.5 1.5
0 8 -21 6.7 1.5
0 -8 21 7.5 1.5
-1 8 21 -2 1.2
-1 -8 -21 0.6 0.9
-1 8 21 1.2 1.2
1 -8 21 -1.3 0.9
-1 -8 -21 1.5 1.1
1 -8 21 -0.2 0.8
1 8 -21 0.3 0.9
-1 8 -21 0.3 0.9
1 -8 -21 0.3 0.9
1 8 21 2.2 1.3
1 8 21 -0.5 1
1 -8 -21 0.6 1
-1 -8 21 -0.8 0.9
-1 8 -21 0 0.9
-2 8 21 3.8 1.9
2 -8 21 7.9 1.8
2 8 -21 7.9 1.7
-2 -8 -21 7.4 1.7
2 8 -21 4 1.3
2 8 -21 7.2 1.7
-2 -8 -21 10.5 1.8
-2 8 -21 7 1.7
-2 -8 21 4.6 1.5
-2 8 -21 6.1 1.6
2 8 21 4.9 1.7
-2 -8 21 6.1 1.6
2 8 21 7.4 1.7
2 -8 -21 5 1.6
3 8 -21 -0.4 1
-3 -8 -21 1.5 1.3
3 8 -21 -1.4 0.7
3 8 -21 0.6 0.9
3 -8 21 0 0.9
3 -8 21 -0.8 1.1
-3 8 -21 0.2 1
3 -8 -21 0.8 1.2
-3 -8 21 1.4 0.9
3 8 21 -0.2 1
-3 -8 21 0 0.8
-3 8 -21 -0.4 0.9
4 8 -21 3.1 1.1
4 -8 21 6.6 1.6
4 8 -21 4.2 1.4
4 -8 21 3 1.3
4 8 -21 3.7 1.1
-4 8 21 2.3 1.5
4 8 21 0.7 1.3
-4 8 -21 5.1 1.5
-4 8 -21 4.8 1.4
0 9 -21 -0.4 0.9
0 -9 21 -0.1 0.9
0 9 -21 -0.4 0.9
0 -9 21 -0.1 1
1 9 -21 10.1 1.9
1 9 -21 6.2 1.7
1 -9 21 8.3 1.9
1 -9 21 8.7 1.9
-1 9 -21 6.9 1.7
-1 9 -21 7.4 1.8
-1 -9 21 8.5 1.8
-1 -9 21 5.1 1.7
2 9 -21 0.7 0.8
2 9 -21 0 0.9
-2 9 21 -1.5 1.1
-2 9 21 -0.6 1.9
2 -9 -21 0.8 1.3
-2 -9 21 -0.2 0.9
-2 -9 21 1.6 0.9
3 -9 21 1.6 1.1
3 -9 21 1.4 1.3
3 9 -21 2.6 1.1
-3 9 21 3.6 1.8
3 9 -21 2.1 1.1
-3 9 21 3.5 1.5
3 9 -21 2.5 1.1
-3 -9 21 -0.3 0.9
-3 9 -21 2.4 1.1
3 -9 -21 1.1 1.2
-3 -9 21 1 1
-3 9 -21 1.3 1.1
3 -9 -21 2.5 1.2
-4 9 21 -1.4 1.4
4 9 -21 -0.6 0.9
4 9 -21 1 0.9
4 -9 21 -0.3 1
-4 -9 -21 -0.7 1.1
-4 9 21 0.7 1.4
4 -9 21 0.9 1.3
4 9 -21 -1.9 0.9
-4 -9 -21 2 1.1
4 -9 -21 0.1 1.3
-4 9 -21 1 1.1
4 -9 -21 1.4 1.2
4 9 21 0.1 1.2
-4 9 -21 0.2 1.1
0 -10 21 2.6 1.2
0 -10 -21 0.7 1.1
0 10 21 0.6 1.4
0 10 -21 0.6 0.9
0 10 -21 0.4 1
0 -10 -21 0 1
0 -10 21 -0.6 1
0 10 21 1.3 1.3
-1 -10 -21 -0.2 1.1
-1 10 21 -0.4 1.4
-1 10 21 1.6 1.4
-1 -10 -21 -0.7 1
1 10 -21 -0.4 0.9
1 -10 21 -0.7 1.7
1 10 -21 -0.9 0.8
1 10 21 1.9 1.6
-1 -10 21 1 1
1 -10 -21 -0.4 1.1
1 10 21 -1.3 1.1
1 -10 -21 -0.8 0.8
-1 -10 21 1.1 1
-1 10 -21 -0.6 0.9
2 -10 21 0.2 1.1
-2 -10 -21 0.5 1
2 -10 21 -0.5 1.1
-2 10 21 -0.2 1.5
-2 10 21 0.9 1.4
-2 -10 -21 -0.3 1
2 10 21 0.5 1.4
2 10 21 0.7 1.2
-2 -10 21 0.2 0.9
2 -10 -21 -0.5 1.1
-2 10 -21 0 1
-2 10 -21 -0.6 0.9
-2 -10 21 -1.5 0.8
3 -10 21 -1.3 1.1
3 -10 21 -1.2 1
-3 -10 -21 0.9 1.1
3 10 -21 -1.3 0.8
-3 -10 -21 -0.3 0.9
-3 10 21 -1.9 1.2
3 10 -21 -0.7 0.8
-3 10 21 -3.3 1.5
-3 10 -21 -0.5 1
3 -10 -21 0.9 1.3
-3 -10 21 -0.3 1
3 10 21 3.5 1.5
-3 -10 21 -0.8 0.9
3 -10 -21 -2.8 1.1
-3 10 -21 -0.5 1.1
0 -11 -21 -0.4 1.1
0 11 21 0 1.3
0 11 21 1.6 1.6
0 11 -21 1.2 1.1
0 -11 21 0.3 1.1
0 -11 21 -0.3 1.1
0 -11 -21 0.7 0.9
0 11 -21 0 1
1 11 -21 10.2 2.3
-1 -11 -21 14.9 2.6
-1 11 21 7.9 2.5
-1 -11 -21 13.5 2.5
1 11 -21 12.8 2.4
1 -11 21 8.4 2.3
-1 11 21 12.6 2.7
1 11 21 10.8 2.5
-1 -11 21 11.1 2.3
1 -11 -21 12.1 2.4
1 11 21 12.6 2.8
1 -11 -21 10.8 2.4
-1 -11 21 13.6 2.4
2 -11 21 14.8 2.7
-2 11 21 12.8 3.1
-2 11 21 12.4 2.9
-2 -11 -21 11.1 2.6
2 -11 21 14.7 2.7
2 11 -21 14.2 2.6
2 11 -21 15.6 2.6
-2 -11 21 14 2.6
2 -11 -21 13.6 2.7
2 11 21 9.5 2.8
-2 -11 21 14.7 2.6
2 11 21 11 2.7
2 -11 -21 12.5 2.6
-2 11 -21 9.2 2.5
-2 11 -21 16.8 2.8
3 11 -21 0.5 1
3 11 -21 3.4 1.2
3 -11 21 -0.1 1.2
3 -11 21 -0.6 1.1
3 11 -21 0.6 0.9
-3 11 21 2.7 1.7
-3 11 21 4.3 2
-3 -11 -21 2.6 1.2
-3 -11 -21 1.3 1.1
3 11 21 2 1.5
3 11 21 1.9 1.5
3 -11 -21 1.3 1.4
-3 11 -21 2.9 1.3
3 -11 -21 1.8 1.3
-3 -11 21 1.2 1.1
0 -12 -21 19.4 3.9
0 12 -21 24.1 4
0 12 21 22 4.1
0 12 21 27.5 4.3
0 -12 -21 19.6 3.9
-1 -12 -21 8.3 2
-1 12 21 4 2.2
1 12 -21 9 1.9
1 -12 21 8.7 2
-1 -12 -21 5.8 1.8
1 -12 21 5.6 1.9
-1 12 21 7.9 2.2
1 12 -21 6.4 1.9
1 -12 -21 8.7 2
1 12 21 12.7 2.5
-1 12 -21 11.3 2
-1 -12 21 8.8 1.9
1 12 21 3.6 1.9
-1 -12 21 8 1.9
1 -12 -21 6.1 1.9
-1 12 -21 12.6 2.1
0 0 -22 252.47 39.9
0 0 -22 242.28 39.9
0 0 22 286.87 39.9
-1 0 -22 200.58 34
1 0 -22 224.38 34
-1 0 22 203.78 34
-1 0 -22 248.58 34.1
1 0 -22 238.88 34
1 0 22 224.98 34
1 0 22 219.48 34
-2 0 -22 45.9 8.3
2 0 -22 41.4 8.2
2 0 22 56.89 8.2
2 0 22 59.19 8.2
-2 0 22 38.1 8.2
-2 0 -22 58.59 8.5
-2 0 22 55.29 8.2
2 0 -22 58.49 8.2
-3 0 22 7.8 1.6
-3 0 22 4.4 1.6
-3 0 -22 5.5 1.6
3 0 22 7.5 1.7
3 0 -22 8.8 1.6
-3 0 -22 9 1.9
3 0 22 3.7 1.5
3 0 -22 5.8 1.5
4 0 -22 55.39 9.3
4 0 22 58.89 9.4
-4 0 -22 77.49 9.6
-4 0 22 43.9 9.4
4 0 22 79.49 9.5
4 0 -22 64.89 9.4
-4 0 22 46.8 9.5
-5 0 -22 3.3 1.3
-5 0 22 5.2 1.6
5 0 -22 3.7 1.2
5 0 -22 3.1 1.1
-5 0 22 2.2 1.2
5 0 22 2.6 1.2
-5 0 -22 1.6 1.7
5 0 -22 6 1.3
6 0 -22 23.2 4
-6 0 -22 18.9 4
6 0 -22 22 3.9
-6 0 -22 24.7 4.1
6 0 -22 26.3 4
0 -1 22 0.9 1
0 1 -22 0.4 0.9
0 -1 -22 0.2 0.9
0 -1 22 0.5 1
0 1 -22 0.8 1
0 -1 -22 -0.8 1.1
0 1 22 0.8 1.1
1 1 -22 1 1
1 -1 22 1 1.2
-1 1 22 0.1 1.1
-1 -1 -22 2 1.1
-1 -1 -22 2.1 1.1
1 -1 22 2 1
-1 1 22 0.9 1.1
1 1 -22 2.7 1.2
-1 -1 22 2.8 1.2
-1 1 -22 2.3 1
1 -1 -22 2.8 1.1
-1 1 -22 2.3 1.2
1 1 22 1 1
1 1 22 2 1.1
1 -1 -22 0.9 1.2
-1 -1 22 0.4 1
2 1 -22 39.1 8.4
2 -1 22 61.79 8.4
-2 -1 -22 40.1 8.4
-2 1 22 48.6 8.5
-2 1 22 62.49 8.4
-2 -1 -22 57.69 8.6
2 -1 22 40.8 8.4
2 1 -22 64.39 8.4
2 1 22 53.09 8.4
2 1 22 52.59 8.4
-2 -1 22 64.49 8.4
-2 -1 22 49.2 8.3
2 -1 -22 56.49 8.3
2 -1 -22 57.49 8.4
-2 1 -22 44.9 8.5
-2 1 -22 54.29 8.4
3 1 -22 15.5 2.6
3 -1 22 10.8 2.6
-3 1 22 14.4 2.7
-3 1 22 13.5 2.8
3 1 -22 13.7 2.6
3 1 -22 13.6 2.7
-3 -1 -22 20.6 3.1
3 -1 22 16.8 2.7
-3 -1 -22 13.8 2.8
-3 -1 22 13.4 2.6
3 -1 -22 14.9 2.7
-3 -1 22 14.2 2.7
-3 1 -22 13.4 2.7
3 -1 -22 11.8 2.6
3 1 22 15.8 2.7
3 1 22 16.9 2.8
4 1 -22 4.7 1.2
-4 1 22 3.3 1.3
-4 -1 -22 4 1.4
4 1 -22 4.1 1.3
-4 -1 -22 1.5 1.3
4 1 -22 4.9 1.3
4 -1 22 4.9 1.3
-4 1 22 2.6 1.4
-4 -1 22 4.3 1.4
4 1 22 3.8 1.3
-4 -1 22 2.5 1.3
4 -1 -22 4.2 1.2
4 -1 -22 3.3 1.3
4 1 22 5.2 1.5
5 -1 22 7.4 2
5 1 -22 13.2 2.1
5 1 -22 10.3 2
-5 1 22 10 2.3
5 -1 22 8.7 2.3
5 1 -22 9.5 1.9
-5 1 -22 11 2.2
5 -1 -22 7 1.8
-5 1 -22 7.5 2
5 -1 -22 7.8 2
5 -1 -22 11.2 2.1
-5 -1 22 13.4 2.1
-5 -1 22 7.5 2.1
0 -2 -22 98.19 15.7
0 2 -22 99.19 15.7
0 -2 22 102.69 15.7
0 2 -22 97.09 15.7
0 2 22 104.89 15.7
0 -2 22 105.09 15.7
-1 2 22 1.3 1.2
1 -2 22 2.7 1.1
1 2 -22 2.7 1.1
-1 -2 -22 0.9 1
1 2 -22 2.6 1.2
-1 2 22 3.2 1.2
1 -2 22 1.7 1
-1 -2 -22 0.5 1.1
1 -2 -22 2.8 1.2
1 2 22 4.3 1.3
-1 -2 22 3.1 1.2
1 2 22 3.8 1.3
-1 2 -22 1.8 1.1
-1 -2 22 2 1.1
-2 -2 -22 7.3 1.8
-2 2 22 6.5 1.9
2 -2 22 11 1.9
2 2 -22 9.3 1.8
-2 -2 -22 5.4 1.8
-2 2 22 7.6 1.8
2 2 -22 7.5 1.9
2 -2 22 9.7 1.8
2 -2 -22 10.1 1.9
-2 2 -22 8 1.9
-2 -2 22 10.9 1.9
2 2 22 8.8 1.9
2 2 22 7.1 1.8
-2 2 -22 6.2 1.8
2 -2 -22 9.8 1.9
-2 -2 22 8.5 1.8
3 2 -22 -0.7 1
3 -2 22 0 0.8
3 2 -22 0.1 0.8
-3 2 22 -0.5 1.1
-3 -2 -22 -0.4 0.9
-3 2 22 0.7 1
3 2 -22 0.1 0.7
-3 -2 -22 -0.6 0.8
3 -2 22 -0.8 0.8
3 2 22 -0.4 1
-3 2 -22 -0.6 0.9
3 -2 -22 1 1
3 -2 -22 0.9 0.9
-3 -2 22 0.9 1
-3 2 -22 1.2 1
-3 -2 22 0.7 0.9
-4 -2 -22 21.5 4
-4 -2 -22 26.2 4.2
4 2 -22 26.5 4
4 2 -22 27 4
-4 2 22 26.2 4.2
-4 2 22 18.2 4
4 -2 -22 22.8 4
4 -2 -22 23.6 4
4 2 22 23.3 4.1
-4 -2 22 25.5 4.1
-4 -2 22 20.8 4
4 2 22 23.5 4.1
5 2 -22 -0.5 0.9
-5 2 22 2.1 1.5
5 -2 22 0.9 1.1
5 2 -22 1 1
5 2 -22 1.5 0.9
5 2 -22 -0.6 0.8
-5 -2 -22 1.3 1.4
5 -2 22 0.8 1
-5 2 22 0 1.1
-5 2 -22 0.1 1
-5 2 -22 -1.5 1.1
-5 -2 22 0.6 1.1
-5 -2 22 -1.3 1.1
5 -2 -22 -0.4 1
5 -2 -22 1.1 1.3
0 -3 22 -0.2 0.8
0 -3 22 -0.1 0.9
0 -3 -22 1.6 1
0 3 -22 1.1 0.9
0 3 22 -1.1 1
0 3 -22 -1.2 0.9
0 -3 -22 0.1 0.9
-1 -3 -22 23.4 4
1 3 -22 28.6 4.1
-1 3 22 30.1 4.1
1 -3 22 18.5 3.8
1 3 -22 22.7 3.9
-1 3 22 19.9 3.9
-1 -3 -22 19.7 3.9
1 -3 -22 16.2 3.8
-1 -3 22 26.5 3.9
-1 3 -22 19.8 3.8
1 -3 -22 27.9 4
-1 -3 22 28.4 4
1 3 22 23.6 4
1 3 22 23.2 4
2 -3 22 16.5 2.7
2 3 -22 12.6 2.5
2 3 -22 15.6 2.6
-2 -3 -22 17.9 2.8
-2 3 22 12.9 2.7
2 -3 22 12.6 2.6
-2 -3 -22 12.5 2.6
2 -3 -22 13 2.6
-2 -3 22 10.6 2.4
2 -3 -22 12.8 2.6
2 3 22 15.8 2.6
-2 -3 22 14.7 2.6
-2 3 -22 15.8 2.8
-2 3 -22 11.1 2.5
2 3 22 12.8 2.6
3 3 -22 11.1 1.9
3 3 -22 8.5 2
-3 -3 -22 7.2 2
-3 -3 -22 8.7 2
-3 3 22 7.5 1.9
3 -3 22 8.6 1.9
-3 3 22 8.4 2.1
3 3 -22 11.3 2.4
3 -3 22 6.4 1.8
-3 -3 22 10.3 2
3 -3 -22 8.7 1.8
-3 3 -22 10.7 2.1
-3 3 -22 10.6 2
3 -3 -22 7.4 1.9
3 3 22 6.1 1.8
-3 -3 22 9.1 1.8
4 3 -22 6.1 1.4
4 3 -22 5.3 1.2
-4 3 22 4.5 1.5
4 3 -22 3.5 1.2
-4 -3 -22 2.5 1.3
-4 3 22 5.9 1.7
-4 -3 -22 10.2 2.6
-4 -3 22 3.2 1.3
4 3 22 1.4 1.2
-4 -3 22 4.1 1.5
4 3 22 4.9 1.6
4 -3 -22 3.8 1.4
4 -3 -22 5.2 1.4
5 3 -22 1.1 0.9
5 3 -22 2.4 1.1
5 3 -22 0 0.9
5 -3 22 0.5 1.1
-5 -3 -22 2.4 1.6
-5 3 22 1.8 1.3
5 3 -22 0.4 0.9
5 -3 22 0.7 1
-5 3 22 0 1.5
-5 3 -22 -0.8 0.9
5 -3 -22 0.8 1.1
5 -3 -22 -0.7 0.9
-5 -3 22 0.1 1
0 -4 22 -2.7 0.8
0 -4 -22 0.2 0.9
0 4 -22 -2 0.7
0 4 -22 0.9 1
0 -4 22 1.6 0.9
0 -4 -22 -0.2 0.9
0 4 22 -0.1 1.1
-1 -4 -22 2.2 1.1
-1 4 22 1.9 1.3
-1 -4 -22 -0.4 1
1 -4 22 -0.3 0.9
1 4 -22 0.5 1
1 -4 22 0.7 1
1 4 -22 0.2 0.9
-1 -4 22 1.8 1
-1 4 -22 -1 1
1 -4 -22 1.2 0.9
-1 -4 22 0.8 1
1 4 22 1.6 1
1 4 22 0.1 1.2
1 -4 -22 1.2 1
-2 -4 -22 16.1 3.3
2 -4 22 16.3 3.3
-2 4 22 23.7 3.6
2 4 -22 20.7 3.3
-2 -4 -22 22.7 3.4
2 -4 22 18.5 3.3
-2 4 22 12.2 3.2
2 4 -22 18.2 3.2
2 4 -22 19.5 3.2
-2 4 -22 21.2 3.5
-2 -4 22 19.6 3.2
-2 4 -22 19.1 3.3
2 4 22 16 3.3
2 -4 -22 16.1 3.2
2 4 22 19.6 3.3
-2 -4 22 19.7 3.2
2 -4 -22 15.5 3.2
3 4 -22 1.9 1
3 -4 22 2.1 1.2
-3 -4 -22 2 1.3
3 4 -22 5.3 1.3
-3 -4 -22 3.8 1.3
-3 4 22 4.1 1.5
3 -4 22 1.7 1.1
3 4 22 3 1.3
3 -4 -22 1.1 1
3 4 22 1.8 1.1
-3 -4 22 2.9 1
3 -4 -22 3.1 1.2
-3 -4 22 2.3 1.1
-3 4 -22 3.4 1.3
4 -4 22 12.4 2.7
-4 4 22 16.6 3
-4 4 22 15.4 2.8
4 -4 22 14.4 2.7
4 4 -22 16.5 2.6
4 4 -22 10.7 2.5
4 4 -22 16.7 2.7
-4 -4 -22 18.8 3.1
4 4 -22 15.5 2.6
-4 4 -22 10.9 2.7
4 -4 -22 15.1 2.8
4 4 22 15.2 2.8
-4 -4 22 12.9 2.6
-4 4 -22 12.6 2.7
4 -4 -22 12.7 2.6
-4 -4 22 12.9 2.6
-4 -4 22 11.9 2.5
-5 4 22 -1 1.4
5 -4 22 2.1 1.1
5 4 -22 1.2 0.9
5 4 -22 -0.5 1
-5 -4 -22 0.7 1.1
5 4 -22 1.2 1
5 -4 22 0.7 1.2
-5 4 22 1.7 1.3
5 -4 -22 -0.3 1
5 -4 -22 -0.5 1
-5 4 -22 1.5 1.2
-5 4 -22 -0.5 1.1
0 5 -22 -0.3 1
0 5 22 -0.9 1.1
0 -5 22 0.8 1
0 -5 -22 0.4 1
0 -5 22 0.5 1
0 -5 -22 -0.6 0.8
0 5 -22 -1.2 0.9
0 5 22 0.4 1.1
-1 -5 -22 0.6 1
1 -5 22 0.1 1
1 -5 22 -0.3 0.9
-1 -5 -22 -0.3 0.9
1 5 -22 -1.2 0.7
-1 5 22 1.9 1.1
1 5 -22 -1.9 0.8
-1 5 -22 0.3 0.9
1 5 22 -1.1 0.8
1 -5 -22 1.3 1.1
1 -5 -22 1.1 0.9
-1 -5 22 -0.8 0.8
-1 -5 22 0.6 0.9
1 5 22 0.8 1.2
-1 5 -22 1.1 1.1
2 5 -22 12.9 2.6
2 5 -22 15.6 2.6
-2 5 22 10.4 2.6
-2 -5 -22 13.1 2.6
2 5 -22 16.6 2.5
2 -5 22 12 2.5
-2 5 22 12.9 2.7
2 -5 22 16.6 2.7
-2 -5 -22 13.7 2.6
2 -5 -22 9 2.5
-2 -5 22 13.7 2.5
2 -5 -22 15.8 2.7
-2 -5 22 13.2 2.5
-2 5 -22 15.3 2.7
2 5 22 12.1 2.6
2 5 22 11.4 2.6
-3 -5 -22 23.7 4.4
-3 5 22 22.6 4.5
-3 -5 -22 28.8 4.5
3 5 -22 25.2 4.3
3 5 -22 28.6 4.3
3 5 -22 21.5 4.3
-3 5 22 25.2 4.4
3 5 22 22.4 4.4
3 -5 -22 30.1 4.5
3 5 22 34 4.6
3 -5 -22 25.3 4.4
-3 -5 22 22 4.2
-3 -5 22 26.4 4.3
-4 5 22 1.8 1.3
4 5 -22 5.2 1.4
4 -5 22 5 1.5
4 5 -22 4.8 1.2
-4 5 22 3.2 1.7
4 5 -22 3.9 1.2
4 5 -22 3.1 1.1
4 -5 22 6.2 1.6
-4 -5 22 3.7 1.3
-4 5 -22 4.9 1.5
-4 5 -22 2.9 1.3
4 -5 -22 3.6 1.3
4 5 22 2.1 1.3
4 -5 -22 4 1.4
-4 -5 22 6 1.3
-4 -5 22 2.8 1.3
5 -5 22 2.5 1.2
5 5 -22 0.6 0.9
5 5 -22 1.8 1.2
5 5 -22 1.7 1
-5 5 22 2 1.6
-5 5 22 0.1 1.3
-5 -5 -22 1.4 1.1
-5 5 -22 1 1.2
5 -5 -22 2 2.1
5 -5 -22 4.9 1.5
-5 5 -22 1.2 1.2
0 6 22 82.29 12.2
0 6 -22 103.09 12.2
0 -6 -22 71.09 12.1
0 -6 -22 70.99 12.1
0 -6 22 74.99 12.1
0 -6 22 72.49 12.1
0 6 22 76.79 12.2
-1 -6 -22 8.8 1.8
1 -6 22 4.9 1.5
-1 6 22 2.6 1.5
-1 -6 -22 6.2 1.5
1 -6 22 7.8 1.6
1 6 -22 3.1 1.5
-1 6 22 5.7 1.8
1 6 -22 5.1 1.5
-1 -6 22 8.4 1.6
1 6 22 5.2 1.6
1 -6 -22 6.9 1.6
-1 -6 22 8.4 1.6
-1 6 -22 8 1.6
-1 6 -22 4.2 1.5
1 6 22 6 1.7
-2 6 22 20.7 4.3
-2 6 22 31.1 4.4
2 6 -22 27.8 4.2
2 -6 22 22.2 4.2
-2 -6 -22 30.7 4.3
-2 -6 -22 25.2 4.2
2 -6 22 32.7 4.4
2 6 -22 28.7 4.3
2 6 -22 21 4.1
-2 -6 22 28.2 4.2
2 6 22 25.8 4.7
-2 -6 22 18.7 4
2 -6 -22 23 4.2
-2 6 -22 24.6 4.2
2 6 22 20.1 4.3
2 -6 -22 18.8 4.1
-3 6 22 4.7 1.8
3 6 -22 5.1 1.3
-3 6 22 3.3 1.5
3 6 -22 3.3 1.1
-3 -6 -22 1.3 1.3
-3 -6 22 2.8 1.2
3 -6 -22 4.2 1.4
3 6 22 1.8 1.3
3 -6 -22 3 1.4
-3 -6 22 3.6 1.2
4 6 -22 -0.6 0.9
4 6 -22 0 0.8
4 -6 22 1.3 1.1
4 6 -22 1.7 1
4 -6 22 -0.6 1
-4 6 22 1.4 1.3
-4 6 22 -1.6 1.3
4 6 -22 1.9 1
4 -6 -22 0.4 1
-4 -6 22 0 0.8
-4 -6 22 1.7 1.1
-4 -6 22 2.9 1.1
-4 6 -22 0.5 1
4 -6 -22 -0.1 1.2
-4 6 -22 4.8 1.4
5 -6 22 5.8 1.7
5 6 -22 6 1.4
5 -6 22 5.3 1.5
5 6 -22 6.5 1.6
-5 6 22 6.9 2.1
5 6 -22 5.4 1.3
-5 -6 -22 4 1.5
5 6 -22 3.7 1.3
-5 -6 -22 8.5 1.8
5 -6 -22 2.1 1.4
-5 6 -22 5.9 1.6
-5 6 -22 7 1.7
5 6 22 4.2 1.5
0 -7 22 -0.1 0.9
0 7 -22 0.6 0.9
0 -7 22 0.4 0.9
0 7 -22 -1 0.8
0 7 22 1.4 1.3
0 -7 -22 2.3 1
0 -7 -22 -0.9 0.9
0 7 22 -1.5 1
1 7 -22 6.9 1.5
1 7 -22 3.9 1.5
-1 -7 -22 3.9 1.4
-1 -7 -22 6.1 1.5
-1 7 22 5.6 1.8
1 -7 22 5.8 1.5
-1 7 22 6.1 1.6
1 -7 22 4.2 1.5
1 7 22 5.1 1.6
1 -7 -22 6.4 1.6
1 7 22 3.2 1.6
-1 -7 22 6.6 1.5
1 -7 -22 4.5 1.5
-1 7 -22 5.3 1.5
-1 7 -22 4.9 1.5
2 7 -22 3 1.1
-2 7 22 3.5 1.6
2 7 -22 3.1 1.2
-2 -7 22 1.7 1
-2 -7 22 1 1
-2 7 -22 3.4 1.3
2 -7 -22 0.6 1
2 7 22 2.7 1.4
2 -7 -22 1.9 1.2
3 -7 22 0.1 1.1
3 -7 22 -0.5 0.9
3 7 -22 1.9 1.1
3 7 -22 -1.1 0.8
3 7 -22 0.3 0.9
-3 -7 22 2 0.9
-3 -7 22 0 0.9
3 -7 -22 -0.3 1
-3 7 -22 0.9 1.1
-3 7 -22 -1.8 0.8
4 7 -22 14 2.8
4 -7 22 16.5 2.9
4 7 -22 16.1 2.8
4 7 -22 15.9 2.7
-4 -7 -22 13.8 2.9
4 7 -22 16.4 2.9
4 -7 22 11 2.9
-4 -7 22 15 2.9
-4 7 -22 19.1 3.1
4 7 22 15.8 3.1
4 -7 -22 15.8 3
-4 7 -22 15.8 3
0 -8 22 -0.7 1
0 8 -22 1.2 1
0 -8 22 1.4 1
0 8 -22 -0.1 1
1 -8 22 3.7 1.4
1 -8 22 4.3 1.7
-1 -8 22 4.6 1.3
-1 8 -22 6.6 1.6
-1 -8 22 3.9 1.3
-1 8 -22 6.2 1.5
2 8 -22 13.8 2.7
2 8 -22 12.4 2.6
-2 8 22 10.2 3
-2 -8 22 16.9 2.8
-2 -8 22 16.1 2.7
3 -8 22 11.1 2.3
-3 8 22 9.8 2.4
-3 -8 -22 11.4 2.2
-3 -8 -22 12 2.3
3 8 -22 6.9 2.1
3 8 -22 12.5 2.2
3 8 -22 13.4 2.3
3 -8 22 11.4 2.3
-3 8 22 11.3 3.6
-3 -8 22 12.5 2.2
3 8 22 9.2 2.4
-3 -8 22 11.8 2.2
-3 8 -22 8.8 2.2
-3 8 -22 12.3 2.4
3 -8 -22 11.4 2.4
4 -8 22 3.8 1.6
-4 8 22 3.4 1.6
4 8 -22 8.3 1.7
4 8 -22 8.4 1.5
-4 8 22 5.4 2
-4 -8 -22 6.5 1.7
4 8 -22 6.8 1.4
-4 -8 -22 4 1.6
4 -8 22 5.1 1.5
4 -8 -22 5.8 1.7
-4 8 -22 6.3 1.7
-4 8 -22 4.3 1.5
4 -8 -22 6.5 1.7
4 8 22 4.4 1.7
0 9 -22 0.6 1
0 -9 22 -2 0.8
0 -9 -22 0 1.1
0 -9 22 0.9 1.1
0 9 -22 -0.5 0.9
0 -9 -22 -0.3 1
0 9 22 -0.9 1.3
0 9 22 0.4 1.2
1 9 -22 1.8 1.1
-1 -9 -22 1.8 1.1
-1 -9 -22 0.3 1.1
-1 9 22 0.4 1.6
1 9 -22 1.8 1
-1 9 22 0.9 1.3
-1 -9 22 -0.7 0.8
1 -9 -22 -0.3 1.1
1 9 22 2.5 1.4
-1 -9 22 1 1
1 -9 -22 -0.2 1
-1 9 -22 2.3 1.1
2 -9 22 16.6 3.1
-2 -9 -22 16.8 3
-2 9 22 13 3.1
-2 9 22 13.6 3.3
2 -9 22 15 3
2 9 -22 22.6 3.1
-2 -9 -22 18.3 3.1
-2 9 -22 16.8 3.1
2 9 22 11.4 3
-2 -9 22 22.6 3.2
-2 -9 22 16.2 3
2 9 22 10.9 3.1
-2 9 -22 19.8 3.2
3 9 -22 0.6 1
3 9 -22 0.8 0.9
-3 9 22 -0.3 1.2
-3 -9 -22 2 1.1
-3 9 22 1 1.6
-3 -9 -22 0.7 1.1
3 -9 22 -0.9 1.2
3 9 -22 1.4 1.1
3 -9 22 1 1.1
3 9 22 -0.3 1.2
-3 9 -22 -0.4 1
3 -9 -22 -1 1.2
3 -9 -22 2.2 1.2
-3 -9 22 0.5 1
-3 -9 22 0.9 0.9
3 9 22 2 1.4
0 10 22 6.9 2
0 -10 -22 7.3 1.7
0 10 -22 6.6 1.7
0 -10 22 8.2 1.8
0 -10 22 10.5 1.9
0 10 22 4.9 2.1
0 10 -22 7.9 1.8
0 -10 -22 5.6 1.7
1 -10 22 3.8 1.5
-1 -10 -22 7.8 1.6
-1 -10 -22 3.5 1.6
-1 10 22 4.1 1.7
1 10 -22 4.6 1.5
-1 10 22 5.8 2.1
1 10 -22 6.3 1.5
-1 -10 22 4 1.5
-1 10 -22 3.5 1.4
-1 -10 22 4.8 1.5
1 -10 -22 5.3 1.6
1 10 22 4 1.7
1 -10 -22 4.6 1.5
1 10 22 6.2 1.7
2 -10 22 15.6 2.6
2 -10 22 8.9 2.4
-2 10 22 15.2 2.9
-2 -10 -22 9.2 2.3
2 10 -22 11.2 2.3
-2 -10 -22 9.1 2.3
2 10 -22 17.9 2.6
-2 10 22 10.9 2.6
2 10 22 12.3 2.5
-2 10 -22 15.1 2.5
-2 10 -22 13 2.5
2 -10 -22 11.7 2.5
2 10 22 13.8 2.6
-2 -10 22 9.7 2.3
-2 -10 22 10.6 2.3
2 -10 -22 10 2.4
3 -10 22 0.5 1.2
3 10 -22 1.3 1.2
-3 -10 -22 1.6 1
-3 10 22 -2.5 1.6
-3 10 22 -1.3 1.4
3 -10 22 1.6 1.2
3 10 -22 3.1 1.2
-3 -10 -22 0.8 1.1
3 10 -22 3.2 1.2
3 -10 -22 -0.4 1.2
-3 -10 22 1.5 1
-3 10 -22 0.3 1.1
3 10 22 2.4 1.3
3 10 22 1 1.4
-3 10 -22 1.8 1.2
0 11 22 0.2 1.3
0 -11 -22 -1.6 1.1
0 11 22 0 1.7
0 11 -22 0.1 1
0 -11 -22 -0.4 1.1
1 -11 22 1.6 1.2
1 11 -22 2.5 1.2
1 -11 22 0.8 1.3
-1 11 22 2.6 1.7
-1 11 22 1.9 1.4
-1 -11 -22 1.6 1.1
-1 -11 -22 2.8 1.4
1 -11 -22 3.2 1.4
1 11 22 4.3 1.8
1 -11 -22 3 1.3
-1 -11 22 2.5 1.2
-1 11 -22 3.6 1.3
-1 -11 22 2.4 1.2
1 11 22 -1.3 1.1
-2 11 22 1.6 1.5
-2 -11 -22 1.4 1.3
-2 -11 -22 1.4 1.3
2 -11 22 -0.7 1.2
2 -11 22 0.1 1.2
2 11 -22 0.2 1
-2 11 22 -1.8 1.6
-2 11 -22 0.8 1.1
2 -11 -22 1.1 1.6
2 -11 -22 -0.5 1.1
-2 -11 22 -0.1 1
2 11 22 1.8 1.5
-2 11 -22 2.2 1.2
2 11 22 2.1 1.5
-2 -11 22 2.6 1.2
0 0 23 -0.5 0.9
0 0 -23 -1.1 0.9
0 0 -23 1.6 1
0 0 23 -0.3 0.9
-1 0 -23 0.3 1
-1 0 23 -0.7 1.3
1 0 23 -0.4 0.9
1 0 -23 1.1 1.1
1 0 23 0.3 0.9
-1 0 23 1.8 1
-1 0 -23 -0.4 0.9
1 0 -23 0.5 0.9
2 0 23 0.8 0.9
-2 0 23 -0.4 0.9
2 0 -23 0 1
-2 0 23 -1.8 1
2 0 23 -0.9 1
-2 0 -23 0.7 1
-2 0 -23 0.3 1.1
2 0 -23 -0.8 0.8
-3 0 -23 -0.5 1.1
3 0 -23 0.2 0.8
-3 0 -23 -0.2 1
-3 0 23 -2.1 1
3 0 -23 -1.4 0.9
3 0 23 -0.1 1
-3 0 23 -0.7 1
3 0 23 0.7 1
4 0 23 -2.6 1.1
-4 0 23 1.6 1.1
4 0 -23 0.9 1
4 0 -23 -0.2 0.8
-4 0 23 0.5 1.1
5 0 -23 -0.2 0.9
5 0 23 -0.4 1
5 0 -23 -0.4 0.9
5 0 -23 -0.6 0.8
-5 0 23 -1.8 0.9
-5 0 23 0.2 1.3
-5 0 -23 0.9 1.1
5 0 23 2.3 1.2
0 1 -23 0.3 0.9
0 1 -23 0.3 1
0 -1 23 0.6 0.9
0 -1 23 -0.1 1
0 1 23 0.5 1.1
0 -1 -23 0.1 0.9
1 1 -23 0.6 1.1
-1 1 23 0.5 1.1
-1 1 23 1.4 1.2
1 1 -23 4.1 1.2
-1 -1 -23 2.9 1.2
1 -1 23 2.3 1.1
-1 -1 -23 4.3 1.3
1 -1 23 1 1.1
-1 1 -23 4.2 1.3
1 -1 -23 3.7 1.3
-1 1 -23 4 1.3
-1 -1 23 2.8 1.2
-1 -1 23 1.6 1.1
1 1 23 2.9 1.2
1 -1 -23 2.1 1.1
1 1 23 1.9 1
-2 -1 -23 2.8 1.2
-2 1 23 5.4 1.3
2 -1 23 -0.8 1
2 1 -23 1 1.1
-2 -1 -23 1.3 1.1
2 -1 23 -0.2 0.9
-2 1 23 -1.1 1.1
2 1 -23 2.3 1
-2 -1 23 1.1 1
-2 1 -23 1.6 1.1
2 -1 -23 0.9 0.9
2 1 23 2.2 1.1
2 1 23 2 1.1
2 -1 -23 2.2 1.1
-2 1 -23 2.8 1.2
-2 -1 23 0.5 1
3 -1 23 10 2.8
-3 -1 -23 11.1 2.2
-3 -1 -23 10.4 2.1
3 1 -23 8.2 2
-3 1 23 7.3 2
3 1 -23 7.7 1.9
3 -1 23 10 2.1
-3 -1 23 10.2 2
3 -1 -23 8.5 2
3 1 23 9.9 2.1
-3 -1 23 8.5 2.1
3 -1 -23 9.8 2
3 1 23 9.4 2
-3 1 -23 17.9 3.6
-4 -1 -23 -0.1 1.2
4 1 -23 1.3 1.1
4 -1 23 2.5 1.5
-4 1 23 0.9 1.3
4 1 -23 1.9 1
-4 1 23 2.2 1.1
4 1 -23 1.6 0.9
-4 -1 23 0.8 1.2
4 -1 -23 0.7 1
4 -1 -23 -0.4 1
-4 -1 23 1.3 1.1
-4 1 -23 0.2 1
-4 1 -23 0.9 1.2
5 1 -23 16.6 2.9
5 1 -23 12.9 2.9
5 -1 23 15.1 2.9
-5 1 23 12.5 2.9
5 -1 23 19.3 3
-5 -1 -23 20.8 3.2
-5 1 23 17 3.1
5 1 -23 12 2.7
-5 -1 23 18.5 3.1
5 1 23 16.1 3
5 1 23 16.1 3
-5 1 -23 17.2 3.1
-5 1 -23 18 3.1
5 -1 -23 14.3 2.9
5 -1 -23 14.9 3
-5 -1 23 18.1 3
0 2 -23 63.29 8.4
0 -2 23 58.69 8.3
0 2 -23 52.09 8.3
0 2 23 62.19 8.3
0 2 23 44.8 8.3
0 -2 23 44 8.3
0 -2 -23 40 8.4
1 2 -23 1.9 1.1
-1 2 23 1.6 1.1
-1 -2 -23 1.3 0.9
-1 2 23 0.4 1.1
1 -2 23 0.6 0.9
1 2 -23 -0.3 0.9
1 -2 23 0.3 1
-1 -2 -23 -1.1 1
1 -2 -23 -1 1
-1 -2 23 0.2 1
-1 -2 23 -0.1 0.9
1 2 23 -0.2 1
1 2 23 0.8 1.1
-1 2 -23 0 1
1 -2 -23 0 0.8
2 -2 23 12.7 2.5
-2 -2 -23 15.5 2.6
-2 2 23 15 2.6
2 2 -23 14.6 2.6
2 -2 23 11.9 2.4
-2 -2 -23 13 2.5
2 2 -23 11.4 2.4
-2 2 23 13.8 2.6
-2 2 -23 15.9 2.6
-2 -2 23 15.2 2.5
2 -2 -23 10.4 2.4
2 2 23 10.2 2.4
-2 2 -23 11.2 2.4
-2 -2 23 14.3 2.4
2 2 23 9.9 2.4
2 -2 -23 10.7 2.4
3 2 -23 5.6 1.7
-3 -2 -23 7.6 1.9
-3 2 23 7.8 1.7
3 2 -23 9 1.7
-3 2 23 4.8 1.8
-3 -2 23 7.5 1.8
-3 -2 23 7.2 1.8
3 2 23 9.4 2
3 -2 -23 5.3 1.6
3 -2 -23 10.4 1.9
4 2 -23 6.2 1.5
-4 2 23 5.3 1.8
4 2 -23 6.7 1.5
-4 2 23 4.4 1.5
-4 -2 -23 4 2
4 2 -23 4.9 1.3
4 -2 23 5.5 1.5
-4 -2 23 5.4 1.6
4 -2 -23 4.5 1.5
-4 2 -23 4.9 1.6
-4 2 -23 5.5 1.5
4 -2 -23 5 1.4
-5 2 23 21 3.4
5 2 -23 16.4 2.9
-5 -2 -23 13.9 3.1
-5 2 23 13.7 3
5 2 -23 17.1 3
5 -2 23 17.3 3.2
-5 -2 -23 19.9 3.2
5 -2 23 11.5 2.9
5 2 -23 15.6 2.9
-5 -2 23 14.2 3
5 2 23 19 3.2
-5 2 -23 14.3 3.1
-5 2 -23 21.1 3.3
5 2 23 16.3 3.1
5 -2 -23 14.6 3
5 -2 -23 24.6 3.3
0 3 23 -2.7 1
0 -3 23 -1.6 0.9
0 3 23 2 1.1
0 3 -23 0.2 0.9
0 -3 -23 -0.2 1
0 -3 -23 0.3 0.9
0 3 -23 0.4 1
0 -3 23 -0.8 0.8
-1 -3 -23 1.9 1.6
1 3 -23 11.8 1.9
-1 3 23 5.2 1.7
1 -3 23 4.5 1.6
-1 -3 -23 6.3 1.7
-1 3 23 8 1.7
1 3 -23 9.5 1.8
1 -3 -23 8.7 1.9
-1 -3 23 8.8 1.7
-1 -3 23 7.1 1.6
1 3 23 5.8 1.7
-1 3 -23 8.2 1.8
1 -3 -23 8 1.7
1 3 23 11.2 1.9
2 3 -23 20.4 3.9
-2 -3 -23 30.7 4.2
-2 -3 -23 30.1 4.2
2 3 -23 19.2 3.9
2 -3 23 23.4 4
-2 3 23 17 4
-2 3 23 21 3.9
2 -3 23 19.9 3.9
-2 -3 23 23.8 3.9
2 3 23 21.5 4
2 3 23 30 4.1
-2 3 -23 18.7 3.9
-2 -3 23 21.9 3.9
2 -3 -23 25.1 4
2 -3 -23 25.8 4
-3 3 23 49.7 11.3
3 3 -23 60.69 11.3
-3 3 23 76.19 11.3
3 3 -23 87.19 11.3
3 3 -23 82.19 11.3
3 -3 -23 68.79 11.3
-3 -3 23 71.49 11.3
-3 -3 23 79.59 11.3
3 -3 -23 71.19 11.3
3 3 23 71.19 11.3
-4 3 23 4.8 1.9
4 3 -23 10.1 1.8
-4 -3 -23 6.8 1.9
-4 3 23 7.9 2.1
4 3 -23 5.4 1.8
4 3 -23 8.4 1.8
4 -3 23 9.7 2.1
4 -3 23 9.8 2.1
-4 -3 23 11.3 2.1
4 -3 -23 7.4 1.9
4 -3 -23 9 2
-4 3 -23 8.6 2
-4 -3 23 8.7 1.9
-4 3 -23 7.9 2
5 -3 23 11.8 2.2
5 3 -23 7 1.7
5 3 -23 10.5 1.9
-5 -3 -23 9.7 2.1
-5 3 23 9.6 2.3
-5 3 23 7.3 2
-5 -3 -23 6.5 1.9
5 -3 23 6.3 1.8
5 3 23 7.9 2
5 3 23 12 2.2
-5 3 -23 9.3 2
5 -3 -23 4.8 1.8
5 -3 -23 7.1 1.9
0 -4 -23 2.3 1.2
0 4 -23 4.6 1.3
0 -4 -23 3.9 1.2
0 4 -23 2.1 1.2
0 4 23 3.3 1.5
0 -4 23 3.4 1.2
0 4 23 0.2 1.2
0 -4 23 4.3 1.3
-1 4 23 2.4 1.1
-1 -4 -23 1.3 1.1
-1 4 23 1 1.3
-1 -4 -23 0.8 1
1 -4 23 1.2 1
1 4 -23 2.3 1.2
1 4 -23 1 1
1 -4 23 -1.4 0.9
1 4 23 2.6 1.2
-1 4 -23 3.9 1.2
-1 4 -23 0.8 1
1 -4 -23 1.3 1.1
1 4 23 0.6 1.2
-1 -4 23 4 1.1
1 -4 -23 2.4 1
-1 -4 23 0.6 1.1
-2 4 23 2.4 1.6
-2 -4 -23 2.2 1.2
2 -4 23 2.4 1.1
2 4 -23 2 1
-2 4 23 1.6 1.1
2 -4 23 1.4 1.1
-2 -4 -23 0.9 1.2
2 4 -23 0.9 1
2 4 23 0.4 1
2 -4 -23 2.2 1.1
2 -4 -23 1.1 1
2 4 23 0.7 1.1
-2 4 -23 4.1 1.3
-2 4 -23 -0.2 1
-2 -4 23 2.2 1
-2 -4 23 2 1.1
3 4 -23 -0.5 0.7
-3 4 23 0.2 1.1
-3 4 23 1.2 1.3
3 4 -23 0.3 1
3 4 -23 0.4 0.9
-3 -4 23 0.7 0.9
3 -4 -23 0.1 0.9
-3 -4 23 -1.8 0.9
3 -4 -23 0.2 0.9
4 -4 23 7 1.9
4 -4 23 10.9 2.1
-4 4 23 9.4 2.1
4 4 -23 10.5 2
-4 -4 -23 8.7 2
-4 4 23 7.9 2.2
4 4 -23 9.4 1.8
4 4 -23 6.7 1.7
-4 4 -23 8.3 2
4 4 23 5.1 1.8
-4 -4 23 10.5 1.9
-4 -4 23 7.9 1.8
4 -4 -23 8.8 1.9
4 -4 -23 6.9 1.9
-5 -4 -23 1.1 1.2
5 4 -23 1.5 1.2
5 -4 23 1.9 1.2
-5 -4 -23 3.8 1.4
-5 4 23 -1.5 1.4
-5 4 23 2.9 1.4
5 -4 23 1.7 1.2
5 4 -23 2.9 1
5 4 23 1.4 1.2
5 -4 -23 3.8 1.4
-5 4 -23 1.3 1.2
5 4 23 3.3 1.3
-5 4 -23 3.2 1.3
5 -4 -23 3.1 1.3
0 -5 23 0.1 0.9
0 -5 -23 1.4 1.1
0 5 23 1.5 1.3
0 5 23 3.4 1.3
0 5 -23 -1 0.8
0 -5 -23 1.2 1
0 5 -23 -2.1 0.9
0 -5 23 -1.4 0.9
1 -5 23 4.7 1.3
-1 -5 -23 6.7 1.5
-1 5 23 3.5 1.5
1 -5 23 3.2 1.2
1 5 -23 3.1 1.2
-1 -5 -23 3.6 1.3
-1 5 23 2.3 1.3
1 5 -23 3.2 1.2
1 5 23 3 1.2
-1 -5 23 2.1 1.1
1 5 23 5.1 1.6
-1 5 -23 1.6 1.3
-1 -5 23 3.6 1.3
1 -5 -23 0.9 1
-2 5 23 19.1 3.4
2 5 -23 20.6 3.2
-2 5 23 12.3 3.2
2 5 -23 19.4 3.3
-2 -5 23 18.4 3.2
2 5 23 27.3 4.4
-2 -5 23 18.9 3.2
2 -5 -23 12.9 3.1
2 -5 -23 16.5 3.2
-3 5 23 2.4 1.3
3 5 -23 1.2 0.9
3 -5 23 2 1.2
-3 5 23 -0.2 1.3
3 -5 23 0.5 1
3 5 -23 3.2 1.3
-3 5 -23 3.7 1.2
-3 5 -23 3.2 1.4
3 -5 -23 1.2 1
-3 -5 23 1 1.1
-3 -5 23 2 1.1
3 -5 -23 3.9 1.3
4 5 -23 3 1.1
-4 -5 -23 3.6 1.7
4 5 -23 2.7 1
-4 -5 -23 4 1.5
4 -5 23 2.5 1.1
-4 5 23 2 1.4
4 -5 23 3.9 1.4
4 5 -23 1 1.3
-4 5 23 0.4 1.6
-4 5 -23 2.9 1.3
-4 -5 23 3.4 1.2
4 -5 -23 2.9 1.2
-4 5 -23 6.2 1.5
4 -5 -23 1.5 1.4
-4 -5 23 4 1.3
4 5 23 2.9 1.4
0 -6 23 110.69 16
0 6 -23 106.49 16.1
0 6 23 74.39 16.4
0 -6 23 101.79 16
0 -6 -23 113.09 16.2
1 -6 23 3.5 1.3
1 -6 23 2.9 1.2
1 6 -23 2.7 1.2
-1 6 23 1.3 1.4
1 6 -23 2.7 1.3
-1 -6 23 3.8 1.2
-1 6 -23 2.8 1.2
-1 -6 23 3.2 1.2
1 -6 -23 4.4 1.4
1 -6 -23 2.2 1.5
2 6 -23 26.1 4.3
2 6 -23 22.5 4.2
-2 6 23 21.9 4.4
2 -6 -23 31.2 5.5
2 -6 -23 21.7 4.2
-2 -6 23 27 4.2
-2 -6 23 26.4 4.2
3 -6 23 0.4 1.1
3 -6 23 -0.6 0.9
-3 -6 -23 0.1 1
3 6 -23 -1 1
3 6 -23 -0.1 0.8
-3 -6 -23 0.2 1.2
3 6 -23 -0.2 0.9
-3 6 -23 -1.2 0.9
3 -6 -23 -0.1 0.9
3 6 23 1.1 1.3
-3 -6 23 -1.3 0.9
-3 6 -23 0.6 1
-4 -6 -23 0.1 1
4 6 -23 0.3 0.9
4 6 -23 0.2 0.8
-4 -6 -23 2.6 1.4
4 -6 23 1 1.1
4 -6 23 1.1 1
4 6 -23 -0.3 1
4 -6 -23 1.7 1.2
-4 6 -23 0.5 1
-4 -6 23 0.2 0.9
-4 6 -23 1.2 1.1
4 6 23 -1 1.2
4 6 23 -0.2 1.1
0 -7 23 0.4 1
0 -7 23 -1.6 0.8
1 7 -23 29.4 4.2
1 7 -23 19.4 4
1 -7 23 25.9 4.1
1 -7 23 23.3 4.1
-1 7 -23 18.9 4.1
-1 -7 23 28.7 4.2
-1 7 -23 23.7 4.1
-1 -7 23 21.7 4.1
2 -7 23 25 4.1
2 -7 23 30.1 4.3
2 7 -23 32.5 4.3
2 7 -23 21.8 4.2
-2 7 23 18.5 4.2
-2 -7 -23 24.1 4.1
-2 -7 -23 26 4.3
2 7 23 13.7 4.2
-2 -7 23 27.5 4.1
-2 -7 23 21.2 4
3 7 -23 0.5 1.1
-3 -7 -23 -1.5 1
3 7 -23 0.8 1
3 -7 23 1.5 1.3
-3 -7 -23 0.5 1
3 -7 23 1.1 1.1
-3 7 23 -0.6 1.2
3 7 -23 1.9 1
-3 7 23 0.5 1.6
-3 7 -23 -0.1 1
-3 -7 23 0 0.9
3 -7 -23 0.1 1.1
3 7 23 0.8 1.2
-3 7 -23 -0.3 1
-3 -7 23 0.6 1
3 7 23 -0.2 1.1
-4 -7 -23 6.7 1.8
4 -7 23 5.8 1.7
4 -7 23 5.8 1.8
-4 -7 -23 9.2 1.9
4 7 -23 5.5 1.5
-4 7 23 10.2 2.4
4 7 -23 6.1 1.6
4 7 -23 12.2 1.9
-4 7 23 8.6 2.2
-4 7 -23 6.7 1.8
-4 7 -23 7.8 1.9
4 -7 -23 5.4 1.9
4 7 23 10.4 2.1
4 7 23 6.1 1.8
0 8 23 22.7 4
0 -8 23 22.5 3.6
0 8 -23 27.5 3.8
0 8 -23 24.3 3.7
0 -8 -23 16.5 3.5
0 -8 -23 14.9 3.5
0 8 23 19.6 3.7
0 -8 23 18.1 3.5
-1 -8 -23 0.9 1.2
-1 -8 -23 0.9 1
1 8 -23 1.4 1
-1 8 23 -0.4 1.2
-1 8 23 1.5 1.6
1 -8 -23 2.5 1.1
-1 -8 23 0.4 0.9
1 8 23 1.5 1.3
1 8 23 0.3 1.2
-1 -8 23 2.4 1.1
1 -8 -23 0.6 1.1
2 -8 23 2.4 1.2
-2 -8 -23 3 1.3
2 8 -23 3.5 1.1
2 -8 23 1.3 1.3
-2 -8 -23 2.4 1.3
2 8 -23 3.7 1.4
-2 8 23 4.3 1.7
-2 8 23 3.5 1.5
2 -8 -23 2.6 1.3
2 8 23 3.3 1.5
2 8 23 3.8 1.4
2 -8 -23 2.2 1.4
-2 8 -23 2.8 1.2
-2 -8 23 2.5 1.1
-2 8 -23 0.6 1.1
-2 -8 23 1.8 1.2
-3 -8 -23 6.8 1.7
3 -8 23 1.1 1.2
-3 8 23 1.7 1.6
-3 8 23 3.2 1.7
3 8 -23 3.6 1.2
3 8 -23 2.2 1.1
3 8 -23 5.2 1.4
-3 -8 -23 5.5 1.4
3 -8 23 2.6 1.3
3 8 23 5.3 1.7
-3 -8 23 5.6 1.3
3 -8 -23 3 1.3
-3 -8 23 2.4 1.2
3 8 23 4.3 1.5
3 -8 -23 3.3 1.5
-3 8 -23 5.8 1.5
-3 8 -23 2.6 1.3
0 -9 23 1.4 1.1
0 9 -23 0 1
0 -9 -23 -1 1.1
0 9 23 -0.9 1.3
0 -9 23 1.1 1.2
0 9 -23 -0.3 0.9
0 9 23 1 1.2
0 -9 -23 -1 1
-1 9 23 3.5 1.7
1 -9 23 2.9 1.3
1 9 -23 2.6 1.2
-1 -9 -23 3.3 1.3
-1 9 23 0.4 1.3
-1 -9 -23 2.8 1.3
1 -9 23 2.7 1.3
1 -9 -23 2.8 1.3
-1 -9 23 2.7 1.2
1 -9 -23 1.7 1.1
1 9 23 3.8 1.7
1 9 23 3.4 1.5
-1 -9 23 3.2 1.2
-1 9 -23 2.7 1.2
2 -9 23 1.7 1.1
2 9 -23 -0.2 0.9
2 9 -23 1.7 2
-2 -9 -23 -0.2 0.9
-2 9 23 1.8 1.7
-2 -9 -23 1.1 1.3
-2 9 23 0.3 1.3
2 -9 23 -0.2 1
2 9 23 2.4 1.3
-2 9 -23 1.2 1.1
2 -9 -23 2.4 1.3
-2 -9 23 3.3 1.2
-2 9 -23 -0.2 1
2 9 23 1.5 1.4
-2 -9 23 0.9 1
-3 -9 -23 7.5 1.8
-3 9 23 9.1 2.3
3 9 -23 7.5 1.9
-3 9 23 5.8 2
3 9 -23 8.4 1.7
3 -9 23 9.3 2
3 -9 23 6.6 1.9
3 9 -23 6.9 1.7
3 -9 -23 13.1 2.3
-3 -9 23 8.2 1.7
-3 9 -23 5.9 1.8
-3 9 -23 7.3 2.3
3 9 23 7.5 2
-3 -9 23 5.3 1.7
3 -9 -23 7.6 1.9
3 9 23 4.7 1.8
0 10 23 9.9 2.8
0 10 23 15.9 2.8
0 -10 -23 9.8 2.5
0 10 -23 15.3 2.5
0 -10 -23 11.2 2.4
1 10 -23 4.6 1.4
-1 10 23 5 1.9
1 -10 23 4.4 1.5
-1 -10 -23 5.5 1.6
1 -10 23 4.6 1.5
-1 -10 -23 3.8 1.5
1 10 -23 5.7 1.5
-1 10 23 3 1.6
1 -10 -23 4.6 1.5
-1 -10 23 5.5 1.4
-1 10 -23 4 1.4
1 10 23 4.5 1.6
-1 -10 23 5.6 1.5
-1 10 -23 6.2 1.6
1 10 23 5.5 2
1 -10 -23 2.5 1.5
2 -10 23 1.7 1.3
-2 10 23 0.5 1.3
-2 -10 -23 -0.7 0.9
-2 10 23 0.5 1.7
2 10 -23 0.9 1
2 -10 23 -0.7 0.9
-2 -10 -23 -0.3 1
2 -10 -23 0.7 1.2
2 10 23 -1.3 1.3
2 -10 -23 0.8 1.3
-2 10 -23 0.7 1.1
-2 -10 23 -1.5 0.9
-2 10 -23 0.4 1
-2 -10 23 1.7 1
0 -11 23 -1.2 1
0 11 23 -0.2 1.2
0 -11 -23 -1.6 1.1
0 -11 -23 -0.1 0.9
0 11 -23 0.3 1.1
0 0 24 23 3.8
0 0 -24 26.4 3.9
0 0 24 20.1 3.8
0 0 -24 19.2 3.8
1 0 24 3.3 1.2
1 0 -24 -0.6 1.1
1 0 -24 3.3 1.2
-1 0 24 1.5 1.2
1 0 24 0.3 1
-1 0 -24 4.9 1.4
-1 0 24 3.2 1.2
-1 0 -24 1.3 1.1
2 0 24 52.59 7.3
-2 0 -24 49.1 7.4
2 0 -24 37.4 6.3
-2 0 24 29.6 6.3
2 0 -24 42.9 6.3
3 0 -24 16.2 3.5
-3 0 -24 22.5 3.9
-3 0 24 20.7 3.7
3 0 -24 22.7 3.7
-3 0 24 22.6 3.7
3 0 24 23.1 4.6
-4 0 24 -0.3 1.1
4 0 24 1.3 1.4
-4 0 24 0.1 1.1
4 0 -24 -1.6 0.8
4 0 -24 0 1
-4 0 -24 3.2 1.4
-4 0 -24 -0.3 1.1
4 0 24 1.2 1.1
5 0 -24 73.59 11.9
-5 0 24 73.59 12
-5 0 24 71.99 11.9
5 0 -24 73.59 11.9
5 0 24 92.39 12
0 1 -24 0 1
0 1 -24 0.4 0.9
0 1 24 0.8 1.2
0 1 24 -1.2 1
0 -1 24 -0.1 1
0 -1 24 -0.6 0.9
0 -1 -24 -0.5 0.9
0 -1 -24 1 1.1
1 -1 24 122.69 20.5
-1 1 24 128.89 20.5
-1 -1 -24 128.79 20.5
1 1 -24 113.59 20.5
-1 1 24 143.49 20.6
1 1 -24 135.49 20.6
1 -1 24 130.59 20.5
-1 -1 -24 132.99 20.5
-1 1 -24 128.99 20.5
-1 -1 24 135.59 20.5
1 1 24 139.69 20.5
1 -1 -24 144.19 20.6
1 -1 -24 143.19 20.5
1 1 24 134.19 20.5
-1 -1 24 137.79 20.5
-2 1 24 -2.2 1.1
2 1 -24 0.4 0.9
-2 1 24 0 1
2 1 -24 0.8 1
2 -1 -24 -0.9 0.9
-2 1 -24 1 1.8
-2 -1 24 0.9 1
2 -1 -24 -1 0.8
-2 -1 24 -0.8 0.9
-3 1 24 44.7 10.3
3 1 -24 70.99 10.2
3 -1 24 65.19 10.3
-3 1 24 67.99 10.2
-3 -1 -24 43.1 10.2
3 -1 24 59.79 10.2
3 1 -24 63.29 10.1
3 -1 -24 72.89 10.2
3 -1 -24 74.79 10.3
-3 -1 24 65.09 10.3
-3 1 -24 71.49 10.3
-3 -1 24 80.69 10.2
-4 -1 -24 19.8 3.2
4 -1 24 17.2 3
4 1 -24 21.5 3
-4 1 24 13.4 3
-4 -1 -24 16.3 3.1
-4 1 24 13 2.8
4 -1 24 21.2 3.1
-4 1 -24 11.4 2.8
4 1 24 15.6 2.9
4 1 24 18.8 3.1
4 -1 -24 11.8 2.8
-4 -1 24 14.3 2.9
-4 -1 24 13.2 3
-5 1 24 1.4 1.4
-5 1 24 2.1 1.2
-5 -1 -24 1 1.2
5 -1 24 0.9 1.1
5 1 -24 0.7 1.1
5 -1 24 -0.1 1.1
5 1 -24 1.5 1
5 1 -24 -0.5 1
-5 -1 -24 -1 1.2
-5 1 -24 -0.3 1
5 1 24 0.4 1
-5 -1 24 0.3 1.3
5 -1 -24 -0.4 0.9
-5 -1 24 -1.9 1
-5 1 -24 0.9 1.1
5 1 24 1 1.3
5 -1 -24 1.5 1.2
0 2 24 3.7 1.2
0 -2 24 0.8 1
0 -2 -24 0.3 1.1
0 -2 24 0.8 1
0 -2 -24 0.5 0.9
0 2 -24 0 0.9
0 2 24 0.5 1
0 2 -24 -0.5 1
1 2 -24 -2.1 0.8
1 -2 24 0.4 1.1
-1 -2 -24 1.7 1.3
1 -2 24 -0.5 0.9
1 2 -24 0 0.9
-1 2 24 0.7 1.1
-1 -2 -24 1 1
-1 2 24 1.4 1.1
-1 2 -24 0.8 0.9
1 2 24 0.1 1.1
1 -2 -24 -0.4 0.9
-1 2 -24 1.7 1.2
-1 -2 24 -0.9 0.9
-1 -2 24 0 0.9
1 -2 -24 2 1.2
1 2 24 -0.3 1.1
-2 2 24 7.7 1.8
-2 2 24 8.3 1.9
2 2 -24 7.8 1.9
2 2 -24 7.6 1.7
2 -2 -24 7.7 1.7
-2 -2 24 9.5 1.9
2 -2 -24 5.4 1.7
-2 -2 24 6.6 1.7
3 -2 24 53.79 6.9
-3 2 24 37.2 6.8
-3 -2 -24 41.2 6.8
3 2 -24 42.9 6.8
-3 -2 -24 38.5 6.9
3 2 -24 35.7 6.6
3 -2 24 46.9 6.8
-3 2 24 34.6 6.6
3 2 24 46.6 6.8
-3 -2 24 37.1 6.6
-3 -2 24 43 6.7
-3 2 -24 46.5 6.9
3 -2 -24 35.7 6.6
3 -2 -24 45.5 6.7
-4 2 24 1 1.1
-4 2 24 1.3 1.3
4 -2 24 1.4 1.1
4 2 -24 1.7 1.2
-4 -2 -24 -1.3 1
4 2 -24 1.1 1
4 2 -24 0.7 0.9
-4 -2 -24 1.2 1.1
4 -2 -24 2.2 1.2
-4 2 -24 -1.2 0.9
-4 2 -24 0.7 1.1
4 2 24 1.8 1.2
-4 -2 24 1 1
4 2 24 1.6 1.2
-4 -2 24 1 1.2
4 -2 -24 0.4 0.9
-5 2 24 6.9 1.9
5 2 -24 7.1 1.5
5 2 -24 8.2 1.6
5 -2 24 6.8 1.7
-5 -2 -24 7.3 1.7
-5 -2 -24 3.6 1.5
5 2 -24 4.9 1.4
-5 2 24 5.8 2
5 -2 24 7.1 1.7
5 -2 -24 1.5 1.4
-5 -2 24 6.2 1.6
5 2 24 7.8 1.7
5 -2 -24 5 1.6
-5 2 -24 8.4 1.8
-5 2 -24 5 1.7
5 2 24 4.2 1.6
0 -3 -24 0 1
0 -3 24 -0.5 1
0 3 24 2.2 1.2
0 3 -24 -0.3 1.1
0 3 24 -0.9 1
0 -3 24 0.4 0.9
0 3 -24 0.5 1
1 3 -24 0.1 1
1 -3 24 -1.4 0.8
-1 -3 -24 1 1.1
1 -3 24 1.4 1
-1 3 24 0 1.1
1 3 -24 -0.2 0.9
-1 3 24 -1 1
-1 -3 -24 -0.9 1.1
1 3 24 0.3 1
1 -3 -24 0 1
1 3 24 1.4 1.1
1 -3 -24 0.5 0.9
-1 -3 24 -0.8 0.8
-1 3 -24 0.1 1.2
-1 3 -24 -1 0.9
2 3 -24 -0.4 0.9
-2 3 24 0.3 1.2
-2 3 24 -1 1
2 3 -24 1 1.1
-2 -3 24 0 1
2 -3 -24 1.5 1
-2 -3 24 1.2 1
2 -3 -24 0.3 0.9
-3 -3 -24 0.4 1.2
-3 3 24 1.2 1.3
3 -3 24 0.8 1.1
-3 -3 -24 0.9 1
-3 3 24 -0.9 1
3 3 -24 -1.1 1
3 -3 24 0.3 0.9
-3 -3 24 -0.6 1
-3 3 -24 2.1 1.3
-3 -3 24 1.7 1
3 -3 -24 2.7 1.2
3 -3 -24 0.8 0.9
3 3 24 0.6 1.2
3 3 24 -0.7 1.1
-3 3 -24 -0.1 1
4 3 -24 0.5 0.9
-4 -3 -24 0.1 1.1
4 -3 24 1 1
-4 3 24 0.9 1.4
4 3 -24 0.9 1.1
4 3 -24 1.3 1
-4 -3 -24 0.6 1.3
-4 3 24 -1.1 1.2
4 -3 24 1.1 1.1
4 3 24 -1.5 1.1
4 -3 -24 0 1
-4 3 -24 0.2 1.1
-4 -3 24 0.3 1.2
4 3 24 0.9 1.2
-4 -3 24 -0.1 1
4 -3 -24 -0.1 1
-4 3 -24 0.5 1.2
0 4 -24 9.1 1.9
0 4 24 5.4 1.7
0 -4 -24 7.8 1.8
0 -4 24 10.3 1.9
0 4 -24 10.4 2
0 4 24 9.5 2.2
0 -4 -24 6.9 1.8
0 -4 24 5.5 1.8
1 -4 24 6.6 1.6
-1 4 24 4.1 1.5
1 -4 24 3.6 1.4
1 4 -24 4.4 1.6
-1 4 24 4.1 1.7
1 4 -24 9 1.7
1 -4 -24 6.1 1.5
-1 4 -24 7.2 1.7
1 -4 -24 5.6 1.4
-1 -4 24 3.8 1.5
-1 -4 24 3.8 1.3
-1 4 -24 7.4 1.7
-2 4 24 2.6 1.4
2 4 -24 3.5 1.3
-2 4 24 1.7 1.2
2 4 -24 3.7 1.2
-2 -4 24 1.5 1
2 -4 -24 1.1 1.1
2 -4 -24 2.2 1.1
-2 -4 24 2.9 1.3
-3 4 24 7.8 2
3 4 -24 10.7 1.9
3 -4 24 9.6 1.9
-3 -4 -24 5.1 1.6
-3 -4 -24 4.6 1.8
3 -4 24 5.3 1.7
-3 4 24 7.3 1.8
3 4 -24 6.4 1.6
3 -4 -24 6.8 1.6
3 -4 -24 6.7 1.7
3 4 24 5.5 1.7
-3 -4 24 8.9 1.7
-3 4 -24 6.2 1.9
3 4 24 5.3 1.7
-3 4 -24 5.2 1.6
-3 -4 24 5 1.6
-4 -4 -24 -0.4 1.1
-4 4 24 -0.5 1.4
4 4 -24 0.9 1
4 4 -24 0.4 0.9
-4 -4 -24 0.2 1.3
4 -4 24 -1.5 1.1
4 4 -24 -0.5 1
4 -4 24 0 1.1
-4 4 24 2.2 1.3
4 4 24 0.7 1.2
-4 -4 24 -0.4 0.9
4 -4 -24 0.2 1
4 4 24 0.1 1.1
-4 -4 24 -1.9 0.9
4 -4 -24 1.5 1.2
-4 4 -24 0.4 1.2
0 5 -24 -0.3 1
0 -5 24 -0.6 0.9
0 -5 24 0.4 1
0 5 -24 0.7 1
1 5 -24 1.8 1.2
1 5 -24 1.9 1
1 -5 24 0.3 1
-1 5 -24 4.2 1.4
-1 -5 24 1.6 1.1
-1 -5 24 0.1 1
2 5 -24 2.9 1.3
-2 -5 -24 5.2 1.5
2 -5 24 3.1 1.3
-2 -5 -24 2.2 1.2
2 5 -24 4 1.3
2 -5 24 3.2 1.3
2 5 24 2.7 1.4
2 5 24 3.7 1.6
-2 -5 24 5.3 1.4
-2 5 -24 3.7 1.4
2 -5 -24 1.3 1.2
-2 -5 24 6.3 1.4
3 5 -24 -0.3 0.8
-3 -5 -24 0.8 1.1
3 -5 24 0.6 1.2
3 -5 24 0.6 1
-3 -5 -24 0.2 1.2
3 5 24 1.2 1.2
-3 -5 24 -1 0.9
3 -5 -24 -0.2 0.8
3 5 24 1.1 1.3
-3 -5 24 0.3 1
-3 5 -24 0.4 1
4 -5 24 2.1 1.2
-4 -5 -24 2.8 1.3
4 5 -24 1.9 1.1
4 5 -24 6.8 1.5
4 5 -24 3 1.1
-4 -5 -24 4.5 1.5
4 -5 24 2.7 1.3
4 5 24 2.1 1.3
-4 -5 24 2 1.3
4 5 24 1.1 1.2
-4 5 -24 2.6 1.3
-4 -5 24 0.8 1.1
-4 5 -24 3.4 1.4
4 -5 -24 4.7 1.4
0 6 24 43.9 6.6
0 -6 -24 35.9 6.5
0 -6 -24 34.1 6.5
0 6 -24 58.59 6.9
0 6 -24 52.89 6.8
0 -6 24 35.9 6.5
0 6 24 28.4 6.5
0 -6 24 43.9 6.6
-1 -6 -24 32.1 5.1
-1 -6 -24 32.7 5.2
1 6 -24 36.2 5.2
1 6 -24 36.3 5.2
1 6 24 21.6 5
-1 -6 24 28.9 5
1 -6 -24 33.6 5.3
-1 -6 24 30.7 5
-1 6 -24 23.5 5.2
1 6 24 29.3 5.3
-2 6 24 11.5 2.5
-2 -6 -24 9 2.2
-2 -6 -24 10.3 2.3
2 6 -24 14 2.3
2 -6 24 12.2 2.3
2 6 -24 10 2.2
2 -6 24 10.3 2.3
-2 6 -24 13.8 2.4
2 -6 -24 11.1 2.4
2 6 24 11.7 2.5
-2 -6 24 10.8 2.3
-2 -6 24 8 2.2
-3 -6 -24 0.7 1.1
-3 6 24 -0.5 1.4
-3 6 24 1 1.2
3 -6 24 0.7 1.1
3 6 -24 -1.1 0.9
3 -6 24 0.8 1
3 6 -24 -0.5 0.9
-3 -6 -24 1.3 1.2
3 6 24 -0.9 1.1
3 6 24 0.4 1.2
-3 -6 24 0.4 0.9
-3 6 -24 1.6 1.1
-3 6 -24 0.1 1
-3 -6 24 1.5 1
3 -6 -24 1.4 1.1
4 6 -24 1 1
-4 -6 -24 1.7 1.3
4 6 -24 -1.3 1.1
-4 -6 -24 0.8 1.1
4 6 -24 0.6 0.9
-4 6 24 1.1 1.4
4 -6 24 0.1 1.1
4 -6 24 0.1 1.1
-4 6 24 1.1 1.6
4 -6 -24 0.4 1.2
4 6 24 -0.6 1
-4 6 -24 2.7 1.3
4 6 24 0.6 1.4
-4 6 -24 -0.2 1.1
-4 -6 24 2.4 1.1
0 -7 24 -0.2 0.9
0 7 24 1.5 1.3
0 7 -24 0.8 1.1
0 7 24 1.9 1.3
0 -7 -24 -0.6 1
0 -7 -24 0 0.9
0 -7 24 -1 0.9
1 7 -24 -0.7 0.9
1 7 -24 0 1.1
-1 -7 -24 -1 0.9
-1 -7 -24 1.4 1.1
-1 7 24 -1.1 1.2
-1 7 24 0.3 1.2
1 7 24 0.5 1.2
-1 -7 24 0.9 1
1 7 24 0.8 1.3
1 -7 -24 0.1 1
-1 -7 24 0.5 1
2 -7 24 0.7 1.1
2 -7 24 0.1 1
2 7 -24 1.2 1
-2 7 24 2.3 1.5
-2 -7 -24 -0.4 1
-2 -7 -24 -0.6 0.8
-2 7 24 -1.5 1.1
2 7 24 0.9 1.4
2 -7 -24 0 1
-2 7 -24 1.5 1.2
-2 -7 24 0.3 1.1
-2 7 -24 -0.2 1.1
2 -7 -24 3.5 1.2
-2 -7 24 -0.2 0.9
2 7 24 -0.2 1.1
3 7 -24 7.3 1.6
-3 -7 -24 3.7 1.4
-3 7 24 4.7 2
-3 -7 -24 1.8 1.4
3 7 -24 4 1.3
3 -7 24 2.5 1.4
-3 7 24 3.1 1.6
3 -7 24 5.1 1.5
3 7 24 3.6 1.5
-3 7 -24 3.5 1.4
3 -7 -24 4.6 1.6
-3 -7 24 3.3 1.3
-3 7 -24 3.8 1.5
-3 -7 24 6 1.5
3 7 24 4.2 1.5
3 -7 -24 4.5 1.4
0 -8 -24 0.3 1.1
0 8 -24 -0.2 0.9
0 8 24 -0.6 1
0 -8 -24 -0.3 1
0 8 24 0.1 1.4
-1 -8 -24 29.2 4.9
1 8 -24 35.2 5
1 -8 24 28.5 4.9
1 -8 24 18.3 4.8
-1 8 24 33.2 5.1
-1 8 24 30.2 5.2
-1 -8 -24 25.8 4.8
1 8 -24 38.1 5
1 -8 -24 27.4 4.9
-1 -8 24 32.8 5
1 8 24 25.2 5
1 -8 -24 25.8 4.8
-1 8 -24 31.3 5
-1 -8 24 26.4 4.8
-1 8 -24 34.1 5.5
2 8 -24 6.6 1.7
2 8 -24 8.9 1.9
2 -8 24 3.5 1.7
2 -8 24 10.6 2
-2 -8 -24 9.5 1.9
-2 8 24 6.5 1.9
-2 8 24 7.2 2.1
-2 -8 -24 3.5 1.6
2 -8 -24 5.8 1.8
-2 8 -24 8.7 1.9
2 8 24 7.1 2
-2 -8 24 7.1 1.7
2 8 24 8.2 1.9
-2 8 -24 6.7 1.7
2 -8 -24 5.6 1.7
-2 -8 24 8.5 1.7
-3 8 24 8.4 2.4
-3 -8 -24 12.9 2.4
3 -8 24 14.4 2.4
-3 8 24 14.1 2.8
3 8 -24 12.9 2.3
3 8 -24 13.3 2.4
3 -8 24 9.1 2.5
-3 8 -24 9.3 2.3
-3 -8 24 11.7 2.2
3 8 24 12.1 2.5
3 -8 -24 8.5 2.3
3 -8 -24 7.6 2.3
3 8 24 11.4 2.6
-3 -8 24 9.8 2.2
0 9 24 0.2 1.4
0 9 24 -1.5 1
0 -9 -24 -0.6 1
0 -9 24 -2.2 1
0 -9 -24 0.6 1.1
0 9 -24 0.2 1
1 -9 24 6.3 1.6
-1 -9 -24 6.2 1.7
-1 9 24 1.8 1.7
1 -9 24 6 1.6
-1 -9 -24 3.6 1.5
-1 9 24 4.3 1.7
1 9 24 3.3 1.6
-1 -9 24 3.7 1.4
-1 9 -24 7.1 1.6
1 -9 -24 4.1 1.4
1 -9 -24 5 1.5
-1 -9 24 3.9 1.4
-1 9 -24 9 1.8
1 9 24 4.6 1.8
-2 9 24 14.7 3.8
-2 -9 -24 18.6 3.7
2 -9 24 26.1 4
2 9 -24 25.1 3.8
2 9 -24 23 3.9
-2 -9 -24 22.3 3.8
2 -9 24 22.6 4
-2 9 24 28.9 4.4
2 9 24 16.5 3.9
-2 9 -24 20.8 3.8
2 -9 -24 26.9 4.1
-2 -9 24 17.8 3.7
-2 -9 24 23 3.8
2 -9 -24 21 3.9
0 -10 -24 -0.4 1.1
0 -10 24 -0.6 1.1
0 10 24 -1.4 1.3
0 10 -24 0.4 1
0 10 24 -0.5 1.2
0 -10 24 -1.1 0.9
0 -10 -24 0.5 1
0 0 25 1.7 1.2
0 0 25 1.4 1.1
0 0 -25 -0.1 1
0 0 -25 0.8 1.1
-1 0 25 0.3 1.1
-1 0 25 0 1
1 0 -25 -0.9 0.9
1 0 -25 0.6 1.1
-2 0 25 2.2 1.4
-2 0 25 -0.2 1.1
2 0 25 -0.1 1
-2 0 -25 -1.2 0.9
-2 0 -25 0.1 0.9
2 0 -25 -0.2 0.9
2 0 -25 0.8 1.1
-3 0 25 0.5 1.1
-3 0 -25 1.2 1.2
3 0 25 -1.9 0.9
3 0 25 0.4 1.1
3 0 -25 -2.4 0.9
-3 0 25 0.6 1.2
-3 0 -25 0.1 1.2
4 0 -25 -1.3 0.9
-4 0 25 2.2 1.2
4 0 25 0.2 1
4 0 -25 0.5 0.9
-4 0 -25 0.4 1.1
-4 0 25 -0.6 1.2
-4 0 -25 -0.3 1.2
0 -1 -25 -0.3 1.2
0 -1 25 -0.2 1
0 1 -25 -2.3 0.9
0 -1 -25 -1 0.9
0 -1 25 -0.3 1
0 1 25 0.1 1
0 1 25 3.3 1.3
0 1 -25 -1 0.8
-1 1 25 8.1 1.9
1 1 -25 7.7 1.8
1 1 -25 7 2
-1 -1 25 10.1 1.9
1 -1 -25 7.4 1.9
1 -1 -25 6.6 1.8
-1 -1 25 10.2 2
2 1 -25 0.4 0.9
2 1 -25 0.6 1.2
2 -1 25 2.9 1.3
-2 1 25 1.9 1.3
-2 -1 -25 1.8 1.2
-2 -1 -25 0.8 1
-2 1 25 -1.1 1
2 -1 -25 1.4 1
-2 -1 25 1.9 1.2
-2 1 -25 0.7 1.1
-2 -1 25 2.1 1.1
2 1 25 -1.7 0.9
2 -1 -25 -1.2 0.9
-2 1 -25 -0.1 1
2 1 25 -0.4 1
3 -1 25 15.2 2.5
3 1 -25 12.8 2.3
-3 -1 -25 17.8 2.7
-3 1 25 11 2.4
3 1 -25 11.6 2.4
-3 -1 -25 8.9 2.3
3 -1 25 10.8 2.4
-3 1 25 10.8 2.5
-3 1 -25 10.2 2.4
3 -1 -25 10.7 2.4
-3 -1 25 11.2 2.4
-3 1 -25 10.1 2.5
3 1 25 10 2.4
3 1 25 12.7 2.6
3 -1 -25 14.4 2.4
-3 -1 25 12.5 2.4
4 1 -25 1.8 1.1
-4 1 25 2.2 1.2
-4 -1 -25 1 1.2
4 -1 25 2 1.1
4 -1 25 2.1 1.2
-4 -1 -25 1.1 1.2
4 1 -25 0.7 1.2
-4 1 25 -0.6 1.4
4 -1 -25 2.1 1.2
-4 -1 25 1.2 1.2
4 1 25 1.7 1.2
-4 1 -25 1 1.3
4 -1 -25 3.3 1.1
-4 -1 25 1.9 1.3
4 1 25 1.3 1.2
0 2 -25 5.5 1.8
0 2 -25 6 1.7
0 -2 25 7.4 1.7
0 -2 25 9.5 1.8
0 -2 -25 8.1 1.8
-1 2 25 0.8 1.2
1 2 -25 -0.1 1
-1 2 25 0.5 1.2
1 2 -25 1.6 1.1
-1 -2 25 1.1 1.1
-1 -2 25 1.4 1.1
1 -2 -25 2 1
1 -2 -25 0.4 1.1
2 -2 25 4.6 1.3
2 -2 25 4.8 1.5
2 2 -25 5.5 1.4
2 2 -25 5 1.5
-2 2 25 4.6 1.4
-2 -2 -25 3.5 1.3
-2 2 25 4.9 1.6
2 2 25 3.2 1.4
2 -2 -25 4.2 1.3
-2 -2 25 4.6 1.4
2 -2 -25 3.3 1.3
-2 -2 25 2.4 1.3
-2 2 -25 3.8 1.5
2 2 25 3.8 1.3
-2 2 -25 2.1 1.3
3 -2 25 6.8 1.6
3 -2 25 2.9 1.3
3 2 -25 8 1.7
-3 2 25 3.4 1.4
3 2 -25 4.9 1.4
-3 -2 -25 2.8 1.4
-3 2 25 3.6 1.6
-3 -2 -25 7.6 1.7
-3 2 -25 5.2 1.6
3 2 25 4.7 1.5
-3 -2 25 3.5 1.5
3 -2 -25 3.8 1.4
3 -2 -25 6.5 1.5
-3 -2 25 3.8 1.4
3 2 25 4.5 1.7
-4 -2 -25 1.9 1.3
4 2 -25 2.2 1.1
4 -2 25 2.8 1.3
-4 -2 -25 3.3 1.3
-4 2 25 2.7 1.3
-4 2 25 1.5 1.3
4 2 -25 1.9 1.2
-4 -2 25 3.3 1.3
4 2 25 1.6 1.2
-4 2 -25 0.7 1.2
4 -2 -25 2.8 1.3
-4 2 -25 2.6 1.2
-4 -2 25 2.4 1.4
0 3 -25 2.2 1.3
0 -3 25 0.1 1.5
0 3 -25 -0.5 0.9
0 -3 25 -0.3 0.9
1 3 -25 11.8 2.3
1 3 -25 11.3 2.2
-1 -3 25 9.4 2.1
-1 -3 25 8.6 2.1
1 -3 -25 12.8 2.3
2 3 -25 3.1 1.3
2 -3 25 2.7 1.2
-2 -3 -25 1.9 1.3
2 3 -25 2.3 1.1
-2 3 25 3.2 1.5
-2 -3 -25 2.6 1.3
2 -3 25 2.3 1.2
2 3 25 3.1 1.2
-2 3 -25 4.4 1.4
-2 -3 25 0.7 1.2
-2 3 -25 2.2 1.3
2 3 25 3.5 1.4
2 -3 -25 0.1 1.1
-2 -3 25 4.1 1.2
2 -3 -25 3.2 1.1
3 3 -25 22.2 3.5
3 -3 25 15.6 3.4
-3 -3 -25 16 3.4
-3 3 25 20.3 3.7
-3 3 25 19.4 4.5
3 -3 25 15.1 3.4
-3 3 -25 18.2 3.5
3 3 25 18.6 3.5
3 3 25 20.3 3.6
3 -3 -25 23 3.6
-3 -3 25 25.2 3.6
-3 -3 25 17.5 3.4
-3 3 -25 25.3 3.7
3 -3 -25 19.5 3.5
-4 -3 -25 11.3 2.6
4 3 -25 14.5 2.7
4 -3 25 13.4 2.7
4 3 -25 15.5 2.6
-4 3 25 13 2.9
4 -3 25 15.6 2.7
-4 -3 -25 17.1 2.9
-4 3 -25 11.9 2.6
4 3 25 14.8 2.7
-4 -3 25 11 2.5
4 3 25 14.4 2.7
4 -3 -25 11.3 2.6
-4 3 -25 11.8 2.7
-4 -3 25 10.2 2.5
4 -3 -25 14 2.7
0 -4 25 9.9 2.3
0 4 25 11.7 2.5
0 4 -25 13.9 2.6
0 4 -25 8.2 2.2
0 -4 25 17.8 2.5
-1 -4 -25 1.2 1.2
1 4 -25 1.7 1.1
-1 -4 -25 3.8 1.4
1 4 -25 1.1 1.2
-1 -4 25 3.7 1.2
-1 -4 25 2.4 1.3
1 4 25 2.6 1.2
-2 -4 -25 7.8 1.9
2 -4 25 7.6 1.8
2 4 -25 10.3 1.9
2 -4 25 7.1 1.8
-2 -4 -25 6.2 1.9
-2 4 -25 5.2 1.8
2 4 25 5.3 1.7
-2 -4 25 7.1 1.6
2 4 25 5.1 1.7
-2 -4 25 7.6 1.7
3 -4 25 1.4 1.2
-3 -4 -25 1.9 1.2
-3 -4 -25 1.1 1.4
3 -4 25 0.9 1.1
3 4 -25 3 1.1
3 4 -25 1.2 1.2
-3 -4 25 1.3 1.1
3 4 25 0.8 1.2
-3 4 -25 0.9 1.1
-3 -4 25 0.4 1.1
3 -4 -25 1.1 1
-3 4 -25 1.9 1.1
4 4 -25 1.3 0.9
-4 -4 -25 2.3 1.4
4 -4 25 0.8 1.2
4 -4 25 0.9 1.1
-4 -4 -25 -0.5 1
4 4 -25 -0.4 1.1
-4 4 -25 0.2 1.1
-4 -4 25 0 1.1
-4 4 -25 -1.2 1.2
4 4 25 2.2 1.3
4 4 25 2.1 1.3
4 -4 -25 1.2 1.1
-4 -4 25 1.9 1.1
0 -5 25 0.3 0.9
0 5 25 0.6 1.1
0 -5 -25 -0.3 1
0 5 -25 0 1.1
0 5 -25 -0.4 1.1
0 5 25 -1.7 1.3
0 -5 -25 -0.4 1
0 -5 25 1.7 1.8
-1 -5 -25 6 1.6
1 5 -25 6.4 1.6
1 5 -25 5.5 1.7
-1 5 25 5 1.7
1 -5 25 6.5 1.7
-1 5 25 3.5 1.5
-1 -5 -25 7.5 1.8
1 -5 -25 6.7 1.6
1 5 25 5.2 1.5
1 5 25 6.9 1.9
-1 -5 25 6.3 1.7
-1 -5 25 7.1 1.6
-1 5 -25 5.2 2.1
1 -5 -25 6.4 1.6
-2 5 25 3.8 1.4
2 -5 25 1.4 1.2
2 5 -25 0.9 1
2 5 -25 -1 1
2 -5 25 1.1 1.1
-2 -5 -25 0.1 1
-2 -5 -25 1.7 1.2
-2 -5 25 -0.7 0.8
-2 -5 25 2.1 1.1
2 -5 -25 0.1 1.1
-2 5 -25 0.8 1.1
2 5 25 -1.6 1.1
-2 5 -25 -0.9 1
2 5 25 -0.9 1.2
-3 5 25 17.1 3
-3 5 25 12.3 3
3 -5 25 12.5 2.8
3 5 -25 16 2.9
-3 -5 -25 16.9 3
3 5 -25 19.9 3
3 -5 25 18.2 2.9
-3 -5 -25 14.5 2.9
3 5 25 13.7 3
-3 -5 25 15.9 2.8
-3 5 -25 21.6 3.1
3 5 25 15.2 2.9
3 -5 -25 6.8 2.6
-3 -5 25 14.1 2.8
0 6 25 0.2 1.2
0 -6 -25 -0.3 0.9
0 6 25 0.1 1.2
0 6 -25 0 1
0 -6 -25 1 1.1
-1 -6 -25 0.5 1.1
1 -6 25 1.3 1.1
1 -6 25 1.6 1.1
-1 6 25 3.6 1.5
1 6 -25 1.7 1.1
1 6 -25 1.6 1
-1 6 25 3.1 1.4
-1 -6 -25 1.7 1.1
1 6 25 2 1.5
1 6 25 2.6 1.2
-1 -6 25 0.3 1
1 -6 -25 0 1
-1 6 -25 0.5 1.2
-1 -6 25 3.7 1.3
-2 6 25 4.2 1.8
2 -6 25 2.9 1.5
2 -6 25 5.5 1.6
2 6 -25 8.6 2.4
2 6 -25 9.4 1.7
-2 6 25 4.2 1.5
-2 -6 -25 3.7 1.5
-2 -6 -25 4.7 1.5
2 6 25 5.3 1.7
-2 -6 25 5.7 1.5
-2 6 -25 6.3 1.6
2 -6 -25 1.1 1.2
2 -6 -25 5.6 1.6
-2 -6 25 5.6 1.6
-3 6 25 -0.7 1.1
3 6 -25 0.4 1
-3 -6 -25 2.3 1.3
-3 -6 -25 0.7 1.2
3 -6 25 1.2 1.2
3 6 -25 -0.4 1.1
-3 6 25 -2.7 1.4
3 -6 25 0.8 1.1
3 6 25 3.6 1.6
-3 6 -25 -0.6 1
3 -6 -25 0.1 1
-3 6 -25 -0.8 1
3 -6 -25 -0.4 1
-3 -6 25 1.4 1
-3 -6 25 1.4 1.1
0 7 25 -1 1.3
0 -7 -25 0.7 1.2
0 -7 -25 1.9 1.1
0 7 25 0.3 1.2
-1 7 25 1.3 1.2
-1 7 25 -1 1.4
-1 -7 -25 0.8 1.2
-1 -7 -25 1.6 1.1
1 7 -25 -0.6 1.1
1 -7 25 1.5 1.2
1 7 -25 0.7 1.1
1 -7 25 -0.2 1
-1 -7 25 1.7 1.1
1 -7 -25 2.2 1.2
1 7 25 0.1 1.3
-1 7 -25 0.1 0.9
-1 -7 25 0.2 0.9
1 7 25 1 1.3
1 -7 -25 1.7 1.2
2 7 -25 46.4 8.9
2 -7 25 68.09 8.9
-2 7 25 50.29 9.1
-2 7 25 37.4 9
-2 -7 -25 64.59 8.9
2 -7 25 66.29 8.9
2 7 -25 71.79 9
-2 7 -25 68.49 9.2
-2 -7 25 59.09 8.8
-2 7 -25 66.99 9
2 7 25 45.4 9
-2 -7 25 66.69 8.9
2 -7 -25 38.2 8.9
2 -7 -25 39.3 8.9
0 -8 25 4.7 1.6
0 -8 25 7.1 1.5
0 -8 -25 5.1 1.7
0 8 25 3.2 1.6
0 -8 -25 6.8 1.7
0 8 25 5.1 1.8
1 -8 25 -0.9 0.9
-1 8 25 1.1 1.6
1 8 -25 -0.8 1.1
-1 -8 -25 -0.4 1.2
1 -8 25 1.8 1.2
1 8 -25 -1.1 0.9
-1 8 25 -0.1 1.2
-1 -8 -25 -0.6 1
-1 8 -25 -0.9 1
1 -8 -25 -0.5 1
1 8 25 -1.2 1.2
-1 8 -25 -0.7 1
-1 -8 25 -0.2 1
1 8 25 -0.1 1.2
-2 -8 -25 0.1 1.1
2 -8 25 -1.3 0.9
-2 8 25 0.1 1.3
2 -8 25 0.1 1.2
2 8 -25 0.8 1.1
-2 8 25 -0.3 1.5
-2 -8 -25 -1.2 1
2 8 -25 0.3 1.1
-2 8 -25 0.4 1.2
-2 8 -25 0.7 1.1
-2 -8 25 -1.1 0.9
2 8 25 0.8 1.3
-2 -8 25 -1.5 0.8
2 -8 -25 0.9 1.2
2 -8 -25 -0.4 0.9
0 9 25 -0.9 1.1
0 -9 -25 -0.9 1
0 -9 25 0.9 1
0 9 -25 -1.4 0.9
-1 0 26 22.4 3.6
-1 0 -26 16.4 3.2
1 0 -26 11.5 3
1 0 26 22.2 3.2
1 0 26 15.9 3.1
2 0 -26 65.69 10.8
-2 0 26 41.9 10.8
-2 0 -26 73.19 10.9
2 0 -26 64.99 10.8
-2 0 26 79.19 10.9
2 0 26 80.19 10.9
-2 0 -26 67.99 10.9
2 0 26 82.89 10.9
3 0 -26 34.6 5.9
-3 0 26 31 6
-3 0 -26 35.5 6
3 0 26 35.2 5.9
-3 0 -26 32 5.9
3 0 -26 38 6
3 0 26 39.9 6
-3 0 26 40.3 6
0 1 26 -0.7 1.2
1 -1 26 20.1 3.8
-1 -1 -26 20.4 4
1 1 -26 20.6 3.9
1 -1 26 24.7 4
-1 -1 -26 17.9 3.9
1 1 26 26.5 4
-1 -1 26 24.1 4
-1 1 -26 23.5 4.1
-1 1 -26 24.3 4
1 -1 -26 21.5 4
1 1 26 23.9 3.9
-2 1 26 16 3
-2 -1 -26 14.5 2.9
2 1 -26 17.5 2.8
2 1 -26 15.5 2.9
-2 -1 -26 11.9 2.8
2 -1 26 14.5 2.8
2 -1 26 19.1 3
2 -1 -26 15 2.7
2 1 26 8.1 2.6
-2 1 -26 13.6 2.9
-2 1 -26 17.5 3
2 -1 -26 16.5 3
2 1 26 14.5 2.8
-2 -1 26 12 2.8
-2 -1 26 22.1 3
3 -1 26 10 2.3
-3 1 26 8 2.2
3 -1 26 10.8 2.2
-3 -1 -26 9.6 2.3
3 1 -26 9.3 2.1
-3 -1 -26 14.7 2.4
3 1 -26 10.1 2.3
-3 1 26 10.6 2.4
-3 1 -26 13.3 2.5
-3 -1 26 10.6 2.3
-3 -1 26 13.4 2.3
3 -1 -26 8.3 2.1
3 -1 -26 12.1 2.3
-3 1 -26 13.2 2.4
3 1 26 9.6 2.2
3 1 26 9.5 2.3
0 2 26 12.3 2.4
0 -2 -26 5.7 2.5
0 2 26 14.4 2.4
-1 -2 -26 11.4 2.5
1 -2 26 12.7 2.5
1 2 -26 11.9 2.5
-1 -2 -26 8.8 2.5
1 -2 26 12.7 2.5
1 2 -26 16.5 2.6
1 2 26 12.7 2.6
-1 -2 26 12 2.4
-1 2 -26 16.2 2.6
-1 2 -26 12.2 3.1
1 2 26 9.8 2.3
-1 -2 26 9.8 2.4
2 -2 26 0.5 1.2
2 2 -26 1.6 1.3
-2 -2 -26 3.4 1.5
-2 -2 -26 0.9 1.1
2 -2 26 1.3 1.1
2 2 -26 1.4 1
-2 2 -26 2.8 1.3
-2 2 -26 1.2 1.2
2 -2 -26 1.8 1.1
2 2 26 2.9 1.2
2 2 26 3.5 1.3
-2 -2 26 2.9 1.3
-2 -2 26 2.6 1.2
3 -2 26 7.3 1.8
3 -2 26 5.5 1.6
3 2 -26 10.3 2
-3 -2 -26 7 1.8
3 2 -26 7.4 1.7
-3 -2 -26 7 1.8
-3 -2 26 7.2 1.7
-3 2 -26 13 2.3
-3 -2 26 5.8 1.9
3 -2 -26 6.1 1.7
-3 2 -26 6.8 1.9
3 2 26 4.2 1.7
3 2 26 7.2 1.8
0 -3 -26 1.4 1.1
0 -3 -26 -2 1
0 3 26 -1.4 1.1
0 3 26 1.2 1.2
1 -3 26 -0.6 1.1
1 3 -26 0 1.1
-1 3 26 1.4 1.2
-1 3 26 -0.1 1.2
-1 -3 -26 -1.1 1
1 3 -26 -0.9 0.9
1 -3 26 0.8 1.1
-1 -3 -26 1.6 1.3
1 3 26 -0.2 1.1
-1 -3 26 3.4 1.3
-1 -3 26 0.2 1
-1 3 -26 0.3 1.2
1 3 26 -1.4 1
-1 3 -26 -1.3 0.9
1 -3 -26 0 1.1
2 -3 26 3.5 1.2
2 3 -26 0.1 0.9
2 -3 26 1.4 1.1
-2 3 26 2.2 1.2
-2 -3 -26 0.9 1.1
2 3 -26 0.6 1.1
-2 -3 -26 2.5 1.4
-2 -3 26 1 1.2
2 3 26 1.7 1.3
-2 -3 26 -0.1 1
-2 3 -26 4 1.3
2 -3 -26 -0.9 1.2
-2 3 -26 2.6 1.3
2 3 26 0.7 1.1
-3 -3 -26 16 3.3
3 -3 26 19.5 3.3
3 3 -26 20.8 3.4
3 -3 26 16 3.2
-3 -3 -26 19.1 3.4
3 3 -26 17.3 3.1
-3 3 26 13.8 3.3
-3 -3 26 23.5 3.3
3 3 26 16.8 3.3
3 3 26 19.6 3.4
-3 -3 26 15.9 3.2
-3 3 -26 15.1 3.3
0 4 26 1.4 1.5
0 4 26 -0.8 1.1
0 -4 -26 1.2 1.2
-1 4 26 3.5 1.2
1 4 -26 1.1 1.2
-1 -4 -26 -0.6 1
1 -4 26 1.8 1.1
1 -4 26 2 1.1
-1 4 26 2.1 1.4
1 4 -26 0.6 1.1
-1 -4 -26 1.9 1.2
1 -4 -26 0.8 1.1
-1 -4 26 1.6 1.1
1 -4 -26 0.6 1
-1 4 -26 -0.2 1.1
-1 -4 26 2.2 1.3
1 4 26 2 1.3
-1 4 -26 0.4 1.1
1 4 26 1.4 1.2
2 -4 26 -1 1
-2 4 26 0 1.1
2 4 -26 0.6 1.1
2 4 -26 0.2 1
-2 4 26 1.5 1.4
-2 -4 -26 1.8 1.4
2 -4 26 -0.8 1
-2 -4 -26 1.9 1.2
-2 -4 26 -0.4 0.9
2 4 26 -1.1 1.1
-2 -4 26 1 1.1
2 -4 -26 0.9 1.1
-2 4 -26 0.1 1.1
2 -4 -26 0.5 1.1
2 4 26 0.9 1.3
3 -4 26 -0.8 1
3 4 -26 -0.2 1
-3 -4 -26 0.5 1.3
-3 4 26 -0.1 1.3
3 -4 26 0.7 1.2
-3 4 26 -0.1 1.2
-3 -4 -26 1.3 1.1
-3 4 -26 1.1 1.1
3 -4 -26 0.4 1.2
-3 -4 26 0.2 1
-3 -4 26 1.4 1.2
-3 4 -26 -0.9 1.1
3 4 26 1.8 1.3
0 -5 -26 0.2 1
0 5 -26 0 1.3
0 -5 -26 2.1 1.2
0 5 26 0.5 1.3
0 5 26 -0.4 1.1
0 -5 26 -0.3 1.1
-1 -5 -26 1 1.2
1 -5 26 -0.5 1
1 -5 26 -1 1
-1 -5 -26 0.5 1
1 5 -26 -0.1 0.9
1 5 -26 -0.7 1.2
-1 5 26 0.8 1.3
-1 5 26 -1.2 1
-1 5 -26 -0.3 1.1
-1 -5 26 0.1 1.2
-1 5 -26 -0.1 1.1
1 -5 -26 0.1 1.1
1 5 26 1.1 1.1
1 5 26 0.3 1.3
1 -5 -26 -1 0.8
2 -5 26 2.2 1.3
2 5 -26 2.3 1.2
2 5 -26 3 1.3
-2 5 26 1.5 1.5
-2 -5 -26 0.8 1.3
-2 5 26 0.7 1.4
-2 -5 -26 2.3 1.3
2 -5 26 2.1 1.3
2 5 26 2.6 1.4
-2 5 -26 0.6 1.3
2 5 26 2.1 1.3
-2 -5 26 1.6 1.1
2 -5 -26 2.8 1.4
2 -5 -26 1.7 1.1
-2 -5 26 2.3 1.2
-3 -5 -26 3.1 1.4
3 -5 26 4.1 1.4
-3 5 26 2.8 1.4
3 5 -26 2.9 1.2
3 5 26 1.9 1.4
3 -5 -26 1.7 1.2
-3 -5 26 1 1.1
-3 5 -26 4.5 1.5
0 6 26 0.4 1.1
0 -6 26 0.1 1.1
0 -6 -26 0.7 1
0 6 -26 1.1 1.2
0 -6 -26 3.8 1.2
0 -6 26 -0.2 1
0 6 26 2.3 1.5
1 -6 26 10.3 2.4
-1 6 26 11.5 2.6
1 6 -26 9.1 2.4
-1 -6 -26 10.9 2.5
-1 -6 -26 13 2.5
-1 6 26 10.9 2.6
1 -6 26 13.6 2.5
1 6 26 13.5 2.6
1 -6 -26 14.2 2.5
-1 6 -26 16.2 2.8
1 6 26 12.3 2.8
2 6 -26 -0.6 1
-2 -6 -26 -0.1 1
-2 6 26 -2.2 1.3
-2 -6 -26 0.6 1.2
2 -6 26 0.7 1.1
-2 6 26 1 1.2
2 -6 26 -0.8 0.9
2 6 -26 1.4 1.2
-2 6 -26 0.3 1.1
2 6 26 1.3 1.2
2 6 26 -0.1 1.2
-2 -6 26 0.6 1
2 -6 -26 0.2 1
-2 -6 26 1.3 1.2
-2 6 -26 -0.5 1.2
0 -7 26 -0.1 0.9
0 7 -26 2.2 1.3
0 7 26 -0.8 1.3
0 -7 -26 -0.3 0.9
0 -7 26 -0.6 1
0 -7 -26 -0.1 1.1
0 7 26 1.6 1.3
0 7 -26 1 1.2
1 -7 26 3.1 1.3
-1 7 26 0.7 1.5
1 7 -26 1.7 1.1
-1 -7 -26 1.8 1.2
-1 -7 -26 -0.5 1.2
-1 7 26 2.1 1.5
1 -7 26 1.3 1.2
1 7 26 0.2 1.3
1 -7 -26 2.1 1.2
1 7 26 1.2 1.4
-1 7 -26 3.7 1.4
-1 7 -26 1.8 1.1
1 -7 -26 3 1.3
0 0 27 -0.9 1.1
0 0 -27 0.3 1.3
0 0 27 0.3 1.1
0 0 -27 0 1
-1 0 -27 0.3 1.2
-1 0 27 -1.2 1
-1 0 -27 0.1 1.4
1 0 27 -1.6 1
1 0 27 -1.3 0.9
1 0 -27 1.1 1.2
-1 0 27 -2.2 1.1
2 0 27 1.4 1.2
2 0 -27 -1 0.9
-2 0 -27 -0.6 1
-2 0 -27 -0.6 1
2 0 27 -1.3 0.9
3 0 -27 0.3 0.9
-3 0 -27 -0.1 1.1
3 0 27 -1.3 1
3 0 27 -1.6 1
-3 0 -27 0.8 1.2
0 -1 27 0.3 1.2
0 -1 27 0.2 1
0 1 -27 -1.3 1
0 1 27 -1.3 1
0 -1 -27 0.8 1.3
0 1 -27 0.5 1.1
0 1 27 -1.6 0.9
0 -1 -27 1.6 1.2
1 1 -27 5.8 2
-1 -1 -27 9 1.9
1 -1 27 6.4 1.7
-1 1 27 5.3 1.7
-1 -1 -27 4.4 1.8
-1 1 27 2.7 1.7
1 -1 27 6.2 1.7
-1 1 -27 5.2 1.7
1 -1 -27 8.7 1.7
1 1 27 5.9 1.7
1 -1 -27 6.4 1.8
1 1 27 8.3 1.8
-1 -1 27 10.2 1.8
2 -1 27 12.5 2.1
-2 -1 -27 7.4 2
-2 1 27 6.3 1.9
2 -1 27 9.2 1.9
-2 -1 -27 7.7 2
2 1 -27 8.4 1.8
-2 1 -27 8.5 2.1
2 1 27 6.5 1.9
2 1 27 11.5 2.1
-2 1 -27 7.1 1.9
-3 -1 -27 1 1.2
3 -1 27 1.3 1.1
-3 1 27 1.6 1.3
-3 -1 -27 2.3 1.3
3 1 -27 -1.9 1.1
3 -1 27 0.7 1.3
-3 1 -27 1.2 1.1
3 1 27 0.5 1.1
-3 1 -27 1 1.3
-3 -1 27 -1 1.1
3 -1 -27 0.5 1
3 1 27 1.1 1.2
0 -2 -27 2.7 1.2
0 2 -27 3.8 1.5
0 -2 27 2.2 1.2
0 2 27 2.7 1.5
0 -2 -27 0.3 1.3
0 2 27 4.4 1.4
0 2 -27 1.9 1.2
-1 -2 -27 4.7 1.7
1 -2 27 5.5 1.7
-1 2 27 10 1.9
-1 -2 -27 6.3 1.8
-1 2 27 7.5 2.8
1 -2 27 6.5 1.7
1 -2 -27 6.6 1.8
-1 -2 27 6.6 1.8
-1 2 -27 5.5 1.7
1 2 27 6.6 1.8
1 -2 -27 6.1 1.6
-1 2 -27 5.8 1.7
1 2 27 7.4 1.8
-2 -2 -27 7.1 1.9
2 -2 27 6.1 1.9
-2 2 27 8.4 2
-2 2 27 6.3 1.8
-2 -2 -27 8.5 2
2 -2 27 5.6 1.7
2 2 -27 9.3 1.9
-2 2 -27 7.2 2
2 2 27 8.8 1.9
2 -2 -27 9 1.9
-2 2 -27 9.1 1.9
2 2 27 6.6 1.8
0 3 27 -0.6 1.1
0 -3 -27 -0.5 1.4
0 -3 27 1.2 1.1
0 -3 -27 0.8 1
0 -3 27 1.1 1.1
0 3 27 -0.6 1.2
0 3 -27 -1.2 1.1
0 3 -27 0.1 1
-1 3 27 3.4 1.4
-1 -3 -27 1.1 1.2
-1 -3 -27 2.8 1.4
1 -3 27 3.1 1.2
1 -3 27 2.1 1.4
-1 3 27 5.2 1.6
1 -3 -27 2 1.3
-1 3 -27 1.6 1.2
1 3 27 2 1.4
1 3 27 2.7 1.4
-1 -3 27 3.7 1.4
1 -3 -27 2.3 1.2
-1 3 -27 1.9 1.4
-2 3 27 -0.3 1.3
-2 3 27 0.1 1
2 -3 27 -0.3 1.1
-2 -3 -27 -0.7 1
-2 -3 -27 1.1 1.3
2 -3 27 0.1 1.1
2 3 -27 -0.4 0.9
-2 3 -27 0.5 1.2
2 3 27 0.8 1.2
-2 3 -27 -1.1 1.2
2 3 27 -1.3 1
2 -3 -27 0.7 1
-2 -3 27 0.3 1.2
2 -3 -27 -0.5 1
0 4 27 -0.6 1.1
0 -4 27 0.9 1.1
0 -4 -27 -0.2 1
0 -4 27 1.4 1.2
0 4 -27 0.1 1
0 4 -27 1.2 1.3
0 -4 -27 -0.7 1.1
0 4 27 -0.1 1.2
-1 4 27 1.1 1.5
-1 4 27 1.2 1.2
1 -4 27 4.9 1.4
-1 -4 -27 4.7 1.5
-1 -4 -27 5 1.4
1 -4 27 4.9 1.4
-1 4 -27 4 1.6
-1 -4 27 4 1.3
1 -4 -27 2.5 1.4
1 4 27 3 1.6
1 -4 -27 2.2 1.2
-1 4 -27 4.9 1.5
1 4 27 3.1 1.4
-2 -4 -27 0.7 1.3
2 -4 27 -0.2 1.1
-2 4 27 -1 1.2
2 4 -27 -0.8 0.9
-2 4 27 0.6 1.3
-2 -4 -27 -1.3 1
2 -4 27 0.8 1.1
2 4 27 -1.2 1.1
-2 4 -27 1.5 1.3
-2 -4 27 1.2 1.1
-2 4 -27 -1.2 1.1
2 -4 -27 0.6 1.1
2 -4 -27 0.2 1.1
2 4 27 0.3 1.4
0 -5 -27 1.4 1.1
0 5 -27 1.9 1.1
0 -5 27 -1.5 0.9
0 5 27 0.2 1.5
0 5 -27 2.5 1.3
0 -5 -27 -3.3 1
0 -5 27 -0.4 1
0 5 27 0.4 1.2
-1 -5 -27 -0.5 1.1
1 5 -27 0.1 1.2
-1 5 27 -0.3 1.2
1 -5 27 -0.1 1.1
-1 -5 -27 1.5 1
1 -5 27 1 1.1
-1 5 27 0.8 1.2
-1 5 -27 -0.6 1.1
1 -5 -27 -0.2 1
-1 5 -27 -0.7 1
1 -5 -27 0.4 1
1 5 27 -0.3 1.3
-1 -5 27 0.6 1
1 5 27 0.5 1.1
0 -6 27 5 1.5
0 -6 -27 3.8 1.4
0 6 27 6.3 1.8
0 6 -27 4.3 1.6
0 6 -27 5.6 1.7
0 -6 27 6.2 1.6
0 -6 -27 2.8 1.4
0 6 27 3.9 1.6
0 0 28 1.8 1.3
0 0 -28 3.3 1.4
0 0 28 1.8 1.3
0 0 -28 5.3 1.7
1 0 28 47.4 7.8
1 0 -28 53.99 8
-1 0 -28 47.2 7.9
1 0 28 65.89 7.8
-1 0 -28 48.2 7.8
-1 0 28 44.6 7.8
-1 0 28 41 7.7
1 0 -28 40.2 7.7
2 0 28 2 1.2
-2 0 28 1.1 1.2
0 -1 28 0.7 1.1
0 -1 28 0.7 1.2
0 -1 -28 -0.5 1.2
0 1 -28 0.5 1.1
0 1 28 2 1.3
0 1 28 1.4 1.2
-1 -1 -28 2.6 1.5
1 -1 28 1.7 1.2
1 1 -28 1.2 1.4
-1 1 28 1.4 1.4
1 1 -28 2 1.2
-1 1 28 2 1.4
1 -1 28 4 1.4
1 -1 -28 1.1 1.1
-1 -1 28 1.4 1.3
-1 1 -28 -0.4 1
1 1 28 3.8 1.4
1 1 28 1 1.1
1 -1 -28 1.1 1.4
-1 -1 28 2.5 1.3
0 -2 -28 3.8 1.4
0 -2 28 2.7 1.3
0 2 -28 4.1 1.5
0 2 28 3 1.4
0 2 -28 2.3 1.3
0 2 28 3 1.6
0 -2 28 5.3 1.5
0 -2 -28 2.4 1.5
-1 -2 -28 7.3 1.9
-1 2 28 8.3 2.1
1 -2 28 6.8 1.8
1 2 -28 7.8 1.9
-1 -2 -28 9.1 2
1 2 -28 5.6 1.7
-1 2 28 4.9 1.8
1 -2 28 6.3 1.7
-1 2 -28 4.7 1.7
-1 -2 28 6.5 1.7
1 2 28 4.6 1.7
1 -2 -28 8 1.9
-1 -2 28 10 1.9
1 2 28 7.7 1.8
-1 2 -28 5.9 1.8
1 -2 -28 8.2 1.8
0 3 28 -0.7 1.1
0 -3 -28 -0.5 1
0 -3 28 0 1
0 -3 28 0.3 1
0 3 -28 2.5 1.2
0 3 -28 0.4 1.1
0 3 28 -1.6 1.1
-1 3 28 0.1 1.1
1 -3 28 0.8 1.1
1 -3 28 -0.7 1.2
1 3 -28 0.9 1.1
1 3 -28 -0.9 1.1
-1 3 28 -1.3 1.2
-1 -3 -28 1.3 1.1
-1 -3 -28 -0.6 1.2
1 -3 -28 -1 1.1
1 3 28 0.6 1.3
-1 -3 28 -1.1 1
-1 -3 28 0.5 1.2
-1 3 -28 -0.5 1.1
-1 3 -28 -1.5 1.1
1 3 28 -1.8 1.3
1 -3 -28 -0.8 0.9
